
 OpenBabel03212520303D

 41 44  0  0  1  0  0  0  0  0999 V2000
   42.2250   82.4150   61.7940 C   0  0  0  0  0  0  0  0  0  0  0  0
   42.6550   81.5280   60.8270 C   0  0  0  0  0  0  0  0  0  0  0  0
   43.9010   80.9510   60.9120 C   0  0  0  0  0  0  0  0  0  0  0  0
   44.7920   81.2140   61.9500 C   0  0  0  0  0  0  0  0  0  0  0  0
   44.3870   82.0910   62.9210 C   0  0  0  0  0  0  0  0  0  0  0  0
   43.1420   82.6650   62.8350 C   0  0  0  0  0  0  0  0  0  0  0  0
   44.2270   80.2450   60.1320 H   0  0  0  0  0  0  0  0  0  0  0  0
   45.7500   80.7140   61.9350 H   0  0  0  0  0  0  0  0  0  0  0  0
   45.0450   82.3220   63.7450 H   0  0  0  0  0  0  0  0  0  0  0  0
   42.8540   83.3630   63.6340 H   0  0  0  0  0  0  0  0  0  0  0  0
   40.2080   79.7860   58.6730 C   0  0  0  0  0  0  0  0  0  0  0  0
   40.2380   80.5540   57.5260 C   0  0  0  0  0  0  0  0  0  0  0  0
   41.1150   81.6710   57.5070 C   0  0  0  0  0  0  0  0  0  0  0  0
   41.8490   81.8840   58.6290 N   0  0  0  0  0  0  0  0  0  0  0  0
   41.8060   81.1430   59.7120 C   0  0  0  0  0  0  0  0  0  0  0  0
   40.9780   80.0870   59.7260 N   0  0  0  0  0  0  0  0  0  0  0  0
   39.5680   78.9240   58.7570 H   0  0  0  0  0  0  0  0  0  0  0  0
   41.1620   82.2950   56.6210 H   0  0  0  0  0  0  0  0  0  0  0  0
   39.4250   80.2460   56.4010 N   0  0  0  0  0  0  0  0  0  0  0  0
   38.1580   80.6550   56.5340 C   0  0  0  0  0  0  0  0  0  0  0  0
   37.2720   80.4030   55.4810 C   0  0  0  0  0  0  0  0  0  0  0  0
   37.7410   79.7400   54.3400 C   0  0  0  0  0  0  0  0  0  0  0  0
   37.0110   79.4830   53.3640 O   0  0  0  0  0  0  0  0  0  0  0  0
   39.0450   79.3600   54.2910 N   0  0  0  0  0  0  0  0  0  0  0  0
   39.8970   79.6080   55.3170 C   0  0  0  0  0  0  0  0  0  0  0  0
   41.0950   79.2640   55.2830 O   0  0  0  0  0  0  0  0  0  0  0  0
   37.7630   81.1700   57.4000 H   0  0  0  0  0  0  0  0  0  0  0  0
   36.2310   80.7120   55.5320 H   0  0  0  0  0  0  0  0  0  0  0  0
   39.4430   78.8700   53.4800 H   0  0  0  0  0  0  0  0  0  0  0  0
   40.6840   83.1700   61.7250 S   0  0  0  0  0  0  0  0  0  0  0  0
   40.3530   83.7610   63.0880 O   0  0  0  0  0  0  0  0  0  0  0  0
   39.6380   82.0570   61.6620 O   0  0  0  0  0  0  0  0  0  0  0  0
   40.1610   83.4320   58.8710 H   0  0  0  0  0  0  0  0  0  0  0  0
   39.5390   83.9970   59.4770 N   0  0  0  0  0  0  0  0  0  0  0  0
   40.3750   84.4560   60.6170 C   0  0  2  0  0  3  0  0  0  0  0  0
   41.6760   84.8960   59.9050 C   0  0  0  0  0  3  0  0  0  0  0  0
   42.3830   84.0500   60.0280 H   0  0  0  0  0  0  0  0  0  0  0  0
   41.4800   85.2270   58.5360 N   0  0  0  0  0  0  0  0  0  0  0  0
   41.6450   84.4760   57.8440 H   0  0  0  0  0  0  0  0  0  0  0  0
   40.2850   85.9830   58.3430 C   0  0  0  0  0  2  0  0  0  0  0  0
   39.0840   85.2140   58.8450 C   0  0  0  0  0  2  0  0  0  0  0  0
  1  6  1  0  0  0  0
  2  3  1  0  0  0  0
  2  1  2  0  0  0  0
  3  4  2  0  0  0  0
  4  5  1  0  0  0  0
  5  9  1  0  0  0  0
  6  5  2  0  0  0  0
  6 10  1  0  0  0  0
  7  3  1  0  0  0  0
  8  4  1  0  0  0  0
 11 17  1  0  0  0  0
 11 16  1  0  0  0  0
 12 11  2  0  0  0  0
 13 12  1  0  0  0  0
 13 14  2  0  0  0  0
 14 15  1  0  0  0  0
 15 16  2  0  0  0  0
 15  2  1  0  0  0  0
 18 13  1  0  0  0  0
 19 20  1  0  0  0  0
 19 12  1  0  0  0  0
 20 27  1  0  0  0  0
 21 28  1  0  0  0  0
 21 20  2  0  0  0  0
 22 21  1  0  0  0  0
 23 22  2  0  0  0  0
 24 22  1  0  0  0  0
 24 25  1  0  0  0  0
 25 19  1  0  0  0  0
 26 25  2  0  0  0  0
 29 24  1  0  0  0  0
 30  1  1  0  0  0  0
 30 31  2  0  0  0  0
 32 30  2  0  0  0  0
 33 34  1  0  0  0  0
 34 35  1  0  0  0  0
 35 30  1  1  0  0  0
 36 37  1  0  0  0  0
 36 35  1  0  0  0  0
 38 36  1  0  0  0  0
 39 38  1  0  0  0  0
 40 38  1  0  0  0  0
 40 41  1  0  0  0  0
 41 34  1  0  0  0  0
M  END
>  <minimizedAffinity>
-5.85638285

>  <minimizedRMSD>
1.02767849

$$$$
