
 OpenBabel03212520303D

 41 44  0  0  1  0  0  0  0  0999 V2000
   42.7900   81.9120   62.4550 C   0  0  0  0  0  0  0  0  0  0  0  0
   43.4330   80.8610   61.8320 C   0  0  0  0  0  0  0  0  0  0  0  0
   44.7970   80.7110   61.9430 C   0  0  0  0  0  0  0  0  0  0  0  0
   45.6020   81.5840   62.6710 C   0  0  0  0  0  0  0  0  0  0  0  0
   44.9860   82.6330   63.2990 C   0  0  0  0  0  0  0  0  0  0  0  0
   43.6240   82.7810   63.1880 C   0  0  0  0  0  0  0  0  0  0  0  0
   45.2920   79.8660   61.4390 H   0  0  0  0  0  0  0  0  0  0  0  0
   46.6640   81.3870   62.7030 H   0  0  0  0  0  0  0  0  0  0  0  0
   45.5710   83.3340   63.8750 H   0  0  0  0  0  0  0  0  0  0  0  0
   43.1680   83.6370   63.7070 H   0  0  0  0  0  0  0  0  0  0  0  0
   41.6850   77.7710   60.8030 C   0  0  0  0  0  0  0  0  0  0  0  0
   41.2900   78.0800   59.5170 C   0  0  0  0  0  0  0  0  0  0  0  0
   41.6400   79.3620   59.0130 C   0  0  0  0  0  0  0  0  0  0  0  0
   42.3360   80.1720   59.8500 N   0  0  0  0  0  0  0  0  0  0  0  0
   42.7020   79.8610   61.0720 C   0  0  0  0  0  0  0  0  0  0  0  0
   42.3720   78.6500   61.5450 N   0  0  0  0  0  0  0  0  0  0  0  0
   41.4550   76.8180   61.2500 H   0  0  0  0  0  0  0  0  0  0  0  0
   41.3440   79.6340   58.0060 H   0  0  0  0  0  0  0  0  0  0  0  0
   40.5600   77.1570   58.7190 N   0  0  0  0  0  0  0  0  0  0  0  0
   39.2340   77.2640   58.8640 C   0  0  0  0  0  0  0  0  0  0  0  0
   38.4200   76.4020   58.1210 C   0  0  0  0  0  0  0  0  0  0  0  0
   39.0190   75.4700   57.2640 C   0  0  0  0  0  0  0  0  0  0  0  0
   38.3580   74.6730   56.5710 O   0  0  0  0  0  0  0  0  0  0  0  0
   40.3740   75.4320   57.1800 N   0  0  0  0  0  0  0  0  0  0  0  0
   41.1560   76.2710   57.9040 C   0  0  0  0  0  0  0  0  0  0  0  0
   42.4010   76.2450   57.8350 O   0  0  0  0  0  0  0  0  0  0  0  0
   38.7390   77.9710   59.5170 H   0  0  0  0  0  0  0  0  0  0  0  0
   37.3360   76.4420   58.1980 H   0  0  0  0  0  0  0  0  0  0  0  0
   40.8680   74.7690   56.5680 H   0  0  0  0  0  0  0  0  0  0  0  0
   41.0930   82.1490   62.3370 S   0  0  0  0  0  0  0  0  0  0  0  0
   40.6110   82.9340   63.5480 O   0  0  0  0  0  0  0  0  0  0  0  0
   40.4290   80.8010   62.6170 O   0  0  0  0  0  0  0  0  0  0  0  0
   41.2830   84.8060   61.1580 H   0  0  0  0  0  0  0  0  0  0  0  0
   41.3220   84.0280   60.4760 N   0  0  0  0  0  0  0  0  0  0  0  0
   40.4060   82.9780   60.9890 C   0  0  2  0  0  3  0  0  0  0  0  0
   39.1740   83.8070   61.4210 C   0  0  0  0  0  3  0  0  0  0  0  0
   39.2710   83.9340   62.5200 H   0  0  0  0  0  0  0  0  0  0  0  0
   39.0800   85.0600   60.7520 N   0  0  0  0  0  0  0  0  0  0  0  0
   39.4960   85.8790   61.2300 H   0  0  0  0  0  0  0  0  0  0  0  0
   39.3920   84.9380   59.3650 C   0  0  0  0  0  2  0  0  0  0  0  0
   40.7850   84.3790   59.1810 C   0  0  0  0  0  2  0  0  0  0  0  0
  1  6  1  0  0  0  0
  2  3  1  0  0  0  0
  2  1  2  0  0  0  0
  3  4  2  0  0  0  0
  4  8  1  0  0  0  0
  4  5  1  0  0  0  0
  5  9  1  0  0  0  0
  6  5  2  0  0  0  0
  6 10  1  0  0  0  0
  7  3  1  0  0  0  0
 11 17  1  0  0  0  0
 11 16  1  0  0  0  0
 12 11  2  0  0  0  0
 13 12  1  0  0  0  0
 13 14  2  0  0  0  0
 14 15  1  0  0  0  0
 15 16  2  0  0  0  0
 15  2  1  0  0  0  0
 18 13  1  0  0  0  0
 19 20  1  0  0  0  0
 19 12  1  0  0  0  0
 20 27  1  0  0  0  0
 21 28  1  0  0  0  0
 21 20  2  0  0  0  0
 22 21  1  0  0  0  0
 23 22  2  0  0  0  0
 24 22  1  0  0  0  0
 24 25  1  0  0  0  0
 25 19  1  0  0  0  0
 26 25  2  0  0  0  0
 29 24  1  0  0  0  0
 30  1  1  0  0  0  0
 30 32  2  0  0  0  0
 30 31  2  0  0  0  0
 34 35  1  0  0  0  0
 34 33  1  0  0  0  0
 35 36  1  0  0  0  0
 35 30  1  1  0  0  0
 36 37  1  0  0  0  0
 38 39  1  0  0  0  0
 38 36  1  0  0  0  0
 40 38  1  0  0  0  0
 41 40  1  0  0  0  0
 41 34  1  0  0  0  0
M  END
>  <minimizedAffinity>
-6.79046726

>  <minimizedRMSD>
3.08557415

$$$$
