
 OpenBabel03212520313D

 41 44  0  0  1  0  0  0  0  0999 V2000
   42.2130   82.4370   61.7550 C   0  0  0  0  0  0  0  0  0  0  0  0
   42.6570   81.5840   60.7640 C   0  0  0  0  0  0  0  0  0  0  0  0
   43.9060   81.0100   60.8440 C   0  0  0  0  0  0  0  0  0  0  0  0
   44.7840   81.2440   61.8990 C   0  0  0  0  0  0  0  0  0  0  0  0
   44.3650   82.0860   62.8940 C   0  0  0  0  0  0  0  0  0  0  0  0
   43.1180   82.6570   62.8130 C   0  0  0  0  0  0  0  0  0  0  0  0
   44.2430   80.3320   60.0440 H   0  0  0  0  0  0  0  0  0  0  0  0
   45.7460   80.7500   61.8780 H   0  0  0  0  0  0  0  0  0  0  0  0
   45.0130   82.2950   63.7310 H   0  0  0  0  0  0  0  0  0  0  0  0
   42.8190   83.3280   63.6320 H   0  0  0  0  0  0  0  0  0  0  0  0
   40.2430   79.9000   58.5290 C   0  0  0  0  0  0  0  0  0  0  0  0
   40.2800   80.7060   57.4080 C   0  0  0  0  0  0  0  0  0  0  0  0
   41.1500   81.8290   57.4360 C   0  0  0  0  0  0  0  0  0  0  0  0
   41.8710   82.0090   58.5710 N   0  0  0  0  0  0  0  0  0  0  0  0
   41.8220   81.2310   59.6280 C   0  0  0  0  0  0  0  0  0  0  0  0
   41.0010   80.1710   59.6000 N   0  0  0  0  0  0  0  0  0  0  0  0
   39.6070   79.0320   58.5780 H   0  0  0  0  0  0  0  0  0  0  0  0
   41.2010   82.4810   56.5710 H   0  0  0  0  0  0  0  0  0  0  0  0
   39.4800   80.4310   56.2660 N   0  0  0  0  0  0  0  0  0  0  0  0
   38.1670   80.4280   56.5250 C   0  0  0  0  0  0  0  0  0  0  0  0
   37.2880   80.1700   55.4670 C   0  0  0  0  0  0  0  0  0  0  0  0
   37.8120   79.9260   54.1910 C   0  0  0  0  0  0  0  0  0  0  0  0
   37.0910   79.6910   53.2030 O   0  0  0  0  0  0  0  0  0  0  0  0
   39.1590   79.9480   54.0200 N   0  0  0  0  0  0  0  0  0  0  0  0
   40.0040   80.1990   55.0500 C   0  0  0  0  0  0  0  0  0  0  0  0
   41.2430   80.2220   54.9050 O   0  0  0  0  0  0  0  0  0  0  0  0
   37.7300   80.6120   57.4980 H   0  0  0  0  0  0  0  0  0  0  0  0
   36.2120   80.1550   55.6180 H   0  0  0  0  0  0  0  0  0  0  0  0
   39.5990   79.7760   53.1060 H   0  0  0  0  0  0  0  0  0  0  0  0
   40.6690   83.1860   61.6950 S   0  0  0  0  0  0  0  0  0  0  0  0
   40.3350   83.7570   63.0660 O   0  0  0  0  0  0  0  0  0  0  0  0
   39.6280   82.0700   61.6160 O   0  0  0  0  0  0  0  0  0  0  0  0
   40.1670   83.4850   58.8410 H   0  0  0  0  0  0  0  0  0  0  0  0
   39.5350   84.0340   59.4500 N   0  0  0  0  0  0  0  0  0  0  0  0
   40.3550   84.4850   60.6030 C   0  0  2  0  0  3  0  0  0  0  0  0
   41.6570   84.9510   59.9090 C   0  0  0  0  0  3  0  0  0  0  0  0
   42.3730   84.1100   60.0250 H   0  0  0  0  0  0  0  0  0  0  0  0
   41.4690   85.2990   58.5430 N   0  0  0  0  0  0  0  0  0  0  0  0
   41.6480   84.5610   57.8420 H   0  0  0  0  0  0  0  0  0  0  0  0
   40.2670   86.0460   58.3520 C   0  0  0  0  0  2  0  0  0  0  0  0
   39.0710   85.2560   58.8330 C   0  0  0  0  0  2  0  0  0  0  0  0
  1  6  1  0  0  0  0
  2  3  1  0  0  0  0
  2  1  2  0  0  0  0
  3  4  2  0  0  0  0
  4  5  1  0  0  0  0
  5  9  1  0  0  0  0
  6  5  2  0  0  0  0
  6 10  1  0  0  0  0
  7  3  1  0  0  0  0
  8  4  1  0  0  0  0
 11 17  1  0  0  0  0
 11 16  1  0  0  0  0
 12 13  1  0  0  0  0
 12 11  2  0  0  0  0
 13 14  2  0  0  0  0
 14 15  1  0  0  0  0
 15  2  1  0  0  0  0
 16 15  2  0  0  0  0
 18 13  1  0  0  0  0
 19 20  1  0  0  0  0
 19 12  1  0  0  0  0
 20 27  1  0  0  0  0
 21 28  1  0  0  0  0
 21 20  2  0  0  0  0
 22 21  1  0  0  0  0
 23 22  2  0  0  0  0
 24 22  1  0  0  0  0
 24 25  1  0  0  0  0
 25 19  1  0  0  0  0
 26 25  2  0  0  0  0
 29 24  1  0  0  0  0
 30  1  1  0  0  0  0
 30 31  2  0  0  0  0
 32 30  2  0  0  0  0
 33 34  1  0  0  0  0
 34 35  1  0  0  0  0
 35 30  1  1  0  0  0
 36 37  1  0  0  0  0
 36 35  1  0  0  0  0
 38 36  1  0  0  0  0
 39 38  1  0  0  0  0
 40 38  1  0  0  0  0
 40 41  1  0  0  0  0
 41 34  1  0  0  0  0
M  END
>  <minimizedAffinity>
-6.04131317

>  <minimizedRMSD>
0.75798589

$$$$
