
 OpenBabel03212520303D

 41 44  0  0  1  0  0  0  0  0999 V2000
   42.2110   82.4380   61.7540 C   0  0  0  0  0  0  0  0  0  0  0  0
   42.6560   81.5840   60.7630 C   0  0  0  0  0  0  0  0  0  0  0  0
   43.9040   81.0110   60.8430 C   0  0  0  0  0  0  0  0  0  0  0  0
   44.7830   81.2440   61.8990 C   0  0  0  0  0  0  0  0  0  0  0  0
   44.3630   82.0870   62.8930 C   0  0  0  0  0  0  0  0  0  0  0  0
   43.1160   82.6580   62.8120 C   0  0  0  0  0  0  0  0  0  0  0  0
   44.2420   80.3330   60.0440 H   0  0  0  0  0  0  0  0  0  0  0  0
   45.7440   80.7510   61.8780 H   0  0  0  0  0  0  0  0  0  0  0  0
   45.0110   82.2960   63.7310 H   0  0  0  0  0  0  0  0  0  0  0  0
   42.8160   83.3280   63.6300 H   0  0  0  0  0  0  0  0  0  0  0  0
   40.2420   79.9000   58.5270 C   0  0  0  0  0  0  0  0  0  0  0  0
   40.2790   80.7060   57.4070 C   0  0  0  0  0  0  0  0  0  0  0  0
   41.1490   81.8290   57.4350 C   0  0  0  0  0  0  0  0  0  0  0  0
   41.8690   82.0090   58.5700 N   0  0  0  0  0  0  0  0  0  0  0  0
   41.8210   81.2310   59.6270 C   0  0  0  0  0  0  0  0  0  0  0  0
   41.0010   80.1700   59.5980 N   0  0  0  0  0  0  0  0  0  0  0  0
   39.6070   79.0310   58.5760 H   0  0  0  0  0  0  0  0  0  0  0  0
   41.1990   82.4820   56.5700 H   0  0  0  0  0  0  0  0  0  0  0  0
   39.4790   80.4310   56.2640 N   0  0  0  0  0  0  0  0  0  0  0  0
   38.1660   80.4300   56.5230 C   0  0  0  0  0  0  0  0  0  0  0  0
   37.2880   80.1720   55.4650 C   0  0  0  0  0  0  0  0  0  0  0  0
   37.8120   79.9260   54.1890 C   0  0  0  0  0  0  0  0  0  0  0  0
   37.0910   79.6900   53.2010 O   0  0  0  0  0  0  0  0  0  0  0  0
   39.1600   79.9460   54.0180 N   0  0  0  0  0  0  0  0  0  0  0  0
   40.0040   80.1970   55.0490 C   0  0  0  0  0  0  0  0  0  0  0  0
   41.2430   80.2180   54.9040 O   0  0  0  0  0  0  0  0  0  0  0  0
   37.7290   80.6160   57.4950 H   0  0  0  0  0  0  0  0  0  0  0  0
   36.2110   80.1580   55.6150 H   0  0  0  0  0  0  0  0  0  0  0  0
   39.6000   79.7720   53.1060 H   0  0  0  0  0  0  0  0  0  0  0  0
   40.6670   83.1870   61.6930 S   0  0  0  0  0  0  0  0  0  0  0  0
   40.3320   83.7570   63.0640 O   0  0  0  0  0  0  0  0  0  0  0  0
   39.6260   82.0700   61.6140 O   0  0  0  0  0  0  0  0  0  0  0  0
   40.1660   83.4860   58.8390 H   0  0  0  0  0  0  0  0  0  0  0  0
   39.5340   84.0350   59.4480 N   0  0  0  0  0  0  0  0  0  0  0  0
   40.3530   84.4860   60.6020 C   0  0  2  0  0  3  0  0  0  0  0  0
   41.6560   84.9510   59.9090 C   0  0  0  0  0  3  0  0  0  0  0  0
   42.3710   84.1100   60.0240 H   0  0  0  0  0  0  0  0  0  0  0  0
   41.4680   85.3010   58.5420 N   0  0  0  0  0  0  0  0  0  0  0  0
   41.6470   84.5610   57.8410 H   0  0  0  0  0  0  0  0  0  0  0  0
   40.2670   86.0470   58.3510 C   0  0  0  0  0  2  0  0  0  0  0  0
   39.0700   85.2570   58.8310 C   0  0  0  0  0  2  0  0  0  0  0  0
  1  6  1  0  0  0  0
  2  3  1  0  0  0  0
  2  1  2  0  0  0  0
  3  4  2  0  0  0  0
  4  5  1  0  0  0  0
  5  9  1  0  0  0  0
  6  5  2  0  0  0  0
  6 10  1  0  0  0  0
  7  3  1  0  0  0  0
  8  4  1  0  0  0  0
 11 17  1  0  0  0  0
 11 16  1  0  0  0  0
 12 13  1  0  0  0  0
 12 11  2  0  0  0  0
 13 14  2  0  0  0  0
 14 15  1  0  0  0  0
 15  2  1  0  0  0  0
 16 15  2  0  0  0  0
 18 13  1  0  0  0  0
 19 20  1  0  0  0  0
 19 12  1  0  0  0  0
 20 27  1  0  0  0  0
 21 28  1  0  0  0  0
 21 20  2  0  0  0  0
 22 21  1  0  0  0  0
 23 22  2  0  0  0  0
 24 22  1  0  0  0  0
 24 25  1  0  0  0  0
 25 19  1  0  0  0  0
 26 25  2  0  0  0  0
 29 24  1  0  0  0  0
 30  1  1  0  0  0  0
 30 31  2  0  0  0  0
 32 30  2  0  0  0  0
 33 34  1  0  0  0  0
 34 35  1  0  0  0  0
 35 30  1  1  0  0  0
 36 37  1  0  0  0  0
 36 35  1  0  0  0  0
 38 36  1  0  0  0  0
 39 38  1  0  0  0  0
 40 38  1  0  0  0  0
 40 41  1  0  0  0  0
 41 34  1  0  0  0  0
M  END
>  <minimizedAffinity>
-6.03739214

>  <minimizedRMSD>
0.797256768

$$$$
