
 OpenBabel03212520313D

 41 44  0  0  1  0  0  0  0  0999 V2000
   43.0580   82.3480   62.5660 C   0  0  0  0  0  0  0  0  0  0  0  0
   43.3540   81.2290   61.8130 C   0  0  0  0  0  0  0  0  0  0  0  0
   44.6180   80.6860   61.8350 C   0  0  0  0  0  0  0  0  0  0  0  0
   45.6590   81.2110   62.5970 C   0  0  0  0  0  0  0  0  0  0  0  0
   45.3890   82.3210   63.3520 C   0  0  0  0  0  0  0  0  0  0  0  0
   44.1260   82.8610   63.3300 C   0  0  0  0  0  0  0  0  0  0  0  0
   44.8360   79.7930   61.2280 H   0  0  0  0  0  0  0  0  0  0  0  0
   46.6200   80.7180   62.5520 H   0  0  0  0  0  0  0  0  0  0  0  0
   46.1660   82.7610   63.9590 H   0  0  0  0  0  0  0  0  0  0  0  0
   43.9490   83.7510   63.9510 H   0  0  0  0  0  0  0  0  0  0  0  0
   40.4630   79.2070   60.7090 C   0  0  0  0  0  0  0  0  0  0  0  0
   40.4910   79.3910   59.3410 C   0  0  0  0  0  0  0  0  0  0  0  0
   41.5190   80.2150   58.8100 C   0  0  0  0  0  0  0  0  0  0  0  0
   42.3880   80.7500   59.7040 N   0  0  0  0  0  0  0  0  0  0  0  0
   42.3460   80.5640   61.0040 C   0  0  0  0  0  0  0  0  0  0  0  0
   41.3750   79.7850   61.5020 N   0  0  0  0  0  0  0  0  0  0  0  0
   39.7130   78.5950   61.1810 H   0  0  0  0  0  0  0  0  0  0  0  0
   41.5670   80.3790   57.7390 H   0  0  0  0  0  0  0  0  0  0  0  0
   39.5280   78.7840   58.4880 N   0  0  0  0  0  0  0  0  0  0  0  0
   39.0970   79.5940   57.5140 C   0  0  0  0  0  0  0  0  0  0  0  0
   38.1490   79.0930   56.6150 C   0  0  0  0  0  0  0  0  0  0  0  0
   37.6920   77.7780   56.7690 C   0  0  0  0  0  0  0  0  0  0  0  0
   36.8510   77.2650   56.0070 O   0  0  0  0  0  0  0  0  0  0  0  0
   38.1850   77.0270   57.7880 N   0  0  0  0  0  0  0  0  0  0  0  0
   39.1050   77.5200   58.6550 C   0  0  0  0  0  0  0  0  0  0  0  0
   39.5640   76.8400   59.5950 O   0  0  0  0  0  0  0  0  0  0  0  0
   39.4280   80.6130   57.3670 H   0  0  0  0  0  0  0  0  0  0  0  0
   37.7620   79.7050   55.8040 H   0  0  0  0  0  0  0  0  0  0  0  0
   37.8870   76.0570   57.9500 H   0  0  0  0  0  0  0  0  0  0  0  0
   41.4990   83.0690   62.5630 S   0  0  0  0  0  0  0  0  0  0  0  0
   41.5810   84.4430   63.2130 O   0  0  0  0  0  0  0  0  0  0  0  0
   40.6600   82.3350   63.6090 O   0  0  0  0  0  0  0  0  0  0  0  0
   41.5130   85.0770   60.4530 H   0  0  0  0  0  0  0  0  0  0  0  0
   41.4900   84.0980   60.1170 N   0  0  0  0  0  0  0  0  0  0  0  0
   40.6530   83.3450   61.0860 C   0  0  2  0  0  0  0  0  0  0  0  0
   39.4630   84.3110   61.3020 C   0  0  0  0  0  0  0  0  0  0  0  0
   39.6800   84.8400   62.2540 H   0  0  0  0  0  0  0  0  0  0  0  0
   39.2760   85.2190   60.2240 N   0  0  0  0  0  0  0  0  0  0  0  0
   39.7280   86.1460   60.3080 H   0  0  0  0  0  0  0  0  0  0  0  0
   39.4340   84.5740   58.9600 C   0  0  0  0  0  0  0  0  0  0  0  0
   40.8070   83.9500   58.8520 C   0  0  0  0  0  0  0  0  0  0  0  0
  1  6  1  0  0  0  0
  2  3  1  0  0  0  0
  2  1  2  0  0  0  0
  3  4  2  0  0  0  0
  4  5  1  0  0  0  0
  5  9  1  0  0  0  0
  6  5  2  0  0  0  0
  6 10  1  0  0  0  0
  7  3  1  0  0  0  0
  8  4  1  0  0  0  0
 11 17  1  0  0  0  0
 11 16  1  0  0  0  0
 12 11  2  0  0  0  0
 13 12  1  0  0  0  0
 13 14  2  0  0  0  0
 14 15  1  0  0  0  0
 15 16  2  0  0  0  0
 15  2  1  0  0  0  0
 18 13  1  0  0  0  0
 19 25  1  0  0  0  0
 19 12  1  0  0  0  0
 20 19  1  0  0  0  0
 21 22  1  0  0  0  0
 21 20  2  0  0  0  0
 22 24  1  0  0  0  0
 23 22  2  0  0  0  0
 24 29  1  0  0  0  0
 24 25  1  0  0  0  0
 25 26  2  0  0  0  0
 27 20  1  0  0  0  0
 28 21  1  0  0  0  0
 30  1  1  0  0  0  0
 30 31  2  0  0  0  0
 30 32  2  0  0  0  0
 34 33  1  0  0  0  0
 34 35  1  0  0  0  0
 35 36  1  0  0  0  0
 35 30  1  1  0  0  0
 36 37  1  0  0  0  0
 38 39  1  0  0  0  0
 38 36  1  0  0  0  0
 40 38  1  0  0  0  0
 41 40  1  0  0  0  0
 41 34  1  0  0  0  0
M  END
>  <minimizedAffinity>
-6.97970295

>  <minimizedRMSD>
2.48953366

$$$$
