
 OpenBabel03212520303D

 41 44  0  0  1  0  0  0  0  0999 V2000
   42.8940   81.7790   62.4430 C   0  0  0  0  0  0  0  0  0  0  0  0
   43.4920   80.6950   61.8290 C   0  0  0  0  0  0  0  0  0  0  0  0
   44.8450   80.4790   61.9570 C   0  0  0  0  0  0  0  0  0  0  0  0
   45.6840   81.3130   62.6920 C   0  0  0  0  0  0  0  0  0  0  0  0
   45.1130   82.3940   63.3100 C   0  0  0  0  0  0  0  0  0  0  0  0
   43.7620   82.6080   63.1830 C   0  0  0  0  0  0  0  0  0  0  0  0
   45.3050   79.6100   61.4600 H   0  0  0  0  0  0  0  0  0  0  0  0
   46.7350   81.0650   62.7370 H   0  0  0  0  0  0  0  0  0  0  0  0
   45.7250   83.0660   63.8920 H   0  0  0  0  0  0  0  0  0  0  0  0
   43.3420   83.4860   63.6940 H   0  0  0  0  0  0  0  0  0  0  0  0
   41.5630   77.7150   60.8030 C   0  0  0  0  0  0  0  0  0  0  0  0
   41.2490   78.0150   59.4920 C   0  0  0  0  0  0  0  0  0  0  0  0
   41.7160   79.2510   58.9710 C   0  0  0  0  0  0  0  0  0  0  0  0
   42.4330   80.0320   59.8180 N   0  0  0  0  0  0  0  0  0  0  0  0
   42.7220   79.7300   61.0630 C   0  0  0  0  0  0  0  0  0  0  0  0
   42.2810   78.5620   61.5520 N   0  0  0  0  0  0  0  0  0  0  0  0
   41.2430   76.7950   61.2620 H   0  0  0  0  0  0  0  0  0  0  0  0
   41.4850   79.5160   57.9450 H   0  0  0  0  0  0  0  0  0  0  0  0
   40.4860   77.1250   58.6860 N   0  0  0  0  0  0  0  0  0  0  0  0
   39.1660   77.3160   58.7890 C   0  0  0  0  0  0  0  0  0  0  0  0
   38.3220   76.4940   58.0340 C   0  0  0  0  0  0  0  0  0  0  0  0
   38.8870   75.5120   57.2090 C   0  0  0  0  0  0  0  0  0  0  0  0
   38.1990   74.7460   56.5090 O   0  0  0  0  0  0  0  0  0  0  0  0
   40.2390   75.3890   57.1680 N   0  0  0  0  0  0  0  0  0  0  0  0
   41.0500   76.1900   57.9030 C   0  0  0  0  0  0  0  0  0  0  0  0
   42.2930   76.0870   57.8730 O   0  0  0  0  0  0  0  0  0  0  0  0
   38.6970   78.0640   59.4150 H   0  0  0  0  0  0  0  0  0  0  0  0
   37.2410   76.6020   58.0770 H   0  0  0  0  0  0  0  0  0  0  0  0
   40.7090   74.6870   56.5820 H   0  0  0  0  0  0  0  0  0  0  0  0
   41.2130   82.0980   62.3040 S   0  0  0  0  0  0  0  0  0  0  0  0
   40.7190   82.7500   63.5870 O   0  0  0  0  0  0  0  0  0  0  0  0
   40.4890   80.7560   62.3970 O   0  0  0  0  0  0  0  0  0  0  0  0
   42.0170   82.8520   59.6070 H   0  0  0  0  0  0  0  0  0  0  0  0
   41.0140   82.6180   59.7090 N   0  0  0  0  0  0  0  0  0  0  0  0
   40.6040   83.1120   61.0480 C   0  0  2  0  0  3  0  0  0  0  0  0
   41.2690   84.5080   61.0940 C   0  0  0  0  0  3  0  0  0  0  0  0
   42.2000   84.3750   61.6820 H   0  0  0  0  0  0  0  0  0  0  0  0
   41.5330   85.0440   59.8030 N   0  0  0  0  0  0  0  0  0  0  0  0
   42.4750   84.8770   59.4100 H   0  0  0  0  0  0  0  0  0  0  0  0
   40.4470   84.8150   58.9060 C   0  0  0  0  0  2  0  0  0  0  0  0
   40.1670   83.3340   58.7820 C   0  0  0  0  0  2  0  0  0  0  0  0
  1  6  1  0  0  0  0
  2  3  1  0  0  0  0
  2  1  2  0  0  0  0
  3  4  2  0  0  0  0
  4  8  1  0  0  0  0
  4  5  1  0  0  0  0
  5  9  1  0  0  0  0
  6  5  2  0  0  0  0
  6 10  1  0  0  0  0
  7  3  1  0  0  0  0
 11 17  1  0  0  0  0
 11 16  1  0  0  0  0
 12 11  2  0  0  0  0
 13 12  1  0  0  0  0
 13 14  2  0  0  0  0
 14 15  1  0  0  0  0
 15 16  2  0  0  0  0
 15  2  1  0  0  0  0
 18 13  1  0  0  0  0
 19 20  1  0  0  0  0
 19 12  1  0  0  0  0
 20 27  1  0  0  0  0
 21 28  1  0  0  0  0
 21 20  2  0  0  0  0
 22 21  1  0  0  0  0
 23 22  2  0  0  0  0
 24 22  1  0  0  0  0
 24 25  1  0  0  0  0
 25 19  1  0  0  0  0
 26 25  2  0  0  0  0
 29 24  1  0  0  0  0
 30 32  2  0  0  0  0
 30  1  1  0  0  0  0
 30 31  2  0  0  0  0
 33 34  1  0  0  0  0
 34 35  1  0  0  0  0
 35 36  1  0  0  0  0
 35 30  1  1  0  0  0
 36 37  1  0  0  0  0
 38 36  1  0  0  0  0
 39 38  1  0  0  0  0
 40 38  1  0  0  0  0
 41 40  1  0  0  0  0
 41 34  1  0  0  0  0
M  END
>  <minimizedAffinity>
-5.96033669

>  <minimizedRMSD>
3.114115

$$$$
