
 OpenBabel03212520473D

 28 30  0  0  0  0  0  0  0  0999 V2000
   41.5690   83.9100   61.5220 C   0  0  0  0  0  0  0  0  0  0  0  0
   41.0610   84.3400   62.7190 C   0  0  0  0  0  0  0  0  0  0  0  0
   40.5760   83.4520   63.6780 C   0  0  0  0  0  0  0  0  0  0  0  0
   40.6070   82.1190   63.4200 N   0  0  0  0  0  0  0  0  0  0  0  0
   41.1070   81.7050   62.2430 C   0  0  0  0  0  0  0  0  0  0  0  0
   41.5840   82.5750   61.3000 N   0  0  0  0  0  0  0  0  0  0  0  0
   41.0700   85.4210   62.8520 H   0  0  0  0  0  0  0  0  0  0  0  0
   40.1900   83.8580   64.5970 H   0  0  0  0  0  0  0  0  0  0  0  0
   41.1570   80.3100   61.9370 N   0  0  0  0  0  0  0  0  0  0  0  0
   40.9890   79.3030   62.9350 C   0  0  0  0  0  3  0  0  0  0  0  0
   41.9770   79.0090   63.3480 H   0  0  0  0  0  0  0  0  0  0  0  0
   40.2030   78.1090   62.4720 C   0  0  0  0  0  3  0  0  0  0  0  0
   40.3560   77.2830   63.1970 H   0  0  0  0  0  0  0  0  0  0  0  0
   40.5870   77.6460   61.1650 N   0  0  0  0  0  0  0  0  0  0  0  0
   39.8110   77.4470   60.5170 H   0  0  0  0  0  0  0  0  0  0  0  0
   41.6870   78.3920   60.6010 C   0  0  0  0  0  2  0  0  0  0  0  0
   41.3810   79.8690   60.5850 C   0  0  0  0  0  2  0  0  0  0  0  0
   43.6770   86.3660   59.8070 C   0  0  0  0  0  0  0  0  0  0  0  0
   42.9830   86.5270   58.5860 C   0  0  0  0  0  0  0  0  0  0  0  0
   41.8190   85.8060   58.3610 C   0  0  0  0  0  0  0  0  0  0  0  0
   41.4020   84.9630   59.3600 N   0  0  0  0  0  0  0  0  0  0  0  0
   42.0820   84.8320   60.5070 C   0  0  0  0  0  0  0  0  0  0  0  0
   43.2050   85.5130   60.7490 N   0  0  0  0  0  0  0  0  0  0  0  0
   44.8360   87.1600   59.8900 N   0  0  0  0  0  0  0  0  0  0  0  0
   43.3120   87.1920   57.7990 H   0  0  0  0  0  0  0  0  0  0  0  0
   41.2600   85.9020   57.4390 H   0  0  0  0  0  0  0  0  0  0  0  0
   45.5510   86.5690   59.4480 H   0  0  0  0  0  0  0  0  0  0  0  0
   44.4400   88.0100   60.3730 H   0  0  0  0  0  0  0  0  0  0  0  0
  1  2  1  0  0  0  0
  2  7  1  0  0  0  0
  2  3  2  0  0  0  0
  3  8  1  0  0  0  0
  4  3  1  0  0  0  0
  5  4  2  0  0  0  0
  6  1  2  0  0  0  0
  6  5  1  0  0  0  0
  9  5  1  0  0  0  0
  9 10  1  0  0  0  0
 10 11  1  0  0  0  0
 12 10  1  0  0  0  0
 12 13  1  0  0  0  0
 14 12  1  0  0  0  0
 15 14  1  0  0  0  0
 16 14  1  0  0  0  0
 17 16  1  0  0  0  0
 17  9  1  0  0  0  0
 18 24  1  0  0  0  0
 18 23  1  0  0  0  0
 19 18  2  0  0  0  0
 20 19  1  0  0  0  0
 20 21  2  0  0  0  0
 21 22  1  0  0  0  0
 22 23  2  0  0  0  0
 22  1  1  0  0  0  0
 24 28  1  0  0  0  0
 25 19  1  0  0  0  0
 26 20  1  0  0  0  0
 27 24  1  0  0  0  0
M  END
>  <minimizedAffinity>
-4.90371895

>  <minimizedRMSD>
0.119350381

$$$$
