
 OpenBabel03212520473D

 28 30  0  0  0  0  0  0  0  0999 V2000
   41.6710   83.8630   61.4140 C   0  0  0  0  0  0  0  0  0  0  0  0
   41.2190   84.2120   62.6590 C   0  0  0  0  0  0  0  0  0  0  0  0
   40.7380   83.2650   63.5630 C   0  0  0  0  0  0  0  0  0  0  0  0
   40.7150   81.9570   63.1990 N   0  0  0  0  0  0  0  0  0  0  0  0
   41.1600   81.6230   61.9750 C   0  0  0  0  0  0  0  0  0  0  0  0
   41.6340   82.5510   61.0870 N   0  0  0  0  0  0  0  0  0  0  0  0
   41.2690   85.2780   62.8770 H   0  0  0  0  0  0  0  0  0  0  0  0
   40.3970   83.6080   64.5240 H   0  0  0  0  0  0  0  0  0  0  0  0
   41.1520   80.2570   61.5580 N   0  0  0  0  0  0  0  0  0  0  0  0
   40.1930   79.7470   60.6310 C   0  0  0  0  0  3  0  0  0  0  0  0
   39.3140   79.3440   61.1760 H   0  0  0  0  0  0  0  0  0  0  0  0
   40.7540   78.7460   59.6610 C   0  0  0  0  0  3  0  0  0  0  0  0
   39.9100   78.2130   59.1760 H   0  0  0  0  0  0  0  0  0  0  0  0
   41.6130   77.7720   60.2790 N   0  0  0  0  0  0  0  0  0  0  0  0
   42.5050   77.5940   59.7970 H   0  0  0  0  0  0  0  0  0  0  0  0
   41.7070   77.9300   61.7120 C   0  0  0  0  0  2  0  0  0  0  0  0
   42.1300   79.3320   62.0710 C   0  0  0  0  0  2  0  0  0  0  0  0
   43.6800   86.5330   59.9120 C   0  0  0  0  0  0  0  0  0  0  0  0
   43.0770   86.6540   58.6390 C   0  0  0  0  0  0  0  0  0  0  0  0
   42.0070   85.8350   58.3080 C   0  0  0  0  0  0  0  0  0  0  0  0
   41.5880   84.9390   59.2580 N   0  0  0  0  0  0  0  0  0  0  0  0
   42.1790   84.8480   60.4560 C   0  0  0  0  0  0  0  0  0  0  0  0
   43.2120   85.6230   60.8010 N   0  0  0  0  0  0  0  0  0  0  0  0
   44.7500   87.4260   60.1020 N   0  0  0  0  0  0  0  0  0  0  0  0
   43.4080   87.3620   57.8900 H   0  0  0  0  0  0  0  0  0  0  0  0
   41.5200   85.8990   57.3440 H   0  0  0  0  0  0  0  0  0  0  0  0
   45.5500   86.9110   59.7140 H   0  0  0  0  0  0  0  0  0  0  0  0
   44.2390   88.2280   60.5600 H   0  0  0  0  0  0  0  0  0  0  0  0
  1  2  1  0  0  0  0
  2  7  1  0  0  0  0
  2  3  2  0  0  0  0
  3  8  1  0  0  0  0
  4  3  1  0  0  0  0
  5  4  2  0  0  0  0
  6  1  2  0  0  0  0
  6  5  1  0  0  0  0
  9  5  1  0  0  0  0
  9 17  1  0  0  0  0
 10 11  1  0  0  0  0
 10  9  1  0  0  0  0
 12 14  1  0  0  0  0
 12 10  1  0  0  0  0
 13 12  1  0  0  0  0
 14 16  1  0  0  0  0
 15 14  1  0  0  0  0
 16 17  1  0  0  0  0
 18 24  1  0  0  0  0
 18 23  1  0  0  0  0
 19 18  2  0  0  0  0
 20 19  1  0  0  0  0
 20 21  2  0  0  0  0
 21 22  1  0  0  0  0
 22 23  2  0  0  0  0
 22  1  1  0  0  0  0
 24 28  1  0  0  0  0
 25 19  1  0  0  0  0
 26 20  1  0  0  0  0
 27 24  1  0  0  0  0
M  END
>  <minimizedAffinity>
-5.15327597

>  <minimizedRMSD>
0.438850552

$$$$
