
 OpenBabel03212520473D

 28 30  0  0  0  0  0  0  0  0999 V2000
   41.6670   83.8310   61.4350 C   0  0  0  0  0  0  0  0  0  0  0  0
   41.0230   84.1990   62.5870 C   0  0  0  0  0  0  0  0  0  0  0  0
   40.5400   83.2590   63.4970 C   0  0  0  0  0  0  0  0  0  0  0  0
   40.7110   81.9380   63.2340 N   0  0  0  0  0  0  0  0  0  0  0  0
   41.3430   81.5850   62.1020 C   0  0  0  0  0  0  0  0  0  0  0  0
   41.8190   82.5060   61.2080 N   0  0  0  0  0  0  0  0  0  0  0  0
   40.9250   85.2750   62.7270 H   0  0  0  0  0  0  0  0  0  0  0  0
   40.0430   83.6180   64.3820 H   0  0  0  0  0  0  0  0  0  0  0  0
   41.5420   80.2040   61.7930 N   0  0  0  0  0  0  0  0  0  0  0  0
   40.8340   79.1620   62.4650 C   0  0  0  0  0  3  0  0  0  0  0  0
   41.4190   78.8100   63.3410 H   0  0  0  0  0  0  0  0  0  0  0  0
   40.4310   78.0240   61.5710 C   0  0  0  0  0  3  0  0  0  0  0  0
   40.1430   77.1600   62.2080 H   0  0  0  0  0  0  0  0  0  0  0  0
   41.4750   77.6010   60.6780 N   0  0  0  0  0  0  0  0  0  0  0  0
   41.1940   77.4650   59.6970 H   0  0  0  0  0  0  0  0  0  0  0  0
   42.7100   78.3260   60.8700 C   0  0  0  0  0  2  0  0  0  0  0  0
   42.4810   79.8130   60.7740 C   0  0  0  0  0  2  0  0  0  0  0  0
   43.6780   86.4940   59.9250 C   0  0  0  0  0  0  0  0  0  0  0  0
   43.0860   86.6010   58.6450 C   0  0  0  0  0  0  0  0  0  0  0  0
   42.0210   85.7750   58.3140 C   0  0  0  0  0  0  0  0  0  0  0  0
   41.5980   84.8870   59.2690 N   0  0  0  0  0  0  0  0  0  0  0  0
   42.1790   84.8090   60.4730 C   0  0  0  0  0  0  0  0  0  0  0  0
   43.2060   85.5910   60.8190 N   0  0  0  0  0  0  0  0  0  0  0  0
   44.7440   87.3930   60.1150 N   0  0  0  0  0  0  0  0  0  0  0  0
   43.4210   87.3030   57.8930 H   0  0  0  0  0  0  0  0  0  0  0  0
   41.5420   85.8280   57.3450 H   0  0  0  0  0  0  0  0  0  0  0  0
   45.5490   86.8770   59.7390 H   0  0  0  0  0  0  0  0  0  0  0  0
   44.2260   88.1970   60.5610 H   0  0  0  0  0  0  0  0  0  0  0  0
  1  2  1  0  0  0  0
  2  7  1  0  0  0  0
  2  3  2  0  0  0  0
  3  8  1  0  0  0  0
  4  3  1  0  0  0  0
  5  4  2  0  0  0  0
  6  1  2  0  0  0  0
  6  5  1  0  0  0  0
  9  5  1  0  0  0  0
  9 10  1  0  0  0  0
 10 11  1  0  0  0  0
 12 13  1  0  0  0  0
 12 10  1  0  0  0  0
 14 16  1  0  0  0  0
 14 12  1  0  0  0  0
 15 14  1  0  0  0  0
 17 16  1  0  0  0  0
 17  9  1  0  0  0  0
 18 24  1  0  0  0  0
 18 23  1  0  0  0  0
 19 18  2  0  0  0  0
 20 19  1  0  0  0  0
 20 21  2  0  0  0  0
 21 22  1  0  0  0  0
 22 23  2  0  0  0  0
 22  1  1  0  0  0  0
 24 28  1  0  0  0  0
 25 19  1  0  0  0  0
 26 20  1  0  0  0  0
 27 24  1  0  0  0  0
M  END
>  <minimizedAffinity>
-5.23567963

>  <minimizedRMSD>
0.394235432

$$$$
