
 OpenBabel03212520473D

 28 30  0  0  0  0  0  0  0  0999 V2000
   41.6520   83.8130   61.4930 C   0  0  0  0  0  0  0  0  0  0  0  0
   41.1680   84.2070   62.7130 C   0  0  0  0  0  0  0  0  0  0  0  0
   40.6740   83.2930   63.6430 C   0  0  0  0  0  0  0  0  0  0  0  0
   40.6720   81.9720   63.3330 N   0  0  0  0  0  0  0  0  0  0  0  0
   41.1490   81.5920   62.1350 C   0  0  0  0  0  0  0  0  0  0  0  0
   41.6350   82.4870   61.2200 N   0  0  0  0  0  0  0  0  0  0  0  0
   41.2040   85.2820   62.8870 H   0  0  0  0  0  0  0  0  0  0  0  0
   40.3080   83.6730   64.5820 H   0  0  0  0  0  0  0  0  0  0  0  0
   41.1630   80.2100   61.7740 N   0  0  0  0  0  0  0  0  0  0  0  0
   41.6580   79.7530   60.5150 C   0  0  0  0  0  3  0  0  0  0  0  0
   40.8300   79.6980   59.7790 H   0  0  0  0  0  0  0  0  0  0  0  0
   42.4230   78.4630   60.5920 C   0  0  0  0  0  3  0  0  0  0  0  0
   42.5260   78.0520   59.5650 H   0  0  0  0  0  0  0  0  0  0  0  0
   41.7860   77.4700   61.4150 N   0  0  0  0  0  0  0  0  0  0  0  0
   42.4000   76.9860   62.0850 H   0  0  0  0  0  0  0  0  0  0  0  0
   40.5170   77.9080   61.9490 C   0  0  0  0  0  2  0  0  0  0  0  0
   40.6670   79.2140   62.6880 C   0  0  0  0  0  2  0  0  0  0  0  0
   43.6710   86.4390   59.9300 C   0  0  0  0  0  0  0  0  0  0  0  0
   43.0990   86.5010   58.6390 C   0  0  0  0  0  0  0  0  0  0  0  0
   42.0450   85.6570   58.3170 C   0  0  0  0  0  0  0  0  0  0  0  0
   41.6120   84.7970   59.2930 N   0  0  0  0  0  0  0  0  0  0  0  0
   42.1750   84.7620   60.5080 C   0  0  0  0  0  0  0  0  0  0  0  0
   43.1900   85.5620   60.8450 N   0  0  0  0  0  0  0  0  0  0  0  0
   44.7280   87.3510   60.1080 N   0  0  0  0  0  0  0  0  0  0  0  0
   43.4420   87.1800   57.8690 H   0  0  0  0  0  0  0  0  0  0  0  0
   41.5820   85.6750   57.3390 H   0  0  0  0  0  0  0  0  0  0  0  0
   45.5420   86.8290   59.7620 H   0  0  0  0  0  0  0  0  0  0  0  0
   44.1980   88.1660   60.5200 H   0  0  0  0  0  0  0  0  0  0  0  0
  1  2  1  0  0  0  0
  2  7  1  0  0  0  0
  2  3  2  0  0  0  0
  3  8  1  0  0  0  0
  4  3  1  0  0  0  0
  5  4  2  0  0  0  0
  6  1  2  0  0  0  0
  6  5  1  0  0  0  0
  9  5  1  0  0  0  0
  9 17  1  0  0  0  0
 10 12  1  0  0  0  0
 10  9  1  0  0  0  0
 11 10  1  0  0  0  0
 12 14  1  0  0  0  0
 13 12  1  0  0  0  0
 14 16  1  0  0  0  0
 14 15  1  0  0  0  0
 16 17  1  0  0  0  0
 18 24  1  0  0  0  0
 18 23  1  0  0  0  0
 19 18  2  0  0  0  0
 20 19  1  0  0  0  0
 20 21  2  0  0  0  0
 21 22  1  0  0  0  0
 22 23  2  0  0  0  0
 22  1  1  0  0  0  0
 24 28  1  0  0  0  0
 25 19  1  0  0  0  0
 26 20  1  0  0  0  0
 27 24  1  0  0  0  0
M  END
>  <minimizedAffinity>
-5.20856047

>  <minimizedRMSD>
0.295287788

$$$$
