
 OpenBabel03212520473D

 28 30  0  0  0  0  0  0  0  0999 V2000
   41.6500   83.8650   61.4480 C   0  0  0  0  0  0  0  0  0  0  0  0
   41.3460   84.1940   62.7430 C   0  0  0  0  0  0  0  0  0  0  0  0
   40.8400   83.2580   63.6440 C   0  0  0  0  0  0  0  0  0  0  0  0
   40.6410   81.9820   63.2280 N   0  0  0  0  0  0  0  0  0  0  0  0
   40.9420   81.6660   61.9570 C   0  0  0  0  0  0  0  0  0  0  0  0
   41.4390   82.5830   61.0700 N   0  0  0  0  0  0  0  0  0  0  0  0
   41.5330   85.2360   63.0000 H   0  0  0  0  0  0  0  0  0  0  0  0
   40.6220   83.5860   64.6460 H   0  0  0  0  0  0  0  0  0  0  0  0
   40.7460   80.3320   61.4840 N   0  0  0  0  0  0  0  0  0  0  0  0
   40.1360   80.0500   60.2240 C   0  0  0  0  0  3  0  0  0  0  0  0
   39.0410   79.9160   60.3540 H   0  0  0  0  0  0  0  0  0  0  0  0
   40.7540   78.8940   59.4910 C   0  0  0  0  0  3  0  0  0  0  0  0
   40.0640   78.5790   58.6810 H   0  0  0  0  0  0  0  0  0  0  0  0
   41.0150   77.7580   60.3340 N   0  0  0  0  0  0  0  0  0  0  0  0
   41.9460   77.3310   60.2300 H   0  0  0  0  0  0  0  0  0  0  0  0
   40.5730   77.9510   61.6950 C   0  0  0  0  0  2  0  0  0  0  0  0
   41.1660   79.2080   62.2790 C   0  0  0  0  0  2  0  0  0  0  0  0
   43.7030   86.5090   59.9620 C   0  0  0  0  0  0  0  0  0  0  0  0
   43.1260   86.6230   58.6760 C   0  0  0  0  0  0  0  0  0  0  0  0
   42.0580   85.8070   58.3320 C   0  0  0  0  0  0  0  0  0  0  0  0
   41.6150   84.9220   59.2810 N   0  0  0  0  0  0  0  0  0  0  0  0
   42.1820   84.8380   60.4920 C   0  0  0  0  0  0  0  0  0  0  0  0
   43.2120   85.6110   60.8500 N   0  0  0  0  0  0  0  0  0  0  0  0
   44.7740   87.3990   60.1650 N   0  0  0  0  0  0  0  0  0  0  0  0
   43.4760   87.3210   57.9280 H   0  0  0  0  0  0  0  0  0  0  0  0
   41.5910   85.8640   57.3570 H   0  0  0  0  0  0  0  0  0  0  0  0
   45.5790   86.8760   59.7980 H   0  0  0  0  0  0  0  0  0  0  0  0
   44.2590   88.2080   60.6060 H   0  0  0  0  0  0  0  0  0  0  0  0
  1  2  1  0  0  0  0
  2  7  1  0  0  0  0
  2  3  2  0  0  0  0
  3  8  1  0  0  0  0
  4  3  1  0  0  0  0
  5  4  2  0  0  0  0
  6  1  2  0  0  0  0
  6  5  1  0  0  0  0
  9  5  1  0  0  0  0
  9 17  1  0  0  0  0
 10 11  1  0  0  0  0
 10  9  1  0  0  0  0
 12 10  1  0  0  0  0
 12 14  1  0  0  0  0
 13 12  1  0  0  0  0
 14 16  1  0  0  0  0
 15 14  1  0  0  0  0
 16 17  1  0  0  0  0
 18 24  1  0  0  0  0
 18 23  1  0  0  0  0
 19 18  2  0  0  0  0
 20 19  1  0  0  0  0
 20 21  2  0  0  0  0
 21 22  1  0  0  0  0
 22 23  2  0  0  0  0
 22  1  1  0  0  0  0
 24 28  1  0  0  0  0
 25 19  1  0  0  0  0
 26 20  1  0  0  0  0
 27 24  1  0  0  0  0
M  END
>  <minimizedAffinity>
-5.2737813

>  <minimizedRMSD>
0.679454327

$$$$
