
 OpenBabel03212520473D

 28 30  0  0  0  0  0  0  0  0999 V2000
   41.6580   83.9350   61.3860 C   0  0  0  0  0  0  0  0  0  0  0  0
   41.2470   84.3170   62.6350 C   0  0  0  0  0  0  0  0  0  0  0  0
   40.8050   83.3940   63.5820 C   0  0  0  0  0  0  0  0  0  0  0  0
   40.7790   82.0760   63.2580 N   0  0  0  0  0  0  0  0  0  0  0  0
   41.1840   81.7090   62.0300 C   0  0  0  0  0  0  0  0  0  0  0  0
   41.6200   82.6130   61.0990 N   0  0  0  0  0  0  0  0  0  0  0  0
   41.2970   85.3890   62.8190 H   0  0  0  0  0  0  0  0  0  0  0  0
   40.4950   83.7640   64.5450 H   0  0  0  0  0  0  0  0  0  0  0  0
   41.1710   80.3310   61.6530 N   0  0  0  0  0  0  0  0  0  0  0  0
   42.1440   79.4000   62.1290 C   0  0  0  0  0  3  0  0  0  0  0  0
   42.9960   79.3450   61.4200 H   0  0  0  0  0  0  0  0  0  0  0  0
   41.5870   78.0390   62.4360 C   0  0  0  0  0  3  0  0  0  0  0  0
   42.4310   77.3250   62.5290 H   0  0  0  0  0  0  0  0  0  0  0  0
   40.6870   77.5500   61.4270 N   0  0  0  0  0  0  0  0  0  0  0  0
   39.8040   77.1470   61.7730 H   0  0  0  0  0  0  0  0  0  0  0  0
   40.5550   78.4480   60.3040 C   0  0  0  0  0  2  0  0  0  0  0  0
   40.1560   79.8280   60.7650 C   0  0  0  0  0  2  0  0  0  0  0  0
   43.6450   86.5120   59.7040 C   0  0  0  0  0  0  0  0  0  0  0  0
   42.9450   86.6550   58.4840 C   0  0  0  0  0  0  0  0  0  0  0  0
   41.8170   85.8810   58.2500 C   0  0  0  0  0  0  0  0  0  0  0  0
   41.4420   85.0070   59.2370 N   0  0  0  0  0  0  0  0  0  0  0  0
   42.1260   84.8940   60.3830 C   0  0  0  0  0  0  0  0  0  0  0  0
   43.2150   85.6260   60.6350 N   0  0  0  0  0  0  0  0  0  0  0  0
   44.7640   87.3600   59.7990 N   0  0  0  0  0  0  0  0  0  0  0  0
   43.2420   87.3450   57.7060 H   0  0  0  0  0  0  0  0  0  0  0  0
   41.2550   85.9610   57.3280 H   0  0  0  0  0  0  0  0  0  0  0  0
   45.5070   86.8110   59.3490 H   0  0  0  0  0  0  0  0  0  0  0  0
   44.3270   88.1850   60.2920 H   0  0  0  0  0  0  0  0  0  0  0  0
  1  2  1  0  0  0  0
  2  7  1  0  0  0  0
  2  3  2  0  0  0  0
  3  8  1  0  0  0  0
  4  3  1  0  0  0  0
  5  4  2  0  0  0  0
  6  1  2  0  0  0  0
  6  5  1  0  0  0  0
  9  5  1  0  0  0  0
  9 10  1  0  0  0  0
 10 12  1  0  0  0  0
 11 10  1  0  0  0  0
 12 13  1  0  0  0  0
 14 15  1  0  0  0  0
 14 12  1  0  0  0  0
 16 17  1  0  0  0  0
 16 14  1  0  0  0  0
 17  9  1  0  0  0  0
 18 24  1  0  0  0  0
 18 23  1  0  0  0  0
 19 18  2  0  0  0  0
 20 19  1  0  0  0  0
 20 21  2  0  0  0  0
 21 22  1  0  0  0  0
 22 23  2  0  0  0  0
 22  1  1  0  0  0  0
 24 28  1  0  0  0  0
 25 19  1  0  0  0  0
 26 20  1  0  0  0  0
 27 24  1  0  0  0  0
M  END
>  <minimizedAffinity>
-5.27962828

>  <minimizedRMSD>
0.34100458

$$$$
