
 OpenBabel03212520473D

 28 30  0  0  0  0  0  0  0  0999 V2000
   41.6440   83.9090   61.3940 C   0  0  0  0  0  0  0  0  0  0  0  0
   41.1650   84.2920   62.6190 C   0  0  0  0  0  0  0  0  0  0  0  0
   40.7190   83.3660   63.5610 C   0  0  0  0  0  0  0  0  0  0  0  0
   40.7600   82.0440   63.2590 N   0  0  0  0  0  0  0  0  0  0  0  0
   41.2320   81.6750   62.0550 C   0  0  0  0  0  0  0  0  0  0  0  0
   41.6720   82.5820   61.1290 N   0  0  0  0  0  0  0  0  0  0  0  0
   41.1630   85.3680   62.7870 H   0  0  0  0  0  0  0  0  0  0  0  0
   40.3540   83.7370   64.5040 H   0  0  0  0  0  0  0  0  0  0  0  0
   41.2920   80.2920   61.7010 N   0  0  0  0  0  0  0  0  0  0  0  0
   42.4370   79.4830   61.9720 C   0  0  0  0  0  3  0  0  0  0  0  0
   43.1250   79.4950   61.1000 H   0  0  0  0  0  0  0  0  0  0  0  0
   42.1070   78.0810   62.3990 C   0  0  0  0  0  3  0  0  0  0  0  0
   43.0240   77.4620   62.3200 H   0  0  0  0  0  0  0  0  0  0  0  0
   41.0750   77.4700   61.6050 N   0  0  0  0  0  0  0  0  0  0  0  0
   40.3330   76.9880   62.1320 H   0  0  0  0  0  0  0  0  0  0  0  0
   40.6170   78.3140   60.5260 C   0  0  0  0  0  2  0  0  0  0  0  0
   40.1760   79.6590   61.0490 C   0  0  0  0  0  2  0  0  0  0  0  0
   43.6350   86.4950   59.7310 C   0  0  0  0  0  0  0  0  0  0  0  0
   42.9430   86.6370   58.5070 C   0  0  0  0  0  0  0  0  0  0  0  0
   41.8190   85.8600   58.2630 C   0  0  0  0  0  0  0  0  0  0  0  0
   41.4400   84.9830   59.2460 N   0  0  0  0  0  0  0  0  0  0  0  0
   42.1160   84.8710   60.3960 C   0  0  0  0  0  0  0  0  0  0  0  0
   43.2010   85.6060   60.6580 N   0  0  0  0  0  0  0  0  0  0  0  0
   44.7500   87.3470   59.8350 N   0  0  0  0  0  0  0  0  0  0  0  0
   43.2430   87.3300   57.7320 H   0  0  0  0  0  0  0  0  0  0  0  0
   41.2640   85.9400   57.3370 H   0  0  0  0  0  0  0  0  0  0  0  0
   45.4980   86.8000   59.3900 H   0  0  0  0  0  0  0  0  0  0  0  0
   44.3070   88.1690   60.3270 H   0  0  0  0  0  0  0  0  0  0  0  0
  1  2  1  0  0  0  0
  2  7  1  0  0  0  0
  2  3  2  0  0  0  0
  3  8  1  0  0  0  0
  4  3  1  0  0  0  0
  5  4  2  0  0  0  0
  6  1  2  0  0  0  0
  6  5  1  0  0  0  0
  9 10  1  0  0  0  0
  9  5  1  0  0  0  0
 10 12  1  0  0  0  0
 11 10  1  0  0  0  0
 13 12  1  0  0  0  0
 14 15  1  0  0  0  0
 14 12  1  0  0  0  0
 16 17  1  0  0  0  0
 16 14  1  0  0  0  0
 17  9  1  0  0  0  0
 18 24  1  0  0  0  0
 18 23  1  0  0  0  0
 19 18  2  0  0  0  0
 20 19  1  0  0  0  0
 20 21  2  0  0  0  0
 21 22  1  0  0  0  0
 22 23  2  0  0  0  0
 22  1  1  0  0  0  0
 24 28  1  0  0  0  0
 25 19  1  0  0  0  0
 26 20  1  0  0  0  0
 27 24  1  0  0  0  0
M  END
>  <minimizedAffinity>
-5.52641153

>  <minimizedRMSD>
0.290998936

$$$$
