
 OpenBabel03212520473D

 28 30  0  0  0  0  0  0  0  0999 V2000
   41.6350   83.8760   61.3870 C   0  0  0  0  0  0  0  0  0  0  0  0
   41.2310   84.2090   62.6530 C   0  0  0  0  0  0  0  0  0  0  0  0
   40.7390   83.2570   63.5450 C   0  0  0  0  0  0  0  0  0  0  0  0
   40.6560   81.9610   63.1500 N   0  0  0  0  0  0  0  0  0  0  0  0
   41.0540   81.6430   61.9060 C   0  0  0  0  0  0  0  0  0  0  0  0
   41.5390   82.5750   61.0280 N   0  0  0  0  0  0  0  0  0  0  0  0
   41.3280   85.2660   62.8950 H   0  0  0  0  0  0  0  0  0  0  0  0
   40.4380   83.5880   64.5240 H   0  0  0  0  0  0  0  0  0  0  0  0
   40.9820   80.2890   61.4550 N   0  0  0  0  0  0  0  0  0  0  0  0
   41.1130   79.1790   62.3450 C   0  0  0  0  0  3  0  0  0  0  0  0
   42.1750   78.8600   62.3990 H   0  0  0  0  0  0  0  0  0  0  0  0
   40.2020   78.0290   62.0240 C   0  0  0  0  0  3  0  0  0  0  0  0
   40.5560   77.1340   62.5750 H   0  0  0  0  0  0  0  0  0  0  0  0
   40.1550   77.7120   60.6220 N   0  0  0  0  0  0  0  0  0  0  0  0
   39.2140   77.5710   60.2290 H   0  0  0  0  0  0  0  0  0  0  0  0
   41.0400   78.5300   59.8270 C   0  0  0  0  0  2  0  0  0  0  0  0
   40.7700   79.9960   60.0610 C   0  0  0  0  0  2  0  0  0  0  0  0
   43.6750   86.5390   59.9150 C   0  0  0  0  0  0  0  0  0  0  0  0
   43.0740   86.6820   58.6430 C   0  0  0  0  0  0  0  0  0  0  0  0
   41.9940   85.8790   58.3040 C   0  0  0  0  0  0  0  0  0  0  0  0
   41.5650   84.9780   59.2430 N   0  0  0  0  0  0  0  0  0  0  0  0
   42.1550   84.8660   60.4400 C   0  0  0  0  0  0  0  0  0  0  0  0
   43.1960   85.6250   60.7940 N   0  0  0  0  0  0  0  0  0  0  0  0
   44.7560   87.4180   60.1150 N   0  0  0  0  0  0  0  0  0  0  0  0
   43.4140   87.3940   57.9020 H   0  0  0  0  0  0  0  0  0  0  0  0
   41.5090   85.9590   57.3400 H   0  0  0  0  0  0  0  0  0  0  0  0
   45.5500   86.8980   59.7210 H   0  0  0  0  0  0  0  0  0  0  0  0
   44.2550   88.2200   60.5820 H   0  0  0  0  0  0  0  0  0  0  0  0
  1  2  1  0  0  0  0
  2  7  1  0  0  0  0
  2  3  2  0  0  0  0
  3  8  1  0  0  0  0
  4  3  1  0  0  0  0
  5  4  2  0  0  0  0
  6  1  2  0  0  0  0
  6  5  1  0  0  0  0
  9  5  1  0  0  0  0
  9 10  1  0  0  0  0
 10 11  1  0  0  0  0
 12 10  1  0  0  0  0
 12 13  1  0  0  0  0
 14 12  1  0  0  0  0
 15 14  1  0  0  0  0
 16 17  1  0  0  0  0
 16 14  1  0  0  0  0
 17  9  1  0  0  0  0
 18 24  1  0  0  0  0
 18 23  1  0  0  0  0
 19 18  2  0  0  0  0
 20 19  1  0  0  0  0
 20 21  2  0  0  0  0
 21 22  1  0  0  0  0
 22 23  2  0  0  0  0
 22  1  1  0  0  0  0
 24 28  1  0  0  0  0
 25 19  1  0  0  0  0
 26 20  1  0  0  0  0
 27 24  1  0  0  0  0
M  END
>  <minimizedAffinity>
-5.17004156

>  <minimizedRMSD>
0.547577322

$$$$
