
 OpenBabel03212520473D

 28 30  0  0  0  0  0  0  0  0999 V2000
   41.6400   83.8560   61.4480 C   0  0  0  0  0  0  0  0  0  0  0  0
   41.3490   84.1880   62.7440 C   0  0  0  0  0  0  0  0  0  0  0  0
   40.8550   83.2530   63.6530 C   0  0  0  0  0  0  0  0  0  0  0  0
   40.6560   81.9740   63.2430 N   0  0  0  0  0  0  0  0  0  0  0  0
   40.9440   81.6560   61.9690 C   0  0  0  0  0  0  0  0  0  0  0  0
   41.4300   82.5720   61.0750 N   0  0  0  0  0  0  0  0  0  0  0  0
   41.5350   85.2300   62.9970 H   0  0  0  0  0  0  0  0  0  0  0  0
   40.6460   83.5820   64.6570 H   0  0  0  0  0  0  0  0  0  0  0  0
   40.7480   80.3210   61.5010 N   0  0  0  0  0  0  0  0  0  0  0  0
   40.4220   80.0280   60.1420 C   0  0  0  0  0  3  0  0  0  0  0  0
   39.3190   79.9850   60.0170 H   0  0  0  0  0  0  0  0  0  0  0  0
   41.0890   78.7930   59.6080 C   0  0  0  0  0  3  0  0  0  0  0  0
   40.5800   78.4940   58.6680 H   0  0  0  0  0  0  0  0  0  0  0  0
   41.0500   77.6820   60.5200 N   0  0  0  0  0  0  0  0  0  0  0  0
   41.9390   77.1790   60.6490 H   0  0  0  0  0  0  0  0  0  0  0  0
   40.3250   77.9730   61.7340 C   0  0  0  0  0  2  0  0  0  0  0  0
   40.8740   79.2070   62.4040 C   0  0  0  0  0  2  0  0  0  0  0  0
   43.6740   86.4990   59.9320 C   0  0  0  0  0  0  0  0  0  0  0  0
   43.0790   86.6110   58.6540 C   0  0  0  0  0  0  0  0  0  0  0  0
   42.0060   85.7960   58.3250 C   0  0  0  0  0  0  0  0  0  0  0  0
   41.5760   84.9110   59.2810 N   0  0  0  0  0  0  0  0  0  0  0  0
   42.1600   84.8280   60.4840 C   0  0  0  0  0  0  0  0  0  0  0  0
   43.1950   85.6010   60.8270 N   0  0  0  0  0  0  0  0  0  0  0  0
   44.7480   87.3880   60.1190 N   0  0  0  0  0  0  0  0  0  0  0  0
   43.4190   87.3090   57.9000 H   0  0  0  0  0  0  0  0  0  0  0  0
   41.5260   85.8520   57.3570 H   0  0  0  0  0  0  0  0  0  0  0  0
   45.5470   86.8650   59.7420 H   0  0  0  0  0  0  0  0  0  0  0  0
   44.2390   88.1970   60.5670 H   0  0  0  0  0  0  0  0  0  0  0  0
  1  2  1  0  0  0  0
  2  7  1  0  0  0  0
  2  3  2  0  0  0  0
  3  8  1  0  0  0  0
  4  3  1  0  0  0  0
  5  4  2  0  0  0  0
  6  1  2  0  0  0  0
  6  5  1  0  0  0  0
  9  5  1  0  0  0  0
  9 17  1  0  0  0  0
 10  9  1  0  0  0  0
 11 10  1  0  0  0  0
 12 10  1  0  0  0  0
 12 14  1  0  0  0  0
 13 12  1  0  0  0  0
 14 15  1  0  0  0  0
 14 16  1  0  0  0  0
 16 17  1  0  0  0  0
 18 24  1  0  0  0  0
 18 23  1  0  0  0  0
 19 18  2  0  0  0  0
 20 19  1  0  0  0  0
 20 21  2  0  0  0  0
 21 22  1  0  0  0  0
 22 23  2  0  0  0  0
 22  1  1  0  0  0  0
 24 28  1  0  0  0  0
 25 19  1  0  0  0  0
 26 20  1  0  0  0  0
 27 24  1  0  0  0  0
M  END
>  <minimizedAffinity>
-5.31520557

>  <minimizedRMSD>
0.662892878

$$$$
