
 OpenBabel03212520473D

 28 30  0  0  0  0  0  0  0  0999 V2000
   41.6450   83.8920   61.4760 C   0  0  0  0  0  0  0  0  0  0  0  0
   41.0010   84.2990   62.6150 C   0  0  0  0  0  0  0  0  0  0  0  0
   40.5170   83.3900   63.5550 C   0  0  0  0  0  0  0  0  0  0  0  0
   40.6880   82.0610   63.3380 N   0  0  0  0  0  0  0  0  0  0  0  0
   41.3210   81.6690   62.2180 C   0  0  0  0  0  0  0  0  0  0  0  0
   41.7970   82.5600   61.2940 N   0  0  0  0  0  0  0  0  0  0  0  0
   40.9030   85.3790   62.7180 H   0  0  0  0  0  0  0  0  0  0  0  0
   40.0200   83.7790   64.4280 H   0  0  0  0  0  0  0  0  0  0  0  0
   41.5200   80.2790   61.9560 N   0  0  0  0  0  0  0  0  0  0  0  0
   42.7680   79.7590   61.4980 C   0  0  0  0  0  3  0  0  0  0  0  0
   42.7830   79.7320   60.3880 H   0  0  0  0  0  0  0  0  0  0  0  0
   43.1290   78.4270   62.0910 C   0  0  0  0  0  3  0  0  0  0  0  0
   43.9480   77.9820   61.4890 H   0  0  0  0  0  0  0  0  0  0  0  0
   42.0310   77.4980   62.1200 N   0  0  0  0  0  0  0  0  0  0  0  0
   41.8940   76.9970   63.0090 H   0  0  0  0  0  0  0  0  0  0  0  0
   40.8290   78.0260   61.5180 C   0  0  0  0  0  2  0  0  0  0  0  0
   40.4450   79.3410   62.1500 C   0  0  0  0  0  2  0  0  0  0  0  0
   43.6890   86.4660   59.8600 C   0  0  0  0  0  0  0  0  0  0  0  0
   43.0630   86.5680   58.5960 C   0  0  0  0  0  0  0  0  0  0  0  0
   41.9660   85.7690   58.3100 C   0  0  0  0  0  0  0  0  0  0  0  0
   41.5440   84.9100   59.2930 N   0  0  0  0  0  0  0  0  0  0  0  0
   42.1580   84.8360   60.4810 C   0  0  0  0  0  0  0  0  0  0  0  0
   43.2160   85.5940   60.7830 N   0  0  0  0  0  0  0  0  0  0  0  0
   44.7860   87.3360   60.0030 N   0  0  0  0  0  0  0  0  0  0  0  0
   43.3970   87.2460   57.8210 H   0  0  0  0  0  0  0  0  0  0  0  0
   41.4610   85.8180   57.3540 H   0  0  0  0  0  0  0  0  0  0  0  0
   45.5640   86.7900   59.6130 H   0  0  0  0  0  0  0  0  0  0  0  0
   44.3050   88.1630   60.4480 H   0  0  0  0  0  0  0  0  0  0  0  0
  1  2  1  0  0  0  0
  2  7  1  0  0  0  0
  2  3  2  0  0  0  0
  3  8  1  0  0  0  0
  4  3  1  0  0  0  0
  5  4  2  0  0  0  0
  6  1  2  0  0  0  0
  6  5  1  0  0  0  0
  9 17  1  0  0  0  0
  9  5  1  0  0  0  0
 10  9  1  0  0  0  0
 10 12  1  0  0  0  0
 11 10  1  0  0  0  0
 12 14  1  0  0  0  0
 13 12  1  0  0  0  0
 14 15  1  0  0  0  0
 16 14  1  0  0  0  0
 16 17  1  0  0  0  0
 18 24  1  0  0  0  0
 18 23  1  0  0  0  0
 19 18  2  0  0  0  0
 20 19  1  0  0  0  0
 20 21  2  0  0  0  0
 21 22  1  0  0  0  0
 22 23  2  0  0  0  0
 22  1  1  0  0  0  0
 24 28  1  0  0  0  0
 25 19  1  0  0  0  0
 26 20  1  0  0  0  0
 27 24  1  0  0  0  0
M  END
>  <minimizedAffinity>
-5.62931204

>  <minimizedRMSD>
0.288588613

$$$$
