
 OpenBabel03212520473D

 28 30  0  0  0  0  0  0  0  0999 V2000
   41.6570   83.8720   61.4320 C   0  0  0  0  0  0  0  0  0  0  0  0
   41.3030   84.2030   62.7130 C   0  0  0  0  0  0  0  0  0  0  0  0
   40.7980   83.2600   63.6080 C   0  0  0  0  0  0  0  0  0  0  0  0
   40.6510   81.9740   63.1980 N   0  0  0  0  0  0  0  0  0  0  0  0
   41.0000   81.6570   61.9400 C   0  0  0  0  0  0  0  0  0  0  0  0
   41.4970   82.5810   61.0600 N   0  0  0  0  0  0  0  0  0  0  0  0
   41.4500   85.2520   62.9660 H   0  0  0  0  0  0  0  0  0  0  0  0
   40.5390   83.5890   64.5990 H   0  0  0  0  0  0  0  0  0  0  0  0
   40.8600   80.3140   61.4730 N   0  0  0  0  0  0  0  0  0  0  0  0
   40.0300   79.9740   60.3630 C   0  0  0  0  0  3  0  0  0  0  0  0
   39.0110   79.7110   60.7160 H   0  0  0  0  0  0  0  0  0  0  0  0
   40.6040   78.9050   59.4770 C   0  0  0  0  0  3  0  0  0  0  0  0
   39.7970   78.5180   58.8210 H   0  0  0  0  0  0  0  0  0  0  0  0
   41.1660   77.7990   60.2060 N   0  0  0  0  0  0  0  0  0  0  0  0
   42.0950   77.4850   59.8940 H   0  0  0  0  0  0  0  0  0  0  0  0
   41.0050   77.9270   61.6360 C   0  0  0  0  0  2  0  0  0  0  0  0
   41.5640   79.2400   62.1240 C   0  0  0  0  0  2  0  0  0  0  0  0
   43.7110   86.5270   59.9660 C   0  0  0  0  0  0  0  0  0  0  0  0
   43.1330   86.6520   58.6810 C   0  0  0  0  0  0  0  0  0  0  0  0
   42.0630   85.8400   58.3320 C   0  0  0  0  0  0  0  0  0  0  0  0
   41.6210   84.9470   59.2750 N   0  0  0  0  0  0  0  0  0  0  0  0
   42.1890   84.8530   60.4830 C   0  0  0  0  0  0  0  0  0  0  0  0
   43.2200   85.6210   60.8470 N   0  0  0  0  0  0  0  0  0  0  0  0
   44.7840   87.4130   60.1750 N   0  0  0  0  0  0  0  0  0  0  0  0
   43.4820   87.3560   57.9390 H   0  0  0  0  0  0  0  0  0  0  0  0
   41.5940   85.9060   57.3590 H   0  0  0  0  0  0  0  0  0  0  0  0
   45.5870   86.8930   59.8020 H   0  0  0  0  0  0  0  0  0  0  0  0
   44.2700   88.2190   60.6230 H   0  0  0  0  0  0  0  0  0  0  0  0
  1  2  1  0  0  0  0
  2  7  1  0  0  0  0
  2  3  2  0  0  0  0
  3  8  1  0  0  0  0
  4  3  1  0  0  0  0
  5  4  2  0  0  0  0
  6  1  2  0  0  0  0
  6  5  1  0  0  0  0
  9  5  1  0  0  0  0
  9 17  1  0  0  0  0
 10 11  1  0  0  0  0
 10  9  1  0  0  0  0
 12 14  1  0  0  0  0
 12 10  1  0  0  0  0
 13 12  1  0  0  0  0
 14 16  1  0  0  0  0
 15 14  1  0  0  0  0
 16 17  1  0  0  0  0
 18 24  1  0  0  0  0
 18 23  1  0  0  0  0
 19 18  2  0  0  0  0
 20 19  1  0  0  0  0
 20 21  2  0  0  0  0
 21 22  1  0  0  0  0
 22 23  2  0  0  0  0
 22  1  1  0  0  0  0
 24 28  1  0  0  0  0
 25 19  1  0  0  0  0
 26 20  1  0  0  0  0
 27 24  1  0  0  0  0
M  END
>  <minimizedAffinity>
-5.14017534

>  <minimizedRMSD>
0.619324088

$$$$
