
 OpenBabel03212520473D

 28 30  0  0  0  0  0  0  0  0999 V2000
   41.5840   83.8920   61.4470 C   0  0  0  0  0  0  0  0  0  0  0  0
   40.9210   84.3160   62.5670 C   0  0  0  0  0  0  0  0  0  0  0  0
   40.4620   83.4250   63.5370 C   0  0  0  0  0  0  0  0  0  0  0  0
   40.6790   82.0960   63.3670 N   0  0  0  0  0  0  0  0  0  0  0  0
   41.3310   81.6870   62.2650 C   0  0  0  0  0  0  0  0  0  0  0  0
   41.7830   82.5600   61.3120 N   0  0  0  0  0  0  0  0  0  0  0  0
   40.7860   85.3950   62.6320 H   0  0  0  0  0  0  0  0  0  0  0  0
   39.9470   83.8270   64.3930 H   0  0  0  0  0  0  0  0  0  0  0  0
   41.5780   80.2960   62.0520 N   0  0  0  0  0  0  0  0  0  0  0  0
   40.5740   79.3020   62.2600 C   0  0  0  0  0  3  0  0  0  0  0  0
   40.6310   78.9150   63.2990 H   0  0  0  0  0  0  0  0  0  0  0  0
   40.5980   78.1900   61.2500 C   0  0  0  0  0  3  0  0  0  0  0  0
   39.9880   77.3470   61.6370 H   0  0  0  0  0  0  0  0  0  0  0  0
   41.9220   77.7000   60.9730 N   0  0  0  0  0  0  0  0  0  0  0  0
   42.1530   77.5790   59.9760 H   0  0  0  0  0  0  0  0  0  0  0  0
   42.9410   78.3450   61.7680 C   0  0  0  0  0  2  0  0  0  0  0  0
   42.8730   79.8440   61.6140 C   0  0  0  0  0  2  0  0  0  0  0  0
   43.6350   86.3720   59.6970 C   0  0  0  0  0  0  0  0  0  0  0  0
   42.9240   86.5180   58.4840 C   0  0  0  0  0  0  0  0  0  0  0  0
   41.7680   85.7780   58.2760 C   0  0  0  0  0  0  0  0  0  0  0  0
   41.3760   84.9340   59.2820 N   0  0  0  0  0  0  0  0  0  0  0  0
   42.0710   84.8180   60.4220 C   0  0  0  0  0  0  0  0  0  0  0  0
   43.1870   85.5170   60.6480 N   0  0  0  0  0  0  0  0  0  0  0  0
   44.7830   87.1840   59.7630 N   0  0  0  0  0  0  0  0  0  0  0  0
   43.2340   87.1840   57.6900 H   0  0  0  0  0  0  0  0  0  0  0  0
   41.1980   85.8620   57.3600 H   0  0  0  0  0  0  0  0  0  0  0  0
   45.5010   86.6020   59.3150 H   0  0  0  0  0  0  0  0  0  0  0  0
   44.3800   88.0300   60.2480 H   0  0  0  0  0  0  0  0  0  0  0  0
  1  2  1  0  0  0  0
  2  7  1  0  0  0  0
  2  3  2  0  0  0  0
  3  8  1  0  0  0  0
  4  3  1  0  0  0  0
  5  4  2  0  0  0  0
  6  1  2  0  0  0  0
  6  5  1  0  0  0  0
  9 10  1  0  0  0  0
  9  5  1  0  0  0  0
 10 11  1  0  0  0  0
 12 13  1  0  0  0  0
 12 10  1  0  0  0  0
 14 12  1  0  0  0  0
 14 16  1  0  0  0  0
 15 14  1  0  0  0  0
 17 16  1  0  0  0  0
 17  9  1  0  0  0  0
 18 24  1  0  0  0  0
 18 23  1  0  0  0  0
 19 18  2  0  0  0  0
 20 19  1  0  0  0  0
 20 21  2  0  0  0  0
 21 22  1  0  0  0  0
 22 23  2  0  0  0  0
 22  1  1  0  0  0  0
 24 28  1  0  0  0  0
 25 19  1  0  0  0  0
 26 20  1  0  0  0  0
 27 24  1  0  0  0  0
M  END
>  <minimizedAffinity>
-5.40901756

>  <minimizedRMSD>
0.344336003

$$$$
