
 OpenBabel03212520193D

 35 37  0  0  0  0  0  0  0  0999 V2000
   42.2570   72.4380   62.2760 Cl  0  0  0  0  0  0  0  0  0  0  0  0
   41.7220   71.7200   60.7690 C   0  0  0  0  0  0  0  0  0  0  0  0
   41.1030   72.4250   59.7580 C   0  0  0  0  0  0  0  0  0  0  0  0
   40.7480   71.7110   58.6460 C   0  0  0  0  0  0  0  0  0  0  0  0
   40.9390   70.3610   58.4220 C   0  0  0  0  0  0  0  0  0  0  0  0
   41.5510   69.6940   59.4400 C   0  0  0  0  0  0  0  0  0  0  0  0
   41.8690   67.9610   59.3160 Cl  0  0  0  0  0  0  0  0  0  0  0  0
   41.9410   70.3570   60.6040 C   0  0  0  0  0  0  0  0  0  0  0  0
   40.2580   72.2970   57.8580 H   0  0  0  0  0  0  0  0  0  0  0  0
   40.6270   69.8750   57.5140 H   0  0  0  0  0  0  0  0  0  0  0  0
   39.7990   74.4390   60.5990 C   0  0  0  0  0  0  0  0  0  0  0  0
   40.8830   73.8240   59.9400 C   0  0  0  0  0  0  0  0  0  0  0  0
   41.8380   74.6590   59.4120 C   0  0  0  0  0  0  0  0  0  0  0  0
   41.6640   76.0000   59.5650 N   0  0  0  0  0  0  0  0  0  0  0  0
   40.6330   76.5540   60.1920 C   0  0  0  0  0  0  0  0  0  0  0  0
   39.6800   75.7570   60.7200 N   0  0  0  0  0  0  0  0  0  0  0  0
   39.0730   73.7380   60.9980 H   0  0  0  0  0  0  0  0  0  0  0  0
   42.7230   74.3210   58.8800 H   0  0  0  0  0  0  0  0  0  0  0  0
   40.6230   78.0370   60.2540 C   0  0  0  0  0  0  0  0  0  0  0  0
   41.8480   78.5730   59.9300 F   0  0  0  0  0  0  0  0  0  0  0  0
   39.6670   78.5380   59.3780 F   0  0  0  0  0  0  0  0  0  0  0  0
   40.3440   78.4850   61.5550 F   0  0  0  0  0  0  0  0  0  0  0  0
   42.5620   69.6320   61.6120 O   0  0  0  0  0  0  0  0  0  0  0  0
   41.9640   69.3150   62.8400 C   0  0  0  0  0  0  0  0  0  0  0  0
   42.5730   69.8000   63.6310 H   0  0  0  0  0  0  0  0  0  0  0  0
   40.9430   69.7390   62.9260 H   0  0  0  0  0  0  0  0  0  0  0  0
   42.0390   67.8930   63.0470 N   0  0  0  0  0  0  0  0  0  0  0  0
   43.2190   67.3310   62.4820 C   0  0  0  0  0  3  0  0  0  0  0  0
   44.0600   67.6200   63.1760 H   0  0  0  0  0  0  0  0  0  0  0  0
   43.1850   65.8320   62.4990 C   0  0  0  0  0  3  0  0  0  0  0  0
   43.0320   65.4350   63.5270 H   0  0  0  0  0  0  0  0  0  0  0  0
   42.0220   65.3900   61.7130 N   0  0  0  0  0  0  0  0  0  0  0  0
   42.0180   65.9310   60.8080 H   0  0  0  0  0  0  0  0  0  0  0  0
   40.8790   65.7830   62.5450 C   0  0  0  0  0  2  0  0  0  0  0  0
   40.8060   67.2660   62.7100 C   0  0  0  0  0  2  0  0  0  0  0  0
  2  1  1  0  0  0  0
  3 12  1  0  0  0  0
  3  2  2  0  0  0  0
  4  3  1  0  0  0  0
  5  4  2  0  0  0  0
  5  6  1  0  0  0  0
  6  8  2  0  0  0  0
  7  6  1  0  0  0  0
  8  2  1  0  0  0  0
  8 23  1  0  0  0  0
  9  4  1  0  0  0  0
 10  5  1  0  0  0  0
 11 16  1  0  0  0  0
 11 17  1  0  0  0  0
 12 11  2  0  0  0  0
 13 14  2  0  0  0  0
 13 12  1  0  0  0  0
 14 15  1  0  0  0  0
 15 19  1  0  0  0  0
 15 16  2  0  0  0  0
 18 13  1  0  0  0  0
 19 22  1  0  0  0  0
 20 19  1  0  0  0  0
 21 19  1  0  0  0  0
 23 24  1  0  0  0  0
 24 26  1  0  0  0  0
 24 27  1  0  0  0  0
 24 25  1  0  0  0  0
 28 30  1  0  0  0  0
 28 27  1  0  0  0  0
 28 29  1  0  0  0  0
 30 31  1  0  0  0  0
 32 30  1  0  0  0  0
 32 34  1  0  0  0  0
 33 32  1  0  0  0  0
 34 35  1  0  0  0  0
 35 27  1  0  0  0  0
M  END
>  <minimizedAffinity>
-6.2154727

$$$$

 OpenBabel03212520193D

 35 37  0  0  0  0  0  0  0  0999 V2000
   39.6120   72.9520   61.4010 Cl  0  0  0  0  0  0  0  0  0  0  0  0
   41.1990   73.2820   60.7330 C   0  0  0  0  0  0  0  0  0  0  0  0
   42.2770   72.4290   60.8520 C   0  0  0  0  0  0  0  0  0  0  0  0
   43.4460   72.8380   60.2730 C   0  0  0  0  0  0  0  0  0  0  0  0
   43.6700   74.0130   59.5800 C   0  0  0  0  0  0  0  0  0  0  0  0
   42.5860   74.8340   59.4810 C   0  0  0  0  0  0  0  0  0  0  0  0
   42.7020   76.3750   58.6270 Cl  0  0  0  0  0  0  0  0  0  0  0  0
   41.3620   74.4800   60.0480 C   0  0  0  0  0  0  0  0  0  0  0  0
   44.2860   72.1410   60.3830 H   0  0  0  0  0  0  0  0  0  0  0  0
   44.6260   74.2600   59.1530 H   0  0  0  0  0  0  0  0  0  0  0  0
   41.9360   71.0320   62.9500 C   0  0  0  0  0  0  0  0  0  0  0  0
   42.0980   71.2010   61.5590 C   0  0  0  0  0  0  0  0  0  0  0  0
   42.0800   70.0600   60.7930 C   0  0  0  0  0  0  0  0  0  0  0  0
   41.9110   68.8700   61.4310 N   0  0  0  0  0  0  0  0  0  0  0  0
   41.7610   68.7380   62.7430 C   0  0  0  0  0  0  0  0  0  0  0  0
   41.7740   69.8420   63.5200 N   0  0  0  0  0  0  0  0  0  0  0  0
   41.9570   71.9610   63.5110 H   0  0  0  0  0  0  0  0  0  0  0  0
   42.1920   70.0450   59.7130 H   0  0  0  0  0  0  0  0  0  0  0  0
   41.5890   67.3540   63.2480 C   0  0  0  0  0  0  0  0  0  0  0  0
   40.4770   67.2330   64.0500 F   0  0  0  0  0  0  0  0  0  0  0  0
   41.4700   66.4740   62.1790 F   0  0  0  0  0  0  0  0  0  0  0  0
   42.6770   66.9710   64.0490 F   0  0  0  0  0  0  0  0  0  0  0  0
   40.2880   75.3500   59.9180 O   0  0  0  0  0  0  0  0  0  0  0  0
   39.1580   75.0990   59.1260 C   0  0  0  0  0  0  0  0  0  0  0  0
   39.3840   74.1980   58.5180 H   0  0  0  0  0  0  0  0  0  0  0  0
   38.2690   74.8510   59.7380 H   0  0  0  0  0  0  0  0  0  0  0  0
   38.9680   76.1980   58.2160 N   0  0  0  0  0  0  0  0  0  0  0  0
   39.5200   75.9310   56.9310 C   0  0  0  0  0  3  0  0  0  0  0  0
   38.8090   75.2110   56.4340 H   0  0  0  0  0  0  0  0  0  0  0  0
   39.5220   77.1530   56.0620 C   0  0  0  0  0  3  0  0  0  0  0  0
   38.5020   77.5840   55.9530 H   0  0  0  0  0  0  0  0  0  0  0  0
   40.3330   78.1870   56.7250 N   0  0  0  0  0  0  0  0  0  0  0  0
   41.2320   77.7380   57.0470 H   0  0  0  0  0  0  0  0  0  0  0  0
   39.5160   78.5730   57.8810 C   0  0  0  0  0  2  0  0  0  0  0  0
   39.3330   77.4310   58.8270 C   0  0  0  0  0  2  0  0  0  0  0  0
  2  3  1  0  0  0  0
  2  1  1  0  0  0  0
  3 12  1  0  0  0  0
  4  9  1  0  0  0  0
  4  3  2  0  0  0  0
  5  4  1  0  0  0  0
  6  5  2  0  0  0  0
  6  8  1  0  0  0  0
  7  6  1  0  0  0  0
  8  2  2  0  0  0  0
 10  5  1  0  0  0  0
 11 17  1  0  0  0  0
 11 16  1  0  0  0  0
 12 11  2  0  0  0  0
 13 14  2  0  0  0  0
 13 12  1  0  0  0  0
 14 15  1  0  0  0  0
 15 19  1  0  0  0  0
 15 16  2  0  0  0  0
 18 13  1  0  0  0  0
 19 22  1  0  0  0  0
 19 20  1  0  0  0  0
 21 19  1  0  0  0  0
 23  8  1  0  0  0  0
 24 26  1  0  0  0  0
 24 23  1  0  0  0  0
 25 24  1  0  0  0  0
 27 35  1  0  0  0  0
 27 24  1  0  0  0  0
 28 27  1  0  0  0  0
 29 28  1  0  0  0  0
 30 32  1  0  0  0  0
 30 28  1  0  0  0  0
 31 30  1  0  0  0  0
 32 33  1  0  0  0  0
 32 34  1  0  0  0  0
 34 35  1  0  0  0  0
M  END
>  <minimizedAffinity>
-6.20716906

$$$$

 OpenBabel03212520193D

 35 37  0  0  0  0  0  0  0  0999 V2000
   39.5290   72.7390   57.0860 Cl  0  0  0  0  0  0  0  0  0  0  0  0
   39.5350   73.4920   58.6690 C   0  0  0  0  0  0  0  0  0  0  0  0
   38.9300   74.7000   58.9490 C   0  0  0  0  0  0  0  0  0  0  0  0
   39.0290   75.1480   60.2380 C   0  0  0  0  0  0  0  0  0  0  0  0
   39.6690   74.5250   61.2930 C   0  0  0  0  0  0  0  0  0  0  0  0
   40.2570   73.3360   60.9830 C   0  0  0  0  0  0  0  0  0  0  0  0
   41.1170   72.4110   62.2170 Cl  0  0  0  0  0  0  0  0  0  0  0  0
   40.1960   72.8180   59.6890 C   0  0  0  0  0  0  0  0  0  0  0  0
   38.5380   76.1100   60.4310 H   0  0  0  0  0  0  0  0  0  0  0  0
   39.7000   74.9490   62.2810 H   0  0  0  0  0  0  0  0  0  0  0  0
   37.0950   74.9650   57.2080 C   0  0  0  0  0  0  0  0  0  0  0  0
   38.2550   75.3830   57.8930 C   0  0  0  0  0  0  0  0  0  0  0  0
   38.8000   76.5840   57.5040 C   0  0  0  0  0  0  0  0  0  0  0  0
   38.1840   77.2650   56.5000 N   0  0  0  0  0  0  0  0  0  0  0  0
   37.0920   76.8480   55.8720 C   0  0  0  0  0  0  0  0  0  0  0  0
   36.5350   75.6730   56.2330 N   0  0  0  0  0  0  0  0  0  0  0  0
   36.7030   74.0120   57.5510 H   0  0  0  0  0  0  0  0  0  0  0  0
   39.6890   77.0250   57.9450 H   0  0  0  0  0  0  0  0  0  0  0  0
   36.5710   77.7350   54.8020 C   0  0  0  0  0  0  0  0  0  0  0  0
   36.1090   77.0190   53.7210 F   0  0  0  0  0  0  0  0  0  0  0  0
   35.5340   78.5150   55.3010 F   0  0  0  0  0  0  0  0  0  0  0  0
   37.5830   78.5690   54.3010 F   0  0  0  0  0  0  0  0  0  0  0  0
   40.8100   71.6020   59.4250 O   0  0  0  0  0  0  0  0  0  0  0  0
   42.1230   71.4660   58.9510 C   0  0  0  0  0  0  0  0  0  0  0  0
   42.2480   72.2030   58.1310 H   0  0  0  0  0  0  0  0  0  0  0  0
   42.8730   71.7280   59.7250 H   0  0  0  0  0  0  0  0  0  0  0  0
   42.2850   70.1540   58.3820 N   0  0  0  0  0  0  0  0  0  0  0  0
   42.4350   70.1980   56.9670 C   0  0  0  0  0  3  0  0  0  0  0  0
   43.4860   70.5650   56.7800 H   0  0  0  0  0  0  0  0  0  0  0  0
   42.3760   68.8290   56.3590 C   0  0  0  0  0  3  0  0  0  0  0  0
   43.1390   68.1490   56.7980 H   0  0  0  0  0  0  0  0  0  0  0  0
   41.0680   68.2390   56.6820 N   0  0  0  0  0  0  0  0  0  0  0  0
   40.3270   68.9620   56.4840 H   0  0  0  0  0  0  0  0  0  0  0  0
   41.1560   67.9840   58.1250 C   0  0  0  0  0  2  0  0  0  0  0  0
   41.3080   69.2550   58.8960 C   0  0  0  0  0  2  0  0  0  0  0  0
  1  2  1  0  0  0  0
  2  3  2  0  0  0  0
  2  8  1  0  0  0  0
  3  4  1  0  0  0  0
  4  9  1  0  0  0  0
  4  5  2  0  0  0  0
  5 10  1  0  0  0  0
  6  5  1  0  0  0  0
  6  7  1  0  0  0  0
  8  6  2  0  0  0  0
 11 17  1  0  0  0  0
 11 12  1  0  0  0  0
 12  3  1  0  0  0  0
 13 12  2  0  0  0  0
 13 18  1  0  0  0  0
 14 13  1  0  0  0  0
 15 16  1  0  0  0  0
 15 14  2  0  0  0  0
 16 11  2  0  0  0  0
 19 21  1  0  0  0  0
 19 15  1  0  0  0  0
 20 19  1  0  0  0  0
 22 19  1  0  0  0  0
 23  8  1  0  0  0  0
 24 23  1  0  0  0  0
 24 26  1  0  0  0  0
 25 24  1  0  0  0  0
 27 35  1  0  0  0  0
 27 24  1  0  0  0  0
 28 27  1  0  0  0  0
 29 28  1  0  0  0  0
 30 32  1  0  0  0  0
 30 31  1  0  0  0  0
 30 28  1  0  0  0  0
 32 34  1  0  0  0  0
 33 32  1  0  0  0  0
 34 35  1  0  0  0  0
M  END
>  <minimizedAffinity>
-6.17824602

$$$$

 OpenBabel03212520193D

 35 37  0  0  0  0  0  0  0  0999 V2000
   41.0800   70.9470   58.4900 Cl  0  0  0  0  0  0  0  0  0  0  0  0
   41.4610   71.2870   60.1670 C   0  0  0  0  0  0  0  0  0  0  0  0
   41.1520   72.4730   60.8010 C   0  0  0  0  0  0  0  0  0  0  0  0
   41.5210   72.5760   62.1150 C   0  0  0  0  0  0  0  0  0  0  0  0
   42.1690   71.6250   62.8790 C   0  0  0  0  0  0  0  0  0  0  0  0
   42.4600   70.4660   62.2240 C   0  0  0  0  0  0  0  0  0  0  0  0
   43.2870   69.1470   63.0560 Cl  0  0  0  0  0  0  0  0  0  0  0  0
   42.1140   70.2910   60.8840 C   0  0  0  0  0  0  0  0  0  0  0  0
   41.2620   73.5290   62.5930 H   0  0  0  0  0  0  0  0  0  0  0  0
   42.4230   71.7880   63.9110 H   0  0  0  0  0  0  0  0  0  0  0  0
   39.0900   73.6640   59.9100 C   0  0  0  0  0  0  0  0  0  0  0  0
   40.4820   73.4890   60.0550 C   0  0  0  0  0  0  0  0  0  0  0  0
   41.2880   74.3940   59.4080 C   0  0  0  0  0  0  0  0  0  0  0  0
   40.6860   75.3780   58.6860 N   0  0  0  0  0  0  0  0  0  0  0  0
   39.3720   75.5220   58.5660 C   0  0  0  0  0  0  0  0  0  0  0  0
   38.5560   74.6460   59.1900 N   0  0  0  0  0  0  0  0  0  0  0  0
   38.4970   72.9250   60.4380 H   0  0  0  0  0  0  0  0  0  0  0  0
   42.3740   74.3780   59.4340 H   0  0  0  0  0  0  0  0  0  0  0  0
   38.9090   76.6600   57.7330 C   0  0  0  0  0  0  0  0  0  0  0  0
   38.8880   77.8390   58.4420 F   0  0  0  0  0  0  0  0  0  0  0  0
   39.7470   76.8100   56.6340 F   0  0  0  0  0  0  0  0  0  0  0  0
   37.5910   76.4580   57.2920 F   0  0  0  0  0  0  0  0  0  0  0  0
   42.4320   69.0910   60.2610 O   0  0  0  0  0  0  0  0  0  0  0  0
   41.4850   68.1780   59.7760 C   0  0  0  0  0  0  0  0  0  0  0  0
   40.4840   68.5860   60.0260 H   0  0  0  0  0  0  0  0  0  0  0  0
   41.5220   68.0900   58.6710 H   0  0  0  0  0  0  0  0  0  0  0  0
   41.6320   66.9300   60.4790 N   0  0  0  0  0  0  0  0  0  0  0  0
   40.8500   66.8900   61.6680 C   0  0  0  0  0  3  0  0  0  0  0  0
   39.7840   66.7390   61.3310 H   0  0  0  0  0  0  0  0  0  0  0  0
   41.1760   65.6930   62.5080 C   0  0  0  0  0  3  0  0  0  0  0  0
   41.0500   64.7440   61.9410 H   0  0  0  0  0  0  0  0  0  0  0  0
   42.6000   65.7620   62.8750 N   0  0  0  0  0  0  0  0  0  0  0  0
   42.8010   66.7420   63.2100 H   0  0  0  0  0  0  0  0  0  0  0  0
   43.2920   65.5070   61.6060 C   0  0  0  0  0  2  0  0  0  0  0  0
   43.0050   66.5770   60.6020 C   0  0  0  0  0  2  0  0  0  0  0  0
  1  2  1  0  0  0  0
  2  3  2  0  0  0  0
  2  8  1  0  0  0  0
  3  4  1  0  0  0  0
  4  9  1  0  0  0  0
  4  5  2  0  0  0  0
  5 10  1  0  0  0  0
  6  5  1  0  0  0  0
  6  7  1  0  0  0  0
  8  6  2  0  0  0  0
 11 12  1  0  0  0  0
 11 17  1  0  0  0  0
 12  3  1  0  0  0  0
 13 18  1  0  0  0  0
 13 12  2  0  0  0  0
 14 13  1  0  0  0  0
 15 14  2  0  0  0  0
 15 16  1  0  0  0  0
 16 11  2  0  0  0  0
 19 20  1  0  0  0  0
 19 15  1  0  0  0  0
 21 19  1  0  0  0  0
 22 19  1  0  0  0  0
 23  8  1  0  0  0  0
 24 25  1  0  0  0  0
 24 23  1  0  0  0  0
 24 27  1  0  0  0  0
 26 24  1  0  0  0  0
 27 35  1  0  0  0  0
 27 28  1  0  0  0  0
 28 30  1  0  0  0  0
 29 28  1  0  0  0  0
 30 32  1  0  0  0  0
 31 30  1  0  0  0  0
 32 33  1  0  0  0  0
 34 32  1  0  0  0  0
 35 34  1  0  0  0  0
M  END
>  <minimizedAffinity>
-6.09434366

$$$$

 OpenBabel03212520193D

 35 37  0  0  0  0  0  0  0  0999 V2000
   39.7580   72.8490   56.9500 Cl  0  0  0  0  0  0  0  0  0  0  0  0
   39.4740   73.4260   58.5810 C   0  0  0  0  0  0  0  0  0  0  0  0
   38.7050   74.5310   58.8830 C   0  0  0  0  0  0  0  0  0  0  0  0
   38.5840   74.8470   60.2090 C   0  0  0  0  0  0  0  0  0  0  0  0
   39.1480   74.1810   61.2820 C   0  0  0  0  0  0  0  0  0  0  0  0
   39.9020   73.0960   60.9500 C   0  0  0  0  0  0  0  0  0  0  0  0
   40.6930   72.1350   62.2010 Cl  0  0  0  0  0  0  0  0  0  0  0  0
   40.0680   72.7160   59.6180 C   0  0  0  0  0  0  0  0  0  0  0  0
   37.9680   75.7290   60.4200 H   0  0  0  0  0  0  0  0  0  0  0  0
   39.0030   74.4980   62.3000 H   0  0  0  0  0  0  0  0  0  0  0  0
   37.1150   74.7860   56.9150 C   0  0  0  0  0  0  0  0  0  0  0  0
   38.1000   75.2520   57.8100 C   0  0  0  0  0  0  0  0  0  0  0  0
   38.5280   76.5470   57.6360 C   0  0  0  0  0  0  0  0  0  0  0  0
   37.9740   77.2670   56.6220 N   0  0  0  0  0  0  0  0  0  0  0  0
   37.0470   76.8040   55.7930 C   0  0  0  0  0  0  0  0  0  0  0  0
   36.6080   75.5360   55.9420 N   0  0  0  0  0  0  0  0  0  0  0  0
   36.8100   73.7590   57.0940 H   0  0  0  0  0  0  0  0  0  0  0  0
   39.2790   77.0330   58.2510 H   0  0  0  0  0  0  0  0  0  0  0  0
   36.5680   77.7460   54.7520 C   0  0  0  0  0  0  0  0  0  0  0  0
   35.5310   78.5290   55.2050 F   0  0  0  0  0  0  0  0  0  0  0  0
   37.6110   78.5700   54.3470 F   0  0  0  0  0  0  0  0  0  0  0  0
   36.0620   77.0530   53.6400 F   0  0  0  0  0  0  0  0  0  0  0  0
   40.8450   71.6020   59.3320 O   0  0  0  0  0  0  0  0  0  0  0  0
   42.2320   71.5330   59.5310 C   0  0  0  0  0  0  0  0  0  0  0  0
   42.3950   71.3860   60.6190 H   0  0  0  0  0  0  0  0  0  0  0  0
   42.6810   70.6560   59.0240 H   0  0  0  0  0  0  0  0  0  0  0  0
   42.8210   72.7960   59.1710 N   0  0  0  0  0  0  0  0  0  0  0  0
   43.4420   72.7520   57.8900 C   0  0  0  0  0  3  0  0  0  0  0  0
   42.6000   72.7700   57.1390 H   0  0  0  0  0  0  0  0  0  0  0  0
   44.2440   73.9890   57.6190 C   0  0  0  0  0  3  0  0  0  0  0  0
   43.6260   74.9100   57.7070 H   0  0  0  0  0  0  0  0  0  0  0  0
   45.2870   74.0970   58.6520 N   0  0  0  0  0  0  0  0  0  0  0  0
   45.7460   73.1530   58.7490 H   0  0  0  0  0  0  0  0  0  0  0  0
   44.5310   74.4220   59.8670 C   0  0  0  0  0  2  0  0  0  0  0  0
   43.5990   73.3160   60.2440 C   0  0  0  0  0  2  0  0  0  0  0  0
  1  2  1  0  0  0  0
  2  3  2  0  0  0  0
  2  8  1  0  0  0  0
  3  4  1  0  0  0  0
  4  9  1  0  0  0  0
  4  5  2  0  0  0  0
  5 10  1  0  0  0  0
  6  5  1  0  0  0  0
  6  7  1  0  0  0  0
  8  6  2  0  0  0  0
 11 17  1  0  0  0  0
 11 12  1  0  0  0  0
 12  3  1  0  0  0  0
 13 12  2  0  0  0  0
 13 18  1  0  0  0  0
 14 13  1  0  0  0  0
 15 16  1  0  0  0  0
 15 14  2  0  0  0  0
 16 11  2  0  0  0  0
 19 20  1  0  0  0  0
 19 15  1  0  0  0  0
 21 19  1  0  0  0  0
 22 19  1  0  0  0  0
 23 24  1  0  0  0  0
 23  8  1  0  0  0  0
 24 25  1  0  0  0  0
 26 24  1  0  0  0  0
 27 24  1  0  0  0  0
 27 35  1  0  0  0  0
 28 27  1  0  0  0  0
 29 28  1  0  0  0  0
 30 31  1  0  0  0  0
 30 28  1  0  0  0  0
 30 32  1  0  0  0  0
 32 33  1  0  0  0  0
 32 34  1  0  0  0  0
 34 35  1  0  0  0  0
M  END
>  <minimizedAffinity>
-6.05838585

$$$$

 OpenBabel03212520193D

 35 37  0  0  0  0  0  0  0  0999 V2000
   40.5590   73.2730   57.1430 Cl  0  0  0  0  0  0  0  0  0  0  0  0
   39.9110   73.5150   58.7540 C   0  0  0  0  0  0  0  0  0  0  0  0
   38.8470   74.3460   59.0390 C   0  0  0  0  0  0  0  0  0  0  0  0
   38.4670   74.4220   60.3510 C   0  0  0  0  0  0  0  0  0  0  0  0
   39.0300   73.7590   61.4250 C   0  0  0  0  0  0  0  0  0  0  0  0
   40.0780   72.9480   61.1100 C   0  0  0  0  0  0  0  0  0  0  0  0
   40.9110   72.0290   62.3660 Cl  0  0  0  0  0  0  0  0  0  0  0  0
   40.5200   72.8210   59.7930 C   0  0  0  0  0  0  0  0  0  0  0  0
   37.6180   75.0890   60.5470 H   0  0  0  0  0  0  0  0  0  0  0  0
   38.6680   73.8760   62.4310 H   0  0  0  0  0  0  0  0  0  0  0  0
   37.3360   74.5370   57.0030 C   0  0  0  0  0  0  0  0  0  0  0  0
   38.2300   75.0530   57.9630 C   0  0  0  0  0  0  0  0  0  0  0  0
   38.5450   76.3870   57.8580 C   0  0  0  0  0  0  0  0  0  0  0  0
   37.9760   77.0950   56.8440 N   0  0  0  0  0  0  0  0  0  0  0  0
   37.1360   76.5840   55.9530 C   0  0  0  0  0  0  0  0  0  0  0  0
   36.8090   75.2770   56.0330 N   0  0  0  0  0  0  0  0  0  0  0  0
   37.1190   73.4810   57.1280 H   0  0  0  0  0  0  0  0  0  0  0  0
   39.2180   76.9130   58.5280 H   0  0  0  0  0  0  0  0  0  0  0  0
   36.6220   77.5210   54.9230 C   0  0  0  0  0  0  0  0  0  0  0  0
   36.2420   76.8640   53.7750 F   0  0  0  0  0  0  0  0  0  0  0  0
   35.5300   78.2180   55.4250 F   0  0  0  0  0  0  0  0  0  0  0  0
   37.6160   78.4310   54.5290 F   0  0  0  0  0  0  0  0  0  0  0  0
   41.5930   71.9810   59.5240 O   0  0  0  0  0  0  0  0  0  0  0  0
   41.4670   70.6650   59.0560 C   0  0  0  0  0  0  0  0  0  0  0  0
   40.3850   70.4840   58.8880 H   0  0  0  0  0  0  0  0  0  0  0  0
   41.9650   70.5240   58.0760 H   0  0  0  0  0  0  0  0  0  0  0  0
   41.9040   69.7570   60.0840 N   0  0  0  0  0  0  0  0  0  0  0  0
   43.2610   69.9810   60.4550 C   0  0  0  0  0  3  0  0  0  0  0  0
   43.2570   70.9160   61.0850 H   0  0  0  0  0  0  0  0  0  0  0  0
   43.7770   68.8970   61.3540 C   0  0  0  0  0  3  0  0  0  0  0  0
   43.1490   68.7830   62.2660 H   0  0  0  0  0  0  0  0  0  0  0  0
   43.6830   67.6180   60.6320 N   0  0  0  0  0  0  0  0  0  0  0  0
   44.0730   67.7630   59.6630 H   0  0  0  0  0  0  0  0  0  0  0  0
   42.2390   67.3680   60.5660 C   0  0  0  0  0  2  0  0  0  0  0  0
   41.5380   68.4190   59.7660 C   0  0  0  0  0  2  0  0  0  0  0  0
  1  2  1  0  0  0  0
  2  3  2  0  0  0  0
  2  8  1  0  0  0  0
  3  4  1  0  0  0  0
  4  9  1  0  0  0  0
  4  5  2  0  0  0  0
  5 10  1  0  0  0  0
  6  5  1  0  0  0  0
  6  7  1  0  0  0  0
  8  6  2  0  0  0  0
 11 17  1  0  0  0  0
 11 12  1  0  0  0  0
 12  3  1  0  0  0  0
 13 12  2  0  0  0  0
 13 18  1  0  0  0  0
 14 13  1  0  0  0  0
 15 16  1  0  0  0  0
 15 14  2  0  0  0  0
 16 11  2  0  0  0  0
 19 21  1  0  0  0  0
 19 15  1  0  0  0  0
 20 19  1  0  0  0  0
 22 19  1  0  0  0  0
 23  8  1  0  0  0  0
 24 23  1  0  0  0  0
 24 27  1  0  0  0  0
 25 24  1  0  0  0  0
 26 24  1  0  0  0  0
 27 28  1  0  0  0  0
 28 29  1  0  0  0  0
 28 30  1  0  0  0  0
 30 31  1  0  0  0  0
 32 30  1  0  0  0  0
 33 32  1  0  0  0  0
 34 32  1  0  0  0  0
 35 27  1  0  0  0  0
 35 34  1  0  0  0  0
M  END
>  <minimizedAffinity>
-6.01984739

$$$$

 OpenBabel03212520193D

 35 37  0  0  0  0  0  0  0  0999 V2000
   39.6900   73.0270   61.4220 Cl  0  0  0  0  0  0  0  0  0  0  0  0
   41.2570   73.4300   60.7460 C   0  0  0  0  0  0  0  0  0  0  0  0
   42.3540   72.5950   60.7960 C   0  0  0  0  0  0  0  0  0  0  0  0
   43.5030   73.0630   60.2200 C   0  0  0  0  0  0  0  0  0  0  0  0
   43.6890   74.2800   59.5920 C   0  0  0  0  0  0  0  0  0  0  0  0
   42.5870   75.0810   59.5600 C   0  0  0  0  0  0  0  0  0  0  0  0
   42.6540   76.6710   58.7950 Cl  0  0  0  0  0  0  0  0  0  0  0  0
   41.3810   74.6680   60.1280 C   0  0  0  0  0  0  0  0  0  0  0  0
   44.3590   72.3780   60.2740 H   0  0  0  0  0  0  0  0  0  0  0  0
   44.6310   74.5720   59.1630 H   0  0  0  0  0  0  0  0  0  0  0  0
   42.2320   71.0580   62.8180 C   0  0  0  0  0  0  0  0  0  0  0  0
   42.2140   71.3250   61.4330 C   0  0  0  0  0  0  0  0  0  0  0  0
   42.0420   70.2460   60.6000 C   0  0  0  0  0  0  0  0  0  0  0  0
   41.9040   69.0180   61.1710 N   0  0  0  0  0  0  0  0  0  0  0  0
   41.9240   68.7940   62.4780 C   0  0  0  0  0  0  0  0  0  0  0  0
   42.0920   69.8360   63.3210 N   0  0  0  0  0  0  0  0  0  0  0  0
   42.3700   71.9410   63.4340 H   0  0  0  0  0  0  0  0  0  0  0  0
   42.0080   70.3080   59.5160 H   0  0  0  0  0  0  0  0  0  0  0  0
   41.7580   67.3830   62.9050 C   0  0  0  0  0  0  0  0  0  0  0  0
   40.8540   67.2610   63.9360 F   0  0  0  0  0  0  0  0  0  0  0  0
   41.3210   66.6150   61.8320 F   0  0  0  0  0  0  0  0  0  0  0  0
   42.9650   66.8580   63.3940 F   0  0  0  0  0  0  0  0  0  0  0  0
   40.2870   75.5210   60.0680 O   0  0  0  0  0  0  0  0  0  0  0  0
   39.5770   75.8150   58.8950 C   0  0  0  0  0  0  0  0  0  0  0  0
   38.5590   76.1300   59.2040 H   0  0  0  0  0  0  0  0  0  0  0  0
   40.0180   76.6710   58.3470 H   0  0  0  0  0  0  0  0  0  0  0  0
   39.4400   74.6130   58.1150 N   0  0  0  0  0  0  0  0  0  0  0  0
   39.8660   74.7970   56.7680 C   0  0  0  0  0  3  0  0  0  0  0  0
   40.9940   74.8170   56.8020 H   0  0  0  0  0  0  0  0  0  0  0  0
   39.5140   73.6210   55.9080 C   0  0  0  0  0  3  0  0  0  0  0  0
   39.9350   72.6730   56.3120 H   0  0  0  0  0  0  0  0  0  0  0  0
   38.0510   73.4580   55.9290 N   0  0  0  0  0  0  0  0  0  0  0  0
   37.6170   74.4060   55.7710 H   0  0  0  0  0  0  0  0  0  0  0  0
   37.7790   72.9950   57.2950 C   0  0  0  0  0  2  0  0  0  0  0  0
   38.1570   74.0270   58.3080 C   0  0  0  0  0  2  0  0  0  0  0  0
  2  3  1  0  0  0  0
  2  1  1  0  0  0  0
  3 12  1  0  0  0  0
  4  9  1  0  0  0  0
  4  3  2  0  0  0  0
  5  4  1  0  0  0  0
  6  5  2  0  0  0  0
  6  8  1  0  0  0  0
  7  6  1  0  0  0  0
  8  2  2  0  0  0  0
 10  5  1  0  0  0  0
 11 16  1  0  0  0  0
 11 17  1  0  0  0  0
 12 11  2  0  0  0  0
 13 14  2  0  0  0  0
 13 12  1  0  0  0  0
 14 15  1  0  0  0  0
 15 19  1  0  0  0  0
 15 16  2  0  0  0  0
 18 13  1  0  0  0  0
 19 22  1  0  0  0  0
 19 20  1  0  0  0  0
 21 19  1  0  0  0  0
 23  8  1  0  0  0  0
 24 25  1  0  0  0  0
 24 23  1  0  0  0  0
 26 24  1  0  0  0  0
 27 35  1  0  0  0  0
 27 24  1  0  0  0  0
 28 29  1  0  0  0  0
 28 27  1  0  0  0  0
 30 32  1  0  0  0  0
 30 31  1  0  0  0  0
 30 28  1  0  0  0  0
 32 34  1  0  0  0  0
 33 32  1  0  0  0  0
 34 35  1  0  0  0  0
M  END
>  <minimizedAffinity>
-6.01880836

$$$$

 OpenBabel03212520193D

 35 37  0  0  0  0  0  0  0  0999 V2000
   39.4770   73.0880   57.9940 Cl  0  0  0  0  0  0  0  0  0  0  0  0
   39.8010   74.6240   58.7750 C   0  0  0  0  0  0  0  0  0  0  0  0
   40.4940   74.7530   59.9610 C   0  0  0  0  0  0  0  0  0  0  0  0
   40.6590   76.0260   60.4350 C   0  0  0  0  0  0  0  0  0  0  0  0
   40.2090   77.1990   59.8580 C   0  0  0  0  0  0  0  0  0  0  0  0
   39.5280   77.0360   58.6890 C   0  0  0  0  0  0  0  0  0  0  0  0
   38.8840   78.4340   57.8230 Cl  0  0  0  0  0  0  0  0  0  0  0  0
   39.3220   75.7680   58.1470 C   0  0  0  0  0  0  0  0  0  0  0  0
   41.2140   76.0990   61.3790 H   0  0  0  0  0  0  0  0  0  0  0  0
   40.3820   78.1640   60.3000 H   0  0  0  0  0  0  0  0  0  0  0  0
   42.1020   72.8020   60.2240 C   0  0  0  0  0  0  0  0  0  0  0  0
   40.9810   73.5710   60.5960 C   0  0  0  0  0  0  0  0  0  0  0  0
   40.2740   73.1410   61.6940 C   0  0  0  0  0  0  0  0  0  0  0  0
   40.7080   72.0170   62.3270 N   0  0  0  0  0  0  0  0  0  0  0  0
   41.7680   71.3100   61.9560 C   0  0  0  0  0  0  0  0  0  0  0  0
   42.4810   71.7100   60.8820 N   0  0  0  0  0  0  0  0  0  0  0  0
   42.6260   73.1820   59.3530 H   0  0  0  0  0  0  0  0  0  0  0  0
   39.3930   73.6370   62.0890 H   0  0  0  0  0  0  0  0  0  0  0  0
   42.0800   70.1140   62.7770 C   0  0  0  0  0  0  0  0  0  0  0  0
   41.5660   70.2170   64.0500 F   0  0  0  0  0  0  0  0  0  0  0  0
   41.5560   68.9780   62.1710 F   0  0  0  0  0  0  0  0  0  0  0  0
   43.4660   69.9610   62.9390 F   0  0  0  0  0  0  0  0  0  0  0  0
   38.6220   75.6560   56.9530 O   0  0  0  0  0  0  0  0  0  0  0  0
   37.2310   75.5020   56.8640 C   0  0  0  0  0  0  0  0  0  0  0  0
   37.0110   74.4290   57.0450 H   0  0  0  0  0  0  0  0  0  0  0  0
   36.6990   76.0690   57.6550 H   0  0  0  0  0  0  0  0  0  0  0  0
   36.8080   75.8100   55.5230 N   0  0  0  0  0  0  0  0  0  0  0  0
   37.6090   75.1540   54.5450 C   0  0  0  0  0  3  0  0  0  0  0  0
   37.2820   74.0750   54.5530 H   0  0  0  0  0  0  0  0  0  0  0  0
   37.3150   75.6500   53.1610 C   0  0  0  0  0  3  0  0  0  0  0  0
   36.2380   75.5400   52.9040 H   0  0  0  0  0  0  0  0  0  0  0  0
   37.5990   77.0940   53.1210 N   0  0  0  0  0  0  0  0  0  0  0  0
   38.5370   77.2530   53.5760 H   0  0  0  0  0  0  0  0  0  0  0  0
   36.5310   77.6750   53.9430 C   0  0  0  0  0  2  0  0  0  0  0  0
   36.6180   77.2120   55.3610 C   0  0  0  0  0  2  0  0  0  0  0  0
  1  2  1  0  0  0  0
  2  3  1  0  0  0  0
  3  4  2  0  0  0  0
  3 12  1  0  0  0  0
  4  9  1  0  0  0  0
  5 10  1  0  0  0  0
  5  4  1  0  0  0  0
  6  5  2  0  0  0  0
  7  6  1  0  0  0  0
  8  6  1  0  0  0  0
  8  2  2  0  0  0  0
 11 12  2  0  0  0  0
 11 16  1  0  0  0  0
 12 13  1  0  0  0  0
 13 18  1  0  0  0  0
 13 14  2  0  0  0  0
 15 14  1  0  0  0  0
 15 19  1  0  0  0  0
 16 15  2  0  0  0  0
 17 11  1  0  0  0  0
 19 22  1  0  0  0  0
 19 20  1  0  0  0  0
 21 19  1  0  0  0  0
 23  8  1  0  0  0  0
 24 23  1  0  0  0  0
 24 25  1  0  0  0  0
 24 26  1  0  0  0  0
 27 24  1  0  0  0  0
 28 29  1  0  0  0  0
 28 27  1  0  0  0  0
 30 28  1  0  0  0  0
 31 30  1  0  0  0  0
 32 30  1  0  0  0  0
 32 33  1  0  0  0  0
 32 34  1  0  0  0  0
 34 35  1  0  0  0  0
 35 27  1  0  0  0  0
M  END
>  <minimizedAffinity>
-5.99854422

$$$$

 OpenBabel03212520193D

 35 37  0  0  0  0  0  0  0  0999 V2000
   40.0730   71.0800   58.3630 Cl  0  0  0  0  0  0  0  0  0  0  0  0
   41.5910   71.8170   58.8410 C   0  0  0  0  0  0  0  0  0  0  0  0
   42.4970   71.2250   59.6970 C   0  0  0  0  0  0  0  0  0  0  0  0
   43.6340   71.9360   59.9680 C   0  0  0  0  0  0  0  0  0  0  0  0
   43.9770   73.1830   59.4800 C   0  0  0  0  0  0  0  0  0  0  0  0
   43.0610   73.7400   58.6390 C   0  0  0  0  0  0  0  0  0  0  0  0
   43.3440   75.3310   57.9280 Cl  0  0  0  0  0  0  0  0  0  0  0  0
   41.8790   73.0720   58.3180 C   0  0  0  0  0  0  0  0  0  0  0  0
   44.3370   71.4420   60.6500 H   0  0  0  0  0  0  0  0  0  0  0  0
   44.8960   73.6750   59.7450 H   0  0  0  0  0  0  0  0  0  0  0  0
   42.0290   68.7330   59.5100 C   0  0  0  0  0  0  0  0  0  0  0  0
   42.1900   69.9360   60.2280 C   0  0  0  0  0  0  0  0  0  0  0  0
   42.0360   69.8660   61.5920 C   0  0  0  0  0  0  0  0  0  0  0  0
   41.7420   68.6530   62.1360 N   0  0  0  0  0  0  0  0  0  0  0  0
   41.5960   67.5340   61.4370 C   0  0  0  0  0  0  0  0  0  0  0  0
   41.7420   67.5740   60.0960 N   0  0  0  0  0  0  0  0  0  0  0  0
   42.1600   68.8400   58.4380 H   0  0  0  0  0  0  0  0  0  0  0  0
   42.1320   70.7130   62.2640 H   0  0  0  0  0  0  0  0  0  0  0  0
   41.2770   66.3120   62.2150 C   0  0  0  0  0  0  0  0  0  0  0  0
   40.1280   65.7020   61.7630 F   0  0  0  0  0  0  0  0  0  0  0  0
   42.3300   65.4090   62.1260 F   0  0  0  0  0  0  0  0  0  0  0  0
   41.0380   66.6200   63.5630 F   0  0  0  0  0  0  0  0  0  0  0  0
   40.9780   73.6820   57.4560 O   0  0  0  0  0  0  0  0  0  0  0  0
   40.0290   74.6370   57.8510 C   0  0  0  0  0  0  0  0  0  0  0  0
   40.4360   75.6310   57.5710 H   0  0  0  0  0  0  0  0  0  0  0  0
   39.0730   74.5230   57.3030 H   0  0  0  0  0  0  0  0  0  0  0  0
   39.9030   74.6090   59.2840 N   0  0  0  0  0  0  0  0  0  0  0  0
   38.7110   73.9530   59.7040 C   0  0  0  0  0  3  0  0  0  0  0  0
   38.8970   72.8510   59.5570 H   0  0  0  0  0  0  0  0  0  0  0  0
   38.4710   74.1250   61.1740 C   0  0  0  0  0  3  0  0  0  0  0  0
   39.3330   73.7640   61.7780 H   0  0  0  0  0  0  0  0  0  0  0  0
   38.3490   75.5640   61.4560 N   0  0  0  0  0  0  0  0  0  0  0  0
   37.6980   75.9810   60.7390 H   0  0  0  0  0  0  0  0  0  0  0  0
   39.7130   76.0670   61.2560 C   0  0  0  0  0  2  0  0  0  0  0  0
   40.1580   75.8950   59.8400 C   0  0  0  0  0  2  0  0  0  0  0  0
  1  2  1  0  0  0  0
  2  3  1  0  0  0  0
  3  4  2  0  0  0  0
  3 12  1  0  0  0  0
  4  9  1  0  0  0  0
  5 10  1  0  0  0  0
  5  4  1  0  0  0  0
  6  5  2  0  0  0  0
  7  6  1  0  0  0  0
  8  6  1  0  0  0  0
  8  2  2  0  0  0  0
 11 16  2  0  0  0  0
 11 12  1  0  0  0  0
 12 13  2  0  0  0  0
 13 14  1  0  0  0  0
 13 18  1  0  0  0  0
 15 14  2  0  0  0  0
 15 19  1  0  0  0  0
 16 15  1  0  0  0  0
 17 11  1  0  0  0  0
 19 22  1  0  0  0  0
 20 19  1  0  0  0  0
 21 19  1  0  0  0  0
 23 24  1  0  0  0  0
 23  8  1  0  0  0  0
 24 27  1  0  0  0  0
 25 24  1  0  0  0  0
 26 24  1  0  0  0  0
 27 28  1  0  0  0  0
 27 35  1  0  0  0  0
 28 30  1  0  0  0  0
 29 28  1  0  0  0  0
 30 32  1  0  0  0  0
 30 31  1  0  0  0  0
 33 32  1  0  0  0  0
 34 32  1  0  0  0  0
 35 34  1  0  0  0  0
M  END
>  <minimizedAffinity>
-5.89388132

$$$$
