
 OpenBabel03212520473D

 28 30  0  0  0  0  0  0  0  0999 V2000
   41.6570   83.8280   61.4910 C   0  0  0  0  0  0  0  0  0  0  0  0
   41.1070   84.2150   62.6840 C   0  0  0  0  0  0  0  0  0  0  0  0
   40.6210   83.2910   63.6090 C   0  0  0  0  0  0  0  0  0  0  0  0
   40.6950   81.9670   63.3200 N   0  0  0  0  0  0  0  0  0  0  0  0
   41.2360   81.5940   62.1470 C   0  0  0  0  0  0  0  0  0  0  0  0
   41.7140   82.5000   61.2380 N   0  0  0  0  0  0  0  0  0  0  0  0
   41.0830   85.2920   62.8430 H   0  0  0  0  0  0  0  0  0  0  0  0
   40.2000   83.6650   64.5260 H   0  0  0  0  0  0  0  0  0  0  0  0
   41.3310   80.2100   61.8080 N   0  0  0  0  0  0  0  0  0  0  0  0
   42.1620   79.7370   60.7470 C   0  0  0  0  0  3  0  0  0  0  0  0
   41.5800   79.6900   59.8030 H   0  0  0  0  0  0  0  0  0  0  0  0
   42.8500   78.4350   61.0440 C   0  0  0  0  0  3  0  0  0  0  0  0
   43.2380   78.0170   60.0920 H   0  0  0  0  0  0  0  0  0  0  0  0
   41.9860   77.4590   61.6510 N   0  0  0  0  0  0  0  0  0  0  0  0
   42.3740   76.9710   62.4700 H   0  0  0  0  0  0  0  0  0  0  0  0
   40.6240   77.9190   61.7940 C   0  0  0  0  0  2  0  0  0  0  0  0
   40.5760   79.2270   62.5430 C   0  0  0  0  0  2  0  0  0  0  0  0
   43.6720   86.4630   59.9370 C   0  0  0  0  0  0  0  0  0  0  0  0
   43.0810   86.5480   58.6550 C   0  0  0  0  0  0  0  0  0  0  0  0
   42.0170   85.7170   58.3370 C   0  0  0  0  0  0  0  0  0  0  0  0
   41.5920   84.8450   59.3060 N   0  0  0  0  0  0  0  0  0  0  0  0
   42.1720   84.7880   60.5120 C   0  0  0  0  0  0  0  0  0  0  0  0
   43.1980   85.5760   60.8460 N   0  0  0  0  0  0  0  0  0  0  0  0
   44.7370   87.3660   60.1130 N   0  0  0  0  0  0  0  0  0  0  0  0
   43.4170   87.2360   57.8910 H   0  0  0  0  0  0  0  0  0  0  0  0
   41.5390   85.7520   57.3660 H   0  0  0  0  0  0  0  0  0  0  0  0
   45.5420   86.8430   59.7470 H   0  0  0  0  0  0  0  0  0  0  0  0
   44.2190   88.1780   60.5450 H   0  0  0  0  0  0  0  0  0  0  0  0
  1  2  1  0  0  0  0
  2  7  1  0  0  0  0
  2  3  2  0  0  0  0
  3  8  1  0  0  0  0
  4  3  1  0  0  0  0
  5  4  2  0  0  0  0
  6  1  2  0  0  0  0
  6  5  1  0  0  0  0
  9  5  1  0  0  0  0
  9 17  1  0  0  0  0
 10 12  1  0  0  0  0
 10  9  1  0  0  0  0
 11 10  1  0  0  0  0
 12 14  1  0  0  0  0
 13 12  1  0  0  0  0
 14 16  1  0  0  0  0
 14 15  1  0  0  0  0
 16 17  1  0  0  0  0
 18 24  1  0  0  0  0
 18 23  1  0  0  0  0
 19 18  2  0  0  0  0
 20 19  1  0  0  0  0
 20 21  2  0  0  0  0
 21 22  1  0  0  0  0
 22 23  2  0  0  0  0
 22  1  1  0  0  0  0
 24 28  1  0  0  0  0
 25 19  1  0  0  0  0
 26 20  1  0  0  0  0
 27 24  1  0  0  0  0
M  END
>  <minimizedAffinity>
-5.37234974

>  <minimizedRMSD>
0.270891517

$$$$
