
 OpenBabel03212520473D

 28 30  0  0  0  0  0  0  0  0999 V2000
   41.6070   83.9010   61.4510 C   0  0  0  0  0  0  0  0  0  0  0  0
   41.0810   84.3210   62.6440 C   0  0  0  0  0  0  0  0  0  0  0  0
   40.6330   83.4230   63.6120 C   0  0  0  0  0  0  0  0  0  0  0  0
   40.7180   82.0910   63.3660 N   0  0  0  0  0  0  0  0  0  0  0  0
   41.2350   81.6860   62.1930 C   0  0  0  0  0  0  0  0  0  0  0  0
   41.6760   82.5660   61.2420 N   0  0  0  0  0  0  0  0  0  0  0  0
   41.0470   85.4030   62.7670 H   0  0  0  0  0  0  0  0  0  0  0  0
   40.2300   83.8230   64.5270 H   0  0  0  0  0  0  0  0  0  0  0  0
   41.3410   80.2920   61.9000 N   0  0  0  0  0  0  0  0  0  0  0  0
   40.2080   79.4980   61.5450 C   0  0  0  0  0  3  0  0  0  0  0  0
   39.7680   79.0360   62.4540 H   0  0  0  0  0  0  0  0  0  0  0  0
   40.4880   78.4750   60.4820 C   0  0  0  0  0  3  0  0  0  0  0  0
   39.6550   77.7420   60.4690 H   0  0  0  0  0  0  0  0  0  0  0  0
   41.7200   77.7600   60.6870 N   0  0  0  0  0  0  0  0  0  0  0  0
   42.3240   77.6670   59.8600 H   0  0  0  0  0  0  0  0  0  0  0  0
   42.3960   78.1400   61.9060 C   0  0  0  0  0  2  0  0  0  0  0  0
   42.6190   79.6300   61.9540 C   0  0  0  0  0  2  0  0  0  0  0  0
   43.6320   86.4000   59.7000 C   0  0  0  0  0  0  0  0  0  0  0  0
   42.9130   86.5470   58.4910 C   0  0  0  0  0  0  0  0  0  0  0  0
   41.7610   85.8010   58.2870 C   0  0  0  0  0  0  0  0  0  0  0  0
   41.3800   84.9500   59.2920 N   0  0  0  0  0  0  0  0  0  0  0  0
   42.0820   84.8340   60.4270 C   0  0  0  0  0  0  0  0  0  0  0  0
   43.1950   85.5390   60.6500 N   0  0  0  0  0  0  0  0  0  0  0  0
   44.7750   87.2190   59.7630 N   0  0  0  0  0  0  0  0  0  0  0  0
   43.2150   87.2180   57.6980 H   0  0  0  0  0  0  0  0  0  0  0  0
   41.1840   85.8850   57.3750 H   0  0  0  0  0  0  0  0  0  0  0  0
   45.4940   86.6430   59.3070 H   0  0  0  0  0  0  0  0  0  0  0  0
   44.3700   88.0610   60.2530 H   0  0  0  0  0  0  0  0  0  0  0  0
  1  2  1  0  0  0  0
  2  7  1  0  0  0  0
  2  3  2  0  0  0  0
  3  8  1  0  0  0  0
  4  3  1  0  0  0  0
  5  4  2  0  0  0  0
  6  1  2  0  0  0  0
  6  5  1  0  0  0  0
  9 17  1  0  0  0  0
  9  5  1  0  0  0  0
 10  9  1  0  0  0  0
 10 11  1  0  0  0  0
 12 14  1  0  0  0  0
 12 10  1  0  0  0  0
 13 12  1  0  0  0  0
 14 16  1  0  0  0  0
 15 14  1  0  0  0  0
 16 17  1  0  0  0  0
 18 24  1  0  0  0  0
 18 23  1  0  0  0  0
 19 18  2  0  0  0  0
 20 19  1  0  0  0  0
 20 21  2  0  0  0  0
 21 22  1  0  0  0  0
 22 23  2  0  0  0  0
 22  1  1  0  0  0  0
 24 28  1  0  0  0  0
 25 19  1  0  0  0  0
 26 20  1  0  0  0  0
 27 24  1  0  0  0  0
M  END
>  <minimizedAffinity>
-5.35986042

>  <minimizedRMSD>
0.152547553

$$$$
