
 OpenBabel03212520103D

 18 19  0  0  0  0  0  0  0  0999 V2000
   37.1190   74.9430   56.8450 C   0  0  0  0  0  0  0  0  0  0  0  0
   37.9850   75.7860   57.5500 C   0  0  0  0  0  0  0  0  0  0  0  0
   38.2570   77.0360   57.0040 C   0  0  0  0  0  0  0  0  0  0  0  0
   37.6840   77.3920   55.8270 N   0  0  0  0  0  0  0  0  0  0  0  0
   36.8440   76.5410   55.1710 C   0  0  0  0  0  0  0  0  0  0  0  0
   36.5630   75.3250   55.6740 N   0  0  0  0  0  0  0  0  0  0  0  0
   36.8720   73.9740   57.2090 H   0  0  0  0  0  0  0  0  0  0  0  0
   38.8910   77.7640   57.4340 H   0  0  0  0  0  0  0  0  0  0  0  0
   36.4220   76.8950   54.2310 H   0  0  0  0  0  0  0  0  0  0  0  0
   38.5730   75.4170   58.7640 N   0  0  0  0  0  0  0  0  0  0  0  0
   38.4880   74.1020   59.3700 C   0  0  0  0  0  3  0  0  0  0  0  0
   39.3680   73.4980   59.1540 H   0  0  0  0  0  0  0  0  0  0  0  0
   38.3030   74.3160   60.8660 C   0  0  0  0  0  3  0  0  0  0  0  0
   38.1150   73.3170   61.3560 H   0  0  0  0  0  0  0  0  0  0  0  0
   39.4890   74.9090   61.4260 N   0  0  0  0  0  0  0  0  0  0  0  0
   39.2920   75.6410   62.1440 H   0  0  0  0  0  0  0  0  0  0  0  0
   40.2940   75.5710   60.4220 C   0  0  0  0  0  2  0  0  0  0  0  0
   39.3480   76.3680   59.5340 C   0  0  0  0  0  2  0  0  0  0  0  0
  1  7  1  0  0  0  0
  1  2  1  0  0  0  0
  2 10  1  0  0  0  0
  3  8  1  0  0  0  0
  3  2  2  0  0  0  0
  4  3  1  0  0  0  0
  5  6  1  0  0  0  0
  5  4  2  0  0  0  0
  6  1  2  0  0  0  0
  9  5  1  0  0  0  0
 10 11  1  0  0  0  0
 10 18  1  0  0  0  0
 11 13  1  0  0  0  0
 12 11  1  0  0  0  0
 13 14  1  0  0  0  0
 13 15  1  0  0  0  0
 15 16  1  0  0  0  0
 17 15  1  0  0  0  0
 18 17  1  0  0  0  0
M  END
>  <minimizedAffinity>
-4.21755028

$$$$

 OpenBabel03212520103D

 18 19  0  0  0  0  0  0  0  0999 V2000
   37.1970   74.8480   56.9460 C   0  0  0  0  0  0  0  0  0  0  0  0
   38.0030   75.7470   57.6530 C   0  0  0  0  0  0  0  0  0  0  0  0
   38.2790   76.9730   57.0590 C   0  0  0  0  0  0  0  0  0  0  0  0
   37.7670   77.2550   55.8350 N   0  0  0  0  0  0  0  0  0  0  0  0
   36.9850   76.3510   55.1780 C   0  0  0  0  0  0  0  0  0  0  0  0
   36.7010   75.1560   55.7270 N   0  0  0  0  0  0  0  0  0  0  0  0
   36.9490   73.8920   57.3460 H   0  0  0  0  0  0  0  0  0  0  0  0
   38.8710   77.7370   57.4860 H   0  0  0  0  0  0  0  0  0  0  0  0
   36.6100   76.6460   54.1980 H   0  0  0  0  0  0  0  0  0  0  0  0
   38.5270   75.4540   58.9160 N   0  0  0  0  0  0  0  0  0  0  0  0
   39.3960   76.3250   59.6850 C   0  0  0  0  0  3  0  0  0  0  0  0
   38.8420   76.8980   60.4260 H   0  0  0  0  0  0  0  0  0  0  0  0
   40.4520   75.4390   60.3300 C   0  0  0  0  0  3  0  0  0  0  0  0
   41.2150   76.0960   60.8400 H   0  0  0  0  0  0  0  0  0  0  0  0
   39.8380   74.5720   61.3010 N   0  0  0  0  0  0  0  0  0  0  0  0
   40.2240   73.6020   61.3010 H   0  0  0  0  0  0  0  0  0  0  0  0
   38.4180   74.4150   61.0720 C   0  0  0  0  0  2  0  0  0  0  0  0
   38.2220   74.2010   59.5760 C   0  0  0  0  0  2  0  0  0  0  0  0
  1  7  1  0  0  0  0
  1  2  1  0  0  0  0
  2 10  1  0  0  0  0
  3  8  1  0  0  0  0
  3  2  2  0  0  0  0
  4  3  1  0  0  0  0
  5  6  1  0  0  0  0
  5  4  2  0  0  0  0
  6  1  2  0  0  0  0
  9  5  1  0  0  0  0
 10 18  1  0  0  0  0
 10 11  1  0  0  0  0
 11 13  1  0  0  0  0
 11 12  1  0  0  0  0
 13 14  1  0  0  0  0
 13 15  1  0  0  0  0
 15 16  1  0  0  0  0
 17 15  1  0  0  0  0
 18 17  1  0  0  0  0
M  END
>  <minimizedAffinity>
-4.142241

$$$$

 OpenBabel03212520103D

 18 19  0  0  0  0  0  0  0  0999 V2000
   43.1140   70.0550   61.4470 C   0  0  0  0  0  0  0  0  0  0  0  0
   42.3430   69.5000   62.4730 C   0  0  0  0  0  0  0  0  0  0  0  0
   41.6400   70.3710   63.2980 C   0  0  0  0  0  0  0  0  0  0  0  0
   41.7240   71.7090   63.0850 N   0  0  0  0  0  0  0  0  0  0  0  0
   42.4870   72.2100   62.0720 C   0  0  0  0  0  0  0  0  0  0  0  0
   43.1780   71.3920   61.2590 N   0  0  0  0  0  0  0  0  0  0  0  0
   43.6760   69.4420   60.7820 H   0  0  0  0  0  0  0  0  0  0  0  0
   41.0230   70.0810   64.1060 H   0  0  0  0  0  0  0  0  0  0  0  0
   42.5060   73.2940   61.9620 H   0  0  0  0  0  0  0  0  0  0  0  0
   42.2580   68.1200   62.6890 N   0  0  0  0  0  0  0  0  0  0  0  0
   43.3840   67.2410   62.9410 C   0  0  0  0  0  3  0  0  0  0  0  0
   43.5210   67.0520   64.0040 H   0  0  0  0  0  0  0  0  0  0  0  0
   43.1220   65.9550   62.1690 C   0  0  0  0  0  3  0  0  0  0  0  0
   44.0320   65.2930   62.2460 H   0  0  0  0  0  0  0  0  0  0  0  0
   41.9830   65.2730   62.7250 N   0  0  0  0  0  0  0  0  0  0  0  0
   41.3570   64.8470   62.0060 H   0  0  0  0  0  0  0  0  0  0  0  0
   41.1330   66.1620   63.4870 C   0  0  0  0  0  2  0  0  0  0  0  0
   40.9770   67.4440   62.6790 C   0  0  0  0  0  2  0  0  0  0  0  0
  1  2  1  0  0  0  0
  2 10  1  0  0  0  0
  2  3  2  0  0  0  0
  3  8  1  0  0  0  0
  4  3  1  0  0  0  0
  5  4  2  0  0  0  0
  6  1  2  0  0  0  0
  6  5  1  0  0  0  0
  7  1  1  0  0  0  0
  9  5  1  0  0  0  0
 10 11  1  0  0  0  0
 11 12  1  0  0  0  0
 13 14  1  0  0  0  0
 13 15  1  0  0  0  0
 13 11  1  0  0  0  0
 15 17  1  0  0  0  0
 16 15  1  0  0  0  0
 18 10  1  0  0  0  0
 18 17  1  0  0  0  0
M  END
>  <minimizedAffinity>
-4.14181948

$$$$

 OpenBabel03212520103D

 18 19  0  0  0  0  0  0  0  0999 V2000
   42.9530   75.0150   59.0250 C   0  0  0  0  0  0  0  0  0  0  0  0
   42.2430   74.2370   59.9470 C   0  0  0  0  0  0  0  0  0  0  0  0
   42.8760   73.1140   60.4670 C   0  0  0  0  0  0  0  0  0  0  0  0
   44.1380   72.8120   60.0720 N   0  0  0  0  0  0  0  0  0  0  0  0
   44.7960   73.5980   59.1710 C   0  0  0  0  0  0  0  0  0  0  0  0
   44.2100   74.6900   58.6500 N   0  0  0  0  0  0  0  0  0  0  0  0
   42.5240   75.8870   58.5900 H   0  0  0  0  0  0  0  0  0  0  0  0
   42.4520   72.4460   61.1680 H   0  0  0  0  0  0  0  0  0  0  0  0
   45.8070   73.2930   58.9010 H   0  0  0  0  0  0  0  0  0  0  0  0
   40.9420   74.5510   60.3530 N   0  0  0  0  0  0  0  0  0  0  0  0
   40.1780   75.6990   59.9030 C   0  0  0  0  0  3  0  0  0  0  0  0
   39.4960   75.4410   59.0960 H   0  0  0  0  0  0  0  0  0  0  0  0
   39.4360   76.2400   61.1180 C   0  0  0  0  0  3  0  0  0  0  0  0
   38.9240   77.2040   60.8310 H   0  0  0  0  0  0  0  0  0  0  0  0
   38.4520   75.2850   61.5560 N   0  0  0  0  0  0  0  0  0  0  0  0
   38.3830   75.2010   62.5940 H   0  0  0  0  0  0  0  0  0  0  0  0
   38.7440   73.9470   61.0870 C   0  0  0  0  0  2  0  0  0  0  0  0
   40.2340   73.7080   61.2940 C   0  0  0  0  0  2  0  0  0  0  0  0
  1  2  1  0  0  0  0
  2 10  1  0  0  0  0
  2  3  2  0  0  0  0
  3  8  1  0  0  0  0
  4  3  1  0  0  0  0
  5  4  2  0  0  0  0
  6  1  2  0  0  0  0
  6  5  1  0  0  0  0
  7  1  1  0  0  0  0
  9  5  1  0  0  0  0
 10 18  1  0  0  0  0
 11 10  1  0  0  0  0
 11 13  1  0  0  0  0
 12 11  1  0  0  0  0
 13 15  1  0  0  0  0
 14 13  1  0  0  0  0
 15 16  1  0  0  0  0
 17 18  1  0  0  0  0
 17 15  1  0  0  0  0
M  END
>  <minimizedAffinity>
-4.06154108

$$$$

 OpenBabel03212520103D

 18 19  0  0  0  0  0  0  0  0999 V2000
   43.1460   73.4240   60.4910 C   0  0  0  0  0  0  0  0  0  0  0  0
   42.3230   74.3470   59.8350 C   0  0  0  0  0  0  0  0  0  0  0  0
   42.8410   74.9970   58.7210 C   0  0  0  0  0  0  0  0  0  0  0  0
   44.1050   74.7220   58.3110 N   0  0  0  0  0  0  0  0  0  0  0  0
   44.8750   73.8140   58.9780 C   0  0  0  0  0  0  0  0  0  0  0  0
   44.4010   73.1700   60.0590 N   0  0  0  0  0  0  0  0  0  0  0  0
   42.8080   72.8940   61.3500 H   0  0  0  0  0  0  0  0  0  0  0  0
   42.3250   75.7130   58.1390 H   0  0  0  0  0  0  0  0  0  0  0  0
   45.8790   73.6450   58.5920 H   0  0  0  0  0  0  0  0  0  0  0  0
   41.0200   74.6280   60.2590 N   0  0  0  0  0  0  0  0  0  0  0  0
   40.2440   75.7880   59.8660 C   0  0  0  0  0  3  0  0  0  0  0  0
   39.5610   75.5620   59.0490 H   0  0  0  0  0  0  0  0  0  0  0  0
   39.4990   76.2630   61.1060 C   0  0  0  0  0  3  0  0  0  0  0  0
   38.9760   77.2340   60.8670 H   0  0  0  0  0  0  0  0  0  0  0  0
   38.5270   75.2780   61.5010 N   0  0  0  0  0  0  0  0  0  0  0  0
   38.4610   75.1450   62.5340 H   0  0  0  0  0  0  0  0  0  0  0  0
   38.8300   73.9680   60.9680 C   0  0  0  0  0  2  0  0  0  0  0  0
   40.3230   73.7340   61.1610 C   0  0  0  0  0  2  0  0  0  0  0  0
  1  7  1  0  0  0  0
  2 10  1  0  0  0  0
  2  1  2  0  0  0  0
  3  2  1  0  0  0  0
  4  3  2  0  0  0  0
  4  5  1  0  0  0  0
  5  6  2  0  0  0  0
  6  1  1  0  0  0  0
  8  3  1  0  0  0  0
  9  5  1  0  0  0  0
 10 18  1  0  0  0  0
 11 10  1  0  0  0  0
 11 13  1  0  0  0  0
 12 11  1  0  0  0  0
 13 15  1  0  0  0  0
 14 13  1  0  0  0  0
 15 16  1  0  0  0  0
 17 18  1  0  0  0  0
 17 15  1  0  0  0  0
M  END
>  <minimizedAffinity>
-4.05658627

$$$$

 OpenBabel03212520103D

 18 19  0  0  0  0  0  0  0  0999 V2000
   39.2020   76.5310   58.9150 C   0  0  0  0  0  0  0  0  0  0  0  0
   38.3190   75.6660   58.2600 C   0  0  0  0  0  0  0  0  0  0  0  0
   38.0610   74.4350   58.8540 C   0  0  0  0  0  0  0  0  0  0  0  0
   38.6620   74.1180   60.0280 N   0  0  0  0  0  0  0  0  0  0  0  0
   39.5160   74.9910   60.6360 C   0  0  0  0  0  0  0  0  0  0  0  0
   39.7860   76.1880   60.0850 N   0  0  0  0  0  0  0  0  0  0  0  0
   39.4420   77.4870   58.5120 H   0  0  0  0  0  0  0  0  0  0  0  0
   37.4160   73.6940   58.4630 H   0  0  0  0  0  0  0  0  0  0  0  0
   39.9620   74.6680   61.5760 H   0  0  0  0  0  0  0  0  0  0  0  0
   37.7000   75.9960   57.0500 N   0  0  0  0  0  0  0  0  0  0  0  0
   36.7720   75.1480   56.3260 C   0  0  0  0  0  3  0  0  0  0  0  0
   35.7360   75.4130   56.5320 H   0  0  0  0  0  0  0  0  0  0  0  0
   37.1060   75.2890   54.8470 C   0  0  0  0  0  3  0  0  0  0  0  0
   36.4810   74.5540   54.2620 H   0  0  0  0  0  0  0  0  0  0  0  0
   36.8150   76.6270   54.4040 N   0  0  0  0  0  0  0  0  0  0  0  0
   37.5250   77.0140   53.7450 H   0  0  0  0  0  0  0  0  0  0  0  0
   36.7660   77.5670   55.5030 C   0  0  0  0  0  2  0  0  0  0  0  0
   37.9550   77.2690   56.4080 C   0  0  0  0  0  2  0  0  0  0  0  0
  1  6  1  0  0  0  0
  2  3  1  0  0  0  0
  2  1  2  0  0  0  0
  3  4  2  0  0  0  0
  4  5  1  0  0  0  0
  5  9  1  0  0  0  0
  6  5  2  0  0  0  0
  7  1  1  0  0  0  0
  8  3  1  0  0  0  0
 10  2  1  0  0  0  0
 11 12  1  0  0  0  0
 11 10  1  0  0  0  0
 13 11  1  0  0  0  0
 14 13  1  0  0  0  0
 15 13  1  0  0  0  0
 15 17  1  0  0  0  0
 16 15  1  0  0  0  0
 17 18  1  0  0  0  0
 18 10  1  0  0  0  0
M  END
>  <minimizedAffinity>
-3.97652626

$$$$

 OpenBabel03212520103D

 18 19  0  0  0  0  0  0  0  0999 V2000
   42.1540   73.3880   60.6260 C   0  0  0  0  0  0  0  0  0  0  0  0
   40.7940   73.5040   60.9300 C   0  0  0  0  0  0  0  0  0  0  0  0
   40.3000   72.7420   61.9820 C   0  0  0  0  0  0  0  0  0  0  0  0
   41.1370   71.9230   62.6680 N   0  0  0  0  0  0  0  0  0  0  0  0
   42.4580   71.8390   62.3400 C   0  0  0  0  0  0  0  0  0  0  0  0
   42.9650   72.5640   61.3260 N   0  0  0  0  0  0  0  0  0  0  0  0
   42.5930   73.9450   59.8310 H   0  0  0  0  0  0  0  0  0  0  0  0
   39.2950   72.7380   62.3130 H   0  0  0  0  0  0  0  0  0  0  0  0
   43.0700   71.1610   62.9340 H   0  0  0  0  0  0  0  0  0  0  0  0
   39.9330   74.3500   60.2230 N   0  0  0  0  0  0  0  0  0  0  0  0
   38.4890   74.2260   60.1760 C   0  0  0  0  0  3  0  0  0  0  0  0
   38.0010   74.8910   60.8860 H   0  0  0  0  0  0  0  0  0  0  0  0
   38.0660   74.5230   58.7440 C   0  0  0  0  0  3  0  0  0  0  0  0
   36.9600   74.3210   58.6420 H   0  0  0  0  0  0  0  0  0  0  0  0
   38.3330   75.9020   58.4300 N   0  0  0  0  0  0  0  0  0  0  0  0
   38.7050   76.0480   57.4660 H   0  0  0  0  0  0  0  0  0  0  0  0
   39.3250   76.4790   59.3110 C   0  0  0  0  0  2  0  0  0  0  0  0
   40.4510   75.4620   59.4540 C   0  0  0  0  0  2  0  0  0  0  0  0
  1  2  2  0  0  0  0
  1  6  1  0  0  0  0
  2  3  1  0  0  0  0
  3  8  1  0  0  0  0
  3  4  2  0  0  0  0
  5  4  1  0  0  0  0
  5  9  1  0  0  0  0
  6  5  2  0  0  0  0
  7  1  1  0  0  0  0
 10  2  1  0  0  0  0
 11 10  1  0  0  0  0
 11 12  1  0  0  0  0
 13 11  1  0  0  0  0
 14 13  1  0  0  0  0
 15 13  1  0  0  0  0
 15 17  1  0  0  0  0
 16 15  1  0  0  0  0
 17 18  1  0  0  0  0
 18 10  1  0  0  0  0
M  END
>  <minimizedAffinity>
-3.96190071

$$$$

 OpenBabel03212520103D

 18 19  0  0  0  0  0  0  0  0999 V2000
   42.1820   73.5150   60.4820 C   0  0  0  0  0  0  0  0  0  0  0  0
   40.7930   73.5940   60.6230 C   0  0  0  0  0  0  0  0  0  0  0  0
   40.2130   72.9270   61.6970 C   0  0  0  0  0  0  0  0  0  0  0  0
   41.0000   72.2340   62.5580 N   0  0  0  0  0  0  0  0  0  0  0  0
   42.3520   72.1820   62.3860 C   0  0  0  0  0  0  0  0  0  0  0  0
   42.9410   72.8160   61.3560 N   0  0  0  0  0  0  0  0  0  0  0  0
   42.6860   74.0020   59.6800 H   0  0  0  0  0  0  0  0  0  0  0  0
   39.1790   72.9080   61.9160 H   0  0  0  0  0  0  0  0  0  0  0  0
   42.9180   71.6050   63.1160 H   0  0  0  0  0  0  0  0  0  0  0  0
   39.9850   74.3110   59.7350 N   0  0  0  0  0  0  0  0  0  0  0  0
   40.4530   75.3240   58.8080 C   0  0  0  0  0  3  0  0  0  0  0  0
   40.6030   74.9210   57.8080 H   0  0  0  0  0  0  0  0  0  0  0  0
   39.4200   76.4420   58.8170 C   0  0  0  0  0  3  0  0  0  0  0  0
   39.8090   77.3010   58.1970 H   0  0  0  0  0  0  0  0  0  0  0  0
   38.1810   75.9690   58.2580 N   0  0  0  0  0  0  0  0  0  0  0  0
   37.3350   76.3160   58.7610 H   0  0  0  0  0  0  0  0  0  0  0  0
   38.0800   74.5260   58.2990 C   0  0  0  0  0  2  0  0  0  0  0  0
   38.5570   74.0770   59.6740 C   0  0  0  0  0  2  0  0  0  0  0  0
  1  2  2  0  0  0  0
  1  6  1  0  0  0  0
  2  3  1  0  0  0  0
  3  8  1  0  0  0  0
  3  4  2  0  0  0  0
  5  4  1  0  0  0  0
  5  9  1  0  0  0  0
  6  5  2  0  0  0  0
  7  1  1  0  0  0  0
 10  2  1  0  0  0  0
 11 13  1  0  0  0  0
 11 10  1  0  0  0  0
 12 11  1  0  0  0  0
 14 13  1  0  0  0  0
 15 17  1  0  0  0  0
 15 16  1  0  0  0  0
 15 13  1  0  0  0  0
 17 18  1  0  0  0  0
 18 10  1  0  0  0  0
M  END
>  <minimizedAffinity>
-3.93548417

$$$$

 OpenBabel03212520103D

 18 19  0  0  0  0  0  0  0  0999 V2000
   42.1640   73.4280   58.3920 C   0  0  0  0  0  0  0  0  0  0  0  0
   42.0580   73.6710   59.7660 C   0  0  0  0  0  0  0  0  0  0  0  0
   43.1410   73.3310   60.5680 C   0  0  0  0  0  0  0  0  0  0  0  0
   44.2480   72.7850   60.0040 N   0  0  0  0  0  0  0  0  0  0  0  0
   44.3120   72.5650   58.6590 C   0  0  0  0  0  0  0  0  0  0  0  0
   43.2790   72.8820   57.8580 N   0  0  0  0  0  0  0  0  0  0  0  0
   41.3680   73.6650   57.7250 H   0  0  0  0  0  0  0  0  0  0  0  0
   43.1890   73.4630   61.6160 H   0  0  0  0  0  0  0  0  0  0  0  0
   45.2310   72.1230   58.2770 H   0  0  0  0  0  0  0  0  0  0  0  0
   40.9170   74.2350   60.3450 N   0  0  0  0  0  0  0  0  0  0  0  0
   40.1200   73.6260   61.3930 C   0  0  0  0  0  3  0  0  0  0  0  0
   40.3880   74.0040   62.3780 H   0  0  0  0  0  0  0  0  0  0  0  0
   38.6610   73.9050   61.0590 C   0  0  0  0  0  3  0  0  0  0  0  0
   38.0070   73.3450   61.7890 H   0  0  0  0  0  0  0  0  0  0  0  0
   38.3960   75.3160   61.1610 N   0  0  0  0  0  0  0  0  0  0  0  0
   37.7700   75.6800   60.4100 H   0  0  0  0  0  0  0  0  0  0  0  0
   39.6040   76.1060   61.0630 C   0  0  0  0  0  2  0  0  0  0  0  0
   40.4310   75.5310   59.9190 C   0  0  0  0  0  2  0  0  0  0  0  0
  1  2  1  0  0  0  0
  2 10  1  0  0  0  0
  2  3  2  0  0  0  0
  3  8  1  0  0  0  0
  4  3  1  0  0  0  0
  5  4  2  0  0  0  0
  6  1  2  0  0  0  0
  6  5  1  0  0  0  0
  7  1  1  0  0  0  0
  9  5  1  0  0  0  0
 10 11  1  0  0  0  0
 11 12  1  0  0  0  0
 13 15  1  0  0  0  0
 13 11  1  0  0  0  0
 13 14  1  0  0  0  0
 16 15  1  0  0  0  0
 17 15  1  0  0  0  0
 18 10  1  0  0  0  0
 18 17  1  0  0  0  0
M  END
>  <minimizedAffinity>
-3.76700354

$$$$
