
 OpenBabel03212520073D

 18 19  0  0  0  0  0  0  0  0999 V2000
   40.0740   81.9720   60.7230 C   0  0  0  0  0  0  0  0  0  0  0  0
   40.1570   82.8660   59.6490 C   0  0  0  0  0  0  0  0  0  0  0  0
   39.5830   84.1220   59.8080 C   0  0  0  0  0  0  0  0  0  0  0  0
   38.9710   84.4360   60.9780 N   0  0  0  0  0  0  0  0  0  0  0  0
   38.9120   83.5360   62.0010 C   0  0  0  0  0  0  0  0  0  0  0  0
   39.4580   82.3130   61.8770 N   0  0  0  0  0  0  0  0  0  0  0  0
   40.4920   80.9940   60.6630 H   0  0  0  0  0  0  0  0  0  0  0  0
   39.5770   84.8860   59.0780 H   0  0  0  0  0  0  0  0  0  0  0  0
   38.4050   83.8580   62.9100 H   0  0  0  0  0  0  0  0  0  0  0  0
   40.7890   82.5390   58.4450 N   0  0  0  0  0  0  0  0  0  0  0  0
   42.0300   83.1150   57.9680 C   0  0  0  0  0  3  0  0  0  0  0  0
   42.8860   82.4800   58.1910 H   0  0  0  0  0  0  0  0  0  0  0  0
   41.8710   83.3370   56.4710 C   0  0  0  0  0  3  0  0  0  0  0  0
   42.7740   83.8940   56.0860 H   0  0  0  0  0  0  0  0  0  0  0  0
   41.7640   82.0690   55.7960 N   0  0  0  0  0  0  0  0  0  0  0  0
   41.0590   82.0630   55.0250 H   0  0  0  0  0  0  0  0  0  0  0  0
   41.3550   81.0100   56.6920 C   0  0  0  0  0  2  0  0  0  0  0  0
   40.2190   81.5520   57.5500 C   0  0  0  0  0  2  0  0  0  0  0  0
  1  6  1  0  0  0  0
  2  3  1  0  0  0  0
  2  1  2  0  0  0  0
  3  4  2  0  0  0  0
  4  5  1  0  0  0  0
  5  9  1  0  0  0  0
  6  5  2  0  0  0  0
  7  1  1  0  0  0  0
  8  3  1  0  0  0  0
 10  2  1  0  0  0  0
 11 12  1  0  0  0  0
 11 10  1  0  0  0  0
 13 11  1  0  0  0  0
 14 13  1  0  0  0  0
 15 13  1  0  0  0  0
 15 17  1  0  0  0  0
 16 15  1  0  0  0  0
 17 18  1  0  0  0  0
 18 10  1  0  0  0  0
M  END
>  <minimizedAffinity>
-4.03013611

>  <minimizedRMSD>
0.288639694

$$$$
