
 OpenBabel03212520063D

 41 45  0  0  0  0  0  0  0  0999 V2000
   43.5300   73.3210   58.1180 C   0  0  0  0  0  0  0  0  0  0  0  0
   43.4750   72.4180   59.1980 C   0  0  0  0  0  0  0  0  0  0  0  0
   42.2500   72.2340   59.7970 C   0  0  0  0  0  0  0  0  0  0  0  0
   41.1430   72.9080   59.3460 N   0  0  0  0  0  0  0  0  0  0  0  0
   41.2440   73.7700   58.2970 C   0  0  0  0  0  0  0  0  0  0  0  0
   42.4410   73.9820   57.6790 N   0  0  0  0  0  0  0  0  0  0  0  0
   44.4120   73.5700   57.5550 H   0  0  0  0  0  0  0  0  0  0  0  0
   44.4340   71.9900   59.3450 H   0  0  0  0  0  0  0  0  0  0  0  0
   39.5700   75.5370   58.5320 C   0  0  0  0  0  0  0  0  0  0  0  0
   40.0610   74.4570   57.7970 C   0  0  0  0  0  0  0  0  0  0  0  0
   39.4490   74.0530   56.6090 C   0  0  0  0  0  0  0  0  0  0  0  0
   38.3340   74.7110   56.1180 C   0  0  0  0  0  0  0  0  0  0  0  0
   37.5250   74.5990   55.0560 N   0  0  0  0  0  0  0  0  0  0  0  0
   36.5650   75.5500   55.0940 C   0  0  0  0  0  0  0  0  0  0  0  0
   36.8180   76.2470   56.2210 N   0  0  0  0  0  0  0  0  0  0  0  0
   37.8910   75.7590   56.8690 C   0  0  0  0  0  0  0  0  0  0  0  0
   38.4440   76.2150   58.0520 C   0  0  0  0  0  0  0  0  0  0  0  0
   40.0230   75.8740   59.4560 H   0  0  0  0  0  0  0  0  0  0  0  0
   39.8390   73.2080   56.0430 H   0  0  0  0  0  0  0  0  0  0  0  0
   37.6760   73.8580   54.3380 H   0  0  0  0  0  0  0  0  0  0  0  0
   35.8020   75.6520   54.3390 H   0  0  0  0  0  0  0  0  0  0  0  0
   38.0150   77.0590   58.5720 H   0  0  0  0  0  0  0  0  0  0  0  0
   42.3540   69.3280   59.1470 Cl  0  0  0  0  0  0  0  0  0  0  0  0
   42.1250   69.9690   60.7740 C   0  0  0  0  0  0  0  0  0  0  0  0
   42.1060   71.3340   60.9180 C   0  0  0  0  0  0  0  0  0  0  0  0
   41.9380   71.7580   62.2350 C   0  0  0  0  0  0  0  0  0  0  0  0
   41.8010   70.9070   63.3100 C   0  0  0  0  0  0  0  0  0  0  0  0
   41.8300   69.5350   63.0880 C   0  0  0  0  0  0  0  0  0  0  0  0
   41.6590   68.4280   64.4240 Cl  0  0  0  0  0  0  0  0  0  0  0  0
   41.9940   69.0710   61.8040 C   0  0  0  0  0  0  0  0  0  0  0  0
   41.9110   72.8180   62.4410 H   0  0  0  0  0  0  0  0  0  0  0  0
   41.6740   71.3050   64.3020 H   0  0  0  0  0  0  0  0  0  0  0  0
   42.0290   67.6760   61.5300 N   0  0  0  0  0  0  0  0  0  0  0  0
   43.3630   67.1300   61.6330 C   0  0  0  0  0  3  0  0  0  0  0  0
   43.9130   67.4530   62.5390 H   0  0  0  0  0  0  0  0  0  0  0  0
   43.1940   65.6110   61.7660 C   0  0  0  0  0  3  0  0  0  0  0  0
   44.0970   65.1200   62.1470 H   0  0  0  0  0  0  0  0  0  0  0  0
   42.1130   65.3250   62.6650 N   0  0  0  0  0  0  0  0  0  0  0  0
   42.3240   65.6340   63.6200 H   0  0  0  0  0  0  0  0  0  0  0  0
   40.8180   65.7310   62.2060 C   0  0  0  0  0  2  0  0  0  0  0  0
   40.9140   66.8160   61.1800 C   0  0  0  0  0  2  0  0  0  0  0  0
  1  2  1  0  0  0  0
  2  8  1  0  0  0  0
  2  3  2  0  0  0  0
  3 25  1  0  0  0  0
  4  3  1  0  0  0  0
  5  4  2  0  0  0  0
  6  1  2  0  0  0  0
  6  5  1  0  0  0  0
  7  1  1  0  0  0  0
  9 18  1  0  0  0  0
 10  5  1  0  0  0  0
 10  9  2  0  0  0  0
 11 10  1  0  0  0  0
 12 11  2  0  0  0  0
 12 16  1  0  0  0  0
 13 14  1  0  0  0  0
 13 12  1  0  0  0  0
 14 15  2  0  0  0  0
 15 16  1  0  0  0  0
 16 17  2  0  0  0  0
 17  9  1  0  0  0  0
 17 22  1  0  0  0  0
 19 11  1  0  0  0  0
 20 13  1  0  0  0  0
 21 14  1  0  0  0  0
 23 24  1  0  0  0  0
 24 25  2  0  0  0  0
 24 30  1  0  0  0  0
 25 26  1  0  0  0  0
 26 31  1  0  0  0  0
 26 27  2  0  0  0  0
 27 32  1  0  0  0  0
 28 27  1  0  0  0  0
 28 29  1  0  0  0  0
 30 28  2  0  0  0  0
 33 34  1  0  0  0  0
 33 30  1  0  0  0  0
 34 36  1  0  0  0  0
 34 35  1  0  0  0  0
 36 37  1  0  0  0  0
 36 38  1  0  0  0  0
 38 39  1  0  0  0  0
 40 38  1  0  0  0  0
 41 33  1  0  0  0  0
 41 40  1  0  0  0  0
M  END
>  <minimizedAffinity>
-7.44190454

$$$$

 OpenBabel03212520063D

 41 45  0  0  0  0  0  0  0  0999 V2000
   44.9550   73.3900   58.8660 C   0  0  0  0  0  0  0  0  0  0  0  0
   44.1260   74.5000   58.6100 C   0  0  0  0  0  0  0  0  0  0  0  0
   42.8400   74.4450   59.0950 C   0  0  0  0  0  0  0  0  0  0  0  0
   42.4050   73.3490   59.7980 N   0  0  0  0  0  0  0  0  0  0  0  0
   43.2440   72.3000   60.0230 C   0  0  0  0  0  0  0  0  0  0  0  0
   44.5240   72.3160   59.5550 N   0  0  0  0  0  0  0  0  0  0  0  0
   45.9790   73.2880   58.5490 H   0  0  0  0  0  0  0  0  0  0  0  0
   44.6810   75.2380   58.0870 H   0  0  0  0  0  0  0  0  0  0  0  0
   42.7940   69.9020   60.1850 C   0  0  0  0  0  0  0  0  0  0  0  0
   42.7910   71.1550   60.8000 C   0  0  0  0  0  0  0  0  0  0  0  0
   42.3820   71.3070   62.1260 C   0  0  0  0  0  0  0  0  0  0  0  0
   41.9660   70.2210   62.8770 C   0  0  0  0  0  0  0  0  0  0  0  0
   41.5250   70.0100   64.1250 N   0  0  0  0  0  0  0  0  0  0  0  0
   41.2580   68.6970   64.3130 C   0  0  0  0  0  0  0  0  0  0  0  0
   41.5520   68.1160   63.1320 N   0  0  0  0  0  0  0  0  0  0  0  0
   41.9870   69.0190   62.2340 C   0  0  0  0  0  0  0  0  0  0  0  0
   42.3770   68.7920   60.9270 C   0  0  0  0  0  0  0  0  0  0  0  0
   43.1060   69.7520   59.1590 H   0  0  0  0  0  0  0  0  0  0  0  0
   42.3820   72.2900   62.5970 H   0  0  0  0  0  0  0  0  0  0  0  0
   41.4280   70.7950   64.8030 H   0  0  0  0  0  0  0  0  0  0  0  0
   40.8920   68.2960   65.2430 H   0  0  0  0  0  0  0  0  0  0  0  0
   42.3570   67.7950   60.5110 H   0  0  0  0  0  0  0  0  0  0  0  0
   40.7500   73.9650   57.0280 Cl  0  0  0  0  0  0  0  0  0  0  0  0
   40.9080   75.4640   57.9430 C   0  0  0  0  0  0  0  0  0  0  0  0
   41.9190   75.5350   58.8690 C   0  0  0  0  0  0  0  0  0  0  0  0
   41.9660   76.7440   59.5590 C   0  0  0  0  0  0  0  0  0  0  0  0
   41.0910   77.7890   59.3500 C   0  0  0  0  0  0  0  0  0  0  0  0
   40.0920   77.6460   58.3940 C   0  0  0  0  0  0  0  0  0  0  0  0
   38.9680   78.9460   58.1030 Cl  0  0  0  0  0  0  0  0  0  0  0  0
   40.0080   76.4690   57.6890 C   0  0  0  0  0  0  0  0  0  0  0  0
   42.7310   76.8860   60.3090 H   0  0  0  0  0  0  0  0  0  0  0  0
   41.1870   78.6960   59.9210 H   0  0  0  0  0  0  0  0  0  0  0  0
   39.0020   76.2790   56.7020 N   0  0  0  0  0  0  0  0  0  0  0  0
   37.8490   75.5780   57.2200 C   0  0  0  0  0  3  0  0  0  0  0  0
   37.4930   75.9580   58.1980 H   0  0  0  0  0  0  0  0  0  0  0  0
   36.7080   75.8400   56.2290 C   0  0  0  0  0  3  0  0  0  0  0  0
   35.7230   75.6180   56.6550 H   0  0  0  0  0  0  0  0  0  0  0  0
   36.7250   77.2180   55.8300 N   0  0  0  0  0  0  0  0  0  0  0  0
   36.5160   77.8410   56.6170 H   0  0  0  0  0  0  0  0  0  0  0  0
   37.8750   77.6170   55.0740 C   0  0  0  0  0  2  0  0  0  0  0  0
   39.0350   76.7020   55.3140 C   0  0  0  0  0  2  0  0  0  0  0  0
  1  6  1  0  0  0  0
  2  1  2  0  0  0  0
  2  3  1  0  0  0  0
  3  4  2  0  0  0  0
  4  5  1  0  0  0  0
  5 10  1  0  0  0  0
  6  5  2  0  0  0  0
  7  1  1  0  0  0  0
  8  2  1  0  0  0  0
  9 10  2  0  0  0  0
  9 17  1  0  0  0  0
 10 11  1  0  0  0  0
 11 19  1  0  0  0  0
 11 12  2  0  0  0  0
 12 13  1  0  0  0  0
 13 14  1  0  0  0  0
 13 20  1  0  0  0  0
 14 21  1  0  0  0  0
 15 14  2  0  0  0  0
 16 12  1  0  0  0  0
 16 15  1  0  0  0  0
 17 16  2  0  0  0  0
 18  9  1  0  0  0  0
 22 17  1  0  0  0  0
 23 24  1  0  0  0  0
 24 25  1  0  0  0  0
 25  3  1  0  0  0  0
 25 26  2  0  0  0  0
 26 31  1  0  0  0  0
 27 26  1  0  0  0  0
 27 32  1  0  0  0  0
 28 27  2  0  0  0  0
 29 28  1  0  0  0  0
 30 24  2  0  0  0  0
 30 28  1  0  0  0  0
 33 34  1  0  0  0  0
 33 30  1  0  0  0  0
 34 35  1  0  0  0  0
 36 37  1  0  0  0  0
 36 34  1  0  0  0  0
 38 36  1  0  0  0  0
 38 39  1  0  0  0  0
 40 41  1  0  0  0  0
 40 38  1  0  0  0  0
 41 33  1  0  0  0  0
M  END
>  <minimizedAffinity>
-7.43390656

$$$$

 OpenBabel03212520063D

 41 45  0  0  0  0  0  0  0  0999 V2000
   44.7160   73.5670   59.1800 C   0  0  0  0  0  0  0  0  0  0  0  0
   43.8790   74.6400   58.8170 C   0  0  0  0  0  0  0  0  0  0  0  0
   42.5790   74.5980   59.2650 C   0  0  0  0  0  0  0  0  0  0  0  0
   42.1380   73.5490   60.0320 N   0  0  0  0  0  0  0  0  0  0  0  0
   42.9850   72.5350   60.3600 C   0  0  0  0  0  0  0  0  0  0  0  0
   44.2800   72.5390   59.9330 N   0  0  0  0  0  0  0  0  0  0  0  0
   45.7510   73.4590   58.9030 H   0  0  0  0  0  0  0  0  0  0  0  0
   44.4390   75.3470   58.2590 H   0  0  0  0  0  0  0  0  0  0  0  0
   42.1880   71.7330   62.5280 C   0  0  0  0  0  0  0  0  0  0  0  0
   42.5250   71.4420   61.2060 C   0  0  0  0  0  0  0  0  0  0  0  0
   42.4100   70.1460   60.6990 C   0  0  0  0  0  0  0  0  0  0  0  0
   41.9570   69.1050   61.4900 C   0  0  0  0  0  0  0  0  0  0  0  0
   41.7320   67.7920   61.3410 N   0  0  0  0  0  0  0  0  0  0  0  0
   41.2730   67.2590   62.4960 C   0  0  0  0  0  0  0  0  0  0  0  0
   41.2280   68.2960   63.3570 N   0  0  0  0  0  0  0  0  0  0  0  0
   41.6390   69.4370   62.7740 C   0  0  0  0  0  0  0  0  0  0  0  0
   41.7270   70.6940   63.3440 C   0  0  0  0  0  0  0  0  0  0  0  0
   42.2650   72.7270   62.9490 H   0  0  0  0  0  0  0  0  0  0  0  0
   42.6760   69.9290   59.6650 H   0  0  0  0  0  0  0  0  0  0  0  0
   41.9060   67.3150   60.4300 H   0  0  0  0  0  0  0  0  0  0  0  0
   41.0240   66.2170   62.6080 H   0  0  0  0  0  0  0  0  0  0  0  0
   41.4490   70.8520   64.3760 H   0  0  0  0  0  0  0  0  0  0  0  0
   40.6540   73.9790   57.0770 Cl  0  0  0  0  0  0  0  0  0  0  0  0
   40.7090   75.5170   57.9390 C   0  0  0  0  0  0  0  0  0  0  0  0
   41.6490   75.6520   58.9290 C   0  0  0  0  0  0  0  0  0  0  0  0
   41.6170   76.8890   59.5710 C   0  0  0  0  0  0  0  0  0  0  0  0
   40.7330   77.8990   59.2590 C   0  0  0  0  0  0  0  0  0  0  0  0
   39.8080   77.6910   58.2420 C   0  0  0  0  0  0  0  0  0  0  0  0
   38.6750   78.9470   57.8190 Cl  0  0  0  0  0  0  0  0  0  0  0  0
   39.8040   76.4850   57.5810 C   0  0  0  0  0  0  0  0  0  0  0  0
   42.3230   77.0820   60.3660 H   0  0  0  0  0  0  0  0  0  0  0  0
   40.7650   78.8300   59.7970 H   0  0  0  0  0  0  0  0  0  0  0  0
   38.8760   76.2290   56.5350 N   0  0  0  0  0  0  0  0  0  0  0  0
   37.6520   75.6330   57.0200 C   0  0  0  0  0  3  0  0  0  0  0  0
   37.2340   76.1300   57.9180 H   0  0  0  0  0  0  0  0  0  0  0  0
   36.6110   75.8300   55.9100 C   0  0  0  0  0  3  0  0  0  0  0  0
   35.5840   75.6940   56.2690 H   0  0  0  0  0  0  0  0  0  0  0  0
   36.7280   77.1560   55.3730 N   0  0  0  0  0  0  0  0  0  0  0  0
   36.4840   77.8680   56.0690 H   0  0  0  0  0  0  0  0  0  0  0  0
   37.9540   77.4250   54.6840 C   0  0  0  0  0  2  0  0  0  0  0  0
   39.0450   76.4970   55.1190 C   0  0  0  0  0  2  0  0  0  0  0  0
  1  6  1  0  0  0  0
  2  1  2  0  0  0  0
  2  3  1  0  0  0  0
  3  4  2  0  0  0  0
  4  5  1  0  0  0  0
  5 10  1  0  0  0  0
  6  5  2  0  0  0  0
  7  1  1  0  0  0  0
  8  2  1  0  0  0  0
  9 18  1  0  0  0  0
  9 17  1  0  0  0  0
 10  9  2  0  0  0  0
 11 10  1  0  0  0  0
 11 12  2  0  0  0  0
 12 16  1  0  0  0  0
 13 12  1  0  0  0  0
 13 14  1  0  0  0  0
 14 21  1  0  0  0  0
 14 15  2  0  0  0  0
 16 17  2  0  0  0  0
 16 15  1  0  0  0  0
 17 22  1  0  0  0  0
 19 11  1  0  0  0  0
 20 13  1  0  0  0  0
 23 24  1  0  0  0  0
 24 25  1  0  0  0  0
 25  3  1  0  0  0  0
 25 26  2  0  0  0  0
 26 31  1  0  0  0  0
 27 26  1  0  0  0  0
 27 32  1  0  0  0  0
 28 27  2  0  0  0  0
 29 28  1  0  0  0  0
 30 24  2  0  0  0  0
 30 28  1  0  0  0  0
 33 34  1  0  0  0  0
 33 30  1  0  0  0  0
 34 35  1  0  0  0  0
 36 37  1  0  0  0  0
 36 34  1  0  0  0  0
 38 36  1  0  0  0  0
 38 39  1  0  0  0  0
 40 41  1  0  0  0  0
 40 38  1  0  0  0  0
 41 33  1  0  0  0  0
M  END
>  <minimizedAffinity>
-7.25278664

$$$$

 OpenBabel03212520063D

 41 45  0  0  0  0  0  0  0  0999 V2000
   41.7000   72.2410   56.1330 C   0  0  0  0  0  0  0  0  0  0  0  0
   41.7240   70.9830   56.7650 C   0  0  0  0  0  0  0  0  0  0  0  0
   41.5070   70.9610   58.1240 C   0  0  0  0  0  0  0  0  0  0  0  0
   41.2760   72.1250   58.8130 N   0  0  0  0  0  0  0  0  0  0  0  0
   41.2590   73.3190   58.1590 C   0  0  0  0  0  0  0  0  0  0  0  0
   41.4740   73.3820   56.8140 N   0  0  0  0  0  0  0  0  0  0  0  0
   41.8560   72.4180   55.0830 H   0  0  0  0  0  0  0  0  0  0  0  0
   41.8820   70.2290   56.0360 H   0  0  0  0  0  0  0  0  0  0  0  0
   39.8360   74.5880   59.6890 C   0  0  0  0  0  0  0  0  0  0  0  0
   40.9770   74.5480   58.8870 C   0  0  0  0  0  0  0  0  0  0  0  0
   41.8340   75.6460   58.7940 C   0  0  0  0  0  0  0  0  0  0  0  0
   41.5830   76.8120   59.4960 C   0  0  0  0  0  0  0  0  0  0  0  0
   42.1660   78.0100   59.6380 N   0  0  0  0  0  0  0  0  0  0  0  0
   41.4500   78.7850   60.4830 C   0  0  0  0  0  0  0  0  0  0  0  0
   40.4060   78.0150   60.8530 N   0  0  0  0  0  0  0  0  0  0  0  0
   40.4580   76.8040   60.2670 C   0  0  0  0  0  0  0  0  0  0  0  0
   39.5650   75.7580   60.4070 C   0  0  0  0  0  0  0  0  0  0  0  0
   39.1530   73.7530   59.7820 H   0  0  0  0  0  0  0  0  0  0  0  0
   42.7220   75.6060   58.1640 H   0  0  0  0  0  0  0  0  0  0  0  0
   43.0500   78.2440   59.1360 H   0  0  0  0  0  0  0  0  0  0  0  0
   41.7320   79.7920   60.7460 H   0  0  0  0  0  0  0  0  0  0  0  0
   38.7000   75.8540   61.0470 H   0  0  0  0  0  0  0  0  0  0  0  0
   42.9400   71.0090   60.7340 Cl  0  0  0  0  0  0  0  0  0  0  0  0
   42.1530   69.5790   60.0660 C   0  0  0  0  0  0  0  0  0  0  0  0
   41.5250   69.7130   58.8530 C   0  0  0  0  0  0  0  0  0  0  0  0
   40.9150   68.5450   58.4030 C   0  0  0  0  0  0  0  0  0  0  0  0
   40.9270   67.3510   59.0920 C   0  0  0  0  0  0  0  0  0  0  0  0
   41.5840   67.2900   60.3160 C   0  0  0  0  0  0  0  0  0  0  0  0
   41.6200   65.7960   61.2150 Cl  0  0  0  0  0  0  0  0  0  0  0  0
   42.2000   68.4200   60.7990 C   0  0  0  0  0  0  0  0  0  0  0  0
   40.3960   68.5600   57.4550 H   0  0  0  0  0  0  0  0  0  0  0  0
   40.4340   66.4860   58.6830 H   0  0  0  0  0  0  0  0  0  0  0  0
   42.8840   68.4020   62.0460 N   0  0  0  0  0  0  0  0  0  0  0  0
   42.0160   68.7340   63.1520 C   0  0  0  0  0  3  0  0  0  0  0  0
   41.0420   68.2060   63.1350 H   0  0  0  0  0  0  0  0  0  0  0  0
   42.7320   68.2470   64.4190 C   0  0  0  0  0  3  0  0  0  0  0  0
   42.0570   68.1680   65.2780 H   0  0  0  0  0  0  0  0  0  0  0  0
   43.3060   66.9530   64.1780 N   0  0  0  0  0  0  0  0  0  0  0  0
   42.5840   66.2440   64.0150 H   0  0  0  0  0  0  0  0  0  0  0  0
   44.3610   66.9290   63.2090 C   0  0  0  0  0  2  0  0  0  0  0  0
   44.2830   68.1010   62.2810 C   0  0  0  0  0  2  0  0  0  0  0  0
  1  2  2  0  0  0  0
  1  6  1  0  0  0  0
  2  3  1  0  0  0  0
  3  4  2  0  0  0  0
  3 25  1  0  0  0  0
  5  4  1  0  0  0  0
  5 10  1  0  0  0  0
  6  5  2  0  0  0  0
  7  1  1  0  0  0  0
  8  2  1  0  0  0  0
  9 18  1  0  0  0  0
  9 17  1  0  0  0  0
 10  9  2  0  0  0  0
 11 10  1  0  0  0  0
 11 12  2  0  0  0  0
 12 13  1  0  0  0  0
 12 16  1  0  0  0  0
 13 14  1  0  0  0  0
 14 21  1  0  0  0  0
 14 15  2  0  0  0  0
 16 17  2  0  0  0  0
 16 15  1  0  0  0  0
 17 22  1  0  0  0  0
 19 11  1  0  0  0  0
 20 13  1  0  0  0  0
 24 23  1  0  0  0  0
 24 30  1  0  0  0  0
 25 24  2  0  0  0  0
 26 25  1  0  0  0  0
 26 27  2  0  0  0  0
 27 28  1  0  0  0  0
 28 30  2  0  0  0  0
 28 29  1  0  0  0  0
 30 33  1  0  0  0  0
 31 26  1  0  0  0  0
 32 27  1  0  0  0  0
 33 41  1  0  0  0  0
 33 34  1  0  0  0  0
 34 36  1  0  0  0  0
 35 34  1  0  0  0  0
 36 37  1  0  0  0  0
 38 36  1  0  0  0  0
 39 38  1  0  0  0  0
 40 38  1  0  0  0  0
 41 40  1  0  0  0  0
M  END
>  <minimizedAffinity>
-7.17692614

$$$$

 OpenBabel03212520063D

 41 45  0  0  0  0  0  0  0  0999 V2000
   44.1010   70.4340   57.8090 C   0  0  0  0  0  0  0  0  0  0  0  0
   43.4550   71.6850   57.8560 C   0  0  0  0  0  0  0  0  0  0  0  0
   42.3430   71.7840   58.6600 C   0  0  0  0  0  0  0  0  0  0  0  0
   41.9010   70.7020   59.3790 N   0  0  0  0  0  0  0  0  0  0  0  0
   42.5600   69.5120   59.3040 C   0  0  0  0  0  0  0  0  0  0  0  0
   43.6640   69.3730   58.5160 N   0  0  0  0  0  0  0  0  0  0  0  0
   44.9760   70.2030   57.2270 H   0  0  0  0  0  0  0  0  0  0  0  0
   43.9890   72.3770   57.2550 H   0  0  0  0  0  0  0  0  0  0  0  0
   41.9450   67.1500   59.4490 C   0  0  0  0  0  0  0  0  0  0  0  0
   42.1100   68.3760   60.0960 C   0  0  0  0  0  0  0  0  0  0  0  0
   41.8690   68.5090   61.4640 C   0  0  0  0  0  0  0  0  0  0  0  0
   41.4580   67.4300   62.2270 C   0  0  0  0  0  0  0  0  0  0  0  0
   41.1480   67.2050   63.5120 N   0  0  0  0  0  0  0  0  0  0  0  0
   40.8020   65.9100   63.6920 C   0  0  0  0  0  0  0  0  0  0  0  0
   40.9120   65.3530   62.4690 N   0  0  0  0  0  0  0  0  0  0  0  0
   41.3110   66.2540   61.5530 C   0  0  0  0  0  0  0  0  0  0  0  0
   41.5300   66.0470   60.2030 C   0  0  0  0  0  0  0  0  0  0  0  0
   42.1250   67.0160   58.3900 H   0  0  0  0  0  0  0  0  0  0  0  0
   42.0000   69.4700   61.9600 H   0  0  0  0  0  0  0  0  0  0  0  0
   41.1900   67.9700   64.2190 H   0  0  0  0  0  0  0  0  0  0  0  0
   40.5140   65.5030   64.6470 H   0  0  0  0  0  0  0  0  0  0  0  0
   41.3840   65.0710   59.7640 H   0  0  0  0  0  0  0  0  0  0  0  0
   40.2650   72.2330   56.5730 Cl  0  0  0  0  0  0  0  0  0  0  0  0
   40.6320   73.3770   57.8650 C   0  0  0  0  0  0  0  0  0  0  0  0
   41.6130   73.0280   58.7580 C   0  0  0  0  0  0  0  0  0  0  0  0
   41.8300   73.9760   59.7550 C   0  0  0  0  0  0  0  0  0  0  0  0
   41.1380   75.1640   59.8560 C   0  0  0  0  0  0  0  0  0  0  0  0
   40.1580   75.4520   58.9140 C   0  0  0  0  0  0  0  0  0  0  0  0
   39.2630   76.9450   59.0110 Cl  0  0  0  0  0  0  0  0  0  0  0  0
   39.9100   74.5430   57.9120 C   0  0  0  0  0  0  0  0  0  0  0  0
   42.5860   73.7820   60.5030 H   0  0  0  0  0  0  0  0  0  0  0  0
   41.3590   75.8520   60.6540 H   0  0  0  0  0  0  0  0  0  0  0  0
   38.9150   74.7970   56.9270 N   0  0  0  0  0  0  0  0  0  0  0  0
   37.6200   74.2830   57.3090 C   0  0  0  0  0  3  0  0  0  0  0  0
   37.3300   74.5220   58.3520 H   0  0  0  0  0  0  0  0  0  0  0  0
   36.5970   74.9970   56.4170 C   0  0  0  0  0  3  0  0  0  0  0  0
   35.5750   74.9210   56.8060 H   0  0  0  0  0  0  0  0  0  0  0  0
   36.9370   76.3880   56.3150 N   0  0  0  0  0  0  0  0  0  0  0  0
   36.8510   76.8650   57.2180 H   0  0  0  0  0  0  0  0  0  0  0  0
   38.1680   76.6630   55.6370 C   0  0  0  0  0  2  0  0  0  0  0  0
   39.0840   75.4790   55.6580 C   0  0  0  0  0  2  0  0  0  0  0  0
  1  2  2  0  0  0  0
  1  6  1  0  0  0  0
  2  3  1  0  0  0  0
  3 25  1  0  0  0  0
  3  4  2  0  0  0  0
  5  4  1  0  0  0  0
  5 10  1  0  0  0  0
  6  5  2  0  0  0  0
  7  1  1  0  0  0  0
  8  2  1  0  0  0  0
  9 10  2  0  0  0  0
  9 17  1  0  0  0  0
 10 11  1  0  0  0  0
 11 19  1  0  0  0  0
 11 12  2  0  0  0  0
 12 13  1  0  0  0  0
 13 14  1  0  0  0  0
 13 20  1  0  0  0  0
 14 21  1  0  0  0  0
 15 14  2  0  0  0  0
 16 12  1  0  0  0  0
 16 15  1  0  0  0  0
 17 16  2  0  0  0  0
 18  9  1  0  0  0  0
 22 17  1  0  0  0  0
 23 24  1  0  0  0  0
 24 30  2  0  0  0  0
 24 25  1  0  0  0  0
 25 26  2  0  0  0  0
 26 27  1  0  0  0  0
 26 31  1  0  0  0  0
 27 32  1  0  0  0  0
 28 29  1  0  0  0  0
 28 27  2  0  0  0  0
 30 28  1  0  0  0  0
 33 34  1  0  0  0  0
 33 30  1  0  0  0  0
 34 35  1  0  0  0  0
 36 37  1  0  0  0  0
 36 34  1  0  0  0  0
 38 36  1  0  0  0  0
 38 39  1  0  0  0  0
 40 41  1  0  0  0  0
 40 38  1  0  0  0  0
 41 33  1  0  0  0  0
M  END
>  <minimizedAffinity>
-6.96749592

$$$$

 OpenBabel03212520063D

 41 45  0  0  0  0  0  0  0  0999 V2000
   43.2560   68.8270   57.8210 C   0  0  0  0  0  0  0  0  0  0  0  0
   43.2420   70.2360   57.8300 C   0  0  0  0  0  0  0  0  0  0  0  0
   42.8370   70.8500   58.9930 C   0  0  0  0  0  0  0  0  0  0  0  0
   42.4690   70.1040   60.0850 N   0  0  0  0  0  0  0  0  0  0  0  0
   42.5010   68.7440   60.0300 C   0  0  0  0  0  0  0  0  0  0  0  0
   42.8940   68.0990   58.8950 N   0  0  0  0  0  0  0  0  0  0  0  0
   43.5450   68.2100   56.9890 H   0  0  0  0  0  0  0  0  0  0  0  0
   43.5990   70.5950   56.8980 H   0  0  0  0  0  0  0  0  0  0  0  0
   42.8890   68.1420   62.3680 C   0  0  0  0  0  0  0  0  0  0  0  0
   42.1450   67.9560   61.2020 C   0  0  0  0  0  0  0  0  0  0  0  0
   41.0810   67.0540   61.1610 C   0  0  0  0  0  0  0  0  0  0  0  0
   40.7250   66.3140   62.2750 C   0  0  0  0  0  0  0  0  0  0  0  0
   39.7980   65.3960   62.5810 N   0  0  0  0  0  0  0  0  0  0  0  0
   39.9290   65.0070   63.8700 C   0  0  0  0  0  0  0  0  0  0  0  0
   40.9710   65.7230   64.3400 N   0  0  0  0  0  0  0  0  0  0  0  0
   41.4790   66.5300   63.3900 C   0  0  0  0  0  0  0  0  0  0  0  0
   42.5450   67.4030   63.5060 C   0  0  0  0  0  0  0  0  0  0  0  0
   43.7200   68.8340   62.4310 H   0  0  0  0  0  0  0  0  0  0  0  0
   40.5060   66.9150   60.2460 H   0  0  0  0  0  0  0  0  0  0  0  0
   39.1040   65.0730   61.8740 H   0  0  0  0  0  0  0  0  0  0  0  0
   39.2890   64.2750   64.3350 H   0  0  0  0  0  0  0  0  0  0  0  0
   43.0800   67.5010   64.4390 H   0  0  0  0  0  0  0  0  0  0  0  0
   40.1070   72.0410   59.0380 Cl  0  0  0  0  0  0  0  0  0  0  0  0
   41.5970   72.9820   59.1090 C   0  0  0  0  0  0  0  0  0  0  0  0
   42.7820   72.2910   59.0850 C   0  0  0  0  0  0  0  0  0  0  0  0
   43.9100   73.1050   59.1610 C   0  0  0  0  0  0  0  0  0  0  0  0
   43.8670   74.4800   59.2500 C   0  0  0  0  0  0  0  0  0  0  0  0
   42.6290   75.1120   59.2680 C   0  0  0  0  0  0  0  0  0  0  0  0
   42.5370   76.8500   59.3790 Cl  0  0  0  0  0  0  0  0  0  0  0  0
   41.4890   74.3480   59.1960 C   0  0  0  0  0  0  0  0  0  0  0  0
   44.8870   72.6440   59.1500 H   0  0  0  0  0  0  0  0  0  0  0  0
   44.7800   75.0460   59.3050 H   0  0  0  0  0  0  0  0  0  0  0  0
   40.2020   74.9530   59.2100 N   0  0  0  0  0  0  0  0  0  0  0  0
   39.7060   75.2210   57.8790 C   0  0  0  0  0  3  0  0  0  0  0  0
   39.8280   74.3740   57.1740 H   0  0  0  0  0  0  0  0  0  0  0  0
   38.1930   75.4330   58.0210 C   0  0  0  0  0  3  0  0  0  0  0  0
   37.6660   75.3460   57.0640 H   0  0  0  0  0  0  0  0  0  0  0  0
   37.6540   74.4540   58.9220 N   0  0  0  0  0  0  0  0  0  0  0  0
   37.7360   73.5050   58.5410 H   0  0  0  0  0  0  0  0  0  0  0  0
   38.1000   74.5670   60.2780 C   0  0  0  0  0  2  0  0  0  0  0  0
   39.4020   75.3000   60.3690 C   0  0  0  0  0  2  0  0  0  0  0  0
  1  2  2  0  0  0  0
  1  6  1  0  0  0  0
  2  3  1  0  0  0  0
  3 25  1  0  0  0  0
  3  4  2  0  0  0  0
  5  4  1  0  0  0  0
  5 10  1  0  0  0  0
  6  5  2  0  0  0  0
  7  1  1  0  0  0  0
  8  2  1  0  0  0  0
  9 18  1  0  0  0  0
  9 17  1  0  0  0  0
 10  9  2  0  0  0  0
 11 10  1  0  0  0  0
 11 12  2  0  0  0  0
 12 13  1  0  0  0  0
 12 16  1  0  0  0  0
 13 14  1  0  0  0  0
 14 21  1  0  0  0  0
 14 15  2  0  0  0  0
 16 17  2  0  0  0  0
 16 15  1  0  0  0  0
 17 22  1  0  0  0  0
 19 11  1  0  0  0  0
 20 13  1  0  0  0  0
 23 24  1  0  0  0  0
 24 30  1  0  0  0  0
 25 24  2  0  0  0  0
 25 26  1  0  0  0  0
 26 27  2  0  0  0  0
 27 28  1  0  0  0  0
 27 32  1  0  0  0  0
 28 29  1  0  0  0  0
 30 33  1  0  0  0  0
 30 28  2  0  0  0  0
 31 26  1  0  0  0  0
 33 41  1  0  0  0  0
 34 36  1  0  0  0  0
 34 33  1  0  0  0  0
 35 34  1  0  0  0  0
 36 38  1  0  0  0  0
 37 36  1  0  0  0  0
 38 40  1  0  0  0  0
 39 38  1  0  0  0  0
 40 41  1  0  0  0  0
M  END
>  <minimizedAffinity>
-6.95529509

$$$$

 OpenBabel03212520063D

 41 45  0  0  0  0  0  0  0  0999 V2000
   43.3740   74.9260   58.2620 C   0  0  0  0  0  0  0  0  0  0  0  0
   43.3770   73.9060   59.2330 C   0  0  0  0  0  0  0  0  0  0  0  0
   42.1540   73.4220   59.6360 C   0  0  0  0  0  0  0  0  0  0  0  0
   40.9940   73.9220   59.1010 N   0  0  0  0  0  0  0  0  0  0  0  0
   41.0400   74.9080   58.1620 C   0  0  0  0  0  0  0  0  0  0  0  0
   42.2330   75.4150   57.7400 N   0  0  0  0  0  0  0  0  0  0  0  0
   44.2470   75.4040   57.8530 H   0  0  0  0  0  0  0  0  0  0  0  0
   44.3800   73.6540   59.4720 H   0  0  0  0  0  0  0  0  0  0  0  0
   38.6770   74.5970   57.6170 C   0  0  0  0  0  0  0  0  0  0  0  0
   39.8090   75.4120   57.5690 C   0  0  0  0  0  0  0  0  0  0  0  0
   39.7620   76.6790   56.9860 C   0  0  0  0  0  0  0  0  0  0  0  0
   38.5920   77.1720   56.4360 C   0  0  0  0  0  0  0  0  0  0  0  0
   38.2020   78.2970   55.8210 N   0  0  0  0  0  0  0  0  0  0  0  0
   36.8940   78.2210   55.4880 C   0  0  0  0  0  0  0  0  0  0  0  0
   36.4990   77.0070   55.9230 N   0  0  0  0  0  0  0  0  0  0  0  0
   37.5130   76.3420   56.5060 C   0  0  0  0  0  0  0  0  0  0  0  0
   37.4840   75.0770   57.0660 C   0  0  0  0  0  0  0  0  0  0  0  0
   38.6810   73.6100   58.0630 H   0  0  0  0  0  0  0  0  0  0  0  0
   40.6520   77.3080   56.9530 H   0  0  0  0  0  0  0  0  0  0  0  0
   38.8690   79.0810   55.6560 H   0  0  0  0  0  0  0  0  0  0  0  0
   36.3640   79.0130   54.9840 H   0  0  0  0  0  0  0  0  0  0  0  0
   36.5720   74.4980   57.0710 H   0  0  0  0  0  0  0  0  0  0  0  0
   42.6320   70.6460   58.6660 Cl  0  0  0  0  0  0  0  0  0  0  0  0
   42.2540   71.0570   60.3390 C   0  0  0  0  0  0  0  0  0  0  0  0
   42.0660   72.3830   60.6370 C   0  0  0  0  0  0  0  0  0  0  0  0
   41.7880   72.6240   61.9810 C   0  0  0  0  0  0  0  0  0  0  0  0
   41.7030   71.6390   62.9420 C   0  0  0  0  0  0  0  0  0  0  0  0
   41.9040   70.3160   62.5660 C   0  0  0  0  0  0  0  0  0  0  0  0
   41.8040   69.0450   63.7550 Cl  0  0  0  0  0  0  0  0  0  0  0  0
   42.1820   70.0320   61.2500 C   0  0  0  0  0  0  0  0  0  0  0  0
   41.6260   73.6420   62.3050 H   0  0  0  0  0  0  0  0  0  0  0  0
   41.4840   71.8990   63.9630 H   0  0  0  0  0  0  0  0  0  0  0  0
   42.3950   68.6930   60.8210 N   0  0  0  0  0  0  0  0  0  0  0  0
   43.7700   68.2770   60.9820 C   0  0  0  0  0  3  0  0  0  0  0  0
   44.2070   68.5390   61.9660 H   0  0  0  0  0  0  0  0  0  0  0  0
   43.7630   66.7440   60.9220 C   0  0  0  0  0  3  0  0  0  0  0  0
   44.6820   66.3040   61.3250 H   0  0  0  0  0  0  0  0  0  0  0  0
   42.6530   66.2390   61.6800 N   0  0  0  0  0  0  0  0  0  0  0  0
   42.7540   66.4470   62.6790 H   0  0  0  0  0  0  0  0  0  0  0  0
   41.3610   66.5650   61.1540 C   0  0  0  0  0  2  0  0  0  0  0  0
   41.4150   67.7740   60.2740 C   0  0  0  0  0  2  0  0  0  0  0  0
  1  2  1  0  0  0  0
  2  8  1  0  0  0  0
  2  3  2  0  0  0  0
  3 25  1  0  0  0  0
  4  3  1  0  0  0  0
  5  4  2  0  0  0  0
  6  5  1  0  0  0  0
  6  1  2  0  0  0  0
  7  1  1  0  0  0  0
  9 18  1  0  0  0  0
 10  9  1  0  0  0  0
 10  5  1  0  0  0  0
 11 10  2  0  0  0  0
 12 16  2  0  0  0  0
 12 11  1  0  0  0  0
 13 12  1  0  0  0  0
 14 13  1  0  0  0  0
 14 15  2  0  0  0  0
 15 16  1  0  0  0  0
 16 17  1  0  0  0  0
 17 22  1  0  0  0  0
 17  9  2  0  0  0  0
 19 11  1  0  0  0  0
 20 13  1  0  0  0  0
 21 14  1  0  0  0  0
 23 24  1  0  0  0  0
 24 25  2  0  0  0  0
 24 30  1  0  0  0  0
 25 26  1  0  0  0  0
 26 31  1  0  0  0  0
 26 27  2  0  0  0  0
 27 32  1  0  0  0  0
 28 27  1  0  0  0  0
 28 29  1  0  0  0  0
 30 28  2  0  0  0  0
 33 34  1  0  0  0  0
 33 30  1  0  0  0  0
 34 35  1  0  0  0  0
 36 34  1  0  0  0  0
 36 37  1  0  0  0  0
 36 38  1  0  0  0  0
 38 39  1  0  0  0  0
 40 38  1  0  0  0  0
 41 33  1  0  0  0  0
 41 40  1  0  0  0  0
M  END
>  <minimizedAffinity>
-6.63429451

$$$$

 OpenBabel03212520063D

 41 45  0  0  0  0  0  0  0  0999 V2000
   42.2280   68.8130   56.1970 C   0  0  0  0  0  0  0  0  0  0  0  0
   41.5370   70.0400   56.2190 C   0  0  0  0  0  0  0  0  0  0  0  0
   40.8660   70.3600   57.3780 C   0  0  0  0  0  0  0  0  0  0  0  0
   40.8850   69.5080   58.4530 N   0  0  0  0  0  0  0  0  0  0  0  0
   41.5700   68.3330   58.3870 C   0  0  0  0  0  0  0  0  0  0  0  0
   42.2440   67.9790   57.2560 N   0  0  0  0  0  0  0  0  0  0  0  0
   42.7930   68.4280   55.3660 H   0  0  0  0  0  0  0  0  0  0  0  0
   41.6910   70.5450   55.2990 H   0  0  0  0  0  0  0  0  0  0  0  0
   42.4650   66.3400   59.4850 C   0  0  0  0  0  0  0  0  0  0  0  0
   41.6180   67.4480   59.5420 C   0  0  0  0  0  0  0  0  0  0  0  0
   40.8510   67.7120   60.6780 C   0  0  0  0  0  0  0  0  0  0  0  0
   40.9040   66.8860   61.7870 C   0  0  0  0  0  0  0  0  0  0  0  0
   40.3300   66.8390   62.9970 N   0  0  0  0  0  0  0  0  0  0  0  0
   40.7760   65.7660   63.6880 C   0  0  0  0  0  0  0  0  0  0  0  0
   41.6450   65.1590   62.8540 N   0  0  0  0  0  0  0  0  0  0  0  0
   41.7450   65.8180   61.6850 C   0  0  0  0  0  0  0  0  0  0  0  0
   42.5330   65.4920   60.5960 C   0  0  0  0  0  0  0  0  0  0  0  0
   43.0720   66.1080   58.6190 H   0  0  0  0  0  0  0  0  0  0  0  0
   40.1920   68.5800   60.7130 H   0  0  0  0  0  0  0  0  0  0  0  0
   39.6440   67.5640   63.2970 H   0  0  0  0  0  0  0  0  0  0  0  0
   40.4500   65.5290   64.6880 H   0  0  0  0  0  0  0  0  0  0  0  0
   43.1680   64.6190   60.6170 H   0  0  0  0  0  0  0  0  0  0  0  0
   42.1610   72.5230   58.9640 Cl  0  0  0  0  0  0  0  0  0  0  0  0
   40.5860   72.6760   58.1860 C   0  0  0  0  0  0  0  0  0  0  0  0
   40.1220   71.5940   57.4820 C   0  0  0  0  0  0  0  0  0  0  0  0
   38.8800   71.8020   56.8850 C   0  0  0  0  0  0  0  0  0  0  0  0
   38.1640   72.9760   56.9780 C   0  0  0  0  0  0  0  0  0  0  0  0
   38.6970   74.0310   57.7090 C   0  0  0  0  0  0  0  0  0  0  0  0
   37.8190   75.5300   57.8490 Cl  0  0  0  0  0  0  0  0  0  0  0  0
   39.9200   73.8700   58.3150 C   0  0  0  0  0  0  0  0  0  0  0  0
   38.4380   71.0010   56.3090 H   0  0  0  0  0  0  0  0  0  0  0  0
   37.2090   73.0660   56.4900 H   0  0  0  0  0  0  0  0  0  0  0  0
   40.5040   74.9220   59.0740 N   0  0  0  0  0  0  0  0  0  0  0  0
   41.3060   75.8070   58.2590 C   0  0  0  0  0  3  0  0  0  0  0  0
   40.8180   76.1140   57.3130 H   0  0  0  0  0  0  0  0  0  0  0  0
   41.4840   77.0940   59.0740 C   0  0  0  0  0  3  0  0  0  0  0  0
   41.8110   77.9390   58.4570 H   0  0  0  0  0  0  0  0  0  0  0  0
   40.2390   77.4460   59.6950 N   0  0  0  0  0  0  0  0  0  0  0  0
   39.5270   77.6910   59.0000 H   0  0  0  0  0  0  0  0  0  0  0  0
   39.7760   76.5240   60.6890 C   0  0  0  0  0  2  0  0  0  0  0  0
   40.3700   75.1640   60.4980 C   0  0  0  0  0  2  0  0  0  0  0  0
  1  2  2  0  0  0  0
  1  6  1  0  0  0  0
  2  3  1  0  0  0  0
  3 25  1  0  0  0  0
  3  4  2  0  0  0  0
  5  4  1  0  0  0  0
  5 10  1  0  0  0  0
  6  5  2  0  0  0  0
  7  1  1  0  0  0  0
  8  2  1  0  0  0  0
  9 10  2  0  0  0  0
  9 17  1  0  0  0  0
 10 11  1  0  0  0  0
 11 19  1  0  0  0  0
 11 12  2  0  0  0  0
 12 13  1  0  0  0  0
 13 20  1  0  0  0  0
 13 14  1  0  0  0  0
 14 21  1  0  0  0  0
 15 14  2  0  0  0  0
 16 12  1  0  0  0  0
 16 15  1  0  0  0  0
 17 22  1  0  0  0  0
 17 16  2  0  0  0  0
 18  9  1  0  0  0  0
 24 30  1  0  0  0  0
 24 23  1  0  0  0  0
 25 24  2  0  0  0  0
 26 27  2  0  0  0  0
 26 25  1  0  0  0  0
 27 28  1  0  0  0  0
 28 29  1  0  0  0  0
 28 30  2  0  0  0  0
 30 33  1  0  0  0  0
 31 26  1  0  0  0  0
 32 27  1  0  0  0  0
 33 41  1  0  0  0  0
 34 36  1  0  0  0  0
 34 33  1  0  0  0  0
 35 34  1  0  0  0  0
 36 38  1  0  0  0  0
 37 36  1  0  0  0  0
 38 40  1  0  0  0  0
 39 38  1  0  0  0  0
 41 40  1  0  0  0  0
M  END
>  <minimizedAffinity>
-6.6169548

$$$$

 OpenBabel03212520063D

 41 45  0  0  0  0  0  0  0  0999 V2000
   40.1000   71.8690   56.4080 C   0  0  0  0  0  0  0  0  0  0  0  0
   40.5550   70.6850   57.0200 C   0  0  0  0  0  0  0  0  0  0  0  0
   41.3630   70.8220   58.1250 C   0  0  0  0  0  0  0  0  0  0  0  0
   41.6970   72.0680   58.5960 N   0  0  0  0  0  0  0  0  0  0  0  0
   41.2310   73.1850   57.9720 C   0  0  0  0  0  0  0  0  0  0  0  0
   40.4300   73.0900   56.8720 N   0  0  0  0  0  0  0  0  0  0  0  0
   39.4670   71.9210   55.5390 H   0  0  0  0  0  0  0  0  0  0  0  0
   40.1430   69.8490   56.5130 H   0  0  0  0  0  0  0  0  0  0  0  0
   42.8240   75.0230   58.2220 C   0  0  0  0  0  0  0  0  0  0  0  0
   41.5570   74.5050   58.4950 C   0  0  0  0  0  0  0  0  0  0  0  0
   40.6220   75.2330   59.2320 C   0  0  0  0  0  0  0  0  0  0  0  0
   40.9180   76.4940   59.7180 C   0  0  0  0  0  0  0  0  0  0  0  0
   40.2880   77.4360   60.4330 N   0  0  0  0  0  0  0  0  0  0  0  0
   41.0950   78.5060   60.6150 C   0  0  0  0  0  0  0  0  0  0  0  0
   42.2420   78.1820   59.9850 N   0  0  0  0  0  0  0  0  0  0  0  0
   42.1660   76.9590   59.4270 C   0  0  0  0  0  0  0  0  0  0  0  0
   43.1430   76.2970   58.7050 C   0  0  0  0  0  0  0  0  0  0  0  0
   43.5700   74.4830   57.6530 H   0  0  0  0  0  0  0  0  0  0  0  0
   39.6360   74.8190   59.4400 H   0  0  0  0  0  0  0  0  0  0  0  0
   39.3110   77.2970   60.7690 H   0  0  0  0  0  0  0  0  0  0  0  0
   40.7970   79.3860   61.1620 H   0  0  0  0  0  0  0  0  0  0  0  0
   44.1040   76.7560   58.5290 H   0  0  0  0  0  0  0  0  0  0  0  0
   41.3680   70.9620   61.1010 Cl  0  0  0  0  0  0  0  0  0  0  0  0
   41.9560   69.5800   60.1760 C   0  0  0  0  0  0  0  0  0  0  0  0
   41.8830   69.6600   58.8080 C   0  0  0  0  0  0  0  0  0  0  0  0
   42.3510   68.5230   58.1530 C   0  0  0  0  0  0  0  0  0  0  0  0
   42.8470   67.4090   58.7950 C   0  0  0  0  0  0  0  0  0  0  0  0
   42.8920   67.4000   60.1850 C   0  0  0  0  0  0  0  0  0  0  0  0
   43.5140   66.0090   61.0310 Cl  0  0  0  0  0  0  0  0  0  0  0  0
   42.4390   68.5010   60.8730 C   0  0  0  0  0  0  0  0  0  0  0  0
   42.3300   68.4980   57.0730 H   0  0  0  0  0  0  0  0  0  0  0  0
   43.1930   66.5650   58.2240 H   0  0  0  0  0  0  0  0  0  0  0  0
   42.4660   68.5360   62.2940 N   0  0  0  0  0  0  0  0  0  0  0  0
   41.2700   67.9750   62.8800 C   0  0  0  0  0  3  0  0  0  0  0  0
   40.9580   67.0110   62.4310 H   0  0  0  0  0  0  0  0  0  0  0  0
   41.6150   67.6640   64.3420 C   0  0  0  0  0  3  0  0  0  0  0  0
   40.9010   66.9720   64.8030 H   0  0  0  0  0  0  0  0  0  0  0  0
   42.9220   67.0760   64.4120 N   0  0  0  0  0  0  0  0  0  0  0  0
   42.9490   66.1600   63.9530 H   0  0  0  0  0  0  0  0  0  0  0  0
   43.9970   67.9410   64.0290 C   0  0  0  0  0  2  0  0  0  0  0  0
   43.5220   69.0520   63.1450 C   0  0  0  0  0  2  0  0  0  0  0  0
  1  6  2  0  0  0  0
  1  2  1  0  0  0  0
  2  3  2  0  0  0  0
  3  4  1  0  0  0  0
  3 25  1  0  0  0  0
  5 10  1  0  0  0  0
  5  4  2  0  0  0  0
  6  5  1  0  0  0  0
  7  1  1  0  0  0  0
  8  2  1  0  0  0  0
  9 10  2  0  0  0  0
  9 17  1  0  0  0  0
 10 11  1  0  0  0  0
 11 19  1  0  0  0  0
 11 12  2  0  0  0  0
 12 13  1  0  0  0  0
 13 14  1  0  0  0  0
 13 20  1  0  0  0  0
 14 21  1  0  0  0  0
 15 14  2  0  0  0  0
 16 12  1  0  0  0  0
 16 15  1  0  0  0  0
 17 16  2  0  0  0  0
 18  9  1  0  0  0  0
 22 17  1  0  0  0  0
 24 30  1  0  0  0  0
 24 23  1  0  0  0  0
 25 24  2  0  0  0  0
 26 27  2  0  0  0  0
 26 25  1  0  0  0  0
 27 28  1  0  0  0  0
 28 30  2  0  0  0  0
 28 29  1  0  0  0  0
 30 33  1  0  0  0  0
 31 26  1  0  0  0  0
 32 27  1  0  0  0  0
 33 34  1  0  0  0  0
 33 41  1  0  0  0  0
 34 36  1  0  0  0  0
 35 34  1  0  0  0  0
 36 38  1  0  0  0  0
 36 37  1  0  0  0  0
 39 38  1  0  0  0  0
 40 38  1  0  0  0  0
 41 40  1  0  0  0  0
M  END
>  <minimizedAffinity>
-6.57607937

$$$$
