
 OpenBabel03212520073D

 18 19  0  0  0  0  0  0  0  0999 V2000
   40.0390   81.9440   60.7530 C   0  0  0  0  0  0  0  0  0  0  0  0
   40.1290   82.8110   59.6590 C   0  0  0  0  0  0  0  0  0  0  0  0
   39.5820   84.0820   59.7950 C   0  0  0  0  0  0  0  0  0  0  0  0
   38.9900   84.4350   60.9630 N   0  0  0  0  0  0  0  0  0  0  0  0
   38.9230   83.5600   62.0070 C   0  0  0  0  0  0  0  0  0  0  0  0
   39.4420   82.3230   61.9050 N   0  0  0  0  0  0  0  0  0  0  0  0
   40.4360   80.9570   60.7120 H   0  0  0  0  0  0  0  0  0  0  0  0
   39.5840   84.8300   59.0470 H   0  0  0  0  0  0  0  0  0  0  0  0
   38.4320   83.9130   62.9140 H   0  0  0  0  0  0  0  0  0  0  0  0
   40.7410   82.4450   58.4560 N   0  0  0  0  0  0  0  0  0  0  0  0
   41.9920   82.9790   57.9560 C   0  0  0  0  0  3  0  0  0  0  0  0
   42.8340   82.3260   58.1860 H   0  0  0  0  0  0  0  0  0  0  0  0
   41.8240   83.1740   56.4570 C   0  0  0  0  0  3  0  0  0  0  0  0
   42.7380   83.6980   56.0520 H   0  0  0  0  0  0  0  0  0  0  0  0
   41.6790   81.8960   55.8100 N   0  0  0  0  0  0  0  0  0  0  0  0
   40.9680   81.8920   55.0450 H   0  0  0  0  0  0  0  0  0  0  0  0
   41.2520   80.8650   56.7300 C   0  0  0  0  0  2  0  0  0  0  0  0
   40.1380   81.4540   57.5860 C   0  0  0  0  0  2  0  0  0  0  0  0
  1  6  1  0  0  0  0
  2  3  1  0  0  0  0
  2  1  2  0  0  0  0
  3  4  2  0  0  0  0
  4  5  1  0  0  0  0
  5  9  1  0  0  0  0
  6  5  2  0  0  0  0
  7  1  1  0  0  0  0
  8  3  1  0  0  0  0
 10  2  1  0  0  0  0
 11 12  1  0  0  0  0
 11 10  1  0  0  0  0
 13 11  1  0  0  0  0
 14 13  1  0  0  0  0
 15 13  1  0  0  0  0
 15 17  1  0  0  0  0
 16 15  1  0  0  0  0
 17 18  1  0  0  0  0
 18 10  1  0  0  0  0
M  END
>  <minimizedAffinity>
-4.02462339

>  <minimizedRMSD>
0.547621489

$$$$
