
 OpenBabel03212520073D

 18 19  0  0  0  0  0  0  0  0999 V2000
   40.0060   81.9590   60.7250 C   0  0  0  0  0  0  0  0  0  0  0  0
   40.0710   82.8350   59.6360 C   0  0  0  0  0  0  0  0  0  0  0  0
   39.5370   84.1080   59.7980 C   0  0  0  0  0  0  0  0  0  0  0  0
   38.9790   84.4550   60.9860 N   0  0  0  0  0  0  0  0  0  0  0  0
   38.9360   83.5710   62.0240 C   0  0  0  0  0  0  0  0  0  0  0  0
   39.4440   82.3320   61.8970 N   0  0  0  0  0  0  0  0  0  0  0  0
   40.3970   80.9700   60.6640 H   0  0  0  0  0  0  0  0  0  0  0  0
   39.5230   84.8620   59.0570 H   0  0  0  0  0  0  0  0  0  0  0  0
   38.4730   83.9190   62.9460 H   0  0  0  0  0  0  0  0  0  0  0  0
   40.6480   82.4760   58.4140 N   0  0  0  0  0  0  0  0  0  0  0  0
   40.1810   81.4120   57.5470 C   0  0  0  0  0  3  0  0  0  0  0  0
   39.5490   81.7910   56.7450 H   0  0  0  0  0  0  0  0  0  0  0  0
   41.4140   80.7060   57.0040 C   0  0  0  0  0  3  0  0  0  0  0  0
   41.0880   79.7990   56.4180 H   0  0  0  0  0  0  0  0  0  0  0  0
   42.1490   81.5960   56.1430 N   0  0  0  0  0  0  0  0  0  0  0  0
   43.1860   81.5270   56.2550 H   0  0  0  0  0  0  0  0  0  0  0  0
   41.8310   82.9850   56.3950 C   0  0  0  0  0  2  0  0  0  0  0  0
   41.8090   83.1780   57.9060 C   0  0  0  0  0  2  0  0  0  0  0  0
  1  6  1  0  0  0  0
  2  3  1  0  0  0  0
  2  1  2  0  0  0  0
  3  4  2  0  0  0  0
  4  5  1  0  0  0  0
  5  9  1  0  0  0  0
  6  5  2  0  0  0  0
  7  1  1  0  0  0  0
  8  3  1  0  0  0  0
 10  2  1  0  0  0  0
 11 10  1  0  0  0  0
 12 11  1  0  0  0  0
 13 11  1  0  0  0  0
 14 13  1  0  0  0  0
 15 16  1  0  0  0  0
 15 17  1  0  0  0  0
 15 13  1  0  0  0  0
 17 18  1  0  0  0  0
 18 10  1  0  0  0  0
M  END
>  <minimizedAffinity>
-3.9709301

>  <minimizedRMSD>
0.537633121

$$$$
