
 OpenBabel03212520033D

 41 45  0  0  0  0  0  0  0  0999 V2000
   40.6050   81.8530   57.1020 C   0  0  0  0  0  0  0  0  0  0  0  0
   41.6580   82.4520   56.3840 C   0  0  0  0  0  0  0  0  0  0  0  0
   42.4390   83.3600   57.0600 C   0  0  0  0  0  0  0  0  0  0  0  0
   42.1880   83.6540   58.3770 N   0  0  0  0  0  0  0  0  0  0  0  0
   41.1590   83.0470   59.0320 C   0  0  0  0  0  0  0  0  0  0  0  0
   40.3610   82.1440   58.3950 N   0  0  0  0  0  0  0  0  0  0  0  0
   39.9110   81.1290   56.7100 H   0  0  0  0  0  0  0  0  0  0  0  0
   41.6850   82.0490   55.4030 H   0  0  0  0  0  0  0  0  0  0  0  0
   39.6330   83.1190   60.9410 C   0  0  0  0  0  0  0  0  0  0  0  0
   40.9180   83.3330   60.4390 C   0  0  0  0  0  0  0  0  0  0  0  0
   41.9480   83.7920   61.2620 C   0  0  0  0  0  0  0  0  0  0  0  0
   41.7310   84.0490   62.6050 C   0  0  0  0  0  0  0  0  0  0  0  0
   42.4580   84.4810   63.6450 N   0  0  0  0  0  0  0  0  0  0  0  0
   41.6940   84.5430   64.7590 C   0  0  0  0  0  0  0  0  0  0  0  0
   40.4730   84.1340   64.3600 N   0  0  0  0  0  0  0  0  0  0  0  0
   40.4620   83.8260   63.0500 C   0  0  0  0  0  0  0  0  0  0  0  0
   39.3940   83.3740   62.2960 C   0  0  0  0  0  0  0  0  0  0  0  0
   38.8150   82.7640   60.3280 H   0  0  0  0  0  0  0  0  0  0  0  0
   42.9480   83.9570   60.8610 H   0  0  0  0  0  0  0  0  0  0  0  0
   43.4680   84.7160   63.5370 H   0  0  0  0  0  0  0  0  0  0  0  0
   42.0700   84.8640   65.7170 H   0  0  0  0  0  0  0  0  0  0  0  0
   38.4240   83.2280   62.7470 H   0  0  0  0  0  0  0  0  0  0  0  0
   42.4760   83.1460   54.0890 Cl  0  0  0  0  0  0  0  0  0  0  0  0
   43.6880   84.0130   55.0320 C   0  0  0  0  0  0  0  0  0  0  0  0
   43.5340   84.0300   56.3960 C   0  0  0  0  0  0  0  0  0  0  0  0
   44.5220   84.7480   57.0650 C   0  0  0  0  0  0  0  0  0  0  0  0
   45.5690   85.3910   56.4400 C   0  0  0  0  0  0  0  0  0  0  0  0
   45.6620   85.3300   55.0540 C   0  0  0  0  0  0  0  0  0  0  0  0
   46.9730   86.1300   54.2290 Cl  0  0  0  0  0  0  0  0  0  0  0  0
   44.7070   84.6320   54.3530 C   0  0  0  0  0  0  0  0  0  0  0  0
   44.4790   84.8140   58.1430 H   0  0  0  0  0  0  0  0  0  0  0  0
   46.2980   85.9280   57.0210 H   0  0  0  0  0  0  0  0  0  0  0  0
   44.7630   84.5430   52.9340 N   0  0  0  0  0  0  0  0  0  0  0  0
   45.4580   83.3590   52.4850 C   0  0  0  0  0  0  0  0  0  0  0  0
   45.1530   82.4310   53.0090 H   0  0  0  0  0  0  0  0  0  0  0  0
   45.0590   83.1590   51.0170 C   0  0  0  0  0  0  0  0  0  0  0  0
   45.2750   82.1470   50.6570 H   0  0  0  0  0  0  0  0  0  0  0  0
   43.6510   83.3980   50.8660 N   0  0  0  0  0  0  0  0  0  0  0  0
   43.0940   82.7010   51.3700 H   0  0  0  0  0  0  0  0  0  0  0  0
   43.2360   84.7470   51.1080 C   0  0  0  0  0  0  0  0  0  0  0  0
   44.2180   85.4790   51.9690 C   0  0  0  0  0  0  0  0  0  0  0  0
  1  6  1  0  0  0  0
  2  3  1  0  0  0  0
  2  1  2  0  0  0  0
  3  4  2  0  0  0  0
  4  5  1  0  0  0  0
  5 10  1  0  0  0  0
  6  5  2  0  0  0  0
  7  1  1  0  0  0  0
  8  2  1  0  0  0  0
  9 17  1  0  0  0  0
 10  9  2  0  0  0  0
 10 11  1  0  0  0  0
 11 12  2  0  0  0  0
 12 16  1  0  0  0  0
 12 13  1  0  0  0  0
 13 14  1  0  0  0  0
 14 21  1  0  0  0  0
 15 14  2  0  0  0  0
 16 15  1  0  0  0  0
 17 22  1  0  0  0  0
 17 16  2  0  0  0  0
 18  9  1  0  0  0  0
 19 11  1  0  0  0  0
 20 13  1  0  0  0  0
 23 24  1  0  0  0  0
 24 25  1  0  0  0  0
 25  3  1  0  0  0  0
 25 26  2  0  0  0  0
 26 31  1  0  0  0  0
 27 32  1  0  0  0  0
 27 26  1  0  0  0  0
 28 27  2  0  0  0  0
 29 28  1  0  0  0  0
 30 24  2  0  0  0  0
 30 28  1  0  0  0  0
 33 30  1  0  0  0  0
 34 33  1  0  0  0  0
 34 35  1  0  0  0  0
 36 34  1  0  0  0  0
 37 36  1  0  0  0  0
 38 36  1  0  0  0  0
 38 40  1  0  0  0  0
 38 39  1  0  0  0  0
 40 41  1  0  0  0  0
 41 33  1  0  0  0  0
M  END
>  <minimizedAffinity>
-5.13921833

>  <minimizedRMSD>
1.09297013

$$$$
