
 OpenBabel03212520073D

 18 19  0  0  0  0  0  0  0  0999 V2000
   40.0070   81.9580   60.7250 C   0  0  0  0  0  0  0  0  0  0  0  0
   40.0720   82.8350   59.6360 C   0  0  0  0  0  0  0  0  0  0  0  0
   39.5380   84.1080   59.7990 C   0  0  0  0  0  0  0  0  0  0  0  0
   38.9800   84.4540   60.9860 N   0  0  0  0  0  0  0  0  0  0  0  0
   38.9370   83.5700   62.0240 C   0  0  0  0  0  0  0  0  0  0  0  0
   39.4450   82.3310   61.8960 N   0  0  0  0  0  0  0  0  0  0  0  0
   40.3970   80.9700   60.6640 H   0  0  0  0  0  0  0  0  0  0  0  0
   39.5230   84.8620   59.0580 H   0  0  0  0  0  0  0  0  0  0  0  0
   38.4730   83.9180   62.9470 H   0  0  0  0  0  0  0  0  0  0  0  0
   40.6480   82.4760   58.4140 N   0  0  0  0  0  0  0  0  0  0  0  0
   40.1800   81.4120   57.5470 C   0  0  0  0  0  3  0  0  0  0  0  0
   39.5480   81.7910   56.7440 H   0  0  0  0  0  0  0  0  0  0  0  0
   41.4140   80.7060   57.0040 C   0  0  0  0  0  3  0  0  0  0  0  0
   41.0870   79.7990   56.4190 H   0  0  0  0  0  0  0  0  0  0  0  0
   42.1490   81.5950   56.1430 N   0  0  0  0  0  0  0  0  0  0  0  0
   43.1840   81.5270   56.2550 H   0  0  0  0  0  0  0  0  0  0  0  0
   41.8310   82.9840   56.3940 C   0  0  0  0  0  2  0  0  0  0  0  0
   41.8090   83.1780   57.9050 C   0  0  0  0  0  2  0  0  0  0  0  0
  1  6  1  0  0  0  0
  2  3  1  0  0  0  0
  2  1  2  0  0  0  0
  3  4  2  0  0  0  0
  4  5  1  0  0  0  0
  5  9  1  0  0  0  0
  6  5  2  0  0  0  0
  7  1  1  0  0  0  0
  8  3  1  0  0  0  0
 10  2  1  0  0  0  0
 11 10  1  0  0  0  0
 12 11  1  0  0  0  0
 13 11  1  0  0  0  0
 14 13  1  0  0  0  0
 15 16  1  0  0  0  0
 15 17  1  0  0  0  0
 15 13  1  0  0  0  0
 17 18  1  0  0  0  0
 18 10  1  0  0  0  0
M  END
>  <minimizedAffinity>
-3.96794963

>  <minimizedRMSD>
0.675128579

$$$$
