
 OpenBabel03212520073D

 18 19  0  0  0  0  0  0  0  0999 V2000
   40.1080   81.9410   61.0620 C   0  0  0  0  0  0  0  0  0  0  0  0
   40.2930   82.7020   59.9020 C   0  0  0  0  0  0  0  0  0  0  0  0
   39.6980   83.9570   59.8520 C   0  0  0  0  0  0  0  0  0  0  0  0
   38.9680   84.3970   60.9080 N   0  0  0  0  0  0  0  0  0  0  0  0
   38.8120   83.6230   62.0210 C   0  0  0  0  0  0  0  0  0  0  0  0
   39.3760   82.4040   62.0990 N   0  0  0  0  0  0  0  0  0  0  0  0
   40.5370   80.9720   61.1620 H   0  0  0  0  0  0  0  0  0  0  0  0
   39.7610   84.6300   59.0380 H   0  0  0  0  0  0  0  0  0  0  0  0
   38.2130   84.0410   62.8290 H   0  0  0  0  0  0  0  0  0  0  0  0
   41.0470   82.2480   58.8150 N   0  0  0  0  0  0  0  0  0  0  0  0
   41.3700   83.0250   57.6360 C   0  0  0  0  0  3  0  0  0  0  0  0
   42.3640   83.4660   57.7000 H   0  0  0  0  0  0  0  0  0  0  0  0
   41.2440   82.0920   56.4400 C   0  0  0  0  0  3  0  0  0  0  0  0
   41.3740   82.6920   55.4940 H   0  0  0  0  0  0  0  0  0  0  0  0
   42.2600   81.0720   56.5060 N   0  0  0  0  0  0  0  0  0  0  0  0
   41.9220   80.1260   56.2210 H   0  0  0  0  0  0  0  0  0  0  0  0
   42.7760   80.9030   57.8470 C   0  0  0  0  0  2  0  0  0  0  0  0
   41.5850   80.9020   58.7950 C   0  0  0  0  0  2  0  0  0  0  0  0
  1  7  1  0  0  0  0
  1  6  1  0  0  0  0
  2  1  2  0  0  0  0
  3  2  1  0  0  0  0
  3  4  2  0  0  0  0
  4  5  1  0  0  0  0
  5  6  2  0  0  0  0
  5  9  1  0  0  0  0
  8  3  1  0  0  0  0
 10  2  1  0  0  0  0
 11 12  1  0  0  0  0
 11 10  1  0  0  0  0
 13 15  1  0  0  0  0
 13 11  1  0  0  0  0
 14 13  1  0  0  0  0
 15 17  1  0  0  0  0
 16 15  1  0  0  0  0
 17 18  1  0  0  0  0
 18 10  1  0  0  0  0
M  END
>  <minimizedAffinity>
-3.73287439

>  <minimizedRMSD>
0.387569636

$$$$
