
 OpenBabel03212520073D

 18 19  0  0  0  0  0  0  0  0999 V2000
   40.0730   81.9720   60.7230 C   0  0  0  0  0  0  0  0  0  0  0  0
   40.1560   82.8660   59.6490 C   0  0  0  0  0  0  0  0  0  0  0  0
   39.5820   84.1220   59.8080 C   0  0  0  0  0  0  0  0  0  0  0  0
   38.9710   84.4360   60.9780 N   0  0  0  0  0  0  0  0  0  0  0  0
   38.9120   83.5360   62.0010 C   0  0  0  0  0  0  0  0  0  0  0  0
   39.4570   82.3130   61.8770 N   0  0  0  0  0  0  0  0  0  0  0  0
   40.4920   80.9950   60.6640 H   0  0  0  0  0  0  0  0  0  0  0  0
   39.5760   84.8860   59.0770 H   0  0  0  0  0  0  0  0  0  0  0  0
   38.4040   83.8590   62.9100 H   0  0  0  0  0  0  0  0  0  0  0  0
   40.7880   82.5390   58.4450 N   0  0  0  0  0  0  0  0  0  0  0  0
   42.0300   83.1150   57.9680 C   0  0  0  0  0  3  0  0  0  0  0  0
   42.8860   82.4800   58.1920 H   0  0  0  0  0  0  0  0  0  0  0  0
   41.8700   83.3370   56.4710 C   0  0  0  0  0  3  0  0  0  0  0  0
   42.7730   83.8930   56.0870 H   0  0  0  0  0  0  0  0  0  0  0  0
   41.7630   82.0700   55.7970 N   0  0  0  0  0  0  0  0  0  0  0  0
   41.0600   82.0630   55.0260 H   0  0  0  0  0  0  0  0  0  0  0  0
   41.3550   81.0100   56.6930 C   0  0  0  0  0  2  0  0  0  0  0  0
   40.2190   81.5510   57.5510 C   0  0  0  0  0  2  0  0  0  0  0  0
  1  6  1  0  0  0  0
  2  3  1  0  0  0  0
  2  1  2  0  0  0  0
  3  4  2  0  0  0  0
  4  5  1  0  0  0  0
  5  9  1  0  0  0  0
  6  5  2  0  0  0  0
  7  1  1  0  0  0  0
  8  3  1  0  0  0  0
 10  2  1  0  0  0  0
 11 12  1  0  0  0  0
 11 10  1  0  0  0  0
 13 11  1  0  0  0  0
 14 13  1  0  0  0  0
 15 13  1  0  0  0  0
 15 17  1  0  0  0  0
 16 15  1  0  0  0  0
 17 18  1  0  0  0  0
 18 10  1  0  0  0  0
M  END
>  <minimizedAffinity>
-4.03031063

>  <minimizedRMSD>
0.446300089

$$$$
