
 OpenBabel03212520073D

 18 19  0  0  0  0  0  0  0  0999 V2000
   40.0100   81.9730   60.7220 C   0  0  0  0  0  0  0  0  0  0  0  0
   40.0770   82.8520   59.6360 C   0  0  0  0  0  0  0  0  0  0  0  0
   39.5370   84.1230   59.7990 C   0  0  0  0  0  0  0  0  0  0  0  0
   38.9720   84.4640   60.9840 N   0  0  0  0  0  0  0  0  0  0  0  0
   38.9270   83.5770   62.0200 C   0  0  0  0  0  0  0  0  0  0  0  0
   39.4400   82.3410   61.8920 N   0  0  0  0  0  0  0  0  0  0  0  0
   40.4040   80.9850   60.6610 H   0  0  0  0  0  0  0  0  0  0  0  0
   39.5240   84.8790   59.0600 H   0  0  0  0  0  0  0  0  0  0  0  0
   38.4580   83.9210   62.9410 H   0  0  0  0  0  0  0  0  0  0  0  0
   40.6620   82.4980   58.4160 N   0  0  0  0  0  0  0  0  0  0  0  0
   40.2170   81.4180   57.5560 C   0  0  0  0  0  3  0  0  0  0  0  0
   39.5770   81.7760   56.7520 H   0  0  0  0  0  0  0  0  0  0  0  0
   41.4670   80.7360   57.0190 C   0  0  0  0  0  3  0  0  0  0  0  0
   41.1620   79.8180   56.4390 H   0  0  0  0  0  0  0  0  0  0  0  0
   42.1820   81.6360   56.1500 N   0  0  0  0  0  0  0  0  0  0  0  0
   43.2190   81.5920   56.2630 H   0  0  0  0  0  0  0  0  0  0  0  0
   41.8320   83.0190   56.3930 C   0  0  0  0  0  2  0  0  0  0  0  0
   41.8060   83.2230   57.9030 C   0  0  0  0  0  2  0  0  0  0  0  0
  1  6  1  0  0  0  0
  2  3  1  0  0  0  0
  2  1  2  0  0  0  0
  3  4  2  0  0  0  0
  4  5  1  0  0  0  0
  5  9  1  0  0  0  0
  6  5  2  0  0  0  0
  7  1  1  0  0  0  0
  8  3  1  0  0  0  0
 10  2  1  0  0  0  0
 11 10  1  0  0  0  0
 12 11  1  0  0  0  0
 13 11  1  0  0  0  0
 14 13  1  0  0  0  0
 15 16  1  0  0  0  0
 15 17  1  0  0  0  0
 15 13  1  0  0  0  0
 17 18  1  0  0  0  0
 18 10  1  0  0  0  0
M  END
>  <minimizedAffinity>
-3.97357464

>  <minimizedRMSD>
0.376060665

$$$$
