
 OpenBabel03212520073D

 18 19  0  0  0  0  0  0  0  0999 V2000
   40.1180   81.9510   61.0520 C   0  0  0  0  0  0  0  0  0  0  0  0
   40.3000   82.7230   59.8990 C   0  0  0  0  0  0  0  0  0  0  0  0
   39.6950   83.9740   59.8570 C   0  0  0  0  0  0  0  0  0  0  0  0
   38.9610   84.4000   60.9160 N   0  0  0  0  0  0  0  0  0  0  0  0
   38.8090   83.6170   62.0220 C   0  0  0  0  0  0  0  0  0  0  0  0
   39.3810   82.4020   62.0920 N   0  0  0  0  0  0  0  0  0  0  0  0
   40.5540   80.9850   61.1450 H   0  0  0  0  0  0  0  0  0  0  0  0
   39.7540   84.6530   59.0480 H   0  0  0  0  0  0  0  0  0  0  0  0
   38.2050   84.0240   62.8330 H   0  0  0  0  0  0  0  0  0  0  0  0
   41.0580   82.2830   58.8100 N   0  0  0  0  0  0  0  0  0  0  0  0
   41.4190   83.0870   57.6600 C   0  0  0  0  0  3  0  0  0  0  0  0
   42.4240   83.4990   57.7520 H   0  0  0  0  0  0  0  0  0  0  0  0
   41.2890   82.1950   56.4340 C   0  0  0  0  0  3  0  0  0  0  0  0
   41.4480   82.8200   55.5090 H   0  0  0  0  0  0  0  0  0  0  0  0
   42.2750   81.1470   56.4830 N   0  0  0  0  0  0  0  0  0  0  0  0
   41.9170   80.2190   56.1640 H   0  0  0  0  0  0  0  0  0  0  0  0
   42.7660   80.9230   57.8250 C   0  0  0  0  0  2  0  0  0  0  0  0
   41.5600   80.9240   58.7560 C   0  0  0  0  0  2  0  0  0  0  0  0
  1  7  1  0  0  0  0
  1  6  1  0  0  0  0
  2  1  2  0  0  0  0
  3  2  1  0  0  0  0
  3  4  2  0  0  0  0
  4  5  1  0  0  0  0
  5  6  2  0  0  0  0
  5  9  1  0  0  0  0
  8  3  1  0  0  0  0
 10  2  1  0  0  0  0
 11 12  1  0  0  0  0
 11 10  1  0  0  0  0
 13 15  1  0  0  0  0
 13 11  1  0  0  0  0
 14 13  1  0  0  0  0
 15 17  1  0  0  0  0
 16 15  1  0  0  0  0
 17 18  1  0  0  0  0
 18 10  1  0  0  0  0
M  END
>  <minimizedAffinity>
-3.73510289

>  <minimizedRMSD>
0.555377901

$$$$
