
 OpenBabel03212520073D

 18 19  0  0  0  0  0  0  0  0999 V2000
   40.0730   81.9710   60.7230 C   0  0  0  0  0  0  0  0  0  0  0  0
   40.1570   82.8650   59.6500 C   0  0  0  0  0  0  0  0  0  0  0  0
   39.5830   84.1210   59.8090 C   0  0  0  0  0  0  0  0  0  0  0  0
   38.9710   84.4350   60.9790 N   0  0  0  0  0  0  0  0  0  0  0  0
   38.9120   83.5350   62.0020 C   0  0  0  0  0  0  0  0  0  0  0  0
   39.4570   82.3110   61.8770 N   0  0  0  0  0  0  0  0  0  0  0  0
   40.4920   80.9930   60.6630 H   0  0  0  0  0  0  0  0  0  0  0  0
   39.5770   84.8850   59.0790 H   0  0  0  0  0  0  0  0  0  0  0  0
   38.4050   83.8570   62.9110 H   0  0  0  0  0  0  0  0  0  0  0  0
   40.7890   82.5390   58.4460 N   0  0  0  0  0  0  0  0  0  0  0  0
   42.0300   83.1150   57.9680 C   0  0  0  0  0  3  0  0  0  0  0  0
   42.8860   82.4800   58.1920 H   0  0  0  0  0  0  0  0  0  0  0  0
   41.8700   83.3360   56.4720 C   0  0  0  0  0  3  0  0  0  0  0  0
   42.7720   83.8920   56.0860 H   0  0  0  0  0  0  0  0  0  0  0  0
   41.7630   82.0680   55.7980 N   0  0  0  0  0  0  0  0  0  0  0  0
   41.0580   82.0620   55.0260 H   0  0  0  0  0  0  0  0  0  0  0  0
   41.3540   81.0080   56.6930 C   0  0  0  0  0  2  0  0  0  0  0  0
   40.2190   81.5510   57.5510 C   0  0  0  0  0  2  0  0  0  0  0  0
  1  6  1  0  0  0  0
  2  3  1  0  0  0  0
  2  1  2  0  0  0  0
  3  4  2  0  0  0  0
  4  5  1  0  0  0  0
  5  9  1  0  0  0  0
  6  5  2  0  0  0  0
  7  1  1  0  0  0  0
  8  3  1  0  0  0  0
 10  2  1  0  0  0  0
 11 12  1  0  0  0  0
 11 10  1  0  0  0  0
 13 11  1  0  0  0  0
 14 13  1  0  0  0  0
 15 13  1  0  0  0  0
 15 17  1  0  0  0  0
 16 15  1  0  0  0  0
 17 18  1  0  0  0  0
 18 10  1  0  0  0  0
M  END
>  <minimizedAffinity>
-4.03018522

>  <minimizedRMSD>
0.388332903

$$$$
