
 OpenBabel03212520073D

 18 19  0  0  0  0  0  0  0  0999 V2000
   40.0060   81.9600   60.7250 C   0  0  0  0  0  0  0  0  0  0  0  0
   40.0710   82.8360   59.6360 C   0  0  0  0  0  0  0  0  0  0  0  0
   39.5370   84.1090   59.7980 C   0  0  0  0  0  0  0  0  0  0  0  0
   38.9790   84.4560   60.9860 N   0  0  0  0  0  0  0  0  0  0  0  0
   38.9360   83.5720   62.0240 C   0  0  0  0  0  0  0  0  0  0  0  0
   39.4440   82.3330   61.8970 N   0  0  0  0  0  0  0  0  0  0  0  0
   40.3970   80.9710   60.6640 H   0  0  0  0  0  0  0  0  0  0  0  0
   39.5230   84.8630   59.0570 H   0  0  0  0  0  0  0  0  0  0  0  0
   38.4730   83.9200   62.9460 H   0  0  0  0  0  0  0  0  0  0  0  0
   40.6480   82.4760   58.4140 N   0  0  0  0  0  0  0  0  0  0  0  0
   40.1810   81.4120   57.5470 C   0  0  0  0  0  3  0  0  0  0  0  0
   39.5490   81.7900   56.7450 H   0  0  0  0  0  0  0  0  0  0  0  0
   41.4160   80.7070   57.0060 C   0  0  0  0  0  3  0  0  0  0  0  0
   41.0890   79.7990   56.4200 H   0  0  0  0  0  0  0  0  0  0  0  0
   42.1500   81.5970   56.1440 N   0  0  0  0  0  0  0  0  0  0  0  0
   43.1860   81.5290   56.2560 H   0  0  0  0  0  0  0  0  0  0  0  0
   41.8310   82.9850   56.3940 C   0  0  0  0  0  2  0  0  0  0  0  0
   41.8090   83.1800   57.9050 C   0  0  0  0  0  2  0  0  0  0  0  0
  1  6  1  0  0  0  0
  2  3  1  0  0  0  0
  2  1  2  0  0  0  0
  3  4  2  0  0  0  0
  4  5  1  0  0  0  0
  5  9  1  0  0  0  0
  6  5  2  0  0  0  0
  7  1  1  0  0  0  0
  8  3  1  0  0  0  0
 10  2  1  0  0  0  0
 11 10  1  0  0  0  0
 12 11  1  0  0  0  0
 13 11  1  0  0  0  0
 14 13  1  0  0  0  0
 15 16  1  0  0  0  0
 15 17  1  0  0  0  0
 15 13  1  0  0  0  0
 17 18  1  0  0  0  0
 18 10  1  0  0  0  0
M  END
>  <minimizedAffinity>
-3.97097874

>  <minimizedRMSD>
0.31313023

$$$$
