
 OpenBabel03212520073D

 18 19  0  0  0  0  0  0  0  0999 V2000
   40.1070   81.9410   61.0620 C   0  0  0  0  0  0  0  0  0  0  0  0
   40.2930   82.7020   59.9030 C   0  0  0  0  0  0  0  0  0  0  0  0
   39.6970   83.9570   59.8520 C   0  0  0  0  0  0  0  0  0  0  0  0
   38.9680   84.3960   60.9090 N   0  0  0  0  0  0  0  0  0  0  0  0
   38.8120   83.6230   62.0220 C   0  0  0  0  0  0  0  0  0  0  0  0
   39.3750   82.4040   62.1000 N   0  0  0  0  0  0  0  0  0  0  0  0
   40.5360   80.9710   61.1630 H   0  0  0  0  0  0  0  0  0  0  0  0
   39.7600   84.6290   59.0380 H   0  0  0  0  0  0  0  0  0  0  0  0
   38.2120   84.0410   62.8300 H   0  0  0  0  0  0  0  0  0  0  0  0
   41.0460   82.2470   58.8160 N   0  0  0  0  0  0  0  0  0  0  0  0
   41.3690   83.0240   57.6370 C   0  0  0  0  0  3  0  0  0  0  0  0
   42.3640   83.4650   57.7010 H   0  0  0  0  0  0  0  0  0  0  0  0
   41.2430   82.0910   56.4410 C   0  0  0  0  0  3  0  0  0  0  0  0
   41.3740   82.6910   55.4950 H   0  0  0  0  0  0  0  0  0  0  0  0
   42.2590   81.0710   56.5070 N   0  0  0  0  0  0  0  0  0  0  0  0
   41.9200   80.1240   56.2220 H   0  0  0  0  0  0  0  0  0  0  0  0
   42.7750   80.9020   57.8470 C   0  0  0  0  0  2  0  0  0  0  0  0
   41.5830   80.9010   58.7970 C   0  0  0  0  0  2  0  0  0  0  0  0
  1  7  1  0  0  0  0
  1  6  1  0  0  0  0
  2  1  2  0  0  0  0
  3  2  1  0  0  0  0
  3  4  2  0  0  0  0
  4  5  1  0  0  0  0
  5  6  2  0  0  0  0
  5  9  1  0  0  0  0
  8  3  1  0  0  0  0
 10  2  1  0  0  0  0
 11 12  1  0  0  0  0
 11 10  1  0  0  0  0
 13 15  1  0  0  0  0
 13 11  1  0  0  0  0
 14 13  1  0  0  0  0
 15 17  1  0  0  0  0
 16 15  1  0  0  0  0
 17 18  1  0  0  0  0
 18 10  1  0  0  0  0
M  END
>  <minimizedAffinity>
-3.73258233

>  <minimizedRMSD>
0.438691705

$$$$
