
 OpenBabel03212520073D

 18 19  0  0  0  0  0  0  0  0999 V2000
   40.0390   81.9440   60.7540 C   0  0  0  0  0  0  0  0  0  0  0  0
   40.1290   82.8110   59.6590 C   0  0  0  0  0  0  0  0  0  0  0  0
   39.5820   84.0820   59.7950 C   0  0  0  0  0  0  0  0  0  0  0  0
   38.9890   84.4350   60.9640 N   0  0  0  0  0  0  0  0  0  0  0  0
   38.9230   83.5600   62.0080 C   0  0  0  0  0  0  0  0  0  0  0  0
   39.4420   82.3230   61.9060 N   0  0  0  0  0  0  0  0  0  0  0  0
   40.4370   80.9570   60.7130 H   0  0  0  0  0  0  0  0  0  0  0  0
   39.5840   84.8290   59.0480 H   0  0  0  0  0  0  0  0  0  0  0  0
   38.4320   83.9130   62.9140 H   0  0  0  0  0  0  0  0  0  0  0  0
   40.7410   82.4450   58.4570 N   0  0  0  0  0  0  0  0  0  0  0  0
   41.9920   82.9790   57.9570 C   0  0  0  0  0  3  0  0  0  0  0  0
   42.8340   82.3270   58.1860 H   0  0  0  0  0  0  0  0  0  0  0  0
   41.8250   83.1750   56.4570 C   0  0  0  0  0  3  0  0  0  0  0  0
   42.7380   83.6990   56.0530 H   0  0  0  0  0  0  0  0  0  0  0  0
   41.6790   81.8970   55.8100 N   0  0  0  0  0  0  0  0  0  0  0  0
   40.9680   81.8920   55.0450 H   0  0  0  0  0  0  0  0  0  0  0  0
   41.2520   80.8650   56.7310 C   0  0  0  0  0  2  0  0  0  0  0  0
   40.1390   81.4540   57.5870 C   0  0  0  0  0  2  0  0  0  0  0  0
  1  6  1  0  0  0  0
  2  3  1  0  0  0  0
  2  1  2  0  0  0  0
  3  4  2  0  0  0  0
  4  5  1  0  0  0  0
  5  9  1  0  0  0  0
  6  5  2  0  0  0  0
  7  1  1  0  0  0  0
  8  3  1  0  0  0  0
 10  2  1  0  0  0  0
 11 12  1  0  0  0  0
 11 10  1  0  0  0  0
 13 11  1  0  0  0  0
 14 13  1  0  0  0  0
 15 13  1  0  0  0  0
 15 17  1  0  0  0  0
 16 15  1  0  0  0  0
 17 18  1  0  0  0  0
 18 10  1  0  0  0  0
M  END
>  <minimizedAffinity>
-4.02453423

>  <minimizedRMSD>
0.197616488

$$$$
