
 OpenBabel03212521053D

 36 39  0  0  0  0  0  0  0  0999 V2000
   41.7930   84.2420   61.5740 C   0  0  0  0  0  0  0  0  0  0  0  0
   41.4440   83.9420   62.8780 C   0  0  0  0  0  0  0  0  0  0  0  0
   40.1640   83.5300   63.2080 C   0  0  0  0  0  0  0  0  0  0  0  0
   39.2080   83.4170   62.1920 C   0  0  0  0  0  0  0  0  0  0  0  0
   39.5700   83.7200   60.8810 C   0  0  0  0  0  0  0  0  0  0  0  0
   40.8390   84.1260   60.5750 C   0  0  0  0  0  0  0  0  0  0  0  0
   42.1610   84.0210   63.6800 H   0  0  0  0  0  0  0  0  0  0  0  0
   39.9330   83.3050   64.2470 H   0  0  0  0  0  0  0  0  0  0  0  0
   38.2140   83.1010   62.4190 H   0  0  0  0  0  0  0  0  0  0  0  0
   38.8080   83.6230   60.1190 H   0  0  0  0  0  0  0  0  0  0  0  0
   41.1680   84.4300   59.2010 C   0  0  0  0  0  0  0  0  0  0  0  0
   40.6790   85.6860   58.8190 C   0  0  0  0  0  0  0  0  0  0  0  0
   40.8930   86.1670   57.5210 C   0  0  0  0  0  0  0  0  0  0  0  0
   41.5800   85.3780   56.6740 N   0  0  0  0  0  0  0  0  0  0  0  0
   42.0490   84.1650   57.0540 C   0  0  0  0  0  0  0  0  0  0  0  0
   41.8470   83.6950   58.3020 N   0  0  0  0  0  0  0  0  0  0  0  0
   40.1210   86.3670   59.4490 H   0  0  0  0  0  0  0  0  0  0  0  0
   40.5280   87.1310   57.1950 H   0  0  0  0  0  0  0  0  0  0  0  0
   42.7790   83.3140   56.1730 N   0  0  0  0  0  0  0  0  0  0  0  0
   42.7600   81.8660   56.2590 C   0  0  0  0  0  3  0  0  0  0  0  0
   41.9260   81.4730   56.8780 H   0  0  0  0  0  0  0  0  0  0  0  0
   42.5380   81.2590   54.8700 C   0  0  0  0  0  3  0  0  0  0  0  0
   42.4240   80.1770   55.0040 H   0  0  0  0  0  0  0  0  0  0  0  0
   43.7410   81.5750   54.1460 N   0  0  0  0  0  0  0  0  0  0  0  0
   44.5640   81.0760   54.5130 H   0  0  0  0  0  0  0  0  0  0  0  0
   43.9140   82.9750   54.0070 C   0  0  0  0  0  2  0  0  0  0  0  0
   43.5880   83.8500   55.1330 C   0  0  0  0  0  2  0  0  0  0  0  0
   45.3420   84.1110   60.6990 C   0  0  0  0  0  0  0  0  0  0  0  0
   45.7280   85.4450   60.7440 C   0  0  0  0  0  0  0  0  0  0  0  0
   44.7590   86.4090   61.0790 C   0  0  0  0  0  0  0  0  0  0  0  0
   43.5000   85.9820   61.3410 N   0  0  0  0  0  0  0  0  0  0  0  0
   43.1540   84.6690   61.2890 C   0  0  0  0  0  0  0  0  0  0  0  0
   44.0780   83.7740   60.9700 N   0  0  0  0  0  0  0  0  0  0  0  0
   46.1240   83.4180   60.4370 H   0  0  0  0  0  0  0  0  0  0  0  0
   46.6880   85.8580   60.5540 H   0  0  0  0  0  0  0  0  0  0  0  0
   44.8900   87.4780   61.1590 H   0  0  0  0  0  0  0  0  0  0  0  0
  1  2  1  0  0  0  0
  2  3  2  0  0  0  0
  2  7  1  0  0  0  0
  3  8  1  0  0  0  0
  4  9  1  0  0  0  0
  4  3  1  0  0  0  0
  5  4  2  0  0  0  0
  6  5  1  0  0  0  0
  6  1  2  0  0  0  0
 10  5  1  0  0  0  0
 11  6  1  0  0  0  0
 12 11  1  0  0  0  0
 12 17  1  0  0  0  0
 13 12  2  0  0  0  0
 14 15  2  0  0  0  0
 14 13  1  0  0  0  0
 15 16  1  0  0  0  0
 16 11  2  0  0  0  0
 18 13  1  0  0  0  0
 19 20  1  0  0  0  0
 19 15  1  0  0  0  0
 20 21  1  0  0  0  0
 22 23  1  0  0  0  0
 22 20  1  0  0  0  0
 24 25  1  0  0  0  0
 24 22  1  0  0  0  0
 26 24  1  0  0  0  0
 26 27  1  0  0  0  0
 27 19  1  0  0  0  0
 28 29  2  0  0  0  0
 28 33  1  0  0  0  0
 29 30  1  0  0  0  0
 30 36  1  0  0  0  0
 30 31  2  0  0  0  0
 32 31  1  0  0  0  0
 32  1  1  0  0  0  0
 33 32  2  0  0  0  0
 34 28  1  0  0  0  0
 35 29  1  0  0  0  0
M  END
>  <minimizedAffinity>
-5.59339285

>  <minimizedRMSD>
0.169178903

$$$$
