
 OpenBabel03212520423D

 18 19  0  0  0  0  0  0  0  0999 V2000
   40.2590   82.0970   60.7450 C   0  0  0  0  0  0  0  0  0  0  0  0
   40.2520   82.9960   59.6700 C   0  0  0  0  0  0  0  0  0  0  0  0
   39.5380   84.1840   59.8060 C   0  0  0  0  0  0  0  0  0  0  0  0
   38.8800   84.4120   60.9820 N   0  0  0  0  0  0  0  0  0  0  0  0
   38.9130   83.5190   61.9940 C   0  0  0  0  0  0  0  0  0  0  0  0
   39.5930   82.3740   61.8790 N   0  0  0  0  0  0  0  0  0  0  0  0
   40.7930   82.7360   58.7890 H   0  0  0  0  0  0  0  0  0  0  0  0
   39.5200   84.8910   58.9860 H   0  0  0  0  0  0  0  0  0  0  0  0
   38.3400   83.8340   62.8780 H   0  0  0  0  0  0  0  0  0  0  0  0
   40.9440   80.8570   60.7360 N   0  0  0  0  0  0  0  0  0  0  0  0
   40.9280   79.9080   59.6380 C   0  0  0  0  0  0  0  0  0  0  0  0
   41.9790   79.7420   59.3230 H   0  0  0  0  0  0  0  0  0  0  0  0
   40.2430   78.6390   60.0470 C   0  0  0  0  0  0  0  0  0  0  0  0
   39.1650   78.7400   59.7530 H   0  0  0  0  0  0  0  0  0  0  0  0
   40.2700   78.3750   61.4520 N   0  0  0  0  0  0  0  0  0  0  0  0
   40.3300   77.3260   61.5700 H   0  0  0  0  0  0  0  0  0  0  0  0
   41.3730   78.9190   62.1680 C   0  0  0  0  0  0  0  0  0  0  0  0
   41.7670   80.3220   61.8010 C   0  0  0  0  0  0  0  0  0  0  0  0
  1  6  1  0  0  0  0
  2  3  1  0  0  0  0
  2  1  2  0  0  0  0
  3  4  2  0  0  0  0
  4  5  1  0  0  0  0
  5  9  1  0  0  0  0
  6  5  2  0  0  0  0
  7  2  1  0  0  0  0
  8  3  1  0  0  0  0
 10  1  1  0  0  0  0
 10 18  1  0  0  0  0
 11 13  1  0  0  0  0
 11 10  1  0  0  0  0
 12 11  1  0  0  0  0
 13 15  1  0  0  0  0
 14 13  1  0  0  0  0
 15 16  1  0  0  0  0
 15 17  1  0  0  0  0
 18 17  1  0  0  0  0
M  END
>  <minimizedAffinity>
-4.46229601

>  <minimizedRMSD>
0.403860211

$$$$
