
 OpenBabel03212521043D

 36 39  0  0  0  0  0  0  0  0999 V2000
   41.8060   84.2480   61.5740 C   0  0  0  0  0  0  0  0  0  0  0  0
   41.4590   83.9600   62.8810 C   0  0  0  0  0  0  0  0  0  0  0  0
   40.1840   83.5400   63.2160 C   0  0  0  0  0  0  0  0  0  0  0  0
   39.2290   83.4060   62.2010 C   0  0  0  0  0  0  0  0  0  0  0  0
   39.5880   83.6970   60.8870 C   0  0  0  0  0  0  0  0  0  0  0  0
   40.8530   84.1120   60.5760 C   0  0  0  0  0  0  0  0  0  0  0  0
   42.1760   84.0550   63.6820 H   0  0  0  0  0  0  0  0  0  0  0  0
   39.9550   83.3240   64.2580 H   0  0  0  0  0  0  0  0  0  0  0  0
   38.2380   83.0830   62.4310 H   0  0  0  0  0  0  0  0  0  0  0  0
   38.8280   83.5840   60.1260 H   0  0  0  0  0  0  0  0  0  0  0  0
   41.1800   84.4030   59.1990 C   0  0  0  0  0  0  0  0  0  0  0  0
   40.7190   85.6680   58.8150 C   0  0  0  0  0  0  0  0  0  0  0  0
   40.9350   86.1400   57.5150 C   0  0  0  0  0  0  0  0  0  0  0  0
   41.5960   85.3320   56.6660 N   0  0  0  0  0  0  0  0  0  0  0  0
   42.0390   84.1090   57.0470 C   0  0  0  0  0  0  0  0  0  0  0  0
   41.8340   83.6480   58.2970 N   0  0  0  0  0  0  0  0  0  0  0  0
   40.1820   86.3660   59.4470 H   0  0  0  0  0  0  0  0  0  0  0  0
   40.5910   87.1120   57.1880 H   0  0  0  0  0  0  0  0  0  0  0  0
   42.7420   83.2380   56.1630 N   0  0  0  0  0  0  0  0  0  0  0  0
   42.1010   82.4890   55.0990 C   0  0  0  0  0  3  0  0  0  0  0  0
   41.0810   82.8570   54.8530 H   0  0  0  0  0  0  0  0  0  0  0  0
   42.8970   82.6360   53.7990 C   0  0  0  0  0  3  0  0  0  0  0  0
   42.3170   82.1480   53.0080 H   0  0  0  0  0  0  0  0  0  0  0  0
   44.1300   81.9420   54.0540 N   0  0  0  0  0  0  0  0  0  0  0  0
   43.9970   80.9270   54.1560 H   0  0  0  0  0  0  0  0  0  0  0  0
   44.8640   82.5500   55.1050 C   0  0  0  0  0  2  0  0  0  0  0  0
   44.1470   83.0490   56.2780 C   0  0  0  0  0  2  0  0  0  0  0  0
   45.3470   84.1470   60.6630 C   0  0  0  0  0  0  0  0  0  0  0  0
   45.7290   85.4800   60.7290 C   0  0  0  0  0  0  0  0  0  0  0  0
   44.7600   86.4350   61.0920 C   0  0  0  0  0  0  0  0  0  0  0  0
   43.5050   85.9980   61.3570 N   0  0  0  0  0  0  0  0  0  0  0  0
   43.1630   84.6860   61.2840 C   0  0  0  0  0  0  0  0  0  0  0  0
   44.0860   83.7990   60.9400 N   0  0  0  0  0  0  0  0  0  0  0  0
   46.1290   83.4610   60.3810 H   0  0  0  0  0  0  0  0  0  0  0  0
   46.6850   85.9000   60.5380 H   0  0  0  0  0  0  0  0  0  0  0  0
   44.8880   87.5020   61.1910 H   0  0  0  0  0  0  0  0  0  0  0  0
  1  2  1  0  0  0  0
  2  3  2  0  0  0  0
  2  7  1  0  0  0  0
  3  8  1  0  0  0  0
  4  9  1  0  0  0  0
  4  3  1  0  0  0  0
  5  4  2  0  0  0  0
  6  5  1  0  0  0  0
  6  1  2  0  0  0  0
 10  5  1  0  0  0  0
 11  6  1  0  0  0  0
 12 11  1  0  0  0  0
 12 17  1  0  0  0  0
 13 12  2  0  0  0  0
 14 15  2  0  0  0  0
 14 13  1  0  0  0  0
 15 16  1  0  0  0  0
 16 11  2  0  0  0  0
 18 13  1  0  0  0  0
 19 27  1  0  0  0  0
 19 15  1  0  0  0  0
 20 19  1  0  0  0  0
 21 20  1  0  0  0  0
 22 24  1  0  0  0  0
 22 20  1  0  0  0  0
 23 22  1  0  0  0  0
 24 25  1  0  0  0  0
 24 26  1  0  0  0  0
 26 27  1  0  0  0  0
 28 29  2  0  0  0  0
 28 33  1  0  0  0  0
 29 30  1  0  0  0  0
 30 36  1  0  0  0  0
 30 31  2  0  0  0  0
 32 31  1  0  0  0  0
 32  1  1  0  0  0  0
 33 32  2  0  0  0  0
 34 28  1  0  0  0  0
 35 29  1  0  0  0  0
M  END
>  <minimizedAffinity>
-5.6580596

>  <minimizedRMSD>
0.15933232

$$$$
