
 OpenBabel03212521043D

 36 39  0  0  0  0  0  0  0  0999 V2000
   41.8050   84.2380   61.5590 C   0  0  0  0  0  0  0  0  0  0  0  0
   41.4770   83.9260   62.8660 C   0  0  0  0  0  0  0  0  0  0  0  0
   40.2070   83.4990   63.2110 C   0  0  0  0  0  0  0  0  0  0  0  0
   39.2380   83.3820   62.2070 C   0  0  0  0  0  0  0  0  0  0  0  0
   39.5780   83.6970   60.8940 C   0  0  0  0  0  0  0  0  0  0  0  0
   40.8380   84.1190   60.5720 C   0  0  0  0  0  0  0  0  0  0  0  0
   42.2050   84.0080   63.6580 H   0  0  0  0  0  0  0  0  0  0  0  0
   39.9930   83.2640   64.2520 H   0  0  0  0  0  0  0  0  0  0  0  0
   38.2500   83.0540   62.4460 H   0  0  0  0  0  0  0  0  0  0  0  0
   38.8070   83.5970   60.1420 H   0  0  0  0  0  0  0  0  0  0  0  0
   41.1450   84.4350   59.1960 C   0  0  0  0  0  0  0  0  0  0  0  0
   40.7240   85.7270   58.8570 C   0  0  0  0  0  0  0  0  0  0  0  0
   40.9290   86.2250   57.5650 C   0  0  0  0  0  0  0  0  0  0  0  0
   41.5400   85.4160   56.6800 N   0  0  0  0  0  0  0  0  0  0  0  0
   41.9440   84.1680   57.0180 C   0  0  0  0  0  0  0  0  0  0  0  0
   41.7500   83.6810   58.2600 N   0  0  0  0  0  0  0  0  0  0  0  0
   40.2280   86.4260   59.5190 H   0  0  0  0  0  0  0  0  0  0  0  0
   40.6150   87.2180   57.2720 H   0  0  0  0  0  0  0  0  0  0  0  0
   42.5930   83.2950   56.0950 N   0  0  0  0  0  0  0  0  0  0  0  0
   42.7540   81.8710   56.3180 C   0  0  0  0  0  3  0  0  0  0  0  0
   42.0950   81.4730   57.1190 H   0  0  0  0  0  0  0  0  0  0  0  0
   42.3540   81.0940   55.0600 C   0  0  0  0  0  3  0  0  0  0  0  0
   42.3870   80.0290   55.3140 H   0  0  0  0  0  0  0  0  0  0  0  0
   43.3620   81.4380   54.0920 N   0  0  0  0  0  0  0  0  0  0  0  0
   44.2880   81.0620   54.3400 H   0  0  0  0  0  0  0  0  0  0  0  0
   43.3470   82.8230   53.7920 C   0  0  0  0  0  2  0  0  0  0  0  0
   43.1340   83.7840   54.8740 C   0  0  0  0  0  2  0  0  0  0  0  0
   45.3280   84.1590   60.5790 C   0  0  0  0  0  0  0  0  0  0  0  0
   45.7140   85.4880   60.6810 C   0  0  0  0  0  0  0  0  0  0  0  0
   44.7550   86.4330   61.0910 C   0  0  0  0  0  0  0  0  0  0  0  0
   43.5040   85.9910   61.3660 N   0  0  0  0  0  0  0  0  0  0  0  0
   43.1570   84.6820   61.2570 C   0  0  0  0  0  0  0  0  0  0  0  0
   44.0720   83.8050   60.8680 N   0  0  0  0  0  0  0  0  0  0  0  0
   46.1030   83.4810   60.2600 H   0  0  0  0  0  0  0  0  0  0  0  0
   46.6680   85.9120   60.4850 H   0  0  0  0  0  0  0  0  0  0  0  0
   44.8870   87.4960   61.2220 H   0  0  0  0  0  0  0  0  0  0  0  0
  1  2  1  0  0  0  0
  2  3  2  0  0  0  0
  2  7  1  0  0  0  0
  3  8  1  0  0  0  0
  4  9  1  0  0  0  0
  4  3  1  0  0  0  0
  5  4  2  0  0  0  0
  6  5  1  0  0  0  0
  6  1  2  0  0  0  0
 10  5  1  0  0  0  0
 11  6  1  0  0  0  0
 12 11  1  0  0  0  0
 12 17  1  0  0  0  0
 13 12  2  0  0  0  0
 14 15  2  0  0  0  0
 14 13  1  0  0  0  0
 15 16  1  0  0  0  0
 16 11  2  0  0  0  0
 18 13  1  0  0  0  0
 19 20  1  0  0  0  0
 19 15  1  0  0  0  0
 20 21  1  0  0  0  0
 22 23  1  0  0  0  0
 22 20  1  0  0  0  0
 24 25  1  0  0  0  0
 24 22  1  0  0  0  0
 26 24  1  0  0  0  0
 26 27  1  0  0  0  0
 27 19  1  0  0  0  0
 28 29  2  0  0  0  0
 28 33  1  0  0  0  0
 29 30  1  0  0  0  0
 30 36  1  0  0  0  0
 30 31  2  0  0  0  0
 32 31  1  0  0  0  0
 32  1  1  0  0  0  0
 33 32  2  0  0  0  0
 34 28  1  0  0  0  0
 35 29  1  0  0  0  0
M  END
>  <minimizedAffinity>
-5.60635424

>  <minimizedRMSD>
0.292324066

$$$$
