
 OpenBabel03212521043D

 36 39  0  0  0  0  0  0  0  0999 V2000
   41.8100   84.2380   61.5640 C   0  0  0  0  0  0  0  0  0  0  0  0
   41.4810   83.9220   62.8700 C   0  0  0  0  0  0  0  0  0  0  0  0
   40.2110   83.4930   63.2130 C   0  0  0  0  0  0  0  0  0  0  0  0
   39.2430   83.3780   62.2090 C   0  0  0  0  0  0  0  0  0  0  0  0
   39.5830   83.6970   60.8960 C   0  0  0  0  0  0  0  0  0  0  0  0
   40.8430   84.1210   60.5760 C   0  0  0  0  0  0  0  0  0  0  0  0
   42.2090   84.0020   63.6620 H   0  0  0  0  0  0  0  0  0  0  0  0
   39.9980   83.2550   64.2530 H   0  0  0  0  0  0  0  0  0  0  0  0
   38.2560   83.0480   62.4460 H   0  0  0  0  0  0  0  0  0  0  0  0
   38.8130   83.5980   60.1440 H   0  0  0  0  0  0  0  0  0  0  0  0
   41.1500   84.4420   59.2010 C   0  0  0  0  0  0  0  0  0  0  0  0
   40.6860   85.7160   58.8520 C   0  0  0  0  0  0  0  0  0  0  0  0
   40.8840   86.2150   57.5590 C   0  0  0  0  0  0  0  0  0  0  0  0
   41.5310   85.4250   56.6830 N   0  0  0  0  0  0  0  0  0  0  0  0
   41.9760   84.1930   57.0310 C   0  0  0  0  0  0  0  0  0  0  0  0
   41.7890   83.7050   58.2740 N   0  0  0  0  0  0  0  0  0  0  0  0
   40.1600   86.4000   59.5070 H   0  0  0  0  0  0  0  0  0  0  0  0
   40.5380   87.1950   57.2590 H   0  0  0  0  0  0  0  0  0  0  0  0
   42.6640   83.3400   56.1180 N   0  0  0  0  0  0  0  0  0  0  0  0
   42.9510   83.7020   54.7430 C   0  0  0  0  0  3  0  0  0  0  0  0
   42.8420   84.7900   54.5420 H   0  0  0  0  0  0  0  0  0  0  0  0
   44.4120   83.3850   54.4110 C   0  0  0  0  0  3  0  0  0  0  0  0
   44.6060   83.7760   53.4040 H   0  0  0  0  0  0  0  0  0  0  0  0
   44.4820   81.9490   54.4400 N   0  0  0  0  0  0  0  0  0  0  0  0
   43.9470   81.5120   53.6780 H   0  0  0  0  0  0  0  0  0  0  0  0
   44.1910   81.4390   55.7310 C   0  0  0  0  0  2  0  0  0  0  0  0
   43.1180   82.0510   56.5140 C   0  0  0  0  0  2  0  0  0  0  0  0
   45.3380   84.1630   60.6030 C   0  0  0  0  0  0  0  0  0  0  0  0
   45.7180   85.4960   60.6910 C   0  0  0  0  0  0  0  0  0  0  0  0
   44.7520   86.4410   61.0860 C   0  0  0  0  0  0  0  0  0  0  0  0
   43.5020   85.9960   61.3600 N   0  0  0  0  0  0  0  0  0  0  0  0
   43.1610   84.6850   61.2640 C   0  0  0  0  0  0  0  0  0  0  0  0
   44.0810   83.8080   60.8890 N   0  0  0  0  0  0  0  0  0  0  0  0
   46.1170   83.4850   60.2950 H   0  0  0  0  0  0  0  0  0  0  0  0
   46.6710   85.9210   60.4950 H   0  0  0  0  0  0  0  0  0  0  0  0
   44.8800   87.5060   61.2050 H   0  0  0  0  0  0  0  0  0  0  0  0
  1  2  1  0  0  0  0
  2  3  2  0  0  0  0
  2  7  1  0  0  0  0
  3  8  1  0  0  0  0
  4  9  1  0  0  0  0
  4  3  1  0  0  0  0
  5  4  2  0  0  0  0
  6  5  1  0  0  0  0
  6  1  2  0  0  0  0
 10  5  1  0  0  0  0
 11  6  1  0  0  0  0
 12 11  1  0  0  0  0
 12 17  1  0  0  0  0
 13 12  2  0  0  0  0
 14 15  2  0  0  0  0
 14 13  1  0  0  0  0
 15 16  1  0  0  0  0
 16 11  2  0  0  0  0
 18 13  1  0  0  0  0
 19 27  1  0  0  0  0
 19 15  1  0  0  0  0
 20 19  1  0  0  0  0
 21 20  1  0  0  0  0
 22 24  1  0  0  0  0
 22 20  1  0  0  0  0
 23 22  1  0  0  0  0
 24 26  1  0  0  0  0
 25 24  1  0  0  0  0
 26 27  1  0  0  0  0
 28 29  2  0  0  0  0
 28 33  1  0  0  0  0
 29 30  1  0  0  0  0
 30 36  1  0  0  0  0
 30 31  2  0  0  0  0
 32 31  1  0  0  0  0
 32  1  1  0  0  0  0
 33 32  2  0  0  0  0
 34 28  1  0  0  0  0
 35 29  1  0  0  0  0
M  END
>  <minimizedAffinity>
-5.58946848

>  <minimizedRMSD>
0.250582337

$$$$
