
 OpenBabel03212521053D

 36 39  0  0  0  0  0  0  0  0999 V2000
   41.7970   84.2450   61.5620 C   0  0  0  0  0  0  0  0  0  0  0  0
   41.4560   83.9420   62.8670 C   0  0  0  0  0  0  0  0  0  0  0  0
   40.1810   83.5210   63.2030 C   0  0  0  0  0  0  0  0  0  0  0  0
   39.2210   83.4020   62.1910 C   0  0  0  0  0  0  0  0  0  0  0  0
   39.5740   83.7080   60.8790 C   0  0  0  0  0  0  0  0  0  0  0  0
   40.8390   84.1230   60.5670 C   0  0  0  0  0  0  0  0  0  0  0  0
   42.1760   84.0260   63.6660 H   0  0  0  0  0  0  0  0  0  0  0  0
   39.9560   83.2940   64.2430 H   0  0  0  0  0  0  0  0  0  0  0  0
   38.2300   83.0780   62.4220 H   0  0  0  0  0  0  0  0  0  0  0  0
   38.8100   83.6050   60.1210 H   0  0  0  0  0  0  0  0  0  0  0  0
   41.1600   84.4300   59.1920 C   0  0  0  0  0  0  0  0  0  0  0  0
   40.7180   85.7080   58.8310 C   0  0  0  0  0  0  0  0  0  0  0  0
   40.9320   86.1960   57.5360 C   0  0  0  0  0  0  0  0  0  0  0  0
   41.5720   85.3900   56.6700 N   0  0  0  0  0  0  0  0  0  0  0  0
   41.9970   84.1540   57.0290 C   0  0  0  0  0  0  0  0  0  0  0  0
   41.7940   83.6780   58.2740 N   0  0  0  0  0  0  0  0  0  0  0  0
   40.1980   86.4050   59.4780 H   0  0  0  0  0  0  0  0  0  0  0  0
   40.6020   87.1780   57.2270 H   0  0  0  0  0  0  0  0  0  0  0  0
   42.6780   83.2840   56.1260 N   0  0  0  0  0  0  0  0  0  0  0  0
   43.6600   82.3030   56.5470 C   0  0  0  0  0  3  0  0  0  0  0  0
   43.6340   82.0940   57.6380 H   0  0  0  0  0  0  0  0  0  0  0  0
   43.3730   80.9530   55.8820 C   0  0  0  0  0  3  0  0  0  0  0  0
   44.0700   80.2260   56.3140 H   0  0  0  0  0  0  0  0  0  0  0  0
   43.6430   81.1780   54.4870 N   0  0  0  0  0  0  0  0  0  0  0  0
   44.6410   81.3460   54.3010 H   0  0  0  0  0  0  0  0  0  0  0  0
   42.7690   82.1490   53.9370 C   0  0  0  0  0  2  0  0  0  0  0  0
   42.4260   83.3300   54.7270 C   0  0  0  0  0  2  0  0  0  0  0  0
   45.3310   84.1460   60.6270 C   0  0  0  0  0  0  0  0  0  0  0  0
   45.7190   85.4770   60.7130 C   0  0  0  0  0  0  0  0  0  0  0  0
   44.7560   86.4290   61.0980 C   0  0  0  0  0  0  0  0  0  0  0  0
   43.5010   85.9920   61.3640 N   0  0  0  0  0  0  0  0  0  0  0  0
   43.1540   84.6830   61.2700 C   0  0  0  0  0  0  0  0  0  0  0  0
   44.0710   83.7990   60.9050 N   0  0  0  0  0  0  0  0  0  0  0  0
   46.1090   83.4620   60.3270 H   0  0  0  0  0  0  0  0  0  0  0  0
   46.6760   85.8960   60.5230 H   0  0  0  0  0  0  0  0  0  0  0  0
   44.8880   87.4940   61.2150 H   0  0  0  0  0  0  0  0  0  0  0  0
  1  2  1  0  0  0  0
  2  3  2  0  0  0  0
  2  7  1  0  0  0  0
  3  8  1  0  0  0  0
  4  9  1  0  0  0  0
  4  3  1  0  0  0  0
  5  4  2  0  0  0  0
  6  5  1  0  0  0  0
  6  1  2  0  0  0  0
 10  5  1  0  0  0  0
 11  6  1  0  0  0  0
 12 11  1  0  0  0  0
 12 17  1  0  0  0  0
 13 12  2  0  0  0  0
 14 15  2  0  0  0  0
 14 13  1  0  0  0  0
 15 16  1  0  0  0  0
 16 11  2  0  0  0  0
 18 13  1  0  0  0  0
 19 20  1  0  0  0  0
 19 15  1  0  0  0  0
 20 21  1  0  0  0  0
 22 23  1  0  0  0  0
 22 20  1  0  0  0  0
 24 22  1  0  0  0  0
 25 24  1  0  0  0  0
 26 24  1  0  0  0  0
 26 27  1  0  0  0  0
 27 19  1  0  0  0  0
 28 29  2  0  0  0  0
 28 33  1  0  0  0  0
 29 30  1  0  0  0  0
 30 36  1  0  0  0  0
 30 31  2  0  0  0  0
 32 31  1  0  0  0  0
 32  1  1  0  0  0  0
 33 32  2  0  0  0  0
 34 28  1  0  0  0  0
 35 29  1  0  0  0  0
M  END
>  <minimizedAffinity>
-5.62465382

>  <minimizedRMSD>
0.226201102

$$$$
