
 OpenBabel03212521043D

 36 39  0  0  0  0  0  0  0  0999 V2000
   41.8030   84.2420   61.5680 C   0  0  0  0  0  0  0  0  0  0  0  0
   41.4690   83.9260   62.8720 C   0  0  0  0  0  0  0  0  0  0  0  0
   40.1960   83.5010   63.2100 C   0  0  0  0  0  0  0  0  0  0  0  0
   39.2310   83.3910   62.2030 C   0  0  0  0  0  0  0  0  0  0  0  0
   39.5770   83.7110   60.8920 C   0  0  0  0  0  0  0  0  0  0  0  0
   40.8400   84.1290   60.5770 C   0  0  0  0  0  0  0  0  0  0  0  0
   42.1930   84.0020   63.6680 H   0  0  0  0  0  0  0  0  0  0  0  0
   39.9770   83.2630   64.2500 H   0  0  0  0  0  0  0  0  0  0  0  0
   38.2410   83.0660   62.4360 H   0  0  0  0  0  0  0  0  0  0  0  0
   38.8090   83.6160   60.1360 H   0  0  0  0  0  0  0  0  0  0  0  0
   41.1530   84.4500   59.2030 C   0  0  0  0  0  0  0  0  0  0  0  0
   40.6600   85.7090   58.8420 C   0  0  0  0  0  0  0  0  0  0  0  0
   40.8590   86.2060   57.5480 C   0  0  0  0  0  0  0  0  0  0  0  0
   41.5360   85.4280   56.6840 N   0  0  0  0  0  0  0  0  0  0  0  0
   42.0100   84.2100   57.0440 C   0  0  0  0  0  0  0  0  0  0  0  0
   41.8220   83.7250   58.2880 N   0  0  0  0  0  0  0  0  0  0  0  0
   40.1090   86.3830   59.4860 H   0  0  0  0  0  0  0  0  0  0  0  0
   40.4910   87.1740   57.2370 H   0  0  0  0  0  0  0  0  0  0  0  0
   42.7310   83.3700   56.1440 N   0  0  0  0  0  0  0  0  0  0  0  0
   43.2960   83.8350   54.8920 C   0  0  0  0  0  3  0  0  0  0  0  0
   43.3640   84.9430   54.8230 H   0  0  0  0  0  0  0  0  0  0  0  0
   44.7390   83.3430   54.7520 C   0  0  0  0  0  3  0  0  0  0  0  0
   45.1530   83.8090   53.8500 H   0  0  0  0  0  0  0  0  0  0  0  0
   44.6180   81.9180   54.6010 N   0  0  0  0  0  0  0  0  0  0  0  0
   44.1720   81.6530   53.7120 H   0  0  0  0  0  0  0  0  0  0  0  0
   44.0460   81.3180   55.7510 C   0  0  0  0  0  2  0  0  0  0  0  0
   42.9400   81.9930   56.4300 C   0  0  0  0  0  2  0  0  0  0  0  0
   45.3420   84.1480   60.6470 C   0  0  0  0  0  0  0  0  0  0  0  0
   45.7200   85.4820   60.7120 C   0  0  0  0  0  0  0  0  0  0  0  0
   44.7510   86.4350   61.0770 C   0  0  0  0  0  0  0  0  0  0  0  0
   43.4970   85.9950   61.3460 N   0  0  0  0  0  0  0  0  0  0  0  0
   43.1580   84.6820   61.2740 C   0  0  0  0  0  0  0  0  0  0  0  0
   44.0830   83.7980   60.9280 N   0  0  0  0  0  0  0  0  0  0  0  0
   46.1250   83.4640   60.3630 H   0  0  0  0  0  0  0  0  0  0  0  0
   46.6760   85.9040   60.5180 H   0  0  0  0  0  0  0  0  0  0  0  0
   44.8760   87.5030   61.1760 H   0  0  0  0  0  0  0  0  0  0  0  0
  1  2  1  0  0  0  0
  2  3  2  0  0  0  0
  2  7  1  0  0  0  0
  3  8  1  0  0  0  0
  4  9  1  0  0  0  0
  4  3  1  0  0  0  0
  5  4  2  0  0  0  0
  6  5  1  0  0  0  0
  6  1  2  0  0  0  0
 10  5  1  0  0  0  0
 11  6  1  0  0  0  0
 12 11  1  0  0  0  0
 12 17  1  0  0  0  0
 13 12  2  0  0  0  0
 14 15  2  0  0  0  0
 14 13  1  0  0  0  0
 15 16  1  0  0  0  0
 16 11  2  0  0  0  0
 18 13  1  0  0  0  0
 19 27  1  0  0  0  0
 19 15  1  0  0  0  0
 20 19  1  0  0  0  0
 21 20  1  0  0  0  0
 22 20  1  0  0  0  0
 23 22  1  0  0  0  0
 24 22  1  0  0  0  0
 24 26  1  0  0  0  0
 25 24  1  0  0  0  0
 26 27  1  0  0  0  0
 28 29  2  0  0  0  0
 28 33  1  0  0  0  0
 29 30  1  0  0  0  0
 30 36  1  0  0  0  0
 30 31  2  0  0  0  0
 32 31  1  0  0  0  0
 32  1  1  0  0  0  0
 33 32  2  0  0  0  0
 34 28  1  0  0  0  0
 35 29  1  0  0  0  0
M  END
>  <minimizedAffinity>
-5.57788897

>  <minimizedRMSD>
0.226286247

$$$$
