
 OpenBabel03212521053D

 36 39  0  0  0  0  0  0  0  0999 V2000
   41.7950   84.2410   61.5550 C   0  0  0  0  0  0  0  0  0  0  0  0
   41.4590   83.9360   62.8620 C   0  0  0  0  0  0  0  0  0  0  0  0
   40.1850   83.5140   63.2020 C   0  0  0  0  0  0  0  0  0  0  0  0
   39.2210   83.3960   62.1940 C   0  0  0  0  0  0  0  0  0  0  0  0
   39.5690   83.7050   60.8810 C   0  0  0  0  0  0  0  0  0  0  0  0
   40.8330   84.1200   60.5640 C   0  0  0  0  0  0  0  0  0  0  0  0
   42.1820   84.0190   63.6570 H   0  0  0  0  0  0  0  0  0  0  0  0
   39.9650   83.2850   64.2430 H   0  0  0  0  0  0  0  0  0  0  0  0
   38.2310   83.0720   62.4280 H   0  0  0  0  0  0  0  0  0  0  0  0
   38.8020   83.6030   60.1250 H   0  0  0  0  0  0  0  0  0  0  0  0
   41.1480   84.4300   59.1880 C   0  0  0  0  0  0  0  0  0  0  0  0
   40.7500   85.7280   58.8470 C   0  0  0  0  0  0  0  0  0  0  0  0
   40.9670   86.2210   57.5540 C   0  0  0  0  0  0  0  0  0  0  0  0
   41.5650   85.4010   56.6710 N   0  0  0  0  0  0  0  0  0  0  0  0
   41.9470   84.1460   57.0120 C   0  0  0  0  0  0  0  0  0  0  0  0
   41.7420   83.6640   58.2540 N   0  0  0  0  0  0  0  0  0  0  0  0
   40.2650   86.4370   59.5070 H   0  0  0  0  0  0  0  0  0  0  0  0
   40.6710   87.2190   57.2590 H   0  0  0  0  0  0  0  0  0  0  0  0
   42.5830   83.2610   56.0920 N   0  0  0  0  0  0  0  0  0  0  0  0
   41.9120   82.1370   55.4670 C   0  0  0  0  0  3  0  0  0  0  0  0
   40.8040   82.1860   55.5450 H   0  0  0  0  0  0  0  0  0  0  0  0
   42.1990   82.1220   53.9630 C   0  0  0  0  0  3  0  0  0  0  0  0
   41.5860   81.3270   53.5240 H   0  0  0  0  0  0  0  0  0  0  0  0
   43.6020   81.8190   53.8700 N   0  0  0  0  0  0  0  0  0  0  0  0
   43.8190   80.8620   54.1790 H   0  0  0  0  0  0  0  0  0  0  0  0
   44.3960   82.8280   54.4720 C   0  0  0  0  0  2  0  0  0  0  0  0
   43.9460   83.4340   55.7260 C   0  0  0  0  0  2  0  0  0  0  0  0
   45.3210   84.1470   60.5880 C   0  0  0  0  0  0  0  0  0  0  0  0
   45.7120   85.4750   60.6920 C   0  0  0  0  0  0  0  0  0  0  0  0
   44.7560   86.4230   61.1000 C   0  0  0  0  0  0  0  0  0  0  0  0
   43.5020   85.9860   61.3700 N   0  0  0  0  0  0  0  0  0  0  0  0
   43.1500   84.6790   61.2590 C   0  0  0  0  0  0  0  0  0  0  0  0
   44.0620   83.7990   60.8730 N   0  0  0  0  0  0  0  0  0  0  0  0
   46.0940   83.4660   60.2720 H   0  0  0  0  0  0  0  0  0  0  0  0
   46.6690   85.8950   60.5010 H   0  0  0  0  0  0  0  0  0  0  0  0
   44.8930   87.4860   61.2330 H   0  0  0  0  0  0  0  0  0  0  0  0
  1  2  1  0  0  0  0
  2  3  2  0  0  0  0
  2  7  1  0  0  0  0
  3  8  1  0  0  0  0
  4  9  1  0  0  0  0
  4  3  1  0  0  0  0
  5  4  2  0  0  0  0
  6  5  1  0  0  0  0
  6  1  2  0  0  0  0
 10  5  1  0  0  0  0
 11  6  1  0  0  0  0
 12 11  1  0  0  0  0
 12 17  1  0  0  0  0
 13 12  2  0  0  0  0
 14 15  2  0  0  0  0
 14 13  1  0  0  0  0
 15 16  1  0  0  0  0
 16 11  2  0  0  0  0
 18 13  1  0  0  0  0
 19 15  1  0  0  0  0
 20 21  1  0  0  0  0
 20 19  1  0  0  0  0
 22 20  1  0  0  0  0
 23 22  1  0  0  0  0
 24 22  1  0  0  0  0
 24 25  1  0  0  0  0
 24 26  1  0  0  0  0
 26 27  1  0  0  0  0
 27 19  1  0  0  0  0
 28 29  2  0  0  0  0
 28 33  1  0  0  0  0
 29 30  1  0  0  0  0
 30 36  1  0  0  0  0
 30 31  2  0  0  0  0
 32 31  1  0  0  0  0
 32  1  1  0  0  0  0
 33 32  2  0  0  0  0
 34 28  1  0  0  0  0
 35 29  1  0  0  0  0
M  END
>  <minimizedAffinity>
-5.69339561

>  <minimizedRMSD>
0.286747813

$$$$
