
 OpenBabel03212520453D

 18 19  0  0  0  0  0  0  0  0999 V2000
   41.9530   74.3200   59.9570 C   0  0  0  0  0  0  0  0  0  0  0  0
   43.0900   74.9090   59.3880 C   0  0  0  0  0  0  0  0  0  0  0  0
   44.3270   74.3070   59.6050 C   0  0  0  0  0  0  0  0  0  0  0  0
   44.3680   73.1720   60.3660 N   0  0  0  0  0  0  0  0  0  0  0  0
   43.2470   72.6370   60.8960 C   0  0  0  0  0  0  0  0  0  0  0  0
   42.0530   73.2020   60.6960 N   0  0  0  0  0  0  0  0  0  0  0  0
   42.9650   75.7960   58.8090 H   0  0  0  0  0  0  0  0  0  0  0  0
   45.2170   74.7470   59.1750 H   0  0  0  0  0  0  0  0  0  0  0  0
   43.4310   71.7250   61.4830 H   0  0  0  0  0  0  0  0  0  0  0  0
   40.6390   74.8310   59.8120 N   0  0  0  0  0  0  0  0  0  0  0  0
   40.2730   76.2280   59.9490 C   0  0  0  0  0  3  0  0  0  0  0  0
   39.7940   76.5440   59.0000 H   0  0  0  0  0  0  0  0  0  0  0  0
   39.3800   76.4260   61.1380 C   0  0  0  0  0  3  0  0  0  0  0  0
   40.0430   76.6890   62.0040 H   0  0  0  0  0  0  0  0  0  0  0  0
   38.6340   75.2670   61.5190 N   0  0  0  0  0  0  0  0  0  0  0  0
   37.7040   75.6050   61.8910 H   0  0  0  0  0  0  0  0  0  0  0  0
   38.3340   74.3460   60.4760 C   0  0  0  0  0  2  0  0  0  0  0  0
   39.4490   74.0660   59.5080 C   0  0  0  0  0  2  0  0  0  0  0  0
  1  6  1  0  0  0  0
  2  3  1  0  0  0  0
  2  1  2  0  0  0  0
  3  4  2  0  0  0  0
  4  5  1  0  0  0  0
  5  9  1  0  0  0  0
  6  5  2  0  0  0  0
  7  2  1  0  0  0  0
  8  3  1  0  0  0  0
 10 11  1  0  0  0  0
 10  1  1  0  0  0  0
 11 13  1  0  0  0  0
 12 11  1  0  0  0  0
 13 15  1  0  0  0  0
 13 14  1  0  0  0  0
 15 16  1  0  0  0  0
 17 15  1  0  0  0  0
 18 10  1  0  0  0  0
 18 17  1  0  0  0  0
M  END
>  <minimizedAffinity>
-4.23304224

$$$$

 OpenBabel03212520453D

 18 19  0  0  0  0  0  0  0  0999 V2000
   38.8150   75.1760   57.7570 C   0  0  0  0  0  0  0  0  0  0  0  0
   38.9730   74.2170   56.7480 C   0  0  0  0  0  0  0  0  0  0  0  0
   38.3590   74.4430   55.5180 C   0  0  0  0  0  0  0  0  0  0  0  0
   37.6330   75.5900   55.3600 N   0  0  0  0  0  0  0  0  0  0  0  0
   37.5070   76.4890   56.3590 C   0  0  0  0  0  0  0  0  0  0  0  0
   38.0890   76.2870   57.5450 N   0  0  0  0  0  0  0  0  0  0  0  0
   39.5570   73.3500   56.9590 H   0  0  0  0  0  0  0  0  0  0  0  0
   38.4690   73.7140   54.7260 H   0  0  0  0  0  0  0  0  0  0  0  0
   36.8960   77.3630   56.0900 H   0  0  0  0  0  0  0  0  0  0  0  0
   39.3860   75.0670   59.0490 N   0  0  0  0  0  0  0  0  0  0  0  0
   39.3730   73.8660   59.8640 C   0  0  0  0  0  3  0  0  0  0  0  0
   40.4260   73.6070   60.0950 H   0  0  0  0  0  0  0  0  0  0  0  0
   38.5470   74.0750   61.0980 C   0  0  0  0  0  3  0  0  0  0  0  0
   37.5090   73.7220   60.8600 H   0  0  0  0  0  0  0  0  0  0  0  0
   38.4400   75.4370   61.5180 N   0  0  0  0  0  0  0  0  0  0  0  0
   38.3970   75.4340   62.5740 H   0  0  0  0  0  0  0  0  0  0  0  0
   39.5270   76.2860   61.1670 C   0  0  0  0  0  2  0  0  0  0  0  0
   40.0710   76.1150   59.7770 C   0  0  0  0  0  2  0  0  0  0  0  0
  1 10  1  0  0  0  0
  2  7  1  0  0  0  0
  2  1  2  0  0  0  0
  3  2  1  0  0  0  0
  4  3  2  0  0  0  0
  4  5  1  0  0  0  0
  5  6  2  0  0  0  0
  6  1  1  0  0  0  0
  8  3  1  0  0  0  0
  9  5  1  0  0  0  0
 10 18  1  0  0  0  0
 10 11  1  0  0  0  0
 11 12  1  0  0  0  0
 11 13  1  0  0  0  0
 13 15  1  0  0  0  0
 14 13  1  0  0  0  0
 15 16  1  0  0  0  0
 17 15  1  0  0  0  0
 18 17  1  0  0  0  0
M  END
>  <minimizedAffinity>
-4.20559645

$$$$

 OpenBabel03212520453D

 18 19  0  0  0  0  0  0  0  0999 V2000
   41.1750   73.7710   60.9880 C   0  0  0  0  0  0  0  0  0  0  0  0
   41.3310   72.8210   62.0060 C   0  0  0  0  0  0  0  0  0  0  0  0
   42.4940   72.0540   62.0230 C   0  0  0  0  0  0  0  0  0  0  0  0
   43.4230   72.2680   61.0430 N   0  0  0  0  0  0  0  0  0  0  0  0
   43.2330   73.1950   60.0800 C   0  0  0  0  0  0  0  0  0  0  0  0
   42.1230   73.9390   60.0500 N   0  0  0  0  0  0  0  0  0  0  0  0
   40.5540   72.7210   62.7290 H   0  0  0  0  0  0  0  0  0  0  0  0
   42.6330   71.3140   62.8000 H   0  0  0  0  0  0  0  0  0  0  0  0
   44.0620   73.2580   59.3600 H   0  0  0  0  0  0  0  0  0  0  0  0
   40.0430   74.6130   60.8570 N   0  0  0  0  0  0  0  0  0  0  0  0
   38.6650   74.1760   60.9830 C   0  0  0  0  0  3  0  0  0  0  0  0
   38.1960   74.7740   61.7910 H   0  0  0  0  0  0  0  0  0  0  0  0
   37.9460   74.3140   59.6730 C   0  0  0  0  0  3  0  0  0  0  0  0
   38.0340   73.3280   59.1470 H   0  0  0  0  0  0  0  0  0  0  0  0
   38.4900   75.3060   58.7990 N   0  0  0  0  0  0  0  0  0  0  0  0
   37.6810   75.7270   58.2650 H   0  0  0  0  0  0  0  0  0  0  0  0
   39.1600   76.3930   59.4270 C   0  0  0  0  0  2  0  0  0  0  0  0
   40.0560   76.0340   60.5790 C   0  0  0  0  0  2  0  0  0  0  0  0
  1  2  1  0  0  0  0
  2  3  2  0  0  0  0
  2  7  1  0  0  0  0
  3  8  1  0  0  0  0
  4  3  1  0  0  0  0
  5  4  2  0  0  0  0
  6  5  1  0  0  0  0
  6  1  2  0  0  0  0
  9  5  1  0  0  0  0
 10 11  1  0  0  0  0
 10  1  1  0  0  0  0
 11 12  1  0  0  0  0
 13 11  1  0  0  0  0
 14 13  1  0  0  0  0
 15 17  1  0  0  0  0
 15 13  1  0  0  0  0
 16 15  1  0  0  0  0
 17 18  1  0  0  0  0
 18 10  1  0  0  0  0
M  END
>  <minimizedAffinity>
-4.02359056

$$$$

 OpenBabel03212520453D

 18 19  0  0  0  0  0  0  0  0999 V2000
   39.1170   75.1750   58.6900 C   0  0  0  0  0  0  0  0  0  0  0  0
   39.2630   76.1160   59.7170 C   0  0  0  0  0  0  0  0  0  0  0  0
   39.4590   75.6520   61.0160 C   0  0  0  0  0  0  0  0  0  0  0  0
   39.4970   74.3010   61.2210 N   0  0  0  0  0  0  0  0  0  0  0  0
   39.3520   73.4290   60.2010 C   0  0  0  0  0  0  0  0  0  0  0  0
   39.1640   73.8570   58.9490 N   0  0  0  0  0  0  0  0  0  0  0  0
   39.2200   77.1510   59.4670 H   0  0  0  0  0  0  0  0  0  0  0  0
   39.5740   76.3630   61.8240 H   0  0  0  0  0  0  0  0  0  0  0  0
   39.4040   72.3750   60.5130 H   0  0  0  0  0  0  0  0  0  0  0  0
   38.9130   75.5140   57.3290 N   0  0  0  0  0  0  0  0  0  0  0  0
   37.9860   76.5240   56.8550 C   0  0  0  0  0  3  0  0  0  0  0  0
   38.5680   77.2650   56.2700 H   0  0  0  0  0  0  0  0  0  0  0  0
   36.8850   75.8950   56.0540 C   0  0  0  0  0  3  0  0  0  0  0  0
   36.0400   75.6930   56.7640 H   0  0  0  0  0  0  0  0  0  0  0  0
   37.2290   74.6470   55.4470 N   0  0  0  0  0  0  0  0  0  0  0  0
   36.7120   74.5970   54.5270 H   0  0  0  0  0  0  0  0  0  0  0  0
   38.6070   74.4620   55.1400 C   0  0  0  0  0  2  0  0  0  0  0  0
   39.5810   74.9230   56.1870 C   0  0  0  0  0  2  0  0  0  0  0  0
  1  6  2  0  0  0  0
  1  2  1  0  0  0  0
  2  3  2  0  0  0  0
  3  4  1  0  0  0  0
  3  8  1  0  0  0  0
  5  9  1  0  0  0  0
  5  4  2  0  0  0  0
  6  5  1  0  0  0  0
  7  2  1  0  0  0  0
 10  1  1  0  0  0  0
 11 10  1  0  0  0  0
 12 11  1  0  0  0  0
 13 14  1  0  0  0  0
 13 11  1  0  0  0  0
 15 13  1  0  0  0  0
 16 15  1  0  0  0  0
 17 15  1  0  0  0  0
 17 18  1  0  0  0  0
 18 10  1  0  0  0  0
M  END
>  <minimizedAffinity>
-4.0031538

$$$$

 OpenBabel03212520453D

 18 19  0  0  0  0  0  0  0  0999 V2000
   38.3780   74.9310   58.8700 C   0  0  0  0  0  0  0  0  0  0  0  0
   38.3180   74.3300   60.1350 C   0  0  0  0  0  0  0  0  0  0  0  0
   38.9100   74.9900   61.2100 C   0  0  0  0  0  0  0  0  0  0  0  0
   39.5210   76.1900   60.9740 N   0  0  0  0  0  0  0  0  0  0  0  0
   39.5560   76.7330   59.7380 C   0  0  0  0  0  0  0  0  0  0  0  0
   38.9930   76.1130   58.6970 N   0  0  0  0  0  0  0  0  0  0  0  0
   37.8210   73.3920   60.2270 H   0  0  0  0  0  0  0  0  0  0  0  0
   38.8750   74.5430   62.1940 H   0  0  0  0  0  0  0  0  0  0  0  0
   40.0800   77.7000   59.6980 H   0  0  0  0  0  0  0  0  0  0  0  0
   37.8170   74.3660   57.6980 N   0  0  0  0  0  0  0  0  0  0  0  0
   37.9450   72.9760   57.3040 C   0  0  0  0  0  3  0  0  0  0  0  0
   36.9220   72.5610   57.2010 H   0  0  0  0  0  0  0  0  0  0  0  0
   38.7430   72.8570   56.0390 C   0  0  0  0  0  3  0  0  0  0  0  0
   39.8110   72.6940   56.3410 H   0  0  0  0  0  0  0  0  0  0  0  0
   38.7160   74.0200   55.2080 N   0  0  0  0  0  0  0  0  0  0  0  0
   38.7560   73.6860   54.2060 H   0  0  0  0  0  0  0  0  0  0  0  0
   37.5520   74.8330   55.3100 C   0  0  0  0  0  2  0  0  0  0  0  0
   37.0310   75.0620   56.7010 C   0  0  0  0  0  2  0  0  0  0  0  0
  1  2  1  0  0  0  0
  2  7  1  0  0  0  0
  2  3  2  0  0  0  0
  3  8  1  0  0  0  0
  4  3  1  0  0  0  0
  5  4  2  0  0  0  0
  6  1  2  0  0  0  0
  6  5  1  0  0  0  0
  9  5  1  0  0  0  0
 10  1  1  0  0  0  0
 11 10  1  0  0  0  0
 12 11  1  0  0  0  0
 13 14  1  0  0  0  0
 13 11  1  0  0  0  0
 15 17  1  0  0  0  0
 15 13  1  0  0  0  0
 16 15  1  0  0  0  0
 17 18  1  0  0  0  0
 18 10  1  0  0  0  0
M  END
>  <minimizedAffinity>
-3.99904013

$$$$

 OpenBabel03212520453D

 18 19  0  0  0  0  0  0  0  0999 V2000
   41.1990   72.5070   61.1440 C   0  0  0  0  0  0  0  0  0  0  0  0
   42.2380   71.9000   60.4280 C   0  0  0  0  0  0  0  0  0  0  0  0
   43.0270   70.9540   61.0800 C   0  0  0  0  0  0  0  0  0  0  0  0
   42.7450   70.6690   62.3860 N   0  0  0  0  0  0  0  0  0  0  0  0
   41.7330   71.2780   63.0400 C   0  0  0  0  0  0  0  0  0  0  0  0
   40.9670   72.1870   62.4290 N   0  0  0  0  0  0  0  0  0  0  0  0
   42.3870   72.1830   59.4110 H   0  0  0  0  0  0  0  0  0  0  0  0
   43.8350   70.4740   60.5440 H   0  0  0  0  0  0  0  0  0  0  0  0
   41.6230   70.9500   64.0840 H   0  0  0  0  0  0  0  0  0  0  0  0
   40.3260   73.4820   60.6000 N   0  0  0  0  0  0  0  0  0  0  0  0
   40.7440   74.6110   59.7910 C   0  0  0  0  0  3  0  0  0  0  0  0
   40.2120   74.5450   58.8210 H   0  0  0  0  0  0  0  0  0  0  0  0
   40.4760   75.9010   60.5080 C   0  0  0  0  0  3  0  0  0  0  0  0
   41.4140   76.1670   61.0630 H   0  0  0  0  0  0  0  0  0  0  0  0
   39.4220   75.8380   61.4710 N   0  0  0  0  0  0  0  0  0  0  0  0
   38.9390   76.7780   61.4660 H   0  0  0  0  0  0  0  0  0  0  0  0
   38.4090   74.8690   61.2250 C   0  0  0  0  0  2  0  0  0  0  0  0
   38.8860   73.5260   60.7500 C   0  0  0  0  0  2  0  0  0  0  0  0
  1  6  1  0  0  0  0
  2  3  1  0  0  0  0
  2  1  2  0  0  0  0
  3  4  2  0  0  0  0
  4  5  1  0  0  0  0
  5  9  1  0  0  0  0
  6  5  2  0  0  0  0
  7  2  1  0  0  0  0
  8  3  1  0  0  0  0
 10 18  1  0  0  0  0
 10  1  1  0  0  0  0
 11 13  1  0  0  0  0
 11 10  1  0  0  0  0
 12 11  1  0  0  0  0
 13 14  1  0  0  0  0
 13 15  1  0  0  0  0
 16 15  1  0  0  0  0
 17 15  1  0  0  0  0
 18 17  1  0  0  0  0
M  END
>  <minimizedAffinity>
-3.96230268

$$$$

 OpenBabel03212520453D

 18 19  0  0  0  0  0  0  0  0999 V2000
   41.3710   72.7790   59.8990 C   0  0  0  0  0  0  0  0  0  0  0  0
   41.8790   71.7700   59.0700 C   0  0  0  0  0  0  0  0  0  0  0  0
   43.2540   71.5470   59.0650 C   0  0  0  0  0  0  0  0  0  0  0  0
   44.0370   72.3280   59.8680 N   0  0  0  0  0  0  0  0  0  0  0  0
   43.5070   73.2900   60.6520 C   0  0  0  0  0  0  0  0  0  0  0  0
   42.1900   73.5160   60.6690 N   0  0  0  0  0  0  0  0  0  0  0  0
   41.1930   71.2100   58.4760 H   0  0  0  0  0  0  0  0  0  0  0  0
   43.6650   70.7730   58.4310 H   0  0  0  0  0  0  0  0  0  0  0  0
   44.2550   73.8370   61.2450 H   0  0  0  0  0  0  0  0  0  0  0  0
   39.9960   73.1060   59.9980 N   0  0  0  0  0  0  0  0  0  0  0  0
   39.0950   73.2540   58.8700 C   0  0  0  0  0  3  0  0  0  0  0  0
   38.2600   72.5380   59.0120 H   0  0  0  0  0  0  0  0  0  0  0  0
   38.6230   74.6730   58.7540 C   0  0  0  0  0  3  0  0  0  0  0  0
   39.3220   75.1930   58.0480 H   0  0  0  0  0  0  0  0  0  0  0  0
   38.6430   75.4080   59.9810 N   0  0  0  0  0  0  0  0  0  0  0  0
   37.8260   76.0770   59.9550 H   0  0  0  0  0  0  0  0  0  0  0  0
   38.4920   74.6410   61.1700 C   0  0  0  0  0  2  0  0  0  0  0  0
   39.2550   73.3480   61.2190 C   0  0  0  0  0  2  0  0  0  0  0  0
  1 10  1  0  0  0  0
  1  6  1  0  0  0  0
  2  1  2  0  0  0  0
  3  2  1  0  0  0  0
  3  4  2  0  0  0  0
  4  5  1  0  0  0  0
  5  6  2  0  0  0  0
  5  9  1  0  0  0  0
  7  2  1  0  0  0  0
  8  3  1  0  0  0  0
 10 18  1  0  0  0  0
 11 12  1  0  0  0  0
 11 10  1  0  0  0  0
 13 11  1  0  0  0  0
 13 15  1  0  0  0  0
 14 13  1  0  0  0  0
 15 17  1  0  0  0  0
 16 15  1  0  0  0  0
 17 18  1  0  0  0  0
M  END
>  <minimizedAffinity>
-3.90777659

$$$$

 OpenBabel03212520453D

 18 19  0  0  0  0  0  0  0  0999 V2000
   40.7470   75.0950   59.9630 C   0  0  0  0  0  0  0  0  0  0  0  0
   39.9080   76.1540   60.3360 C   0  0  0  0  0  0  0  0  0  0  0  0
   40.3460   77.4570   60.1100 C   0  0  0  0  0  0  0  0  0  0  0  0
   41.5740   77.6350   59.5370 N   0  0  0  0  0  0  0  0  0  0  0  0
   42.3510   76.5860   59.1930 C   0  0  0  0  0  0  0  0  0  0  0  0
   41.9460   75.3300   59.4030 N   0  0  0  0  0  0  0  0  0  0  0  0
   38.9660   75.9220   60.7780 H   0  0  0  0  0  0  0  0  0  0  0  0
   39.7130   78.2880   60.3910 H   0  0  0  0  0  0  0  0  0  0  0  0
   43.3110   76.8790   58.7420 H   0  0  0  0  0  0  0  0  0  0  0  0
   40.4220   73.7270   60.1380 N   0  0  0  0  0  0  0  0  0  0  0  0
   39.8480   73.1580   61.3430 C   0  0  0  0  0  3  0  0  0  0  0  0
   38.8920   72.6710   61.0620 H   0  0  0  0  0  0  0  0  0  0  0  0
   40.8110   72.2060   61.9880 C   0  0  0  0  0  3  0  0  0  0  0  0
   41.3940   72.7940   62.7450 H   0  0  0  0  0  0  0  0  0  0  0  0
   41.7600   71.6220   61.0910 N   0  0  0  0  0  0  0  0  0  0  0  0
   41.9490   70.6410   61.4350 H   0  0  0  0  0  0  0  0  0  0  0  0
   41.3410   71.4950   59.7360 C   0  0  0  0  0  2  0  0  0  0  0  0
   40.6010   72.6700   59.1640 C   0  0  0  0  0  2  0  0  0  0  0  0
  1 10  1  0  0  0  0
  1  2  1  0  0  0  0
  2  7  1  0  0  0  0
  3  2  2  0  0  0  0
  3  8  1  0  0  0  0
  4  3  1  0  0  0  0
  5  6  1  0  0  0  0
  5  4  2  0  0  0  0
  6  1  2  0  0  0  0
  9  5  1  0  0  0  0
 10 11  1  0  0  0  0
 11 13  1  0  0  0  0
 12 11  1  0  0  0  0
 13 14  1  0  0  0  0
 15 16  1  0  0  0  0
 15 13  1  0  0  0  0
 17 15  1  0  0  0  0
 18 17  1  0  0  0  0
 18 10  1  0  0  0  0
M  END
>  <minimizedAffinity>
-3.8658464

$$$$

 OpenBabel03212520453D

 18 19  0  0  0  0  0  0  0  0999 V2000
   39.7550   72.7160   59.2960 C   0  0  0  0  0  0  0  0  0  0  0  0
   39.4140   71.8300   58.2650 C   0  0  0  0  0  0  0  0  0  0  0  0
   40.2670   70.7610   58.0020 C   0  0  0  0  0  0  0  0  0  0  0  0
   41.3950   70.6320   58.7640 N   0  0  0  0  0  0  0  0  0  0  0  0
   41.6860   71.5090   59.7480 C   0  0  0  0  0  0  0  0  0  0  0  0
   40.8780   72.5400   60.0130 N   0  0  0  0  0  0  0  0  0  0  0  0
   38.5140   72.0070   57.7220 H   0  0  0  0  0  0  0  0  0  0  0  0
   40.0220   70.0660   57.2100 H   0  0  0  0  0  0  0  0  0  0  0  0
   42.6240   71.2820   60.2770 H   0  0  0  0  0  0  0  0  0  0  0  0
   38.9750   73.8400   59.6640 N   0  0  0  0  0  0  0  0  0  0  0  0
   38.3850   74.7820   58.7320 C   0  0  0  0  0  3  0  0  0  0  0  0
   37.2910   74.7900   58.9110 H   0  0  0  0  0  0  0  0  0  0  0  0
   39.0040   76.1390   58.8890 C   0  0  0  0  0  3  0  0  0  0  0  0
   39.8500   76.2000   58.1540 H   0  0  0  0  0  0  0  0  0  0  0  0
   39.5550   76.3940   60.1840 N   0  0  0  0  0  0  0  0  0  0  0  0
   39.4130   77.4220   60.3850 H   0  0  0  0  0  0  0  0  0  0  0  0
   38.9570   75.6910   61.2670 C   0  0  0  0  0  2  0  0  0  0  0  0
   38.6340   74.2450   61.0120 C   0  0  0  0  0  2  0  0  0  0  0  0
  1 10  1  0  0  0  0
  1  6  1  0  0  0  0
  2  1  2  0  0  0  0
  3  2  1  0  0  0  0
  3  4  2  0  0  0  0
  4  5  1  0  0  0  0
  5  6  2  0  0  0  0
  5  9  1  0  0  0  0
  7  2  1  0  0  0  0
  8  3  1  0  0  0  0
 10 18  1  0  0  0  0
 11 13  1  0  0  0  0
 11 12  1  0  0  0  0
 11 10  1  0  0  0  0
 13 15  1  0  0  0  0
 14 13  1  0  0  0  0
 15 16  1  0  0  0  0
 15 17  1  0  0  0  0
 18 17  1  0  0  0  0
M  END
>  <minimizedAffinity>
-3.75918937

$$$$
