
 OpenBabel03212520033D

 31 34  0  0  0  0  0  0  0  0999 V2000
   39.9400   77.3500   59.7600 C   0  0  0  0  0  0  0  0  0  0  0  0
   39.2790   77.2210   58.5030 C   0  0  0  0  0  0  0  0  0  0  0  0
   39.2740   75.9660   57.9240 C   0  0  0  0  0  0  0  0  0  0  0  0
   39.8800   74.9480   58.5620 N   0  0  0  0  0  0  0  0  0  0  0  0
   40.4990   75.0970   59.7510 C   0  0  0  0  0  0  0  0  0  0  0  0
   40.5280   76.2930   60.3460 N   0  0  0  0  0  0  0  0  0  0  0  0
   39.9460   78.3420   60.2190 H   0  0  0  0  0  0  0  0  0  0  0  0
   38.8010   78.0620   58.0190 H   0  0  0  0  0  0  0  0  0  0  0  0
   42.4190   73.5730   59.9450 C   0  0  0  0  0  0  0  0  0  0  0  0
   41.1440   73.9550   60.4030 C   0  0  0  0  0  0  0  0  0  0  0  0
   40.5340   73.2730   61.4250 C   0  0  0  0  0  0  0  0  0  0  0  0
   41.1480   72.1910   62.0410 C   0  0  0  0  0  0  0  0  0  0  0  0
   40.8590   71.3280   63.0290 N   0  0  0  0  0  0  0  0  0  0  0  0
   41.8920   70.4490   63.1880 C   0  0  0  0  0  0  0  0  0  0  0  0
   42.8240   70.8010   62.2670 N   0  0  0  0  0  0  0  0  0  0  0  0
   42.4020   71.8610   61.5500 C   0  0  0  0  0  0  0  0  0  0  0  0
   43.0660   72.4960   60.5350 C   0  0  0  0  0  0  0  0  0  0  0  0
   42.8940   74.1220   59.1310 H   0  0  0  0  0  0  0  0  0  0  0  0
   39.5550   73.5490   61.7920 H   0  0  0  0  0  0  0  0  0  0  0  0
   39.9650   71.3540   63.5740 H   0  0  0  0  0  0  0  0  0  0  0  0
   41.9610   69.6330   63.9040 H   0  0  0  0  0  0  0  0  0  0  0  0
   44.0470   72.1760   60.2080 H   0  0  0  0  0  0  0  0  0  0  0  0
   38.6530   75.6990   56.6780 N   0  0  0  0  0  0  0  0  0  0  0  0
   39.3140   75.6300   55.3930 C   0  0  0  0  0  3  0  0  0  0  0  0
   40.4030   75.6870   55.4280 H   0  0  0  0  0  0  0  0  0  0  0  0
   38.8530   74.3000   54.7810 C   0  0  0  0  0  3  0  0  0  0  0  0
   39.4970   74.0230   53.9250 H   0  0  0  0  0  0  0  0  0  0  0  0
   37.5040   74.5140   54.3270 N   0  0  0  0  0  0  0  0  0  0  0  0
   37.0040   73.6180   54.1170 H   0  0  0  0  0  0  0  0  0  0  0  0
   36.7830   75.4380   55.1480 C   0  0  0  0  0  2  0  0  0  0  0  0
   37.2260   75.4610   56.5850 C   0  0  0  0  0  2  0  0  0  0  0  0
  1  7  1  0  0  0  0
  1  6  1  0  0  0  0
  2  1  2  0  0  0  0
  3  2  1  0  0  0  0
  3  4  2  0  0  0  0
  4  5  1  0  0  0  0
  5  6  2  0  0  0  0
  5 10  1  0  0  0  0
  8  2  1  0  0  0  0
  9 10  2  0  0  0  0
  9 17  1  0  0  0  0
 10 11  1  0  0  0  0
 11 19  1  0  0  0  0
 11 12  2  0  0  0  0
 12 13  1  0  0  0  0
 13 14  1  0  0  0  0
 13 20  1  0  0  0  0
 14 21  1  0  0  0  0
 15 14  2  0  0  0  0
 16 12  1  0  0  0  0
 16 15  1  0  0  0  0
 17 16  2  0  0  0  0
 18  9  1  0  0  0  0
 22 17  1  0  0  0  0
 23  3  1  0  0  0  0
 24 25  1  0  0  0  0
 24 23  1  0  0  0  0
 26 24  1  0  0  0  0
 27 26  1  0  0  0  0
 28 26  1  0  0  0  0
 28 30  1  0  0  0  0
 29 28  1  0  0  0  0
 30 31  1  0  0  0  0
 31 23  1  0  0  0  0
M  END
>  <minimizedAffinity>
-6.23607922

$$$$

 OpenBabel03212520033D

 31 34  0  0  0  0  0  0  0  0999 V2000
   38.5930   73.8380   61.0610 C   0  0  0  0  0  0  0  0  0  0  0  0
   39.9810   73.5350   61.1920 C   0  0  0  0  0  0  0  0  0  0  0  0
   40.7940   73.8530   60.1210 C   0  0  0  0  0  0  0  0  0  0  0  0
   40.2490   74.4210   59.0300 N   0  0  0  0  0  0  0  0  0  0  0  0
   38.9330   74.6960   58.9310 C   0  0  0  0  0  0  0  0  0  0  0  0
   38.1090   74.4050   59.9430 N   0  0  0  0  0  0  0  0  0  0  0  0
   37.9470   73.5870   61.9070 H   0  0  0  0  0  0  0  0  0  0  0  0
   40.3840   73.0780   62.0860 H   0  0  0  0  0  0  0  0  0  0  0  0
   38.4260   76.7200   57.6290 C   0  0  0  0  0  0  0  0  0  0  0  0
   38.3900   75.3150   57.7200 C   0  0  0  0  0  0  0  0  0  0  0  0
   37.8610   74.5610   56.7030 C   0  0  0  0  0  0  0  0  0  0  0  0
   37.3480   75.1510   55.5560 C   0  0  0  0  0  0  0  0  0  0  0  0
   36.7780   74.7410   54.4100 N   0  0  0  0  0  0  0  0  0  0  0  0
   36.4700   75.8240   53.6370 C   0  0  0  0  0  0  0  0  0  0  0  0
   36.8700   76.9100   54.3450 N   0  0  0  0  0  0  0  0  0  0  0  0
   37.4100   76.5350   55.5200 C   0  0  0  0  0  0  0  0  0  0  0  0
   37.9220   77.3470   56.4970 C   0  0  0  0  0  0  0  0  0  0  0  0
   38.8480   77.3090   58.4440 H   0  0  0  0  0  0  0  0  0  0  0  0
   37.8240   73.4810   56.7520 H   0  0  0  0  0  0  0  0  0  0  0  0
   36.6100   73.7340   54.1780 H   0  0  0  0  0  0  0  0  0  0  0  0
   36.0030   75.8240   52.6550 H   0  0  0  0  0  0  0  0  0  0  0  0
   37.9340   78.4240   56.3940 H   0  0  0  0  0  0  0  0  0  0  0  0
   42.1910   73.6060   60.1200 N   0  0  0  0  0  0  0  0  0  0  0  0
   42.8470   72.4190   60.6220 C   0  0  0  0  0  3  0  0  0  0  0  0
   42.1780   71.6120   60.9270 H   0  0  0  0  0  0  0  0  0  0  0  0
   43.7710   71.9650   59.4850 C   0  0  0  0  0  3  0  0  0  0  0  0
   44.1180   70.9280   59.6560 H   0  0  0  0  0  0  0  0  0  0  0  0
   44.8950   72.8640   59.4980 N   0  0  0  0  0  0  0  0  0  0  0  0
   45.4650   72.8080   58.6210 H   0  0  0  0  0  0  0  0  0  0  0  0
   44.5400   74.1870   59.9110 C   0  0  0  0  0  2  0  0  0  0  0  0
   43.1240   74.5770   59.5860 C   0  0  0  0  0  2  0  0  0  0  0  0
  1  2  1  0  0  0  0
  1  7  1  0  0  0  0
  2  8  1  0  0  0  0
  3  2  2  0  0  0  0
  4  3  1  0  0  0  0
  5  4  2  0  0  0  0
  5  6  1  0  0  0  0
  6  1  2  0  0  0  0
  9 10  1  0  0  0  0
  9 18  1  0  0  0  0
 10  5  1  0  0  0  0
 11 19  1  0  0  0  0
 11 10  2  0  0  0  0
 12 11  1  0  0  0  0
 13 12  1  0  0  0  0
 14 15  2  0  0  0  0
 14 13  1  0  0  0  0
 15 16  1  0  0  0  0
 16 12  2  0  0  0  0
 16 17  1  0  0  0  0
 17  9  2  0  0  0  0
 20 13  1  0  0  0  0
 21 14  1  0  0  0  0
 22 17  1  0  0  0  0
 23  3  1  0  0  0  0
 23 24  1  0  0  0  0
 24 25  1  0  0  0  0
 26 28  1  0  0  0  0
 26 27  1  0  0  0  0
 26 24  1  0  0  0  0
 28 30  1  0  0  0  0
 29 28  1  0  0  0  0
 31 30  1  0  0  0  0
 31 23  1  0  0  0  0
M  END
>  <minimizedAffinity>
-5.97275209

$$$$

 OpenBabel03212520033D

 31 34  0  0  0  0  0  0  0  0999 V2000
   44.3340   74.2550   59.9420 C   0  0  0  0  0  0  0  0  0  0  0  0
   43.3170   75.0590   59.3500 C   0  0  0  0  0  0  0  0  0  0  0  0
   42.0170   74.5980   59.4520 C   0  0  0  0  0  0  0  0  0  0  0  0
   41.7810   73.4390   60.0910 N   0  0  0  0  0  0  0  0  0  0  0  0
   42.7620   72.6960   60.6420 C   0  0  0  0  0  0  0  0  0  0  0  0
   44.0330   73.1030   60.5670 N   0  0  0  0  0  0  0  0  0  0  0  0
   45.3630   74.6160   59.8630 H   0  0  0  0  0  0  0  0  0  0  0  0
   43.5440   75.9870   58.8440 H   0  0  0  0  0  0  0  0  0  0  0  0
   42.1030   71.5050   62.6900 C   0  0  0  0  0  0  0  0  0  0  0  0
   42.4510   71.4400   61.3270 C   0  0  0  0  0  0  0  0  0  0  0  0
   42.4940   70.2350   60.6720 C   0  0  0  0  0  0  0  0  0  0  0  0
   42.1980   69.0460   61.3240 C   0  0  0  0  0  0  0  0  0  0  0  0
   42.1410   67.7410   61.0110 N   0  0  0  0  0  0  0  0  0  0  0  0
   41.7780   67.0190   62.1120 C   0  0  0  0  0  0  0  0  0  0  0  0
   41.6140   67.9230   63.1100 N   0  0  0  0  0  0  0  0  0  0  0  0
   41.8620   69.1700   62.6630 C   0  0  0  0  0  0  0  0  0  0  0  0
   41.8000   70.3370   63.3760 C   0  0  0  0  0  0  0  0  0  0  0  0
   42.0720   72.4680   63.2000 H   0  0  0  0  0  0  0  0  0  0  0  0
   42.7590   70.1620   59.6260 H   0  0  0  0  0  0  0  0  0  0  0  0
   42.3510   67.3680   60.0550 H   0  0  0  0  0  0  0  0  0  0  0  0
   41.6450   65.9420   62.1830 H   0  0  0  0  0  0  0  0  0  0  0  0
   41.5290   70.3500   64.4240 H   0  0  0  0  0  0  0  0  0  0  0  0
   40.9110   75.3000   58.9080 N   0  0  0  0  0  0  0  0  0  0  0  0
   40.1570   74.9250   57.7320 C   0  0  0  0  0  3  0  0  0  0  0  0
   40.4160   73.9540   57.3050 H   0  0  0  0  0  0  0  0  0  0  0  0
   38.6880   74.9550   58.1760 C   0  0  0  0  0  3  0  0  0  0  0  0
   38.0490   74.4320   57.4390 H   0  0  0  0  0  0  0  0  0  0  0  0
   38.3190   76.3440   58.2440 N   0  0  0  0  0  0  0  0  0  0  0  0
   37.4250   76.4960   58.7680 H   0  0  0  0  0  0  0  0  0  0  0  0
   39.4060   77.1880   58.6340 C   0  0  0  0  0  2  0  0  0  0  0  0
   40.4200   76.5180   59.5210 C   0  0  0  0  0  2  0  0  0  0  0  0
  1  6  1  0  0  0  0
  2  3  1  0  0  0  0
  2  1  2  0  0  0  0
  3  4  2  0  0  0  0
  4  5  1  0  0  0  0
  5 10  1  0  0  0  0
  6  5  2  0  0  0  0
  7  1  1  0  0  0  0
  8  2  1  0  0  0  0
  9 18  1  0  0  0  0
  9 17  1  0  0  0  0
 10  9  2  0  0  0  0
 11 12  2  0  0  0  0
 11 10  1  0  0  0  0
 12 16  1  0  0  0  0
 13 12  1  0  0  0  0
 13 14  1  0  0  0  0
 14 21  1  0  0  0  0
 14 15  2  0  0  0  0
 16 15  1  0  0  0  0
 16 17  2  0  0  0  0
 17 22  1  0  0  0  0
 19 11  1  0  0  0  0
 20 13  1  0  0  0  0
 23  3  1  0  0  0  0
 23 31  1  0  0  0  0
 24 26  1  0  0  0  0
 24 23  1  0  0  0  0
 25 24  1  0  0  0  0
 26 28  1  0  0  0  0
 27 26  1  0  0  0  0
 28 30  1  0  0  0  0
 28 29  1  0  0  0  0
 30 31  1  0  0  0  0
M  END
>  <minimizedAffinity>
-5.9185214

$$$$

 OpenBabel03212520033D

 31 34  0  0  0  0  0  0  0  0999 V2000
   41.7530   72.7590   62.3570 C   0  0  0  0  0  0  0  0  0  0  0  0
   42.1770   71.4460   61.9970 C   0  0  0  0  0  0  0  0  0  0  0  0
   41.7330   70.9580   60.7820 C   0  0  0  0  0  0  0  0  0  0  0  0
   40.9410   71.7280   60.0150 N   0  0  0  0  0  0  0  0  0  0  0  0
   40.5540   72.9670   60.3800 C   0  0  0  0  0  0  0  0  0  0  0  0
   40.9580   73.4800   61.5460 N   0  0  0  0  0  0  0  0  0  0  0  0
   42.1010   73.1490   63.3180 H   0  0  0  0  0  0  0  0  0  0  0  0
   42.8150   70.8550   62.6390 H   0  0  0  0  0  0  0  0  0  0  0  0
   39.7610   75.1660   59.6180 C   0  0  0  0  0  0  0  0  0  0  0  0
   39.6900   73.7650   59.5070 C   0  0  0  0  0  0  0  0  0  0  0  0
   38.8360   73.1760   58.6100 C   0  0  0  0  0  0  0  0  0  0  0  0
   38.0180   73.9340   57.7840 C   0  0  0  0  0  0  0  0  0  0  0  0
   37.1000   73.7050   56.8300 N   0  0  0  0  0  0  0  0  0  0  0  0
   36.6160   74.8940   56.3620 C   0  0  0  0  0  0  0  0  0  0  0  0
   37.2670   75.8590   57.0590 N   0  0  0  0  0  0  0  0  0  0  0  0
   38.1290   75.3080   57.9350 C   0  0  0  0  0  0  0  0  0  0  0  0
   38.9580   75.9600   58.8090 C   0  0  0  0  0  0  0  0  0  0  0  0
   40.4430   75.6230   60.3350 H   0  0  0  0  0  0  0  0  0  0  0  0
   38.7650   72.1010   58.5090 H   0  0  0  0  0  0  0  0  0  0  0  0
   36.8210   72.7460   56.5170 H   0  0  0  0  0  0  0  0  0  0  0  0
   35.8660   75.0440   55.5890 H   0  0  0  0  0  0  0  0  0  0  0  0
   38.9870   77.0400   58.8680 H   0  0  0  0  0  0  0  0  0  0  0  0
   42.0800   69.6690   60.3020 N   0  0  0  0  0  0  0  0  0  0  0  0
   42.3080   68.4910   61.1110 C   0  0  0  0  0  3  0  0  0  0  0  0
   42.0830   68.6060   62.1730 H   0  0  0  0  0  0  0  0  0  0  0  0
   41.4310   67.4010   60.4790 C   0  0  0  0  0  3  0  0  0  0  0  0
   41.3240   66.5410   61.1680 H   0  0  0  0  0  0  0  0  0  0  0  0
   42.1110   66.9840   59.2810 N   0  0  0  0  0  0  0  0  0  0  0  0
   41.4950   66.4270   58.6430 H   0  0  0  0  0  0  0  0  0  0  0  0
   42.8340   68.0490   58.6550 C   0  0  0  0  0  2  0  0  0  0  0  0
   42.2430   69.4140   58.8850 C   0  0  0  0  0  2  0  0  0  0  0  0
  1  7  1  0  0  0  0
  2  1  1  0  0  0  0
  2  8  1  0  0  0  0
  3  2  2  0  0  0  0
  4  5  2  0  0  0  0
  4  3  1  0  0  0  0
  5  6  1  0  0  0  0
  6  1  2  0  0  0  0
  9 18  1  0  0  0  0
 10  9  1  0  0  0  0
 10  5  1  0  0  0  0
 11 10  2  0  0  0  0
 12 16  2  0  0  0  0
 12 11  1  0  0  0  0
 13 12  1  0  0  0  0
 14 13  1  0  0  0  0
 14 15  2  0  0  0  0
 15 16  1  0  0  0  0
 16 17  1  0  0  0  0
 17 22  1  0  0  0  0
 17  9  2  0  0  0  0
 19 11  1  0  0  0  0
 20 13  1  0  0  0  0
 21 14  1  0  0  0  0
 23  3  1  0  0  0  0
 23 24  1  0  0  0  0
 24 25  1  0  0  0  0
 26 24  1  0  0  0  0
 26 27  1  0  0  0  0
 28 26  1  0  0  0  0
 29 28  1  0  0  0  0
 30 31  1  0  0  0  0
 30 28  1  0  0  0  0
 31 23  1  0  0  0  0
M  END
>  <minimizedAffinity>
-5.90342522

$$$$

 OpenBabel03212520033D

 31 34  0  0  0  0  0  0  0  0999 V2000
   43.6630   73.0470   60.3750 C   0  0  0  0  0  0  0  0  0  0  0  0
   42.5870   73.9200   60.0340 C   0  0  0  0  0  0  0  0  0  0  0  0
   41.3330   73.3510   59.9210 C   0  0  0  0  0  0  0  0  0  0  0  0
   41.1900   72.0300   60.1330 N   0  0  0  0  0  0  0  0  0  0  0  0
   42.2250   71.2270   60.4540 C   0  0  0  0  0  0  0  0  0  0  0  0
   43.4550   71.7340   60.5740 N   0  0  0  0  0  0  0  0  0  0  0  0
   44.6570   73.4940   60.4650 H   0  0  0  0  0  0  0  0  0  0  0  0
   42.7390   74.9780   59.8720 H   0  0  0  0  0  0  0  0  0  0  0  0
   41.7550   68.9890   59.5480 C   0  0  0  0  0  0  0  0  0  0  0  0
   42.0150   69.7940   60.6740 C   0  0  0  0  0  0  0  0  0  0  0  0
   42.0660   69.2450   61.9300 C   0  0  0  0  0  0  0  0  0  0  0  0
   41.8670   67.8880   62.1350 C   0  0  0  0  0  0  0  0  0  0  0  0
   41.8470   67.0430   63.1810 N   0  0  0  0  0  0  0  0  0  0  0  0
   41.5880   65.7750   62.7430 C   0  0  0  0  0  0  0  0  0  0  0  0
   41.4520   65.8690   61.3970 N   0  0  0  0  0  0  0  0  0  0  0  0
   41.6160   67.1440   60.9930 C   0  0  0  0  0  0  0  0  0  0  0  0
   41.5500   67.6260   59.7130 C   0  0  0  0  0  0  0  0  0  0  0  0
   41.7150   69.4370   58.5550 H   0  0  0  0  0  0  0  0  0  0  0  0
   42.2640   69.8450   62.8080 H   0  0  0  0  0  0  0  0  0  0  0  0
   42.0090   67.3470   64.1690 H   0  0  0  0  0  0  0  0  0  0  0  0
   41.5090   64.8720   63.3440 H   0  0  0  0  0  0  0  0  0  0  0  0
   41.3470   66.9780   58.8700 H   0  0  0  0  0  0  0  0  0  0  0  0
   40.1780   74.1040   59.5880 N   0  0  0  0  0  0  0  0  0  0  0  0
   39.7260   75.3090   60.2480 C   0  0  0  0  0  3  0  0  0  0  0  0
   40.4100   75.7120   60.9970 H   0  0  0  0  0  0  0  0  0  0  0  0
   39.4950   76.3190   59.1160 C   0  0  0  0  0  3  0  0  0  0  0  0
   39.4050   77.3440   59.5220 H   0  0  0  0  0  0  0  0  0  0  0  0
   38.2600   75.9350   58.4830 N   0  0  0  0  0  0  0  0  0  0  0  0
   38.1270   76.3950   57.5520 H   0  0  0  0  0  0  0  0  0  0  0  0
   38.0450   74.5200   58.5010 C   0  0  0  0  0  2  0  0  0  0  0  0
   39.3090   73.7040   58.5000 C   0  0  0  0  0  2  0  0  0  0  0  0
  1  7  1  0  0  0  0
  1  6  1  0  0  0  0
  2  1  2  0  0  0  0
  3  2  1  0  0  0  0
  3  4  2  0  0  0  0
  4  5  1  0  0  0  0
  5  6  2  0  0  0  0
  5 10  1  0  0  0  0
  8  2  1  0  0  0  0
  9 17  2  0  0  0  0
  9 10  1  0  0  0  0
 10 11  2  0  0  0  0
 11 12  1  0  0  0  0
 11 19  1  0  0  0  0
 12 13  1  0  0  0  0
 13 20  1  0  0  0  0
 14 13  1  0  0  0  0
 14 21  1  0  0  0  0
 15 14  2  0  0  0  0
 16 15  1  0  0  0  0
 16 12  2  0  0  0  0
 17 16  1  0  0  0  0
 18  9  1  0  0  0  0
 22 17  1  0  0  0  0
 23  3  1  0  0  0  0
 23 24  1  0  0  0  0
 24 25  1  0  0  0  0
 26 27  1  0  0  0  0
 26 24  1  0  0  0  0
 28 30  1  0  0  0  0
 28 26  1  0  0  0  0
 29 28  1  0  0  0  0
 31 30  1  0  0  0  0
 31 23  1  0  0  0  0
M  END
>  <minimizedAffinity>
-5.75639343

$$$$

 OpenBabel03212520033D

 31 34  0  0  0  0  0  0  0  0999 V2000
   42.8100   71.9550   57.5660 C   0  0  0  0  0  0  0  0  0  0  0  0
   42.0040   73.0360   58.0300 C   0  0  0  0  0  0  0  0  0  0  0  0
   41.1460   72.7700   59.0810 C   0  0  0  0  0  0  0  0  0  0  0  0
   41.1140   71.5310   59.6040 N   0  0  0  0  0  0  0  0  0  0  0  0
   41.8880   70.5260   59.1460 C   0  0  0  0  0  0  0  0  0  0  0  0
   42.7310   70.7380   58.1310 N   0  0  0  0  0  0  0  0  0  0  0  0
   43.4890   72.1620   56.7340 H   0  0  0  0  0  0  0  0  0  0  0  0
   42.0560   74.0200   57.5850 H   0  0  0  0  0  0  0  0  0  0  0  0
   41.6000   68.0960   58.8960 C   0  0  0  0  0  0  0  0  0  0  0  0
   41.8140   69.1940   59.7510 C   0  0  0  0  0  0  0  0  0  0  0  0
   41.9470   69.0120   61.1040 C   0  0  0  0  0  0  0  0  0  0  0  0
   41.8760   67.7490   61.6750 C   0  0  0  0  0  0  0  0  0  0  0  0
   41.9600   67.2210   62.9080 N   0  0  0  0  0  0  0  0  0  0  0  0
   41.8060   65.8650   62.8380 C   0  0  0  0  0  0  0  0  0  0  0  0
   41.6280   65.5790   61.5240 N   0  0  0  0  0  0  0  0  0  0  0  0
   41.6650   66.7060   60.7870 C   0  0  0  0  0  0  0  0  0  0  0  0
   41.5240   66.8170   59.4290 C   0  0  0  0  0  0  0  0  0  0  0  0
   41.4950   68.2530   57.8220 H   0  0  0  0  0  0  0  0  0  0  0  0
   42.1120   69.8410   61.7790 H   0  0  0  0  0  0  0  0  0  0  0  0
   42.1180   67.7920   63.7700 H   0  0  0  0  0  0  0  0  0  0  0  0
   41.8240   65.1550   63.6620 H   0  0  0  0  0  0  0  0  0  0  0  0
   41.3600   65.9500   58.8010 H   0  0  0  0  0  0  0  0  0  0  0  0
   40.2900   73.7540   59.6380 N   0  0  0  0  0  0  0  0  0  0  0  0
   38.8480   73.6800   59.7240 C   0  0  0  0  0  3  0  0  0  0  0  0
   38.4130   72.7250   59.4210 H   0  0  0  0  0  0  0  0  0  0  0  0
   38.5210   73.9910   61.1910 C   0  0  0  0  0  3  0  0  0  0  0  0
   37.4780   73.7030   61.4250 H   0  0  0  0  0  0  0  0  0  0  0  0
   38.6810   75.4130   61.3440 N   0  0  0  0  0  0  0  0  0  0  0  0
   38.7250   75.7060   62.3480 H   0  0  0  0  0  0  0  0  0  0  0  0
   39.7100   75.9480   60.5060 C   0  0  0  0  0  2  0  0  0  0  0  0
   40.8200   74.9800   60.1990 C   0  0  0  0  0  2  0  0  0  0  0  0
  1  2  2  0  0  0  0
  1  6  1  0  0  0  0
  2  3  1  0  0  0  0
  3  4  2  0  0  0  0
  3 23  1  0  0  0  0
  5  4  1  0  0  0  0
  5 10  1  0  0  0  0
  6  5  2  0  0  0  0
  7  1  1  0  0  0  0
  8  2  1  0  0  0  0
  9 17  2  0  0  0  0
  9 10  1  0  0  0  0
 10 11  2  0  0  0  0
 11 12  1  0  0  0  0
 11 19  1  0  0  0  0
 12 13  1  0  0  0  0
 13 20  1  0  0  0  0
 14 13  1  0  0  0  0
 14 21  1  0  0  0  0
 15 14  2  0  0  0  0
 16 15  1  0  0  0  0
 16 12  2  0  0  0  0
 17 16  1  0  0  0  0
 18  9  1  0  0  0  0
 22 17  1  0  0  0  0
 23 24  1  0  0  0  0
 23 31  1  0  0  0  0
 24 26  1  0  0  0  0
 25 24  1  0  0  0  0
 26 28  1  0  0  0  0
 26 27  1  0  0  0  0
 28 29  1  0  0  0  0
 30 28  1  0  0  0  0
 31 30  1  0  0  0  0
M  END
>  <minimizedAffinity>
-5.72394896

$$$$

 OpenBabel03212520033D

 31 34  0  0  0  0  0  0  0  0999 V2000
   44.7310   69.7610   59.6980 C   0  0  0  0  0  0  0  0  0  0  0  0
   44.1730   68.6110   60.3310 C   0  0  0  0  0  0  0  0  0  0  0  0
   42.9390   68.7670   60.9350 C   0  0  0  0  0  0  0  0  0  0  0  0
   42.3380   69.9700   60.8980 N   0  0  0  0  0  0  0  0  0  0  0  0
   42.8880   71.0420   60.2920 C   0  0  0  0  0  0  0  0  0  0  0  0
   44.0790   70.9370   59.6950 N   0  0  0  0  0  0  0  0  0  0  0  0
   45.7070   69.6410   59.2190 H   0  0  0  0  0  0  0  0  0  0  0  0
   44.6850   67.6590   60.3410 H   0  0  0  0  0  0  0  0  0  0  0  0
   42.7920   73.3940   59.5810 C   0  0  0  0  0  0  0  0  0  0  0  0
   42.1910   72.3300   60.2800 C   0  0  0  0  0  0  0  0  0  0  0  0
   40.9940   72.5050   60.9270 C   0  0  0  0  0  0  0  0  0  0  0  0
   40.3360   73.7260   60.9140 C   0  0  0  0  0  0  0  0  0  0  0  0
   39.1980   74.2360   61.4150 N   0  0  0  0  0  0  0  0  0  0  0  0
   39.0830   75.5480   61.0540 C   0  0  0  0  0  0  0  0  0  0  0  0
   40.1870   75.8270   60.3150 N   0  0  0  0  0  0  0  0  0  0  0  0
   40.9720   74.7370   60.2100 C   0  0  0  0  0  0  0  0  0  0  0  0
   42.1640   74.6320   59.5450 C   0  0  0  0  0  0  0  0  0  0  0  0
   43.7440   73.2440   59.0710 H   0  0  0  0  0  0  0  0  0  0  0  0
   40.5150   71.7010   61.4700 H   0  0  0  0  0  0  0  0  0  0  0  0
   38.5230   73.6810   61.9920 H   0  0  0  0  0  0  0  0  0  0  0  0
   38.2770   76.2350   61.3020 H   0  0  0  0  0  0  0  0  0  0  0  0
   42.5980   75.4710   59.0160 H   0  0  0  0  0  0  0  0  0  0  0  0
   42.2720   67.7060   61.6000 N   0  0  0  0  0  0  0  0  0  0  0  0
   41.8860   66.4420   61.0130 C   0  0  0  0  0  3  0  0  0  0  0  0
   42.2460   66.2730   59.9960 H   0  0  0  0  0  0  0  0  0  0  0  0
   42.4320   65.3760   61.9730 C   0  0  0  0  0  3  0  0  0  0  0  0
   42.4270   64.3800   61.4910 H   0  0  0  0  0  0  0  0  0  0  0  0
   41.5510   65.3730   63.1110 N   0  0  0  0  0  0  0  0  0  0  0  0
   41.9590   64.8670   63.9330 H   0  0  0  0  0  0  0  0  0  0  0  0
   41.0110   66.6660   63.3970 C   0  0  0  0  0  2  0  0  0  0  0  0
   41.9040   67.8100   62.9970 C   0  0  0  0  0  2  0  0  0  0  0  0
  1  2  1  0  0  0  0
  2  8  1  0  0  0  0
  2  3  2  0  0  0  0
  3 23  1  0  0  0  0
  4  3  1  0  0  0  0
  5  4  2  0  0  0  0
  6  1  2  0  0  0  0
  6  5  1  0  0  0  0
  7  1  1  0  0  0  0
  9 10  1  0  0  0  0
 10  5  1  0  0  0  0
 10 11  2  0  0  0  0
 11 19  1  0  0  0  0
 12 11  1  0  0  0  0
 12 13  1  0  0  0  0
 13 20  1  0  0  0  0
 14 21  1  0  0  0  0
 14 13  1  0  0  0  0
 15 14  2  0  0  0  0
 16 15  1  0  0  0  0
 16 12  2  0  0  0  0
 17  9  2  0  0  0  0
 17 16  1  0  0  0  0
 18  9  1  0  0  0  0
 22 17  1  0  0  0  0
 23 31  1  0  0  0  0
 24 23  1  0  0  0  0
 24 26  1  0  0  0  0
 25 24  1  0  0  0  0
 26 28  1  0  0  0  0
 27 26  1  0  0  0  0
 28 30  1  0  0  0  0
 28 29  1  0  0  0  0
 31 30  1  0  0  0  0
M  END
>  <minimizedAffinity>
-5.68998003

$$$$

 OpenBabel03212520033D

 31 34  0  0  0  0  0  0  0  0999 V2000
   44.4310   69.9220   59.7440 C   0  0  0  0  0  0  0  0  0  0  0  0
   43.9410   68.7340   60.3620 C   0  0  0  0  0  0  0  0  0  0  0  0
   42.7290   68.8270   61.0200 C   0  0  0  0  0  0  0  0  0  0  0  0
   42.0850   70.0070   61.0450 N   0  0  0  0  0  0  0  0  0  0  0  0
   42.5710   71.1160   60.4530 C   0  0  0  0  0  0  0  0  0  0  0  0
   43.7390   71.0740   59.8050 N   0  0  0  0  0  0  0  0  0  0  0  0
   45.3900   69.8530   59.2230 H   0  0  0  0  0  0  0  0  0  0  0  0
   44.4870   67.8020   60.3210 H   0  0  0  0  0  0  0  0  0  0  0  0
   40.6670   72.4190   61.3040 C   0  0  0  0  0  0  0  0  0  0  0  0
   41.8290   72.3780   60.5100 C   0  0  0  0  0  0  0  0  0  0  0  0
   42.2420   73.4870   59.8170 C   0  0  0  0  0  0  0  0  0  0  0  0
   41.5370   74.6800   59.8740 C   0  0  0  0  0  0  0  0  0  0  0  0
   41.6450   75.9130   59.3490 N   0  0  0  0  0  0  0  0  0  0  0  0
   40.6110   76.6910   59.7850 C   0  0  0  0  0  0  0  0  0  0  0  0
   39.8660   75.8970   60.5950 N   0  0  0  0  0  0  0  0  0  0  0  0
   40.4020   74.6640   60.6710 C   0  0  0  0  0  0  0  0  0  0  0  0
   39.9340   73.5950   61.3870 C   0  0  0  0  0  0  0  0  0  0  0  0
   40.3470   71.5310   61.8500 H   0  0  0  0  0  0  0  0  0  0  0  0
   43.1310   73.4770   59.2010 H   0  0  0  0  0  0  0  0  0  0  0  0
   42.4190   76.1990   58.7050 H   0  0  0  0  0  0  0  0  0  0  0  0
   40.4180   77.7330   59.5400 H   0  0  0  0  0  0  0  0  0  0  0  0
   39.0360   73.6620   61.9870 H   0  0  0  0  0  0  0  0  0  0  0  0
   42.1280   67.7220   61.6760 N   0  0  0  0  0  0  0  0  0  0  0  0
   41.7670   66.4610   61.0660 C   0  0  0  0  0  3  0  0  0  0  0  0
   42.0930   66.3350   60.0320 H   0  0  0  0  0  0  0  0  0  0  0  0
   42.3890   65.3900   61.9720 C   0  0  0  0  0  3  0  0  0  0  0  0
   42.4020   64.4090   61.4610 H   0  0  0  0  0  0  0  0  0  0  0  0
   41.5530   65.3190   63.1420 N   0  0  0  0  0  0  0  0  0  0  0  0
   42.0100   64.8060   63.9320 H   0  0  0  0  0  0  0  0  0  0  0  0
   40.9770   66.5830   63.4870 C   0  0  0  0  0  2  0  0  0  0  0  0
   41.8100   67.7700   63.0890 C   0  0  0  0  0  2  0  0  0  0  0  0
  1  6  2  0  0  0  0
  1  2  1  0  0  0  0
  2  3  2  0  0  0  0
  3  4  1  0  0  0  0
  3 23  1  0  0  0  0
  5 10  1  0  0  0  0
  5  4  2  0  0  0  0
  6  5  1  0  0  0  0
  7  1  1  0  0  0  0
  8  2  1  0  0  0  0
  9 17  1  0  0  0  0
  9 18  1  0  0  0  0
 10  9  2  0  0  0  0
 11 12  2  0  0  0  0
 11 10  1  0  0  0  0
 12 16  1  0  0  0  0
 13 14  1  0  0  0  0
 13 12  1  0  0  0  0
 14 15  2  0  0  0  0
 15 16  1  0  0  0  0
 16 17  2  0  0  0  0
 17 22  1  0  0  0  0
 19 11  1  0  0  0  0
 20 13  1  0  0  0  0
 21 14  1  0  0  0  0
 23 31  1  0  0  0  0
 24 23  1  0  0  0  0
 24 26  1  0  0  0  0
 25 24  1  0  0  0  0
 26 28  1  0  0  0  0
 27 26  1  0  0  0  0
 28 30  1  0  0  0  0
 28 29  1  0  0  0  0
 31 30  1  0  0  0  0
M  END
>  <minimizedAffinity>
-5.58430719

$$$$

 OpenBabel03212520033D

 31 34  0  0  0  0  0  0  0  0999 V2000
   39.4810   75.9550   60.4540 C   0  0  0  0  0  0  0  0  0  0  0  0
   38.9320   75.9000   59.1390 C   0  0  0  0  0  0  0  0  0  0  0  0
   39.1550   74.7430   58.4170 C   0  0  0  0  0  0  0  0  0  0  0  0
   39.8640   73.7460   58.9770 N   0  0  0  0  0  0  0  0  0  0  0  0
   40.3720   73.8240   60.2240 C   0  0  0  0  0  0  0  0  0  0  0  0
   40.1820   74.9240   60.9580 N   0  0  0  0  0  0  0  0  0  0  0  0
   39.3070   76.8690   61.0280 H   0  0  0  0  0  0  0  0  0  0  0  0
   38.3670   76.7210   58.7210 H   0  0  0  0  0  0  0  0  0  0  0  0
   41.4090   72.7320   62.1680 C   0  0  0  0  0  0  0  0  0  0  0  0
   41.1370   72.7090   60.7870 C   0  0  0  0  0  0  0  0  0  0  0  0
   41.5800   71.6740   60.0040 C   0  0  0  0  0  0  0  0  0  0  0  0
   42.3050   70.6190   60.5410 C   0  0  0  0  0  0  0  0  0  0  0  0
   42.8720   69.4860   60.0920 N   0  0  0  0  0  0  0  0  0  0  0  0
   43.4690   68.8290   61.1300 C   0  0  0  0  0  0  0  0  0  0  0  0
   43.2490   69.5940   62.2280 N   0  0  0  0  0  0  0  0  0  0  0  0
   42.5420   70.6930   61.9050 C   0  0  0  0  0  0  0  0  0  0  0  0
   42.1310   71.6950   62.7430 C   0  0  0  0  0  0  0  0  0  0  0  0
   41.0520   73.5610   62.7810 H   0  0  0  0  0  0  0  0  0  0  0  0
   41.3830   71.6360   58.9410 H   0  0  0  0  0  0  0  0  0  0  0  0
   42.8410   69.1840   59.0900 H   0  0  0  0  0  0  0  0  0  0  0  0
   44.0100   67.8860   61.0910 H   0  0  0  0  0  0  0  0  0  0  0  0
   42.3570   71.6810   63.8010 H   0  0  0  0  0  0  0  0  0  0  0  0
   38.6660   74.5570   57.0990 N   0  0  0  0  0  0  0  0  0  0  0  0
   37.2790   74.4020   56.7180 C   0  0  0  0  0  3  0  0  0  0  0  0
   36.5570   74.5520   57.5230 H   0  0  0  0  0  0  0  0  0  0  0  0
   37.0620   75.4200   55.5890 C   0  0  0  0  0  3  0  0  0  0  0  0
   35.9810   75.5730   55.4070 H   0  0  0  0  0  0  0  0  0  0  0  0
   37.6790   74.8560   54.4180 N   0  0  0  0  0  0  0  0  0  0  0  0
   37.8110   75.5610   53.6550 H   0  0  0  0  0  0  0  0  0  0  0  0
   38.8330   74.0680   54.7240 C   0  0  0  0  0  2  0  0  0  0  0  0
   39.5660   74.5030   55.9640 C   0  0  0  0  0  2  0  0  0  0  0  0
  1  6  1  0  0  0  0
  1  7  1  0  0  0  0
  2  1  2  0  0  0  0
  3  4  2  0  0  0  0
  3  2  1  0  0  0  0
  4  5  1  0  0  0  0
  5 10  1  0  0  0  0
  5  6  2  0  0  0  0
  8  2  1  0  0  0  0
  9 17  1  0  0  0  0
  9 18  1  0  0  0  0
 10  9  2  0  0  0  0
 11 12  2  0  0  0  0
 11 10  1  0  0  0  0
 12 16  1  0  0  0  0
 13 12  1  0  0  0  0
 13 14  1  0  0  0  0
 14 15  2  0  0  0  0
 16 15  1  0  0  0  0
 16 17  2  0  0  0  0
 17 22  1  0  0  0  0
 19 11  1  0  0  0  0
 20 13  1  0  0  0  0
 21 14  1  0  0  0  0
 23  3  1  0  0  0  0
 24 23  1  0  0  0  0
 24 25  1  0  0  0  0
 26 24  1  0  0  0  0
 27 26  1  0  0  0  0
 28 30  1  0  0  0  0
 28 26  1  0  0  0  0
 29 28  1  0  0  0  0
 30 31  1  0  0  0  0
 31 23  1  0  0  0  0
M  END
>  <minimizedAffinity>
-5.51827335

$$$$
