
 OpenBabel03212521053D

 36 39  0  0  0  0  0  0  0  0999 V2000
   41.7910   84.2450   61.5590 C   0  0  0  0  0  0  0  0  0  0  0  0
   41.4530   83.9520   62.8680 C   0  0  0  0  0  0  0  0  0  0  0  0
   40.1790   83.5330   63.2100 C   0  0  0  0  0  0  0  0  0  0  0  0
   39.2170   83.4040   62.2010 C   0  0  0  0  0  0  0  0  0  0  0  0
   39.5670   83.6990   60.8860 C   0  0  0  0  0  0  0  0  0  0  0  0
   40.8310   84.1130   60.5670 C   0  0  0  0  0  0  0  0  0  0  0  0
   42.1750   84.0440   63.6640 H   0  0  0  0  0  0  0  0  0  0  0  0
   39.9580   83.3140   64.2530 H   0  0  0  0  0  0  0  0  0  0  0  0
   38.2270   83.0810   62.4380 H   0  0  0  0  0  0  0  0  0  0  0  0
   38.8010   83.5900   60.1300 H   0  0  0  0  0  0  0  0  0  0  0  0
   41.1480   84.4090   59.1890 C   0  0  0  0  0  0  0  0  0  0  0  0
   40.7840   85.7160   58.8440 C   0  0  0  0  0  0  0  0  0  0  0  0
   41.0070   86.1990   57.5490 C   0  0  0  0  0  0  0  0  0  0  0  0
   41.5800   85.3590   56.6670 N   0  0  0  0  0  0  0  0  0  0  0  0
   41.9290   84.0960   57.0100 C   0  0  0  0  0  0  0  0  0  0  0  0
   41.7160   83.6240   58.2550 N   0  0  0  0  0  0  0  0  0  0  0  0
   40.3210   86.4400   59.5040 H   0  0  0  0  0  0  0  0  0  0  0  0
   40.7370   87.2030   57.2520 H   0  0  0  0  0  0  0  0  0  0  0  0
   42.5370   83.1910   56.0910 N   0  0  0  0  0  0  0  0  0  0  0  0
   41.9510   81.9170   55.7140 C   0  0  0  0  0  3  0  0  0  0  0  0
   40.8760   81.8310   55.9800 H   0  0  0  0  0  0  0  0  0  0  0  0
   41.9950   81.7480   54.1930 C   0  0  0  0  0  3  0  0  0  0  0  0
   41.4470   80.8290   53.9550 H   0  0  0  0  0  0  0  0  0  0  0  0
   43.3960   81.6210   53.8870 N   0  0  0  0  0  0  0  0  0  0  0  0
   43.8000   80.7480   54.2530 H   0  0  0  0  0  0  0  0  0  0  0  0
   44.1140   82.7940   54.2330 C   0  0  0  0  0  2  0  0  0  0  0  0
   43.7830   83.4920   55.4740 C   0  0  0  0  0  2  0  0  0  0  0  0
   45.3140   84.1470   60.5800 C   0  0  0  0  0  0  0  0  0  0  0  0
   45.7090   85.4740   60.6890 C   0  0  0  0  0  0  0  0  0  0  0  0
   44.7560   86.4220   61.1050 C   0  0  0  0  0  0  0  0  0  0  0  0
   43.5010   85.9870   61.3770 N   0  0  0  0  0  0  0  0  0  0  0  0
   43.1460   84.6810   61.2600 C   0  0  0  0  0  0  0  0  0  0  0  0
   44.0550   83.8000   60.8670 N   0  0  0  0  0  0  0  0  0  0  0  0
   46.0840   83.4650   60.2580 H   0  0  0  0  0  0  0  0  0  0  0  0
   46.6660   85.8920   60.4970 H   0  0  0  0  0  0  0  0  0  0  0  0
   44.8950   87.4840   61.2410 H   0  0  0  0  0  0  0  0  0  0  0  0
  1  2  1  0  0  0  0
  2  3  2  0  0  0  0
  2  7  1  0  0  0  0
  3  8  1  0  0  0  0
  4  9  1  0  0  0  0
  4  3  1  0  0  0  0
  5  4  2  0  0  0  0
  6  5  1  0  0  0  0
  6  1  2  0  0  0  0
 10  5  1  0  0  0  0
 11  6  1  0  0  0  0
 12 11  1  0  0  0  0
 12 17  1  0  0  0  0
 13 12  2  0  0  0  0
 14 15  2  0  0  0  0
 14 13  1  0  0  0  0
 15 16  1  0  0  0  0
 16 11  2  0  0  0  0
 18 13  1  0  0  0  0
 19 15  1  0  0  0  0
 20 21  1  0  0  0  0
 20 19  1  0  0  0  0
 22 20  1  0  0  0  0
 23 22  1  0  0  0  0
 24 22  1  0  0  0  0
 24 26  1  0  0  0  0
 24 25  1  0  0  0  0
 26 27  1  0  0  0  0
 27 19  1  0  0  0  0
 28 29  2  0  0  0  0
 28 33  1  0  0  0  0
 29 30  1  0  0  0  0
 30 36  1  0  0  0  0
 30 31  2  0  0  0  0
 32 31  1  0  0  0  0
 32  1  1  0  0  0  0
 33 32  2  0  0  0  0
 34 28  1  0  0  0  0
 35 29  1  0  0  0  0
M  END
>  <minimizedAffinity>
-5.6767602

>  <minimizedRMSD>
0.30939275

$$$$
