
 OpenBabel03212520003D

 31 34  0  0  0  0  0  0  0  0999 V2000
   40.2060   81.3120   57.2800 C   0  0  0  0  0  0  0  0  0  0  0  0
   41.2050   81.8510   56.4170 C   0  0  0  0  0  0  0  0  0  0  0  0
   42.0620   82.7890   56.9620 C   0  0  0  0  0  0  0  0  0  0  0  0
   41.9150   83.1390   58.2520 N   0  0  0  0  0  0  0  0  0  0  0  0
   40.9600   82.6140   59.0470 C   0  0  0  0  0  0  0  0  0  0  0  0
   40.1090   81.7050   58.5620 N   0  0  0  0  0  0  0  0  0  0  0  0
   39.5260   80.5700   56.8510 H   0  0  0  0  0  0  0  0  0  0  0  0
   41.2940   81.5440   55.3840 H   0  0  0  0  0  0  0  0  0  0  0  0
   39.5600   83.0300   61.0250 C   0  0  0  0  0  0  0  0  0  0  0  0
   40.8430   83.0320   60.4460 C   0  0  0  0  0  0  0  0  0  0  0  0
   41.9400   83.4150   61.1750 C   0  0  0  0  0  0  0  0  0  0  0  0
   41.8250   83.8100   62.5010 C   0  0  0  0  0  0  0  0  0  0  0  0
   42.6490   84.2290   63.4770 N   0  0  0  0  0  0  0  0  0  0  0  0
   41.9280   84.4790   64.6100 C   0  0  0  0  0  0  0  0  0  0  0  0
   40.6380   84.1990   64.2980 N   0  0  0  0  0  0  0  0  0  0  0  0
   40.5400   83.7880   63.0190 C   0  0  0  0  0  0  0  0  0  0  0  0
   39.4040   83.4180   62.3490 C   0  0  0  0  0  0  0  0  0  0  0  0
   38.6950   82.7240   60.4350 H   0  0  0  0  0  0  0  0  0  0  0  0
   42.9340   83.4240   60.7500 H   0  0  0  0  0  0  0  0  0  0  0  0
   43.6820   84.3370   63.3520 H   0  0  0  0  0  0  0  0  0  0  0  0
   42.3050   84.8300   65.5690 H   0  0  0  0  0  0  0  0  0  0  0  0
   38.4330   83.4290   62.8260 H   0  0  0  0  0  0  0  0  0  0  0  0
   43.0990   83.4030   56.2160 N   0  0  0  0  0  0  0  0  0  0  0  0
   43.5450   83.0150   54.8960 C   0  0  0  0  0  0  0  0  0  0  0  0
   42.9430   82.2450   54.4100 H   0  0  0  0  0  0  0  0  0  0  0  0
   43.5410   84.3130   54.0770 C   0  0  0  0  0  0  0  0  0  0  0  0
   43.6080   84.0910   52.9960 H   0  0  0  0  0  0  0  0  0  0  0  0
   44.7010   85.0550   54.4960 N   0  0  0  0  0  0  0  0  0  0  0  0
   44.6700   86.0560   54.1910 H   0  0  0  0  0  0  0  0  0  0  0  0
   45.0240   84.8470   55.8750 C   0  0  0  0  0  0  0  0  0  0  0  0
   43.8370   84.5320   56.7450 C   0  0  0  0  0  0  0  0  0  0  0  0
  1  6  1  0  0  0  0
  2  3  1  0  0  0  0
  2  1  2  0  0  0  0
  3  4  2  0  0  0  0
  4  5  1  0  0  0  0
  5 10  1  0  0  0  0
  6  5  2  0  0  0  0
  7  1  1  0  0  0  0
  8  2  1  0  0  0  0
  9 17  1  0  0  0  0
 10  9  2  0  0  0  0
 10 11  1  0  0  0  0
 11 12  2  0  0  0  0
 12 16  1  0  0  0  0
 12 13  1  0  0  0  0
 13 14  1  0  0  0  0
 14 21  1  0  0  0  0
 15 14  2  0  0  0  0
 16 15  1  0  0  0  0
 17 22  1  0  0  0  0
 17 16  2  0  0  0  0
 18  9  1  0  0  0  0
 19 11  1  0  0  0  0
 20 13  1  0  0  0  0
 23 31  1  0  0  0  0
 23  3  1  0  0  0  0
 24 23  1  0  0  0  0
 25 24  1  0  0  0  0
 26 28  1  0  0  0  0
 26 24  1  0  0  0  0
 27 26  1  0  0  0  0
 28 30  1  0  0  0  0
 29 28  1  0  0  0  0
 30 31  1  0  0  0  0
M  END
>  <minimizedAffinity>
-4.98866034

>  <minimizedRMSD>
0.525757611

$$$$
