
 OpenBabel03212521053D

 36 39  0  0  0  0  0  0  0  0999 V2000
   41.7940   84.2370   61.5570 C   0  0  0  0  0  0  0  0  0  0  0  0
   41.4620   83.9480   62.8690 C   0  0  0  0  0  0  0  0  0  0  0  0
   40.1890   83.5310   63.2170 C   0  0  0  0  0  0  0  0  0  0  0  0
   39.2220   83.4010   62.2140 C   0  0  0  0  0  0  0  0  0  0  0  0
   39.5670   83.6930   60.8960 C   0  0  0  0  0  0  0  0  0  0  0  0
   40.8290   84.1040   60.5700 C   0  0  0  0  0  0  0  0  0  0  0  0
   42.1880   84.0400   63.6610 H   0  0  0  0  0  0  0  0  0  0  0  0
   39.9720   83.3150   64.2620 H   0  0  0  0  0  0  0  0  0  0  0  0
   38.2330   83.0810   62.4550 H   0  0  0  0  0  0  0  0  0  0  0  0
   38.7970   83.5830   60.1440 H   0  0  0  0  0  0  0  0  0  0  0  0
   41.1410   84.3960   59.1900 C   0  0  0  0  0  0  0  0  0  0  0  0
   40.8610   85.7300   58.8690 C   0  0  0  0  0  0  0  0  0  0  0  0
   41.0940   86.2140   57.5750 C   0  0  0  0  0  0  0  0  0  0  0  0
   41.5910   85.3490   56.6720 N   0  0  0  0  0  0  0  0  0  0  0  0
   41.8580   84.0600   56.9930 C   0  0  0  0  0  0  0  0  0  0  0  0
   41.6370   83.5870   58.2360 N   0  0  0  0  0  0  0  0  0  0  0  0
   40.4620   86.4750   59.5460 H   0  0  0  0  0  0  0  0  0  0  0  0
   40.8880   87.2380   57.2960 H   0  0  0  0  0  0  0  0  0  0  0  0
   42.3860   83.1280   56.0510 N   0  0  0  0  0  0  0  0  0  0  0  0
   43.6560   83.3050   55.3730 C   0  0  0  0  0  3  0  0  0  0  0  0
   44.3050   84.0720   55.8460 H   0  0  0  0  0  0  0  0  0  0  0  0
   44.4700   82.0090   55.4360 C   0  0  0  0  0  3  0  0  0  0  0  0
   45.4560   82.2270   55.0090 H   0  0  0  0  0  0  0  0  0  0  0  0
   43.7340   81.0840   54.6150 N   0  0  0  0  0  0  0  0  0  0  0  0
   43.7470   81.3460   53.6190 H   0  0  0  0  0  0  0  0  0  0  0  0
   42.4420   80.8330   55.1410 C   0  0  0  0  0  2  0  0  0  0  0  0
   41.6770   81.9410   55.7140 C   0  0  0  0  0  2  0  0  0  0  0  0
   45.3030   84.1370   60.5310 C   0  0  0  0  0  0  0  0  0  0  0  0
   45.7100   85.4580   60.6670 C   0  0  0  0  0  0  0  0  0  0  0  0
   44.7690   86.4030   61.1170 C   0  0  0  0  0  0  0  0  0  0  0  0
   43.5150   85.9700   61.3950 N   0  0  0  0  0  0  0  0  0  0  0  0
   43.1490   84.6700   61.2520 C   0  0  0  0  0  0  0  0  0  0  0  0
   44.0460   83.7930   60.8260 N   0  0  0  0  0  0  0  0  0  0  0  0
   46.0650   83.4580   60.1830 H   0  0  0  0  0  0  0  0  0  0  0  0
   46.6670   85.8740   60.4720 H   0  0  0  0  0  0  0  0  0  0  0  0
   44.9180   87.4600   61.2770 H   0  0  0  0  0  0  0  0  0  0  0  0
  1  2  1  0  0  0  0
  2  3  2  0  0  0  0
  2  7  1  0  0  0  0
  3  8  1  0  0  0  0
  4  9  1  0  0  0  0
  4  3  1  0  0  0  0
  5  4  2  0  0  0  0
  6  5  1  0  0  0  0
  6  1  2  0  0  0  0
 10  5  1  0  0  0  0
 11  6  1  0  0  0  0
 12 11  1  0  0  0  0
 12 17  1  0  0  0  0
 13 12  2  0  0  0  0
 14 15  2  0  0  0  0
 14 13  1  0  0  0  0
 15 16  1  0  0  0  0
 16 11  2  0  0  0  0
 18 13  1  0  0  0  0
 19 15  1  0  0  0  0
 20 22  1  0  0  0  0
 20 21  1  0  0  0  0
 20 19  1  0  0  0  0
 23 22  1  0  0  0  0
 24 26  1  0  0  0  0
 24 22  1  0  0  0  0
 25 24  1  0  0  0  0
 26 27  1  0  0  0  0
 27 19  1  0  0  0  0
 28 29  2  0  0  0  0
 28 33  1  0  0  0  0
 29 30  1  0  0  0  0
 30 36  1  0  0  0  0
 30 31  2  0  0  0  0
 32 31  1  0  0  0  0
 32  1  1  0  0  0  0
 33 32  2  0  0  0  0
 34 28  1  0  0  0  0
 35 29  1  0  0  0  0
M  END
>  <minimizedAffinity>
-5.65165854

>  <minimizedRMSD>
0.447522044

$$$$
