
 OpenBabel03212521023D

 28 30  0  0  0  0  0  0  0  0999 V2000
   42.2490   84.3230   62.3150 C   0  0  0  0  0  0  0  0  0  0  0  0
   42.6040   84.3770   63.6500 C   0  0  0  0  0  0  0  0  0  0  0  0
   41.6880   84.0970   64.6500 C   0  0  0  0  0  0  0  0  0  0  0  0
   40.3730   83.7510   64.3040 C   0  0  0  0  0  0  0  0  0  0  0  0
   40.0220   83.7000   62.9610 C   0  0  0  0  0  0  0  0  0  0  0  0
   40.9490   83.9830   61.9860 C   0  0  0  0  0  0  0  0  0  0  0  0
   43.6200   84.6430   63.9050 H   0  0  0  0  0  0  0  0  0  0  0  0
   41.9480   84.1320   65.6990 H   0  0  0  0  0  0  0  0  0  0  0  0
   39.6930   83.5410   65.1210 H   0  0  0  0  0  0  0  0  0  0  0  0
   38.9960   83.4280   62.8140 H   0  0  0  0  0  0  0  0  0  0  0  0
   44.9530   83.9820   59.8730 C   0  0  0  0  0  0  0  0  0  0  0  0
   45.0430   85.2800   59.3280 C   0  0  0  0  0  0  0  0  0  0  0  0
   44.1660   86.2510   59.8140 C   0  0  0  0  0  0  0  0  0  0  0  0
   43.2930   85.8820   60.7700 N   0  0  0  0  0  0  0  0  0  0  0  0
   43.2230   84.6150   61.2850 C   0  0  0  0  0  0  0  0  0  0  0  0
   44.0520   83.6820   60.8310 N   0  0  0  0  0  0  0  0  0  0  0  0
   45.5910   83.1510   59.5640 H   0  0  0  0  0  0  0  0  0  0  0  0
   45.7880   85.4530   58.5620 H   0  0  0  0  0  0  0  0  0  0  0  0
   44.2210   87.2330   59.4150 H   0  0  0  0  0  0  0  0  0  0  0  0
   40.4470   83.9000   60.6610 N   0  0  0  0  0  0  0  0  0  0  0  0
   40.6050   82.9740   59.5310 C   0  0  0  0  0  0  0  0  0  0  0  0
   39.6180   82.6190   59.1710 H   0  0  0  0  0  0  0  0  0  0  0  0
   41.2100   83.7130   58.3440 C   0  0  0  0  0  0  0  0  0  0  0  0
   40.9360   83.1360   57.4390 H   0  0  0  0  0  0  0  0  0  0  0  0
   40.6050   85.0290   58.2050 N   0  0  0  0  0  0  0  0  0  0  0  0
   41.2340   85.8150   58.4100 H   0  0  0  0  0  0  0  0  0  0  0  0
   39.3390   85.1060   58.9030 C   0  0  0  0  0  0  0  0  0  0  0  0
   39.5690   85.0150   60.3670 C   0  0  0  0  0  0  0  0  0  0  0  0
  1  2  1  0  0  0  0
  2  7  1  0  0  0  0
  2  3  2  0  0  0  0
  3  8  1  0  0  0  0
  4  3  1  0  0  0  0
  4  9  1  0  0  0  0
  5  4  2  0  0  0  0
  6  1  2  0  0  0  0
  6  5  1  0  0  0  0
 10  5  1  0  0  0  0
 11 16  1  0  0  0  0
 12 13  1  0  0  0  0
 12 11  2  0  0  0  0
 13 14  2  0  0  0  0
 14 15  1  0  0  0  0
 15  1  1  0  0  0  0
 16 15  2  0  0  0  0
 17 11  1  0  0  0  0
 18 12  1  0  0  0  0
 19 13  1  0  0  0  0
 20  6  1  0  0  0  0
 21 20  1  0  0  0  0
 22 21  1  0  0  0  0
 23 21  1  0  0  0  0
 24 23  1  0  0  0  0
 25 23  1  0  0  0  0
 25 26  1  0  0  0  0
 25 27  1  0  0  0  0
 27 28  1  0  0  0  0
 28 20  1  0  0  0  0
M  END
>  <minimizedAffinity>
-4.86376667

>  <minimizedRMSD>
1.56262875

$$$$
