
 OpenBabel03212521053D

 36 39  0  0  0  0  0  0  0  0999 V2000
   41.8190   84.2380   61.5820 C   0  0  0  0  0  0  0  0  0  0  0  0
   41.4550   83.9730   62.8890 C   0  0  0  0  0  0  0  0  0  0  0  0
   40.1760   83.5550   63.2140 C   0  0  0  0  0  0  0  0  0  0  0  0
   39.2360   83.3990   62.1890 C   0  0  0  0  0  0  0  0  0  0  0  0
   39.6120   83.6670   60.8750 C   0  0  0  0  0  0  0  0  0  0  0  0
   40.8800   84.0800   60.5730 C   0  0  0  0  0  0  0  0  0  0  0  0
   42.1590   84.0850   63.6980 H   0  0  0  0  0  0  0  0  0  0  0  0
   39.9330   83.3580   64.2560 H   0  0  0  0  0  0  0  0  0  0  0  0
   38.2420   83.0780   62.4110 H   0  0  0  0  0  0  0  0  0  0  0  0
   38.8630   83.5380   60.1050 H   0  0  0  0  0  0  0  0  0  0  0  0
   41.2250   84.3470   59.1960 C   0  0  0  0  0  0  0  0  0  0  0  0
   40.7740   85.6080   58.7860 C   0  0  0  0  0  0  0  0  0  0  0  0
   41.0090   86.0570   57.4800 C   0  0  0  0  0  0  0  0  0  0  0  0
   41.6770   85.2320   56.6530 N   0  0  0  0  0  0  0  0  0  0  0  0
   42.1090   84.0130   57.0600 C   0  0  0  0  0  0  0  0  0  0  0  0
   41.8870   83.5750   58.3150 N   0  0  0  0  0  0  0  0  0  0  0  0
   40.2330   86.3180   59.3990 H   0  0  0  0  0  0  0  0  0  0  0  0
   40.6730   87.0240   57.1330 H   0  0  0  0  0  0  0  0  0  0  0  0
   42.8200   83.1250   56.2000 N   0  0  0  0  0  0  0  0  0  0  0  0
   44.0090   82.4000   56.6030 C   0  0  0  0  0  3  0  0  0  0  0  0
   44.1610   82.3780   57.7030 H   0  0  0  0  0  0  0  0  0  0  0  0
   43.8940   80.9290   56.1930 C   0  0  0  0  0  3  0  0  0  0  0  0
   44.7620   80.4060   56.6130 H   0  0  0  0  0  0  0  0  0  0  0  0
   43.9400   80.9530   54.7550 N   0  0  0  0  0  0  0  0  0  0  0  0
   44.8600   81.2460   54.3960 H   0  0  0  0  0  0  0  0  0  0  0  0
   42.8410   81.6630   54.2100 C   0  0  0  0  0  2  0  0  0  0  0  0
   42.3890   82.8910   54.8650 C   0  0  0  0  0  2  0  0  0  0  0  0
   45.3740   84.1290   60.7320 C   0  0  0  0  0  0  0  0  0  0  0  0
   45.7490   85.4650   60.7700 C   0  0  0  0  0  0  0  0  0  0  0  0
   44.7710   86.4240   61.0910 C   0  0  0  0  0  0  0  0  0  0  0  0
   43.5130   85.9890   61.3470 N   0  0  0  0  0  0  0  0  0  0  0  0
   43.1780   84.6740   61.3020 C   0  0  0  0  0  0  0  0  0  0  0  0
   44.1110   83.7830   60.9970 N   0  0  0  0  0  0  0  0  0  0  0  0
   46.1640   83.4390   60.4790 H   0  0  0  0  0  0  0  0  0  0  0  0
   46.7070   85.8840   60.5830 H   0  0  0  0  0  0  0  0  0  0  0  0
   44.8930   87.4950   61.1650 H   0  0  0  0  0  0  0  0  0  0  0  0
  1  2  1  0  0  0  0
  2  3  2  0  0  0  0
  2  7  1  0  0  0  0
  3  8  1  0  0  0  0
  4  9  1  0  0  0  0
  4  3  1  0  0  0  0
  5  4  2  0  0  0  0
  6  5  1  0  0  0  0
  6  1  2  0  0  0  0
 10  5  1  0  0  0  0
 11  6  1  0  0  0  0
 12 11  1  0  0  0  0
 12 17  1  0  0  0  0
 13 12  2  0  0  0  0
 14 15  2  0  0  0  0
 14 13  1  0  0  0  0
 15 16  1  0  0  0  0
 16 11  2  0  0  0  0
 18 13  1  0  0  0  0
 19 20  1  0  0  0  0
 19 15  1  0  0  0  0
 20 21  1  0  0  0  0
 22 20  1  0  0  0  0
 22 23  1  0  0  0  0
 24 22  1  0  0  0  0
 25 24  1  0  0  0  0
 26 24  1  0  0  0  0
 26 27  1  0  0  0  0
 27 19  1  0  0  0  0
 28 29  2  0  0  0  0
 28 33  1  0  0  0  0
 29 30  1  0  0  0  0
 30 36  1  0  0  0  0
 30 31  2  0  0  0  0
 32 31  1  0  0  0  0
 32  1  1  0  0  0  0
 33 32  2  0  0  0  0
 34 28  1  0  0  0  0
 35 29  1  0  0  0  0
M  END
>  <minimizedAffinity>
-5.60950708

>  <minimizedRMSD>
0.0795976073

$$$$
