
 OpenBabel03212520403D

 21 23  0  0  1  0  0  0  0  0999 V2000
   42.2930   85.4540   59.7480 C   0  0  1  0  0  0  0  0  0  0  0  0
   43.4380   86.2050   59.0790 C   0  0  0  0  0  0  0  0  0  0  0  0
   42.6240   85.1580   58.3460 C   0  0  1  0  0  0  0  0  0  0  0  0
   41.4690   86.1500   60.0240 H   0  0  0  0  0  0  0  0  0  0  0  0
   43.3290   87.2610   58.8070 H   0  0  0  0  0  0  0  0  0  0  0  0
   44.4810   85.9170   59.2800 H   0  0  0  0  0  0  0  0  0  0  0  0
   41.9810   85.5810   57.5450 H   0  0  0  0  0  0  0  0  0  0  0  0
   42.7710   84.5730   60.7660 O   0  0  0  0  0  0  0  0  0  0  0  0
   40.0550   83.5250   62.9210 C   0  0  0  0  0  0  0  0  0  0  0  0
   40.5950   83.7400   64.1900 C   0  0  0  0  0  0  0  0  0  0  0  0
   41.9160   84.2540   64.2650 C   0  0  0  0  0  0  0  0  0  0  0  0
   42.5330   84.4900   63.0810 N   0  0  0  0  0  0  0  0  0  0  0  0
   41.9990   84.2770   61.8650 C   0  0  0  0  0  0  0  0  0  0  0  0
   40.7570   83.7930   61.7750 N   0  0  0  0  0  0  0  0  0  0  0  0
   39.0540   83.1350   62.7720 H   0  0  0  0  0  0  0  0  0  0  0  0
   40.0260   83.5230   65.0640 H   0  0  0  0  0  0  0  0  0  0  0  0
   42.3700   84.4350   65.2110 H   0  0  0  0  0  0  0  0  0  0  0  0
   43.2330   83.9240   58.0890 O   0  0  0  0  0  0  0  0  0  0  0  0
   42.6340   83.3740   56.9750 C   0  0  0  0  0  3  0  0  0  0  0  0
   41.4020   82.5510   57.0800 C   0  0  0  0  0  2  0  0  0  0  0  0
   42.7080   81.8570   56.8880 C   0  0  0  0  0  2  0  0  0  0  0  0
  1  4  1  1  0  0  0
  1  8  1  0  0  0  0
  2  6  1  0  0  0  0
  2  1  1  0  0  0  0
  3  7  1  6  0  0  0
  3  2  1  0  0  0  0
  3  1  1  0  0  0  0
  5  2  1  0  0  0  0
  8 13  1  0  0  0  0
  9 10  1  0  0  0  0
 10 11  2  0  0  0  0
 10 16  1  0  0  0  0
 11 17  1  0  0  0  0
 12 11  1  0  0  0  0
 13 12  2  0  0  0  0
 14 13  1  0  0  0  0
 14  9  2  0  0  0  0
 15  9  1  0  0  0  0
 18  3  1  0  0  0  0
 19 20  1  0  0  0  0
 19 18  1  0  0  0  0
 21 19  1  0  0  0  0
 21 20  1  0  0  0  0
M  END
>  <minimizedAffinity>
-3.42867184

>  <minimizedRMSD>
0.950389028

$$$$
