
 OpenBabel03212520403D

 21 23  0  0  1  0  0  0  0  0999 V2000
   42.8290   85.6820   60.1350 C   0  0  1  0  0  0  0  0  0  0  0  0
   44.2160   86.2860   59.9480 C   0  0  0  0  0  0  0  0  0  0  0  0
   43.4080   85.7470   58.7840 C   0  0  1  0  0  0  0  0  0  0  0  0
   42.1090   86.4470   60.5050 H   0  0  0  0  0  0  0  0  0  0  0  0
   44.3720   87.3660   60.0430 H   0  0  0  0  0  0  0  0  0  0  0  0
   45.1130   85.6970   60.1940 H   0  0  0  0  0  0  0  0  0  0  0  0
   43.0540   86.5400   58.0900 H   0  0  0  0  0  0  0  0  0  0  0  0
   42.8900   84.4450   60.8470 O   0  0  0  0  0  0  0  0  0  0  0  0
   40.0630   83.5120   62.9100 C   0  0  0  0  0  0  0  0  0  0  0  0
   40.5390   83.7850   64.1930 C   0  0  0  0  0  0  0  0  0  0  0  0
   41.8580   84.2970   64.3100 C   0  0  0  0  0  0  0  0  0  0  0  0
   42.5350   84.4740   63.1490 N   0  0  0  0  0  0  0  0  0  0  0  0
   42.0620   84.2050   61.9190 C   0  0  0  0  0  0  0  0  0  0  0  0
   40.8230   83.7220   61.7890 N   0  0  0  0  0  0  0  0  0  0  0  0
   39.0690   83.1180   62.7300 H   0  0  0  0  0  0  0  0  0  0  0  0
   39.9260   83.6120   65.0470 H   0  0  0  0  0  0  0  0  0  0  0  0
   42.2660   84.5220   65.2680 H   0  0  0  0  0  0  0  0  0  0  0  0
   43.8160   84.5360   58.2150 O   0  0  0  0  0  0  0  0  0  0  0  0
   43.3370   84.4870   56.9220 C   0  0  0  0  0  3  0  0  0  0  0  0
   41.8860   84.5900   56.6260 C   0  0  0  0  0  2  0  0  0  0  0  0
   42.5280   83.2450   56.5830 C   0  0  0  0  0  2  0  0  0  0  0  0
  1  4  1  1  0  0  0
  1  8  1  0  0  0  0
  2  5  1  0  0  0  0
  2  1  1  0  0  0  0
  2  6  1  0  0  0  0
  3  7  1  6  0  0  0
  3  2  1  0  0  0  0
  3  1  1  0  0  0  0
  8 13  1  0  0  0  0
  9 10  1  0  0  0  0
 10 11  2  0  0  0  0
 10 16  1  0  0  0  0
 11 17  1  0  0  0  0
 12 11  1  0  0  0  0
 13 12  2  0  0  0  0
 14 13  1  0  0  0  0
 14  9  2  0  0  0  0
 15  9  1  0  0  0  0
 18  3  1  0  0  0  0
 19 18  1  0  0  0  0
 20 19  1  0  0  0  0
 21 20  1  0  0  0  0
 21 19  1  0  0  0  0
M  END
>  <minimizedAffinity>
-3.45699048

>  <minimizedRMSD>
0.659702182

$$$$
