
 OpenBabel03212520553D

 29 32  0  0  0  0  0  0  0  0999 V2000
   40.9670   80.3350   61.7600 C   0  0  0  0  0  0  0  0  0  0  0  0
   40.9550   79.0910   62.3650 C   0  0  0  0  0  0  0  0  0  0  0  0
   40.5730   78.0330   61.6270 C   0  0  0  0  0  0  0  0  0  0  0  0
   40.2070   78.2150   60.3020 C   0  0  0  0  0  0  0  0  0  0  0  0
   40.4140   80.0350   60.0550 S   0  0  0  0  0  0  0  0  0  0  0  0
   41.2430   78.9510   63.4060 H   0  0  0  0  0  0  0  0  0  0  0  0
   40.4980   76.9930   61.9140 H   0  0  0  0  0  0  0  0  0  0  0  0
   43.0410   83.1370   62.8930 C   0  0  0  0  0  0  0  0  0  0  0  0
   42.1540   83.8970   63.6820 C   0  0  0  0  0  0  0  0  0  0  0  0
   40.8380   83.4410   63.8210 C   0  0  0  0  0  0  0  0  0  0  0  0
   40.4810   82.2970   63.1940 N   0  0  0  0  0  0  0  0  0  0  0  0
   41.3660   81.5960   62.4450 C   0  0  0  0  0  0  0  0  0  0  0  0
   42.6150   82.0150   62.3040 N   0  0  0  0  0  0  0  0  0  0  0  0
   44.0760   83.3960   62.7190 H   0  0  0  0  0  0  0  0  0  0  0  0
   42.5380   84.7980   64.1410 H   0  0  0  0  0  0  0  0  0  0  0  0
   40.1580   84.0150   64.4200 H   0  0  0  0  0  0  0  0  0  0  0  0
   39.7550   77.3800   59.2200 C   0  0  0  0  0  0  0  0  0  0  0  0
   40.3910   76.1990   58.9900 C   0  0  0  0  0  0  0  0  0  0  0  0
   39.8420   75.4890   57.9060 C   0  0  0  0  0  0  0  0  0  0  0  0
   38.7990   75.9200   57.1660 N   0  0  0  0  0  0  0  0  0  0  0  0
   38.2390   77.1080   57.4790 C   0  0  0  0  0  0  0  0  0  0  0  0
   38.7150   77.8520   58.5150 N   0  0  0  0  0  0  0  0  0  0  0  0
   41.2220   75.8000   59.5370 H   0  0  0  0  0  0  0  0  0  0  0  0
   40.2740   74.5250   57.6280 H   0  0  0  0  0  0  0  0  0  0  0  0
   37.1150   77.5750   56.6850 C   0  0  0  0  0  0  0  0  0  0  0  0
   35.9690   77.1840   57.0120 O   0  0  0  0  0  0  0  0  0  0  0  0
   37.2690   78.4890   55.5060 C   0  0  0  0  0  3  0  0  0  0  0  0
   37.3490   79.9270   55.8580 C   0  0  0  0  0  2  0  0  0  0  0  0
   38.5350   79.2260   55.3270 C   0  0  0  0  0  2  0  0  0  0  0  0
  1  2  2  0  0  0  0
  1 12  1  0  0  0  0
  2  6  1  0  0  0  0
  3  7  1  0  0  0  0
  3  2  1  0  0  0  0
  4  3  2  0  0  0  0
  5  4  1  0  0  0  0
  5  1  1  0  0  0  0
  8  9  1  0  0  0  0
  9 10  2  0  0  0  0
  9 15  1  0  0  0  0
 10 16  1  0  0  0  0
 11 10  1  0  0  0  0
 12 11  2  0  0  0  0
 13 12  1  0  0  0  0
 13  8  2  0  0  0  0
 14  8  1  0  0  0  0
 17  4  1  0  0  0  0
 18 17  1  0  0  0  0
 18 23  1  0  0  0  0
 19 18  2  0  0  0  0
 20 21  2  0  0  0  0
 20 19  1  0  0  0  0
 21 22  1  0  0  0  0
 22 17  2  0  0  0  0
 24 19  1  0  0  0  0
 25 26  2  0  0  0  0
 25 21  1  0  0  0  0
 27 28  1  0  0  0  0
 27 25  1  0  0  0  0
 29 27  1  0  0  0  0
 29 28  1  0  0  0  0
M  END
>  <minimizedAffinity>
-5.86272097

>  <minimizedRMSD>
0.619932115

$$$$
