
 OpenBabel03212520573D

 29 32  0  0  0  0  0  0  0  0999 V2000
   41.8360   69.7980   62.0540 C   0  0  0  0  0  0  0  0  0  0  0  0
   41.7300   70.7690   63.0330 C   0  0  0  0  0  0  0  0  0  0  0  0
   41.8210   72.0580   62.6570 C   0  0  0  0  0  0  0  0  0  0  0  0
   42.0180   72.3720   61.3210 C   0  0  0  0  0  0  0  0  0  0  0  0
   42.0800   70.7160   60.5040 S   0  0  0  0  0  0  0  0  0  0  0  0
   41.5760   70.5190   64.0820 H   0  0  0  0  0  0  0  0  0  0  0  0
   41.7650   72.9500   63.2650 H   0  0  0  0  0  0  0  0  0  0  0  0
   42.5010   66.2040   61.7760 C   0  0  0  0  0  0  0  0  0  0  0  0
   41.6410   65.6410   62.7400 C   0  0  0  0  0  0  0  0  0  0  0  0
   40.8310   66.5040   63.4870 C   0  0  0  0  0  0  0  0  0  0  0  0
   40.9130   67.8340   63.2500 N   0  0  0  0  0  0  0  0  0  0  0  0
   41.7540   68.3340   62.3130 C   0  0  0  0  0  0  0  0  0  0  0  0
   42.5260   67.5290   61.5990 N   0  0  0  0  0  0  0  0  0  0  0  0
   43.1680   65.6320   61.1470 H   0  0  0  0  0  0  0  0  0  0  0  0
   41.6510   64.5650   62.8540 H   0  0  0  0  0  0  0  0  0  0  0  0
   40.1740   66.0820   64.2220 H   0  0  0  0  0  0  0  0  0  0  0  0
   42.1650   73.5740   60.5430 C   0  0  0  0  0  0  0  0  0  0  0  0
   43.3750   73.8530   59.9830 C   0  0  0  0  0  0  0  0  0  0  0  0
   43.3710   75.0540   59.2520 C   0  0  0  0  0  0  0  0  0  0  0  0
   42.2930   75.8540   59.1100 N   0  0  0  0  0  0  0  0  0  0  0  0
   41.1400   75.4850   59.7070 C   0  0  0  0  0  0  0  0  0  0  0  0
   41.0660   74.3350   60.4320 N   0  0  0  0  0  0  0  0  0  0  0  0
   44.2660   73.2620   60.0570 H   0  0  0  0  0  0  0  0  0  0  0  0
   44.2890   75.3790   58.7580 H   0  0  0  0  0  0  0  0  0  0  0  0
   39.9760   76.3440   59.5570 C   0  0  0  0  0  0  0  0  0  0  0  0
   39.9440   77.4020   60.2290 O   0  0  0  0  0  0  0  0  0  0  0  0
   38.8310   76.0190   58.6450 C   0  0  0  0  0  3  0  0  0  0  0  0
   38.8470   76.7580   57.3600 C   0  0  0  0  0  2  0  0  0  0  0  0
   39.0970   75.3030   57.3820 C   0  0  0  0  0  2  0  0  0  0  0  0
  1 12  1  0  0  0  0
  1  2  2  0  0  0  0
  2  6  1  0  0  0  0
  3  2  1  0  0  0  0
  3  7  1  0  0  0  0
  4  3  2  0  0  0  0
  5  4  1  0  0  0  0
  5  1  1  0  0  0  0
  8  9  1  0  0  0  0
  9 15  1  0  0  0  0
  9 10  2  0  0  0  0
 10 16  1  0  0  0  0
 11 10  1  0  0  0  0
 12 11  2  0  0  0  0
 13  8  2  0  0  0  0
 13 12  1  0  0  0  0
 14  8  1  0  0  0  0
 17  4  1  0  0  0  0
 18 23  1  0  0  0  0
 18 17  2  0  0  0  0
 19 18  1  0  0  0  0
 20 19  2  0  0  0  0
 20 21  1  0  0  0  0
 21 22  2  0  0  0  0
 22 17  1  0  0  0  0
 24 19  1  0  0  0  0
 25 21  1  0  0  0  0
 25 26  2  0  0  0  0
 27 25  1  0  0  0  0
 28 29  1  0  0  0  0
 28 27  1  0  0  0  0
 29 27  1  0  0  0  0
M  END
>  <minimizedAffinity>
-5.6047368

$$$$

 OpenBabel03212520573D

 29 32  0  0  0  0  0  0  0  0999 V2000
   40.7930   73.3480   59.8510 C   0  0  0  0  0  0  0  0  0  0  0  0
   41.0080   72.3370   58.9320 C   0  0  0  0  0  0  0  0  0  0  0  0
   41.4410   71.1480   59.3910 C   0  0  0  0  0  0  0  0  0  0  0  0
   41.6560   70.9720   60.7500 C   0  0  0  0  0  0  0  0  0  0  0  0
   41.2140   72.6200   61.4620 S   0  0  0  0  0  0  0  0  0  0  0  0
   40.8390   72.4780   57.8660 H   0  0  0  0  0  0  0  0  0  0  0  0
   41.6650   70.2460   58.8390 H   0  0  0  0  0  0  0  0  0  0  0  0
   39.9030   76.8870   60.1970 C   0  0  0  0  0  0  0  0  0  0  0  0
   39.4450   77.2320   58.9090 C   0  0  0  0  0  0  0  0  0  0  0  0
   39.4450   76.2410   57.9210 C   0  0  0  0  0  0  0  0  0  0  0  0
   39.8830   75.0040   58.2470 N   0  0  0  0  0  0  0  0  0  0  0  0
   40.3150   74.7140   59.4970 C   0  0  0  0  0  0  0  0  0  0  0  0
   40.3210   75.6420   60.4430 N   0  0  0  0  0  0  0  0  0  0  0  0
   39.9450   77.5720   61.0320 H   0  0  0  0  0  0  0  0  0  0  0  0
   39.1150   78.2510   58.7500 H   0  0  0  0  0  0  0  0  0  0  0  0
   39.0980   76.4970   56.9390 H   0  0  0  0  0  0  0  0  0  0  0  0
   42.0990   69.9040   61.6060 C   0  0  0  0  0  0  0  0  0  0  0  0
   42.8550   70.2040   62.6980 C   0  0  0  0  0  0  0  0  0  0  0  0
   43.2130   69.0650   63.4410 C   0  0  0  0  0  0  0  0  0  0  0  0
   42.8520   67.8040   63.1200 N   0  0  0  0  0  0  0  0  0  0  0  0
   42.1000   67.6160   62.0150 C   0  0  0  0  0  0  0  0  0  0  0  0
   41.7150   68.6700   61.2450 N   0  0  0  0  0  0  0  0  0  0  0  0
   43.1750   71.1790   63.0070 H   0  0  0  0  0  0  0  0  0  0  0  0
   43.8210   69.1860   64.3400 H   0  0  0  0  0  0  0  0  0  0  0  0
   41.7100   66.2600   61.6670 C   0  0  0  0  0  0  0  0  0  0  0  0
   42.5270   65.5690   61.0130 O   0  0  0  0  0  0  0  0  0  0  0  0
   40.3880   65.6640   62.0510 C   0  0  0  0  0  3  0  0  0  0  0  0
   40.2710   65.3170   63.4870 C   0  0  0  0  0  2  0  0  0  0  0  0
   39.4800   66.4300   62.9260 C   0  0  0  0  0  2  0  0  0  0  0  0
  1  5  1  0  0  0  0
  2  3  1  0  0  0  0
  2  1  2  0  0  0  0
  3  4  2  0  0  0  0
  4  5  1  0  0  0  0
  4 17  1  0  0  0  0
  6  2  1  0  0  0  0
  7  3  1  0  0  0  0
  8 13  1  0  0  0  0
  8 14  1  0  0  0  0
  9  8  2  0  0  0  0
 10 11  2  0  0  0  0
 10  9  1  0  0  0  0
 11 12  1  0  0  0  0
 12  1  1  0  0  0  0
 12 13  2  0  0  0  0
 15  9  1  0  0  0  0
 16 10  1  0  0  0  0
 17 18  1  0  0  0  0
 18 23  1  0  0  0  0
 18 19  2  0  0  0  0
 19 24  1  0  0  0  0
 20 19  1  0  0  0  0
 21 20  2  0  0  0  0
 22 17  2  0  0  0  0
 22 21  1  0  0  0  0
 25 21  1  0  0  0  0
 25 27  1  0  0  0  0
 26 25  2  0  0  0  0
 27 29  1  0  0  0  0
 27 28  1  0  0  0  0
 29 28  1  0  0  0  0
M  END
>  <minimizedAffinity>
-5.56397104

$$$$

 OpenBabel03212520573D

 29 32  0  0  0  0  0  0  0  0999 V2000
   41.7080   71.0790   61.2730 C   0  0  0  0  0  0  0  0  0  0  0  0
   41.4620   71.9720   62.3000 C   0  0  0  0  0  0  0  0  0  0  0  0
   40.8840   73.1470   61.9910 C   0  0  0  0  0  0  0  0  0  0  0  0
   40.5540   73.4250   60.6730 C   0  0  0  0  0  0  0  0  0  0  0  0
   41.1010   71.9060   59.7730 S   0  0  0  0  0  0  0  0  0  0  0  0
   41.7220   71.7510   63.3340 H   0  0  0  0  0  0  0  0  0  0  0  0
   40.6150   73.9660   62.6430 H   0  0  0  0  0  0  0  0  0  0  0  0
   43.8300   68.4280   62.6550 C   0  0  0  0  0  0  0  0  0  0  0  0
   43.5330   67.3180   61.8380 C   0  0  0  0  0  0  0  0  0  0  0  0
   42.5980   67.4870   60.8110 C   0  0  0  0  0  0  0  0  0  0  0  0
   42.0250   68.7010   60.6500 N   0  0  0  0  0  0  0  0  0  0  0  0
   42.3390   69.7420   61.4580 C   0  0  0  0  0  0  0  0  0  0  0  0
   43.2220   69.5990   62.4350 N   0  0  0  0  0  0  0  0  0  0  0  0
   44.5340   68.4100   63.4750 H   0  0  0  0  0  0  0  0  0  0  0  0
   44.0460   66.3900   62.0500 H   0  0  0  0  0  0  0  0  0  0  0  0
   42.3680   66.6460   60.1860 H   0  0  0  0  0  0  0  0  0  0  0  0
   39.9520   74.5190   59.9560 C   0  0  0  0  0  0  0  0  0  0  0  0
   40.2480   75.7940   60.3290 C   0  0  0  0  0  0  0  0  0  0  0  0
   39.5900   76.7570   59.5430 C   0  0  0  0  0  0  0  0  0  0  0  0
   38.7540   76.4630   58.5250 N   0  0  0  0  0  0  0  0  0  0  0  0
   38.5280   75.1640   58.2370 C   0  0  0  0  0  0  0  0  0  0  0  0
   39.1290   74.1760   58.9540 N   0  0  0  0  0  0  0  0  0  0  0  0
   40.9010   76.0940   61.1250 H   0  0  0  0  0  0  0  0  0  0  0  0
   39.7530   77.8160   59.7520 H   0  0  0  0  0  0  0  0  0  0  0  0
   37.6280   74.8450   57.1410 C   0  0  0  0  0  0  0  0  0  0  0  0
   37.3060   73.6430   56.9840 O   0  0  0  0  0  0  0  0  0  0  0  0
   37.0790   75.8790   56.2040 C   0  0  0  0  0  3  0  0  0  0  0  0
   37.9110   76.1120   54.9990 C   0  0  0  0  0  2  0  0  0  0  0  0
   36.5910   75.4610   54.8760 C   0  0  0  0  0  2  0  0  0  0  0  0
  1 12  1  0  0  0  0
  1  2  2  0  0  0  0
  2  6  1  0  0  0  0
  3  2  1  0  0  0  0
  3  7  1  0  0  0  0
  4  3  2  0  0  0  0
  5  4  1  0  0  0  0
  5  1  1  0  0  0  0
  8 14  1  0  0  0  0
  9 15  1  0  0  0  0
  9  8  2  0  0  0  0
 10  9  1  0  0  0  0
 11 10  2  0  0  0  0
 11 12  1  0  0  0  0
 12 13  2  0  0  0  0
 13  8  1  0  0  0  0
 16 10  1  0  0  0  0
 17 18  1  0  0  0  0
 17  4  1  0  0  0  0
 18 23  1  0  0  0  0
 19 24  1  0  0  0  0
 19 18  2  0  0  0  0
 20 19  1  0  0  0  0
 21 20  2  0  0  0  0
 21 22  1  0  0  0  0
 22 17  2  0  0  0  0
 25 21  1  0  0  0  0
 26 25  2  0  0  0  0
 27 25  1  0  0  0  0
 28 27  1  0  0  0  0
 29 28  1  0  0  0  0
 29 27  1  0  0  0  0
M  END
>  <minimizedAffinity>
-5.36454773

$$$$

 OpenBabel03212520573D

 29 32  0  0  0  0  0  0  0  0999 V2000
   41.9380   69.4500   62.1040 C   0  0  0  0  0  0  0  0  0  0  0  0
   42.0890   70.4740   63.0210 C   0  0  0  0  0  0  0  0  0  0  0  0
   42.4430   71.6880   62.5610 C   0  0  0  0  0  0  0  0  0  0  0  0
   42.6450   71.8760   61.2020 C   0  0  0  0  0  0  0  0  0  0  0  0
   42.3090   70.2030   60.4910 S   0  0  0  0  0  0  0  0  0  0  0  0
   41.9300   70.3240   64.0880 H   0  0  0  0  0  0  0  0  0  0  0  0
   42.6090   72.6040   63.1110 H   0  0  0  0  0  0  0  0  0  0  0  0
   40.0170   66.6520   63.4860 C   0  0  0  0  0  0  0  0  0  0  0  0
   40.7930   65.5260   63.1430 C   0  0  0  0  0  0  0  0  0  0  0  0
   41.9810   65.7350   62.4330 C   0  0  0  0  0  0  0  0  0  0  0  0
   42.3260   67.0030   62.1100 N   0  0  0  0  0  0  0  0  0  0  0  0
   41.5510   68.0570   62.4590 C   0  0  0  0  0  0  0  0  0  0  0  0
   40.4240   67.8740   63.1320 N   0  0  0  0  0  0  0  0  0  0  0  0
   39.0850   66.6050   64.0320 H   0  0  0  0  0  0  0  0  0  0  0  0
   40.4290   64.5540   63.4480 H   0  0  0  0  0  0  0  0  0  0  0  0
   42.5760   64.8830   62.1690 H   0  0  0  0  0  0  0  0  0  0  0  0
   43.0160   72.9710   60.3440 C   0  0  0  0  0  0  0  0  0  0  0  0
   42.1310   73.9860   60.1500 C   0  0  0  0  0  0  0  0  0  0  0  0
   42.6280   74.9840   59.2920 C   0  0  0  0  0  0  0  0  0  0  0  0
   43.8490   74.9520   58.7170 N   0  0  0  0  0  0  0  0  0  0  0  0
   44.6510   73.8980   58.9760 C   0  0  0  0  0  0  0  0  0  0  0  0
   44.2390   72.8930   59.7970 N   0  0  0  0  0  0  0  0  0  0  0  0
   41.1500   74.0710   60.5740 H   0  0  0  0  0  0  0  0  0  0  0  0
   42.0020   75.8490   59.0640 H   0  0  0  0  0  0  0  0  0  0  0  0
   45.9660   73.8610   58.3590 C   0  0  0  0  0  0  0  0  0  0  0  0
   46.9320   73.4940   59.0690 O   0  0  0  0  0  0  0  0  0  0  0  0
   46.2100   74.2390   56.9280 C   0  0  0  0  0  3  0  0  0  0  0  0
   46.6910   73.1250   56.0770 C   0  0  0  0  0  2  0  0  0  0  0  0
   45.3380   73.6800   55.8780 C   0  0  0  0  0  2  0  0  0  0  0  0
  1 12  1  0  0  0  0
  1  2  2  0  0  0  0
  2  6  1  0  0  0  0
  3  2  1  0  0  0  0
  3  7  1  0  0  0  0
  4  3  2  0  0  0  0
  5  4  1  0  0  0  0
  5  1  1  0  0  0  0
  8 14  1  0  0  0  0
  9 15  1  0  0  0  0
  9  8  1  0  0  0  0
 10  9  2  0  0  0  0
 11 10  1  0  0  0  0
 11 12  2  0  0  0  0
 12 13  1  0  0  0  0
 13  8  2  0  0  0  0
 16 10  1  0  0  0  0
 17  4  1  0  0  0  0
 18 17  1  0  0  0  0
 18 23  1  0  0  0  0
 19 18  2  0  0  0  0
 20 21  2  0  0  0  0
 20 19  1  0  0  0  0
 21 22  1  0  0  0  0
 22 17  2  0  0  0  0
 24 19  1  0  0  0  0
 25 21  1  0  0  0  0
 25 26  2  0  0  0  0
 27 25  1  0  0  0  0
 28 27  1  0  0  0  0
 29 28  1  0  0  0  0
 29 27  1  0  0  0  0
M  END
>  <minimizedAffinity>
-5.35196781

$$$$

 OpenBabel03212520573D

 29 32  0  0  0  0  0  0  0  0999 V2000
   39.1860   74.4310   59.0340 C   0  0  0  0  0  0  0  0  0  0  0  0
   39.4630   74.9460   60.2870 C   0  0  0  0  0  0  0  0  0  0  0  0
   40.1700   74.1840   61.1420 C   0  0  0  0  0  0  0  0  0  0  0  0
   40.5930   72.9230   60.7490 C   0  0  0  0  0  0  0  0  0  0  0  0
   39.9480   72.7800   59.0230 S   0  0  0  0  0  0  0  0  0  0  0  0
   39.1290   75.9360   60.5920 H   0  0  0  0  0  0  0  0  0  0  0  0
   40.4830   74.4050   62.1520 H   0  0  0  0  0  0  0  0  0  0  0  0
   36.7460   75.0740   56.3740 C   0  0  0  0  0  0  0  0  0  0  0  0
   36.9830   76.4230   56.0390 C   0  0  0  0  0  0  0  0  0  0  0  0
   37.9850   77.1090   56.7330 C   0  0  0  0  0  0  0  0  0  0  0  0
   38.6770   76.4500   57.6900 N   0  0  0  0  0  0  0  0  0  0  0  0
   38.4180   75.1530   57.9820 C   0  0  0  0  0  0  0  0  0  0  0  0
   37.4720   74.4890   57.3330 N   0  0  0  0  0  0  0  0  0  0  0  0
   35.9990   74.4520   55.9040 H   0  0  0  0  0  0  0  0  0  0  0  0
   36.3740   76.8590   55.2580 H   0  0  0  0  0  0  0  0  0  0  0  0
   38.1700   78.1360   56.4820 H   0  0  0  0  0  0  0  0  0  0  0  0
   41.3370   71.8410   61.3400 C   0  0  0  0  0  0  0  0  0  0  0  0
   41.3350   71.7030   62.6950 C   0  0  0  0  0  0  0  0  0  0  0  0
   42.1000   70.6060   63.1290 C   0  0  0  0  0  0  0  0  0  0  0  0
   42.7680   69.7710   62.3050 N   0  0  0  0  0  0  0  0  0  0  0  0
   42.7030   69.9970   60.9760 C   0  0  0  0  0  0  0  0  0  0  0  0
   41.9830   71.0400   60.4800 N   0  0  0  0  0  0  0  0  0  0  0  0
   40.8280   72.3280   63.4020 H   0  0  0  0  0  0  0  0  0  0  0  0
   42.1710   70.3970   64.1990 H   0  0  0  0  0  0  0  0  0  0  0  0
   43.4210   69.1000   60.0860 C   0  0  0  0  0  0  0  0  0  0  0  0
   44.6630   69.2440   59.9930 O   0  0  0  0  0  0  0  0  0  0  0  0
   42.7460   68.0260   59.2860 C   0  0  0  0  0  3  0  0  0  0  0  0
   42.6070   66.7330   59.9970 C   0  0  0  0  0  2  0  0  0  0  0  0
   41.4130   67.5500   59.7030 C   0  0  0  0  0  2  0  0  0  0  0  0
  1  2  2  0  0  0  0
  2  6  1  0  0  0  0
  2  3  1  0  0  0  0
  3  7  1  0  0  0  0
  4  3  2  0  0  0  0
  4 17  1  0  0  0  0
  5  1  1  0  0  0  0
  5  4  1  0  0  0  0
  8 13  1  0  0  0  0
  9  8  2  0  0  0  0
  9 10  1  0  0  0  0
 10 11  2  0  0  0  0
 11 12  1  0  0  0  0
 12  1  1  0  0  0  0
 13 12  2  0  0  0  0
 14  8  1  0  0  0  0
 15  9  1  0  0  0  0
 16 10  1  0  0  0  0
 17 18  1  0  0  0  0
 18 19  2  0  0  0  0
 18 23  1  0  0  0  0
 19 24  1  0  0  0  0
 20 19  1  0  0  0  0
 21 20  2  0  0  0  0
 22 21  1  0  0  0  0
 22 17  2  0  0  0  0
 25 21  1  0  0  0  0
 26 25  2  0  0  0  0
 27 29  1  0  0  0  0
 27 28  1  0  0  0  0
 27 25  1  0  0  0  0
 29 28  1  0  0  0  0
M  END
>  <minimizedAffinity>
-5.33571196

$$$$

 OpenBabel03212520573D

 29 32  0  0  0  0  0  0  0  0999 V2000
   42.2820   69.8190   61.7140 C   0  0  0  0  0  0  0  0  0  0  0  0
   42.0280   70.5250   62.8750 C   0  0  0  0  0  0  0  0  0  0  0  0
   41.5170   71.7650   62.7610 C   0  0  0  0  0  0  0  0  0  0  0  0
   41.2640   72.2920   61.5030 C   0  0  0  0  0  0  0  0  0  0  0  0
   41.7860   70.9320   60.3650 S   0  0  0  0  0  0  0  0  0  0  0  0
   42.2280   70.1090   63.8610 H   0  0  0  0  0  0  0  0  0  0  0  0
   41.2540   72.4680   63.5400 H   0  0  0  0  0  0  0  0  0  0  0  0
   42.4340   66.1560   61.6800 C   0  0  0  0  0  0  0  0  0  0  0  0
   43.8170   65.8910   61.6210 C   0  0  0  0  0  0  0  0  0  0  0  0
   44.6970   66.9790   61.5910 C   0  0  0  0  0  0  0  0  0  0  0  0
   44.1810   68.2290   61.6200 N   0  0  0  0  0  0  0  0  0  0  0  0
   42.8440   68.4400   61.6780 C   0  0  0  0  0  0  0  0  0  0  0  0
   41.9990   67.4200   61.7070 N   0  0  0  0  0  0  0  0  0  0  0  0
   41.6690   65.3940   61.7070 H   0  0  0  0  0  0  0  0  0  0  0  0
   44.1290   64.8550   61.6010 H   0  0  0  0  0  0  0  0  0  0  0  0
   45.7510   66.7840   61.5460 H   0  0  0  0  0  0  0  0  0  0  0  0
   40.7460   73.5260   60.9740 C   0  0  0  0  0  0  0  0  0  0  0  0
   39.4440   73.8480   61.2080 C   0  0  0  0  0  0  0  0  0  0  0  0
   39.0770   75.0780   60.6340 C   0  0  0  0  0  0  0  0  0  0  0  0
   39.9140   75.8660   59.9270 N   0  0  0  0  0  0  0  0  0  0  0  0
   41.1870   75.4540   59.7530 C   0  0  0  0  0  0  0  0  0  0  0  0
   41.6160   74.2730   60.2790 N   0  0  0  0  0  0  0  0  0  0  0  0
   38.7300   73.2690   61.7590 H   0  0  0  0  0  0  0  0  0  0  0  0
   38.0530   75.4390   60.7570 H   0  0  0  0  0  0  0  0  0  0  0  0
   42.0920   76.3000   58.9920 C   0  0  0  0  0  0  0  0  0  0  0  0
   42.6910   77.2130   59.6080 O   0  0  0  0  0  0  0  0  0  0  0  0
   42.3320   76.1270   57.5220 C   0  0  0  0  0  3  0  0  0  0  0  0
   43.1190   74.9210   57.1710 C   0  0  0  0  0  2  0  0  0  0  0  0
   41.6880   75.0020   56.8150 C   0  0  0  0  0  2  0  0  0  0  0  0
  1  2  2  0  0  0  0
  2  6  1  0  0  0  0
  3  2  1  0  0  0  0
  3  7  1  0  0  0  0
  4  3  2  0  0  0  0
  5  4  1  0  0  0  0
  5  1  1  0  0  0  0
  8 14  1  0  0  0  0
  8 13  1  0  0  0  0
  9  8  2  0  0  0  0
 10 11  2  0  0  0  0
 10  9  1  0  0  0  0
 11 12  1  0  0  0  0
 12 13  2  0  0  0  0
 12  1  1  0  0  0  0
 15  9  1  0  0  0  0
 16 10  1  0  0  0  0
 17 18  1  0  0  0  0
 17  4  1  0  0  0  0
 18 23  1  0  0  0  0
 19 24  1  0  0  0  0
 19 18  2  0  0  0  0
 20 19  1  0  0  0  0
 21 20  2  0  0  0  0
 21 22  1  0  0  0  0
 22 17  2  0  0  0  0
 25 26  2  0  0  0  0
 25 21  1  0  0  0  0
 27 25  1  0  0  0  0
 28 27  1  0  0  0  0
 29 28  1  0  0  0  0
 29 27  1  0  0  0  0
M  END
>  <minimizedAffinity>
-5.27213907

$$$$

 OpenBabel03212520573D

 29 32  0  0  0  0  0  0  0  0999 V2000
   38.6230   74.7330   57.0000 C   0  0  0  0  0  0  0  0  0  0  0  0
   38.0730   73.7430   57.7940 C   0  0  0  0  0  0  0  0  0  0  0  0
   38.8840   73.0950   58.6490 C   0  0  0  0  0  0  0  0  0  0  0  0
   40.2290   73.4300   58.7100 C   0  0  0  0  0  0  0  0  0  0  0  0
   40.3820   74.7800   57.4560 S   0  0  0  0  0  0  0  0  0  0  0  0
   37.0170   73.4820   57.7440 H   0  0  0  0  0  0  0  0  0  0  0  0
   38.6470   72.3010   59.3440 H   0  0  0  0  0  0  0  0  0  0  0  0
   37.1320   75.7750   53.8170 C   0  0  0  0  0  0  0  0  0  0  0  0
   36.4670   76.9720   54.1490 C   0  0  0  0  0  0  0  0  0  0  0  0
   36.5330   77.4180   55.4740 C   0  0  0  0  0  0  0  0  0  0  0  0
   37.2290   76.6820   56.3700 N   0  0  0  0  0  0  0  0  0  0  0  0
   37.8540   75.5370   56.0090 C   0  0  0  0  0  0  0  0  0  0  0  0
   37.8010   75.1020   54.7590 N   0  0  0  0  0  0  0  0  0  0  0  0
   37.1460   75.3400   52.8280 H   0  0  0  0  0  0  0  0  0  0  0  0
   35.9360   77.4860   53.3590 H   0  0  0  0  0  0  0  0  0  0  0  0
   36.0280   78.3290   55.7330 H   0  0  0  0  0  0  0  0  0  0  0  0
   41.3800   72.9940   59.4550 C   0  0  0  0  0  0  0  0  0  0  0  0
   42.3460   73.9010   59.7660 C   0  0  0  0  0  0  0  0  0  0  0  0
   43.4080   73.3360   60.4950 C   0  0  0  0  0  0  0  0  0  0  0  0
   43.4750   72.0370   60.8550 N   0  0  0  0  0  0  0  0  0  0  0  0
   42.4620   71.2200   60.4960 C   0  0  0  0  0  0  0  0  0  0  0  0
   41.4000   71.6950   59.7890 N   0  0  0  0  0  0  0  0  0  0  0  0
   42.3540   74.9420   59.5100 H   0  0  0  0  0  0  0  0  0  0  0  0
   44.2420   73.9720   60.7990 H   0  0  0  0  0  0  0  0  0  0  0  0
   42.5310   69.8210   60.8830 C   0  0  0  0  0  0  0  0  0  0  0  0
   43.0220   69.0130   60.0590 O   0  0  0  0  0  0  0  0  0  0  0  0
   42.0450   69.3130   62.2080 C   0  0  0  0  0  3  0  0  0  0  0  0
   43.0460   69.3980   63.2980 C   0  0  0  0  0  2  0  0  0  0  0  0
   41.8510   70.2660   63.3170 C   0  0  0  0  0  2  0  0  0  0  0  0
  1  5  1  0  0  0  0
  1  2  2  0  0  0  0
  2  3  1  0  0  0  0
  3  4  2  0  0  0  0
  3  7  1  0  0  0  0
  4 17  1  0  0  0  0
  5  4  1  0  0  0  0
  6  2  1  0  0  0  0
  8  9  2  0  0  0  0
  8 13  1  0  0  0  0
  9 10  1  0  0  0  0
 10 16  1  0  0  0  0
 10 11  2  0  0  0  0
 12 11  1  0  0  0  0
 12  1  1  0  0  0  0
 13 12  2  0  0  0  0
 14  8  1  0  0  0  0
 15  9  1  0  0  0  0
 17 18  2  0  0  0  0
 17 22  1  0  0  0  0
 18 19  1  0  0  0  0
 19 24  1  0  0  0  0
 19 20  2  0  0  0  0
 21 20  1  0  0  0  0
 21 25  1  0  0  0  0
 22 21  2  0  0  0  0
 23 18  1  0  0  0  0
 25 27  1  0  0  0  0
 26 25  2  0  0  0  0
 27 28  1  0  0  0  0
 27 29  1  0  0  0  0
 28 29  1  0  0  0  0
M  END
>  <minimizedAffinity>
-5.20921469

$$$$

 OpenBabel03212520573D

 29 32  0  0  0  0  0  0  0  0999 V2000
   41.8620   70.6200   61.1350 C   0  0  0  0  0  0  0  0  0  0  0  0
   41.8540   70.7550   59.7590 C   0  0  0  0  0  0  0  0  0  0  0  0
   41.3740   71.9000   59.2390 C   0  0  0  0  0  0  0  0  0  0  0  0
   40.9080   72.8960   60.0840 C   0  0  0  0  0  0  0  0  0  0  0  0
   41.1610   72.1730   61.7660 S   0  0  0  0  0  0  0  0  0  0  0  0
   42.2200   69.9710   59.0980 H   0  0  0  0  0  0  0  0  0  0  0  0
   41.2840   72.1920   58.2020 H   0  0  0  0  0  0  0  0  0  0  0  0
   43.7680   68.5510   63.4860 C   0  0  0  0  0  0  0  0  0  0  0  0
   43.3180   67.2450   63.2050 C   0  0  0  0  0  0  0  0  0  0  0  0
   42.3550   67.0800   62.2030 C   0  0  0  0  0  0  0  0  0  0  0  0
   41.9020   68.1770   61.5540 N   0  0  0  0  0  0  0  0  0  0  0  0
   42.3610   69.4160   61.8560 C   0  0  0  0  0  0  0  0  0  0  0  0
   43.2730   69.5870   62.8020 N   0  0  0  0  0  0  0  0  0  0  0  0
   44.5060   68.7920   64.2380 H   0  0  0  0  0  0  0  0  0  0  0  0
   43.7420   66.4340   63.7810 H   0  0  0  0  0  0  0  0  0  0  0  0
   42.0090   66.0890   61.9840 H   0  0  0  0  0  0  0  0  0  0  0  0
   40.3390   74.2100   59.9340 C   0  0  0  0  0  0  0  0  0  0  0  0
   39.9710   74.9000   61.0480 C   0  0  0  0  0  0  0  0  0  0  0  0
   39.4330   76.1650   60.7510 C   0  0  0  0  0  0  0  0  0  0  0  0
   39.2920   76.6560   59.5010 N   0  0  0  0  0  0  0  0  0  0  0  0
   39.6900   75.8890   58.4640 C   0  0  0  0  0  0  0  0  0  0  0  0
   40.2200   74.6530   58.6730 N   0  0  0  0  0  0  0  0  0  0  0  0
   40.0550   74.5690   62.0640 H   0  0  0  0  0  0  0  0  0  0  0  0
   39.1020   76.8080   61.5690 H   0  0  0  0  0  0  0  0  0  0  0  0
   39.5400   76.4140   57.1170 C   0  0  0  0  0  0  0  0  0  0  0  0
   40.5420   76.9480   56.5860 O   0  0  0  0  0  0  0  0  0  0  0  0
   38.2530   76.3450   56.3500 C   0  0  0  0  0  3  0  0  0  0  0  0
   38.0610   75.0850   55.5940 C   0  0  0  0  0  2  0  0  0  0  0  0
   37.2170   75.3810   56.7690 C   0  0  0  0  0  2  0  0  0  0  0  0
  1  5  1  0  0  0  0
  1 12  1  0  0  0  0
  2  1  2  0  0  0  0
  3  2  1  0  0  0  0
  3  4  2  0  0  0  0
  4  5  1  0  0  0  0
  6  2  1  0  0  0  0
  7  3  1  0  0  0  0
  8 14  1  0  0  0  0
  9  8  1  0  0  0  0
  9 15  1  0  0  0  0
 10  9  2  0  0  0  0
 11 12  2  0  0  0  0
 11 10  1  0  0  0  0
 12 13  1  0  0  0  0
 13  8  2  0  0  0  0
 16 10  1  0  0  0  0
 17  4  1  0  0  0  0
 17 18  1  0  0  0  0
 18 23  1  0  0  0  0
 19 18  2  0  0  0  0
 19 24  1  0  0  0  0
 20 19  1  0  0  0  0
 21 22  1  0  0  0  0
 21 20  2  0  0  0  0
 22 17  2  0  0  0  0
 25 21  1  0  0  0  0
 26 25  2  0  0  0  0
 27 29  1  0  0  0  0
 27 25  1  0  0  0  0
 28 27  1  0  0  0  0
 28 29  1  0  0  0  0
M  END
>  <minimizedAffinity>
-5.14533901

$$$$

 OpenBabel03212520573D

 29 32  0  0  0  0  0  0  0  0999 V2000
   40.0470   71.2070   54.1470 C   0  0  0  0  0  0  0  0  0  0  0  0
   39.8400   72.1710   53.1770 C   0  0  0  0  0  0  0  0  0  0  0  0
   39.3740   73.3710   53.5680 C   0  0  0  0  0  0  0  0  0  0  0  0
   39.1180   73.6050   54.9110 C   0  0  0  0  0  0  0  0  0  0  0  0
   39.5690   72.0010   55.7110 S   0  0  0  0  0  0  0  0  0  0  0  0
   40.0410   71.9840   52.1230 H   0  0  0  0  0  0  0  0  0  0  0  0
   39.1500   74.2430   52.9690 H   0  0  0  0  0  0  0  0  0  0  0  0
   41.5050   67.8910   54.7090 C   0  0  0  0  0  0  0  0  0  0  0  0
   41.5130   67.3190   53.4210 C   0  0  0  0  0  0  0  0  0  0  0  0
   41.0130   68.0800   52.3580 C   0  0  0  0  0  0  0  0  0  0  0  0
   40.5470   69.3230   52.6160 N   0  0  0  0  0  0  0  0  0  0  0  0
   40.5570   69.8350   53.8700 C   0  0  0  0  0  0  0  0  0  0  0  0
   41.0280   69.1270   54.8860 N   0  0  0  0  0  0  0  0  0  0  0  0
   41.8660   67.3940   55.5990 H   0  0  0  0  0  0  0  0  0  0  0  0
   41.9070   66.3160   53.3200 H   0  0  0  0  0  0  0  0  0  0  0  0
   41.0160   67.6500   51.3750 H   0  0  0  0  0  0  0  0  0  0  0  0
   38.6340   74.7040   55.7050 C   0  0  0  0  0  0  0  0  0  0  0  0
   37.4690   75.3120   55.3470 C   0  0  0  0  0  0  0  0  0  0  0  0
   37.1190   76.3640   56.2120 C   0  0  0  0  0  0  0  0  0  0  0  0
   37.8470   76.7410   57.2840 N   0  0  0  0  0  0  0  0  0  0  0  0
   38.9870   76.0700   57.5510 C   0  0  0  0  0  0  0  0  0  0  0  0
   39.3920   75.0400   56.7590 N   0  0  0  0  0  0  0  0  0  0  0  0
   36.8460   75.0620   54.5120 H   0  0  0  0  0  0  0  0  0  0  0  0
   36.2010   76.9260   56.0220 H   0  0  0  0  0  0  0  0  0  0  0  0
   39.7740   76.4740   58.7050 C   0  0  0  0  0  0  0  0  0  0  0  0
   40.2770   77.6220   58.6930 O   0  0  0  0  0  0  0  0  0  0  0  0
   40.0030   75.5840   59.8900 C   0  0  0  0  0  3  0  0  0  0  0  0
   39.2930   76.0120   61.1190 C   0  0  0  0  0  2  0  0  0  0  0  0
   38.8820   74.7810   60.4150 C   0  0  0  0  0  2  0  0  0  0  0  0
  1  5  1  0  0  0  0
  2  3  1  0  0  0  0
  2  1  2  0  0  0  0
  3  4  2  0  0  0  0
  4 17  1  0  0  0  0
  4  5  1  0  0  0  0
  6  2  1  0  0  0  0
  7  3  1  0  0  0  0
  8 13  1  0  0  0  0
  8 14  1  0  0  0  0
  9  8  2  0  0  0  0
 10 11  2  0  0  0  0
 10  9  1  0  0  0  0
 11 12  1  0  0  0  0
 12  1  1  0  0  0  0
 12 13  2  0  0  0  0
 15  9  1  0  0  0  0
 16 10  1  0  0  0  0
 17 22  1  0  0  0  0
 18 17  2  0  0  0  0
 18 19  1  0  0  0  0
 19 20  2  0  0  0  0
 20 21  1  0  0  0  0
 21 25  1  0  0  0  0
 22 21  2  0  0  0  0
 23 18  1  0  0  0  0
 24 19  1  0  0  0  0
 25 27  1  0  0  0  0
 26 25  2  0  0  0  0
 27 29  1  0  0  0  0
 27 28  1  0  0  0  0
 29 28  1  0  0  0  0
M  END
>  <minimizedAffinity>
-5.0300293

$$$$
