
 OpenBabel03212520553D

 29 32  0  0  0  0  0  0  0  0999 V2000
   40.9220   80.0550   61.7310 C   0  0  0  0  0  0  0  0  0  0  0  0
   40.7940   78.8820   62.4530 C   0  0  0  0  0  0  0  0  0  0  0  0
   40.3920   77.7770   61.7990 C   0  0  0  0  0  0  0  0  0  0  0  0
   40.1210   77.8430   60.4410 C   0  0  0  0  0  0  0  0  0  0  0  0
   40.4570   79.6140   60.0300 S   0  0  0  0  0  0  0  0  0  0  0  0
   41.0070   78.8340   63.5200 H   0  0  0  0  0  0  0  0  0  0  0  0
   40.2330   76.7790   62.1820 H   0  0  0  0  0  0  0  0  0  0  0  0
   43.0640   82.8980   62.6050 C   0  0  0  0  0  0  0  0  0  0  0  0
   42.2100   83.7250   63.3620 C   0  0  0  0  0  0  0  0  0  0  0  0
   40.8930   83.3000   63.5690 C   0  0  0  0  0  0  0  0  0  0  0  0
   40.5030   82.1200   63.0350 N   0  0  0  0  0  0  0  0  0  0  0  0
   41.3560   81.3550   62.3130 C   0  0  0  0  0  0  0  0  0  0  0  0
   42.6060   81.7440   62.1090 N   0  0  0  0  0  0  0  0  0  0  0  0
   44.0970   83.1280   62.3840 H   0  0  0  0  0  0  0  0  0  0  0  0
   42.6200   84.6500   63.7450 H   0  0  0  0  0  0  0  0  0  0  0  0
   40.2380   83.9250   64.1450 H   0  0  0  0  0  0  0  0  0  0  0  0
   39.6840   76.9290   59.4180 C   0  0  0  0  0  0  0  0  0  0  0  0
   40.2250   75.6800   59.3770 C   0  0  0  0  0  0  0  0  0  0  0  0
   39.7050   74.8980   58.3300 C   0  0  0  0  0  0  0  0  0  0  0  0
   38.7700   75.3240   57.4550 N   0  0  0  0  0  0  0  0  0  0  0  0
   38.2990   76.5830   57.5850 C   0  0  0  0  0  0  0  0  0  0  0  0
   38.7540   77.4000   58.5730 N   0  0  0  0  0  0  0  0  0  0  0  0
   40.9680   75.2810   60.0380 H   0  0  0  0  0  0  0  0  0  0  0  0
   40.0670   73.8760   58.1990 H   0  0  0  0  0  0  0  0  0  0  0  0
   37.2920   77.0450   56.6440 C   0  0  0  0  0  0  0  0  0  0  0  0
   36.1170   77.1680   57.0630 O   0  0  0  0  0  0  0  0  0  0  0  0
   37.5990   77.3750   55.2130 C   0  0  0  0  0  3  0  0  0  0  0  0
   37.4810   76.2250   54.2850 C   0  0  0  0  0  2  0  0  0  0  0  0
   36.5100   77.3360   54.2170 C   0  0  0  0  0  2  0  0  0  0  0  0
  1 12  1  0  0  0  0
  1  2  2  0  0  0  0
  2  6  1  0  0  0  0
  3  7  1  0  0  0  0
  3  2  1  0  0  0  0
  4  3  2  0  0  0  0
  5  4  1  0  0  0  0
  5  1  1  0  0  0  0
  8  9  1  0  0  0  0
  9 10  2  0  0  0  0
  9 15  1  0  0  0  0
 10 16  1  0  0  0  0
 11 10  1  0  0  0  0
 12 11  2  0  0  0  0
 13 12  1  0  0  0  0
 13  8  2  0  0  0  0
 14  8  1  0  0  0  0
 17  4  1  0  0  0  0
 18 17  1  0  0  0  0
 18 23  1  0  0  0  0
 19 18  2  0  0  0  0
 20 21  2  0  0  0  0
 20 19  1  0  0  0  0
 21 22  1  0  0  0  0
 22 17  2  0  0  0  0
 24 19  1  0  0  0  0
 25 26  2  0  0  0  0
 25 21  1  0  0  0  0
 27 25  1  0  0  0  0
 28 27  1  0  0  0  0
 29 28  1  0  0  0  0
 29 27  1  0  0  0  0
M  END
>  <minimizedAffinity>
-5.81934786

>  <minimizedRMSD>
0.715496063

$$$$
