
 OpenBabel03212520553D

 29 32  0  0  0  0  0  0  0  0999 V2000
   40.9610   80.2130   61.7110 C   0  0  0  0  0  0  0  0  0  0  0  0
   40.9210   78.9840   62.3430 C   0  0  0  0  0  0  0  0  0  0  0  0
   40.5290   77.9150   61.6250 C   0  0  0  0  0  0  0  0  0  0  0  0
   40.1800   78.0730   60.2920 C   0  0  0  0  0  0  0  0  0  0  0  0
   40.4210   79.8830   60.0060 S   0  0  0  0  0  0  0  0  0  0  0  0
   41.1950   78.8630   63.3900 H   0  0  0  0  0  0  0  0  0  0  0  0
   40.4330   76.8840   61.9360 H   0  0  0  0  0  0  0  0  0  0  0  0
   43.0590   83.0270   62.7670 C   0  0  0  0  0  0  0  0  0  0  0  0
   42.1870   83.7990   63.5620 C   0  0  0  0  0  0  0  0  0  0  0  0
   40.8740   83.3460   63.7320 C   0  0  0  0  0  0  0  0  0  0  0  0
   40.5040   82.1940   63.1270 N   0  0  0  0  0  0  0  0  0  0  0  0
   41.3730   81.4820   62.3710 C   0  0  0  0  0  0  0  0  0  0  0  0
   42.6200   81.8980   62.2010 N   0  0  0  0  0  0  0  0  0  0  0  0
   44.0900   83.2820   62.5700 H   0  0  0  0  0  0  0  0  0  0  0  0
   42.5810   84.7050   64.0020 H   0  0  0  0  0  0  0  0  0  0  0  0
   40.2060   83.9290   64.3360 H   0  0  0  0  0  0  0  0  0  0  0  0
   39.7260   77.2210   59.2250 C   0  0  0  0  0  0  0  0  0  0  0  0
   40.3720   76.0440   59.0000 C   0  0  0  0  0  0  0  0  0  0  0  0
   39.8200   75.3170   57.9300 C   0  0  0  0  0  0  0  0  0  0  0  0
   38.7640   75.7280   57.1980 N   0  0  0  0  0  0  0  0  0  0  0  0
   38.1950   76.9130   57.5040 C   0  0  0  0  0  0  0  0  0  0  0  0
   38.6730   77.6730   58.5260 N   0  0  0  0  0  0  0  0  0  0  0  0
   41.2140   75.6620   59.5430 H   0  0  0  0  0  0  0  0  0  0  0  0
   40.2590   74.3550   57.6590 H   0  0  0  0  0  0  0  0  0  0  0  0
   37.0570   77.3580   56.7170 C   0  0  0  0  0  0  0  0  0  0  0  0
   35.9100   77.1270   57.1690 O   0  0  0  0  0  0  0  0  0  0  0  0
   37.1970   78.0710   55.4050 C   0  0  0  0  0  3  0  0  0  0  0  0
   37.4230   79.5320   55.5280 C   0  0  0  0  0  2  0  0  0  0  0  0
   38.5030   78.6530   55.0400 C   0  0  0  0  0  2  0  0  0  0  0  0
  1  2  2  0  0  0  0
  1 12  1  0  0  0  0
  2  6  1  0  0  0  0
  3  7  1  0  0  0  0
  3  2  1  0  0  0  0
  4  3  2  0  0  0  0
  5  4  1  0  0  0  0
  5  1  1  0  0  0  0
  8  9  1  0  0  0  0
  9 10  2  0  0  0  0
  9 15  1  0  0  0  0
 10 16  1  0  0  0  0
 11 10  1  0  0  0  0
 12 11  2  0  0  0  0
 13 12  1  0  0  0  0
 13  8  2  0  0  0  0
 14  8  1  0  0  0  0
 17  4  1  0  0  0  0
 18 17  1  0  0  0  0
 18 23  1  0  0  0  0
 19 18  2  0  0  0  0
 20 21  2  0  0  0  0
 20 19  1  0  0  0  0
 21 22  1  0  0  0  0
 22 17  2  0  0  0  0
 24 19  1  0  0  0  0
 25 26  2  0  0  0  0
 25 21  1  0  0  0  0
 27 28  1  0  0  0  0
 27 25  1  0  0  0  0
 29 27  1  0  0  0  0
 29 28  1  0  0  0  0
M  END
>  <minimizedAffinity>
-5.79379988

>  <minimizedRMSD>
0.411013365

$$$$
