
 OpenBabel03212520273D

 22 24  0  0  0  0  0  0  0  0999 V2000
   42.6470   85.0760   61.0280 C   0  0  0  0  0  0  0  0  0  0  0  0
   43.7050   85.5680   61.7810 C   0  0  0  0  0  0  0  0  0  0  0  0
   44.2990   86.4520   60.8700 C   0  0  0  0  0  0  0  0  0  0  0  0
   43.6380   86.4660   59.6980 N   0  0  0  0  0  0  0  0  0  0  0  0
   42.6150   85.6100   59.8040 N   0  0  0  0  0  0  0  0  0  0  0  0
   44.0030   85.3410   62.7880 H   0  0  0  0  0  0  0  0  0  0  0  0
   45.1820   87.0580   61.0690 H   0  0  0  0  0  0  0  0  0  0  0  0
   41.1430   82.1060   62.7100 C   0  0  0  0  0  0  0  0  0  0  0  0
   42.1140   83.0140   62.2780 C   0  0  0  0  0  0  0  0  0  0  0  0
   41.6880   84.0990   61.5060 C   0  0  0  0  0  0  0  0  0  0  0  0
   40.3570   84.2320   61.2090 N   0  0  0  0  0  0  0  0  0  0  0  0
   39.4690   83.3060   61.6670 C   0  0  0  0  0  0  0  0  0  0  0  0
   39.8620   82.2630   62.4040 N   0  0  0  0  0  0  0  0  0  0  0  0
   41.4230   81.2440   63.3130 H   0  0  0  0  0  0  0  0  0  0  0  0
   43.1590   82.8690   62.5390 H   0  0  0  0  0  0  0  0  0  0  0  0
   38.4280   83.4260   61.4220 H   0  0  0  0  0  0  0  0  0  0  0  0
   43.9670   87.2620   58.5240 C   0  0  0  0  0  0  0  0  0  0  0  0
   43.0270   87.3800   57.9560 H   0  0  0  0  0  0  0  0  0  0  0  0
   44.7480   86.7750   57.9050 H   0  0  0  0  0  0  0  0  0  0  0  0
   44.4230   88.6200   58.9590 C   0  0  0  0  0  3  0  0  0  0  0  0
   45.0500   89.4690   57.8840 C   0  0  0  0  0  2  0  0  0  0  0  0
   43.6990   89.8140   58.4390 C   0  0  0  0  0  2  0  0  0  0  0  0
  1 10  1  0  0  0  0
  1  2  1  0  0  0  0
  2  6  1  0  0  0  0
  3  7  1  0  0  0  0
  3  2  2  0  0  0  0
  4  5  1  0  0  0  0
  4  3  1  0  0  0  0
  5  1  2  0  0  0  0
  8 14  1  0  0  0  0
  9 15  1  0  0  0  0
  9  8  2  0  0  0  0
 10  9  1  0  0  0  0
 11 10  2  0  0  0  0
 11 12  1  0  0  0  0
 12 13  2  0  0  0  0
 13  8  1  0  0  0  0
 16 12  1  0  0  0  0
 17 20  1  0  0  0  0
 17  4  1  0  0  0  0
 18 17  1  0  0  0  0
 19 17  1  0  0  0  0
 21 22  1  0  0  0  0
 21 20  1  0  0  0  0
 22 20  1  0  0  0  0
M  END
>  <minimizedAffinity>
-4.24366856

>  <minimizedRMSD>
1.23992848

$$$$
