
 OpenBabel03212520553D

 29 32  0  0  0  0  0  0  0  0999 V2000
   40.9670   80.3360   61.7600 C   0  0  0  0  0  0  0  0  0  0  0  0
   40.9520   79.0930   62.3660 C   0  0  0  0  0  0  0  0  0  0  0  0
   40.5700   78.0340   61.6280 C   0  0  0  0  0  0  0  0  0  0  0  0
   40.2070   78.2170   60.3020 C   0  0  0  0  0  0  0  0  0  0  0  0
   40.4160   80.0360   60.0540 S   0  0  0  0  0  0  0  0  0  0  0  0
   41.2380   78.9530   63.4070 H   0  0  0  0  0  0  0  0  0  0  0  0
   40.4930   76.9950   61.9160 H   0  0  0  0  0  0  0  0  0  0  0  0
   43.0410   83.1380   62.8920 C   0  0  0  0  0  0  0  0  0  0  0  0
   42.1550   83.8980   63.6820 C   0  0  0  0  0  0  0  0  0  0  0  0
   40.8390   83.4410   63.8220 C   0  0  0  0  0  0  0  0  0  0  0  0
   40.4820   82.2970   63.1950 N   0  0  0  0  0  0  0  0  0  0  0  0
   41.3650   81.5970   62.4450 C   0  0  0  0  0  0  0  0  0  0  0  0
   42.6140   82.0160   62.3030 N   0  0  0  0  0  0  0  0  0  0  0  0
   44.0760   83.3970   62.7170 H   0  0  0  0  0  0  0  0  0  0  0  0
   42.5390   84.7990   64.1410 H   0  0  0  0  0  0  0  0  0  0  0  0
   40.1600   84.0150   64.4220 H   0  0  0  0  0  0  0  0  0  0  0  0
   39.7550   77.3810   59.2190 C   0  0  0  0  0  0  0  0  0  0  0  0
   40.3920   76.2010   58.9890 C   0  0  0  0  0  0  0  0  0  0  0  0
   39.8450   75.4910   57.9040 C   0  0  0  0  0  0  0  0  0  0  0  0
   38.8010   75.9210   57.1650 N   0  0  0  0  0  0  0  0  0  0  0  0
   38.2400   77.1080   57.4790 C   0  0  0  0  0  0  0  0  0  0  0  0
   38.7150   77.8520   58.5150 N   0  0  0  0  0  0  0  0  0  0  0  0
   41.2230   75.8030   59.5360 H   0  0  0  0  0  0  0  0  0  0  0  0
   40.2770   74.5280   57.6260 H   0  0  0  0  0  0  0  0  0  0  0  0
   37.1160   77.5740   56.6840 C   0  0  0  0  0  0  0  0  0  0  0  0
   35.9700   77.1830   57.0120 O   0  0  0  0  0  0  0  0  0  0  0  0
   37.2690   78.4890   55.5060 C   0  0  0  0  0  3  0  0  0  0  0  0
   37.3500   79.9270   55.8580 C   0  0  0  0  0  2  0  0  0  0  0  0
   38.5350   79.2250   55.3250 C   0  0  0  0  0  2  0  0  0  0  0  0
  1  2  2  0  0  0  0
  1 12  1  0  0  0  0
  2  6  1  0  0  0  0
  3  7  1  0  0  0  0
  3  2  1  0  0  0  0
  4  3  2  0  0  0  0
  5  4  1  0  0  0  0
  5  1  1  0  0  0  0
  8  9  1  0  0  0  0
  9 10  2  0  0  0  0
  9 15  1  0  0  0  0
 10 16  1  0  0  0  0
 11 10  1  0  0  0  0
 12 11  2  0  0  0  0
 13 12  1  0  0  0  0
 13  8  2  0  0  0  0
 14  8  1  0  0  0  0
 17  4  1  0  0  0  0
 18 17  1  0  0  0  0
 18 23  1  0  0  0  0
 19 18  2  0  0  0  0
 20 21  2  0  0  0  0
 20 19  1  0  0  0  0
 21 22  1  0  0  0  0
 22 17  2  0  0  0  0
 24 19  1  0  0  0  0
 25 26  2  0  0  0  0
 25 21  1  0  0  0  0
 27 28  1  0  0  0  0
 27 25  1  0  0  0  0
 29 27  1  0  0  0  0
 29 28  1  0  0  0  0
M  END
>  <minimizedAffinity>
-5.86290789

>  <minimizedRMSD>
0.472063541

$$$$
