
 OpenBabel03212520403D

 21 23  0  0  1  0  0  0  0  0999 V2000
   42.0720   85.2710   59.6460 C   0  0  1  0  0  0  0  0  0  0  0  0
   43.0170   86.0420   58.7320 C   0  0  0  0  0  0  0  0  0  0  0  0
   42.6070   84.6120   58.4440 C   0  0  1  0  0  0  0  0  0  0  0  0
   41.0620   85.7400   59.6600 H   0  0  0  0  0  0  0  0  0  0  0  0
   42.6410   86.8510   58.0950 H   0  0  0  0  0  0  0  0  0  0  0  0
   44.0750   86.1680   59.0100 H   0  0  0  0  0  0  0  0  0  0  0  0
   41.9500   84.5140   57.5530 H   0  0  0  0  0  0  0  0  0  0  0  0
   42.6800   84.9910   60.9080 O   0  0  0  0  0  0  0  0  0  0  0  0
   40.0730   83.4840   62.9220 C   0  0  0  0  0  0  0  0  0  0  0  0
   40.5660   83.6670   64.2140 C   0  0  0  0  0  0  0  0  0  0  0  0
   41.8160   84.3230   64.3560 C   0  0  0  0  0  0  0  0  0  0  0  0
   42.4190   84.7130   63.2050 N   0  0  0  0  0  0  0  0  0  0  0  0
   41.9320   84.5290   61.9660 C   0  0  0  0  0  0  0  0  0  0  0  0
   40.7550   83.9130   61.8130 N   0  0  0  0  0  0  0  0  0  0  0  0
   39.1270   82.9930   62.7230 H   0  0  0  0  0  0  0  0  0  0  0  0
   40.0130   83.3230   65.0580 H   0  0  0  0  0  0  0  0  0  0  0  0
   42.2330   84.4860   65.3220 H   0  0  0  0  0  0  0  0  0  0  0  0
   43.5610   83.6090   58.6470 O   0  0  0  0  0  0  0  0  0  0  0  0
   44.8010   84.1280   58.3400 C   0  0  0  0  0  3  0  0  0  0  0  0
   45.8490   83.3020   57.6870 C   0  0  0  0  0  2  0  0  0  0  0  0
   45.9540   83.5580   59.1520 C   0  0  0  0  0  2  0  0  0  0  0  0
  1  4  1  6  0  0  0
  1  8  1  0  0  0  0
  2  6  1  0  0  0  0
  2  1  1  0  0  0  0
  3  7  1  6  0  0  0
  3 18  1  0  0  0  0
  3  2  1  0  0  0  0
  3  1  1  0  0  0  0
  5  2  1  0  0  0  0
  8 13  1  0  0  0  0
  9 10  1  0  0  0  0
 10 11  2  0  0  0  0
 10 16  1  0  0  0  0
 11 17  1  0  0  0  0
 12 11  1  0  0  0  0
 13 12  2  0  0  0  0
 14 13  1  0  0  0  0
 14  9  2  0  0  0  0
 15  9  1  0  0  0  0
 19 18  1  0  0  0  0
 19 21  1  0  0  0  0
 20 19  1  0  0  0  0
 20 21  1  0  0  0  0
M  END
>  <minimizedAffinity>
-3.30944872

>  <minimizedRMSD>
1.34732461

$$$$
