
 OpenBabel03212520403D

 21 23  0  0  1  0  0  0  0  0999 V2000
   42.2880   85.4210   59.7220 C   0  0  1  0  0  0  0  0  0  0  0  0
   43.3200   86.4250   59.2240 C   0  0  0  0  0  0  0  0  0  0  0  0
   42.8650   85.2520   58.3790 C   0  0  1  0  0  0  0  0  0  0  0  0
   41.3010   85.9110   59.8810 H   0  0  0  0  0  0  0  0  0  0  0  0
   43.0210   87.4410   58.9440 H   0  0  0  0  0  0  0  0  0  0  0  0
   44.3640   86.3630   59.5700 H   0  0  0  0  0  0  0  0  0  0  0  0
   42.2610   85.5540   57.4970 H   0  0  0  0  0  0  0  0  0  0  0  0
   42.8040   84.6290   60.7930 O   0  0  0  0  0  0  0  0  0  0  0  0
   40.0700   83.5230   62.8970 C   0  0  0  0  0  0  0  0  0  0  0  0
   40.5890   83.7290   64.1760 C   0  0  0  0  0  0  0  0  0  0  0  0
   41.9030   84.2580   64.2760 C   0  0  0  0  0  0  0  0  0  0  0  0
   42.5340   84.5160   63.1040 N   0  0  0  0  0  0  0  0  0  0  0  0
   42.0200   84.3110   61.8780 C   0  0  0  0  0  0  0  0  0  0  0  0
   40.7850   83.8140   61.7640 N   0  0  0  0  0  0  0  0  0  0  0  0
   39.0770   83.1230   62.7300 H   0  0  0  0  0  0  0  0  0  0  0  0
   40.0110   83.4950   65.0400 H   0  0  0  0  0  0  0  0  0  0  0  0
   42.3420   84.4330   65.2310 H   0  0  0  0  0  0  0  0  0  0  0  0
   43.7590   84.1890   58.2070 O   0  0  0  0  0  0  0  0  0  0  0  0
   44.9900   84.7140   57.8720 C   0  0  0  0  0  3  0  0  0  0  0  0
   45.3710   84.9610   56.4560 C   0  0  0  0  0  2  0  0  0  0  0  0
   45.9200   83.7570   57.1430 C   0  0  0  0  0  2  0  0  0  0  0  0
  1  4  1  1  0  0  0
  1  8  1  0  0  0  0
  2  6  1  0  0  0  0
  2  1  1  0  0  0  0
  3  7  1  6  0  0  0
  3  2  1  0  0  0  0
  3  1  1  0  0  0  0
  5  2  1  0  0  0  0
  8 13  1  0  0  0  0
  9 10  1  0  0  0  0
 10 11  2  0  0  0  0
 10 16  1  0  0  0  0
 11 17  1  0  0  0  0
 12 11  1  0  0  0  0
 13 12  2  0  0  0  0
 14 13  1  0  0  0  0
 14  9  2  0  0  0  0
 15  9  1  0  0  0  0
 18  3  1  0  0  0  0
 19 18  1  0  0  0  0
 20 21  1  0  0  0  0
 20 19  1  0  0  0  0
 21 19  1  0  0  0  0
M  END
>  <minimizedAffinity>
-3.33532381

>  <minimizedRMSD>
0.799764156

$$$$
