
 OpenBabel03212520273D

 22 24  0  0  0  0  0  0  0  0999 V2000
   42.5680   84.9600   61.0280 C   0  0  0  0  0  0  0  0  0  0  0  0
   43.5490   85.4500   61.8800 C   0  0  0  0  0  0  0  0  0  0  0  0
   44.2600   86.2950   61.0180 C   0  0  0  0  0  0  0  0  0  0  0  0
   43.7320   86.2900   59.7800 N   0  0  0  0  0  0  0  0  0  0  0  0
   42.6830   85.4600   59.7950 N   0  0  0  0  0  0  0  0  0  0  0  0
   43.7280   85.2450   62.9190 H   0  0  0  0  0  0  0  0  0  0  0  0
   45.1310   86.8860   61.2980 H   0  0  0  0  0  0  0  0  0  0  0  0
   40.8510   81.8780   62.2410 C   0  0  0  0  0  0  0  0  0  0  0  0
   41.8870   82.7420   61.8750 C   0  0  0  0  0  0  0  0  0  0  0  0
   41.5370   84.0180   61.4230 C   0  0  0  0  0  0  0  0  0  0  0  0
   40.2150   84.3700   61.3570 N   0  0  0  0  0  0  0  0  0  0  0  0
   39.2600   83.4730   61.7320 C   0  0  0  0  0  0  0  0  0  0  0  0
   39.5800   82.2510   62.1650 N   0  0  0  0  0  0  0  0  0  0  0  0
   41.0700   80.8740   62.6000 H   0  0  0  0  0  0  0  0  0  0  0  0
   42.9230   82.4210   61.9440 H   0  0  0  0  0  0  0  0  0  0  0  0
   38.2270   83.7670   61.6730 H   0  0  0  0  0  0  0  0  0  0  0  0
   44.2070   87.0460   58.6310 C   0  0  0  0  0  0  0  0  0  0  0  0
   43.4160   86.9730   57.8640 H   0  0  0  0  0  0  0  0  0  0  0  0
   45.1700   86.6480   58.2490 H   0  0  0  0  0  0  0  0  0  0  0  0
   44.3580   88.4860   59.0110 C   0  0  0  0  0  3  0  0  0  0  0  0
   44.9820   89.3730   57.9680 C   0  0  0  0  0  2  0  0  0  0  0  0
   43.5250   89.5000   58.3070 C   0  0  0  0  0  2  0  0  0  0  0  0
  1 10  1  0  0  0  0
  1  2  1  0  0  0  0
  2  6  1  0  0  0  0
  3  7  1  0  0  0  0
  3  2  2  0  0  0  0
  4  5  1  0  0  0  0
  4  3  1  0  0  0  0
  5  1  2  0  0  0  0
  8 14  1  0  0  0  0
  9 15  1  0  0  0  0
  9  8  2  0  0  0  0
 10  9  1  0  0  0  0
 11 10  2  0  0  0  0
 11 12  1  0  0  0  0
 12 13  2  0  0  0  0
 13  8  1  0  0  0  0
 16 12  1  0  0  0  0
 17 20  1  0  0  0  0
 17  4  1  0  0  0  0
 18 17  1  0  0  0  0
 19 17  1  0  0  0  0
 21 22  1  0  0  0  0
 21 20  1  0  0  0  0
 22 20  1  0  0  0  0
M  END
>  <minimizedAffinity>
-4.24536228

>  <minimizedRMSD>
0.52076441

$$$$
