
 OpenBabel03212520403D

 21 23  0  0  1  0  0  0  0  0999 V2000
   41.7630   85.2530   59.5080 C   0  0  1  0  0  0  0  0  0  0  0  0
   42.6370   85.4000   58.2680 C   0  0  0  0  0  0  0  0  0  0  0  0
   41.4000   84.5250   58.2830 C   0  0  1  0  0  0  0  0  0  0  0  0
   41.2900   86.2240   59.7780 H   0  0  0  0  0  0  0  0  0  0  0  0
   42.6340   86.3300   57.6900 H   0  0  0  0  0  0  0  0  0  0  0  0
   43.5880   84.8490   58.1920 H   0  0  0  0  0  0  0  0  0  0  0  0
   40.5750   84.9200   57.6520 H   0  0  0  0  0  0  0  0  0  0  0  0
   42.4450   84.5480   60.5460 O   0  0  0  0  0  0  0  0  0  0  0  0
   40.0280   83.6160   63.0780 C   0  0  0  0  0  0  0  0  0  0  0  0
   40.7510   83.8170   64.2550 C   0  0  0  0  0  0  0  0  0  0  0  0
   42.0870   84.2810   64.1360 C   0  0  0  0  0  0  0  0  0  0  0  0
   42.5370   84.4870   62.8730 N   0  0  0  0  0  0  0  0  0  0  0  0
   41.8280   84.2870   61.7480 C   0  0  0  0  0  0  0  0  0  0  0  0
   40.5680   83.8510   61.8400 N   0  0  0  0  0  0  0  0  0  0  0  0
   39.0030   83.2620   63.0770 H   0  0  0  0  0  0  0  0  0  0  0  0
   40.3050   83.6260   65.2040 H   0  0  0  0  0  0  0  0  0  0  0  0
   42.6780   84.4500   65.0050 H   0  0  0  0  0  0  0  0  0  0  0  0
   41.5850   83.1380   58.2950 O   0  0  0  0  0  0  0  0  0  0  0  0
   40.3550   82.5420   58.4770 C   0  0  0  0  0  3  0  0  0  0  0  0
   40.1980   81.3130   59.2970 C   0  0  0  0  0  2  0  0  0  0  0  0
   40.1920   81.1850   57.8110 C   0  0  0  0  0  2  0  0  0  0  0  0
  1  4  1  1  0  0  0
  1  8  1  0  0  0  0
  2  3  1  0  0  0  0
  2  1  1  0  0  0  0
  3  7  1  6  0  0  0
  3 18  1  0  0  0  0
  3  1  1  0  0  0  0
  5  2  1  0  0  0  0
  6  2  1  0  0  0  0
  8 13  1  0  0  0  0
  9 10  1  0  0  0  0
 10 16  1  0  0  0  0
 11 10  2  0  0  0  0
 11 17  1  0  0  0  0
 12 11  1  0  0  0  0
 13 14  1  0  0  0  0
 13 12  2  0  0  0  0
 14  9  2  0  0  0  0
 15  9  1  0  0  0  0
 18 19  1  0  0  0  0
 19 20  1  0  0  0  0
 21 19  1  0  0  0  0
 21 20  1  0  0  0  0
M  END
>  <minimizedAffinity>
-3.85585427

>  <minimizedRMSD>
2.30120587

$$$$
