
 OpenBabel03212520403D

 21 23  0  0  1  0  0  0  0  0999 V2000
   42.2010   85.2090   59.7600 C   0  0  1  0  0  0  0  0  0  0  0  0
   43.2700   85.3540   58.6840 C   0  0  0  0  0  0  0  0  0  0  0  0
   42.2260   84.2580   58.6380 C   0  0  1  0  0  0  0  0  0  0  0  0
   41.5230   86.0920   59.7680 H   0  0  0  0  0  0  0  0  0  0  0  0
   43.2250   86.1740   57.9590 H   0  0  0  0  0  0  0  0  0  0  0  0
   44.2970   85.0020   58.8720 H   0  0  0  0  0  0  0  0  0  0  0  0
   41.4900   84.3840   57.8150 H   0  0  0  0  0  0  0  0  0  0  0  0
   42.7680   84.8100   61.0090 O   0  0  0  0  0  0  0  0  0  0  0  0
   40.0370   83.5190   63.0070 C   0  0  0  0  0  0  0  0  0  0  0  0
   40.4910   83.7590   64.3050 C   0  0  0  0  0  0  0  0  0  0  0  0
   41.7600   84.3760   64.4550 C   0  0  0  0  0  0  0  0  0  0  0  0
   42.4170   84.6770   63.3070 N   0  0  0  0  0  0  0  0  0  0  0  0
   41.9670   84.4380   62.0630 C   0  0  0  0  0  0  0  0  0  0  0  0
   40.7740   83.8570   61.9020 N   0  0  0  0  0  0  0  0  0  0  0  0
   39.0810   83.0510   62.8020 H   0  0  0  0  0  0  0  0  0  0  0  0
   39.8970   83.4850   65.1460 H   0  0  0  0  0  0  0  0  0  0  0  0
   42.1490   84.5810   65.4250 H   0  0  0  0  0  0  0  0  0  0  0  0
   42.6400   82.9530   58.9270 O   0  0  0  0  0  0  0  0  0  0  0  0
   41.7060   82.0800   58.4080 C   0  0  0  0  0  3  0  0  0  0  0  0
   40.2930   82.0920   58.8660 C   0  0  0  0  0  2  0  0  0  0  0  0
   41.2010   81.0260   59.3810 C   0  0  0  0  0  2  0  0  0  0  0  0
  1  4  1  1  0  0  0
  1  8  1  0  0  0  0
  2  6  1  0  0  0  0
  2  1  1  0  0  0  0
  3  7  1  6  0  0  0
  3  2  1  0  0  0  0
  3 18  1  0  0  0  0
  3  1  1  0  0  0  0
  5  2  1  0  0  0  0
  8 13  1  0  0  0  0
  9 10  1  0  0  0  0
 10 11  2  0  0  0  0
 10 16  1  0  0  0  0
 11 17  1  0  0  0  0
 12 11  1  0  0  0  0
 13 12  2  0  0  0  0
 14 13  1  0  0  0  0
 14  9  2  0  0  0  0
 15  9  1  0  0  0  0
 19 20  1  0  0  0  0
 19 18  1  0  0  0  0
 19 21  1  0  0  0  0
 20 21  1  0  0  0  0
M  END
>  <minimizedAffinity>
-3.58167839

>  <minimizedRMSD>
2.44452667

$$$$
