
 OpenBabel03212520563D

 29 32  0  0  0  0  0  0  0  0999 V2000
   40.8870   80.1370   61.7600 C   0  0  0  0  0  0  0  0  0  0  0  0
   40.7940   78.9600   62.4800 C   0  0  0  0  0  0  0  0  0  0  0  0
   40.4170   77.8460   61.8260 C   0  0  0  0  0  0  0  0  0  0  0  0
   40.1360   77.9080   60.4690 C   0  0  0  0  0  0  0  0  0  0  0  0
   40.4240   79.6880   60.0610 S   0  0  0  0  0  0  0  0  0  0  0  0
   41.0150   78.9150   63.5460 H   0  0  0  0  0  0  0  0  0  0  0  0
   40.2870   76.8430   62.2070 H   0  0  0  0  0  0  0  0  0  0  0  0
   42.9860   82.9860   62.7150 C   0  0  0  0  0  0  0  0  0  0  0  0
   42.0890   83.8340   63.3970 C   0  0  0  0  0  0  0  0  0  0  0  0
   40.7580   83.4200   63.5250 C   0  0  0  0  0  0  0  0  0  0  0  0
   40.3960   82.2320   62.9900 N   0  0  0  0  0  0  0  0  0  0  0  0
   41.2900   81.4470   62.3430 C   0  0  0  0  0  0  0  0  0  0  0  0
   42.5540   81.8250   62.2140 N   0  0  0  0  0  0  0  0  0  0  0  0
   44.0320   83.2060   62.5590 H   0  0  0  0  0  0  0  0  0  0  0  0
   42.4780   84.7650   63.7870 H   0  0  0  0  0  0  0  0  0  0  0  0
   40.0710   84.0610   64.0420 H   0  0  0  0  0  0  0  0  0  0  0  0
   39.7180   76.9850   59.4470 C   0  0  0  0  0  0  0  0  0  0  0  0
   40.2810   75.7460   59.4080 C   0  0  0  0  0  0  0  0  0  0  0  0
   39.7770   74.9530   58.3610 C   0  0  0  0  0  0  0  0  0  0  0  0
   38.8360   75.3620   57.4840 N   0  0  0  0  0  0  0  0  0  0  0  0
   38.3420   76.6110   57.6120 C   0  0  0  0  0  0  0  0  0  0  0  0
   38.7810   77.4380   58.6000 N   0  0  0  0  0  0  0  0  0  0  0  0
   41.0300   75.3610   60.0710 H   0  0  0  0  0  0  0  0  0  0  0  0
   40.1570   73.9370   58.2320 H   0  0  0  0  0  0  0  0  0  0  0  0
   37.3280   77.0550   56.6690 C   0  0  0  0  0  0  0  0  0  0  0  0
   36.1530   77.1710   57.0900 O   0  0  0  0  0  0  0  0  0  0  0  0
   37.6280   77.3740   55.2340 C   0  0  0  0  0  3  0  0  0  0  0  0
   37.4970   76.2190   54.3130 C   0  0  0  0  0  2  0  0  0  0  0  0
   36.5340   77.3370   54.2440 C   0  0  0  0  0  2  0  0  0  0  0  0
  1 12  1  0  0  0  0
  1  2  2  0  0  0  0
  2  6  1  0  0  0  0
  3  7  1  0  0  0  0
  3  2  1  0  0  0  0
  4  3  2  0  0  0  0
  5  4  1  0  0  0  0
  5  1  1  0  0  0  0
  8  9  1  0  0  0  0
  9 10  2  0  0  0  0
  9 15  1  0  0  0  0
 10 16  1  0  0  0  0
 11 10  1  0  0  0  0
 12 11  2  0  0  0  0
 13 12  1  0  0  0  0
 13  8  2  0  0  0  0
 14  8  1  0  0  0  0
 17  4  1  0  0  0  0
 18 17  1  0  0  0  0
 18 23  1  0  0  0  0
 19 18  2  0  0  0  0
 20 21  2  0  0  0  0
 20 19  1  0  0  0  0
 21 22  1  0  0  0  0
 22 17  2  0  0  0  0
 24 19  1  0  0  0  0
 25 26  2  0  0  0  0
 25 21  1  0  0  0  0
 27 25  1  0  0  0  0
 28 27  1  0  0  0  0
 29 28  1  0  0  0  0
 29 27  1  0  0  0  0
M  END
>  <minimizedAffinity>
-5.83174086

>  <minimizedRMSD>
0.332890838

$$$$
