
 OpenBabel03212520283D

 22 24  0  0  0  0  0  0  0  0999 V2000
   38.2260   75.8970   57.8190 C   0  0  0  0  0  0  0  0  0  0  0  0
   39.0220   76.8340   58.4650 C   0  0  0  0  0  0  0  0  0  0  0  0
   39.3070   76.1670   59.6640 C   0  0  0  0  0  0  0  0  0  0  0  0
   38.7260   74.9540   59.7010 N   0  0  0  0  0  0  0  0  0  0  0  0
   38.0570   74.7940   58.5540 N   0  0  0  0  0  0  0  0  0  0  0  0
   39.3400   77.8090   58.1480 H   0  0  0  0  0  0  0  0  0  0  0  0
   39.9200   76.5640   60.4720 H   0  0  0  0  0  0  0  0  0  0  0  0
   37.1060   75.2980   54.3120 C   0  0  0  0  0  0  0  0  0  0  0  0
   37.6840   75.0560   55.5610 C   0  0  0  0  0  0  0  0  0  0  0  0
   37.6430   76.0870   56.5050 C   0  0  0  0  0  0  0  0  0  0  0  0
   37.0460   77.2760   56.1770 N   0  0  0  0  0  0  0  0  0  0  0  0
   36.5030   77.4380   54.9370 C   0  0  0  0  0  0  0  0  0  0  0  0
   36.5360   76.4610   54.0260 N   0  0  0  0  0  0  0  0  0  0  0  0
   37.1120   74.5270   53.5430 H   0  0  0  0  0  0  0  0  0  0  0  0
   38.1460   74.0970   55.7780 H   0  0  0  0  0  0  0  0  0  0  0  0
   36.0400   78.3780   54.6970 H   0  0  0  0  0  0  0  0  0  0  0  0
   38.8040   73.9860   60.7850 C   0  0  0  0  0  0  0  0  0  0  0  0
   38.5370   73.0070   60.3470 H   0  0  0  0  0  0  0  0  0  0  0  0
   38.1220   74.2480   61.6190 H   0  0  0  0  0  0  0  0  0  0  0  0
   40.2160   73.9050   61.2780 C   0  0  0  0  0  3  0  0  0  0  0  0
   40.6250   72.5820   61.8670 C   0  0  0  0  0  2  0  0  0  0  0  0
   41.1770   73.0340   60.5460 C   0  0  0  0  0  2  0  0  0  0  0  0
  1  2  1  0  0  0  0
  1  5  2  0  0  0  0
  2  3  2  0  0  0  0
  3  4  1  0  0  0  0
  3  7  1  0  0  0  0
  4 17  1  0  0  0  0
  5  4  1  0  0  0  0
  6  2  1  0  0  0  0
  8  9  1  0  0  0  0
  9 15  1  0  0  0  0
  9 10  2  0  0  0  0
 10  1  1  0  0  0  0
 11 10  1  0  0  0  0
 12 11  2  0  0  0  0
 13  8  2  0  0  0  0
 13 12  1  0  0  0  0
 14  8  1  0  0  0  0
 16 12  1  0  0  0  0
 17 20  1  0  0  0  0
 17 19  1  0  0  0  0
 18 17  1  0  0  0  0
 20 21  1  0  0  0  0
 22 20  1  0  0  0  0
 22 21  1  0  0  0  0
M  END
>  <minimizedAffinity>
-4.68528986

$$$$

 OpenBabel03212520283D

 22 24  0  0  0  0  0  0  0  0999 V2000
   38.8740   75.2150   59.2310 C   0  0  0  0  0  0  0  0  0  0  0  0
   39.3480   76.0990   60.1910 C   0  0  0  0  0  0  0  0  0  0  0  0
   39.8720   75.2120   61.1410 C   0  0  0  0  0  0  0  0  0  0  0  0
   39.7120   73.9320   60.7590 N   0  0  0  0  0  0  0  0  0  0  0  0
   39.0920   73.9420   59.5730 N   0  0  0  0  0  0  0  0  0  0  0  0
   39.3260   77.1730   60.2150 H   0  0  0  0  0  0  0  0  0  0  0  0
   40.3500   75.5050   62.0750 H   0  0  0  0  0  0  0  0  0  0  0  0
   37.8050   77.2120   56.2670 C   0  0  0  0  0  0  0  0  0  0  0  0
   38.4650   76.8800   57.4530 C   0  0  0  0  0  0  0  0  0  0  0  0
   38.2180   75.6180   58.0010 C   0  0  0  0  0  0  0  0  0  0  0  0
   37.3520   74.7660   57.3670 N   0  0  0  0  0  0  0  0  0  0  0  0
   36.7450   75.1600   56.2120 C   0  0  0  0  0  0  0  0  0  0  0  0
   36.9720   76.3640   55.6780 N   0  0  0  0  0  0  0  0  0  0  0  0
   37.9630   78.1820   55.7990 H   0  0  0  0  0  0  0  0  0  0  0  0
   39.1440   77.5870   57.9220 H   0  0  0  0  0  0  0  0  0  0  0  0
   36.0680   74.4790   55.7280 H   0  0  0  0  0  0  0  0  0  0  0  0
   40.1320   72.7470   61.4920 C   0  0  0  0  0  0  0  0  0  0  0  0
   40.2910   71.9560   60.7370 H   0  0  0  0  0  0  0  0  0  0  0  0
   39.3730   72.4370   62.2390 H   0  0  0  0  0  0  0  0  0  0  0  0
   41.4410   73.0190   62.1650 C   0  0  0  0  0  3  0  0  0  0  0  0
   42.2380   71.8020   62.5550 C   0  0  0  0  0  2  0  0  0  0  0  0
   42.6980   72.6920   61.4360 C   0  0  0  0  0  2  0  0  0  0  0  0
  1  5  2  0  0  0  0
  1  2  1  0  0  0  0
  2  6  1  0  0  0  0
  2  3  2  0  0  0  0
  3  7  1  0  0  0  0
  4  3  1  0  0  0  0
  4 17  1  0  0  0  0
  5  4  1  0  0  0  0
  8  9  1  0  0  0  0
  9 15  1  0  0  0  0
  9 10  2  0  0  0  0
 10  1  1  0  0  0  0
 11 10  1  0  0  0  0
 12 11  2  0  0  0  0
 13 12  1  0  0  0  0
 13  8  2  0  0  0  0
 14  8  1  0  0  0  0
 16 12  1  0  0  0  0
 17 20  1  0  0  0  0
 17 19  1  0  0  0  0
 18 17  1  0  0  0  0
 20 21  1  0  0  0  0
 22 20  1  0  0  0  0
 22 21  1  0  0  0  0
M  END
>  <minimizedAffinity>
-4.65831661

$$$$

 OpenBabel03212520283D

 22 24  0  0  0  0  0  0  0  0999 V2000
   41.9360   69.4230   62.1080 C   0  0  0  0  0  0  0  0  0  0  0  0
   41.9340   70.1800   63.2720 C   0  0  0  0  0  0  0  0  0  0  0  0
   41.7540   71.4710   62.7570 C   0  0  0  0  0  0  0  0  0  0  0  0
   41.6600   71.4550   61.4140 N   0  0  0  0  0  0  0  0  0  0  0  0
   41.7740   70.1820   61.0190 N   0  0  0  0  0  0  0  0  0  0  0  0
   42.0430   69.8750   64.2960 H   0  0  0  0  0  0  0  0  0  0  0  0
   41.6950   72.3800   63.3520 H   0  0  0  0  0  0  0  0  0  0  0  0
   41.2500   65.7670   62.3870 C   0  0  0  0  0  0  0  0  0  0  0  0
   41.0380   67.1480   62.4450 C   0  0  0  0  0  0  0  0  0  0  0  0
   42.0950   67.9820   62.0690 C   0  0  0  0  0  0  0  0  0  0  0  0
   43.2790   67.4260   61.6630 N   0  0  0  0  0  0  0  0  0  0  0  0
   43.4110   66.0700   61.6320 C   0  0  0  0  0  0  0  0  0  0  0  0
   42.4100   65.2610   61.9890 N   0  0  0  0  0  0  0  0  0  0  0  0
   40.4590   65.0750   62.6700 H   0  0  0  0  0  0  0  0  0  0  0  0
   40.0810   67.5450   62.7730 H   0  0  0  0  0  0  0  0  0  0  0  0
   44.3490   65.6510   61.3110 H   0  0  0  0  0  0  0  0  0  0  0  0
   41.4690   72.6050   60.5430 C   0  0  0  0  0  0  0  0  0  0  0  0
   40.8310   72.2600   59.7100 H   0  0  0  0  0  0  0  0  0  0  0  0
   42.4350   72.9990   60.1680 H   0  0  0  0  0  0  0  0  0  0  0  0
   40.7280   73.6720   61.2870 C   0  0  0  0  0  3  0  0  0  0  0  0
   40.1100   74.7490   60.4350 C   0  0  0  0  0  2  0  0  0  0  0  0
   39.2470   73.7440   61.1420 C   0  0  0  0  0  2  0  0  0  0  0  0
  1  2  1  0  0  0  0
  2  6  1  0  0  0  0
  3  2  2  0  0  0  0
  3  7  1  0  0  0  0
  4  3  1  0  0  0  0
  5  4  1  0  0  0  0
  5  1  2  0  0  0  0
  8  9  1  0  0  0  0
  8 14  1  0  0  0  0
  9 15  1  0  0  0  0
 10  1  1  0  0  0  0
 10  9  2  0  0  0  0
 11 10  1  0  0  0  0
 12 11  2  0  0  0  0
 12 13  1  0  0  0  0
 13  8  2  0  0  0  0
 16 12  1  0  0  0  0
 17 20  1  0  0  0  0
 17  4  1  0  0  0  0
 18 17  1  0  0  0  0
 19 17  1  0  0  0  0
 21 22  1  0  0  0  0
 21 20  1  0  0  0  0
 22 20  1  0  0  0  0
M  END
>  <minimizedAffinity>
-4.36270809

$$$$

 OpenBabel03212520283D

 22 24  0  0  0  0  0  0  0  0999 V2000
   42.3630   71.4110   61.4610 C   0  0  0  0  0  0  0  0  0  0  0  0
   42.0810   71.3320   62.8180 C   0  0  0  0  0  0  0  0  0  0  0  0
   41.8020   69.9650   62.9580 C   0  0  0  0  0  0  0  0  0  0  0  0
   41.9160   69.3180   61.7840 N   0  0  0  0  0  0  0  0  0  0  0  0
   42.2640   70.2210   60.8600 N   0  0  0  0  0  0  0  0  0  0  0  0
   42.0710   72.0990   63.5700 H   0  0  0  0  0  0  0  0  0  0  0  0
   41.5270   69.4740   63.8910 H   0  0  0  0  0  0  0  0  0  0  0  0
   42.1360   74.6410   59.6100 C   0  0  0  0  0  0  0  0  0  0  0  0
   41.7280   73.4760   60.2650 C   0  0  0  0  0  0  0  0  0  0  0  0
   42.7230   72.6350   60.7710 C   0  0  0  0  0  0  0  0  0  0  0  0
   44.0400   72.9770   60.6100 N   0  0  0  0  0  0  0  0  0  0  0  0
   44.3610   74.1310   59.9590 C   0  0  0  0  0  0  0  0  0  0  0  0
   43.4200   74.9440   59.4710 N   0  0  0  0  0  0  0  0  0  0  0  0
   41.4000   75.3300   59.1980 H   0  0  0  0  0  0  0  0  0  0  0  0
   40.6720   73.2450   60.3700 H   0  0  0  0  0  0  0  0  0  0  0  0
   45.4000   74.3840   59.8420 H   0  0  0  0  0  0  0  0  0  0  0  0
   41.7020   67.8980   61.5510 C   0  0  0  0  0  0  0  0  0  0  0  0
   42.7050   67.4430   61.4630 H   0  0  0  0  0  0  0  0  0  0  0  0
   41.1020   67.7190   60.6350 H   0  0  0  0  0  0  0  0  0  0  0  0
   41.0200   67.2970   62.7410 C   0  0  0  0  0  3  0  0  0  0  0  0
   39.8360   66.4170   62.4370 C   0  0  0  0  0  2  0  0  0  0  0  0
   41.1180   65.8250   62.9490 C   0  0  0  0  0  2  0  0  0  0  0  0
  1  2  1  0  0  0  0
  2  3  2  0  0  0  0
  2  6  1  0  0  0  0
  3  7  1  0  0  0  0
  4  3  1  0  0  0  0
  5  1  2  0  0  0  0
  5  4  1  0  0  0  0
  8  9  1  0  0  0  0
  9 15  1  0  0  0  0
  9 10  2  0  0  0  0
 10  1  1  0  0  0  0
 11 10  1  0  0  0  0
 12 11  2  0  0  0  0
 13  8  2  0  0  0  0
 13 12  1  0  0  0  0
 14  8  1  0  0  0  0
 16 12  1  0  0  0  0
 17  4  1  0  0  0  0
 17 20  1  0  0  0  0
 18 17  1  0  0  0  0
 19 17  1  0  0  0  0
 20 22  1  0  0  0  0
 21 20  1  0  0  0  0
 21 22  1  0  0  0  0
M  END
>  <minimizedAffinity>
-4.34923744

$$$$

 OpenBabel03212520283D

 22 24  0  0  0  0  0  0  0  0999 V2000
   40.4820   73.9550   59.9890 C   0  0  0  0  0  0  0  0  0  0  0  0
   41.8650   73.9840   59.8590 C   0  0  0  0  0  0  0  0  0  0  0  0
   42.2530   73.1260   60.8970 C   0  0  0  0  0  0  0  0  0  0  0  0
   41.1860   72.6470   61.5620 N   0  0  0  0  0  0  0  0  0  0  0  0
   40.0920   73.1660   60.9930 N   0  0  0  0  0  0  0  0  0  0  0  0
   42.4840   74.5160   59.1610 H   0  0  0  0  0  0  0  0  0  0  0  0
   43.2810   72.8690   61.1460 H   0  0  0  0  0  0  0  0  0  0  0  0
   37.6670   74.7900   57.6890 C   0  0  0  0  0  0  0  0  0  0  0  0
   38.5170   74.0280   58.4950 C   0  0  0  0  0  0  0  0  0  0  0  0
   39.5660   74.6920   59.1390 C   0  0  0  0  0  0  0  0  0  0  0  0
   39.7180   76.0420   58.9620 N   0  0  0  0  0  0  0  0  0  0  0  0
   38.8470   76.7180   58.1610 C   0  0  0  0  0  0  0  0  0  0  0  0
   37.8420   76.0970   57.5390 N   0  0  0  0  0  0  0  0  0  0  0  0
   36.8350   74.3220   57.1660 H   0  0  0  0  0  0  0  0  0  0  0  0
   38.3580   72.9590   58.6070 H   0  0  0  0  0  0  0  0  0  0  0  0
   38.9830   77.7780   58.0330 H   0  0  0  0  0  0  0  0  0  0  0  0
   41.2070   71.7320   62.6940 C   0  0  0  0  0  0  0  0  0  0  0  0
   40.3130   71.0910   62.5910 H   0  0  0  0  0  0  0  0  0  0  0  0
   41.1980   72.2760   63.6610 H   0  0  0  0  0  0  0  0  0  0  0  0
   42.4200   70.8590   62.6030 C   0  0  0  0  0  3  0  0  0  0  0  0
   42.3850   69.6070   63.4390 C   0  0  0  0  0  2  0  0  0  0  0  0
   42.2930   69.5300   61.9420 C   0  0  0  0  0  2  0  0  0  0  0  0
  1  5  2  0  0  0  0
  2  1  1  0  0  0  0
  2  3  2  0  0  0  0
  3  7  1  0  0  0  0
  3  4  1  0  0  0  0
  4 17  1  0  0  0  0
  5  4  1  0  0  0  0
  6  2  1  0  0  0  0
  8  9  1  0  0  0  0
  9 15  1  0  0  0  0
  9 10  2  0  0  0  0
 10  1  1  0  0  0  0
 11 10  1  0  0  0  0
 12 11  2  0  0  0  0
 13  8  2  0  0  0  0
 13 12  1  0  0  0  0
 14  8  1  0  0  0  0
 16 12  1  0  0  0  0
 17 19  1  0  0  0  0
 18 17  1  0  0  0  0
 20 17  1  0  0  0  0
 20 21  1  0  0  0  0
 22 20  1  0  0  0  0
 22 21  1  0  0  0  0
M  END
>  <minimizedAffinity>
-4.21468019

$$$$

 OpenBabel03212520283D

 22 24  0  0  0  0  0  0  0  0999 V2000
   40.4640   73.3850   61.0560 C   0  0  0  0  0  0  0  0  0  0  0  0
   39.1060   73.4020   61.3480 C   0  0  0  0  0  0  0  0  0  0  0  0
   38.7250   74.6330   60.7990 C   0  0  0  0  0  0  0  0  0  0  0  0
   39.7720   75.2660   60.2400 N   0  0  0  0  0  0  0  0  0  0  0  0
   40.8470   74.4870   60.4040 N   0  0  0  0  0  0  0  0  0  0  0  0
   38.4990   72.6770   61.8580 H   0  0  0  0  0  0  0  0  0  0  0  0
   37.7150   75.0400   60.8130 H   0  0  0  0  0  0  0  0  0  0  0  0
   42.1850   70.6830   62.9670 C   0  0  0  0  0  0  0  0  0  0  0  0
   41.2910   71.7190   62.6810 C   0  0  0  0  0  0  0  0  0  0  0  0
   41.3640   72.3060   61.4140 C   0  0  0  0  0  0  0  0  0  0  0  0
   42.2920   71.8520   60.5140 N   0  0  0  0  0  0  0  0  0  0  0  0
   43.1300   70.8360   60.8660 C   0  0  0  0  0  0  0  0  0  0  0  0
   43.0720   70.2670   62.0730 N   0  0  0  0  0  0  0  0  0  0  0  0
   42.1690   70.1930   63.9400 H   0  0  0  0  0  0  0  0  0  0  0  0
   40.5710   72.0470   63.4250 H   0  0  0  0  0  0  0  0  0  0  0  0
   43.8530   70.4930   60.1470 H   0  0  0  0  0  0  0  0  0  0  0  0
   39.7510   76.5620   59.5770 C   0  0  0  0  0  0  0  0  0  0  0  0
   40.7750   76.7350   59.2010 H   0  0  0  0  0  0  0  0  0  0  0  0
   39.4390   77.3710   60.2690 H   0  0  0  0  0  0  0  0  0  0  0  0
   38.8260   76.5020   58.4010 C   0  0  0  0  0  3  0  0  0  0  0  0
   38.9760   77.6150   57.3980 C   0  0  0  0  0  2  0  0  0  0  0  0
   39.4020   76.2160   57.0570 C   0  0  0  0  0  2  0  0  0  0  0  0
  1  2  1  0  0  0  0
  1 10  1  0  0  0  0
  2  6  1  0  0  0  0
  3  7  1  0  0  0  0
  3  2  2  0  0  0  0
  4  5  1  0  0  0  0
  4  3  1  0  0  0  0
  5  1  2  0  0  0  0
  8 14  1  0  0  0  0
  9  8  1  0  0  0  0
  9 15  1  0  0  0  0
 10  9  2  0  0  0  0
 11 12  2  0  0  0  0
 11 10  1  0  0  0  0
 12 13  1  0  0  0  0
 13  8  2  0  0  0  0
 16 12  1  0  0  0  0
 17  4  1  0  0  0  0
 17 19  1  0  0  0  0
 18 17  1  0  0  0  0
 20 17  1  0  0  0  0
 21 20  1  0  0  0  0
 22 21  1  0  0  0  0
 22 20  1  0  0  0  0
M  END
>  <minimizedAffinity>
-4.18645525

$$$$

 OpenBabel03212520283D

 22 24  0  0  0  0  0  0  0  0999 V2000
   41.6380   71.4720   61.6860 C   0  0  0  0  0  0  0  0  0  0  0  0
   41.6730   71.1980   63.0470 C   0  0  0  0  0  0  0  0  0  0  0  0
   42.0280   69.8430   63.0420 C   0  0  0  0  0  0  0  0  0  0  0  0
   42.1840   69.3810   61.7880 N   0  0  0  0  0  0  0  0  0  0  0  0
   41.9400   70.3970   60.9530 N   0  0  0  0  0  0  0  0  0  0  0  0
   41.4800   71.8390   63.8870 H   0  0  0  0  0  0  0  0  0  0  0  0
   42.1650   69.2280   63.9300 H   0  0  0  0  0  0  0  0  0  0  0  0
   41.8170   74.6260   59.7030 C   0  0  0  0  0  0  0  0  0  0  0  0
   42.1840   73.3780   60.2140 C   0  0  0  0  0  0  0  0  0  0  0  0
   41.3120   72.7670   61.1200 C   0  0  0  0  0  0  0  0  0  0  0  0
   40.1490   73.4020   61.4680 N   0  0  0  0  0  0  0  0  0  0  0  0
   39.8580   74.6190   60.9260 C   0  0  0  0  0  0  0  0  0  0  0  0
   40.6820   75.2140   60.0600 N   0  0  0  0  0  0  0  0  0  0  0  0
   42.4610   75.1440   58.9940 H   0  0  0  0  0  0  0  0  0  0  0  0
   43.1170   72.9110   59.9100 H   0  0  0  0  0  0  0  0  0  0  0  0
   38.9400   75.1030   61.2110 H   0  0  0  0  0  0  0  0  0  0  0  0
   42.5510   68.0260   61.4010 C   0  0  0  0  0  0  0  0  0  0  0  0
   42.8690   67.5140   62.3260 H   0  0  0  0  0  0  0  0  0  0  0  0
   43.3620   68.0220   60.6440 H   0  0  0  0  0  0  0  0  0  0  0  0
   41.3430   67.3190   60.8680 C   0  0  0  0  0  3  0  0  0  0  0  0
   41.6120   66.0210   60.1540 C   0  0  0  0  0  2  0  0  0  0  0  0
   40.9390   66.0300   61.4960 C   0  0  0  0  0  2  0  0  0  0  0  0
  1  2  1  0  0  0  0
  2  6  1  0  0  0  0
  3  2  2  0  0  0  0
  3  7  1  0  0  0  0
  4  3  1  0  0  0  0
  5  1  2  0  0  0  0
  5  4  1  0  0  0  0
  8 13  2  0  0  0  0
  8  9  1  0  0  0  0
  9 10  2  0  0  0  0
 10 11  1  0  0  0  0
 10  1  1  0  0  0  0
 12 16  1  0  0  0  0
 12 11  2  0  0  0  0
 13 12  1  0  0  0  0
 14  8  1  0  0  0  0
 15  9  1  0  0  0  0
 17  4  1  0  0  0  0
 17 18  1  0  0  0  0
 19 17  1  0  0  0  0
 20 17  1  0  0  0  0
 20 22  1  0  0  0  0
 21 20  1  0  0  0  0
 21 22  1  0  0  0  0
M  END
>  <minimizedAffinity>
-4.1598649

$$$$

 OpenBabel03212520283D

 22 24  0  0  0  0  0  0  0  0999 V2000
   40.4490   74.3460   59.5360 C   0  0  0  0  0  0  0  0  0  0  0  0
   41.8180   74.3630   59.3020 C   0  0  0  0  0  0  0  0  0  0  0  0
   42.2870   73.5990   60.3790 C   0  0  0  0  0  0  0  0  0  0  0  0
   41.2750   73.1800   61.1620 N   0  0  0  0  0  0  0  0  0  0  0  0
   40.1390   73.6480   60.6320 N   0  0  0  0  0  0  0  0  0  0  0  0
   42.3800   74.8310   58.5150 H   0  0  0  0  0  0  0  0  0  0  0  0
   43.3330   73.3640   60.5730 H   0  0  0  0  0  0  0  0  0  0  0  0
   38.6240   76.9430   57.5780 C   0  0  0  0  0  0  0  0  0  0  0  0
   39.6000   76.3630   58.3920 C   0  0  0  0  0  0  0  0  0  0  0  0
   39.4680   75.0050   58.6960 C   0  0  0  0  0  0  0  0  0  0  0  0
   38.4040   74.3030   58.1920 N   0  0  0  0  0  0  0  0  0  0  0  0
   37.4910   74.9380   57.4040 C   0  0  0  0  0  0  0  0  0  0  0  0
   37.6060   76.2360   57.1060 N   0  0  0  0  0  0  0  0  0  0  0  0
   38.6820   77.9980   57.3120 H   0  0  0  0  0  0  0  0  0  0  0  0
   40.4280   76.9580   58.7690 H   0  0  0  0  0  0  0  0  0  0  0  0
   36.6620   74.3720   57.0180 H   0  0  0  0  0  0  0  0  0  0  0  0
   41.3860   72.3680   62.3640 C   0  0  0  0  0  0  0  0  0  0  0  0
   40.4390   71.8050   62.4460 H   0  0  0  0  0  0  0  0  0  0  0  0
   41.5570   72.9920   63.2650 H   0  0  0  0  0  0  0  0  0  0  0  0
   42.5020   71.3840   62.1970 C   0  0  0  0  0  3  0  0  0  0  0  0
   42.4320   70.1650   63.0780 C   0  0  0  0  0  2  0  0  0  0  0  0
   42.1950   70.0550   61.6000 C   0  0  0  0  0  2  0  0  0  0  0  0
  1  5  2  0  0  0  0
  2  1  1  0  0  0  0
  2  3  2  0  0  0  0
  3  7  1  0  0  0  0
  3  4  1  0  0  0  0
  4 17  1  0  0  0  0
  5  4  1  0  0  0  0
  6  2  1  0  0  0  0
  8  9  1  0  0  0  0
  9 10  2  0  0  0  0
  9 15  1  0  0  0  0
 10  1  1  0  0  0  0
 11 10  1  0  0  0  0
 12 11  2  0  0  0  0
 13 12  1  0  0  0  0
 13  8  2  0  0  0  0
 14  8  1  0  0  0  0
 16 12  1  0  0  0  0
 17 18  1  0  0  0  0
 17 19  1  0  0  0  0
 20 17  1  0  0  0  0
 20 21  1  0  0  0  0
 22 20  1  0  0  0  0
 22 21  1  0  0  0  0
M  END
>  <minimizedAffinity>
-4.11397743

$$$$

 OpenBabel03212520283D

 22 24  0  0  0  0  0  0  0  0999 V2000
   41.0510   73.5400   60.6540 C   0  0  0  0  0  0  0  0  0  0  0  0
   42.4310   73.5290   60.4990 C   0  0  0  0  0  0  0  0  0  0  0  0
   42.8010   72.5470   61.4280 C   0  0  0  0  0  0  0  0  0  0  0  0
   41.7260   72.0400   62.0600 N   0  0  0  0  0  0  0  0  0  0  0  0
   40.6450   72.6610   61.5750 N   0  0  0  0  0  0  0  0  0  0  0  0
   43.0590   74.1090   59.8490 H   0  0  0  0  0  0  0  0  0  0  0  0
   43.8220   72.2250   61.6260 H   0  0  0  0  0  0  0  0  0  0  0  0
   39.5280   76.5420   59.0480 C   0  0  0  0  0  0  0  0  0  0  0  0
   40.4310   75.7640   59.7770 C   0  0  0  0  0  0  0  0  0  0  0  0
   40.1510   74.4010   59.9100 C   0  0  0  0  0  0  0  0  0  0  0  0
   39.0220   73.8850   59.3300 N   0  0  0  0  0  0  0  0  0  0  0  0
   38.1880   74.7080   58.6330 C   0  0  0  0  0  0  0  0  0  0  0  0
   38.4430   76.0130   58.4990 N   0  0  0  0  0  0  0  0  0  0  0  0
   39.7000   77.6090   58.9150 H   0  0  0  0  0  0  0  0  0  0  0  0
   41.3150   76.2150   60.2190 H   0  0  0  0  0  0  0  0  0  0  0  0
   37.3050   74.2860   58.1850 H   0  0  0  0  0  0  0  0  0  0  0  0
   41.7290   71.0070   63.0850 C   0  0  0  0  0  0  0  0  0  0  0  0
   40.7560   70.4880   63.0050 H   0  0  0  0  0  0  0  0  0  0  0  0
   41.8700   71.4340   64.0980 H   0  0  0  0  0  0  0  0  0  0  0  0
   42.8110   70.0160   62.7860 C   0  0  0  0  0  3  0  0  0  0  0  0
   42.6890   68.6890   63.4870 C   0  0  0  0  0  2  0  0  0  0  0  0
   42.4630   68.7950   62.0070 C   0  0  0  0  0  2  0  0  0  0  0  0
  1  5  2  0  0  0  0
  2  1  1  0  0  0  0
  2  3  2  0  0  0  0
  3  7  1  0  0  0  0
  3  4  1  0  0  0  0
  4 17  1  0  0  0  0
  5  4  1  0  0  0  0
  6  2  1  0  0  0  0
  8  9  1  0  0  0  0
  9 10  2  0  0  0  0
  9 15  1  0  0  0  0
 10  1  1  0  0  0  0
 11 10  1  0  0  0  0
 12 11  2  0  0  0  0
 13 12  1  0  0  0  0
 13  8  2  0  0  0  0
 14  8  1  0  0  0  0
 16 12  1  0  0  0  0
 17 19  1  0  0  0  0
 18 17  1  0  0  0  0
 20 17  1  0  0  0  0
 20 21  1  0  0  0  0
 22 20  1  0  0  0  0
 22 21  1  0  0  0  0
M  END
>  <minimizedAffinity>
-4.09749126

$$$$
