
 OpenBabel03212520553D

 29 32  0  0  0  0  0  0  0  0999 V2000
   40.9600   80.2130   61.7110 C   0  0  0  0  0  0  0  0  0  0  0  0
   40.9200   78.9840   62.3440 C   0  0  0  0  0  0  0  0  0  0  0  0
   40.5280   77.9160   61.6260 C   0  0  0  0  0  0  0  0  0  0  0  0
   40.1800   78.0740   60.2930 C   0  0  0  0  0  0  0  0  0  0  0  0
   40.4220   79.8840   60.0060 S   0  0  0  0  0  0  0  0  0  0  0  0
   41.1930   78.8640   63.3910 H   0  0  0  0  0  0  0  0  0  0  0  0
   40.4310   76.8850   61.9370 H   0  0  0  0  0  0  0  0  0  0  0  0
   43.0590   83.0280   62.7670 C   0  0  0  0  0  0  0  0  0  0  0  0
   42.1870   83.7990   63.5620 C   0  0  0  0  0  0  0  0  0  0  0  0
   40.8740   83.3470   63.7320 C   0  0  0  0  0  0  0  0  0  0  0  0
   40.5040   82.1950   63.1280 N   0  0  0  0  0  0  0  0  0  0  0  0
   41.3730   81.4830   62.3710 C   0  0  0  0  0  0  0  0  0  0  0  0
   42.6200   81.8990   62.2010 N   0  0  0  0  0  0  0  0  0  0  0  0
   44.0900   83.2830   62.5690 H   0  0  0  0  0  0  0  0  0  0  0  0
   42.5810   84.7060   64.0020 H   0  0  0  0  0  0  0  0  0  0  0  0
   40.2060   83.9290   64.3370 H   0  0  0  0  0  0  0  0  0  0  0  0
   39.7260   77.2220   59.2250 C   0  0  0  0  0  0  0  0  0  0  0  0
   40.3730   76.0450   59.0010 C   0  0  0  0  0  0  0  0  0  0  0  0
   39.8210   75.3180   57.9310 C   0  0  0  0  0  0  0  0  0  0  0  0
   38.7640   75.7280   57.1980 N   0  0  0  0  0  0  0  0  0  0  0  0
   38.1950   76.9130   57.5040 C   0  0  0  0  0  0  0  0  0  0  0  0
   38.6730   77.6740   58.5270 N   0  0  0  0  0  0  0  0  0  0  0  0
   41.2140   75.6630   59.5430 H   0  0  0  0  0  0  0  0  0  0  0  0
   40.2610   74.3560   57.6590 H   0  0  0  0  0  0  0  0  0  0  0  0
   37.0570   77.3580   56.7170 C   0  0  0  0  0  0  0  0  0  0  0  0
   35.9100   77.1260   57.1690 O   0  0  0  0  0  0  0  0  0  0  0  0
   37.1970   78.0720   55.4060 C   0  0  0  0  0  3  0  0  0  0  0  0
   37.4220   79.5310   55.5290 C   0  0  0  0  0  2  0  0  0  0  0  0
   38.5030   78.6530   55.0380 C   0  0  0  0  0  2  0  0  0  0  0  0
  1  2  2  0  0  0  0
  1 12  1  0  0  0  0
  2  6  1  0  0  0  0
  3  7  1  0  0  0  0
  3  2  1  0  0  0  0
  4  3  2  0  0  0  0
  5  4  1  0  0  0  0
  5  1  1  0  0  0  0
  8  9  1  0  0  0  0
  9 10  2  0  0  0  0
  9 15  1  0  0  0  0
 10 16  1  0  0  0  0
 11 10  1  0  0  0  0
 12 11  2  0  0  0  0
 13 12  1  0  0  0  0
 13  8  2  0  0  0  0
 14  8  1  0  0  0  0
 17  4  1  0  0  0  0
 18 17  1  0  0  0  0
 18 23  1  0  0  0  0
 19 18  2  0  0  0  0
 20 21  2  0  0  0  0
 20 19  1  0  0  0  0
 21 22  1  0  0  0  0
 22 17  2  0  0  0  0
 24 19  1  0  0  0  0
 25 26  2  0  0  0  0
 25 21  1  0  0  0  0
 27 28  1  0  0  0  0
 27 25  1  0  0  0  0
 29 27  1  0  0  0  0
 29 28  1  0  0  0  0
M  END
>  <minimizedAffinity>
-5.79590893

>  <minimizedRMSD>
0.237023145

$$$$
