
 OpenBabel03212520403D

 21 23  0  0  1  0  0  0  0  0999 V2000
   42.0760   85.3060   59.6870 C   0  0  1  0  0  0  0  0  0  0  0  0
   43.0330   85.4250   58.5060 C   0  0  0  0  0  0  0  0  0  0  0  0
   41.7260   84.6640   58.4110 C   0  0  1  0  0  0  0  0  0  0  0  0
   41.6740   86.3040   59.9730 H   0  0  0  0  0  0  0  0  0  0  0  0
   43.1450   86.3750   57.9720 H   0  0  0  0  0  0  0  0  0  0  0  0
   43.9350   84.7940   58.4590 H   0  0  0  0  0  0  0  0  0  0  0  0
   40.9780   85.1560   57.7530 H   0  0  0  0  0  0  0  0  0  0  0  0
   42.6300   84.5020   60.7290 O   0  0  0  0  0  0  0  0  0  0  0  0
   40.0480   83.6220   63.1120 C   0  0  0  0  0  0  0  0  0  0  0  0
   40.6850   83.8650   64.3300 C   0  0  0  0  0  0  0  0  0  0  0  0
   42.0230   84.3380   64.2900 C   0  0  0  0  0  0  0  0  0  0  0  0
   42.5590   84.5110   63.0570 N   0  0  0  0  0  0  0  0  0  0  0  0
   41.9320   84.2710   61.8910 C   0  0  0  0  0  0  0  0  0  0  0  0
   40.6720   83.8260   61.9090 N   0  0  0  0  0  0  0  0  0  0  0  0
   39.0280   83.2600   63.0500 H   0  0  0  0  0  0  0  0  0  0  0  0
   40.1750   83.6980   65.2500 H   0  0  0  0  0  0  0  0  0  0  0  0
   42.5500   84.5380   65.1940 H   0  0  0  0  0  0  0  0  0  0  0  0
   41.7890   83.2660   58.3700 O   0  0  0  0  0  0  0  0  0  0  0  0
   40.5040   82.7760   58.4650 C   0  0  0  0  0  3  0  0  0  0  0  0
   40.1940   81.5530   59.2490 C   0  0  0  0  0  2  0  0  0  0  0  0
   40.2690   81.4470   57.7630 C   0  0  0  0  0  2  0  0  0  0  0  0
  1  4  1  1  0  0  0
  1  8  1  0  0  0  0
  2  1  1  0  0  0  0
  3  7  1  6  0  0  0
  3  2  1  0  0  0  0
  3  1  1  0  0  0  0
  5  2  1  0  0  0  0
  6  2  1  0  0  0  0
  8 13  1  0  0  0  0
  9 10  1  0  0  0  0
 10 16  1  0  0  0  0
 11 10  2  0  0  0  0
 11 17  1  0  0  0  0
 12 11  1  0  0  0  0
 13 14  1  0  0  0  0
 13 12  2  0  0  0  0
 14  9  2  0  0  0  0
 15  9  1  0  0  0  0
 18  3  1  0  0  0  0
 18 19  1  0  0  0  0
 19 20  1  0  0  0  0
 21 19  1  0  0  0  0
 21 20  1  0  0  0  0
M  END
>  <minimizedAffinity>
-3.84572196

>  <minimizedRMSD>
2.13809228

$$$$
