
 OpenBabel03212520553D

 29 32  0  0  0  0  0  0  0  0999 V2000
   40.9660   80.3360   61.7610 C   0  0  0  0  0  0  0  0  0  0  0  0
   40.9490   79.0940   62.3670 C   0  0  0  0  0  0  0  0  0  0  0  0
   40.5670   78.0350   61.6290 C   0  0  0  0  0  0  0  0  0  0  0  0
   40.2060   78.2170   60.3020 C   0  0  0  0  0  0  0  0  0  0  0  0
   40.4190   80.0360   60.0540 S   0  0  0  0  0  0  0  0  0  0  0  0
   41.2330   78.9540   63.4090 H   0  0  0  0  0  0  0  0  0  0  0  0
   40.4880   76.9970   61.9170 H   0  0  0  0  0  0  0  0  0  0  0  0
   43.0420   83.1380   62.8920 C   0  0  0  0  0  0  0  0  0  0  0  0
   42.1560   83.8980   63.6830 C   0  0  0  0  0  0  0  0  0  0  0  0
   40.8410   83.4410   63.8240 C   0  0  0  0  0  0  0  0  0  0  0  0
   40.4820   82.2980   63.1970 N   0  0  0  0  0  0  0  0  0  0  0  0
   41.3660   81.5970   62.4460 C   0  0  0  0  0  0  0  0  0  0  0  0
   42.6140   82.0170   62.3030 N   0  0  0  0  0  0  0  0  0  0  0  0
   44.0760   83.3980   62.7160 H   0  0  0  0  0  0  0  0  0  0  0  0
   42.5410   84.7990   64.1420 H   0  0  0  0  0  0  0  0  0  0  0  0
   40.1610   84.0150   64.4240 H   0  0  0  0  0  0  0  0  0  0  0  0
   39.7550   77.3820   59.2190 C   0  0  0  0  0  0  0  0  0  0  0  0
   40.3930   76.2020   58.9890 C   0  0  0  0  0  0  0  0  0  0  0  0
   39.8460   75.4930   57.9040 C   0  0  0  0  0  0  0  0  0  0  0  0
   38.8020   75.9220   57.1640 N   0  0  0  0  0  0  0  0  0  0  0  0
   38.2410   77.1090   57.4780 C   0  0  0  0  0  0  0  0  0  0  0  0
   38.7160   77.8530   58.5140 N   0  0  0  0  0  0  0  0  0  0  0  0
   41.2240   75.8040   59.5360 H   0  0  0  0  0  0  0  0  0  0  0  0
   40.2790   74.5290   57.6260 H   0  0  0  0  0  0  0  0  0  0  0  0
   37.1170   77.5750   56.6830 C   0  0  0  0  0  0  0  0  0  0  0  0
   35.9710   77.1830   57.0100 O   0  0  0  0  0  0  0  0  0  0  0  0
   37.2700   78.4900   55.5050 C   0  0  0  0  0  3  0  0  0  0  0  0
   37.3520   79.9270   55.8570 C   0  0  0  0  0  2  0  0  0  0  0  0
   38.5370   79.2250   55.3250 C   0  0  0  0  0  2  0  0  0  0  0  0
  1  2  2  0  0  0  0
  1 12  1  0  0  0  0
  2  6  1  0  0  0  0
  3  7  1  0  0  0  0
  3  2  1  0  0  0  0
  4  3  2  0  0  0  0
  5  4  1  0  0  0  0
  5  1  1  0  0  0  0
  8  9  1  0  0  0  0
  9 10  2  0  0  0  0
  9 15  1  0  0  0  0
 10 16  1  0  0  0  0
 11 10  1  0  0  0  0
 12 11  2  0  0  0  0
 13 12  1  0  0  0  0
 13  8  2  0  0  0  0
 14  8  1  0  0  0  0
 17  4  1  0  0  0  0
 18 17  1  0  0  0  0
 18 23  1  0  0  0  0
 19 18  2  0  0  0  0
 20 21  2  0  0  0  0
 20 19  1  0  0  0  0
 21 22  1  0  0  0  0
 22 17  2  0  0  0  0
 24 19  1  0  0  0  0
 25 26  2  0  0  0  0
 25 21  1  0  0  0  0
 27 28  1  0  0  0  0
 27 25  1  0  0  0  0
 29 27  1  0  0  0  0
 29 28  1  0  0  0  0
M  END
>  <minimizedAffinity>
-5.86589336

>  <minimizedRMSD>
0.538573802

$$$$
