
 OpenBabel03212520563D

 29 32  0  0  0  0  0  0  0  0999 V2000
   40.8840   80.1480   61.7650 C   0  0  0  0  0  0  0  0  0  0  0  0
   40.7820   78.9730   62.4880 C   0  0  0  0  0  0  0  0  0  0  0  0
   40.4050   77.8590   61.8340 C   0  0  0  0  0  0  0  0  0  0  0  0
   40.1330   77.9180   60.4750 C   0  0  0  0  0  0  0  0  0  0  0  0
   40.4310   79.6960   60.0640 S   0  0  0  0  0  0  0  0  0  0  0  0
   40.9950   78.9290   63.5550 H   0  0  0  0  0  0  0  0  0  0  0  0
   40.2680   76.8570   62.2170 H   0  0  0  0  0  0  0  0  0  0  0  0
   42.9840   82.9990   62.7120 C   0  0  0  0  0  0  0  0  0  0  0  0
   42.0890   83.8440   63.4000 C   0  0  0  0  0  0  0  0  0  0  0  0
   40.7600   83.4280   63.5350 C   0  0  0  0  0  0  0  0  0  0  0  0
   40.3970   82.2400   63.0020 N   0  0  0  0  0  0  0  0  0  0  0  0
   41.2890   81.4570   62.3480 C   0  0  0  0  0  0  0  0  0  0  0  0
   42.5510   81.8380   62.2110 N   0  0  0  0  0  0  0  0  0  0  0  0
   44.0290   83.2220   62.5490 H   0  0  0  0  0  0  0  0  0  0  0  0
   42.4790   84.7760   63.7890 H   0  0  0  0  0  0  0  0  0  0  0  0
   40.0750   84.0670   64.0580 H   0  0  0  0  0  0  0  0  0  0  0  0
   39.7180   76.9940   59.4530 C   0  0  0  0  0  0  0  0  0  0  0  0
   40.2850   75.7570   59.4140 C   0  0  0  0  0  0  0  0  0  0  0  0
   39.7840   74.9630   58.3670 C   0  0  0  0  0  0  0  0  0  0  0  0
   38.8420   75.3690   57.4890 N   0  0  0  0  0  0  0  0  0  0  0  0
   38.3450   76.6170   57.6160 C   0  0  0  0  0  0  0  0  0  0  0  0
   38.7810   77.4450   58.6050 N   0  0  0  0  0  0  0  0  0  0  0  0
   41.0340   75.3730   60.0780 H   0  0  0  0  0  0  0  0  0  0  0  0
   40.1670   73.9480   58.2380 H   0  0  0  0  0  0  0  0  0  0  0  0
   37.3310   77.0580   56.6720 C   0  0  0  0  0  0  0  0  0  0  0  0
   36.1560   77.1730   57.0930 O   0  0  0  0  0  0  0  0  0  0  0  0
   37.6310   77.3750   55.2380 C   0  0  0  0  0  3  0  0  0  0  0  0
   37.4990   76.2200   54.3180 C   0  0  0  0  0  2  0  0  0  0  0  0
   36.5370   77.3370   54.2480 C   0  0  0  0  0  2  0  0  0  0  0  0
  1 12  1  0  0  0  0
  1  2  2  0  0  0  0
  2  6  1  0  0  0  0
  3  7  1  0  0  0  0
  3  2  1  0  0  0  0
  4  3  2  0  0  0  0
  5  4  1  0  0  0  0
  5  1  1  0  0  0  0
  8  9  1  0  0  0  0
  9 10  2  0  0  0  0
  9 15  1  0  0  0  0
 10 16  1  0  0  0  0
 11 10  1  0  0  0  0
 12 11  2  0  0  0  0
 13 12  1  0  0  0  0
 13  8  2  0  0  0  0
 14  8  1  0  0  0  0
 17  4  1  0  0  0  0
 18 17  1  0  0  0  0
 18 23  1  0  0  0  0
 19 18  2  0  0  0  0
 20 21  2  0  0  0  0
 20 19  1  0  0  0  0
 21 22  1  0  0  0  0
 22 17  2  0  0  0  0
 24 19  1  0  0  0  0
 25 26  2  0  0  0  0
 25 21  1  0  0  0  0
 27 25  1  0  0  0  0
 28 27  1  0  0  0  0
 29 28  1  0  0  0  0
 29 27  1  0  0  0  0
M  END
>  <minimizedAffinity>
-5.82457638

>  <minimizedRMSD>
0.353278667

$$$$
