
 OpenBabel03212520553D

 29 32  0  0  0  0  0  0  0  0999 V2000
   40.8930   80.1850   61.7380 C   0  0  0  0  0  0  0  0  0  0  0  0
   40.7800   78.9990   62.4400 C   0  0  0  0  0  0  0  0  0  0  0  0
   40.4210   77.8940   61.7600 C   0  0  0  0  0  0  0  0  0  0  0  0
   40.1760   77.9740   60.3980 C   0  0  0  0  0  0  0  0  0  0  0  0
   40.4750   79.7590   60.0210 S   0  0  0  0  0  0  0  0  0  0  0  0
   40.9730   78.9390   63.5100 H   0  0  0  0  0  0  0  0  0  0  0  0
   40.2800   76.8860   62.1250 H   0  0  0  0  0  0  0  0  0  0  0  0
   42.9620   83.0300   62.7680 C   0  0  0  0  0  0  0  0  0  0  0  0
   42.0520   83.8590   63.4550 C   0  0  0  0  0  0  0  0  0  0  0  0
   40.7230   83.4350   63.5600 C   0  0  0  0  0  0  0  0  0  0  0  0
   40.3750   82.2540   63.0000 N   0  0  0  0  0  0  0  0  0  0  0  0
   41.2810   81.4870   62.3490 C   0  0  0  0  0  0  0  0  0  0  0  0
   42.5430   81.8750   62.2410 N   0  0  0  0  0  0  0  0  0  0  0  0
   44.0080   83.2600   62.6280 H   0  0  0  0  0  0  0  0  0  0  0  0
   42.4300   84.7860   63.8660 H   0  0  0  0  0  0  0  0  0  0  0  0
   40.0250   84.0610   64.0820 H   0  0  0  0  0  0  0  0  0  0  0  0
   39.7850   77.0650   59.3530 C   0  0  0  0  0  0  0  0  0  0  0  0
   40.4100   75.8590   59.2600 C   0  0  0  0  0  0  0  0  0  0  0  0
   39.9260   75.0770   58.1970 C   0  0  0  0  0  0  0  0  0  0  0  0
   38.9470   75.4650   57.3520 N   0  0  0  0  0  0  0  0  0  0  0  0
   38.3930   76.6820   57.5320 C   0  0  0  0  0  0  0  0  0  0  0  0
   38.8090   77.4970   58.5400 N   0  0  0  0  0  0  0  0  0  0  0  0
   41.1910   75.4920   59.8960 H   0  0  0  0  0  0  0  0  0  0  0  0
   40.3550   74.0870   58.0260 H   0  0  0  0  0  0  0  0  0  0  0  0
   37.3380   77.1030   56.6240 C   0  0  0  0  0  0  0  0  0  0  0  0
   36.1740   77.1860   57.0830 O   0  0  0  0  0  0  0  0  0  0  0  0
   37.5840   77.4370   55.1830 C   0  0  0  0  0  3  0  0  0  0  0  0
   37.4740   76.2790   54.2620 C   0  0  0  0  0  2  0  0  0  0  0  0
   36.4650   77.3570   54.2240 C   0  0  0  0  0  2  0  0  0  0  0  0
  1 12  1  0  0  0  0
  1  2  2  0  0  0  0
  2  6  1  0  0  0  0
  3  7  1  0  0  0  0
  3  2  1  0  0  0  0
  4  3  2  0  0  0  0
  5  4  1  0  0  0  0
  5  1  1  0  0  0  0
  8  9  1  0  0  0  0
  9 10  2  0  0  0  0
  9 15  1  0  0  0  0
 10 16  1  0  0  0  0
 11 10  1  0  0  0  0
 12 11  2  0  0  0  0
 13 12  1  0  0  0  0
 13  8  2  0  0  0  0
 14  8  1  0  0  0  0
 17  4  1  0  0  0  0
 18 17  1  0  0  0  0
 18 23  1  0  0  0  0
 19 18  2  0  0  0  0
 20 21  2  0  0  0  0
 20 19  1  0  0  0  0
 21 22  1  0  0  0  0
 22 17  2  0  0  0  0
 24 19  1  0  0  0  0
 25 26  2  0  0  0  0
 25 21  1  0  0  0  0
 27 25  1  0  0  0  0
 28 27  1  0  0  0  0
 29 28  1  0  0  0  0
 29 27  1  0  0  0  0
M  END
>  <minimizedAffinity>
-5.83195019

>  <minimizedRMSD>
0.524694443

$$$$
