
 OpenBabel03212520273D

 22 24  0  0  0  0  0  0  0  0999 V2000
   42.4680   84.8490   60.9720 C   0  0  0  0  0  0  0  0  0  0  0  0
   43.4290   85.3310   61.8500 C   0  0  0  0  0  0  0  0  0  0  0  0
   44.1510   86.1950   61.0160 C   0  0  0  0  0  0  0  0  0  0  0  0
   43.6460   86.2080   59.7680 N   0  0  0  0  0  0  0  0  0  0  0  0
   42.6030   85.3710   59.7490 N   0  0  0  0  0  0  0  0  0  0  0  0
   43.5920   85.1100   62.8890 H   0  0  0  0  0  0  0  0  0  0  0  0
   45.0120   86.7880   61.3210 H   0  0  0  0  0  0  0  0  0  0  0  0
   40.7200   81.6680   61.8320 C   0  0  0  0  0  0  0  0  0  0  0  0
   41.7550   82.5410   61.4850 C   0  0  0  0  0  0  0  0  0  0  0  0
   41.4370   83.8940   61.3310 C   0  0  0  0  0  0  0  0  0  0  0  0
   40.1460   84.3080   61.5240 N   0  0  0  0  0  0  0  0  0  0  0  0
   39.1900   83.3970   61.8620 C   0  0  0  0  0  0  0  0  0  0  0  0
   39.4800   82.1020   62.0120 N   0  0  0  0  0  0  0  0  0  0  0  0
   40.9160   80.6050   61.9640 H   0  0  0  0  0  0  0  0  0  0  0  0
   42.7660   82.1680   61.3420 H   0  0  0  0  0  0  0  0  0  0  0  0
   38.1810   83.7400   62.0090 H   0  0  0  0  0  0  0  0  0  0  0  0
   44.1370   86.9860   58.6400 C   0  0  0  0  0  0  0  0  0  0  0  0
   43.3570   86.9260   57.8600 H   0  0  0  0  0  0  0  0  0  0  0  0
   45.1060   86.5980   58.2660 H   0  0  0  0  0  0  0  0  0  0  0  0
   44.2770   88.4200   59.0500 C   0  0  0  0  0  3  0  0  0  0  0  0
   44.9740   89.3140   58.0610 C   0  0  0  0  0  2  0  0  0  0  0  0
   43.5010   89.4520   58.3080 C   0  0  0  0  0  2  0  0  0  0  0  0
  1 10  1  0  0  0  0
  1  2  1  0  0  0  0
  2  6  1  0  0  0  0
  3  7  1  0  0  0  0
  3  2  2  0  0  0  0
  4  3  1  0  0  0  0
  5  4  1  0  0  0  0
  5  1  2  0  0  0  0
  8 14  1  0  0  0  0
  8 13  1  0  0  0  0
  9  8  2  0  0  0  0
 10  9  1  0  0  0  0
 10 11  2  0  0  0  0
 11 12  1  0  0  0  0
 12 16  1  0  0  0  0
 12 13  2  0  0  0  0
 15  9  1  0  0  0  0
 17 20  1  0  0  0  0
 17  4  1  0  0  0  0
 18 17  1  0  0  0  0
 19 17  1  0  0  0  0
 21 22  1  0  0  0  0
 21 20  1  0  0  0  0
 22 20  1  0  0  0  0
M  END
>  <minimizedAffinity>
-4.2407937

>  <minimizedRMSD>
0.59169817

$$$$
