
 OpenBabel03212520313D

 35 38  0  0  0  0  0  0  0  0999 V2000
   41.0210   79.9330   58.4080 C   0  0  0  0  0  0  0  0  0  0  0  0
   40.3780   80.8450   57.5840 C   0  0  0  0  0  0  0  0  0  0  0  0
   40.6350   82.2000   57.8200 C   0  0  0  0  0  0  0  0  0  0  0  0
   41.4890   82.5500   58.8250 N   0  0  0  0  0  0  0  0  0  0  0  0
   42.0850   81.6520   59.5920 C   0  0  0  0  0  0  0  0  0  0  0  0
   41.8470   80.3430   59.3780 N   0  0  0  0  0  0  0  0  0  0  0  0
   40.8310   78.8820   58.2360 H   0  0  0  0  0  0  0  0  0  0  0  0
   40.1560   82.9530   57.2000 H   0  0  0  0  0  0  0  0  0  0  0  0
   39.5020   80.4150   56.5590 N   0  0  0  0  0  0  0  0  0  0  0  0
   38.3960   79.8030   57.0250 C   0  0  0  0  0  0  0  0  0  0  0  0
   37.4650   79.3330   56.1000 C   0  0  0  0  0  0  0  0  0  0  0  0
   37.7160   79.5170   54.7300 C   0  0  0  0  0  0  0  0  0  0  0  0
   36.9360   79.1280   53.8270 O   0  0  0  0  0  0  0  0  0  0  0  0
   38.8560   80.1450   54.3560 N   0  0  0  0  0  0  0  0  0  0  0  0
   39.7650   80.6040   55.2590 C   0  0  0  0  0  0  0  0  0  0  0  0
   40.8160   81.1830   54.9200 O   0  0  0  0  0  0  0  0  0  0  0  0
   38.1760   79.6460   58.0670 H   0  0  0  0  0  0  0  0  0  0  0  0
   36.5590   78.8350   56.3920 H   0  0  0  0  0  0  0  0  0  0  0  0
   39.0750   80.2980   53.3390 H   0  0  0  0  0  0  0  0  0  0  0  0
   42.5300   82.2980   61.9380 C   0  0  0  0  0  0  0  0  0  0  0  0
   42.9730   82.1410   60.6390 C   0  0  0  0  0  0  0  0  0  0  0  0
   44.2800   82.4220   60.2890 C   0  0  0  0  0  0  0  0  0  0  0  0
   45.2240   82.8770   61.2190 C   0  0  0  0  0  0  0  0  0  0  0  0
   44.8040   83.0420   62.5270 C   0  0  0  0  0  0  0  0  0  0  0  0
   43.4930   82.7570   62.8590 C   0  0  0  0  0  0  0  0  0  0  0  0
   44.6140   82.2980   59.2850 H   0  0  0  0  0  0  0  0  0  0  0  0
   46.2300   83.0880   60.9260 H   0  0  0  0  0  0  0  0  0  0  0  0
   45.4750   83.3920   63.3090 H   0  0  0  0  0  0  0  0  0  0  0  0
   43.1490   82.8800   63.8750 H   0  0  0  0  0  0  0  0  0  0  0  0
   40.9050   81.9550   62.3990 S   0  0  0  0  0  0  0  0  0  0  0  0
   40.6790   82.3330   63.8410 O   0  0  0  0  0  0  0  0  0  0  0  0
   40.7560   80.4310   62.3900 O   0  0  0  0  0  0  0  0  0  0  0  0
   39.6230   82.7170   61.4790 C   0  0  0  0  0  0  0  0  0  0  0  0
   39.8630   84.2790   61.4010 C   0  0  0  0  0  0  0  0  0  0  0  0
   38.6570   83.6840   61.9880 C   0  0  0  0  0  0  0  0  0  0  0  0
  1  6  1  0  0  0  0
  2  3  1  0  0  0  0
  2  1  2  0  0  0  0
  3  4  2  0  0  0  0
  4  5  1  0  0  0  0
  5 21  1  0  0  0  0
  6  5  2  0  0  0  0
  7  1  1  0  0  0  0
  8  3  1  0  0  0  0
  9 10  1  0  0  0  0
  9  2  1  0  0  0  0
 10 17  1  0  0  0  0
 11 18  1  0  0  0  0
 11 10  2  0  0  0  0
 12 11  1  0  0  0  0
 13 12  2  0  0  0  0
 14 12  1  0  0  0  0
 14 15  1  0  0  0  0
 15  9  1  0  0  0  0
 16 15  2  0  0  0  0
 19 14  1  0  0  0  0
 20 30  1  0  0  0  0
 20 25  1  0  0  0  0
 21 20  2  0  0  0  0
 22 21  1  0  0  0  0
 22 23  2  0  0  0  0
 23 24  1  0  0  0  0
 24 25  2  0  0  0  0
 24 28  1  0  0  0  0
 25 29  1  0  0  0  0
 26 22  1  0  0  0  0
 27 23  1  0  0  0  0
 30 31  2  0  0  0  0
 32 30  2  0  0  0  0
 33 35  1  0  0  0  0
 33 30  1  0  0  0  0
 34 33  1  0  0  0  0
 34 35  1  0  0  0  0
M  END
>  <minimizedAffinity>
-5.86795139

>  <minimizedRMSD>
1.04784405

$$$$
