
 OpenBabel03212520403D

 21 23  0  0  1  0  0  0  0  0999 V2000
   42.3730   85.4390   59.7900 C   0  0  1  0  0  0  0  0  0  0  0  0
   43.4370   86.4660   59.4210 C   0  0  0  0  0  0  0  0  0  0  0  0
   43.0220   85.3610   58.4710 C   0  0  1  0  0  0  0  0  0  0  0  0
   41.3820   85.9270   59.9300 H   0  0  0  0  0  0  0  0  0  0  0  0
   43.1600   87.5030   59.1990 H   0  0  0  0  0  0  0  0  0  0  0  0
   44.4610   86.3690   59.8170 H   0  0  0  0  0  0  0  0  0  0  0  0
   42.4680   85.7310   57.5820 H   0  0  0  0  0  0  0  0  0  0  0  0
   42.8260   84.5680   60.8270 O   0  0  0  0  0  0  0  0  0  0  0  0
   40.0520   83.5240   62.9100 C   0  0  0  0  0  0  0  0  0  0  0  0
   40.5530   83.7520   64.1930 C   0  0  0  0  0  0  0  0  0  0  0  0
   41.8680   84.2740   64.3030 C   0  0  0  0  0  0  0  0  0  0  0  0
   42.5190   84.5030   63.1350 N   0  0  0  0  0  0  0  0  0  0  0  0
   42.0230   84.2770   61.9060 C   0  0  0  0  0  0  0  0  0  0  0  0
   40.7860   83.7860   61.7830 N   0  0  0  0  0  0  0  0  0  0  0  0
   39.0590   83.1260   62.7350 H   0  0  0  0  0  0  0  0  0  0  0  0
   39.9600   83.5390   65.0520 H   0  0  0  0  0  0  0  0  0  0  0  0
   42.2940   84.4650   65.2600 H   0  0  0  0  0  0  0  0  0  0  0  0
   43.9180   84.3050   58.2710 O   0  0  0  0  0  0  0  0  0  0  0  0
   43.9220   83.9950   56.9270 C   0  0  0  0  0  3  0  0  0  0  0  0
   43.4800   82.6650   56.4340 C   0  0  0  0  0  2  0  0  0  0  0  0
   44.9430   82.9470   56.5130 C   0  0  0  0  0  2  0  0  0  0  0  0
  1  4  1  1  0  0  0
  1  8  1  0  0  0  0
  2  1  1  0  0  0  0
  2  6  1  0  0  0  0
  3  7  1  6  0  0  0
  3  2  1  0  0  0  0
  3  1  1  0  0  0  0
  5  2  1  0  0  0  0
  8 13  1  0  0  0  0
  9 10  1  0  0  0  0
 10 11  2  0  0  0  0
 10 16  1  0  0  0  0
 11 17  1  0  0  0  0
 12 11  1  0  0  0  0
 13 12  2  0  0  0  0
 14 13  1  0  0  0  0
 14  9  2  0  0  0  0
 15  9  1  0  0  0  0
 18  3  1  0  0  0  0
 19 18  1  0  0  0  0
 20 21  1  0  0  0  0
 20 19  1  0  0  0  0
 21 19  1  0  0  0  0
M  END
>  <minimizedAffinity>
-3.28114963

>  <minimizedRMSD>
0.0686016828

$$$$
