
 OpenBabel03212520563D

 29 32  0  0  0  0  0  0  0  0999 V2000
   40.8930   80.1840   61.7380 C   0  0  0  0  0  0  0  0  0  0  0  0
   40.7820   78.9980   62.4390 C   0  0  0  0  0  0  0  0  0  0  0  0
   40.4220   77.8930   61.7600 C   0  0  0  0  0  0  0  0  0  0  0  0
   40.1770   77.9730   60.3980 C   0  0  0  0  0  0  0  0  0  0  0  0
   40.4750   79.7580   60.0210 S   0  0  0  0  0  0  0  0  0  0  0  0
   40.9750   78.9380   63.5090 H   0  0  0  0  0  0  0  0  0  0  0  0
   40.2820   76.8850   62.1240 H   0  0  0  0  0  0  0  0  0  0  0  0
   42.9630   83.0300   62.7670 C   0  0  0  0  0  0  0  0  0  0  0  0
   42.0530   83.8590   63.4540 C   0  0  0  0  0  0  0  0  0  0  0  0
   40.7240   83.4340   63.5600 C   0  0  0  0  0  0  0  0  0  0  0  0
   40.3760   82.2530   63.0000 N   0  0  0  0  0  0  0  0  0  0  0  0
   41.2820   81.4860   62.3480 C   0  0  0  0  0  0  0  0  0  0  0  0
   42.5440   81.8750   62.2400 N   0  0  0  0  0  0  0  0  0  0  0  0
   44.0090   83.2600   62.6260 H   0  0  0  0  0  0  0  0  0  0  0  0
   42.4310   84.7850   63.8650 H   0  0  0  0  0  0  0  0  0  0  0  0
   40.0260   84.0600   64.0820 H   0  0  0  0  0  0  0  0  0  0  0  0
   39.7850   77.0640   59.3520 C   0  0  0  0  0  0  0  0  0  0  0  0
   40.4100   75.8580   59.2600 C   0  0  0  0  0  0  0  0  0  0  0  0
   39.9260   75.0760   58.1970 C   0  0  0  0  0  0  0  0  0  0  0  0
   38.9470   75.4640   57.3520 N   0  0  0  0  0  0  0  0  0  0  0  0
   38.3930   76.6810   57.5320 C   0  0  0  0  0  0  0  0  0  0  0  0
   38.8090   77.4960   58.5400 N   0  0  0  0  0  0  0  0  0  0  0  0
   41.1910   75.4900   59.8960 H   0  0  0  0  0  0  0  0  0  0  0  0
   40.3550   74.0860   58.0260 H   0  0  0  0  0  0  0  0  0  0  0  0
   37.3390   77.1030   56.6240 C   0  0  0  0  0  0  0  0  0  0  0  0
   36.1740   77.1860   57.0830 O   0  0  0  0  0  0  0  0  0  0  0  0
   37.5840   77.4360   55.1830 C   0  0  0  0  0  3  0  0  0  0  0  0
   37.4740   76.2790   54.2620 C   0  0  0  0  0  2  0  0  0  0  0  0
   36.4650   77.3560   54.2240 C   0  0  0  0  0  2  0  0  0  0  0  0
  1 12  1  0  0  0  0
  1  2  2  0  0  0  0
  2  6  1  0  0  0  0
  3  7  1  0  0  0  0
  3  2  1  0  0  0  0
  4  3  2  0  0  0  0
  5  4  1  0  0  0  0
  5  1  1  0  0  0  0
  8  9  1  0  0  0  0
  9 10  2  0  0  0  0
  9 15  1  0  0  0  0
 10 16  1  0  0  0  0
 11 10  1  0  0  0  0
 12 11  2  0  0  0  0
 13 12  1  0  0  0  0
 13  8  2  0  0  0  0
 14  8  1  0  0  0  0
 17  4  1  0  0  0  0
 18 17  1  0  0  0  0
 18 23  1  0  0  0  0
 19 18  2  0  0  0  0
 20 21  2  0  0  0  0
 20 19  1  0  0  0  0
 21 22  1  0  0  0  0
 22 17  2  0  0  0  0
 24 19  1  0  0  0  0
 25 26  2  0  0  0  0
 25 21  1  0  0  0  0
 27 25  1  0  0  0  0
 28 27  1  0  0  0  0
 29 28  1  0  0  0  0
 29 27  1  0  0  0  0
M  END
>  <minimizedAffinity>
-5.8323431

>  <minimizedRMSD>
0.207870036

$$$$
