
 OpenBabel03212520403D

 21 23  0  0  1  0  0  0  0  0999 V2000
   42.8320   85.0640   59.8060 C   0  0  1  0  0  0  0  0  0  0  0  0
   43.7970   85.9410   59.0170 C   0  0  0  0  0  0  0  0  0  0  0  0
   43.9400   84.4330   59.0710 C   0  0  1  0  0  0  0  0  0  0  0  0
   41.8040   85.1230   59.3830 H   0  0  0  0  0  0  0  0  0  0  0  0
   43.4800   86.4200   58.0840 H   0  0  0  0  0  0  0  0  0  0  0  0
   44.5930   86.4960   59.5380 H   0  0  0  0  0  0  0  0  0  0  0  0
   43.7220   83.9350   58.1020 H   0  0  0  0  0  0  0  0  0  0  0  0
   42.9730   85.2680   61.2130 O   0  0  0  0  0  0  0  0  0  0  0  0
   40.3960   83.1930   62.6860 C   0  0  0  0  0  0  0  0  0  0  0  0
   40.5650   83.4460   64.0480 C   0  0  0  0  0  0  0  0  0  0  0  0
   41.5910   84.3510   64.4270 C   0  0  0  0  0  0  0  0  0  0  0  0
   42.3170   84.8880   63.4150 N   0  0  0  0  0  0  0  0  0  0  0  0
   42.1420   84.6330   62.1060 C   0  0  0  0  0  0  0  0  0  0  0  0
   41.1810   83.7840   61.7310 N   0  0  0  0  0  0  0  0  0  0  0  0
   39.6370   82.5160   62.3100 H   0  0  0  0  0  0  0  0  0  0  0  0
   39.9390   82.9730   64.7690 H   0  0  0  0  0  0  0  0  0  0  0  0
   41.7580   84.5770   65.4540 H   0  0  0  0  0  0  0  0  0  0  0  0
   44.9860   83.9070   59.8380 O   0  0  0  0  0  0  0  0  0  0  0  0
   44.7950   82.5450   59.9470 C   0  0  0  0  0  3  0  0  0  0  0  0
   44.4420   81.9110   61.2440 C   0  0  0  0  0  2  0  0  0  0  0  0
   45.8500   81.8130   60.7620 C   0  0  0  0  0  2  0  0  0  0  0  0
  1  4  1  6  0  0  0
  1  8  1  0  0  0  0
  2  3  1  0  0  0  0
  2  6  1  0  0  0  0
  2  1  1  0  0  0  0
  3  7  1  6  0  0  0
  3  1  1  0  0  0  0
  3 18  1  0  0  0  0
  5  2  1  0  0  0  0
  8 13  1  0  0  0  0
  9 10  1  0  0  0  0
 10 11  2  0  0  0  0
 10 16  1  0  0  0  0
 11 17  1  0  0  0  0
 12 11  1  0  0  0  0
 13 12  2  0  0  0  0
 14 13  1  0  0  0  0
 14  9  2  0  0  0  0
 15  9  1  0  0  0  0
 18 19  1  0  0  0  0
 19 21  1  0  0  0  0
 19 20  1  0  0  0  0
 21 20  1  0  0  0  0
M  END
>  <minimizedAffinity>
-3.22156048

>  <minimizedRMSD>
2.57046843

$$$$
