
 OpenBabel03212520563D

 29 32  0  0  0  0  0  0  0  0999 V2000
   40.9200   80.0540   61.7280 C   0  0  0  0  0  0  0  0  0  0  0  0
   40.7950   78.8810   62.4500 C   0  0  0  0  0  0  0  0  0  0  0  0
   40.3940   77.7760   61.7960 C   0  0  0  0  0  0  0  0  0  0  0  0
   40.1210   77.8420   60.4380 C   0  0  0  0  0  0  0  0  0  0  0  0
   40.4540   79.6130   60.0280 S   0  0  0  0  0  0  0  0  0  0  0  0
   41.0090   78.8320   63.5170 H   0  0  0  0  0  0  0  0  0  0  0  0
   40.2370   76.7770   62.1790 H   0  0  0  0  0  0  0  0  0  0  0  0
   43.0610   82.8960   62.6090 C   0  0  0  0  0  0  0  0  0  0  0  0
   42.2040   83.7250   63.3600 C   0  0  0  0  0  0  0  0  0  0  0  0
   40.8860   83.3020   63.5610 C   0  0  0  0  0  0  0  0  0  0  0  0
   40.4970   82.1220   63.0270 N   0  0  0  0  0  0  0  0  0  0  0  0
   41.3530   81.3550   62.3110 C   0  0  0  0  0  0  0  0  0  0  0  0
   42.6040   81.7420   62.1130 N   0  0  0  0  0  0  0  0  0  0  0  0
   44.0960   83.1240   62.3940 H   0  0  0  0  0  0  0  0  0  0  0  0
   42.6130   84.6510   63.7440 H   0  0  0  0  0  0  0  0  0  0  0  0
   40.2280   83.9290   64.1320 H   0  0  0  0  0  0  0  0  0  0  0  0
   39.6850   76.9270   59.4160 C   0  0  0  0  0  0  0  0  0  0  0  0
   40.2260   75.6790   59.3740 C   0  0  0  0  0  0  0  0  0  0  0  0
   39.7070   74.8960   58.3270 C   0  0  0  0  0  0  0  0  0  0  0  0
   38.7720   75.3220   57.4520 N   0  0  0  0  0  0  0  0  0  0  0  0
   38.3000   76.5800   57.5820 C   0  0  0  0  0  0  0  0  0  0  0  0
   38.7550   77.3970   58.5710 N   0  0  0  0  0  0  0  0  0  0  0  0
   40.9690   75.2800   60.0360 H   0  0  0  0  0  0  0  0  0  0  0  0
   40.0690   73.8740   58.1970 H   0  0  0  0  0  0  0  0  0  0  0  0
   37.2930   77.0420   56.6410 C   0  0  0  0  0  0  0  0  0  0  0  0
   36.1180   77.1650   57.0610 O   0  0  0  0  0  0  0  0  0  0  0  0
   37.5990   77.3720   55.2110 C   0  0  0  0  0  3  0  0  0  0  0  0
   37.4780   76.2220   54.2820 C   0  0  0  0  0  2  0  0  0  0  0  0
   36.5100   77.3340   54.2140 C   0  0  0  0  0  2  0  0  0  0  0  0
  1 12  1  0  0  0  0
  1  2  2  0  0  0  0
  2  6  1  0  0  0  0
  3  7  1  0  0  0  0
  3  2  1  0  0  0  0
  4  3  2  0  0  0  0
  5  4  1  0  0  0  0
  5  1  1  0  0  0  0
  8  9  1  0  0  0  0
  9 10  2  0  0  0  0
  9 15  1  0  0  0  0
 10 16  1  0  0  0  0
 11 10  1  0  0  0  0
 12 11  2  0  0  0  0
 13 12  1  0  0  0  0
 13  8  2  0  0  0  0
 14  8  1  0  0  0  0
 17  4  1  0  0  0  0
 18 17  1  0  0  0  0
 18 23  1  0  0  0  0
 19 18  2  0  0  0  0
 20 21  2  0  0  0  0
 20 19  1  0  0  0  0
 21 22  1  0  0  0  0
 22 17  2  0  0  0  0
 24 19  1  0  0  0  0
 25 26  2  0  0  0  0
 25 21  1  0  0  0  0
 27 25  1  0  0  0  0
 28 27  1  0  0  0  0
 29 28  1  0  0  0  0
 29 27  1  0  0  0  0
M  END
>  <minimizedAffinity>
-5.81758595

>  <minimizedRMSD>
0.447200209

$$$$
