
 OpenBabel03212520273D

 22 24  0  0  0  0  0  0  0  0999 V2000
   43.3610   85.1900   60.3910 C   0  0  0  0  0  0  0  0  0  0  0  0
   42.0820   84.6930   60.6010 C   0  0  0  0  0  0  0  0  0  0  0  0
   42.3560   83.3500   60.8910 C   0  0  0  0  0  0  0  0  0  0  0  0
   43.6780   83.0990   60.8520 N   0  0  0  0  0  0  0  0  0  0  0  0
   44.2940   84.2450   60.5410 N   0  0  0  0  0  0  0  0  0  0  0  0
   41.1300   85.1890   60.5540 H   0  0  0  0  0  0  0  0  0  0  0  0
   41.6080   82.5930   61.1220 H   0  0  0  0  0  0  0  0  0  0  0  0
   43.8390   88.3440   58.4570 C   0  0  0  0  0  0  0  0  0  0  0  0
   43.5400   87.0050   58.7260 C   0  0  0  0  0  0  0  0  0  0  0  0
   43.6580   86.5680   60.0490 C   0  0  0  0  0  0  0  0  0  0  0  0
   44.0540   87.4520   61.0170 N   0  0  0  0  0  0  0  0  0  0  0  0
   44.3280   88.7430   60.6790 C   0  0  0  0  0  0  0  0  0  0  0  0
   44.2200   89.1740   59.4190 N   0  0  0  0  0  0  0  0  0  0  0  0
   43.7620   88.7340   57.4440 H   0  0  0  0  0  0  0  0  0  0  0  0
   43.2280   86.3390   57.9260 H   0  0  0  0  0  0  0  0  0  0  0  0
   44.6390   89.4230   61.4520 H   0  0  0  0  0  0  0  0  0  0  0  0
   44.3270   81.8210   61.1010 C   0  0  0  0  0  0  0  0  0  0  0  0
   45.3530   81.9110   60.7020 H   0  0  0  0  0  0  0  0  0  0  0  0
   43.7830   80.9840   60.6170 H   0  0  0  0  0  0  0  0  0  0  0  0
   44.4200   81.5910   62.5780 C   0  0  0  0  0  3  0  0  0  0  0  0
   45.7470   81.0800   63.0740 C   0  0  0  0  0  2  0  0  0  0  0  0
   45.3030   82.4800   63.3820 C   0  0  0  0  0  2  0  0  0  0  0  0
  1  5  2  0  0  0  0
  1  2  1  0  0  0  0
  2  3  2  0  0  0  0
  3  7  1  0  0  0  0
  4  3  1  0  0  0  0
  4 17  1  0  0  0  0
  5  4  1  0  0  0  0
  6  2  1  0  0  0  0
  8  9  2  0  0  0  0
  8 13  1  0  0  0  0
  9 10  1  0  0  0  0
 10  1  1  0  0  0  0
 10 11  2  0  0  0  0
 12 11  1  0  0  0  0
 12 16  1  0  0  0  0
 13 12  2  0  0  0  0
 14  8  1  0  0  0  0
 15  9  1  0  0  0  0
 17 20  1  0  0  0  0
 18 17  1  0  0  0  0
 19 17  1  0  0  0  0
 20 21  1  0  0  0  0
 20 22  1  0  0  0  0
 21 22  1  0  0  0  0
M  END
>  <minimizedAffinity>
-3.58716178

>  <minimizedRMSD>
6.03892088

$$$$
