
 OpenBabel03212520353D

 30 33  0  0  0  0  0  0  0  0999 V2000
   40.5370   81.2160   56.9600 C   0  0  0  0  0  0  0  0  0  0  0  0
   41.7200   81.5580   56.2630 C   0  0  0  0  0  0  0  0  0  0  0  0
   41.9300   81.2630   54.9430 C   0  0  0  0  0  0  0  0  0  0  0  0
   40.9460   80.5960   54.2270 C   0  0  0  0  0  0  0  0  0  0  0  0
   39.7830   80.2560   54.8930 C   0  0  0  0  0  0  0  0  0  0  0  0
   38.7340   79.6050   54.2840 C   0  0  0  0  0  0  0  0  0  0  0  0
   37.5730   79.2810   54.9810 C   0  0  0  0  0  0  0  0  0  0  0  0
   37.4130   79.5920   56.3150 C   0  0  0  0  0  0  0  0  0  0  0  0
   38.4680   80.2470   56.9320 C   0  0  0  0  0  0  0  0  0  0  0  0
   39.5840   80.5540   56.2250 C   0  0  0  0  0  0  0  0  0  0  0  0
   42.5780   82.0810   56.6550 H   0  0  0  0  0  0  0  0  0  0  0  0
   42.8020   81.4960   54.3660 H   0  0  0  0  0  0  0  0  0  0  0  0
   41.0370   80.3310   53.1840 H   0  0  0  0  0  0  0  0  0  0  0  0
   38.8600   79.3540   53.2210 H   0  0  0  0  0  0  0  0  0  0  0  0
   36.8290   78.7670   54.3610 H   0  0  0  0  0  0  0  0  0  0  0  0
   36.4790   79.2960   56.7580 H   0  0  0  0  0  0  0  0  0  0  0  0
   38.2310   80.3660   57.9620 H   0  0  0  0  0  0  0  0  0  0  0  0
   40.1740   82.9480   58.8250 C   0  0  0  0  0  0  0  0  0  0  0  0
   40.5070   81.6850   58.3320 C   0  0  0  0  0  0  0  0  0  0  0  0
   40.9190   80.6450   59.2500 C   0  0  0  0  0  0  0  0  0  0  0  0
   40.9590   80.9550   60.5790 N   0  0  0  0  0  0  0  0  0  0  0  0
   40.6150   82.2270   61.0130 C   0  0  0  0  0  0  0  0  0  0  0  0
   40.2320   83.1920   60.1420 N   0  0  0  0  0  0  0  0  0  0  0  0
   39.9340   83.7630   58.2040 H   0  0  0  0  0  0  0  0  0  0  0  0
   41.2000   79.6320   59.0860 H   0  0  0  0  0  0  0  0  0  0  0  0
   40.6600   82.5820   62.4330 C   0  0  0  0  0  0  0  0  0  0  0  0
   40.6800   81.7330   63.3460 O   0  0  0  0  0  0  0  0  0  0  0  0
   40.6830   84.0010   62.8670 C   0  0  0  0  0  3  0  0  0  0  0  0
   40.6980   84.2960   64.3730 C   0  0  0  0  0  2  0  0  0  0  0  0
   41.9160   84.5410   63.5360 C   0  0  0  0  0  2  0  0  0  0  0  0
  1 19  1  0  0  0  0
  2 11  1  0  0  0  0
  2  1  1  0  0  0  0
  3  2  2  0  0  0  0
  4  5  2  0  0  0  0
  4  3  1  0  0  0  0
  5 10  1  0  0  0  0
  6  5  1  0  0  0  0
  6  7  2  0  0  0  0
  7  8  1  0  0  0  0
  8 16  1  0  0  0  0
  8  9  2  0  0  0  0
  9 17  1  0  0  0  0
 10  9  1  0  0  0  0
 10  1  2  0  0  0  0
 12  3  1  0  0  0  0
 13  4  1  0  0  0  0
 14  6  1  0  0  0  0
 15  7  1  0  0  0  0
 18 23  1  0  0  0  0
 19 18  2  0  0  0  0
 19 20  1  0  0  0  0
 20 21  2  0  0  0  0
 21 22  1  0  0  0  0
 22 26  1  0  0  0  0
 23 22  2  0  0  0  0
 24 18  1  0  0  0  0
 25 20  1  0  0  0  0
 26 28  1  0  0  0  0
 26 27  2  0  0  0  0
 28 30  1  0  0  0  0
 28 29  1  0  0  0  0
 30 29  1  0  0  0  0
M  END
>  <minimizedAffinity>
-5.42477608

>  <minimizedRMSD>
2.62944627

$$$$
