
 OpenBabel03212520403D

 21 23  0  0  1  0  0  0  0  0999 V2000
   42.5450   85.5860   59.9160 C   0  0  1  0  0  0  0  0  0  0  0  0
   43.8190   86.2550   59.4140 C   0  0  0  0  0  0  0  0  0  0  0  0
   42.9110   85.4620   58.4970 C   0  0  1  0  0  0  0  0  0  0  0  0
   41.8110   86.3450   60.2700 H   0  0  0  0  0  0  0  0  0  0  0  0
   43.8740   87.3440   59.3100 H   0  0  0  0  0  0  0  0  0  0  0  0
   44.8000   85.7900   59.6030 H   0  0  0  0  0  0  0  0  0  0  0  0
   42.3800   86.0910   57.7510 H   0  0  0  0  0  0  0  0  0  0  0  0
   42.8370   84.5000   60.7960 O   0  0  0  0  0  0  0  0  0  0  0  0
   40.0620   83.5200   62.9080 C   0  0  0  0  0  0  0  0  0  0  0  0
   40.5710   83.7640   64.1840 C   0  0  0  0  0  0  0  0  0  0  0  0
   41.8920   84.2730   64.2800 C   0  0  0  0  0  0  0  0  0  0  0  0
   42.5400   84.4760   63.1060 N   0  0  0  0  0  0  0  0  0  0  0  0
   42.0370   84.2360   61.8830 C   0  0  0  0  0  0  0  0  0  0  0  0
   40.7940   83.7560   61.7730 N   0  0  0  0  0  0  0  0  0  0  0  0
   39.0630   83.1310   62.7440 H   0  0  0  0  0  0  0  0  0  0  0  0
   39.9790   83.5710   65.0490 H   0  0  0  0  0  0  0  0  0  0  0  0
   42.3240   84.4750   65.2320 H   0  0  0  0  0  0  0  0  0  0  0  0
   43.3570   84.2060   58.0690 O   0  0  0  0  0  0  0  0  0  0  0  0
   43.5300   84.2550   56.7010 C   0  0  0  0  0  3  0  0  0  0  0  0
   42.3810   84.1290   55.7680 C   0  0  0  0  0  2  0  0  0  0  0  0
   43.2680   82.9460   55.9720 C   0  0  0  0  0  2  0  0  0  0  0  0
  1  4  1  1  0  0  0
  1  8  1  0  0  0  0
  2  6  1  0  0  0  0
  2  1  1  0  0  0  0
  3  7  1  6  0  0  0
  3  2  1  0  0  0  0
  3  1  1  0  0  0  0
  5  2  1  0  0  0  0
  8 13  1  0  0  0  0
  9 10  1  0  0  0  0
 10 11  2  0  0  0  0
 10 16  1  0  0  0  0
 11 17  1  0  0  0  0
 12 11  1  0  0  0  0
 13 12  2  0  0  0  0
 14 13  1  0  0  0  0
 14  9  2  0  0  0  0
 15  9  1  0  0  0  0
 18  3  1  0  0  0  0
 19 18  1  0  0  0  0
 20 21  1  0  0  0  0
 20 19  1  0  0  0  0
 21 19  1  0  0  0  0
M  END
>  <minimizedAffinity>
-3.39504242

>  <minimizedRMSD>
0.493262023

$$$$
