
 OpenBabel03212520273D

 22 24  0  0  0  0  0  0  0  0999 V2000
   42.5420   84.7380   61.2500 C   0  0  0  0  0  0  0  0  0  0  0  0
   43.3440   85.2670   62.2520 C   0  0  0  0  0  0  0  0  0  0  0  0
   44.2140   86.0740   61.5060 C   0  0  0  0  0  0  0  0  0  0  0  0
   43.9330   86.0130   60.1910 N   0  0  0  0  0  0  0  0  0  0  0  0
   42.8960   85.1820   60.0400 N   0  0  0  0  0  0  0  0  0  0  0  0
   43.3200   85.1100   63.3140 H   0  0  0  0  0  0  0  0  0  0  0  0
   45.0190   86.6790   61.9210 H   0  0  0  0  0  0  0  0  0  0  0  0
   40.5950   81.5950   61.7430 C   0  0  0  0  0  0  0  0  0  0  0  0
   41.6880   82.4360   61.5170 C   0  0  0  0  0  0  0  0  0  0  0  0
   41.4480   83.8130   61.4810 C   0  0  0  0  0  0  0  0  0  0  0  0
   40.1740   84.2800   61.6660 N   0  0  0  0  0  0  0  0  0  0  0  0
   39.1580   83.3970   61.8830 C   0  0  0  0  0  0  0  0  0  0  0  0
   39.3730   82.0790   61.9190 N   0  0  0  0  0  0  0  0  0  0  0  0
   40.7290   80.5150   61.7810 H   0  0  0  0  0  0  0  0  0  0  0  0
   42.6830   82.0220   61.3760 H   0  0  0  0  0  0  0  0  0  0  0  0
   38.1640   83.7810   62.0260 H   0  0  0  0  0  0  0  0  0  0  0  0
   44.6260   86.7160   59.1220 C   0  0  0  0  0  0  0  0  0  0  0  0
   44.6430   86.0280   58.2580 H   0  0  0  0  0  0  0  0  0  0  0  0
   45.6540   87.0070   59.4200 H   0  0  0  0  0  0  0  0  0  0  0  0
   43.8380   87.9300   58.7350 C   0  0  0  0  0  3  0  0  0  0  0  0
   44.2300   89.2070   59.4270 C   0  0  0  0  0  2  0  0  0  0  0  0
   44.5200   89.0080   57.9680 C   0  0  0  0  0  2  0  0  0  0  0  0
  1 10  1  0  0  0  0
  1  2  1  0  0  0  0
  2  6  1  0  0  0  0
  3  7  1  0  0  0  0
  3  2  2  0  0  0  0
  4  3  1  0  0  0  0
  5  4  1  0  0  0  0
  5  1  2  0  0  0  0
  8 14  1  0  0  0  0
  8 13  1  0  0  0  0
  9  8  2  0  0  0  0
 10  9  1  0  0  0  0
 10 11  2  0  0  0  0
 11 12  1  0  0  0  0
 12 13  2  0  0  0  0
 12 16  1  0  0  0  0
 15  9  1  0  0  0  0
 17 19  1  0  0  0  0
 17  4  1  0  0  0  0
 18 17  1  0  0  0  0
 20 17  1  0  0  0  0
 20 21  1  0  0  0  0
 22 20  1  0  0  0  0
 22 21  1  0  0  0  0
M  END
>  <minimizedAffinity>
-4.13236284

>  <minimizedRMSD>
0.456991464

$$$$
