
 OpenBabel03212520403D

 21 23  0  0  1  0  0  0  0  0999 V2000
   41.7590   85.2530   59.5070 C   0  0  1  0  0  0  0  0  0  0  0  0
   42.6330   85.4020   58.2670 C   0  0  0  0  0  0  0  0  0  0  0  0
   41.3960   84.5260   58.2810 C   0  0  1  0  0  0  0  0  0  0  0  0
   41.2850   86.2240   59.7770 H   0  0  0  0  0  0  0  0  0  0  0  0
   42.6280   86.3330   57.6890 H   0  0  0  0  0  0  0  0  0  0  0  0
   43.5830   84.8510   58.1910 H   0  0  0  0  0  0  0  0  0  0  0  0
   40.5700   84.9200   57.6510 H   0  0  0  0  0  0  0  0  0  0  0  0
   42.4420   84.5480   60.5450 O   0  0  0  0  0  0  0  0  0  0  0  0
   40.0270   83.6170   63.0780 C   0  0  0  0  0  0  0  0  0  0  0  0
   40.7500   83.8170   64.2540 C   0  0  0  0  0  0  0  0  0  0  0  0
   42.0870   84.2810   64.1340 C   0  0  0  0  0  0  0  0  0  0  0  0
   42.5360   84.4870   62.8710 N   0  0  0  0  0  0  0  0  0  0  0  0
   41.8260   84.2880   61.7470 C   0  0  0  0  0  0  0  0  0  0  0  0
   40.5660   83.8520   61.8400 N   0  0  0  0  0  0  0  0  0  0  0  0
   39.0010   83.2640   63.0790 H   0  0  0  0  0  0  0  0  0  0  0  0
   40.3050   83.6260   65.2040 H   0  0  0  0  0  0  0  0  0  0  0  0
   42.6790   84.4490   65.0030 H   0  0  0  0  0  0  0  0  0  0  0  0
   41.5830   83.1390   58.2930 O   0  0  0  0  0  0  0  0  0  0  0  0
   40.3530   82.5420   58.4760 C   0  0  0  0  0  3  0  0  0  0  0  0
   40.1990   81.3140   59.2980 C   0  0  0  0  0  2  0  0  0  0  0  0
   40.1930   81.1830   57.8120 C   0  0  0  0  0  2  0  0  0  0  0  0
  1  4  1  1  0  0  0
  1  8  1  0  0  0  0
  2  3  1  0  0  0  0
  2  1  1  0  0  0  0
  3  7  1  6  0  0  0
  3 18  1  0  0  0  0
  3  1  1  0  0  0  0
  5  2  1  0  0  0  0
  6  2  1  0  0  0  0
  8 13  1  0  0  0  0
  9 15  1  0  0  0  0
  9 10  1  0  0  0  0
 10 16  1  0  0  0  0
 11 10  2  0  0  0  0
 11 17  1  0  0  0  0
 12 11  1  0  0  0  0
 13 14  1  0  0  0  0
 13 12  2  0  0  0  0
 14  9  2  0  0  0  0
 18 19  1  0  0  0  0
 19 20  1  0  0  0  0
 21 19  1  0  0  0  0
 21 20  1  0  0  0  0
M  END
>  <minimizedAffinity>
-3.85784864

>  <minimizedRMSD>
2.54806805

$$$$
