
 OpenBabel03212520353D

 30 33  0  0  0  0  0  0  0  0999 V2000
   42.2150   82.2150   60.9280 C   0  0  0  0  0  0  0  0  0  0  0  0
   43.6040   81.9490   60.8530 C   0  0  0  0  0  0  0  0  0  0  0  0
   44.4930   82.3050   61.8290 C   0  0  0  0  0  0  0  0  0  0  0  0
   44.0370   82.9610   62.9640 C   0  0  0  0  0  0  0  0  0  0  0  0
   42.6840   83.2280   63.0530 C   0  0  0  0  0  0  0  0  0  0  0  0
   42.1150   83.8620   64.1350 C   0  0  0  0  0  0  0  0  0  0  0  0
   40.7470   84.1110   64.1980 C   0  0  0  0  0  0  0  0  0  0  0  0
   39.8910   83.7400   63.1820 C   0  0  0  0  0  0  0  0  0  0  0  0
   40.4610   83.1030   62.0910 C   0  0  0  0  0  0  0  0  0  0  0  0
   41.7950   82.8680   62.0610 C   0  0  0  0  0  0  0  0  0  0  0  0
   44.1270   81.4440   60.0560 H   0  0  0  0  0  0  0  0  0  0  0  0
   45.5510   82.1300   61.8260 H   0  0  0  0  0  0  0  0  0  0  0  0
   44.6770   83.2710   63.7770 H   0  0  0  0  0  0  0  0  0  0  0  0
   42.7960   84.1600   64.9450 H   0  0  0  0  0  0  0  0  0  0  0  0
   40.4450   84.6200   65.1210 H   0  0  0  0  0  0  0  0  0  0  0  0
   38.8530   83.9810   63.3300 H   0  0  0  0  0  0  0  0  0  0  0  0
   39.6980   82.9330   61.3680 H   0  0  0  0  0  0  0  0  0  0  0  0
   40.7480   80.4910   59.7100 C   0  0  0  0  0  0  0  0  0  0  0  0
   41.4550   81.6900   59.8100 C   0  0  0  0  0  0  0  0  0  0  0  0
   41.5110   82.5830   58.6730 C   0  0  0  0  0  0  0  0  0  0  0  0
   40.8550   82.2030   57.5370 N   0  0  0  0  0  0  0  0  0  0  0  0
   40.1660   81.0000   57.4960 C   0  0  0  0  0  0  0  0  0  0  0  0
   40.1220   80.1720   58.5680 N   0  0  0  0  0  0  0  0  0  0  0  0
   40.7280   79.7690   60.4770 H   0  0  0  0  0  0  0  0  0  0  0  0
   41.9770   83.5310   58.5440 H   0  0  0  0  0  0  0  0  0  0  0  0
   39.4630   80.5690   56.2850 C   0  0  0  0  0  0  0  0  0  0  0  0
   40.0500   80.2870   55.2230 O   0  0  0  0  0  0  0  0  0  0  0  0
   37.9840   80.4460   56.2620 C   0  0  0  0  0  3  0  0  0  0  0  0
   37.3340   79.7830   55.0400 C   0  0  0  0  0  2  0  0  0  0  0  0
   37.3620   79.0830   56.3630 C   0  0  0  0  0  2  0  0  0  0  0  0
  1 10  1  0  0  0  0
  2  1  2  0  0  0  0
  2  3  1  0  0  0  0
  3  4  2  0  0  0  0
  4  5  1  0  0  0  0
  4 13  1  0  0  0  0
  5  6  1  0  0  0  0
  6  7  2  0  0  0  0
  6 14  1  0  0  0  0
  7 15  1  0  0  0  0
  8 16  1  0  0  0  0
  8  7  1  0  0  0  0
  9  8  2  0  0  0  0
 10  9  1  0  0  0  0
 10  5  2  0  0  0  0
 11  2  1  0  0  0  0
 12  3  1  0  0  0  0
 17  9  1  0  0  0  0
 18 19  1  0  0  0  0
 18 24  1  0  0  0  0
 19  1  1  0  0  0  0
 20 19  2  0  0  0  0
 21 20  1  0  0  0  0
 22 21  2  0  0  0  0
 22 23  1  0  0  0  0
 23 18  2  0  0  0  0
 25 20  1  0  0  0  0
 26 22  1  0  0  0  0
 27 26  2  0  0  0  0
 28 26  1  0  0  0  0
 28 30  1  0  0  0  0
 29 28  1  0  0  0  0
 29 30  1  0  0  0  0
M  END
>  <minimizedAffinity>
-5.41451788

>  <minimizedRMSD>
7.01614475

$$$$
