
 OpenBabel03212520283D

 28 30  0  0  0  0  0  0  0  0999 V2000
   41.5630   85.0190   59.7980 C   0  0  0  0  0  0  0  0  0  0  0  0
   40.9000   85.3810   58.6050 C   0  0  0  0  0  0  0  0  0  0  0  0
   41.9040   86.1080   57.9470 C   0  0  0  0  0  0  0  0  0  0  0  0
   43.0330   86.1580   58.6920 N   0  0  0  0  0  0  0  0  0  0  0  0
   42.7980   85.4830   59.8250 N   0  0  0  0  0  0  0  0  0  0  0  0
   39.9050   85.1800   58.2510 H   0  0  0  0  0  0  0  0  0  0  0  0
   41.7480   86.5570   56.9610 H   0  0  0  0  0  0  0  0  0  0  0  0
   41.0990   82.7560   62.7180 C   0  0  0  0  0  0  0  0  0  0  0  0
   41.7100   83.5000   61.7210 C   0  0  0  0  0  0  0  0  0  0  0  0
   40.9380   84.2390   60.8440 C   0  0  0  0  0  0  0  0  0  0  0  0
   39.5970   84.2210   60.9740 N   0  0  0  0  0  0  0  0  0  0  0  0
   39.0330   83.4700   61.9770 C   0  0  0  0  0  0  0  0  0  0  0  0
   39.7810   82.7500   62.8320 N   0  0  0  0  0  0  0  0  0  0  0  0
   41.8080   82.2210   63.3410 H   0  0  0  0  0  0  0  0  0  0  0  0
   42.7830   83.5420   61.5820 H   0  0  0  0  0  0  0  0  0  0  0  0
   37.9610   83.4220   62.1240 H   0  0  0  0  0  0  0  0  0  0  0  0
   44.2580   86.8230   58.3190 C   0  0  0  0  0  0  0  0  0  0  0  0
   44.8920   86.1450   57.7370 H   0  0  0  0  0  0  0  0  0  0  0  0
   44.7750   87.1350   59.2550 H   0  0  0  0  0  0  0  0  0  0  0  0
   44.0280   87.9480   57.5810 O   0  0  0  0  0  0  0  0  0  0  0  0
   45.4320   90.1010   57.9780 O   0  0  0  0  0  0  0  0  0  0  0  0
   44.1650   89.3950   58.4010 P   0  0  2  0  0  0  0  0  0  0  0  0
   44.2740   89.0830   60.0600 O   0  0  0  0  0  0  0  0  0  0  0  0
   45.2100   89.1820   60.3900 H   0  0  0  0  0  0  0  0  0  0  0  0
   42.8280   90.3760   58.1610 O   0  0  0  0  0  0  0  0  0  0  0  0
   43.0460   91.7120   58.4200 C   0  0  0  0  0  0  0  0  0  0  0  0
   42.3170   92.6660   57.4690 C   0  0  0  0  0  0  0  0  0  0  0  0
   41.9650   92.5970   58.9160 C   0  0  0  0  0  0  0  0  0  0  0  0
  1  5  2  0  0  0  0
  1 10  1  0  0  0  0
  2  1  1  0  0  0  0
  3  2  2  0  0  0  0
  3  4  1  0  0  0  0
  4  5  1  0  0  0  0
  6  2  1  0  0  0  0
  7  3  1  0  0  0  0
  8 13  1  0  0  0  0
  8 14  1  0  0  0  0
  9  8  2  0  0  0  0
 10 11  2  0  0  0  0
 10  9  1  0  0  0  0
 11 12  1  0  0  0  0
 12 16  1  0  0  0  0
 12 13  2  0  0  0  0
 15  9  1  0  0  0  0
 17  4  1  0  0  0  0
 17 19  1  0  0  0  0
 18 17  1  0  0  0  0
 20 17  1  0  0  0  0
 20 22  1  0  0  0  0
 22 21  2  6  0  0  0
 22 23  1  0  0  0  0
 23 24  1  0  0  0  0
 25 22  1  0  0  0  0
 25 26  1  0  0  0  0
 26 28  1  0  0  0  0
 27 26  1  0  0  0  0
 27 28  1  0  0  0  0
M  END
>  <minimizedAffinity>
-4.66870022

>  <minimizedRMSD>
2.02080679

$$$$
