
 OpenBabel03212520283D

 28 30  0  0  0  0  0  0  0  0999 V2000
   39.6870   73.7930   59.8620 C   0  0  0  0  0  0  0  0  0  0  0  0
   39.3150   73.6950   61.2200 C   0  0  0  0  0  0  0  0  0  0  0  0
   40.3080   72.8340   61.7120 C   0  0  0  0  0  0  0  0  0  0  0  0
   41.1660   72.4740   60.7300 N   0  0  0  0  0  0  0  0  0  0  0  0
   40.7640   73.0750   59.6030 N   0  0  0  0  0  0  0  0  0  0  0  0
   38.5050   74.1370   61.7730 H   0  0  0  0  0  0  0  0  0  0  0  0
   40.3420   72.5230   62.7610 H   0  0  0  0  0  0  0  0  0  0  0  0
   38.5280   76.6860   57.8260 C   0  0  0  0  0  0  0  0  0  0  0  0
   39.2340   75.9350   58.7520 C   0  0  0  0  0  0  0  0  0  0  0  0
   38.9580   74.5880   58.8980 C   0  0  0  0  0  0  0  0  0  0  0  0
   38.0010   74.0270   58.1330 N   0  0  0  0  0  0  0  0  0  0  0  0
   37.3270   74.8090   57.2270 C   0  0  0  0  0  0  0  0  0  0  0  0
   37.5920   76.1190   57.0820 N   0  0  0  0  0  0  0  0  0  0  0  0
   38.8340   77.7270   57.8030 H   0  0  0  0  0  0  0  0  0  0  0  0
   40.0100   76.3470   59.3860 H   0  0  0  0  0  0  0  0  0  0  0  0
   36.5490   74.4060   56.5890 H   0  0  0  0  0  0  0  0  0  0  0  0
   42.3040   71.5990   60.8860 C   0  0  0  0  0  0  0  0  0  0  0  0
   42.7310   71.7130   61.8880 H   0  0  0  0  0  0  0  0  0  0  0  0
   43.0520   71.8720   60.1080 H   0  0  0  0  0  0  0  0  0  0  0  0
   41.9740   70.2890   60.6980 O   0  0  0  0  0  0  0  0  0  0  0  0
   41.5710   69.9160   63.2400 O   0  0  0  0  0  0  0  0  0  0  0  0
   42.1920   69.2880   62.0150 P   0  0  2  0  0  0  0  0  0  0  0  0
   43.8480   69.1090   62.3060 O   0  0  0  0  0  0  0  0  0  0  0  0
   44.1440   69.6570   63.0850 H   0  0  0  0  0  0  0  0  0  0  0  0
   41.5610   67.7580   61.7470 O   0  0  0  0  0  0  0  0  0  0  0  0
   40.9310   67.2010   62.8380 C   0  0  0  0  0  3  0  0  0  0  0  0
   39.7510   66.2910   62.4870 C   0  0  0  0  0  2  0  0  0  0  0  0
   40.9890   65.7450   63.1120 C   0  0  0  0  0  2  0  0  0  0  0  0
  1  2  1  0  0  0  0
  2  3  2  0  0  0  0
  2  6  1  0  0  0  0
  3  7  1  0  0  0  0
  4 17  1  0  0  0  0
  4  3  1  0  0  0  0
  5  1  2  0  0  0  0
  5  4  1  0  0  0  0
  8  9  1  0  0  0  0
  9 10  2  0  0  0  0
  9 15  1  0  0  0  0
 10  1  1  0  0  0  0
 11 10  1  0  0  0  0
 12 11  2  0  0  0  0
 13 12  1  0  0  0  0
 13  8  2  0  0  0  0
 14  8  1  0  0  0  0
 16 12  1  0  0  0  0
 17 18  1  0  0  0  0
 19 17  1  0  0  0  0
 20 17  1  0  0  0  0
 20 22  1  0  0  0  0
 22 23  1  0  0  0  0
 22 21  2  1  0  0  0
 23 24  1  0  0  0  0
 25 22  1  0  0  0  0
 25 26  1  0  0  0  0
 26 28  1  0  0  0  0
 27 26  1  0  0  0  0
 27 28  1  0  0  0  0
M  END
>  <minimizedAffinity>
-5.07609224

$$$$

 OpenBabel03212520283D

 28 30  0  0  0  0  0  0  0  0999 V2000
   42.1190   69.5550   61.8390 C   0  0  0  0  0  0  0  0  0  0  0  0
   43.1560   70.0980   61.0500 C   0  0  0  0  0  0  0  0  0  0  0  0
   42.8410   71.4650   61.0930 C   0  0  0  0  0  0  0  0  0  0  0  0
   41.7300   71.6830   61.8340 N   0  0  0  0  0  0  0  0  0  0  0  0
   41.3050   70.4940   62.2810 N   0  0  0  0  0  0  0  0  0  0  0  0
   43.9820   69.6380   60.5380 H   0  0  0  0  0  0  0  0  0  0  0  0
   43.4440   72.2190   60.5780 H   0  0  0  0  0  0  0  0  0  0  0  0
   42.5640   65.8650   61.6230 C   0  0  0  0  0  0  0  0  0  0  0  0
   42.6960   67.2180   61.3560 C   0  0  0  0  0  0  0  0  0  0  0  0
   41.9920   68.1390   62.1080 C   0  0  0  0  0  0  0  0  0  0  0  0
   41.1840   67.7020   63.0940 N   0  0  0  0  0  0  0  0  0  0  0  0
   41.0840   66.3520   63.3260 C   0  0  0  0  0  0  0  0  0  0  0  0
   41.7670   65.4530   62.5960 N   0  0  0  0  0  0  0  0  0  0  0  0
   43.1650   65.2430   60.9680 H   0  0  0  0  0  0  0  0  0  0  0  0
   43.3330   67.6110   60.5730 H   0  0  0  0  0  0  0  0  0  0  0  0
   40.4500   65.9490   64.1060 H   0  0  0  0  0  0  0  0  0  0  0  0
   41.1260   72.9690   62.0870 C   0  0  0  0  0  0  0  0  0  0  0  0
   41.7100   73.7600   61.6040 H   0  0  0  0  0  0  0  0  0  0  0  0
   41.0980   73.1210   63.1900 H   0  0  0  0  0  0  0  0  0  0  0  0
   39.8420   73.0320   61.6290 O   0  0  0  0  0  0  0  0  0  0  0  0
   40.7240   75.0700   60.2740 O   0  0  0  0  0  0  0  0  0  0  0  0
   39.4580   74.3830   60.7270 P   0  0  2  0  0  0  0  0  0  0  0  0
   38.5960   75.4690   61.6950 O   0  0  0  0  0  0  0  0  0  0  0  0
   39.1680   76.2300   61.9900 H   0  0  0  0  0  0  0  0  0  0  0  0
   38.4870   74.0000   59.4150 O   0  0  0  0  0  0  0  0  0  0  0  0
   38.8190   74.6540   58.2490 C   0  0  0  0  0  3  0  0  0  0  0  0
   37.6370   74.9060   57.3090 C   0  0  0  0  0  2  0  0  0  0  0  0
   38.3540   76.0330   57.9690 C   0  0  0  0  0  2  0  0  0  0  0  0
  1 10  1  0  0  0  0
  1  5  2  0  0  0  0
  2  3  2  0  0  0  0
  2  1  1  0  0  0  0
  3  4  1  0  0  0  0
  4 17  1  0  0  0  0
  4  5  1  0  0  0  0
  6  2  1  0  0  0  0
  7  3  1  0  0  0  0
  8 13  1  0  0  0  0
  9  8  2  0  0  0  0
  9 10  1  0  0  0  0
 10 11  2  0  0  0  0
 11 12  1  0  0  0  0
 12 16  1  0  0  0  0
 13 12  2  0  0  0  0
 14  8  1  0  0  0  0
 15  9  1  0  0  0  0
 17 19  1  0  0  0  0
 18 17  1  0  0  0  0
 20 17  1  0  0  0  0
 22 21  2  6  0  0  0
 22 20  1  0  0  0  0
 22 23  1  0  0  0  0
 23 24  1  0  0  0  0
 25 22  1  0  0  0  0
 26 25  1  0  0  0  0
 27 28  1  0  0  0  0
 27 26  1  0  0  0  0
 28 26  1  0  0  0  0
M  END
>  <minimizedAffinity>
-5.00887489

$$$$

 OpenBabel03212520283D

 28 30  0  0  0  0  0  0  0  0999 V2000
   39.0930   74.9600   59.0940 C   0  0  0  0  0  0  0  0  0  0  0  0
   39.0290   75.4920   60.4000 C   0  0  0  0  0  0  0  0  0  0  0  0
   39.9450   74.6700   61.0730 C   0  0  0  0  0  0  0  0  0  0  0  0
   40.4810   73.7530   60.2340 N   0  0  0  0  0  0  0  0  0  0  0  0
   39.9420   73.9520   59.0240 N   0  0  0  0  0  0  0  0  0  0  0  0
   38.4560   76.3020   60.8150 H   0  0  0  0  0  0  0  0  0  0  0  0
   40.1640   74.7910   62.1390 H   0  0  0  0  0  0  0  0  0  0  0  0
   37.7740   77.2390   56.4620 C   0  0  0  0  0  0  0  0  0  0  0  0
   38.5310   76.7560   57.5180 C   0  0  0  0  0  0  0  0  0  0  0  0
   38.3110   75.4760   57.9920 C   0  0  0  0  0  0  0  0  0  0  0  0
   37.3600   74.7160   57.4150 N   0  0  0  0  0  0  0  0  0  0  0  0
   36.6340   75.2340   56.3700 C   0  0  0  0  0  0  0  0  0  0  0  0
   36.8440   76.4790   55.9070 N   0  0  0  0  0  0  0  0  0  0  0  0
   38.0390   78.2520   56.1810 H   0  0  0  0  0  0  0  0  0  0  0  0
   39.3050   77.3330   58.0100 H   0  0  0  0  0  0  0  0  0  0  0  0
   35.8580   74.6650   55.8720 H   0  0  0  0  0  0  0  0  0  0  0  0
   41.4560   72.7520   60.5930 C   0  0  0  0  0  0  0  0  0  0  0  0
   41.6150   72.0640   59.7550 H   0  0  0  0  0  0  0  0  0  0  0  0
   41.0690   72.2030   61.4810 H   0  0  0  0  0  0  0  0  0  0  0  0
   42.6550   73.3030   60.9400 O   0  0  0  0  0  0  0  0  0  0  0  0
   44.3110   71.8940   59.5130 O   0  0  0  0  0  0  0  0  0  0  0  0
   43.8250   73.3040   59.7510 P   0  0  2  0  0  0  0  0  0  0  0  0
   45.1440   74.2260   60.2720 O   0  0  0  0  0  0  0  0  0  0  0  0
   45.9030   73.6480   60.5620 H   0  0  0  0  0  0  0  0  0  0  0  0
   43.2660   73.9890   58.3270 O   0  0  0  0  0  0  0  0  0  0  0  0
   43.4580   75.3500   58.2330 C   0  0  0  0  0  3  0  0  0  0  0  0
   42.2900   76.1100   57.5990 C   0  0  0  0  0  2  0  0  0  0  0  0
   42.6550   76.3080   59.0300 C   0  0  0  0  0  2  0  0  0  0  0  0
  1  2  1  0  0  0  0
  2  6  1  0  0  0  0
  2  3  2  0  0  0  0
  3  7  1  0  0  0  0
  4 17  1  0  0  0  0
  4  3  1  0  0  0  0
  5  1  2  0  0  0  0
  5  4  1  0  0  0  0
  8  9  1  0  0  0  0
  9 10  2  0  0  0  0
  9 15  1  0  0  0  0
 10  1  1  0  0  0  0
 11 10  1  0  0  0  0
 12 11  2  0  0  0  0
 13 12  1  0  0  0  0
 13  8  2  0  0  0  0
 14  8  1  0  0  0  0
 16 12  1  0  0  0  0
 17 20  1  0  0  0  0
 17 19  1  0  0  0  0
 18 17  1  0  0  0  0
 22 21  2  6  0  0  0
 22 23  1  0  0  0  0
 22 20  1  0  0  0  0
 23 24  1  0  0  0  0
 25 22  1  0  0  0  0
 26 25  1  0  0  0  0
 26 28  1  0  0  0  0
 27 26  1  0  0  0  0
 27 28  1  0  0  0  0
M  END
>  <minimizedAffinity>
-4.96384382

$$$$

 OpenBabel03212520283D

 28 30  0  0  0  0  0  0  0  0999 V2000
   38.6740   75.6660   58.7280 C   0  0  0  0  0  0  0  0  0  0  0  0
   39.3880   76.5810   59.5310 C   0  0  0  0  0  0  0  0  0  0  0  0
   39.7760   75.7590   60.6000 C   0  0  0  0  0  0  0  0  0  0  0  0
   39.3270   74.4940   60.4260 N   0  0  0  0  0  0  0  0  0  0  0  0
   38.6520   74.4620   59.2700 N   0  0  0  0  0  0  0  0  0  0  0  0
   39.6030   77.6270   59.4050 H   0  0  0  0  0  0  0  0  0  0  0  0
   40.3650   76.1360   61.4420 H   0  0  0  0  0  0  0  0  0  0  0  0
   37.7000   77.6060   55.7040 C   0  0  0  0  0  0  0  0  0  0  0  0
   38.3030   77.2670   56.9050 C   0  0  0  0  0  0  0  0  0  0  0  0
   38.0520   76.0320   57.4750 C   0  0  0  0  0  0  0  0  0  0  0  0
   37.2220   75.1760   56.8480 N   0  0  0  0  0  0  0  0  0  0  0  0
   36.6470   75.5530   55.6590 C   0  0  0  0  0  0  0  0  0  0  0  0
   36.8880   76.7530   55.1020 N   0  0  0  0  0  0  0  0  0  0  0  0
   37.9740   78.5980   55.3590 H   0  0  0  0  0  0  0  0  0  0  0  0
   38.9760   77.9250   57.4410 H   0  0  0  0  0  0  0  0  0  0  0  0
   35.9730   74.9030   55.1150 H   0  0  0  0  0  0  0  0  0  0  0  0
   39.5450   73.3920   61.3320 C   0  0  0  0  0  0  0  0  0  0  0  0
   39.2830   72.4460   60.8440 H   0  0  0  0  0  0  0  0  0  0  0  0
   38.9070   73.5580   62.2300 H   0  0  0  0  0  0  0  0  0  0  0  0
   40.8400   73.3220   61.7540 O   0  0  0  0  0  0  0  0  0  0  0  0
   42.7150   73.6040   59.9730 O   0  0  0  0  0  0  0  0  0  0  0  0
   41.9040   72.5670   60.7130 P   0  0  2  0  0  0  0  0  0  0  0  0
   41.0260   71.6820   59.5710 O   0  0  0  0  0  0  0  0  0  0  0  0
   41.0020   72.1450   58.6880 H   0  0  0  0  0  0  0  0  0  0  0  0
   42.9060   71.4920   61.5190 O   0  0  0  0  0  0  0  0  0  0  0  0
   42.2790   70.3450   61.9580 C   0  0  0  0  0  3  0  0  0  0  0  0
   43.0680   69.5580   63.0080 C   0  0  0  0  0  2  0  0  0  0  0  0
   41.7740   70.2160   63.3450 C   0  0  0  0  0  2  0  0  0  0  0  0
  1  5  2  0  0  0  0
  1  2  1  0  0  0  0
  2  3  2  0  0  0  0
  3  7  1  0  0  0  0
  4  3  1  0  0  0  0
  4 17  1  0  0  0  0
  5  4  1  0  0  0  0
  6  2  1  0  0  0  0
  8  9  1  0  0  0  0
  9 15  1  0  0  0  0
  9 10  2  0  0  0  0
 10  1  1  0  0  0  0
 11 10  1  0  0  0  0
 12 11  2  0  0  0  0
 13 12  1  0  0  0  0
 13  8  2  0  0  0  0
 14  8  1  0  0  0  0
 16 12  1  0  0  0  0
 17 20  1  0  0  0  0
 17 19  1  0  0  0  0
 18 17  1  0  0  0  0
 22 21  2  6  0  0  0
 22 25  1  0  0  0  0
 22 20  1  0  0  0  0
 23 22  1  0  0  0  0
 24 23  1  0  0  0  0
 25 26  1  0  0  0  0
 26 27  1  0  0  0  0
 26 28  1  0  0  0  0
 27 28  1  0  0  0  0
M  END
>  <minimizedAffinity>
-4.94666815

$$$$

 OpenBabel03212520283D

 28 30  0  0  0  0  0  0  0  0999 V2000
   42.0170   69.3660   62.3320 C   0  0  0  0  0  0  0  0  0  0  0  0
   41.6650   70.3100   63.3210 C   0  0  0  0  0  0  0  0  0  0  0  0
   42.0810   71.5060   62.7150 C   0  0  0  0  0  0  0  0  0  0  0  0
   42.6210   71.2690   61.4970 N   0  0  0  0  0  0  0  0  0  0  0  0
   42.5710   69.9480   61.2840 N   0  0  0  0  0  0  0  0  0  0  0  0
   41.2040   70.1970   64.2860 H   0  0  0  0  0  0  0  0  0  0  0  0
   41.9640   72.4780   63.2030 H   0  0  0  0  0  0  0  0  0  0  0  0
   40.4650   66.1190   63.2830 C   0  0  0  0  0  0  0  0  0  0  0  0
   40.6710   67.4830   63.1480 C   0  0  0  0  0  0  0  0  0  0  0  0
   41.7890   67.9460   62.4790 C   0  0  0  0  0  0  0  0  0  0  0  0
   42.6640   67.0570   61.9690 N   0  0  0  0  0  0  0  0  0  0  0  0
   42.4200   65.7140   62.1250 C   0  0  0  0  0  0  0  0  0  0  0  0
   41.3330   65.2600   62.7750 N   0  0  0  0  0  0  0  0  0  0  0  0
   39.5550   65.8810   63.8250 H   0  0  0  0  0  0  0  0  0  0  0  0
   39.9940   68.2300   63.5430 H   0  0  0  0  0  0  0  0  0  0  0  0
   43.0910   64.9590   61.7340 H   0  0  0  0  0  0  0  0  0  0  0  0
   43.1500   72.2700   60.6020 C   0  0  0  0  0  0  0  0  0  0  0  0
   44.2290   72.1290   60.4750 H   0  0  0  0  0  0  0  0  0  0  0  0
   42.9360   73.2700   61.0450 H   0  0  0  0  0  0  0  0  0  0  0  0
   42.5550   72.2280   59.3750 O   0  0  0  0  0  0  0  0  0  0  0  0
   39.9630   72.2640   59.1660 O   0  0  0  0  0  0  0  0  0  0  0  0
   41.1800   73.1570   59.2010 P   0  0  2  0  0  0  0  0  0  0  0  0
   41.2560   73.9890   57.7310 O   0  0  0  0  0  0  0  0  0  0  0  0
   40.6670   73.5720   57.0430 H   0  0  0  0  0  0  0  0  0  0  0  0
   41.0430   74.3010   60.4180 O   0  0  0  0  0  0  0  0  0  0  0  0
   39.7530   74.7100   60.6760 C   0  0  0  0  0  3  0  0  0  0  0  0
   39.6280   76.1790   61.0890 C   0  0  0  0  0  2  0  0  0  0  0  0
   39.0550   75.6850   59.8040 C   0  0  0  0  0  2  0  0  0  0  0  0
  1 10  1  0  0  0  0
  1  2  1  0  0  0  0
  2  6  1  0  0  0  0
  3  7  1  0  0  0  0
  3  2  2  0  0  0  0
  4  3  1  0  0  0  0
  5  4  1  0  0  0  0
  5  1  2  0  0  0  0
  8 14  1  0  0  0  0
  9  8  1  0  0  0  0
  9 15  1  0  0  0  0
 10  9  2  0  0  0  0
 11 12  2  0  0  0  0
 11 10  1  0  0  0  0
 12 13  1  0  0  0  0
 13  8  2  0  0  0  0
 16 12  1  0  0  0  0
 17 19  1  0  0  0  0
 17  4  1  0  0  0  0
 18 17  1  0  0  0  0
 20 17  1  0  0  0  0
 22 21  2  1  0  0  0
 22 20  1  0  0  0  0
 22 25  1  0  0  0  0
 23 22  1  0  0  0  0
 24 23  1  0  0  0  0
 25 26  1  0  0  0  0
 26 27  1  0  0  0  0
 28 26  1  0  0  0  0
 28 27  1  0  0  0  0
M  END
>  <minimizedAffinity>
-4.89626026

$$$$

 OpenBabel03212520283D

 28 30  0  0  0  0  0  0  0  0999 V2000
   40.3580   73.4120   60.7770 C   0  0  0  0  0  0  0  0  0  0  0  0
   39.0690   73.7370   61.2510 C   0  0  0  0  0  0  0  0  0  0  0  0
   38.7050   74.7640   60.3670 C   0  0  0  0  0  0  0  0  0  0  0  0
   39.6920   75.0050   59.4720 N   0  0  0  0  0  0  0  0  0  0  0  0
   40.6970   74.1620   59.7450 N   0  0  0  0  0  0  0  0  0  0  0  0
   38.4840   73.3390   62.0610 H   0  0  0  0  0  0  0  0  0  0  0  0
   37.7390   75.2750   60.4320 H   0  0  0  0  0  0  0  0  0  0  0  0
   43.0290   70.8620   61.2490 C   0  0  0  0  0  0  0  0  0  0  0  0
   42.2480   71.8500   60.6690 C   0  0  0  0  0  0  0  0  0  0  0  0
   41.1820   72.3820   61.3700 C   0  0  0  0  0  0  0  0  0  0  0  0
   40.9190   71.9280   62.6110 N   0  0  0  0  0  0  0  0  0  0  0  0
   41.7200   70.9480   63.1470 C   0  0  0  0  0  0  0  0  0  0  0  0
   42.7570   70.4280   62.4680 N   0  0  0  0  0  0  0  0  0  0  0  0
   43.8330   70.5260   60.6030 H   0  0  0  0  0  0  0  0  0  0  0  0
   42.4250   72.2420   59.6750 H   0  0  0  0  0  0  0  0  0  0  0  0
   41.5520   70.5490   64.1400 H   0  0  0  0  0  0  0  0  0  0  0  0
   39.6520   75.9930   58.4210 C   0  0  0  0  0  0  0  0  0  0  0  0
   40.1080   75.5920   57.5090 H   0  0  0  0  0  0  0  0  0  0  0  0
   40.2110   76.8900   58.7760 H   0  0  0  0  0  0  0  0  0  0  0  0
   38.3780   76.3880   58.1360 O   0  0  0  0  0  0  0  0  0  0  0  0
   36.6570   76.5720   56.1940 O   0  0  0  0  0  0  0  0  0  0  0  0
   37.6600   75.6380   56.8300 P   0  0  2  0  0  0  0  0  0  0  0  0
   36.8270   74.2690   57.3670 O   0  0  0  0  0  0  0  0  0  0  0  0
   35.8430   74.4280   57.4000 H   0  0  0  0  0  0  0  0  0  0  0  0
   38.7930   75.1280   55.7050 O   0  0  0  0  0  0  0  0  0  0  0  0
   38.9150   73.7590   55.5970 C   0  0  0  0  0  3  0  0  0  0  0  0
   39.7210   73.2920   54.3820 C   0  0  0  0  0  2  0  0  0  0  0  0
   40.2200   73.0780   55.7700 C   0  0  0  0  0  2  0  0  0  0  0  0
  1  2  1  0  0  0  0
  1 10  1  0  0  0  0
  2  6  1  0  0  0  0
  3  7  1  0  0  0  0
  3  2  2  0  0  0  0
  4  5  1  0  0  0  0
  4  3  1  0  0  0  0
  5  1  2  0  0  0  0
  8 13  1  0  0  0  0
  9  8  2  0  0  0  0
  9 10  1  0  0  0  0
 10 11  2  0  0  0  0
 11 12  1  0  0  0  0
 12 16  1  0  0  0  0
 13 12  2  0  0  0  0
 14  8  1  0  0  0  0
 15  9  1  0  0  0  0
 17 19  1  0  0  0  0
 17  4  1  0  0  0  0
 18 17  1  0  0  0  0
 20 17  1  0  0  0  0
 22 21  2  6  0  0  0
 22 23  1  0  0  0  0
 22 20  1  0  0  0  0
 23 24  1  0  0  0  0
 25 22  1  0  0  0  0
 26 25  1  0  0  0  0
 26 28  1  0  0  0  0
 27 26  1  0  0  0  0
 27 28  1  0  0  0  0
M  END
>  <minimizedAffinity>
-4.87914801

$$$$

 OpenBabel03212520283D

 28 30  0  0  0  0  0  0  0  0999 V2000
   38.8630   75.3130   59.1440 C   0  0  0  0  0  0  0  0  0  0  0  0
   39.4470   76.2390   60.0350 C   0  0  0  0  0  0  0  0  0  0  0  0
   39.9250   75.3840   61.0400 C   0  0  0  0  0  0  0  0  0  0  0  0
   39.6400   74.0920   60.7520 N   0  0  0  0  0  0  0  0  0  0  0  0
   38.9870   74.0750   59.5830 N   0  0  0  0  0  0  0  0  0  0  0  0
   39.5310   77.3100   60.0000 H   0  0  0  0  0  0  0  0  0  0  0  0
   40.4520   75.7580   61.9230 H   0  0  0  0  0  0  0  0  0  0  0  0
   36.7600   75.2110   56.0730 C   0  0  0  0  0  0  0  0  0  0  0  0
   37.3750   74.8240   57.2530 C   0  0  0  0  0  0  0  0  0  0  0  0
   38.2140   75.7050   57.9120 C   0  0  0  0  0  0  0  0  0  0  0  0
   38.4190   76.9300   57.3900 N   0  0  0  0  0  0  0  0  0  0  0  0
   37.7890   77.2720   56.2190 C   0  0  0  0  0  0  0  0  0  0  0  0
   36.9730   76.4180   55.5760 N   0  0  0  0  0  0  0  0  0  0  0  0
   36.1280   74.4360   55.6530 H   0  0  0  0  0  0  0  0  0  0  0  0
   37.2370   73.8500   57.7060 H   0  0  0  0  0  0  0  0  0  0  0  0
   37.9200   78.2440   55.7590 H   0  0  0  0  0  0  0  0  0  0  0  0
   39.9850   72.9530   61.5680 C   0  0  0  0  0  0  0  0  0  0  0  0
   39.8520   72.0270   60.9970 H   0  0  0  0  0  0  0  0  0  0  0  0
   39.3200   72.9600   62.4610 H   0  0  0  0  0  0  0  0  0  0  0  0
   41.2730   73.0110   62.0130 O   0  0  0  0  0  0  0  0  0  0  0  0
   41.5980   71.0430   60.3430 O   0  0  0  0  0  0  0  0  0  0  0  0
   42.3020   71.8400   61.4160 P   0  0  2  0  0  0  0  0  0  0  0  0
   42.7150   70.7780   62.6650 O   0  0  0  0  0  0  0  0  0  0  0  0
   42.2190   69.9160   62.5920 H   0  0  0  0  0  0  0  0  0  0  0  0
   43.7250   72.5020   60.8280 O   0  0  0  0  0  0  0  0  0  0  0  0
   43.6080   73.7980   60.3750 C   0  0  0  0  0  3  0  0  0  0  0  0
   44.4290   74.1030   59.1190 C   0  0  0  0  0  2  0  0  0  0  0  0
   42.9390   74.1170   59.0920 C   0  0  0  0  0  2  0  0  0  0  0  0
  1  5  2  0  0  0  0
  1  2  1  0  0  0  0
  2  3  2  0  0  0  0
  3  7  1  0  0  0  0
  4  3  1  0  0  0  0
  4 17  1  0  0  0  0
  5  4  1  0  0  0  0
  6  2  1  0  0  0  0
  8  9  1  0  0  0  0
  9 15  1  0  0  0  0
  9 10  2  0  0  0  0
 10  1  1  0  0  0  0
 11 10  1  0  0  0  0
 12 11  2  0  0  0  0
 13  8  2  0  0  0  0
 13 12  1  0  0  0  0
 14  8  1  0  0  0  0
 16 12  1  0  0  0  0
 17 20  1  0  0  0  0
 17 19  1  0  0  0  0
 18 17  1  0  0  0  0
 22 21  2  6  0  0  0
 22 20  1  0  0  0  0
 22 23  1  0  0  0  0
 24 23  1  0  0  0  0
 25 22  1  0  0  0  0
 26 25  1  0  0  0  0
 27 26  1  0  0  0  0
 28 27  1  0  0  0  0
 28 26  1  0  0  0  0
M  END
>  <minimizedAffinity>
-4.86893415

$$$$

 OpenBabel03212520283D

 28 30  0  0  0  0  0  0  0  0999 V2000
   41.5220   73.6460   60.6830 C   0  0  0  0  0  0  0  0  0  0  0  0
   42.4250   74.2850   59.8060 C   0  0  0  0  0  0  0  0  0  0  0  0
   41.6700   75.3950   59.4000 C   0  0  0  0  0  0  0  0  0  0  0  0
   40.4500   75.3920   59.9870 N   0  0  0  0  0  0  0  0  0  0  0  0
   40.3830   74.3070   60.7700 N   0  0  0  0  0  0  0  0  0  0  0  0
   43.4250   74.0320   59.5010 H   0  0  0  0  0  0  0  0  0  0  0  0
   42.0580   76.1400   58.6980 H   0  0  0  0  0  0  0  0  0  0  0  0
   43.0550   70.3640   61.5440 C   0  0  0  0  0  0  0  0  0  0  0  0
   42.7650   71.5370   60.8650 C   0  0  0  0  0  0  0  0  0  0  0  0
   41.8350   72.4190   61.3820 C   0  0  0  0  0  0  0  0  0  0  0  0
   41.2220   72.1200   62.5440 N   0  0  0  0  0  0  0  0  0  0  0  0
   41.5400   70.9470   63.1850 C   0  0  0  0  0  0  0  0  0  0  0  0
   42.4440   70.0870   62.6840 N   0  0  0  0  0  0  0  0  0  0  0  0
   43.7990   69.7570   61.0410 H   0  0  0  0  0  0  0  0  0  0  0  0
   43.2350   71.8150   59.9290 H   0  0  0  0  0  0  0  0  0  0  0  0
   41.0760   70.6600   64.1210 H   0  0  0  0  0  0  0  0  0  0  0  0
   39.4200   76.3840   59.7940 C   0  0  0  0  0  0  0  0  0  0  0  0
   39.7870   77.3710   60.0990 H   0  0  0  0  0  0  0  0  0  0  0  0
   38.5410   76.0870   60.4080 H   0  0  0  0  0  0  0  0  0  0  0  0
   39.0110   76.4530   58.4940 O   0  0  0  0  0  0  0  0  0  0  0  0
   37.0190   75.6310   57.0360 O   0  0  0  0  0  0  0  0  0  0  0  0
   38.1280   75.1490   57.9410 P   0  0  2  0  0  0  0  0  0  0  0  0
   37.4180   74.3620   59.2590 O   0  0  0  0  0  0  0  0  0  0  0  0
   36.4460   74.5730   59.3310 H   0  0  0  0  0  0  0  0  0  0  0  0
   39.0960   74.0310   57.1510 O   0  0  0  0  0  0  0  0  0  0  0  0
   38.7660   72.7160   57.3950 C   0  0  0  0  0  3  0  0  0  0  0  0
   39.5620   71.7020   56.5670 C   0  0  0  0  0  2  0  0  0  0  0  0
   39.7140   71.7820   58.0480 C   0  0  0  0  0  2  0  0  0  0  0  0
  1  5  2  0  0  0  0
  1 10  1  0  0  0  0
  2  1  1  0  0  0  0
  3  2  2  0  0  0  0
  3  4  1  0  0  0  0
  4  5  1  0  0  0  0
  6  2  1  0  0  0  0
  7  3  1  0  0  0  0
  8 13  1  0  0  0  0
  9 10  1  0  0  0  0
  9  8  2  0  0  0  0
 10 11  2  0  0  0  0
 11 12  1  0  0  0  0
 12 16  1  0  0  0  0
 13 12  2  0  0  0  0
 14  8  1  0  0  0  0
 15  9  1  0  0  0  0
 17  4  1  0  0  0  0
 17 18  1  0  0  0  0
 17 19  1  0  0  0  0
 20 17  1  0  0  0  0
 22 21  2  6  0  0  0
 22 20  1  0  0  0  0
 22 23  1  0  0  0  0
 23 24  1  0  0  0  0
 25 26  1  0  0  0  0
 25 22  1  0  0  0  0
 26 28  1  0  0  0  0
 27 26  1  0  0  0  0
 27 28  1  0  0  0  0
M  END
>  <minimizedAffinity>
-4.8667326

$$$$

 OpenBabel03212520283D

 28 30  0  0  0  0  0  0  0  0999 V2000
   41.9730   70.4050   61.9000 C   0  0  0  0  0  0  0  0  0  0  0  0
   41.6950   71.3110   62.9470 C   0  0  0  0  0  0  0  0  0  0  0  0
   41.2730   72.4380   62.2250 C   0  0  0  0  0  0  0  0  0  0  0  0
   41.3070   72.2010   60.8930 N   0  0  0  0  0  0  0  0  0  0  0  0
   41.7400   70.9460   60.7190 N   0  0  0  0  0  0  0  0  0  0  0  0
   41.7700   71.2140   64.0150 H   0  0  0  0  0  0  0  0  0  0  0  0
   40.9670   73.3660   62.7190 H   0  0  0  0  0  0  0  0  0  0  0  0
   44.0140   67.5450   63.1290 C   0  0  0  0  0  0  0  0  0  0  0  0
   43.5630   68.8390   62.9200 C   0  0  0  0  0  0  0  0  0  0  0  0
   42.4530   69.0600   62.1260 C   0  0  0  0  0  0  0  0  0  0  0  0
   41.8270   68.0070   61.5660 N   0  0  0  0  0  0  0  0  0  0  0  0
   42.3080   66.7420   61.7990 C   0  0  0  0  0  0  0  0  0  0  0  0
   43.3870   66.5230   62.5710 N   0  0  0  0  0  0  0  0  0  0  0  0
   44.8900   67.5000   63.7680 H   0  0  0  0  0  0  0  0  0  0  0  0
   44.0380   69.7120   63.3520 H   0  0  0  0  0  0  0  0  0  0  0  0
   41.8400   65.8620   61.3730 H   0  0  0  0  0  0  0  0  0  0  0  0
   40.9380   73.1400   59.8610 C   0  0  0  0  0  0  0  0  0  0  0  0
   41.1150   72.7030   58.8730 H   0  0  0  0  0  0  0  0  0  0  0  0
   41.5560   74.0570   59.9990 H   0  0  0  0  0  0  0  0  0  0  0  0
   39.6280   73.5100   59.9480 O   0  0  0  0  0  0  0  0  0  0  0  0
   40.6570   75.8930   60.1240 O   0  0  0  0  0  0  0  0  0  0  0  0
   39.3430   75.1490   60.0830 P   0  0  2  0  0  0  0  0  0  0  0  0
   38.5300   75.4520   61.5350 O   0  0  0  0  0  0  0  0  0  0  0  0
   39.1410   75.8320   62.2240 H   0  0  0  0  0  0  0  0  0  0  0  0
   38.3760   75.7190   58.8380 O   0  0  0  0  0  0  0  0  0  0  0  0
   39.0700   76.2600   57.7780 C   0  0  0  0  0  3  0  0  0  0  0  0
   38.2230   76.4930   56.5230 C   0  0  0  0  0  2  0  0  0  0  0  0
   38.8000   77.6340   57.2900 C   0  0  0  0  0  2  0  0  0  0  0  0
  1 10  1  0  0  0  0
  1  2  1  0  0  0  0
  2  6  1  0  0  0  0
  3  7  1  0  0  0  0
  3  2  2  0  0  0  0
  4  3  1  0  0  0  0
  5  4  1  0  0  0  0
  5  1  2  0  0  0  0
  8 14  1  0  0  0  0
  9  8  1  0  0  0  0
  9 15  1  0  0  0  0
 10  9  2  0  0  0  0
 11 12  2  0  0  0  0
 11 10  1  0  0  0  0
 12 13  1  0  0  0  0
 13  8  2  0  0  0  0
 16 12  1  0  0  0  0
 17 20  1  0  0  0  0
 17 19  1  0  0  0  0
 17  4  1  0  0  0  0
 18 17  1  0  0  0  0
 20 22  1  0  0  0  0
 22 21  2  6  0  0  0
 22 23  1  0  0  0  0
 23 24  1  0  0  0  0
 25 22  1  0  0  0  0
 26 25  1  0  0  0  0
 27 28  1  0  0  0  0
 27 26  1  0  0  0  0
 28 26  1  0  0  0  0
M  END
>  <minimizedAffinity>
-4.79436588

$$$$
