
 OpenBabel03212520353D

 30 33  0  0  0  0  0  0  0  0999 V2000
   40.5070   81.9630   58.8860 C   0  0  0  0  0  0  0  0  0  0  0  0
   40.0940   81.4250   60.1280 C   0  0  0  0  0  0  0  0  0  0  0  0
   40.2930   82.0530   61.3270 C   0  0  0  0  0  0  0  0  0  0  0  0
   40.9300   83.2860   61.3540 C   0  0  0  0  0  0  0  0  0  0  0  0
   41.3410   83.8270   60.1500 C   0  0  0  0  0  0  0  0  0  0  0  0
   41.9710   85.0470   60.0510 C   0  0  0  0  0  0  0  0  0  0  0  0
   42.3660   85.5660   58.8220 C   0  0  0  0  0  0  0  0  0  0  0  0
   42.1510   84.8880   57.6410 C   0  0  0  0  0  0  0  0  0  0  0  0
   41.5170   83.6590   57.7360 C   0  0  0  0  0  0  0  0  0  0  0  0
   41.1380   83.1820   58.9460 C   0  0  0  0  0  0  0  0  0  0  0  0
   39.5800   80.4900   60.2930 H   0  0  0  0  0  0  0  0  0  0  0  0
   40.0030   81.6950   62.2940 H   0  0  0  0  0  0  0  0  0  0  0  0
   41.1220   83.8440   62.2590 H   0  0  0  0  0  0  0  0  0  0  0  0
   42.1460   85.5880   60.9920 H   0  0  0  0  0  0  0  0  0  0  0  0
   42.8530   86.5460   58.9060 H   0  0  0  0  0  0  0  0  0  0  0  0
   42.4960   85.3790   56.7480 H   0  0  0  0  0  0  0  0  0  0  0  0
   41.4740   83.2290   56.7630 H   0  0  0  0  0  0  0  0  0  0  0  0
   40.1790   81.4740   56.3840 C   0  0  0  0  0  0  0  0  0  0  0  0
   40.1340   81.1540   57.7420 C   0  0  0  0  0  0  0  0  0  0  0  0
   39.6320   79.8620   58.1550 C   0  0  0  0  0  0  0  0  0  0  0  0
   39.2210   79.0020   57.1770 N   0  0  0  0  0  0  0  0  0  0  0  0
   39.2900   79.3730   55.8430 C   0  0  0  0  0  0  0  0  0  0  0  0
   39.7620   80.5870   55.4700 N   0  0  0  0  0  0  0  0  0  0  0  0
   40.4680   82.4220   56.0250 H   0  0  0  0  0  0  0  0  0  0  0  0
   39.5240   79.4230   59.1180 H   0  0  0  0  0  0  0  0  0  0  0  0
   38.8470   78.4680   54.7790 C   0  0  0  0  0  0  0  0  0  0  0  0
   39.6380   77.8420   54.0460 O   0  0  0  0  0  0  0  0  0  0  0  0
   37.4030   78.2460   54.5150 C   0  0  0  0  0  3  0  0  0  0  0  0
   36.9680   76.8660   54.0020 C   0  0  0  0  0  2  0  0  0  0  0  0
   36.6370   77.3000   55.3970 C   0  0  0  0  0  2  0  0  0  0  0  0
  1 10  2  0  0  0  0
  1  2  1  0  0  0  0
  2 11  1  0  0  0  0
  2  3  2  0  0  0  0
  3  4  1  0  0  0  0
  3 12  1  0  0  0  0
  4 13  1  0  0  0  0
  5  4  2  0  0  0  0
  6  5  1  0  0  0  0
  6 14  1  0  0  0  0
  7 15  1  0  0  0  0
  7  6  2  0  0  0  0
  8  9  2  0  0  0  0
  8  7  1  0  0  0  0
  9 10  1  0  0  0  0
 10  5  1  0  0  0  0
 16  8  1  0  0  0  0
 17  9  1  0  0  0  0
 18 19  1  0  0  0  0
 19 20  2  0  0  0  0
 19  1  1  0  0  0  0
 20 25  1  0  0  0  0
 21 20  1  0  0  0  0
 22 21  2  0  0  0  0
 23 22  1  0  0  0  0
 23 18  2  0  0  0  0
 24 18  1  0  0  0  0
 26 22  1  0  0  0  0
 27 26  2  0  0  0  0
 28 26  1  0  0  0  0
 28 30  1  0  0  0  0
 29 28  1  0  0  0  0
 29 30  1  0  0  0  0
M  END
>  <minimizedAffinity>
-4.83024693

>  <minimizedRMSD>
7.92143011

$$$$
