
 OpenBabel03212520403D

 21 23  0  0  1  0  0  0  0  0999 V2000
   42.0720   85.3080   59.6870 C   0  0  1  0  0  0  0  0  0  0  0  0
   43.0290   85.4290   58.5060 C   0  0  0  0  0  0  0  0  0  0  0  0
   41.7220   84.6670   58.4090 C   0  0  1  0  0  0  0  0  0  0  0  0
   41.6680   86.3050   59.9740 H   0  0  0  0  0  0  0  0  0  0  0  0
   43.1400   86.3800   57.9730 H   0  0  0  0  0  0  0  0  0  0  0  0
   43.9310   84.8000   58.4580 H   0  0  0  0  0  0  0  0  0  0  0  0
   40.9730   85.1590   57.7520 H   0  0  0  0  0  0  0  0  0  0  0  0
   42.6270   84.5020   60.7270 O   0  0  0  0  0  0  0  0  0  0  0  0
   40.0470   83.6230   63.1130 C   0  0  0  0  0  0  0  0  0  0  0  0
   40.6850   83.8640   64.3300 C   0  0  0  0  0  0  0  0  0  0  0  0
   42.0230   84.3370   64.2900 C   0  0  0  0  0  0  0  0  0  0  0  0
   42.5580   84.5100   63.0550 N   0  0  0  0  0  0  0  0  0  0  0  0
   41.9300   84.2720   61.8900 C   0  0  0  0  0  0  0  0  0  0  0  0
   40.6700   83.8270   61.9090 N   0  0  0  0  0  0  0  0  0  0  0  0
   39.0270   83.2610   63.0530 H   0  0  0  0  0  0  0  0  0  0  0  0
   40.1760   83.6980   65.2510 H   0  0  0  0  0  0  0  0  0  0  0  0
   42.5520   84.5360   65.1920 H   0  0  0  0  0  0  0  0  0  0  0  0
   41.7870   83.2690   58.3670 O   0  0  0  0  0  0  0  0  0  0  0  0
   40.5020   82.7770   58.4650 C   0  0  0  0  0  3  0  0  0  0  0  0
   40.1950   81.5530   59.2500 C   0  0  0  0  0  2  0  0  0  0  0  0
   40.2680   81.4470   57.7640 C   0  0  0  0  0  2  0  0  0  0  0  0
  1  4  1  1  0  0  0
  1  8  1  0  0  0  0
  2  1  1  0  0  0  0
  3  7  1  6  0  0  0
  3  2  1  0  0  0  0
  3  1  1  0  0  0  0
  5  2  1  0  0  0  0
  6  2  1  0  0  0  0
  8 13  1  0  0  0  0
  9 10  1  0  0  0  0
 10 16  1  0  0  0  0
 11 10  2  0  0  0  0
 11 17  1  0  0  0  0
 12 11  1  0  0  0  0
 13 14  1  0  0  0  0
 13 12  2  0  0  0  0
 14  9  2  0  0  0  0
 15  9  1  0  0  0  0
 18  3  1  0  0  0  0
 18 19  1  0  0  0  0
 19 20  1  0  0  0  0
 21 19  1  0  0  0  0
 21 20  1  0  0  0  0
M  END
>  <minimizedAffinity>
-3.84527826

>  <minimizedRMSD>
2.52620745

$$$$
