
 OpenBabel03212520353D

 30 33  0  0  0  0  0  0  0  0999 V2000
   41.6790   82.7790   57.0130 C   0  0  0  0  0  0  0  0  0  0  0  0
   42.3210   83.9460   56.5340 C   0  0  0  0  0  0  0  0  0  0  0  0
   42.6870   84.1240   55.2280 C   0  0  0  0  0  0  0  0  0  0  0  0
   42.4250   83.1230   54.3030 C   0  0  0  0  0  0  0  0  0  0  0  0
   41.7980   81.9760   54.7530 C   0  0  0  0  0  0  0  0  0  0  0  0
   41.4770   80.9230   53.9270 C   0  0  0  0  0  0  0  0  0  0  0  0
   40.8400   79.7840   54.4110 C   0  0  0  0  0  0  0  0  0  0  0  0
   40.4990   79.6490   55.7410 C   0  0  0  0  0  0  0  0  0  0  0  0
   40.8220   80.7070   56.5760 C   0  0  0  0  0  0  0  0  0  0  0  0
   41.4370   81.8060   56.0740 C   0  0  0  0  0  0  0  0  0  0  0  0
   42.5900   84.8210   57.1060 H   0  0  0  0  0  0  0  0  0  0  0  0
   43.1730   84.9830   54.8100 H   0  0  0  0  0  0  0  0  0  0  0  0
   42.6810   83.1910   53.2550 H   0  0  0  0  0  0  0  0  0  0  0  0
   41.7490   81.0280   52.8670 H   0  0  0  0  0  0  0  0  0  0  0  0
   40.6490   79.0350   53.6320 H   0  0  0  0  0  0  0  0  0  0  0  0
   40.0110   78.7280   56.0090 H   0  0  0  0  0  0  0  0  0  0  0  0
   40.5580   80.4390   57.5710 H   0  0  0  0  0  0  0  0  0  0  0  0
   40.1070   83.1750   59.0080 C   0  0  0  0  0  0  0  0  0  0  0  0
   41.3260   82.8370   58.4180 C   0  0  0  0  0  0  0  0  0  0  0  0
   42.4590   82.5090   59.2570 C   0  0  0  0  0  0  0  0  0  0  0  0
   42.2750   82.5460   60.6100 N   0  0  0  0  0  0  0  0  0  0  0  0
   41.0410   82.8880   61.1400 C   0  0  0  0  0  0  0  0  0  0  0  0
   39.9880   83.1930   60.3430 N   0  0  0  0  0  0  0  0  0  0  0  0
   39.2680   83.4900   58.4550 H   0  0  0  0  0  0  0  0  0  0  0  0
   43.4540   82.2210   59.0150 H   0  0  0  0  0  0  0  0  0  0  0  0
   40.8250   82.9410   62.5880 C   0  0  0  0  0  0  0  0  0  0  0  0
   40.5910   81.9290   63.2770 O   0  0  0  0  0  0  0  0  0  0  0  0
   40.8750   84.2290   63.3230 C   0  0  0  0  0  3  0  0  0  0  0  0
   40.4440   84.2360   64.7960 C   0  0  0  0  0  2  0  0  0  0  0  0
   41.8850   84.4040   64.4230 C   0  0  0  0  0  2  0  0  0  0  0  0
  1 19  1  0  0  0  0
  2  1  1  0  0  0  0
  2 11  1  0  0  0  0
  3  2  2  0  0  0  0
  4  5  2  0  0  0  0
  4  3  1  0  0  0  0
  5 10  1  0  0  0  0
  6  7  2  0  0  0  0
  6  5  1  0  0  0  0
  7  8  1  0  0  0  0
  8 16  1  0  0  0  0
  8  9  2  0  0  0  0
  9 17  1  0  0  0  0
 10  9  1  0  0  0  0
 10  1  2  0  0  0  0
 12  3  1  0  0  0  0
 13  4  1  0  0  0  0
 14  6  1  0  0  0  0
 15  7  1  0  0  0  0
 18 23  1  0  0  0  0
 19 18  2  0  0  0  0
 19 20  1  0  0  0  0
 20 21  2  0  0  0  0
 21 22  1  0  0  0  0
 22 26  1  0  0  0  0
 23 22  2  0  0  0  0
 24 18  1  0  0  0  0
 25 20  1  0  0  0  0
 26 27  2  0  0  0  0
 26 28  1  0  0  0  0
 28 30  1  0  0  0  0
 28 29  1  0  0  0  0
 30 29  1  0  0  0  0
M  END
>  <minimizedAffinity>
-4.99629974

>  <minimizedRMSD>
1.88874137

$$$$
