
 OpenBabel03212520353D

 30 33  0  0  0  0  0  0  0  0999 V2000
   40.6020   80.9720   56.8370 C   0  0  0  0  0  0  0  0  0  0  0  0
   41.9750   80.8840   56.5040 C   0  0  0  0  0  0  0  0  0  0  0  0
   42.4320   80.3730   55.3200 C   0  0  0  0  0  0  0  0  0  0  0  0
   41.5230   79.9130   54.3780 C   0  0  0  0  0  0  0  0  0  0  0  0
   40.1780   79.9920   54.6870 C   0  0  0  0  0  0  0  0  0  0  0  0
   39.1850   79.5770   53.8270 C   0  0  0  0  0  0  0  0  0  0  0  0
   37.8390   79.6760   54.1660 C   0  0  0  0  0  0  0  0  0  0  0  0
   37.4280   80.1910   55.3780 C   0  0  0  0  0  0  0  0  0  0  0  0
   38.4250   80.6080   56.2460 C   0  0  0  0  0  0  0  0  0  0  0  0
   39.7280   80.5050   55.8860 C   0  0  0  0  0  0  0  0  0  0  0  0
   42.8120   81.2000   57.1070 H   0  0  0  0  0  0  0  0  0  0  0  0
   43.4550   80.2820   55.0140 H   0  0  0  0  0  0  0  0  0  0  0  0
   41.8070   79.4980   53.4210 H   0  0  0  0  0  0  0  0  0  0  0  0
   39.5110   79.1650   52.8610 H   0  0  0  0  0  0  0  0  0  0  0  0
   37.1700   79.3080   53.3790 H   0  0  0  0  0  0  0  0  0  0  0  0
   36.3650   80.2210   55.5400 H   0  0  0  0  0  0  0  0  0  0  0  0
   37.9670   80.9200   57.1550 H   0  0  0  0  0  0  0  0  0  0  0  0
   40.2500   82.9650   58.4230 C   0  0  0  0  0  0  0  0  0  0  0  0
   40.3470   81.6060   58.1160 C   0  0  0  0  0  0  0  0  0  0  0  0
   40.2120   80.6240   59.1700 C   0  0  0  0  0  0  0  0  0  0  0  0
   39.9920   81.0840   60.4370 N   0  0  0  0  0  0  0  0  0  0  0  0
   39.9030   82.4450   60.6830 C   0  0  0  0  0  0  0  0  0  0  0  0
   40.0310   83.3550   59.6870 N   0  0  0  0  0  0  0  0  0  0  0  0
   40.4080   83.7270   57.7140 H   0  0  0  0  0  0  0  0  0  0  0  0
   40.2430   79.5610   59.1510 H   0  0  0  0  0  0  0  0  0  0  0  0
   39.6740   82.9590   62.0360 C   0  0  0  0  0  0  0  0  0  0  0  0
   38.5660   83.3770   62.4250 O   0  0  0  0  0  0  0  0  0  0  0  0
   40.7730   83.0090   63.0320 C   0  0  0  0  0  3  0  0  0  0  0  0
   41.4490   84.3630   63.2930 C   0  0  0  0  0  2  0  0  0  0  0  0
   40.5550   83.7450   64.3240 C   0  0  0  0  0  2  0  0  0  0  0  0
  1 19  1  0  0  0  0
  2  1  1  0  0  0  0
  2 11  1  0  0  0  0
  3  2  2  0  0  0  0
  4  5  2  0  0  0  0
  4  3  1  0  0  0  0
  5 10  1  0  0  0  0
  6  7  2  0  0  0  0
  6  5  1  0  0  0  0
  7  8  1  0  0  0  0
  8 16  1  0  0  0  0
  8  9  2  0  0  0  0
  9 17  1  0  0  0  0
 10  9  1  0  0  0  0
 10  1  2  0  0  0  0
 12  3  1  0  0  0  0
 13  4  1  0  0  0  0
 14  6  1  0  0  0  0
 15  7  1  0  0  0  0
 18 23  1  0  0  0  0
 19 18  2  0  0  0  0
 19 20  1  0  0  0  0
 20 21  2  0  0  0  0
 21 22  1  0  0  0  0
 22 26  1  0  0  0  0
 23 22  2  0  0  0  0
 24 18  1  0  0  0  0
 25 20  1  0  0  0  0
 26 27  2  0  0  0  0
 26 28  1  0  0  0  0
 28 29  1  0  0  0  0
 28 30  1  0  0  0  0
 29 30  1  0  0  0  0
M  END
>  <minimizedAffinity>
-5.70571756

>  <minimizedRMSD>
2.97199154

$$$$
