
 OpenBabel03212520553D

 29 32  0  0  0  0  0  0  0  0999 V2000
   40.8920   80.1830   61.7380 C   0  0  0  0  0  0  0  0  0  0  0  0
   40.7860   78.9960   62.4380 C   0  0  0  0  0  0  0  0  0  0  0  0
   40.4270   77.8910   61.7590 C   0  0  0  0  0  0  0  0  0  0  0  0
   40.1770   77.9720   60.3980 C   0  0  0  0  0  0  0  0  0  0  0  0
   40.4700   79.7580   60.0220 S   0  0  0  0  0  0  0  0  0  0  0  0
   40.9820   78.9350   63.5080 H   0  0  0  0  0  0  0  0  0  0  0  0
   40.2900   76.8820   62.1230 H   0  0  0  0  0  0  0  0  0  0  0  0
   42.9600   83.0270   62.7730 C   0  0  0  0  0  0  0  0  0  0  0  0
   42.0480   83.8580   63.4550 C   0  0  0  0  0  0  0  0  0  0  0  0
   40.7180   83.4350   63.5560 C   0  0  0  0  0  0  0  0  0  0  0  0
   40.3720   82.2540   62.9960 N   0  0  0  0  0  0  0  0  0  0  0  0
   41.2800   81.4850   62.3490 C   0  0  0  0  0  0  0  0  0  0  0  0
   42.5430   81.8720   62.2460 N   0  0  0  0  0  0  0  0  0  0  0  0
   44.0080   83.2560   62.6360 H   0  0  0  0  0  0  0  0  0  0  0  0
   42.4260   84.7850   63.8670 H   0  0  0  0  0  0  0  0  0  0  0  0
   40.0190   84.0630   64.0740 H   0  0  0  0  0  0  0  0  0  0  0  0
   39.7840   77.0630   59.3530 C   0  0  0  0  0  0  0  0  0  0  0  0
   40.4070   75.8560   59.2610 C   0  0  0  0  0  0  0  0  0  0  0  0
   39.9220   75.0740   58.1980 C   0  0  0  0  0  0  0  0  0  0  0  0
   38.9440   75.4630   57.3530 N   0  0  0  0  0  0  0  0  0  0  0  0
   38.3910   76.6820   57.5320 C   0  0  0  0  0  0  0  0  0  0  0  0
   38.8080   77.4960   58.5400 N   0  0  0  0  0  0  0  0  0  0  0  0
   41.1880   75.4880   59.8970 H   0  0  0  0  0  0  0  0  0  0  0  0
   40.3500   74.0840   58.0270 H   0  0  0  0  0  0  0  0  0  0  0  0
   37.3370   77.1040   56.6240 C   0  0  0  0  0  0  0  0  0  0  0  0
   36.1730   77.1870   57.0830 O   0  0  0  0  0  0  0  0  0  0  0  0
   37.5840   77.4380   55.1830 C   0  0  0  0  0  3  0  0  0  0  0  0
   37.4750   76.2810   54.2620 C   0  0  0  0  0  2  0  0  0  0  0  0
   36.4650   77.3570   54.2240 C   0  0  0  0  0  2  0  0  0  0  0  0
  1 12  1  0  0  0  0
  1  2  2  0  0  0  0
  2  6  1  0  0  0  0
  3  7  1  0  0  0  0
  3  2  1  0  0  0  0
  4  3  2  0  0  0  0
  5  4  1  0  0  0  0
  5  1  1  0  0  0  0
  8  9  1  0  0  0  0
  9 10  2  0  0  0  0
  9 15  1  0  0  0  0
 10 16  1  0  0  0  0
 11 10  1  0  0  0  0
 12 11  2  0  0  0  0
 13 12  1  0  0  0  0
 13  8  2  0  0  0  0
 14  8  1  0  0  0  0
 17  4  1  0  0  0  0
 18 17  1  0  0  0  0
 18 23  1  0  0  0  0
 19 18  2  0  0  0  0
 20 21  2  0  0  0  0
 20 19  1  0  0  0  0
 21 22  1  0  0  0  0
 22 17  2  0  0  0  0
 24 19  1  0  0  0  0
 25 26  2  0  0  0  0
 25 21  1  0  0  0  0
 27 25  1  0  0  0  0
 28 27  1  0  0  0  0
 29 28  1  0  0  0  0
 29 27  1  0  0  0  0
M  END
>  <minimizedAffinity>
-5.83475733

>  <minimizedRMSD>
0.184550166

$$$$
