
 OpenBabel03212520353D

 30 33  0  0  0  0  0  0  0  0999 V2000
   40.3090   81.9080   59.3980 C   0  0  0  0  0  0  0  0  0  0  0  0
   39.8270   81.8350   60.7270 C   0  0  0  0  0  0  0  0  0  0  0  0
   39.8940   82.8770   61.6110 C   0  0  0  0  0  0  0  0  0  0  0  0
   40.4560   84.0800   61.2090 C   0  0  0  0  0  0  0  0  0  0  0  0
   40.9310   84.1690   59.9140 C   0  0  0  0  0  0  0  0  0  0  0  0
   41.4980   85.3130   59.4000 C   0  0  0  0  0  0  0  0  0  0  0  0
   41.9620   85.3720   58.0890 C   0  0  0  0  0  0  0  0  0  0  0  0
   41.8810   84.2890   57.2380 C   0  0  0  0  0  0  0  0  0  0  0  0
   41.3110   83.1350   57.7520 C   0  0  0  0  0  0  0  0  0  0  0  0
   40.8630   83.1100   59.0310 C   0  0  0  0  0  0  0  0  0  0  0  0
   39.3550   80.9890   61.2020 H   0  0  0  0  0  0  0  0  0  0  0  0
   39.5460   82.8790   62.6250 H   0  0  0  0  0  0  0  0  0  0  0  0
   40.5420   84.9470   61.8480 H   0  0  0  0  0  0  0  0  0  0  0  0
   41.5650   86.1760   60.0770 H   0  0  0  0  0  0  0  0  0  0  0  0
   42.3840   86.3490   57.8260 H   0  0  0  0  0  0  0  0  0  0  0  0
   42.2690   84.4410   56.2460 H   0  0  0  0  0  0  0  0  0  0  0  0
   41.3720   82.3740   57.0110 H   0  0  0  0  0  0  0  0  0  0  0  0
   39.5000   80.5700   57.3570 C   0  0  0  0  0  0  0  0  0  0  0  0
   40.0760   80.7050   58.6220 C   0  0  0  0  0  0  0  0  0  0  0  0
   40.5050   79.5260   59.3410 C   0  0  0  0  0  0  0  0  0  0  0  0
   40.3230   78.3150   58.7360 N   0  0  0  0  0  0  0  0  0  0  0  0
   39.7470   78.2410   57.4770 C   0  0  0  0  0  0  0  0  0  0  0  0
   39.3490   79.3540   56.8140 N   0  0  0  0  0  0  0  0  0  0  0  0
   39.1060   81.3820   56.8150 H   0  0  0  0  0  0  0  0  0  0  0  0
   40.9660   79.4100   60.2930 H   0  0  0  0  0  0  0  0  0  0  0  0
   39.5360   76.9520   56.8130 C   0  0  0  0  0  0  0  0  0  0  0  0
   40.4280   76.3670   56.1680 O   0  0  0  0  0  0  0  0  0  0  0  0
   38.2220   76.2640   56.8770 C   0  0  0  0  0  3  0  0  0  0  0  0
   37.1450   76.6760   55.8630 C   0  0  0  0  0  2  0  0  0  0  0  0
   37.8240   75.3460   55.7560 C   0  0  0  0  0  2  0  0  0  0  0  0
  1  2  1  0  0  0  0
  2 11  1  0  0  0  0
  2  3  2  0  0  0  0
  3 12  1  0  0  0  0
  4  3  1  0  0  0  0
  4 13  1  0  0  0  0
  5  4  2  0  0  0  0
  6  5  1  0  0  0  0
  6 14  1  0  0  0  0
  7  6  2  0  0  0  0
  8  9  2  0  0  0  0
  8  7  1  0  0  0  0
  9 10  1  0  0  0  0
 10  1  2  0  0  0  0
 10  5  1  0  0  0  0
 15  7  1  0  0  0  0
 16  8  1  0  0  0  0
 17  9  1  0  0  0  0
 18 19  1  0  0  0  0
 19 20  2  0  0  0  0
 19  1  1  0  0  0  0
 20 25  1  0  0  0  0
 21 20  1  0  0  0  0
 22 21  2  0  0  0  0
 23 18  2  0  0  0  0
 23 22  1  0  0  0  0
 24 18  1  0  0  0  0
 26 28  1  0  0  0  0
 26 22  1  0  0  0  0
 27 26  2  0  0  0  0
 29 28  1  0  0  0  0
 30 29  1  0  0  0  0
 30 28  1  0  0  0  0
M  END
>  <minimizedAffinity>
-4.79503584

>  <minimizedRMSD>
7.53053808

$$$$
