
 OpenBabel03212520403D

 21 23  0  0  1  0  0  0  0  0999 V2000
   42.2440   85.3270   59.7700 C   0  0  1  0  0  0  0  0  0  0  0  0
   43.2470   85.4200   58.6270 C   0  0  0  0  0  0  0  0  0  0  0  0
   41.9200   84.7040   58.4780 C   0  0  1  0  0  0  0  0  0  0  0  0
   41.8650   86.3370   60.0490 H   0  0  0  0  0  0  0  0  0  0  0  0
   43.4120   86.3680   58.1030 H   0  0  0  0  0  0  0  0  0  0  0  0
   44.1280   84.7590   58.6090 H   0  0  0  0  0  0  0  0  0  0  0  0
   41.2130   85.2260   57.7960 H   0  0  0  0  0  0  0  0  0  0  0  0
   42.7310   84.4980   60.8260 O   0  0  0  0  0  0  0  0  0  0  0  0
   40.0200   83.5960   63.0530 C   0  0  0  0  0  0  0  0  0  0  0  0
   40.5860   83.8310   64.3060 C   0  0  0  0  0  0  0  0  0  0  0  0
   41.9230   84.3080   64.3470 C   0  0  0  0  0  0  0  0  0  0  0  0
   42.5270   84.4900   63.1470 N   0  0  0  0  0  0  0  0  0  0  0  0
   41.9690   84.2580   61.9460 C   0  0  0  0  0  0  0  0  0  0  0  0
   40.7110   83.8100   61.8880 N   0  0  0  0  0  0  0  0  0  0  0  0
   39.0060   83.2320   62.9310 H   0  0  0  0  0  0  0  0  0  0  0  0
   40.0250   83.6570   65.1950 H   0  0  0  0  0  0  0  0  0  0  0  0
   42.3980   84.5020   65.2800 H   0  0  0  0  0  0  0  0  0  0  0  0
   41.9360   83.3060   58.4300 O   0  0  0  0  0  0  0  0  0  0  0  0
   40.6310   82.8620   58.4100 C   0  0  0  0  0  3  0  0  0  0  0  0
   40.2150   81.6330   59.1340 C   0  0  0  0  0  2  0  0  0  0  0  0
   40.4060   81.5600   57.6560 C   0  0  0  0  0  2  0  0  0  0  0  0
  1  4  1  1  0  0  0
  1  8  1  0  0  0  0
  2  1  1  0  0  0  0
  3  7  1  6  0  0  0
  3  2  1  0  0  0  0
  3  1  1  0  0  0  0
  5  2  1  0  0  0  0
  6  2  1  0  0  0  0
  8 13  1  0  0  0  0
  9 10  1  0  0  0  0
 10 11  2  0  0  0  0
 10 16  1  0  0  0  0
 11 17  1  0  0  0  0
 12 11  1  0  0  0  0
 13 12  2  0  0  0  0
 14 13  1  0  0  0  0
 14  9  2  0  0  0  0
 15  9  1  0  0  0  0
 18  3  1  0  0  0  0
 19 18  1  0  0  0  0
 19 20  1  0  0  0  0
 21 19  1  0  0  0  0
 21 20  1  0  0  0  0
M  END
>  <minimizedAffinity>
-3.83127522

>  <minimizedRMSD>
2.02954388

$$$$
