
 OpenBabel03212520353D

 30 33  0  0  0  0  0  0  0  0999 V2000
   41.9370   76.8740   60.4360 C   0  0  0  0  0  0  0  0  0  0  0  0
   42.4880   75.6640   60.9230 C   0  0  0  0  0  0  0  0  0  0  0  0
   43.5110   75.6120   61.8290 C   0  0  0  0  0  0  0  0  0  0  0  0
   44.0550   76.7920   62.3150 C   0  0  0  0  0  0  0  0  0  0  0  0
   43.5280   77.9840   61.8510 C   0  0  0  0  0  0  0  0  0  0  0  0
   43.9780   79.2160   62.2690 C   0  0  0  0  0  0  0  0  0  0  0  0
   43.4220   80.3970   61.7870 C   0  0  0  0  0  0  0  0  0  0  0  0
   42.3960   80.3970   60.8650 C   0  0  0  0  0  0  0  0  0  0  0  0
   41.9410   79.1580   60.4410 C   0  0  0  0  0  0  0  0  0  0  0  0
   42.4980   78.0250   60.9330 C   0  0  0  0  0  0  0  0  0  0  0  0
   42.1850   74.6610   60.6640 H   0  0  0  0  0  0  0  0  0  0  0  0
   43.9670   74.7280   62.2310 H   0  0  0  0  0  0  0  0  0  0  0  0
   44.8620   76.8320   63.0320 H   0  0  0  0  0  0  0  0  0  0  0  0
   44.7970   79.2180   63.0030 H   0  0  0  0  0  0  0  0  0  0  0  0
   43.8840   81.2950   62.2150 H   0  0  0  0  0  0  0  0  0  0  0  0
   42.0400   81.3650   60.5580 H   0  0  0  0  0  0  0  0  0  0  0  0
   41.2000   79.3130   59.6940 H   0  0  0  0  0  0  0  0  0  0  0  0
   39.4490   76.7350   59.8040 C   0  0  0  0  0  0  0  0  0  0  0  0
   40.8180   76.6890   59.5330 C   0  0  0  0  0  0  0  0  0  0  0  0
   41.2710   76.3940   58.1910 C   0  0  0  0  0  0  0  0  0  0  0  0
   40.3200   76.1730   57.2370 N   0  0  0  0  0  0  0  0  0  0  0  0
   38.9740   76.2340   57.5630 C   0  0  0  0  0  0  0  0  0  0  0  0
   38.5620   76.5100   58.8240 N   0  0  0  0  0  0  0  0  0  0  0  0
   39.0590   76.8750   60.7720 H   0  0  0  0  0  0  0  0  0  0  0  0
   42.2490   76.3220   57.7780 H   0  0  0  0  0  0  0  0  0  0  0  0
   37.9370   75.9930   56.5550 C   0  0  0  0  0  0  0  0  0  0  0  0
   37.9010   74.9650   55.8510 O   0  0  0  0  0  0  0  0  0  0  0  0
   36.8560   76.9810   56.3180 C   0  0  0  0  0  3  0  0  0  0  0  0
   37.2540   78.3770   55.8170 C   0  0  0  0  0  2  0  0  0  0  0  0
   36.5550   77.4110   54.9100 C   0  0  0  0  0  2  0  0  0  0  0  0
  1  2  2  0  0  0  0
  1 10  1  0  0  0  0
  2  3  1  0  0  0  0
  3 12  1  0  0  0  0
  3  4  2  0  0  0  0
  4 13  1  0  0  0  0
  5  6  1  0  0  0  0
  5  4  1  0  0  0  0
  6 14  1  0  0  0  0
  7 15  1  0  0  0  0
  7  6  2  0  0  0  0
  8  7  1  0  0  0  0
  9  8  2  0  0  0  0
  9 10  1  0  0  0  0
 10  5  2  0  0  0  0
 11  2  1  0  0  0  0
 16  8  1  0  0  0  0
 17  9  1  0  0  0  0
 18 24  1  0  0  0  0
 19 18  1  0  0  0  0
 19  1  1  0  0  0  0
 20 19  2  0  0  0  0
 21 22  2  0  0  0  0
 21 20  1  0  0  0  0
 22 23  1  0  0  0  0
 23 18  2  0  0  0  0
 25 20  1  0  0  0  0
 26 22  1  0  0  0  0
 27 26  2  0  0  0  0
 28 26  1  0  0  0  0
 29 28  1  0  0  0  0
 30 29  1  0  0  0  0
 30 28  1  0  0  0  0
M  END
>  <minimizedAffinity>
-4.38756227

>  <minimizedRMSD>
8.88022137

$$$$
