
 OpenBabel03212520203D

 30 32  0  0  0  0  0  0  0  0999 V2000
   43.1180   84.0000   58.5860 Cl  0  0  0  0  0  0  0  0  0  0  0  0
   41.8990   82.7990   58.1930 C   0  0  0  0  0  0  0  0  0  0  0  0
   41.0360   82.2590   59.1290 C   0  0  0  0  0  0  0  0  0  0  0  0
   40.1350   81.3250   58.6530 C   0  0  0  0  0  0  0  0  0  0  0  0
   40.0100   80.8810   57.3610 C   0  0  0  0  0  0  0  0  0  0  0  0
   40.8770   81.4360   56.4650 C   0  0  0  0  0  0  0  0  0  0  0  0
   40.8280   80.9590   54.7710 Cl  0  0  0  0  0  0  0  0  0  0  0  0
   41.8080   82.3790   56.8690 C   0  0  0  0  0  0  0  0  0  0  0  0
   39.4690   80.9210   59.4270 H   0  0  0  0  0  0  0  0  0  0  0  0
   39.2670   80.1430   57.0930 H   0  0  0  0  0  0  0  0  0  0  0  0
   41.9700   82.1890   61.4930 C   0  0  0  0  0  0  0  0  0  0  0  0
   41.1320   82.6910   60.4800 C   0  0  0  0  0  0  0  0  0  0  0  0
   40.2840   83.7460   60.8290 C   0  0  0  0  0  0  0  0  0  0  0  0
   40.3580   84.1810   62.1280 N   0  0  0  0  0  0  0  0  0  0  0  0
   41.1640   83.6780   63.0520 C   0  0  0  0  0  0  0  0  0  0  0  0
   41.9910   82.6560   62.7280 N   0  0  0  0  0  0  0  0  0  0  0  0
   42.6000   81.3740   61.1530 H   0  0  0  0  0  0  0  0  0  0  0  0
   39.5950   84.2080   60.1190 H   0  0  0  0  0  0  0  0  0  0  0  0
   41.0650   84.3160   64.3930 C   0  0  0  0  0  0  0  0  0  0  0  0
   40.7340   85.6420   64.3210 F   0  0  0  0  0  0  0  0  0  0  0  0
   40.1200   83.6530   65.1630 F   0  0  0  0  0  0  0  0  0  0  0  0
   42.3200   84.2660   65.0490 F   0  0  0  0  0  0  0  0  0  0  0  0
   42.6700   82.9160   55.9240 O   0  0  0  0  0  0  0  0  0  0  0  0
   42.3940   84.0570   55.1530 C   0  0  0  0  0  0  0  0  0  0  0  0
   42.0620   83.6980   54.1490 H   0  0  0  0  0  0  0  0  0  0  0  0
   41.6720   84.7140   55.6370 H   0  0  0  0  0  0  0  0  0  0  0  0
   43.6230   84.7570   55.0250 O   0  0  0  0  0  0  0  0  0  0  0  0
   44.3380   84.3490   53.9280 C   0  0  0  0  0  0  0  0  0  0  0  0
   44.3560   85.3000   52.7820 C   0  0  0  0  0  0  0  0  0  0  0  0
   43.5270   84.0470   52.7000 C   0  0  0  0  0  0  0  0  0  0  0  0
  2  1  1  0  0  0  0
  2  3  1  0  0  0  0
  3 12  1  0  0  0  0
  4  3  2  0  0  0  0
  4  9  1  0  0  0  0
  5  4  1  0  0  0  0
  6  8  1  0  0  0  0
  6  5  2  0  0  0  0
  7  6  1  0  0  0  0
  8  2  2  0  0  0  0
 10  5  1  0  0  0  0
 11 16  1  0  0  0  0
 12 13  1  0  0  0  0
 12 11  2  0  0  0  0
 13 14  2  0  0  0  0
 14 15  1  0  0  0  0
 15 19  1  0  0  0  0
 16 15  2  0  0  0  0
 17 11  1  0  0  0  0
 18 13  1  0  0  0  0
 19 22  1  0  0  0  0
 19 21  1  0  0  0  0
 20 19  1  0  0  0  0
 23  8  1  0  0  0  0
 24 26  1  0  0  0  0
 24 23  1  0  0  0  0
 25 24  1  0  0  0  0
 27 24  1  0  0  0  0
 28 27  1  0  0  0  0
 29 28  1  0  0  0  0
 30 29  1  0  0  0  0
 30 28  1  0  0  0  0
M  END
>  <minimizedAffinity>
-4.76652956

>  <minimizedRMSD>
0.524071097

$$$$
