
 OpenBabel03212520363D

 13 14  0  0  0  0  0  0  0  0999 V2000
   38.0420   77.3260   56.4540 C   0  0  0  0  0  0  0  0  0  0  0  0
   37.1480   76.6810   55.5860 C   0  0  0  0  0  0  0  0  0  0  0  0
   36.7090   75.3750   55.9320 C   0  0  0  0  0  0  0  0  0  0  0  0
   37.1890   74.8550   57.0800 N   0  0  0  0  0  0  0  0  0  0  0  0
   38.0420   75.4780   57.9020 C   0  0  0  0  0  0  0  0  0  0  0  0
   38.4730   76.7180   57.5930 N   0  0  0  0  0  0  0  0  0  0  0  0
   38.3640   78.3180   56.1700 H   0  0  0  0  0  0  0  0  0  0  0  0
   36.8130   77.1730   54.6820 H   0  0  0  0  0  0  0  0  0  0  0  0
   36.0320   74.8960   55.2680 H   0  0  0  0  0  0  0  0  0  0  0  0
   38.4940   74.8800   59.0680 O   0  0  0  0  0  0  0  0  0  0  0  0
   39.6120   75.3430   59.7880 C   0  0  0  0  0  3  0  0  0  0  0  0
   39.3150   75.9880   61.1130 C   0  0  0  0  0  2  0  0  0  0  0  0
   39.9400   74.6040   61.0470 C   0  0  0  0  0  2  0  0  0  0  0  0
  1  6  1  0  0  0  0
  2  3  1  0  0  0  0
  2  1  2  0  0  0  0
  3  4  2  0  0  0  0
  4  5  1  0  0  0  0
  5 10  1  0  0  0  0
  6  5  2  0  0  0  0
  7  1  1  0  0  0  0
  8  2  1  0  0  0  0
  9  3  1  0  0  0  0
 10 11  1  0  0  0  0
 11 13  1  0  0  0  0
 11 12  1  0  0  0  0
 13 12  1  0  0  0  0
M  END
>  <minimizedAffinity>
-3.41902781

$$$$

 OpenBabel03212520363D

 13 14  0  0  0  0  0  0  0  0999 V2000
   36.7630   75.1630   56.2990 C   0  0  0  0  0  0  0  0  0  0  0  0
   36.9110   76.3730   55.6040 C   0  0  0  0  0  0  0  0  0  0  0  0
   37.7860   77.3500   56.1470 C   0  0  0  0  0  0  0  0  0  0  0  0
   38.4140   77.0330   57.2980 N   0  0  0  0  0  0  0  0  0  0  0  0
   38.2660   75.8760   57.9540 C   0  0  0  0  0  0  0  0  0  0  0  0
   37.4390   74.9340   57.4580 N   0  0  0  0  0  0  0  0  0  0  0  0
   36.0910   74.4340   55.8670 H   0  0  0  0  0  0  0  0  0  0  0  0
   36.3670   76.5450   54.6840 H   0  0  0  0  0  0  0  0  0  0  0  0
   37.8910   78.2620   55.6130 H   0  0  0  0  0  0  0  0  0  0  0  0
   38.9460   75.6200   59.1350 O   0  0  0  0  0  0  0  0  0  0  0  0
   38.9410   74.3620   59.7700 C   0  0  0  0  0  3  0  0  0  0  0  0
   39.7830   74.2530   61.0100 C   0  0  0  0  0  2  0  0  0  0  0  0
   38.2660   74.2980   61.1030 C   0  0  0  0  0  2  0  0  0  0  0  0
  1  6  1  0  0  0  0
  2  3  1  0  0  0  0
  2  1  2  0  0  0  0
  3  4  2  0  0  0  0
  4  5  1  0  0  0  0
  5 10  1  0  0  0  0
  6  5  2  0  0  0  0
  7  1  1  0  0  0  0
  8  2  1  0  0  0  0
  9  3  1  0  0  0  0
 10 11  1  0  0  0  0
 11 12  1  0  0  0  0
 11 13  1  0  0  0  0
 12 13  1  0  0  0  0
M  END
>  <minimizedAffinity>
-3.41609883

$$$$

 OpenBabel03212520363D

 13 14  0  0  0  0  0  0  0  0999 V2000
   39.4640   76.4000   60.1110 C   0  0  0  0  0  0  0  0  0  0  0  0
   39.0840   75.3850   61.0020 C   0  0  0  0  0  0  0  0  0  0  0  0
   38.3620   74.2790   60.4820 C   0  0  0  0  0  0  0  0  0  0  0  0
   38.1000   74.2900   59.1590 N   0  0  0  0  0  0  0  0  0  0  0  0
   38.4670   75.2630   58.3170 C   0  0  0  0  0  0  0  0  0  0  0  0
   39.1520   76.3240   58.7890 N   0  0  0  0  0  0  0  0  0  0  0  0
   40.0120   77.2330   60.5300 H   0  0  0  0  0  0  0  0  0  0  0  0
   39.3360   75.4570   62.0530 H   0  0  0  0  0  0  0  0  0  0  0  0
   38.0790   73.5160   61.1650 H   0  0  0  0  0  0  0  0  0  0  0  0
   38.1610   75.2070   56.9660 O   0  0  0  0  0  0  0  0  0  0  0  0
   36.8780   75.4850   56.4540 C   0  0  0  0  0  3  0  0  0  0  0  0
   36.7560   76.7470   55.6470 C   0  0  0  0  0  2  0  0  0  0  0  0
   36.7230   75.3860   54.9700 C   0  0  0  0  0  2  0  0  0  0  0  0
  1  7  1  0  0  0  0
  1  2  1  0  0  0  0
  2  8  1  0  0  0  0
  3  2  2  0  0  0  0
  3  9  1  0  0  0  0
  4  3  1  0  0  0  0
  5  6  1  0  0  0  0
  5  4  2  0  0  0  0
  6  1  2  0  0  0  0
 10  5  1  0  0  0  0
 11 10  1  0  0  0  0
 12 11  1  0  0  0  0
 13 12  1  0  0  0  0
 13 11  1  0  0  0  0
M  END
>  <minimizedAffinity>
-3.39341259

$$$$

 OpenBabel03212520363D

 13 14  0  0  0  0  0  0  0  0999 V2000
   42.8640   71.5560   60.9660 C   0  0  0  0  0  0  0  0  0  0  0  0
   42.8330   70.6760   62.0590 C   0  0  0  0  0  0  0  0  0  0  0  0
   41.7970   70.8400   63.0160 C   0  0  0  0  0  0  0  0  0  0  0  0
   40.9150   71.8360   62.7950 N   0  0  0  0  0  0  0  0  0  0  0  0
   40.9530   72.6710   61.7490 C   0  0  0  0  0  0  0  0  0  0  0  0
   41.9290   72.5350   60.8280 N   0  0  0  0  0  0  0  0  0  0  0  0
   43.6630   71.4120   60.2510 H   0  0  0  0  0  0  0  0  0  0  0  0
   43.5830   69.9020   62.1600 H   0  0  0  0  0  0  0  0  0  0  0  0
   41.7820   70.1690   63.8400 H   0  0  0  0  0  0  0  0  0  0  0  0
   40.0110   73.6740   61.5870 O   0  0  0  0  0  0  0  0  0  0  0  0
   40.1830   74.7570   60.7020 C   0  0  0  0  0  3  0  0  0  0  0  0
   38.9820   75.1240   59.8760 C   0  0  0  0  0  2  0  0  0  0  0  0
   39.4280   76.0060   61.0310 C   0  0  0  0  0  2  0  0  0  0  0  0
  1  2  1  0  0  0  0
  2  8  1  0  0  0  0
  2  3  2  0  0  0  0
  3  9  1  0  0  0  0
  4  3  1  0  0  0  0
  5  4  2  0  0  0  0
  6  1  2  0  0  0  0
  6  5  1  0  0  0  0
  7  1  1  0  0  0  0
 10  5  1  0  0  0  0
 11 13  1  0  0  0  0
 11 10  1  0  0  0  0
 12 11  1  0  0  0  0
 12 13  1  0  0  0  0
M  END
>  <minimizedAffinity>
-3.37466407

$$$$

 OpenBabel03212520363D

 13 14  0  0  0  0  0  0  0  0999 V2000
   38.4200   75.9490   58.0800 C   0  0  0  0  0  0  0  0  0  0  0  0
   39.0950   77.1780   58.1540 C   0  0  0  0  0  0  0  0  0  0  0  0
   39.8180   77.4690   59.3410 C   0  0  0  0  0  0  0  0  0  0  0  0
   39.8000   76.5330   60.3100 N   0  0  0  0  0  0  0  0  0  0  0  0
   39.1530   75.3640   60.2310 C   0  0  0  0  0  0  0  0  0  0  0  0
   38.4590   75.0660   59.1140 N   0  0  0  0  0  0  0  0  0  0  0  0
   37.8750   75.7500   57.1670 H   0  0  0  0  0  0  0  0  0  0  0  0
   39.0560   77.8740   57.3250 H   0  0  0  0  0  0  0  0  0  0  0  0
   40.3260   78.4020   59.3860 H   0  0  0  0  0  0  0  0  0  0  0  0
   39.1790   74.4480   61.2710 O   0  0  0  0  0  0  0  0  0  0  0  0
   39.7880   73.1810   61.1670 C   0  0  0  0  0  3  0  0  0  0  0  0
   41.1090   73.1470   60.4510 C   0  0  0  0  0  2  0  0  0  0  0  0
   41.0400   72.9830   61.9610 C   0  0  0  0  0  2  0  0  0  0  0  0
  1  2  2  0  0  0  0
  1  6  1  0  0  0  0
  2  3  1  0  0  0  0
  3  9  1  0  0  0  0
  3  4  2  0  0  0  0
  5  4  1  0  0  0  0
  5 10  1  0  0  0  0
  6  5  2  0  0  0  0
  7  1  1  0  0  0  0
  8  2  1  0  0  0  0
 11 10  1  0  0  0  0
 11 13  1  0  0  0  0
 12 11  1  0  0  0  0
 12 13  1  0  0  0  0
M  END
>  <minimizedAffinity>
-3.32434988

$$$$

 OpenBabel03212520363D

 13 14  0  0  0  0  0  0  0  0999 V2000
   43.1620   70.4920   61.1410 C   0  0  0  0  0  0  0  0  0  0  0  0
   42.6150   71.5880   61.8260 C   0  0  0  0  0  0  0  0  0  0  0  0
   41.7360   71.3240   62.9100 C   0  0  0  0  0  0  0  0  0  0  0  0
   41.4960   70.0290   63.1980 N   0  0  0  0  0  0  0  0  0  0  0  0
   42.0220   68.9900   62.5380 C   0  0  0  0  0  0  0  0  0  0  0  0
   42.8580   69.2160   61.5050 N   0  0  0  0  0  0  0  0  0  0  0  0
   43.8280   70.7160   60.3190 H   0  0  0  0  0  0  0  0  0  0  0  0
   42.8630   72.5980   61.5270 H   0  0  0  0  0  0  0  0  0  0  0  0
   41.3280   72.1610   63.4220 H   0  0  0  0  0  0  0  0  0  0  0  0
   41.7280   67.6820   62.8920 O   0  0  0  0  0  0  0  0  0  0  0  0
   40.6620   66.9530   62.3290 C   0  0  0  0  0  3  0  0  0  0  0  0
   40.4110   65.5960   62.9260 C   0  0  0  0  0  2  0  0  0  0  0  0
   39.4640   66.7530   63.2020 C   0  0  0  0  0  2  0  0  0  0  0  0
  1  6  2  0  0  0  0
  1  2  1  0  0  0  0
  2  3  2  0  0  0  0
  3  4  1  0  0  0  0
  3  9  1  0  0  0  0
  5 10  1  0  0  0  0
  5  4  2  0  0  0  0
  6  5  1  0  0  0  0
  7  1  1  0  0  0  0
  8  2  1  0  0  0  0
 11 10  1  0  0  0  0
 11 12  1  0  0  0  0
 11 13  1  0  0  0  0
 12 13  1  0  0  0  0
M  END
>  <minimizedAffinity>
-3.28196979

$$$$

 OpenBabel03212520363D

 13 14  0  0  0  0  0  0  0  0999 V2000
   40.9860   75.8480   59.6490 C   0  0  0  0  0  0  0  0  0  0  0  0
   39.9280   76.4350   60.3610 C   0  0  0  0  0  0  0  0  0  0  0  0
   39.1210   75.5920   61.1690 C   0  0  0  0  0  0  0  0  0  0  0  0
   39.4380   74.2810   61.1890 N   0  0  0  0  0  0  0  0  0  0  0  0
   40.4490   73.7300   60.5060 C   0  0  0  0  0  0  0  0  0  0  0  0
   41.2280   74.5120   59.7310 N   0  0  0  0  0  0  0  0  0  0  0  0
   41.5860   76.5100   59.0400 H   0  0  0  0  0  0  0  0  0  0  0  0
   39.7430   77.5000   60.2870 H   0  0  0  0  0  0  0  0  0  0  0  0
   38.3230   76.0460   61.7040 H   0  0  0  0  0  0  0  0  0  0  0  0
   40.7160   72.3720   60.5750 O   0  0  0  0  0  0  0  0  0  0  0  0
   41.7560   71.8300   61.3560 C   0  0  0  0  0  3  0  0  0  0  0  0
   42.2110   72.6730   62.5150 C   0  0  0  0  0  2  0  0  0  0  0  0
   41.3890   71.4150   62.7460 C   0  0  0  0  0  2  0  0  0  0  0  0
  1  6  2  0  0  0  0
  1  2  1  0  0  0  0
  2  3  2  0  0  0  0
  3  4  1  0  0  0  0
  3  9  1  0  0  0  0
  5 10  1  0  0  0  0
  5  4  2  0  0  0  0
  6  5  1  0  0  0  0
  7  1  1  0  0  0  0
  8  2  1  0  0  0  0
 10 11  1  0  0  0  0
 11 12  1  0  0  0  0
 11 13  1  0  0  0  0
 12 13  1  0  0  0  0
M  END
>  <minimizedAffinity>
-3.23050213

$$$$

 OpenBabel03212520363D

 13 14  0  0  0  0  0  0  0  0999 V2000
   38.4160   74.7160   58.6610 C   0  0  0  0  0  0  0  0  0  0  0  0
   38.8700   76.0400   58.7600 C   0  0  0  0  0  0  0  0  0  0  0  0
   39.7030   76.3770   59.8600 C   0  0  0  0  0  0  0  0  0  0  0  0
   39.9950   75.3890   60.7280 N   0  0  0  0  0  0  0  0  0  0  0  0
   39.5570   74.1280   60.6250 C   0  0  0  0  0  0  0  0  0  0  0  0
   38.7640   73.7850   59.5900 N   0  0  0  0  0  0  0  0  0  0  0  0
   37.7820   74.4830   57.8160 H   0  0  0  0  0  0  0  0  0  0  0  0
   38.5850   76.7730   58.0160 H   0  0  0  0  0  0  0  0  0  0  0  0
   40.0410   77.3820   59.9250 H   0  0  0  0  0  0  0  0  0  0  0  0
   39.8990   73.1620   61.5590 O   0  0  0  0  0  0  0  0  0  0  0  0
   41.2220   72.9450   61.9940 C   0  0  0  0  0  3  0  0  0  0  0  0
   41.4690   71.6490   62.7140 C   0  0  0  0  0  2  0  0  0  0  0  0
   41.9760   71.8590   61.2960 C   0  0  0  0  0  2  0  0  0  0  0  0
  1  2  2  0  0  0  0
  1  6  1  0  0  0  0
  2  3  1  0  0  0  0
  3  9  1  0  0  0  0
  3  4  2  0  0  0  0
  5  4  1  0  0  0  0
  5 10  1  0  0  0  0
  6  5  2  0  0  0  0
  7  1  1  0  0  0  0
  8  2  1  0  0  0  0
 10 11  1  0  0  0  0
 11 12  1  0  0  0  0
 13 11  1  0  0  0  0
 13 12  1  0  0  0  0
M  END
>  <minimizedAffinity>
-3.19495535

$$$$

 OpenBabel03212520363D

 13 14  0  0  0  0  0  0  0  0999 V2000
   39.5010   76.5980   59.7270 C   0  0  0  0  0  0  0  0  0  0  0  0
   39.4430   76.0850   61.0320 C   0  0  0  0  0  0  0  0  0  0  0  0
   38.7720   74.8490   61.2320 C   0  0  0  0  0  0  0  0  0  0  0  0
   38.2420   74.2600   60.1420 N   0  0  0  0  0  0  0  0  0  0  0  0
   38.3020   74.7570   58.9000 C   0  0  0  0  0  0  0  0  0  0  0  0
   38.9320   75.9300   58.6860 N   0  0  0  0  0  0  0  0  0  0  0  0
   40.0150   77.5400   59.5990 H   0  0  0  0  0  0  0  0  0  0  0  0
   39.8970   76.6260   61.8530 H   0  0  0  0  0  0  0  0  0  0  0  0
   38.7350   74.4700   62.2240 H   0  0  0  0  0  0  0  0  0  0  0  0
   37.7310   74.0940   57.8250 O   0  0  0  0  0  0  0  0  0  0  0  0
   38.4880   73.4430   56.8310 C   0  0  0  0  0  3  0  0  0  0  0  0
   39.7550   72.7850   57.3020 C   0  0  0  0  0  2  0  0  0  0  0  0
   38.5440   71.9500   56.9160 C   0  0  0  0  0  2  0  0  0  0  0  0
  1  2  1  0  0  0  0
  2  3  2  0  0  0  0
  2  8  1  0  0  0  0
  3  9  1  0  0  0  0
  4  3  1  0  0  0  0
  5  4  2  0  0  0  0
  6  5  1  0  0  0  0
  6  1  2  0  0  0  0
  7  1  1  0  0  0  0
 10  5  1  0  0  0  0
 11 13  1  0  0  0  0
 11 12  1  0  0  0  0
 11 10  1  0  0  0  0
 13 12  1  0  0  0  0
M  END
>  <minimizedAffinity>
-3.15367389

$$$$
