
 OpenBabel03212520353D

 30 33  0  0  0  0  0  0  0  0999 V2000
   40.8760   81.7000   57.0350 C   0  0  0  0  0  0  0  0  0  0  0  0
   42.0050   82.1720   56.3230 C   0  0  0  0  0  0  0  0  0  0  0  0
   42.2760   81.8300   55.0270 C   0  0  0  0  0  0  0  0  0  0  0  0
   41.4140   80.9780   54.3500 C   0  0  0  0  0  0  0  0  0  0  0  0
   40.3060   80.5080   55.0300 C   0  0  0  0  0  0  0  0  0  0  0  0
   39.3760   79.6680   54.4600 C   0  0  0  0  0  0  0  0  0  0  0  0
   38.2670   79.2180   55.1700 C   0  0  0  0  0  0  0  0  0  0  0  0
   38.0430   79.5840   56.4810 C   0  0  0  0  0  0  0  0  0  0  0  0
   38.9780   80.4290   57.0590 C   0  0  0  0  0  0  0  0  0  0  0  0
   40.0440   80.8570   56.3400 C   0  0  0  0  0  0  0  0  0  0  0  0
   42.7680   82.8430   56.6850 H   0  0  0  0  0  0  0  0  0  0  0  0
   43.1120   82.1550   54.4400 H   0  0  0  0  0  0  0  0  0  0  0  0
   41.5600   80.6640   53.3270 H   0  0  0  0  0  0  0  0  0  0  0  0
   39.5550   79.3730   53.4160 H   0  0  0  0  0  0  0  0  0  0  0  0
   37.6190   78.5580   54.5810 H   0  0  0  0  0  0  0  0  0  0  0  0
   37.1570   79.1790   56.9370 H   0  0  0  0  0  0  0  0  0  0  0  0
   38.7100   80.5750   58.0780 H   0  0  0  0  0  0  0  0  0  0  0  0
   40.1210   83.4140   58.7960 C   0  0  0  0  0  0  0  0  0  0  0  0
   40.7560   82.2450   58.3740 C   0  0  0  0  0  0  0  0  0  0  0  0
   41.4380   81.4130   59.3410 C   0  0  0  0  0  0  0  0  0  0  0  0
   41.4250   81.8200   60.6450 N   0  0  0  0  0  0  0  0  0  0  0  0
   40.7770   82.9900   61.0070 C   0  0  0  0  0  0  0  0  0  0  0  0
   40.1420   83.7600   60.0910 N   0  0  0  0  0  0  0  0  0  0  0  0
   39.6680   84.0950   58.1320 H   0  0  0  0  0  0  0  0  0  0  0  0
   41.9660   80.4960   59.2330 H   0  0  0  0  0  0  0  0  0  0  0  0
   40.7580   83.4480   62.3990 C   0  0  0  0  0  0  0  0  0  0  0  0
   39.8660   83.1260   63.2080 O   0  0  0  0  0  0  0  0  0  0  0  0
   41.8230   84.3370   62.9260 C   0  0  0  0  0  3  0  0  0  0  0  0
   43.1630   83.7010   63.3220 C   0  0  0  0  0  2  0  0  0  0  0  0
   43.0590   84.5670   62.1040 C   0  0  0  0  0  2  0  0  0  0  0  0
  1 19  1  0  0  0  0
  2 11  1  0  0  0  0
  2  1  2  0  0  0  0
  3  2  1  0  0  0  0
  4  3  2  0  0  0  0
  4  5  1  0  0  0  0
  5 10  1  0  0  0  0
  6  5  2  0  0  0  0
  6  7  1  0  0  0  0
  7  8  2  0  0  0  0
  8 16  1  0  0  0  0
  8  9  1  0  0  0  0
  9 17  1  0  0  0  0
 10  1  1  0  0  0  0
 10  9  2  0  0  0  0
 12  3  1  0  0  0  0
 13  4  1  0  0  0  0
 14  6  1  0  0  0  0
 15  7  1  0  0  0  0
 18 23  1  0  0  0  0
 19 18  2  0  0  0  0
 19 20  1  0  0  0  0
 20 21  2  0  0  0  0
 21 22  1  0  0  0  0
 22 26  1  0  0  0  0
 23 22  2  0  0  0  0
 24 18  1  0  0  0  0
 25 20  1  0  0  0  0
 26 28  1  0  0  0  0
 26 27  2  0  0  0  0
 28 29  1  0  0  0  0
 30 28  1  0  0  0  0
 30 29  1  0  0  0  0
M  END
>  <minimizedAffinity>
-4.90323734

>  <minimizedRMSD>
2.32667875

$$$$
