
 OpenBabel03212520353D

 30 33  0  0  0  0  0  0  0  0999 V2000
   40.8760   81.7040   57.0340 C   0  0  0  0  0  0  0  0  0  0  0  0
   42.0030   82.1800   56.3210 C   0  0  0  0  0  0  0  0  0  0  0  0
   42.2730   81.8390   55.0240 C   0  0  0  0  0  0  0  0  0  0  0  0
   41.4130   80.9850   54.3480 C   0  0  0  0  0  0  0  0  0  0  0  0
   40.3070   80.5120   55.0290 C   0  0  0  0  0  0  0  0  0  0  0  0
   39.3790   79.6700   54.4590 C   0  0  0  0  0  0  0  0  0  0  0  0
   38.2720   79.2160   55.1710 C   0  0  0  0  0  0  0  0  0  0  0  0
   38.0480   79.5810   56.4820 C   0  0  0  0  0  0  0  0  0  0  0  0
   38.9820   80.4280   57.0590 C   0  0  0  0  0  0  0  0  0  0  0  0
   40.0460   80.8590   56.3390 C   0  0  0  0  0  0  0  0  0  0  0  0
   42.7650   82.8530   56.6820 H   0  0  0  0  0  0  0  0  0  0  0  0
   43.1070   82.1670   54.4360 H   0  0  0  0  0  0  0  0  0  0  0  0
   41.5580   80.6720   53.3240 H   0  0  0  0  0  0  0  0  0  0  0  0
   39.5560   79.3760   53.4150 H   0  0  0  0  0  0  0  0  0  0  0  0
   37.6240   78.5550   54.5820 H   0  0  0  0  0  0  0  0  0  0  0  0
   37.1640   79.1730   56.9390 H   0  0  0  0  0  0  0  0  0  0  0  0
   38.7150   80.5730   58.0790 H   0  0  0  0  0  0  0  0  0  0  0  0
   40.1230   83.4180   58.7960 C   0  0  0  0  0  0  0  0  0  0  0  0
   40.7560   82.2480   58.3730 C   0  0  0  0  0  0  0  0  0  0  0  0
   41.4370   81.4140   59.3400 C   0  0  0  0  0  0  0  0  0  0  0  0
   41.4240   81.8190   60.6440 N   0  0  0  0  0  0  0  0  0  0  0  0
   40.7770   82.9910   61.0070 C   0  0  0  0  0  0  0  0  0  0  0  0
   40.1440   83.7630   60.0910 N   0  0  0  0  0  0  0  0  0  0  0  0
   39.6710   84.1000   58.1330 H   0  0  0  0  0  0  0  0  0  0  0  0
   41.9630   80.4960   59.2310 H   0  0  0  0  0  0  0  0  0  0  0  0
   40.7590   83.4470   62.3990 C   0  0  0  0  0  0  0  0  0  0  0  0
   39.8680   83.1230   63.2080 O   0  0  0  0  0  0  0  0  0  0  0  0
   41.8230   84.3380   62.9270 C   0  0  0  0  0  3  0  0  0  0  0  0
   43.1620   83.7030   63.3240 C   0  0  0  0  0  2  0  0  0  0  0  0
   43.0590   84.5670   62.1050 C   0  0  0  0  0  2  0  0  0  0  0  0
  1 19  1  0  0  0  0
  2 11  1  0  0  0  0
  2  1  2  0  0  0  0
  3  2  1  0  0  0  0
  4  3  2  0  0  0  0
  4  5  1  0  0  0  0
  5 10  1  0  0  0  0
  6  5  2  0  0  0  0
  6  7  1  0  0  0  0
  7  8  2  0  0  0  0
  8 16  1  0  0  0  0
  8  9  1  0  0  0  0
  9 17  1  0  0  0  0
 10  1  1  0  0  0  0
 10  9  2  0  0  0  0
 12  3  1  0  0  0  0
 13  4  1  0  0  0  0
 14  6  1  0  0  0  0
 15  7  1  0  0  0  0
 18 23  1  0  0  0  0
 19 18  2  0  0  0  0
 19 20  1  0  0  0  0
 20 21  2  0  0  0  0
 21 22  1  0  0  0  0
 22 26  1  0  0  0  0
 23 22  2  0  0  0  0
 24 18  1  0  0  0  0
 25 20  1  0  0  0  0
 26 28  1  0  0  0  0
 26 27  2  0  0  0  0
 28 29  1  0  0  0  0
 30 28  1  0  0  0  0
 30 29  1  0  0  0  0
M  END
>  <minimizedAffinity>
-4.90347815

>  <minimizedRMSD>
2.29600215

$$$$
