
 OpenBabel03212520353D

 30 33  0  0  0  0  0  0  0  0999 V2000
   41.4860   81.6790   59.3760 C   0  0  0  0  0  0  0  0  0  0  0  0
   42.8390   81.2680   59.3150 C   0  0  0  0  0  0  0  0  0  0  0  0
   43.7770   81.6200   60.2470 C   0  0  0  0  0  0  0  0  0  0  0  0
   43.4080   82.4180   61.3200 C   0  0  0  0  0  0  0  0  0  0  0  0
   42.0900   82.8290   61.3950 C   0  0  0  0  0  0  0  0  0  0  0  0
   41.6050   83.6120   62.4190 C   0  0  0  0  0  0  0  0  0  0  0  0
   40.2700   84.0030   62.4690 C   0  0  0  0  0  0  0  0  0  0  0  0
   39.3650   83.6300   61.4980 C   0  0  0  0  0  0  0  0  0  0  0  0
   39.8490   82.8410   60.4660 C   0  0  0  0  0  0  0  0  0  0  0  0
   41.1530   82.4720   60.4470 C   0  0  0  0  0  0  0  0  0  0  0  0
   43.2960   80.6430   58.5630 H   0  0  0  0  0  0  0  0  0  0  0  0
   44.8120   81.3390   60.2520 H   0  0  0  0  0  0  0  0  0  0  0  0
   44.0900   82.7360   62.0960 H   0  0  0  0  0  0  0  0  0  0  0  0
   42.3260   83.9120   63.1930 H   0  0  0  0  0  0  0  0  0  0  0  0
   40.0370   84.6220   63.3440 H   0  0  0  0  0  0  0  0  0  0  0  0
   38.3590   83.9870   61.6320 H   0  0  0  0  0  0  0  0  0  0  0  0
   39.0620   82.6850   59.7680 H   0  0  0  0  0  0  0  0  0  0  0  0
   39.7190   80.1030   58.3740 C   0  0  0  0  0  0  0  0  0  0  0  0
   40.6580   81.1350   58.3170 C   0  0  0  0  0  0  0  0  0  0  0  0
   40.9240   81.7900   57.0550 C   0  0  0  0  0  0  0  0  0  0  0  0
   40.2290   81.3600   55.9610 N   0  0  0  0  0  0  0  0  0  0  0  0
   39.3060   80.3320   56.0770 C   0  0  0  0  0  0  0  0  0  0  0  0
   39.0670   79.7260   57.2650 N   0  0  0  0  0  0  0  0  0  0  0  0
   39.5330   79.5430   59.2460 H   0  0  0  0  0  0  0  0  0  0  0  0
   41.5800   82.5880   56.8000 H   0  0  0  0  0  0  0  0  0  0  0  0
   38.5550   79.8510   54.9140 C   0  0  0  0  0  0  0  0  0  0  0  0
   37.6460   80.5100   54.3730 O   0  0  0  0  0  0  0  0  0  0  0  0
   38.8450   78.5260   54.3110 C   0  0  0  0  0  3  0  0  0  0  0  0
   39.7110   78.4860   53.0440 C   0  0  0  0  0  2  0  0  0  0  0  0
   40.2490   77.9960   54.3520 C   0  0  0  0  0  2  0  0  0  0  0  0
  1 10  1  0  0  0  0
  2  1  2  0  0  0  0
  2  3  1  0  0  0  0
  3 12  1  0  0  0  0
  3  4  2  0  0  0  0
  4  5  1  0  0  0  0
  4 13  1  0  0  0  0
  5  6  1  0  0  0  0
  6  7  2  0  0  0  0
  6 14  1  0  0  0  0
  7 15  1  0  0  0  0
  8 16  1  0  0  0  0
  8  7  1  0  0  0  0
  9  8  2  0  0  0  0
 10  9  1  0  0  0  0
 10  5  2  0  0  0  0
 11  2  1  0  0  0  0
 17  9  1  0  0  0  0
 18 24  1  0  0  0  0
 19 18  1  0  0  0  0
 19  1  1  0  0  0  0
 20 19  2  0  0  0  0
 21 22  2  0  0  0  0
 21 20  1  0  0  0  0
 22 23  1  0  0  0  0
 23 18  2  0  0  0  0
 25 20  1  0  0  0  0
 26 22  1  0  0  0  0
 27 26  2  0  0  0  0
 28 30  1  0  0  0  0
 28 26  1  0  0  0  0
 29 28  1  0  0  0  0
 29 30  1  0  0  0  0
M  END
>  <minimizedAffinity>
-4.4750309

>  <minimizedRMSD>
7.45866776

$$$$
