
 OpenBabel03212520403D

 21 23  0  0  1  0  0  0  0  0999 V2000
   42.1160   85.3190   59.6510 C   0  0  1  0  0  0  0  0  0  0  0  0
   43.0440   86.2520   58.8820 C   0  0  0  0  0  0  0  0  0  0  0  0
   42.6650   84.8810   58.3580 C   0  0  1  0  0  0  0  0  0  0  0  0
   41.0970   85.7580   59.7390 H   0  0  0  0  0  0  0  0  0  0  0  0
   42.6520   87.1460   58.3870 H   0  0  0  0  0  0  0  0  0  0  0  0
   44.1000   86.3520   59.1810 H   0  0  0  0  0  0  0  0  0  0  0  0
   42.0110   84.9190   57.4610 H   0  0  0  0  0  0  0  0  0  0  0  0
   42.7290   84.8460   60.8510 O   0  0  0  0  0  0  0  0  0  0  0  0
   40.0760   83.4930   62.9130 C   0  0  0  0  0  0  0  0  0  0  0  0
   40.5760   83.7010   64.1990 C   0  0  0  0  0  0  0  0  0  0  0  0
   41.8480   84.3200   64.3190 C   0  0  0  0  0  0  0  0  0  0  0  0
   42.4620   84.6520   63.1560 N   0  0  0  0  0  0  0  0  0  0  0  0
   41.9680   84.4440   61.9230 C   0  0  0  0  0  0  0  0  0  0  0  0
   40.7710   83.8630   61.7910 N   0  0  0  0  0  0  0  0  0  0  0  0
   39.1140   83.0270   62.7300 H   0  0  0  0  0  0  0  0  0  0  0  0
   40.0130   83.4040   65.0540 H   0  0  0  0  0  0  0  0  0  0  0  0
   42.2710   84.5000   65.2790 H   0  0  0  0  0  0  0  0  0  0  0  0
   43.6410   83.8780   58.3950 O   0  0  0  0  0  0  0  0  0  0  0  0
   44.8370   84.4290   57.9860 C   0  0  0  0  0  3  0  0  0  0  0  0
   45.3130   84.3020   56.5850 C   0  0  0  0  0  2  0  0  0  0  0  0
   45.9170   83.4200   57.6250 C   0  0  0  0  0  2  0  0  0  0  0  0
  1  4  1  1  0  0  0
  1  8  1  0  0  0  0
  2  6  1  0  0  0  0
  2  1  1  0  0  0  0
  3  7  1  6  0  0  0
  3 18  1  0  0  0  0
  3  2  1  0  0  0  0
  3  1  1  0  0  0  0
  5  2  1  0  0  0  0
  8 13  1  0  0  0  0
  9 10  1  0  0  0  0
 10 11  2  0  0  0  0
 10 16  1  0  0  0  0
 11 17  1  0  0  0  0
 12 11  1  0  0  0  0
 13 12  2  0  0  0  0
 14 13  1  0  0  0  0
 14  9  2  0  0  0  0
 15  9  1  0  0  0  0
 19 18  1  0  0  0  0
 20 21  1  0  0  0  0
 20 19  1  0  0  0  0
 21 19  1  0  0  0  0
M  END
>  <minimizedAffinity>
-3.31593895

>  <minimizedRMSD>
0.78310746

$$$$
