
 OpenBabel03212520553D

 29 32  0  0  0  0  0  0  0  0999 V2000
   40.9610   80.2140   61.7110 C   0  0  0  0  0  0  0  0  0  0  0  0
   40.9220   78.9850   62.3440 C   0  0  0  0  0  0  0  0  0  0  0  0
   40.5300   77.9160   61.6260 C   0  0  0  0  0  0  0  0  0  0  0  0
   40.1810   78.0740   60.2930 C   0  0  0  0  0  0  0  0  0  0  0  0
   40.4210   79.8840   60.0070 S   0  0  0  0  0  0  0  0  0  0  0  0
   41.1960   78.8640   63.3910 H   0  0  0  0  0  0  0  0  0  0  0  0
   40.4350   76.8850   61.9360 H   0  0  0  0  0  0  0  0  0  0  0  0
   43.0580   83.0290   62.7680 C   0  0  0  0  0  0  0  0  0  0  0  0
   42.1860   83.8000   63.5630 C   0  0  0  0  0  0  0  0  0  0  0  0
   40.8730   83.3470   63.7330 C   0  0  0  0  0  0  0  0  0  0  0  0
   40.5040   82.1950   63.1280 N   0  0  0  0  0  0  0  0  0  0  0  0
   41.3730   81.4840   62.3720 C   0  0  0  0  0  0  0  0  0  0  0  0
   42.6200   81.9000   62.2020 N   0  0  0  0  0  0  0  0  0  0  0  0
   44.0890   83.2850   62.5700 H   0  0  0  0  0  0  0  0  0  0  0  0
   42.5800   84.7070   64.0030 H   0  0  0  0  0  0  0  0  0  0  0  0
   40.2050   83.9300   64.3370 H   0  0  0  0  0  0  0  0  0  0  0  0
   39.7270   77.2220   59.2260 C   0  0  0  0  0  0  0  0  0  0  0  0
   40.3740   76.0460   59.0010 C   0  0  0  0  0  0  0  0  0  0  0  0
   39.8220   75.3180   57.9310 C   0  0  0  0  0  0  0  0  0  0  0  0
   38.7650   75.7290   57.1990 N   0  0  0  0  0  0  0  0  0  0  0  0
   38.1960   76.9130   57.5050 C   0  0  0  0  0  0  0  0  0  0  0  0
   38.6740   77.6740   58.5270 N   0  0  0  0  0  0  0  0  0  0  0  0
   41.2150   75.6630   59.5440 H   0  0  0  0  0  0  0  0  0  0  0  0
   40.2610   74.3560   57.6590 H   0  0  0  0  0  0  0  0  0  0  0  0
   37.0570   77.3580   56.7180 C   0  0  0  0  0  0  0  0  0  0  0  0
   35.9110   77.1270   57.1710 O   0  0  0  0  0  0  0  0  0  0  0  0
   37.1980   78.0720   55.4070 C   0  0  0  0  0  3  0  0  0  0  0  0
   37.4230   79.5320   55.5290 C   0  0  0  0  0  2  0  0  0  0  0  0
   38.5030   78.6530   55.0400 C   0  0  0  0  0  2  0  0  0  0  0  0
  1  2  2  0  0  0  0
  1 12  1  0  0  0  0
  2  6  1  0  0  0  0
  3  7  1  0  0  0  0
  3  2  1  0  0  0  0
  4  3  2  0  0  0  0
  5  4  1  0  0  0  0
  5  1  1  0  0  0  0
  8  9  1  0  0  0  0
  9 10  2  0  0  0  0
  9 15  1  0  0  0  0
 10 16  1  0  0  0  0
 11 10  1  0  0  0  0
 12 11  2  0  0  0  0
 13 12  1  0  0  0  0
 13  8  2  0  0  0  0
 14  8  1  0  0  0  0
 17  4  1  0  0  0  0
 18 17  1  0  0  0  0
 18 23  1  0  0  0  0
 19 18  2  0  0  0  0
 20 21  2  0  0  0  0
 20 19  1  0  0  0  0
 21 22  1  0  0  0  0
 22 17  2  0  0  0  0
 24 19  1  0  0  0  0
 25 26  2  0  0  0  0
 25 21  1  0  0  0  0
 27 28  1  0  0  0  0
 27 25  1  0  0  0  0
 29 27  1  0  0  0  0
 29 28  1  0  0  0  0
M  END
>  <minimizedAffinity>
-5.79382563

>  <minimizedRMSD>
0.501274705

$$$$
