
 OpenBabel03212520553D

 29 32  0  0  0  0  0  0  0  0999 V2000
   40.9160   80.1580   61.7360 C   0  0  0  0  0  0  0  0  0  0  0  0
   40.8150   78.9660   62.4300 C   0  0  0  0  0  0  0  0  0  0  0  0
   40.4100   77.8740   61.7550 C   0  0  0  0  0  0  0  0  0  0  0  0
   40.1110   77.9720   60.4040 C   0  0  0  0  0  0  0  0  0  0  0  0
   40.4210   79.7560   60.0340 S   0  0  0  0  0  0  0  0  0  0  0  0
   41.0500   78.8910   63.4900 H   0  0  0  0  0  0  0  0  0  0  0  0
   40.2690   76.8640   62.1150 H   0  0  0  0  0  0  0  0  0  0  0  0
   43.0380   83.0130   62.6180 C   0  0  0  0  0  0  0  0  0  0  0  0
   42.2000   83.7980   63.4350 C   0  0  0  0  0  0  0  0  0  0  0  0
   40.9010   83.3400   63.6810 C   0  0  0  0  0  0  0  0  0  0  0  0
   40.5110   82.1710   63.1240 N   0  0  0  0  0  0  0  0  0  0  0  0
   41.3490   81.4470   62.3430 C   0  0  0  0  0  0  0  0  0  0  0  0
   42.5820   81.8670   62.1020 N   0  0  0  0  0  0  0  0  0  0  0  0
   44.0560   83.2720   62.3640 H   0  0  0  0  0  0  0  0  0  0  0  0
   42.6070   84.7190   63.8330 H   0  0  0  0  0  0  0  0  0  0  0  0
   40.2580   83.9330   64.3020 H   0  0  0  0  0  0  0  0  0  0  0  0
   39.6630   77.0800   59.3670 C   0  0  0  0  0  0  0  0  0  0  0  0
   40.1870   75.8250   59.3060 C   0  0  0  0  0  0  0  0  0  0  0  0
   39.6570   75.0670   58.2460 C   0  0  0  0  0  0  0  0  0  0  0  0
   38.7280   75.5200   57.3780 N   0  0  0  0  0  0  0  0  0  0  0  0
   38.2740   76.7820   57.5280 C   0  0  0  0  0  0  0  0  0  0  0  0
   38.7390   77.5770   58.5300 N   0  0  0  0  0  0  0  0  0  0  0  0
   40.9240   75.4060   59.9610 H   0  0  0  0  0  0  0  0  0  0  0  0
   40.0060   74.0420   58.0990 H   0  0  0  0  0  0  0  0  0  0  0  0
   37.2730   77.2730   56.5950 C   0  0  0  0  0  0  0  0  0  0  0  0
   36.0670   77.0950   56.8880 O   0  0  0  0  0  0  0  0  0  0  0  0
   37.6210   77.9720   55.3150 C   0  0  0  0  0  3  0  0  0  0  0  0
   38.0130   77.0620   54.2110 C   0  0  0  0  0  2  0  0  0  0  0  0
   36.7400   77.8070   54.1420 C   0  0  0  0  0  2  0  0  0  0  0  0
  1 12  1  0  0  0  0
  1  2  2  0  0  0  0
  2  6  1  0  0  0  0
  3  7  1  0  0  0  0
  3  2  1  0  0  0  0
  4  3  2  0  0  0  0
  5  4  1  0  0  0  0
  5  1  1  0  0  0  0
  8  9  1  0  0  0  0
  9 10  2  0  0  0  0
  9 15  1  0  0  0  0
 10 16  1  0  0  0  0
 11 10  1  0  0  0  0
 12 11  2  0  0  0  0
 13 12  1  0  0  0  0
 13  8  2  0  0  0  0
 14  8  1  0  0  0  0
 17  4  1  0  0  0  0
 18 17  1  0  0  0  0
 18 23  1  0  0  0  0
 19 18  2  0  0  0  0
 20 21  2  0  0  0  0
 20 19  1  0  0  0  0
 21 22  1  0  0  0  0
 22 17  2  0  0  0  0
 24 19  1  0  0  0  0
 25 26  2  0  0  0  0
 25 21  1  0  0  0  0
 27 25  1  0  0  0  0
 28 27  1  0  0  0  0
 29 28  1  0  0  0  0
 29 27  1  0  0  0  0
M  END
>  <minimizedAffinity>
-5.71186781

>  <minimizedRMSD>
0.358893871

$$$$
