
 OpenBabel03212520513D

 29 32  0  0  1  0  0  0  0  0999 V2000
   41.6700   83.8230   61.4540 C   0  0  0  0  0  0  0  0  0  0  0  0
   41.0220   84.1880   62.5910 C   0  0  0  0  0  0  0  0  0  0  0  0
   40.5480   83.2400   63.5000 C   0  0  0  0  0  0  0  0  0  0  0  0
   40.7300   81.9290   63.2560 N   0  0  0  0  0  0  0  0  0  0  0  0
   41.3780   81.5860   62.1200 C   0  0  0  0  0  0  0  0  0  0  0  0
   41.8420   82.4920   61.2330 N   0  0  0  0  0  0  0  0  0  0  0  0
   40.8870   85.2470   62.7670 H   0  0  0  0  0  0  0  0  0  0  0  0
   40.0380   83.5880   64.3900 H   0  0  0  0  0  0  0  0  0  0  0  0
   43.6500   86.4750   59.8890 C   0  0  0  0  0  0  0  0  0  0  0  0
   43.0680   86.5790   58.6350 C   0  0  0  0  0  0  0  0  0  0  0  0
   41.9900   85.7470   58.3040 C   0  0  0  0  0  0  0  0  0  0  0  0
   41.5780   84.8640   59.2730 N   0  0  0  0  0  0  0  0  0  0  0  0
   42.1690   84.7920   60.4800 C   0  0  0  0  0  0  0  0  0  0  0  0
   43.2030   85.5850   60.8090 N   0  0  0  0  0  0  0  0  0  0  0  0
   44.7240   87.3670   60.0770 N   0  0  0  0  0  0  0  0  0  0  0  0
   43.3860   87.2720   57.8650 H   0  0  0  0  0  0  0  0  0  0  0  0
   41.4950   85.7700   57.3660 H   0  0  0  0  0  0  0  0  0  0  0  0
   44.7060   88.3580   59.7510 H   0  0  0  0  0  0  0  0  0  0  0  0
   45.5780   86.9790   60.5810 H   0  0  0  0  0  0  0  0  0  0  0  0
   41.5450   80.1070   61.8860 C   0  0  1  0  0  0  0  0  0  0  0  0
   40.6490   79.1450   62.4860 C   0  0  0  0  0  0  0  0  0  0  0  0
   40.3590   79.5340   61.0790 C   0  0  2  0  0  0  0  0  0  0  0  0
   42.5480   79.7780   61.5410 H   0  0  0  0  0  0  0  0  0  0  0  0
   39.8680   79.4310   63.2370 H   0  0  0  0  0  0  0  0  0  0  0  0
   40.9820   78.1060   62.6500 H   0  0  0  0  0  0  0  0  0  0  0  0
   39.4840   80.1720   60.9010 H   0  0  0  0  0  0  0  0  0  0  0  0
   40.7430   78.6850   59.9260 C   0  0  0  0  0  3  0  0  0  0  0  0
   39.6800   77.6440   59.5380 C   0  0  0  0  0  2  0  0  0  0  0  0
   40.1690   78.7350   58.5850 C   0  0  0  0  0  2  0  0  0  0  0  0
  1  2  1  0  0  0  0
  2  7  1  0  0  0  0
  2  3  2  0  0  0  0
  3  8  1  0  0  0  0
  4  3  1  0  0  0  0
  5  4  2  0  0  0  0
  6  1  2  0  0  0  0
  6  5  1  0  0  0  0
  9 15  1  0  0  0  0
  9 14  1  0  0  0  0
 10  9  2  0  0  0  0
 11 10  1  0  0  0  0
 11 12  2  0  0  0  0
 12 13  1  0  0  0  0
 13 14  2  0  0  0  0
 13  1  1  0  0  0  0
 15 19  1  0  0  0  0
 16 10  1  0  0  0  0
 17 11  1  0  0  0  0
 18 15  1  0  0  0  0
 20 23  1  6  0  0  0
 20  5  1  0  0  0  0
 20 21  1  0  0  0  0
 21 25  1  0  0  0  0
 21 24  1  0  0  0  0
 22 26  1  6  0  0  0
 22 20  1  0  0  0  0
 22 21  1  0  0  0  0
 27 22  1  0  0  0  0
 28 27  1  0  0  0  0
 29 28  1  0  0  0  0
 29 27  1  0  0  0  0
M  END
>  <minimizedAffinity>
-5.16185093

>  <minimizedRMSD>
0.538147151

$$$$
