
 OpenBabel03212521073D

 30 33  0  0  0  0  0  0  0  0999 V2000
   41.8460   84.2410   61.5770 C   0  0  0  0  0  0  0  0  0  0  0  0
   41.4790   83.9730   62.8870 C   0  0  0  0  0  0  0  0  0  0  0  0
   40.2010   83.5500   63.2190 C   0  0  0  0  0  0  0  0  0  0  0  0
   39.2590   83.3920   62.2080 C   0  0  0  0  0  0  0  0  0  0  0  0
   39.6180   83.6600   60.8860 C   0  0  0  0  0  0  0  0  0  0  0  0
   40.8910   84.0770   60.5760 C   0  0  0  0  0  0  0  0  0  0  0  0
   42.1760   84.0800   63.7200 H   0  0  0  0  0  0  0  0  0  0  0  0
   39.8920   83.3360   64.2340 H   0  0  0  0  0  0  0  0  0  0  0  0
   38.2680   83.0660   62.4620 H   0  0  0  0  0  0  0  0  0  0  0  0
   38.8940   83.5400   60.0850 H   0  0  0  0  0  0  0  0  0  0  0  0
   45.3810   84.1680   60.6920 C   0  0  0  0  0  0  0  0  0  0  0  0
   45.7580   85.4980   60.7400 C   0  0  0  0  0  0  0  0  0  0  0  0
   44.7670   86.4490   61.0870 C   0  0  0  0  0  0  0  0  0  0  0  0
   43.5120   86.0030   61.3510 N   0  0  0  0  0  0  0  0  0  0  0  0
   43.1910   84.6770   61.2900 C   0  0  0  0  0  0  0  0  0  0  0  0
   44.1250   83.7920   60.9630 N   0  0  0  0  0  0  0  0  0  0  0  0
   46.1750   83.5040   60.4240 H   0  0  0  0  0  0  0  0  0  0  0  0
   46.7660   85.8430   60.5260 H   0  0  0  0  0  0  0  0  0  0  0  0
   45.0520   87.4830   61.1260 H   0  0  0  0  0  0  0  0  0  0  0  0
   41.2210   84.3430   59.1930 C   0  0  0  0  0  0  0  0  0  0  0  0
   40.7970   85.6040   58.7890 C   0  0  0  0  0  0  0  0  0  0  0  0
   41.0160   86.0610   57.4930 C   0  0  0  0  0  0  0  0  0  0  0  0
   41.6550   85.2250   56.6510 N   0  0  0  0  0  0  0  0  0  0  0  0
   42.0660   83.9960   57.0480 C   0  0  0  0  0  0  0  0  0  0  0  0
   41.8570   83.5490   58.3010 N   0  0  0  0  0  0  0  0  0  0  0  0
   40.2720   86.3360   59.4210 H   0  0  0  0  0  0  0  0  0  0  0  0
   40.6960   87.0370   57.1570 H   0  0  0  0  0  0  0  0  0  0  0  0
   42.7670   83.1030   56.0950 C   0  0  0  0  0  3  0  0  0  0  0  0
   41.8570   82.1700   55.2940 C   0  0  0  0  0  2  0  0  0  0  0  0
   42.8400   81.6560   56.2690 C   0  0  0  0  0  2  0  0  0  0  0  0
  1  2  1  0  0  0  0
  2  3  2  0  0  0  0
  2  7  1  0  0  0  0
  3  8  1  0  0  0  0
  4  9  1  0  0  0  0
  4  3  1  0  0  0  0
  5  4  2  0  0  0  0
  6  5  1  0  0  0  0
  6  1  2  0  0  0  0
 10  5  1  0  0  0  0
 11 12  2  0  0  0  0
 11 16  1  0  0  0  0
 12 13  1  0  0  0  0
 13 19  1  0  0  0  0
 13 14  2  0  0  0  0
 15 14  1  0  0  0  0
 15  1  1  0  0  0  0
 16 15  2  0  0  0  0
 17 11  1  0  0  0  0
 18 12  1  0  0  0  0
 20  6  1  0  0  0  0
 21 20  1  0  0  0  0
 21 26  1  0  0  0  0
 22 21  2  0  0  0  0
 23 24  2  0  0  0  0
 23 22  1  0  0  0  0
 24 25  1  0  0  0  0
 25 20  2  0  0  0  0
 27 22  1  0  0  0  0
 28 30  1  0  0  0  0
 28 24  1  0  0  0  0
 29 28  1  0  0  0  0
 29 30  1  0  0  0  0
M  END
>  <minimizedAffinity>
-5.30397892

>  <minimizedRMSD>
0.33882463

$$$$
