
 OpenBabel03212520503D

 22 24  0  0  0  0  0  0  0  0999 V2000
   38.0490   75.2160   54.4590 C   0  0  0  0  0  0  0  0  0  0  0  0
   36.9470   76.0190   54.1510 C   0  0  0  0  0  0  0  0  0  0  0  0
   36.5510   77.0170   55.0380 C   0  0  0  0  0  0  0  0  0  0  0  0
   37.2900   77.1410   56.1780 N   0  0  0  0  0  0  0  0  0  0  0  0
   38.3410   76.3650   56.4540 C   0  0  0  0  0  0  0  0  0  0  0  0
   38.7250   75.4070   55.6100 N   0  0  0  0  0  0  0  0  0  0  0  0
   38.3270   74.2480   53.4610 N   0  0  0  0  0  0  0  0  0  0  0  0
   36.3540   75.9310   53.2560 H   0  0  0  0  0  0  0  0  0  0  0  0
   35.7120   77.6520   54.8370 H   0  0  0  0  0  0  0  0  0  0  0  0
   37.9980   73.2690   53.6110 H   0  0  0  0  0  0  0  0  0  0  0  0
   38.8430   74.7750   52.7360 H   0  0  0  0  0  0  0  0  0  0  0  0
   39.0760   76.5700   57.7020 C   0  0  0  0  0  0  0  0  0  0  0  0
   40.1120   77.4590   57.8070 C   0  0  0  0  0  0  0  0  0  0  0  0
   40.7970   77.6350   59.0110 C   0  0  0  0  0  0  0  0  0  0  0  0
   40.4410   76.9260   60.0930 N   0  0  0  0  0  0  0  0  0  0  0  0
   39.4230   76.0580   59.9760 C   0  0  0  0  0  0  0  0  0  0  0  0
   38.7490   75.8760   58.8140 N   0  0  0  0  0  0  0  0  0  0  0  0
   40.3930   78.0310   56.9240 H   0  0  0  0  0  0  0  0  0  0  0  0
   41.6090   78.3520   59.0400 H   0  0  0  0  0  0  0  0  0  0  0  0
   39.0710   75.2940   61.2170 C   0  0  0  0  0  3  0  0  0  0  0  0
   38.0900   74.2090   61.1630 C   0  0  0  0  0  2  0  0  0  0  0  0
   39.5220   73.8290   61.1320 C   0  0  0  0  0  2  0  0  0  0  0  0
  1  6  1  0  0  0  0
  2  1  2  0  0  0  0
  2  3  1  0  0  0  0
  3  4  2  0  0  0  0
  4  5  1  0  0  0  0
  5 12  1  0  0  0  0
  6  5  2  0  0  0  0
  7 10  1  0  0  0  0
  7  1  1  0  0  0  0
  8  2  1  0  0  0  0
  9  3  1  0  0  0  0
 11  7  1  0  0  0  0
 12 13  2  0  0  0  0
 12 17  1  0  0  0  0
 13 14  1  0  0  0  0
 14 19  1  0  0  0  0
 14 15  2  0  0  0  0
 16 15  1  0  0  0  0
 16 20  1  0  0  0  0
 17 16  2  0  0  0  0
 18 13  1  0  0  0  0
 21 20  1  0  0  0  0
 22 21  1  0  0  0  0
 22 20  1  0  0  0  0
M  END
>  <minimizedAffinity>
-5.18100691

$$$$

 OpenBabel03212520503D

 22 24  0  0  0  0  0  0  0  0999 V2000
   37.0010   75.5490   54.3410 C   0  0  0  0  0  0  0  0  0  0  0  0
   36.5150   76.8580   54.3890 C   0  0  0  0  0  0  0  0  0  0  0  0
   36.7320   77.6330   55.5260 C   0  0  0  0  0  0  0  0  0  0  0  0
   37.4240   77.0390   56.5400 N   0  0  0  0  0  0  0  0  0  0  0  0
   37.8810   75.7870   56.4750 C   0  0  0  0  0  0  0  0  0  0  0  0
   37.6780   75.0380   55.3900 N   0  0  0  0  0  0  0  0  0  0  0  0
   36.7020   74.8890   53.1220 N   0  0  0  0  0  0  0  0  0  0  0  0
   35.9670   77.3390   53.5960 H   0  0  0  0  0  0  0  0  0  0  0  0
   36.3740   78.6410   55.6000 H   0  0  0  0  0  0  0  0  0  0  0  0
   35.8920   74.2310   53.0970 H   0  0  0  0  0  0  0  0  0  0  0  0
   37.4190   75.2390   52.4630 H   0  0  0  0  0  0  0  0  0  0  0  0
   38.6150   75.2310   57.6120 C   0  0  0  0  0  0  0  0  0  0  0  0
   38.0350   74.3830   58.5170 C   0  0  0  0  0  0  0  0  0  0  0  0
   38.7590   73.8660   59.5930 C   0  0  0  0  0  0  0  0  0  0  0  0
   40.0500   74.1990   59.7530 N   0  0  0  0  0  0  0  0  0  0  0  0
   40.6060   75.0320   58.8580 C   0  0  0  0  0  0  0  0  0  0  0  0
   39.9150   75.5410   57.8080 N   0  0  0  0  0  0  0  0  0  0  0  0
   36.9880   74.1170   58.3790 H   0  0  0  0  0  0  0  0  0  0  0  0
   38.2520   73.1990   60.2800 H   0  0  0  0  0  0  0  0  0  0  0  0
   42.0480   75.3680   59.0870 C   0  0  0  0  0  3  0  0  0  0  0  0
   42.8040   76.1060   58.0750 C   0  0  0  0  0  2  0  0  0  0  0  0
   42.2670   76.8820   59.2180 C   0  0  0  0  0  2  0  0  0  0  0  0
  1  2  2  0  0  0  0
  1  6  1  0  0  0  0
  2  3  1  0  0  0  0
  3  9  1  0  0  0  0
  3  4  2  0  0  0  0
  5  4  1  0  0  0  0
  5 12  1  0  0  0  0
  6  5  2  0  0  0  0
  7  1  1  0  0  0  0
  8  2  1  0  0  0  0
 10  7  1  0  0  0  0
 11  7  1  0  0  0  0
 12 17  2  0  0  0  0
 12 13  1  0  0  0  0
 13 14  2  0  0  0  0
 14 15  1  0  0  0  0
 14 19  1  0  0  0  0
 16 20  1  0  0  0  0
 16 15  2  0  0  0  0
 17 16  1  0  0  0  0
 18 13  1  0  0  0  0
 20 22  1  0  0  0  0
 21 20  1  0  0  0  0
 21 22  1  0  0  0  0
M  END
>  <minimizedAffinity>
-5.05234528

$$$$

 OpenBabel03212520503D

 22 24  0  0  0  0  0  0  0  0999 V2000
   37.0140   75.6010   54.2140 C   0  0  0  0  0  0  0  0  0  0  0  0
   36.4770   76.8610   54.4920 C   0  0  0  0  0  0  0  0  0  0  0  0
   36.9180   77.5670   55.6090 C   0  0  0  0  0  0  0  0  0  0  0  0
   37.8690   76.9570   56.3740 N   0  0  0  0  0  0  0  0  0  0  0  0
   38.3690   75.7520   56.0910 C   0  0  0  0  0  0  0  0  0  0  0  0
   37.9530   75.0710   55.0230 N   0  0  0  0  0  0  0  0  0  0  0  0
   36.4670   75.0090   53.0470 N   0  0  0  0  0  0  0  0  0  0  0  0
   35.7260   77.3540   53.8980 H   0  0  0  0  0  0  0  0  0  0  0  0
   36.5300   78.5350   55.8550 H   0  0  0  0  0  0  0  0  0  0  0  0
   35.7150   74.2930   53.1560 H   0  0  0  0  0  0  0  0  0  0  0  0
   36.9810   75.4620   52.2710 H   0  0  0  0  0  0  0  0  0  0  0  0
   39.3880   75.1750   56.9680 C   0  0  0  0  0  0  0  0  0  0  0  0
   40.5120   74.5600   56.4830 C   0  0  0  0  0  0  0  0  0  0  0  0
   41.4690   74.0180   57.3440 C   0  0  0  0  0  0  0  0  0  0  0  0
   41.2950   74.0960   58.6730 N   0  0  0  0  0  0  0  0  0  0  0  0
   40.1890   74.7010   59.1340 C   0  0  0  0  0  0  0  0  0  0  0  0
   39.2520   75.2330   58.3110 N   0  0  0  0  0  0  0  0  0  0  0  0
   40.6440   74.5020   55.4050 H   0  0  0  0  0  0  0  0  0  0  0  0
   42.3390   73.5420   56.9080 H   0  0  0  0  0  0  0  0  0  0  0  0
   40.0500   74.7590   60.6250 C   0  0  0  0  0  3  0  0  0  0  0  0
   38.7370   74.9700   61.2360 C   0  0  0  0  0  2  0  0  0  0  0  0
   39.2350   73.5760   61.1670 C   0  0  0  0  0  2  0  0  0  0  0  0
  1  2  2  0  0  0  0
  1  6  1  0  0  0  0
  2  3  1  0  0  0  0
  3  9  1  0  0  0  0
  3  4  2  0  0  0  0
  5  4  1  0  0  0  0
  5 12  1  0  0  0  0
  6  5  2  0  0  0  0
  7 10  1  0  0  0  0
  7  1  1  0  0  0  0
  8  2  1  0  0  0  0
 11  7  1  0  0  0  0
 12 17  1  0  0  0  0
 13 12  2  0  0  0  0
 13 14  1  0  0  0  0
 14 15  2  0  0  0  0
 15 16  1  0  0  0  0
 16 20  1  0  0  0  0
 17 16  2  0  0  0  0
 18 13  1  0  0  0  0
 19 14  1  0  0  0  0
 20 22  1  0  0  0  0
 20 21  1  0  0  0  0
 22 21  1  0  0  0  0
M  END
>  <minimizedAffinity>
-4.90660381

$$$$

 OpenBabel03212520503D

 22 24  0  0  0  0  0  0  0  0999 V2000
   42.9440   70.5870   61.1610 C   0  0  0  0  0  0  0  0  0  0  0  0
   42.7570   70.0580   62.4410 C   0  0  0  0  0  0  0  0  0  0  0  0
   41.8200   70.6360   63.2950 C   0  0  0  0  0  0  0  0  0  0  0  0
   41.1360   71.7100   62.8040 N   0  0  0  0  0  0  0  0  0  0  0  0
   41.3290   72.1990   61.5780 C   0  0  0  0  0  0  0  0  0  0  0  0
   42.2230   71.6510   60.7550 N   0  0  0  0  0  0  0  0  0  0  0  0
   43.9280   69.8930   60.4120 N   0  0  0  0  0  0  0  0  0  0  0  0
   43.2910   69.2120   62.8410 H   0  0  0  0  0  0  0  0  0  0  0  0
   41.6490   70.2590   64.2830 H   0  0  0  0  0  0  0  0  0  0  0  0
   44.8880   70.2980   60.3530 H   0  0  0  0  0  0  0  0  0  0  0  0
   43.4310   69.0580   60.0550 H   0  0  0  0  0  0  0  0  0  0  0  0
   40.5480   73.3540   61.1350 C   0  0  0  0  0  0  0  0  0  0  0  0
   39.1860   73.4120   61.2610 C   0  0  0  0  0  0  0  0  0  0  0  0
   38.4650   74.5280   60.8310 C   0  0  0  0  0  0  0  0  0  0  0  0
   39.1090   75.5700   60.2820 N   0  0  0  0  0  0  0  0  0  0  0  0
   40.4440   75.5000   60.1650 C   0  0  0  0  0  0  0  0  0  0  0  0
   41.1580   74.4240   60.5780 N   0  0  0  0  0  0  0  0  0  0  0  0
   38.6720   72.5630   61.7080 H   0  0  0  0  0  0  0  0  0  0  0  0
   37.3880   74.5230   60.9540 H   0  0  0  0  0  0  0  0  0  0  0  0
   41.1090   76.6920   59.5450 C   0  0  0  0  0  3  0  0  0  0  0  0
   42.4810   76.5960   59.0450 C   0  0  0  0  0  2  0  0  0  0  0  0
   41.3880   76.4770   58.0510 C   0  0  0  0  0  2  0  0  0  0  0  0
  1  2  1  0  0  0  0
  2  8  1  0  0  0  0
  2  3  2  0  0  0  0
  3  9  1  0  0  0  0
  4  3  1  0  0  0  0
  5  4  2  0  0  0  0
  6  1  2  0  0  0  0
  6  5  1  0  0  0  0
  7  1  1  0  0  0  0
 10  7  1  0  0  0  0
 11  7  1  0  0  0  0
 12 13  1  0  0  0  0
 12  5  1  0  0  0  0
 13 18  1  0  0  0  0
 14 19  1  0  0  0  0
 14 13  2  0  0  0  0
 15 14  1  0  0  0  0
 16 15  2  0  0  0  0
 16 17  1  0  0  0  0
 17 12  2  0  0  0  0
 20 16  1  0  0  0  0
 21 20  1  0  0  0  0
 22 21  1  0  0  0  0
 22 20  1  0  0  0  0
M  END
>  <minimizedAffinity>
-4.84226847

$$$$

 OpenBabel03212520503D

 22 24  0  0  0  0  0  0  0  0999 V2000
   38.3960   74.7610   58.0760 C   0  0  0  0  0  0  0  0  0  0  0  0
   38.2850   76.1430   57.8980 C   0  0  0  0  0  0  0  0  0  0  0  0
   39.3260   76.9750   58.3030 C   0  0  0  0  0  0  0  0  0  0  0  0
   40.4090   76.3620   58.8630 N   0  0  0  0  0  0  0  0  0  0  0  0
   40.4950   75.0400   59.0240 C   0  0  0  0  0  0  0  0  0  0  0  0
   39.5040   74.2360   58.6380 N   0  0  0  0  0  0  0  0  0  0  0  0
   37.2590   74.0480   57.6160 N   0  0  0  0  0  0  0  0  0  0  0  0
   37.4370   76.6400   57.4590 H   0  0  0  0  0  0  0  0  0  0  0  0
   39.2780   78.0390   58.1820 H   0  0  0  0  0  0  0  0  0  0  0  0
   36.5460   73.7420   58.3140 H   0  0  0  0  0  0  0  0  0  0  0  0
   37.4000   73.9840   56.5930 H   0  0  0  0  0  0  0  0  0  0  0  0
   41.6960   74.4690   59.6330 C   0  0  0  0  0  0  0  0  0  0  0  0
   42.9580   74.7870   59.2080 C   0  0  0  0  0  0  0  0  0  0  0  0
   44.0880   74.2270   59.8090 C   0  0  0  0  0  0  0  0  0  0  0  0
   43.9460   73.3600   60.8240 N   0  0  0  0  0  0  0  0  0  0  0  0
   42.7030   73.0580   61.2310 C   0  0  0  0  0  0  0  0  0  0  0  0
   41.5970   73.5930   60.6580 N   0  0  0  0  0  0  0  0  0  0  0  0
   43.0640   75.4910   58.3850 H   0  0  0  0  0  0  0  0  0  0  0  0
   45.0630   74.5120   59.4340 H   0  0  0  0  0  0  0  0  0  0  0  0
   42.6060   72.0860   62.3670 C   0  0  0  0  0  3  0  0  0  0  0  0
   41.3250   71.4590   62.6970 C   0  0  0  0  0  2  0  0  0  0  0  0
   42.2750   70.6690   61.8790 C   0  0  0  0  0  2  0  0  0  0  0  0
  1  6  1  0  0  0  0
  2  1  2  0  0  0  0
  2  3  1  0  0  0  0
  3  4  2  0  0  0  0
  4  5  1  0  0  0  0
  5 12  1  0  0  0  0
  6  5  2  0  0  0  0
  7  1  1  0  0  0  0
  7 10  1  0  0  0  0
  8  2  1  0  0  0  0
  9  3  1  0  0  0  0
 11  7  1  0  0  0  0
 12 17  1  0  0  0  0
 13 12  2  0  0  0  0
 13 14  1  0  0  0  0
 14 15  2  0  0  0  0
 15 16  1  0  0  0  0
 16 20  1  0  0  0  0
 17 16  2  0  0  0  0
 18 13  1  0  0  0  0
 19 14  1  0  0  0  0
 20 21  1  0  0  0  0
 22 20  1  0  0  0  0
 22 21  1  0  0  0  0
M  END
>  <minimizedAffinity>
-4.81132555

$$$$

 OpenBabel03212520503D

 22 24  0  0  0  0  0  0  0  0999 V2000
   43.5920   69.3810   61.9340 C   0  0  0  0  0  0  0  0  0  0  0  0
   42.7870   69.1510   63.0530 C   0  0  0  0  0  0  0  0  0  0  0  0
   41.8820   70.1270   63.4630 C   0  0  0  0  0  0  0  0  0  0  0  0
   41.8490   71.2720   62.7220 N   0  0  0  0  0  0  0  0  0  0  0  0
   42.6270   71.4730   61.6560 C   0  0  0  0  0  0  0  0  0  0  0  0
   43.4950   70.5430   61.2560 N   0  0  0  0  0  0  0  0  0  0  0  0
   44.4600   68.2980   61.6420 N   0  0  0  0  0  0  0  0  0  0  0  0
   42.8030   68.2530   63.6470 H   0  0  0  0  0  0  0  0  0  0  0  0
   41.2480   69.9870   64.3160 H   0  0  0  0  0  0  0  0  0  0  0  0
   45.4540   68.3570   61.9520 H   0  0  0  0  0  0  0  0  0  0  0  0
   43.8580   67.6230   61.1390 H   0  0  0  0  0  0  0  0  0  0  0  0
   42.5230   72.7320   60.9190 C   0  0  0  0  0  0  0  0  0  0  0  0
   43.6090   73.3440   60.3530 C   0  0  0  0  0  0  0  0  0  0  0  0
   43.4810   74.5460   59.6540 C   0  0  0  0  0  0  0  0  0  0  0  0
   42.2750   75.1220   59.5270 N   0  0  0  0  0  0  0  0  0  0  0  0
   41.2190   74.5110   60.0880 C   0  0  0  0  0  0  0  0  0  0  0  0
   41.3280   73.3440   60.7690 N   0  0  0  0  0  0  0  0  0  0  0  0
   44.5830   72.8700   60.4600 H   0  0  0  0  0  0  0  0  0  0  0  0
   44.3730   74.9880   59.2250 H   0  0  0  0  0  0  0  0  0  0  0  0
   39.8990   75.1990   59.9140 C   0  0  0  0  0  3  0  0  0  0  0  0
   38.9110   75.1850   60.9940 C   0  0  0  0  0  2  0  0  0  0  0  0
   39.7520   76.3980   60.8610 C   0  0  0  0  0  2  0  0  0  0  0  0
  1  2  1  0  0  0  0
  2  3  2  0  0  0  0
  2  8  1  0  0  0  0
  3  9  1  0  0  0  0
  4  3  1  0  0  0  0
  5  4  2  0  0  0  0
  6  5  1  0  0  0  0
  6  1  2  0  0  0  0
  7  1  1  0  0  0  0
  7 10  1  0  0  0  0
 11  7  1  0  0  0  0
 12  5  1  0  0  0  0
 13 18  1  0  0  0  0
 13 12  2  0  0  0  0
 14 13  1  0  0  0  0
 15 14  2  0  0  0  0
 15 16  1  0  0  0  0
 16 17  2  0  0  0  0
 17 12  1  0  0  0  0
 19 14  1  0  0  0  0
 20 16  1  0  0  0  0
 20 22  1  0  0  0  0
 20 21  1  0  0  0  0
 22 21  1  0  0  0  0
M  END
>  <minimizedAffinity>
-4.73226976

$$$$

 OpenBabel03212520503D

 22 24  0  0  0  0  0  0  0  0999 V2000
   39.4940   74.8230   60.9350 C   0  0  0  0  0  0  0  0  0  0  0  0
   39.6960   75.1450   59.5890 C   0  0  0  0  0  0  0  0  0  0  0  0
   40.4850   74.3170   58.7940 C   0  0  0  0  0  0  0  0  0  0  0  0
   41.0210   73.2210   59.4050 N   0  0  0  0  0  0  0  0  0  0  0  0
   40.8150   72.9310   60.6920 C   0  0  0  0  0  0  0  0  0  0  0  0
   40.0610   73.7180   61.4600 N   0  0  0  0  0  0  0  0  0  0  0  0
   38.6710   75.7580   61.6120 N   0  0  0  0  0  0  0  0  0  0  0  0
   39.2810   76.0060   59.0950 H   0  0  0  0  0  0  0  0  0  0  0  0
   40.6630   74.5310   57.7590 H   0  0  0  0  0  0  0  0  0  0  0  0
   39.1260   76.4870   62.2030 H   0  0  0  0  0  0  0  0  0  0  0  0
   37.7090   75.4860   61.3450 H   0  0  0  0  0  0  0  0  0  0  0  0
   41.4300   71.7330   61.2640 C   0  0  0  0  0  0  0  0  0  0  0  0
   41.7480   71.6320   62.5920 C   0  0  0  0  0  0  0  0  0  0  0  0
   42.3330   70.4750   63.1110 C   0  0  0  0  0  0  0  0  0  0  0  0
   42.5920   69.4350   62.3030 N   0  0  0  0  0  0  0  0  0  0  0  0
   42.2750   69.5480   61.0030 C   0  0  0  0  0  0  0  0  0  0  0  0
   41.7060   70.6640   60.4840 N   0  0  0  0  0  0  0  0  0  0  0  0
   41.5330   72.4800   63.2400 H   0  0  0  0  0  0  0  0  0  0  0  0
   42.5640   70.4480   64.1690 H   0  0  0  0  0  0  0  0  0  0  0  0
   42.5870   68.3560   60.1490 C   0  0  0  0  0  3  0  0  0  0  0  0
   42.4780   67.0040   60.6990 C   0  0  0  0  0  2  0  0  0  0  0  0
   41.3400   67.5000   59.8880 C   0  0  0  0  0  2  0  0  0  0  0  0
  1  6  1  0  0  0  0
  1  7  1  0  0  0  0
  2  1  2  0  0  0  0
  3  4  2  0  0  0  0
  3  2  1  0  0  0  0
  4  5  1  0  0  0  0
  5 12  1  0  0  0  0
  5  6  2  0  0  0  0
  7 10  1  0  0  0  0
  8  2  1  0  0  0  0
  9  3  1  0  0  0  0
 11  7  1  0  0  0  0
 12 13  1  0  0  0  0
 13 14  2  0  0  0  0
 13 18  1  0  0  0  0
 14 19  1  0  0  0  0
 15 14  1  0  0  0  0
 16 15  2  0  0  0  0
 17 16  1  0  0  0  0
 17 12  2  0  0  0  0
 20 21  1  0  0  0  0
 20 16  1  0  0  0  0
 22 20  1  0  0  0  0
 22 21  1  0  0  0  0
M  END
>  <minimizedAffinity>
-4.64473248

$$$$

 OpenBabel03212520503D

 22 24  0  0  0  0  0  0  0  0999 V2000
   37.6120   74.3610   57.4660 C   0  0  0  0  0  0  0  0  0  0  0  0
   37.8390   75.7400   57.4780 C   0  0  0  0  0  0  0  0  0  0  0  0
   38.8190   76.2700   58.3140 C   0  0  0  0  0  0  0  0  0  0  0  0
   39.5050   75.3760   59.0840 N   0  0  0  0  0  0  0  0  0  0  0  0
   39.2740   74.0620   59.0570 C   0  0  0  0  0  0  0  0  0  0  0  0
   38.3380   73.5470   58.2600 N   0  0  0  0  0  0  0  0  0  0  0  0
   36.5860   73.9750   56.5670 N   0  0  0  0  0  0  0  0  0  0  0  0
   37.3050   76.4560   56.8770 H   0  0  0  0  0  0  0  0  0  0  0  0
   39.0220   77.3210   58.3520 H   0  0  0  0  0  0  0  0  0  0  0  0
   35.6320   73.7890   56.9480 H   0  0  0  0  0  0  0  0  0  0  0  0
   37.0520   73.9630   55.6430 H   0  0  0  0  0  0  0  0  0  0  0  0
   40.0600   73.1770   59.9180 C   0  0  0  0  0  0  0  0  0  0  0  0
   40.0840   73.3090   61.2800 C   0  0  0  0  0  0  0  0  0  0  0  0
   40.8430   72.4500   62.0780 C   0  0  0  0  0  0  0  0  0  0  0  0
   41.5660   71.4720   61.5080 N   0  0  0  0  0  0  0  0  0  0  0  0
   41.5330   71.3540   60.1720 C   0  0  0  0  0  0  0  0  0  0  0  0
   40.8000   72.1810   59.3840 N   0  0  0  0  0  0  0  0  0  0  0  0
   39.4950   74.1040   61.7330 H   0  0  0  0  0  0  0  0  0  0  0  0
   40.8270   72.5970   63.1510 H   0  0  0  0  0  0  0  0  0  0  0  0
   42.3580   70.2460   59.5930 C   0  0  0  0  0  3  0  0  0  0  0  0
   42.3990   68.9360   60.2460 C   0  0  0  0  0  2  0  0  0  0  0  0
   41.4850   69.0880   59.0890 C   0  0  0  0  0  2  0  0  0  0  0  0
  1  2  2  0  0  0  0
  1  6  1  0  0  0  0
  2  3  1  0  0  0  0
  3  9  1  0  0  0  0
  3  4  2  0  0  0  0
  5  4  1  0  0  0  0
  5 12  1  0  0  0  0
  6  5  2  0  0  0  0
  7 10  1  0  0  0  0
  7  1  1  0  0  0  0
  8  2  1  0  0  0  0
 11  7  1  0  0  0  0
 12 13  1  0  0  0  0
 13 18  1  0  0  0  0
 13 14  2  0  0  0  0
 14 19  1  0  0  0  0
 15 14  1  0  0  0  0
 16 15  2  0  0  0  0
 17 12  2  0  0  0  0
 17 16  1  0  0  0  0
 20 16  1  0  0  0  0
 20 21  1  0  0  0  0
 22 20  1  0  0  0  0
 22 21  1  0  0  0  0
M  END
>  <minimizedAffinity>
-4.58790541

$$$$

 OpenBabel03212520503D

 22 24  0  0  0  0  0  0  0  0999 V2000
   38.2810   74.5650   54.9530 C   0  0  0  0  0  0  0  0  0  0  0  0
   37.2950   75.5510   54.8680 C   0  0  0  0  0  0  0  0  0  0  0  0
   36.8630   76.1970   56.0240 C   0  0  0  0  0  0  0  0  0  0  0  0
   37.4530   75.8050   57.1910 N   0  0  0  0  0  0  0  0  0  0  0  0
   38.3950   74.8620   57.2510 C   0  0  0  0  0  0  0  0  0  0  0  0
   38.8130   74.2390   56.1490 N   0  0  0  0  0  0  0  0  0  0  0  0
   38.6140   74.0010   53.6950 N   0  0  0  0  0  0  0  0  0  0  0  0
   36.8210   75.8690   53.9540 H   0  0  0  0  0  0  0  0  0  0  0  0
   36.1090   76.9570   55.9990 H   0  0  0  0  0  0  0  0  0  0  0  0
   38.1930   73.0830   53.4330 H   0  0  0  0  0  0  0  0  0  0  0  0
   39.2600   74.6910   53.2730 H   0  0  0  0  0  0  0  0  0  0  0  0
   38.9730   74.5070   58.5480 C   0  0  0  0  0  0  0  0  0  0  0  0
   38.2120   74.3650   59.6770 C   0  0  0  0  0  0  0  0  0  0  0  0
   38.7900   74.0250   60.9020 C   0  0  0  0  0  0  0  0  0  0  0  0
   40.1160   73.8290   60.9850 N   0  0  0  0  0  0  0  0  0  0  0  0
   40.8490   73.9720   59.8700 C   0  0  0  0  0  0  0  0  0  0  0  0
   40.3020   74.3010   58.6740 N   0  0  0  0  0  0  0  0  0  0  0  0
   37.1380   74.5240   59.6000 H   0  0  0  0  0  0  0  0  0  0  0  0
   38.1430   73.9250   61.7650 H   0  0  0  0  0  0  0  0  0  0  0  0
   42.3220   73.7420   60.0230 C   0  0  0  0  0  3  0  0  0  0  0  0
   42.8340   72.9530   61.1450 C   0  0  0  0  0  2  0  0  0  0  0  0
   42.6900   72.2620   59.8410 C   0  0  0  0  0  2  0  0  0  0  0  0
  1  6  1  0  0  0  0
  2  1  2  0  0  0  0
  2  3  1  0  0  0  0
  3  4  2  0  0  0  0
  4  5  1  0  0  0  0
  5 12  1  0  0  0  0
  6  5  2  0  0  0  0
  7  1  1  0  0  0  0
  8  2  1  0  0  0  0
  9  3  1  0  0  0  0
 10  7  1  0  0  0  0
 11  7  1  0  0  0  0
 12 17  2  0  0  0  0
 12 13  1  0  0  0  0
 13 14  2  0  0  0  0
 14 15  1  0  0  0  0
 14 19  1  0  0  0  0
 16 20  1  0  0  0  0
 16 15  2  0  0  0  0
 17 16  1  0  0  0  0
 18 13  1  0  0  0  0
 20 21  1  0  0  0  0
 22 20  1  0  0  0  0
 22 21  1  0  0  0  0
M  END
>  <minimizedAffinity>
-4.5560708

$$$$
