
 OpenBabel03212521083D

 30 33  0  0  0  0  0  0  0  0999 V2000
   39.1280   74.3410   58.6780 C   0  0  0  0  0  0  0  0  0  0  0  0
   37.9880   74.4510   57.8980 C   0  0  0  0  0  0  0  0  0  0  0  0
   37.5130   73.3930   57.1390 C   0  0  0  0  0  0  0  0  0  0  0  0
   38.2030   72.1840   57.1610 C   0  0  0  0  0  0  0  0  0  0  0  0
   39.3520   72.0630   57.9440 C   0  0  0  0  0  0  0  0  0  0  0  0
   39.8070   73.1230   58.6900 C   0  0  0  0  0  0  0  0  0  0  0  0
   37.4080   75.3740   57.8420 H   0  0  0  0  0  0  0  0  0  0  0  0
   36.6260   73.4560   56.5210 H   0  0  0  0  0  0  0  0  0  0  0  0
   37.8380   71.3620   56.5730 H   0  0  0  0  0  0  0  0  0  0  0  0
   39.9000   71.1260   57.9720 H   0  0  0  0  0  0  0  0  0  0  0  0
   39.6420   76.6310   61.4680 C   0  0  0  0  0  0  0  0  0  0  0  0
   40.4240   77.6350   60.9260 C   0  0  0  0  0  0  0  0  0  0  0  0
   40.7860   77.5220   59.5610 C   0  0  0  0  0  0  0  0  0  0  0  0
   40.3470   76.4410   58.8670 N   0  0  0  0  0  0  0  0  0  0  0  0
   39.5760   75.4760   59.4490 C   0  0  0  0  0  0  0  0  0  0  0  0
   39.2420   75.5890   60.7290 N   0  0  0  0  0  0  0  0  0  0  0  0
   39.4050   76.7760   62.5000 H   0  0  0  0  0  0  0  0  0  0  0  0
   40.7690   78.4950   61.4930 H   0  0  0  0  0  0  0  0  0  0  0  0
   41.3930   78.2970   59.1360 H   0  0  0  0  0  0  0  0  0  0  0  0
   41.0010   72.9550   59.4880 C   0  0  0  0  0  0  0  0  0  0  0  0
   42.1330   73.4370   58.8390 C   0  0  0  0  0  0  0  0  0  0  0  0
   43.3900   73.3720   59.4330 C   0  0  0  0  0  0  0  0  0  0  0  0
   43.4580   72.8210   60.6610 N   0  0  0  0  0  0  0  0  0  0  0  0
   42.3520   72.3520   61.2890 C   0  0  0  0  0  0  0  0  0  0  0  0
   41.1340   72.4120   60.7190 N   0  0  0  0  0  0  0  0  0  0  0  0
   42.1520   73.8970   57.8400 H   0  0  0  0  0  0  0  0  0  0  0  0
   44.2830   73.7400   58.9490 H   0  0  0  0  0  0  0  0  0  0  0  0
   42.4640   71.7520   62.6410 C   0  0  0  0  0  3  0  0  0  0  0  0
   42.7950   70.2600   62.6600 C   0  0  0  0  0  2  0  0  0  0  0  0
   41.5060   70.7800   63.1580 C   0  0  0  0  0  2  0  0  0  0  0  0
  1  6  1  0  0  0  0
  1 15  1  0  0  0  0
  2  1  2  0  0  0  0
  3  4  2  0  0  0  0
  3  2  1  0  0  0  0
  4  5  1  0  0  0  0
  5 10  1  0  0  0  0
  5  6  2  0  0  0  0
  6 20  1  0  0  0  0
  7  2  1  0  0  0  0
  8  3  1  0  0  0  0
  9  4  1  0  0  0  0
 11 17  1  0  0  0  0
 12 11  1  0  0  0  0
 12 18  1  0  0  0  0
 13 12  2  0  0  0  0
 14 15  2  0  0  0  0
 14 13  1  0  0  0  0
 15 16  1  0  0  0  0
 16 11  2  0  0  0  0
 19 13  1  0  0  0  0
 20 25  1  0  0  0  0
 21 22  1  0  0  0  0
 21 20  2  0  0  0  0
 22 23  2  0  0  0  0
 23 24  1  0  0  0  0
 24 28  1  0  0  0  0
 25 24  2  0  0  0  0
 26 21  1  0  0  0  0
 27 22  1  0  0  0  0
 28 29  1  0  0  0  0
 28 30  1  0  0  0  0
 29 30  1  0  0  0  0
M  END
>  <minimizedAffinity>
-5.46465683

$$$$

 OpenBabel03212521083D

 30 33  0  0  0  0  0  0  0  0999 V2000
   38.0270   75.3000   55.6200 C   0  0  0  0  0  0  0  0  0  0  0  0
   37.3050   75.3330   54.4370 C   0  0  0  0  0  0  0  0  0  0  0  0
   36.6620   76.4810   54.0010 C   0  0  0  0  0  0  0  0  0  0  0  0
   36.7440   77.6340   54.7750 C   0  0  0  0  0  0  0  0  0  0  0  0
   37.4680   77.6120   55.9680 C   0  0  0  0  0  0  0  0  0  0  0  0
   38.0990   76.4640   56.3840 C   0  0  0  0  0  0  0  0  0  0  0  0
   37.2070   74.4580   53.7910 H   0  0  0  0  0  0  0  0  0  0  0  0
   36.0920   76.5300   53.0820 H   0  0  0  0  0  0  0  0  0  0  0  0
   36.2460   78.5260   54.4410 H   0  0  0  0  0  0  0  0  0  0  0  0
   37.5410   78.5040   56.5830 H   0  0  0  0  0  0  0  0  0  0  0  0
   40.5530   72.7000   56.0090 C   0  0  0  0  0  0  0  0  0  0  0  0
   39.9230   71.7470   56.7890 C   0  0  0  0  0  0  0  0  0  0  0  0
   38.5900   72.0050   57.1930 C   0  0  0  0  0  0  0  0  0  0  0  0
   38.0100   73.1660   56.7940 N   0  0  0  0  0  0  0  0  0  0  0  0
   38.6760   74.0760   56.0240 C   0  0  0  0  0  0  0  0  0  0  0  0
   39.9260   73.8280   55.6500 N   0  0  0  0  0  0  0  0  0  0  0  0
   41.5560   72.4450   55.7390 H   0  0  0  0  0  0  0  0  0  0  0  0
   40.3980   70.8210   57.1010 H   0  0  0  0  0  0  0  0  0  0  0  0
   38.0960   71.2690   57.7980 H   0  0  0  0  0  0  0  0  0  0  0  0
   38.8390   76.4840   57.6260 C   0  0  0  0  0  0  0  0  0  0  0  0
   39.9920   77.2570   57.5330 C   0  0  0  0  0  0  0  0  0  0  0  0
   40.8500   77.4100   58.6180 C   0  0  0  0  0  0  0  0  0  0  0  0
   40.5120   76.7760   59.7580 N   0  0  0  0  0  0  0  0  0  0  0  0
   39.3880   76.0230   59.8440 C   0  0  0  0  0  0  0  0  0  0  0  0
   38.5550   75.8710   58.7970 N   0  0  0  0  0  0  0  0  0  0  0  0
   40.3280   77.8020   56.6380 H   0  0  0  0  0  0  0  0  0  0  0  0
   41.7500   78.0060   58.5700 H   0  0  0  0  0  0  0  0  0  0  0  0
   39.0480   75.3390   61.1150 C   0  0  0  0  0  3  0  0  0  0  0  0
   39.5820   73.9120   61.2440 C   0  0  0  0  0  2  0  0  0  0  0  0
   38.1360   74.2010   61.1830 C   0  0  0  0  0  2  0  0  0  0  0  0
  1 15  1  0  0  0  0
  1  6  1  0  0  0  0
  2  1  2  0  0  0  0
  3  2  1  0  0  0  0
  3  4  2  0  0  0  0
  4  5  1  0  0  0  0
  5  6  2  0  0  0  0
  5 10  1  0  0  0  0
  6 20  1  0  0  0  0
  7  2  1  0  0  0  0
  8  3  1  0  0  0  0
  9  4  1  0  0  0  0
 11 12  1  0  0  0  0
 12 18  1  0  0  0  0
 12 13  2  0  0  0  0
 13 19  1  0  0  0  0
 14 13  1  0  0  0  0
 15 14  2  0  0  0  0
 16 11  2  0  0  0  0
 16 15  1  0  0  0  0
 17 11  1  0  0  0  0
 20 25  1  0  0  0  0
 21 20  2  0  0  0  0
 21 22  1  0  0  0  0
 22 23  2  0  0  0  0
 23 24  1  0  0  0  0
 24 28  1  0  0  0  0
 25 24  2  0  0  0  0
 26 21  1  0  0  0  0
 27 22  1  0  0  0  0
 28 30  1  0  0  0  0
 28 29  1  0  0  0  0
 30 29  1  0  0  0  0
M  END
>  <minimizedAffinity>
-5.4026742

$$$$

 OpenBabel03212521083D

 30 33  0  0  0  0  0  0  0  0999 V2000
   41.7560   71.2230   60.3470 C   0  0  0  0  0  0  0  0  0  0  0  0
   42.3840   70.0500   60.7390 C   0  0  0  0  0  0  0  0  0  0  0  0
   42.6020   69.7460   62.0730 C   0  0  0  0  0  0  0  0  0  0  0  0
   42.1800   70.6450   63.0480 C   0  0  0  0  0  0  0  0  0  0  0  0
   41.5470   71.8280   62.6640 C   0  0  0  0  0  0  0  0  0  0  0  0
   41.3380   72.1120   61.3360 C   0  0  0  0  0  0  0  0  0  0  0  0
   42.7360   69.3100   60.0180 H   0  0  0  0  0  0  0  0  0  0  0  0
   43.0910   68.8380   62.4030 H   0  0  0  0  0  0  0  0  0  0  0  0
   42.3480   70.4120   64.0830 H   0  0  0  0  0  0  0  0  0  0  0  0
   41.2110   72.5390   63.4130 H   0  0  0  0  0  0  0  0  0  0  0  0
   42.3610   72.3010   56.9180 C   0  0  0  0  0  0  0  0  0  0  0  0
   41.1810   71.9950   56.2660 C   0  0  0  0  0  0  0  0  0  0  0  0
   40.1450   71.4000   57.0280 C   0  0  0  0  0  0  0  0  0  0  0  0
   40.3690   71.1660   58.3460 N   0  0  0  0  0  0  0  0  0  0  0  0
   41.5540   71.4870   58.9430 C   0  0  0  0  0  0  0  0  0  0  0  0
   42.5210   72.0440   58.2220 N   0  0  0  0  0  0  0  0  0  0  0  0
   43.1010   72.7470   56.2870 H   0  0  0  0  0  0  0  0  0  0  0  0
   41.0130   72.1870   55.2100 H   0  0  0  0  0  0  0  0  0  0  0  0
   39.2260   71.1600   56.5270 H   0  0  0  0  0  0  0  0  0  0  0  0
   40.6780   73.3490   60.9810 C   0  0  0  0  0  0  0  0  0  0  0  0
   39.3140   73.3070   61.2490 C   0  0  0  0  0  0  0  0  0  0  0  0
   38.4900   74.3960   60.9810 C   0  0  0  0  0  0  0  0  0  0  0  0
   39.0750   75.4890   60.4530 N   0  0  0  0  0  0  0  0  0  0  0  0
   40.4050   75.5260   60.1930 C   0  0  0  0  0  0  0  0  0  0  0  0
   41.2070   74.4750   60.4500 N   0  0  0  0  0  0  0  0  0  0  0  0
   38.7710   72.4520   61.6790 H   0  0  0  0  0  0  0  0  0  0  0  0
   37.4280   74.3870   61.1810 H   0  0  0  0  0  0  0  0  0  0  0  0
   41.0150   76.7460   59.6120 C   0  0  0  0  0  3  0  0  0  0  0  0
   41.2870   76.6790   58.1090 C   0  0  0  0  0  2  0  0  0  0  0  0
   42.3800   76.7810   59.0960 C   0  0  0  0  0  2  0  0  0  0  0  0
  1  2  2  0  0  0  0
  1  6  1  0  0  0  0
  2  3  1  0  0  0  0
  3  8  1  0  0  0  0
  3  4  2  0  0  0  0
  4  9  1  0  0  0  0
  5  4  1  0  0  0  0
  5 10  1  0  0  0  0
  6  5  2  0  0  0  0
  7  2  1  0  0  0  0
 11 16  1  0  0  0  0
 12 11  2  0  0  0  0
 12 13  1  0  0  0  0
 13 14  2  0  0  0  0
 14 15  1  0  0  0  0
 15  1  1  0  0  0  0
 16 15  2  0  0  0  0
 17 11  1  0  0  0  0
 18 12  1  0  0  0  0
 19 13  1  0  0  0  0
 20 21  1  0  0  0  0
 20  6  1  0  0  0  0
 21 26  1  0  0  0  0
 22 27  1  0  0  0  0
 22 21  2  0  0  0  0
 23 22  1  0  0  0  0
 24 25  1  0  0  0  0
 24 23  2  0  0  0  0
 25 20  2  0  0  0  0
 28 24  1  0  0  0  0
 29 30  1  0  0  0  0
 29 28  1  0  0  0  0
 30 28  1  0  0  0  0
M  END
>  <minimizedAffinity>
-5.38438272

$$$$

 OpenBabel03212521083D

 30 33  0  0  0  0  0  0  0  0999 V2000
   41.3490   71.9460   61.3970 C   0  0  0  0  0  0  0  0  0  0  0  0
   41.6660   71.6700   62.7190 C   0  0  0  0  0  0  0  0  0  0  0  0
   42.3760   70.5350   63.0810 C   0  0  0  0  0  0  0  0  0  0  0  0
   42.7810   69.6480   62.0890 C   0  0  0  0  0  0  0  0  0  0  0  0
   42.4670   69.9170   60.7560 C   0  0  0  0  0  0  0  0  0  0  0  0
   41.7630   71.0470   60.4160 C   0  0  0  0  0  0  0  0  0  0  0  0
   41.3730   72.3290   63.5370 H   0  0  0  0  0  0  0  0  0  0  0  0
   42.6340   70.2980   64.1050 H   0  0  0  0  0  0  0  0  0  0  0  0
   43.3310   68.7680   62.3660 H   0  0  0  0  0  0  0  0  0  0  0  0
   42.7780   69.2340   59.9700 H   0  0  0  0  0  0  0  0  0  0  0  0
   38.6000   74.3190   61.0730 C   0  0  0  0  0  0  0  0  0  0  0  0
   39.1870   75.4190   60.4760 C   0  0  0  0  0  0  0  0  0  0  0  0
   40.5700   75.3430   60.1740 C   0  0  0  0  0  0  0  0  0  0  0  0
   41.2350   74.2020   60.4880 N   0  0  0  0  0  0  0  0  0  0  0  0
   40.6080   73.1430   61.0790 C   0  0  0  0  0  0  0  0  0  0  0  0
   39.3130   73.2210   61.3580 N   0  0  0  0  0  0  0  0  0  0  0  0
   37.5570   74.4400   61.2740 H   0  0  0  0  0  0  0  0  0  0  0  0
   38.6440   76.3270   60.2300 H   0  0  0  0  0  0  0  0  0  0  0  0
   41.0310   76.1940   59.7110 H   0  0  0  0  0  0  0  0  0  0  0  0
   41.4590   71.2880   59.0230 C   0  0  0  0  0  0  0  0  0  0  0  0
   42.5850   71.1680   58.2150 C   0  0  0  0  0  0  0  0  0  0  0  0
   42.5120   71.3600   56.8390 C   0  0  0  0  0  0  0  0  0  0  0  0
   41.3040   71.6680   56.3280 N   0  0  0  0  0  0  0  0  0  0  0  0
   40.2090   71.7850   57.1190 C   0  0  0  0  0  0  0  0  0  0  0  0
   40.2740   71.6000   58.4510 N   0  0  0  0  0  0  0  0  0  0  0  0
   43.5990   70.9190   58.5630 H   0  0  0  0  0  0  0  0  0  0  0  0
   43.3730   71.2710   56.1910 H   0  0  0  0  0  0  0  0  0  0  0  0
   38.8950   72.1250   56.5220 C   0  0  0  0  0  3  0  0  0  0  0  0
   38.6660   73.6150   56.2690 C   0  0  0  0  0  2  0  0  0  0  0  0
   37.8610   72.8570   57.2470 C   0  0  0  0  0  2  0  0  0  0  0  0
  1  2  1  0  0  0  0
  2  3  2  0  0  0  0
  2  7  1  0  0  0  0
  3  8  1  0  0  0  0
  4  9  1  0  0  0  0
  4  3  1  0  0  0  0
  5  4  2  0  0  0  0
  6  5  1  0  0  0  0
  6  1  2  0  0  0  0
 10  5  1  0  0  0  0
 11 17  1  0  0  0  0
 11 16  1  0  0  0  0
 12 11  2  0  0  0  0
 13 12  1  0  0  0  0
 13 14  2  0  0  0  0
 14 15  1  0  0  0  0
 15 16  2  0  0  0  0
 15  1  1  0  0  0  0
 18 12  1  0  0  0  0
 19 13  1  0  0  0  0
 20  6  1  0  0  0  0
 21 26  1  0  0  0  0
 21 20  2  0  0  0  0
 22 21  1  0  0  0  0
 23 22  2  0  0  0  0
 23 24  1  0  0  0  0
 24 25  2  0  0  0  0
 25 20  1  0  0  0  0
 27 22  1  0  0  0  0
 28 24  1  0  0  0  0
 28 30  1  0  0  0  0
 29 28  1  0  0  0  0
 29 30  1  0  0  0  0
M  END
>  <minimizedAffinity>
-5.24066496

$$$$

 OpenBabel03212521083D

 30 33  0  0  0  0  0  0  0  0999 V2000
   41.1330   74.5960   59.8850 C   0  0  0  0  0  0  0  0  0  0  0  0
   40.5760   75.8460   60.1130 C   0  0  0  0  0  0  0  0  0  0  0  0
   39.3650   76.0000   60.7690 C   0  0  0  0  0  0  0  0  0  0  0  0
   38.6870   74.8680   61.2100 C   0  0  0  0  0  0  0  0  0  0  0  0
   39.2400   73.6050   60.9860 C   0  0  0  0  0  0  0  0  0  0  0  0
   40.4420   73.4720   60.3340 C   0  0  0  0  0  0  0  0  0  0  0  0
   41.0620   76.7670   59.7880 H   0  0  0  0  0  0  0  0  0  0  0  0
   38.9100   76.9640   60.9570 H   0  0  0  0  0  0  0  0  0  0  0  0
   37.7480   74.9840   61.7180 H   0  0  0  0  0  0  0  0  0  0  0  0
   38.7230   72.7120   61.3250 H   0  0  0  0  0  0  0  0  0  0  0  0
   43.6090   74.5180   57.2110 C   0  0  0  0  0  0  0  0  0  0  0  0
   44.8030   74.3060   57.8770 C   0  0  0  0  0  0  0  0  0  0  0  0
   44.7550   74.1860   59.2880 C   0  0  0  0  0  0  0  0  0  0  0  0
   43.5480   74.2850   59.9020 N   0  0  0  0  0  0  0  0  0  0  0  0
   42.3970   74.4960   59.1970 C   0  0  0  0  0  0  0  0  0  0  0  0
   42.4500   74.6080   57.8750 N   0  0  0  0  0  0  0  0  0  0  0  0
   43.7150   74.5990   56.1500 H   0  0  0  0  0  0  0  0  0  0  0  0
   45.7630   74.2280   57.3750 H   0  0  0  0  0  0  0  0  0  0  0  0
   45.6780   74.0220   59.8110 H   0  0  0  0  0  0  0  0  0  0  0  0
   40.9790   72.1460   60.1230 C   0  0  0  0  0  0  0  0  0  0  0  0
   40.5710   71.6070   58.9080 C   0  0  0  0  0  0  0  0  0  0  0  0
   40.9760   70.3370   58.5070 C   0  0  0  0  0  0  0  0  0  0  0  0
   41.7780   69.6570   59.3500 N   0  0  0  0  0  0  0  0  0  0  0  0
   42.1720   70.1860   60.5340 C   0  0  0  0  0  0  0  0  0  0  0  0
   41.7840   71.4150   60.9270 N   0  0  0  0  0  0  0  0  0  0  0  0
   39.9200   72.1030   58.1720 H   0  0  0  0  0  0  0  0  0  0  0  0
   40.6720   69.8970   57.5680 H   0  0  0  0  0  0  0  0  0  0  0  0
   43.0550   69.4100   61.4370 C   0  0  0  0  0  3  0  0  0  0  0  0
   42.3370   68.4000   62.3320 C   0  0  0  0  0  2  0  0  0  0  0  0
   43.0440   69.5700   62.8880 C   0  0  0  0  0  2  0  0  0  0  0  0
  1  2  2  0  0  0  0
  1  6  1  0  0  0  0
  2  3  1  0  0  0  0
  3  8  1  0  0  0  0
  3  4  2  0  0  0  0
  4  9  1  0  0  0  0
  5  4  1  0  0  0  0
  5 10  1  0  0  0  0
  6  5  2  0  0  0  0
  7  2  1  0  0  0  0
 11 16  2  0  0  0  0
 11 12  1  0  0  0  0
 12 13  2  0  0  0  0
 13 19  1  0  0  0  0
 13 14  1  0  0  0  0
 15  1  1  0  0  0  0
 15 14  2  0  0  0  0
 16 15  1  0  0  0  0
 17 11  1  0  0  0  0
 18 12  1  0  0  0  0
 20  6  1  0  0  0  0
 20 25  1  0  0  0  0
 21 20  2  0  0  0  0
 22 21  1  0  0  0  0
 22 23  2  0  0  0  0
 23 24  1  0  0  0  0
 24 25  2  0  0  0  0
 24 28  1  0  0  0  0
 26 21  1  0  0  0  0
 27 22  1  0  0  0  0
 28 29  1  0  0  0  0
 28 30  1  0  0  0  0
 29 30  1  0  0  0  0
M  END
>  <minimizedAffinity>
-5.21658945

$$$$

 OpenBabel03212521083D

 30 33  0  0  0  0  0  0  0  0999 V2000
   40.0500   74.7990   58.1010 C   0  0  0  0  0  0  0  0  0  0  0  0
   39.0750   75.5800   57.5000 C   0  0  0  0  0  0  0  0  0  0  0  0
   38.8270   76.8830   57.9030 C   0  0  0  0  0  0  0  0  0  0  0  0
   39.5780   77.4220   58.9440 C   0  0  0  0  0  0  0  0  0  0  0  0
   40.5620   76.6430   59.5550 C   0  0  0  0  0  0  0  0  0  0  0  0
   40.7940   75.3540   59.1410 C   0  0  0  0  0  0  0  0  0  0  0  0
   38.4560   75.2100   56.6810 H   0  0  0  0  0  0  0  0  0  0  0  0
   38.0710   77.5110   57.4500 H   0  0  0  0  0  0  0  0  0  0  0  0
   39.3880   78.4310   59.2590 H   0  0  0  0  0  0  0  0  0  0  0  0
   41.1570   77.0500   60.3680 H   0  0  0  0  0  0  0  0  0  0  0  0
   39.8200   71.1720   57.8170 C   0  0  0  0  0  0  0  0  0  0  0  0
   40.6670   70.8720   56.7660 C   0  0  0  0  0  0  0  0  0  0  0  0
   41.3390   71.9490   56.1360 C   0  0  0  0  0  0  0  0  0  0  0  0
   41.1130   73.2060   56.5970 N   0  0  0  0  0  0  0  0  0  0  0  0
   40.2650   73.4490   57.6390 C   0  0  0  0  0  0  0  0  0  0  0  0
   39.6390   72.4340   58.2240 N   0  0  0  0  0  0  0  0  0  0  0  0
   39.3450   70.3160   58.2480 H   0  0  0  0  0  0  0  0  0  0  0  0
   40.8400   69.8620   56.4060 H   0  0  0  0  0  0  0  0  0  0  0  0
   41.9970   71.7230   55.3200 H   0  0  0  0  0  0  0  0  0  0  0  0
   41.8230   74.5820   59.8020 C   0  0  0  0  0  0  0  0  0  0  0  0
   43.0890   74.8660   59.3030 C   0  0  0  0  0  0  0  0  0  0  0  0
   44.2230   74.2320   59.8010 C   0  0  0  0  0  0  0  0  0  0  0  0
   44.0370   73.3320   60.7870 N   0  0  0  0  0  0  0  0  0  0  0  0
   42.8000   73.0580   61.2710 C   0  0  0  0  0  0  0  0  0  0  0  0
   41.7000   73.6680   60.7920 N   0  0  0  0  0  0  0  0  0  0  0  0
   43.3160   75.5860   58.5020 H   0  0  0  0  0  0  0  0  0  0  0  0
   45.2170   74.4370   59.4290 H   0  0  0  0  0  0  0  0  0  0  0  0
   42.6320   72.0620   62.3560 C   0  0  0  0  0  3  0  0  0  0  0  0
   42.2970   70.6460   61.8880 C   0  0  0  0  0  2  0  0  0  0  0  0
   41.3460   71.4520   62.6800 C   0  0  0  0  0  2  0  0  0  0  0  0
  1  6  1  0  0  0  0
  2  3  1  0  0  0  0
  2  1  2  0  0  0  0
  3  4  2  0  0  0  0
  4  9  1  0  0  0  0
  4  5  1  0  0  0  0
  5 10  1  0  0  0  0
  6  5  2  0  0  0  0
  6 20  1  0  0  0  0
  7  2  1  0  0  0  0
  8  3  1  0  0  0  0
 11 16  1  0  0  0  0
 11 17  1  0  0  0  0
 12 11  2  0  0  0  0
 13 14  2  0  0  0  0
 13 12  1  0  0  0  0
 14 15  1  0  0  0  0
 15  1  1  0  0  0  0
 15 16  2  0  0  0  0
 18 12  1  0  0  0  0
 19 13  1  0  0  0  0
 20 25  1  0  0  0  0
 21 22  1  0  0  0  0
 21 20  2  0  0  0  0
 22 23  2  0  0  0  0
 23 24  1  0  0  0  0
 24 28  1  0  0  0  0
 25 24  2  0  0  0  0
 26 21  1  0  0  0  0
 27 22  1  0  0  0  0
 28 30  1  0  0  0  0
 29 28  1  0  0  0  0
 29 30  1  0  0  0  0
M  END
>  <minimizedAffinity>
-5.17709684

$$$$

 OpenBabel03212521083D

 30 33  0  0  0  0  0  0  0  0999 V2000
   42.2420   72.7230   60.3030 C   0  0  0  0  0  0  0  0  0  0  0  0
   43.0180   71.8660   61.0690 C   0  0  0  0  0  0  0  0  0  0  0  0
   42.5700   71.3510   62.2750 C   0  0  0  0  0  0  0  0  0  0  0  0
   41.3040   71.7050   62.7310 C   0  0  0  0  0  0  0  0  0  0  0  0
   40.5150   72.5670   61.9670 C   0  0  0  0  0  0  0  0  0  0  0  0
   40.9760   73.0670   60.7730 C   0  0  0  0  0  0  0  0  0  0  0  0
   44.0180   71.5550   60.7610 H   0  0  0  0  0  0  0  0  0  0  0  0
   43.1580   70.6820   62.8910 H   0  0  0  0  0  0  0  0  0  0  0  0
   40.9530   71.3080   63.6660 H   0  0  0  0  0  0  0  0  0  0  0  0
   39.5240   72.8520   62.3100 H   0  0  0  0  0  0  0  0  0  0  0  0
   44.0000   74.8170   57.8930 C   0  0  0  0  0  0  0  0  0  0  0  0
   43.7540   74.1990   56.6810 C   0  0  0  0  0  0  0  0  0  0  0  0
   42.9590   73.0260   56.6920 C   0  0  0  0  0  0  0  0  0  0  0  0
   42.4880   72.5790   57.8850 N   0  0  0  0  0  0  0  0  0  0  0  0
   42.7610   73.2280   59.0550 C   0  0  0  0  0  0  0  0  0  0  0  0
   43.5070   74.3260   59.0360 N   0  0  0  0  0  0  0  0  0  0  0  0
   44.6060   75.6960   57.8150 H   0  0  0  0  0  0  0  0  0  0  0  0
   44.1360   74.5660   55.7330 H   0  0  0  0  0  0  0  0  0  0  0  0
   42.7640   72.5410   55.7550 H   0  0  0  0  0  0  0  0  0  0  0  0
   40.1260   73.9560   60.0130 C   0  0  0  0  0  0  0  0  0  0  0  0
   40.2540   75.2780   60.4260 C   0  0  0  0  0  0  0  0  0  0  0  0
   39.5230   76.2980   59.8250 C   0  0  0  0  0  0  0  0  0  0  0  0
   38.6890   75.9460   58.8270 N   0  0  0  0  0  0  0  0  0  0  0  0
   38.5660   74.6550   58.4290 C   0  0  0  0  0  0  0  0  0  0  0  0
   39.2710   73.6650   59.0070 N   0  0  0  0  0  0  0  0  0  0  0  0
   40.9140   75.6380   61.2300 H   0  0  0  0  0  0  0  0  0  0  0  0
   39.6070   77.3320   60.1280 H   0  0  0  0  0  0  0  0  0  0  0  0
   37.6380   74.3040   57.3270 C   0  0  0  0  0  3  0  0  0  0  0  0
   38.1660   74.5900   55.9210 C   0  0  0  0  0  2  0  0  0  0  0  0
   37.0010   75.3060   56.4780 C   0  0  0  0  0  2  0  0  0  0  0  0
  1  6  2  0  0  0  0
  1  2  1  0  0  0  0
  2  3  2  0  0  0  0
  3  4  1  0  0  0  0
  3  8  1  0  0  0  0
  4  9  1  0  0  0  0
  5 10  1  0  0  0  0
  5  4  2  0  0  0  0
  6  5  1  0  0  0  0
  7  2  1  0  0  0  0
 11 16  1  0  0  0  0
 12 13  1  0  0  0  0
 12 11  2  0  0  0  0
 13 14  2  0  0  0  0
 14 15  1  0  0  0  0
 15  1  1  0  0  0  0
 16 15  2  0  0  0  0
 17 11  1  0  0  0  0
 18 12  1  0  0  0  0
 19 13  1  0  0  0  0
 20 21  1  0  0  0  0
 20  6  1  0  0  0  0
 21 26  1  0  0  0  0
 22 27  1  0  0  0  0
 22 21  2  0  0  0  0
 23 22  1  0  0  0  0
 24 23  2  0  0  0  0
 24 25  1  0  0  0  0
 25 20  2  0  0  0  0
 28 24  1  0  0  0  0
 29 30  1  0  0  0  0
 29 28  1  0  0  0  0
 30 28  1  0  0  0  0
M  END
>  <minimizedAffinity>
-5.14214373

$$$$

 OpenBabel03212521083D

 30 33  0  0  0  0  0  0  0  0999 V2000
   41.1380   74.4230   59.9400 C   0  0  0  0  0  0  0  0  0  0  0  0
   40.4770   75.6400   60.0070 C   0  0  0  0  0  0  0  0  0  0  0  0
   39.2570   75.7780   60.6500 C   0  0  0  0  0  0  0  0  0  0  0  0
   38.6780   74.6610   61.2450 C   0  0  0  0  0  0  0  0  0  0  0  0
   39.3350   73.4310   61.1830 C   0  0  0  0  0  0  0  0  0  0  0  0
   40.5450   73.3140   60.5420 C   0  0  0  0  0  0  0  0  0  0  0  0
   40.8840   76.5480   59.5580 H   0  0  0  0  0  0  0  0  0  0  0  0
   38.7220   76.7170   60.7140 H   0  0  0  0  0  0  0  0  0  0  0  0
   37.7320   74.7640   61.7430 H   0  0  0  0  0  0  0  0  0  0  0  0
   38.8970   72.5510   61.6440 H   0  0  0  0  0  0  0  0  0  0  0  0
   43.6150   74.2470   57.2710 C   0  0  0  0  0  0  0  0  0  0  0  0
   44.8190   74.1780   57.9480 C   0  0  0  0  0  0  0  0  0  0  0  0
   44.7790   74.1920   59.3640 C   0  0  0  0  0  0  0  0  0  0  0  0
   43.5680   74.2720   59.9720 N   0  0  0  0  0  0  0  0  0  0  0  0
   42.4070   74.3380   59.2580 C   0  0  0  0  0  0  0  0  0  0  0  0
   42.4530   74.3250   57.9310 N   0  0  0  0  0  0  0  0  0  0  0  0
   43.7150   74.2330   56.2070 H   0  0  0  0  0  0  0  0  0  0  0  0
   45.7830   74.1150   57.4490 H   0  0  0  0  0  0  0  0  0  0  0  0
   45.7110   74.1400   59.8940 H   0  0  0  0  0  0  0  0  0  0  0  0
   41.1920   72.0220   60.5010 C   0  0  0  0  0  0  0  0  0  0  0  0
   41.7540   71.6810   61.7270 C   0  0  0  0  0  0  0  0  0  0  0  0
   42.4250   70.4760   61.9060 C   0  0  0  0  0  0  0  0  0  0  0  0
   42.5060   69.6570   60.8390 N   0  0  0  0  0  0  0  0  0  0  0  0
   41.9580   69.9930   59.6450 C   0  0  0  0  0  0  0  0  0  0  0  0
   41.3070   71.1580   59.4670 N   0  0  0  0  0  0  0  0  0  0  0  0
   41.7260   72.2980   62.6390 H   0  0  0  0  0  0  0  0  0  0  0  0
   42.8690   70.1900   62.8490 H   0  0  0  0  0  0  0  0  0  0  0  0
   42.0660   69.0670   58.4920 C   0  0  0  0  0  3  0  0  0  0  0  0
   40.9580   68.0180   58.4000 C   0  0  0  0  0  2  0  0  0  0  0  0
   42.3660   67.6460   58.6420 C   0  0  0  0  0  2  0  0  0  0  0  0
  1  2  2  0  0  0  0
  1  6  1  0  0  0  0
  2  3  1  0  0  0  0
  3  8  1  0  0  0  0
  3  4  2  0  0  0  0
  4  9  1  0  0  0  0
  5  4  1  0  0  0  0
  5 10  1  0  0  0  0
  6  5  2  0  0  0  0
  7  2  1  0  0  0  0
 11 16  2  0  0  0  0
 11 12  1  0  0  0  0
 12 13  2  0  0  0  0
 13 19  1  0  0  0  0
 13 14  1  0  0  0  0
 15  1  1  0  0  0  0
 15 14  2  0  0  0  0
 16 15  1  0  0  0  0
 17 11  1  0  0  0  0
 18 12  1  0  0  0  0
 20  6  1  0  0  0  0
 20 21  1  0  0  0  0
 21 22  2  0  0  0  0
 21 26  1  0  0  0  0
 22 27  1  0  0  0  0
 23 22  1  0  0  0  0
 24 23  2  0  0  0  0
 25 24  1  0  0  0  0
 25 20  2  0  0  0  0
 28 30  1  0  0  0  0
 28 24  1  0  0  0  0
 29 28  1  0  0  0  0
 29 30  1  0  0  0  0
M  END
>  <minimizedAffinity>
-5.10683346

$$$$

 OpenBabel03212521083D

 30 33  0  0  0  0  0  0  0  0999 V2000
   38.2930   75.1790   57.1140 C   0  0  0  0  0  0  0  0  0  0  0  0
   37.2170   75.8670   56.5750 C   0  0  0  0  0  0  0  0  0  0  0  0
   36.9320   75.8360   55.2190 C   0  0  0  0  0  0  0  0  0  0  0  0
   37.7500   75.0930   54.3740 C   0  0  0  0  0  0  0  0  0  0  0  0
   38.8360   74.3960   54.9070 C   0  0  0  0  0  0  0  0  0  0  0  0
   39.1030   74.4380   56.2540 C   0  0  0  0  0  0  0  0  0  0  0  0
   36.5420   76.4660   57.1890 H   0  0  0  0  0  0  0  0  0  0  0  0
   36.0980   76.3660   54.7750 H   0  0  0  0  0  0  0  0  0  0  0  0
   37.5330   75.0680   53.3220 H   0  0  0  0  0  0  0  0  0  0  0  0
   39.4830   73.8110   54.2600 H   0  0  0  0  0  0  0  0  0  0  0  0
   39.4740   76.3500   60.3580 C   0  0  0  0  0  0  0  0  0  0  0  0
   39.0210   75.3850   61.2380 C   0  0  0  0  0  0  0  0  0  0  0  0
   38.2890   74.2980   60.7010 C   0  0  0  0  0  0  0  0  0  0  0  0
   38.0730   74.2660   59.3610 N   0  0  0  0  0  0  0  0  0  0  0  0
   38.5420   75.2460   58.5340 C   0  0  0  0  0  0  0  0  0  0  0  0
   39.2270   76.2620   59.0440 N   0  0  0  0  0  0  0  0  0  0  0  0
   40.0190   77.1420   60.8260 H   0  0  0  0  0  0  0  0  0  0  0  0
   39.2000   75.4210   62.3090 H   0  0  0  0  0  0  0  0  0  0  0  0
   37.9340   73.5450   61.3790 H   0  0  0  0  0  0  0  0  0  0  0  0
   40.2370   73.7020   56.7650 C   0  0  0  0  0  0  0  0  0  0  0  0
   40.0560   72.3270   56.6610 C   0  0  0  0  0  0  0  0  0  0  0  0
   41.0300   71.4330   57.0950 C   0  0  0  0  0  0  0  0  0  0  0  0
   42.1540   71.9610   57.6200 N   0  0  0  0  0  0  0  0  0  0  0  0
   42.3260   73.3030   57.7200 C   0  0  0  0  0  0  0  0  0  0  0  0
   41.3860   74.1710   57.3020 N   0  0  0  0  0  0  0  0  0  0  0  0
   39.1680   71.8270   56.2440 H   0  0  0  0  0  0  0  0  0  0  0  0
   40.9120   70.3620   57.0240 H   0  0  0  0  0  0  0  0  0  0  0  0
   43.5750   73.8480   58.3030 C   0  0  0  0  0  3  0  0  0  0  0  0
   43.6180   73.8750   59.8310 C   0  0  0  0  0  2  0  0  0  0  0  0
   43.6240   75.1140   59.0280 C   0  0  0  0  0  2  0  0  0  0  0  0
  1 15  1  0  0  0  0
  2  1  1  0  0  0  0
  2  7  1  0  0  0  0
  3  2  2  0  0  0  0
  4  5  2  0  0  0  0
  4  3  1  0  0  0  0
  5  6  1  0  0  0  0
  6 20  1  0  0  0  0
  6  1  2  0  0  0  0
  8  3  1  0  0  0  0
  9  4  1  0  0  0  0
 10  5  1  0  0  0  0
 11 17  1  0  0  0  0
 11 12  1  0  0  0  0
 12 18  1  0  0  0  0
 13 12  2  0  0  0  0
 13 19  1  0  0  0  0
 14 13  1  0  0  0  0
 15 16  1  0  0  0  0
 15 14  2  0  0  0  0
 16 11  2  0  0  0  0
 20 25  1  0  0  0  0
 21 20  2  0  0  0  0
 21 22  1  0  0  0  0
 22 23  2  0  0  0  0
 23 24  1  0  0  0  0
 24 28  1  0  0  0  0
 25 24  2  0  0  0  0
 26 21  1  0  0  0  0
 27 22  1  0  0  0  0
 28 30  1  0  0  0  0
 28 29  1  0  0  0  0
 30 29  1  0  0  0  0
M  END
>  <minimizedAffinity>
-5.04483461

$$$$
