
 OpenBabel03212521073D

 30 33  0  0  0  0  0  0  0  0999 V2000
   41.8240   84.2410   61.5740 C   0  0  0  0  0  0  0  0  0  0  0  0
   41.4500   83.9740   62.8820 C   0  0  0  0  0  0  0  0  0  0  0  0
   40.1670   83.5630   63.2090 C   0  0  0  0  0  0  0  0  0  0  0  0
   39.2270   83.4150   62.1930 C   0  0  0  0  0  0  0  0  0  0  0  0
   39.5940   83.6820   60.8730 C   0  0  0  0  0  0  0  0  0  0  0  0
   40.8710   84.0880   60.5690 C   0  0  0  0  0  0  0  0  0  0  0  0
   42.1440   84.0730   63.7180 H   0  0  0  0  0  0  0  0  0  0  0  0
   39.8510   83.3490   64.2220 H   0  0  0  0  0  0  0  0  0  0  0  0
   38.2310   83.0970   62.4430 H   0  0  0  0  0  0  0  0  0  0  0  0
   38.8710   83.5700   60.0700 H   0  0  0  0  0  0  0  0  0  0  0  0
   45.3620   84.1380   60.7040 C   0  0  0  0  0  0  0  0  0  0  0  0
   45.7500   85.4640   60.7540 C   0  0  0  0  0  0  0  0  0  0  0  0
   44.7660   86.4240   61.0970 C   0  0  0  0  0  0  0  0  0  0  0  0
   43.5060   85.9890   61.3560 N   0  0  0  0  0  0  0  0  0  0  0  0
   43.1740   84.6660   61.2930 C   0  0  0  0  0  0  0  0  0  0  0  0
   44.1020   83.7730   60.9700 N   0  0  0  0  0  0  0  0  0  0  0  0
   46.1510   83.4660   60.4400 H   0  0  0  0  0  0  0  0  0  0  0  0
   46.7620   85.8000   60.5450 H   0  0  0  0  0  0  0  0  0  0  0  0
   45.0600   87.4550   61.1370 H   0  0  0  0  0  0  0  0  0  0  0  0
   41.2090   84.3530   59.1880 C   0  0  0  0  0  0  0  0  0  0  0  0
   40.7890   85.6150   58.7820 C   0  0  0  0  0  0  0  0  0  0  0  0
   41.0160   86.0720   57.4870 C   0  0  0  0  0  0  0  0  0  0  0  0
   41.6580   85.2360   56.6480 N   0  0  0  0  0  0  0  0  0  0  0  0
   42.0640   84.0050   57.0480 C   0  0  0  0  0  0  0  0  0  0  0  0
   41.8480   83.5590   58.2990 N   0  0  0  0  0  0  0  0  0  0  0  0
   40.2620   86.3490   59.4110 H   0  0  0  0  0  0  0  0  0  0  0  0
   40.7000   87.0490   57.1500 H   0  0  0  0  0  0  0  0  0  0  0  0
   42.7690   83.1120   56.0970 C   0  0  0  0  0  3  0  0  0  0  0  0
   41.8620   82.1770   55.2960 C   0  0  0  0  0  2  0  0  0  0  0  0
   42.8400   81.6640   56.2750 C   0  0  0  0  0  2  0  0  0  0  0  0
  1  2  1  0  0  0  0
  2  3  2  0  0  0  0
  2  7  1  0  0  0  0
  3  8  1  0  0  0  0
  4  9  1  0  0  0  0
  4  3  1  0  0  0  0
  5  4  2  0  0  0  0
  6  5  1  0  0  0  0
  6  1  2  0  0  0  0
 10  5  1  0  0  0  0
 11 12  2  0  0  0  0
 11 16  1  0  0  0  0
 12 13  1  0  0  0  0
 13 19  1  0  0  0  0
 13 14  2  0  0  0  0
 15 14  1  0  0  0  0
 15  1  1  0  0  0  0
 16 15  2  0  0  0  0
 17 11  1  0  0  0  0
 18 12  1  0  0  0  0
 20  6  1  0  0  0  0
 21 20  1  0  0  0  0
 21 26  1  0  0  0  0
 22 21  2  0  0  0  0
 23 24  2  0  0  0  0
 23 22  1  0  0  0  0
 24 25  1  0  0  0  0
 25 20  2  0  0  0  0
 27 22  1  0  0  0  0
 28 30  1  0  0  0  0
 28 24  1  0  0  0  0
 29 28  1  0  0  0  0
 29 30  1  0  0  0  0
M  END
>  <minimizedAffinity>
-5.3065505

>  <minimizedRMSD>
0.233152375

$$$$
