
 OpenBabel03212520443D

 12 13  0  0  0  0  0  0  0  0999 V2000
   39.8820   81.9190   61.0640 C   0  0  0  0  0  0  0  0  0  0  0  0
   40.1200   82.6290   59.8770 C   0  0  0  0  0  0  0  0  0  0  0  0
   39.6690   83.9490   59.8020 C   0  0  0  0  0  0  0  0  0  0  0  0
   39.0250   84.4740   60.8840 N   0  0  0  0  0  0  0  0  0  0  0  0
   38.8150   83.7650   62.0080 C   0  0  0  0  0  0  0  0  0  0  0  0
   39.2360   82.4990   62.1040 N   0  0  0  0  0  0  0  0  0  0  0  0
   40.6330   82.1960   59.0300 H   0  0  0  0  0  0  0  0  0  0  0  0
   39.8150   84.5720   58.9100 H   0  0  0  0  0  0  0  0  0  0  0  0
   38.3070   84.1540   62.8780 H   0  0  0  0  0  0  0  0  0  0  0  0
   40.3590   80.4990   61.1630 C   0  0  0  0  0  3  0  0  0  0  0  0
   41.5430   80.0460   60.4370 C   0  0  0  0  0  2  0  0  0  0  0  0
   41.7060   80.4060   61.9060 C   0  0  0  0  0  2  0  0  0  0  0  0
  1 10  1  0  0  0  0
  1  6  1  0  0  0  0
  2  1  2  0  0  0  0
  3  2  1  0  0  0  0
  3  4  2  0  0  0  0
  4  5  1  0  0  0  0
  5  6  2  0  0  0  0
  5  9  1  0  0  0  0
  7  2  1  0  0  0  0
  8  3  1  0  0  0  0
 10 12  1  0  0  0  0
 11 10  1  0  0  0  0
 11 12  1  0  0  0  0
M  END
>  <minimizedAffinity>
-3.74583077

>  <minimizedRMSD>
0.62105602

$$$$
