
 OpenBabel03212520303D

 22 24  0  0  0  0  0  0  0  0999 V2000
   38.9980   74.6430   58.8420 N   0  0  0  0  0  0  0  0  0  0  0  0
   38.3070   73.8530   58.0220 C   0  0  0  0  0  0  0  0  0  0  0  0
   37.4950   74.4540   57.0550 C   0  0  0  0  0  0  0  0  0  0  0  0
   37.4340   75.8380   56.9810 C   0  0  0  0  0  0  0  0  0  0  0  0
   36.7270   76.4570   56.1390 O   0  0  0  0  0  0  0  0  0  0  0  0
   38.1670   76.5860   57.8520 N   0  0  0  0  0  0  0  0  0  0  0  0
   38.9600   75.9930   58.7960 C   0  0  0  0  0  0  0  0  0  0  0  0
   39.6380   76.6800   59.6020 O   0  0  0  0  0  0  0  0  0  0  0  0
   38.3300   72.7820   58.0520 H   0  0  0  0  0  0  0  0  0  0  0  0
   36.9070   73.8670   56.3570 H   0  0  0  0  0  0  0  0  0  0  0  0
   38.1720   77.6300   57.8560 H   0  0  0  0  0  0  0  0  0  0  0  0
   41.1640   73.7550   59.5530 C   0  0  0  0  0  0  0  0  0  0  0  0
   39.7940   73.9450   59.7900 C   0  0  0  0  0  0  0  0  0  0  0  0
   39.2340   73.4310   60.9830 C   0  0  0  0  0  0  0  0  0  0  0  0
   40.0790   72.7760   61.8310 N   0  0  0  0  0  0  0  0  0  0  0  0
   41.3830   72.6140   61.5710 C   0  0  0  0  0  0  0  0  0  0  0  0
   41.9230   73.0990   60.4430 N   0  0  0  0  0  0  0  0  0  0  0  0
   41.5790   74.1540   58.6390 H   0  0  0  0  0  0  0  0  0  0  0  0
   38.1860   73.5810   61.1560 H   0  0  0  0  0  0  0  0  0  0  0  0
   42.2310   71.8860   62.5550 C   0  0  0  0  0  3  0  0  0  0  0  0
   42.7690   70.5020   62.1400 C   0  0  0  0  0  2  0  0  0  0  0  0
   41.7380   70.6480   63.1980 C   0  0  0  0  0  2  0  0  0  0  0  0
  1 13  1  0  0  0  0
  2  9  1  0  0  0  0
  2  1  1  0  0  0  0
  3  2  2  0  0  0  0
  4  3  1  0  0  0  0
  4  6  1  0  0  0  0
  5  4  2  0  0  0  0
  6 11  1  0  0  0  0
  6  7  1  0  0  0  0
  7  1  1  0  0  0  0
  7  8  2  0  0  0  0
 10  3  1  0  0  0  0
 12 13  2  0  0  0  0
 12 17  1  0  0  0  0
 13 14  1  0  0  0  0
 14 19  1  0  0  0  0
 14 15  2  0  0  0  0
 16 15  1  0  0  0  0
 16 20  1  0  0  0  0
 17 16  2  0  0  0  0
 18 12  1  0  0  0  0
 20 22  1  0  0  0  0
 21 20  1  0  0  0  0
 21 22  1  0  0  0  0
M  END
>  <minimizedAffinity>
-5.30774403

$$$$

 OpenBabel03212520303D

 22 24  0  0  0  0  0  0  0  0999 V2000
   38.6740   74.3670   58.1970 N   0  0  0  0  0  0  0  0  0  0  0  0
   38.6410   75.6960   58.1310 C   0  0  0  0  0  0  0  0  0  0  0  0
   37.8760   76.2880   57.1210 C   0  0  0  0  0  0  0  0  0  0  0  0
   37.1840   75.4810   56.2290 C   0  0  0  0  0  0  0  0  0  0  0  0
   36.4730   75.9360   55.2920 O   0  0  0  0  0  0  0  0  0  0  0  0
   37.2620   74.1270   56.3540 N   0  0  0  0  0  0  0  0  0  0  0  0
   38.0120   73.5530   57.3440 C   0  0  0  0  0  0  0  0  0  0  0  0
   38.0870   72.3040   57.4640 O   0  0  0  0  0  0  0  0  0  0  0  0
   39.1640   76.3480   58.8020 H   0  0  0  0  0  0  0  0  0  0  0  0
   37.8070   77.3650   57.0130 H   0  0  0  0  0  0  0  0  0  0  0  0
   36.7700   73.4590   55.7220 H   0  0  0  0  0  0  0  0  0  0  0  0
   40.8280   73.5550   59.0260 C   0  0  0  0  0  0  0  0  0  0  0  0
   39.4760   73.8550   59.2530 C   0  0  0  0  0  0  0  0  0  0  0  0
   38.9390   73.6350   60.5430 C   0  0  0  0  0  0  0  0  0  0  0  0
   39.7870   73.1400   61.4900 N   0  0  0  0  0  0  0  0  0  0  0  0
   41.0740   72.8660   61.2380 C   0  0  0  0  0  0  0  0  0  0  0  0
   41.5920   73.0710   60.0170 N   0  0  0  0  0  0  0  0  0  0  0  0
   41.2260   73.7280   58.0370 H   0  0  0  0  0  0  0  0  0  0  0  0
   37.9050   73.8660   60.7070 H   0  0  0  0  0  0  0  0  0  0  0  0
   41.9270   72.3290   62.3330 C   0  0  0  0  0  3  0  0  0  0  0  0
   42.6560   70.9950   62.0740 C   0  0  0  0  0  2  0  0  0  0  0  0
   41.5390   71.0920   63.0470 C   0  0  0  0  0  2  0  0  0  0  0  0
  1 13  1  0  0  0  0
  2  1  1  0  0  0  0
  2  9  1  0  0  0  0
  3  2  2  0  0  0  0
  4  6  1  0  0  0  0
  4  3  1  0  0  0  0
  5  4  2  0  0  0  0
  6  7  1  0  0  0  0
  7  8  2  0  0  0  0
  7  1  1  0  0  0  0
 10  3  1  0  0  0  0
 11  6  1  0  0  0  0
 12 13  2  0  0  0  0
 12 17  1  0  0  0  0
 13 14  1  0  0  0  0
 14 19  1  0  0  0  0
 14 15  2  0  0  0  0
 16 15  1  0  0  0  0
 16 20  1  0  0  0  0
 17 16  2  0  0  0  0
 18 12  1  0  0  0  0
 20 22  1  0  0  0  0
 21 20  1  0  0  0  0
 21 22  1  0  0  0  0
M  END
>  <minimizedAffinity>
-5.24388313

$$$$

 OpenBabel03212520303D

 22 24  0  0  0  0  0  0  0  0999 V2000
   39.6780   74.0040   59.6970 N   0  0  0  0  0  0  0  0  0  0  0  0
   40.9330   73.7480   59.3350 C   0  0  0  0  0  0  0  0  0  0  0  0
   41.7960   73.2000   60.2880 C   0  0  0  0  0  0  0  0  0  0  0  0
   41.3240   72.9410   61.5670 C   0  0  0  0  0  0  0  0  0  0  0  0
   42.0370   72.4470   62.4830 O   0  0  0  0  0  0  0  0  0  0  0  0
   40.0270   73.2270   61.8700 N   0  0  0  0  0  0  0  0  0  0  0  0
   39.1870   73.7640   60.9340 C   0  0  0  0  0  0  0  0  0  0  0  0
   37.9890   74.0300   61.2090 O   0  0  0  0  0  0  0  0  0  0  0  0
   41.3310   73.9360   58.3580 H   0  0  0  0  0  0  0  0  0  0  0  0
   42.8310   72.9680   60.0570 H   0  0  0  0  0  0  0  0  0  0  0  0
   39.6020   73.0600   62.8090 H   0  0  0  0  0  0  0  0  0  0  0  0
   38.1810   73.7170   57.7830 C   0  0  0  0  0  0  0  0  0  0  0  0
   38.8740   74.5600   58.6650 C   0  0  0  0  0  0  0  0  0  0  0  0
   38.7540   75.9590   58.5020 C   0  0  0  0  0  0  0  0  0  0  0  0
   37.9600   76.3980   57.4820 N   0  0  0  0  0  0  0  0  0  0  0  0
   37.3120   75.5630   56.6590 C   0  0  0  0  0  0  0  0  0  0  0  0
   37.4200   74.2330   56.8070 N   0  0  0  0  0  0  0  0  0  0  0  0
   38.2810   72.6500   57.9190 H   0  0  0  0  0  0  0  0  0  0  0  0
   39.2870   76.5960   59.1800 H   0  0  0  0  0  0  0  0  0  0  0  0
   36.4670   76.1290   55.5730 C   0  0  0  0  0  3  0  0  0  0  0  0
   37.1330   76.3590   54.2020 C   0  0  0  0  0  2  0  0  0  0  0  0
   36.7180   77.4950   55.0620 C   0  0  0  0  0  2  0  0  0  0  0  0
  1  7  1  0  0  0  0
  2  1  1  0  0  0  0
  2  3  2  0  0  0  0
  3  4  1  0  0  0  0
  4  6  1  0  0  0  0
  4  5  2  0  0  0  0
  6 11  1  0  0  0  0
  7  8  2  0  0  0  0
  7  6  1  0  0  0  0
  9  2  1  0  0  0  0
 10  3  1  0  0  0  0
 12 18  1  0  0  0  0
 12 13  1  0  0  0  0
 13  1  1  0  0  0  0
 14 13  2  0  0  0  0
 14 19  1  0  0  0  0
 15 14  1  0  0  0  0
 16 17  1  0  0  0  0
 16 15  2  0  0  0  0
 17 12  2  0  0  0  0
 20 16  1  0  0  0  0
 21 22  1  0  0  0  0
 21 20  1  0  0  0  0
 22 20  1  0  0  0  0
M  END
>  <minimizedAffinity>
-4.97875834

$$$$

 OpenBabel03212520303D

 22 24  0  0  0  0  0  0  0  0999 V2000
   40.8420   74.0730   60.4830 N   0  0  0  0  0  0  0  0  0  0  0  0
   41.7020   74.8600   59.8400 C   0  0  0  0  0  0  0  0  0  0  0  0
   41.2600   76.1180   59.4210 C   0  0  0  0  0  0  0  0  0  0  0  0
   39.9540   76.5040   59.6870 C   0  0  0  0  0  0  0  0  0  0  0  0
   39.4780   77.6210   59.3450 O   0  0  0  0  0  0  0  0  0  0  0  0
   39.1260   75.6490   60.3500 N   0  0  0  0  0  0  0  0  0  0  0  0
   39.5640   74.4190   60.7570 C   0  0  0  0  0  0  0  0  0  0  0  0
   38.8040   73.6270   61.3700 O   0  0  0  0  0  0  0  0  0  0  0  0
   42.7160   74.5930   59.6170 H   0  0  0  0  0  0  0  0  0  0  0  0
   41.9100   76.8060   58.8920 H   0  0  0  0  0  0  0  0  0  0  0  0
   38.1340   75.8710   60.5850 H   0  0  0  0  0  0  0  0  0  0  0  0
   41.8800   72.6340   62.1670 C   0  0  0  0  0  0  0  0  0  0  0  0
   41.3780   72.8140   60.8690 C   0  0  0  0  0  0  0  0  0  0  0  0
   41.4190   71.7260   59.9680 C   0  0  0  0  0  0  0  0  0  0  0  0
   41.9530   70.5590   60.4300 N   0  0  0  0  0  0  0  0  0  0  0  0
   42.4230   70.4220   61.6770 C   0  0  0  0  0  0  0  0  0  0  0  0
   42.3880   71.4490   62.5390 N   0  0  0  0  0  0  0  0  0  0  0  0
   41.8430   73.4720   62.8450 H   0  0  0  0  0  0  0  0  0  0  0  0
   41.0330   71.8740   58.9770 H   0  0  0  0  0  0  0  0  0  0  0  0
   42.9880   69.1100   62.0970 C   0  0  0  0  0  3  0  0  0  0  0  0
   42.1730   68.2770   63.1050 C   0  0  0  0  0  2  0  0  0  0  0  0
   43.4620   68.9070   63.4840 C   0  0  0  0  0  2  0  0  0  0  0  0
  1  7  1  0  0  0  0
  1 13  1  0  0  0  0
  2  1  1  0  0  0  0
  3  4  1  0  0  0  0
  3  2  2  0  0  0  0
  4  6  1  0  0  0  0
  5  4  2  0  0  0  0
  6 11  1  0  0  0  0
  6  7  1  0  0  0  0
  7  8  2  0  0  0  0
  9  2  1  0  0  0  0
 10  3  1  0  0  0  0
 12 17  1  0  0  0  0
 12 18  1  0  0  0  0
 13 12  2  0  0  0  0
 14 15  2  0  0  0  0
 14 13  1  0  0  0  0
 15 16  1  0  0  0  0
 16 20  1  0  0  0  0
 16 17  2  0  0  0  0
 19 14  1  0  0  0  0
 20 21  1  0  0  0  0
 20 22  1  0  0  0  0
 21 22  1  0  0  0  0
M  END
>  <minimizedAffinity>
-4.7406354

$$$$

 OpenBabel03212520303D

 22 24  0  0  0  0  0  0  0  0999 V2000
   41.7790   71.4440   61.2600 N   0  0  0  0  0  0  0  0  0  0  0  0
   42.2210   71.3150   62.5090 C   0  0  0  0  0  0  0  0  0  0  0  0
   42.7890   70.0940   62.8860 C   0  0  0  0  0  0  0  0  0  0  0  0
   42.8740   69.0670   61.9570 C   0  0  0  0  0  0  0  0  0  0  0  0
   43.3720   67.9380   62.2160 O   0  0  0  0  0  0  0  0  0  0  0  0
   42.4020   69.2670   60.6950 N   0  0  0  0  0  0  0  0  0  0  0  0
   41.8460   70.4630   60.3320 C   0  0  0  0  0  0  0  0  0  0  0  0
   41.4090   70.6520   59.1690 O   0  0  0  0  0  0  0  0  0  0  0  0
   42.1700   72.0860   63.2510 H   0  0  0  0  0  0  0  0  0  0  0  0
   43.1680   69.9250   63.8880 H   0  0  0  0  0  0  0  0  0  0  0  0
   42.4320   68.5420   59.9450 H   0  0  0  0  0  0  0  0  0  0  0  0
   41.9680   73.6690   60.2620 C   0  0  0  0  0  0  0  0  0  0  0  0
   41.2170   72.7160   60.9680 C   0  0  0  0  0  0  0  0  0  0  0  0
   39.9060   73.0520   61.3760 C   0  0  0  0  0  0  0  0  0  0  0  0
   39.4550   74.2970   61.0490 N   0  0  0  0  0  0  0  0  0  0  0  0
   40.2000   75.1820   60.3730 C   0  0  0  0  0  0  0  0  0  0  0  0
   41.4450   74.8730   59.9820 N   0  0  0  0  0  0  0  0  0  0  0  0
   42.9670   73.4000   59.9560 H   0  0  0  0  0  0  0  0  0  0  0  0
   39.3400   72.3170   61.9150 H   0  0  0  0  0  0  0  0  0  0  0  0
   39.6270   76.5190   60.0590 C   0  0  0  0  0  3  0  0  0  0  0  0
   39.0930   76.7450   58.6300 C   0  0  0  0  0  2  0  0  0  0  0  0
   40.3170   77.4290   59.1170 C   0  0  0  0  0  2  0  0  0  0  0  0
  1  2  1  0  0  0  0
  2  3  2  0  0  0  0
  2  9  1  0  0  0  0
  3 10  1  0  0  0  0
  4  5  2  0  0  0  0
  4  3  1  0  0  0  0
  6  4  1  0  0  0  0
  7  6  1  0  0  0  0
  7  1  1  0  0  0  0
  8  7  2  0  0  0  0
 11  6  1  0  0  0  0
 12 13  1  0  0  0  0
 13  1  1  0  0  0  0
 13 14  2  0  0  0  0
 14 19  1  0  0  0  0
 15 14  1  0  0  0  0
 16 15  2  0  0  0  0
 17 12  2  0  0  0  0
 17 16  1  0  0  0  0
 18 12  1  0  0  0  0
 20 16  1  0  0  0  0
 21 22  1  0  0  0  0
 21 20  1  0  0  0  0
 22 20  1  0  0  0  0
M  END
>  <minimizedAffinity>
-4.62709427

$$$$

 OpenBabel03212520303D

 22 24  0  0  0  0  0  0  0  0999 V2000
   41.7220   71.6460   60.9990 N   0  0  0  0  0  0  0  0  0  0  0  0
   41.7220   70.7700   59.9970 C   0  0  0  0  0  0  0  0  0  0  0  0
   42.2730   69.5060   60.2240 C   0  0  0  0  0  0  0  0  0  0  0  0
   42.7970   69.2060   61.4730 C   0  0  0  0  0  0  0  0  0  0  0  0
   43.3110   68.0900   61.7590 O   0  0  0  0  0  0  0  0  0  0  0  0
   42.7650   70.1490   62.4550 N   0  0  0  0  0  0  0  0  0  0  0  0
   42.2250   71.3850   62.2270 C   0  0  0  0  0  0  0  0  0  0  0  0
   42.1930   72.2590   63.1300 O   0  0  0  0  0  0  0  0  0  0  0  0
   41.3270   70.9690   59.0200 H   0  0  0  0  0  0  0  0  0  0  0  0
   42.3040   68.7470   59.4490 H   0  0  0  0  0  0  0  0  0  0  0  0
   43.1390   69.9950   63.4170 H   0  0  0  0  0  0  0  0  0  0  0  0
   41.9040   73.8760   60.0100 C   0  0  0  0  0  0  0  0  0  0  0  0
   41.1440   72.9030   60.6770 C   0  0  0  0  0  0  0  0  0  0  0  0
   39.8040   73.2040   61.0160 C   0  0  0  0  0  0  0  0  0  0  0  0
   39.3390   74.4380   60.6650 N   0  0  0  0  0  0  0  0  0  0  0  0
   40.0940   75.3410   60.0270 C   0  0  0  0  0  0  0  0  0  0  0  0
   41.3660   75.0650   59.7010 N   0  0  0  0  0  0  0  0  0  0  0  0
   42.9250   73.6330   59.7560 H   0  0  0  0  0  0  0  0  0  0  0  0
   39.2310   72.4550   61.5260 H   0  0  0  0  0  0  0  0  0  0  0  0
   39.5030   76.6640   59.6830 C   0  0  0  0  0  3  0  0  0  0  0  0
   38.9930   76.8590   58.2410 C   0  0  0  0  0  2  0  0  0  0  0  0
   40.1950   77.5720   58.7400 C   0  0  0  0  0  2  0  0  0  0  0  0
  1  7  1  0  0  0  0
  2  3  2  0  0  0  0
  2  1  1  0  0  0  0
  3  4  1  0  0  0  0
  4  5  2  0  0  0  0
  4  6  1  0  0  0  0
  6 11  1  0  0  0  0
  7  6  1  0  0  0  0
  7  8  2  0  0  0  0
  9  2  1  0  0  0  0
 10  3  1  0  0  0  0
 12 13  1  0  0  0  0
 13  1  1  0  0  0  0
 13 14  2  0  0  0  0
 14 19  1  0  0  0  0
 15 14  1  0  0  0  0
 16 15  2  0  0  0  0
 17 12  2  0  0  0  0
 17 16  1  0  0  0  0
 18 12  1  0  0  0  0
 20 16  1  0  0  0  0
 21 22  1  0  0  0  0
 21 20  1  0  0  0  0
 22 20  1  0  0  0  0
M  END
>  <minimizedAffinity>
-4.62678576

$$$$

 OpenBabel03212520303D

 22 24  0  0  0  0  0  0  0  0999 V2000
   38.4420   76.4580   55.5040 N   0  0  0  0  0  0  0  0  0  0  0  0
   39.4260   76.0510   54.7050 C   0  0  0  0  0  0  0  0  0  0  0  0
   39.3390   76.3540   53.3430 C   0  0  0  0  0  0  0  0  0  0  0  0
   38.2430   77.0620   52.8710 C   0  0  0  0  0  0  0  0  0  0  0  0
   38.0890   77.3750   51.6590 O   0  0  0  0  0  0  0  0  0  0  0  0
   37.2710   77.4480   53.7440 N   0  0  0  0  0  0  0  0  0  0  0  0
   37.3620   77.1490   55.0760 C   0  0  0  0  0  0  0  0  0  0  0  0
   36.4670   77.5030   55.8860 O   0  0  0  0  0  0  0  0  0  0  0  0
   40.2860   75.5030   55.0350 H   0  0  0  0  0  0  0  0  0  0  0  0
   40.1070   76.0510   52.6390 H   0  0  0  0  0  0  0  0  0  0  0  0
   36.4200   77.9820   53.4630 H   0  0  0  0  0  0  0  0  0  0  0  0
   38.1140   74.8850   57.3480 C   0  0  0  0  0  0  0  0  0  0  0  0
   38.6150   76.1050   56.8700 C   0  0  0  0  0  0  0  0  0  0  0  0
   39.2870   76.9630   57.7710 C   0  0  0  0  0  0  0  0  0  0  0  0
   39.4020   76.5380   59.0620 N   0  0  0  0  0  0  0  0  0  0  0  0
   38.9110   75.3650   59.4830 C   0  0  0  0  0  0  0  0  0  0  0  0
   38.2730   74.5440   58.6360 N   0  0  0  0  0  0  0  0  0  0  0  0
   37.6040   74.2390   56.6500 H   0  0  0  0  0  0  0  0  0  0  0  0
   39.6660   77.8950   57.3960 H   0  0  0  0  0  0  0  0  0  0  0  0
   39.0830   74.9800   60.9110 C   0  0  0  0  0  3  0  0  0  0  0  0
   40.3040   74.1090   61.2690 C   0  0  0  0  0  2  0  0  0  0  0  0
   38.9220   73.5710   61.3330 C   0  0  0  0  0  2  0  0  0  0  0  0
  1 13  1  0  0  0  0
  2  9  1  0  0  0  0
  2  1  1  0  0  0  0
  3  2  2  0  0  0  0
  4  3  1  0  0  0  0
  4  6  1  0  0  0  0
  5  4  2  0  0  0  0
  6  7  1  0  0  0  0
  7  1  1  0  0  0  0
  7  8  2  0  0  0  0
 10  3  1  0  0  0  0
 11  6  1  0  0  0  0
 12 17  1  0  0  0  0
 13 12  2  0  0  0  0
 13 14  1  0  0  0  0
 14 15  2  0  0  0  0
 15 16  1  0  0  0  0
 16 20  1  0  0  0  0
 17 16  2  0  0  0  0
 18 12  1  0  0  0  0
 19 14  1  0  0  0  0
 20 21  1  0  0  0  0
 20 22  1  0  0  0  0
 21 22  1  0  0  0  0
M  END
>  <minimizedAffinity>
-4.62050533

$$$$

 OpenBabel03212520303D

 22 24  0  0  0  0  0  0  0  0999 V2000
   41.7970   71.7070   60.9530 N   0  0  0  0  0  0  0  0  0  0  0  0
   41.8710   70.8030   59.9780 C   0  0  0  0  0  0  0  0  0  0  0  0
   42.4460   69.5630   60.2710 C   0  0  0  0  0  0  0  0  0  0  0  0
   42.9160   69.3150   61.5530 C   0  0  0  0  0  0  0  0  0  0  0  0
   43.4470   68.2240   61.8980 O   0  0  0  0  0  0  0  0  0  0  0  0
   42.8090   70.2850   62.5020 N   0  0  0  0  0  0  0  0  0  0  0  0
   42.2450   71.4970   62.2110 C   0  0  0  0  0  0  0  0  0  0  0  0
   42.1440   72.3960   63.0840 O   0  0  0  0  0  0  0  0  0  0  0  0
   41.5200   70.9610   58.9780 H   0  0  0  0  0  0  0  0  0  0  0  0
   42.5370   68.7830   59.5220 H   0  0  0  0  0  0  0  0  0  0  0  0
   43.1380   70.1710   63.4860 H   0  0  0  0  0  0  0  0  0  0  0  0
   39.8290   73.1510   60.7820 C   0  0  0  0  0  0  0  0  0  0  0  0
   41.1990   72.9370   60.5640 C   0  0  0  0  0  0  0  0  0  0  0  0
   41.9580   73.9620   59.9550 C   0  0  0  0  0  0  0  0  0  0  0  0
   41.2950   75.1060   59.6170 N   0  0  0  0  0  0  0  0  0  0  0  0
   39.9860   75.2760   59.8410 C   0  0  0  0  0  0  0  0  0  0  0  0
   39.2570   74.3080   60.4180 N   0  0  0  0  0  0  0  0  0  0  0  0
   39.2610   72.3600   61.2480 H   0  0  0  0  0  0  0  0  0  0  0  0
   43.0040   73.7900   59.7920 H   0  0  0  0  0  0  0  0  0  0  0  0
   39.3440   76.5580   59.4390 C   0  0  0  0  0  3  0  0  0  0  0  0
   38.7360   76.6340   58.0250 C   0  0  0  0  0  2  0  0  0  0  0  0
   39.9520   77.4040   58.3880 C   0  0  0  0  0  2  0  0  0  0  0  0
  1  7  1  0  0  0  0
  2  3  2  0  0  0  0
  2  1  1  0  0  0  0
  3  4  1  0  0  0  0
  4  5  2  0  0  0  0
  4  6  1  0  0  0  0
  6 11  1  0  0  0  0
  7  6  1  0  0  0  0
  7  8  2  0  0  0  0
  9  2  1  0  0  0  0
 10  3  1  0  0  0  0
 12 18  1  0  0  0  0
 13 12  1  0  0  0  0
 13  1  1  0  0  0  0
 14 13  2  0  0  0  0
 15 16  2  0  0  0  0
 15 14  1  0  0  0  0
 16 17  1  0  0  0  0
 17 12  2  0  0  0  0
 19 14  1  0  0  0  0
 20 16  1  0  0  0  0
 21 22  1  0  0  0  0
 21 20  1  0  0  0  0
 22 20  1  0  0  0  0
M  END
>  <minimizedAffinity>
-4.59079552

$$$$

 OpenBabel03212520303D

 22 24  0  0  0  0  0  0  0  0999 V2000
   40.4810   73.9090   59.8610 N   0  0  0  0  0  0  0  0  0  0  0  0
   41.0970   74.8730   59.1810 C   0  0  0  0  0  0  0  0  0  0  0  0
   40.9520   76.1900   59.6240 C   0  0  0  0  0  0  0  0  0  0  0  0
   40.1790   76.4500   60.7470 C   0  0  0  0  0  0  0  0  0  0  0  0
   39.9980   77.6090   61.2120 O   0  0  0  0  0  0  0  0  0  0  0  0
   39.5760   75.4160   61.3970 N   0  0  0  0  0  0  0  0  0  0  0  0
   39.7220   74.1280   60.9580 C   0  0  0  0  0  0  0  0  0  0  0  0
   39.1670   73.1700   61.5540 O   0  0  0  0  0  0  0  0  0  0  0  0
   41.7000   74.7080   58.3100 H   0  0  0  0  0  0  0  0  0  0  0  0
   41.4270   77.0220   59.1140 H   0  0  0  0  0  0  0  0  0  0  0  0
   38.9820   75.5340   62.2460 H   0  0  0  0  0  0  0  0  0  0  0  0
   41.7970   71.8500   59.7420 C   0  0  0  0  0  0  0  0  0  0  0  0
   40.6840   72.6030   59.3380 C   0  0  0  0  0  0  0  0  0  0  0  0
   39.7830   72.0360   58.4080 C   0  0  0  0  0  0  0  0  0  0  0  0
   40.0630   70.7770   57.9630 N   0  0  0  0  0  0  0  0  0  0  0  0
   41.1360   70.0870   58.3710 C   0  0  0  0  0  0  0  0  0  0  0  0
   41.9970   70.6170   59.2540 N   0  0  0  0  0  0  0  0  0  0  0  0
   42.4780   72.2950   60.4530 H   0  0  0  0  0  0  0  0  0  0  0  0
   38.9350   72.6190   58.1040 H   0  0  0  0  0  0  0  0  0  0  0  0
   41.3640   68.7180   57.8330 C   0  0  0  0  0  3  0  0  0  0  0  0
   41.2030   67.5360   58.8090 C   0  0  0  0  0  2  0  0  0  0  0  0
   42.5320   67.9230   58.2740 C   0  0  0  0  0  2  0  0  0  0  0  0
  1  7  1  0  0  0  0
  2  3  2  0  0  0  0
  2  1  1  0  0  0  0
  3  4  1  0  0  0  0
  4  5  2  0  0  0  0
  4  6  1  0  0  0  0
  6 11  1  0  0  0  0
  7  6  1  0  0  0  0
  7  8  2  0  0  0  0
  9  2  1  0  0  0  0
 10  3  1  0  0  0  0
 12 18  1  0  0  0  0
 13 12  1  0  0  0  0
 13  1  1  0  0  0  0
 14 13  2  0  0  0  0
 15 16  2  0  0  0  0
 15 14  1  0  0  0  0
 16 17  1  0  0  0  0
 17 12  2  0  0  0  0
 19 14  1  0  0  0  0
 20 22  1  0  0  0  0
 20 16  1  0  0  0  0
 20 21  1  0  0  0  0
 22 21  1  0  0  0  0
M  END
>  <minimizedAffinity>
-4.55641747

$$$$
