
 OpenBabel03212520533D

 19 21  0  0  0  0  0  0  0  0999 V2000
   38.2540   76.0110   57.4700 C   0  0  0  0  0  0  0  0  0  0  0  0
   38.9910   76.9770   58.1740 C   0  0  0  0  0  0  0  0  0  0  0  0
   39.5040   76.6570   59.3870 C   0  0  0  0  0  0  0  0  0  0  0  0
   39.2830   75.3680   59.9020 C   0  0  0  0  0  0  0  0  0  0  0  0
   38.2780   74.5570   58.5730 S   0  0  0  0  0  0  0  0  0  0  0  0
   39.1470   77.9600   57.7590 H   0  0  0  0  0  0  0  0  0  0  0  0
   40.0860   77.2860   60.0390 H   0  0  0  0  0  0  0  0  0  0  0  0
   36.4670   77.6340   54.7370 C   0  0  0  0  0  0  0  0  0  0  0  0
   36.4890   76.6450   53.7060 C   0  0  0  0  0  0  0  0  0  0  0  0
   37.1340   75.4090   53.9750 C   0  0  0  0  0  0  0  0  0  0  0  0
   37.6820   75.2660   55.2020 N   0  0  0  0  0  0  0  0  0  0  0  0
   37.6410   76.2220   56.1470 C   0  0  0  0  0  0  0  0  0  0  0  0
   37.0450   77.3870   55.9260 N   0  0  0  0  0  0  0  0  0  0  0  0
   35.9820   78.5780   54.5540 H   0  0  0  0  0  0  0  0  0  0  0  0
   36.0220   76.8540   52.7610 H   0  0  0  0  0  0  0  0  0  0  0  0
   37.1570   74.6580   53.2110 H   0  0  0  0  0  0  0  0  0  0  0  0
   39.6540   74.6900   61.0950 C   0  0  0  0  0  3  0  0  0  0  0  0
   39.5590   73.2020   61.2600 C   0  0  0  0  0  2  0  0  0  0  0  0
   40.9250   73.8340   61.0170 C   0  0  0  0  0  2  0  0  0  0  0  0
  1  2  2  0  0  0  0
  1  5  1  0  0  0  0
  2  3  1  0  0  0  0
  3  4  2  0  0  0  0
  3  7  1  0  0  0  0
  4 17  1  0  0  0  0
  5  4  1  0  0  0  0
  6  2  1  0  0  0  0
  8 13  1  0  0  0  0
  9 10  1  0  0  0  0
  9  8  2  0  0  0  0
 10 11  2  0  0  0  0
 11 12  1  0  0  0  0
 12  1  1  0  0  0  0
 13 12  2  0  0  0  0
 14  8  1  0  0  0  0
 15  9  1  0  0  0  0
 16 10  1  0  0  0  0
 17 18  1  0  0  0  0
 19 17  1  0  0  0  0
 19 18  1  0  0  0  0
M  END
>  <minimizedAffinity>
-4.61147451

$$$$

 OpenBabel03212520533D

 19 21  0  0  0  0  0  0  0  0999 V2000
   39.0470   74.8500   59.2240 C   0  0  0  0  0  0  0  0  0  0  0  0
   38.3330   74.2170   60.2530 C   0  0  0  0  0  0  0  0  0  0  0  0
   39.0190   73.5750   61.2300 C   0  0  0  0  0  0  0  0  0  0  0  0
   40.4240   73.5630   61.1820 C   0  0  0  0  0  0  0  0  0  0  0  0
   40.7940   74.5290   59.6450 S   0  0  0  0  0  0  0  0  0  0  0  0
   37.2560   74.2390   60.2690 H   0  0  0  0  0  0  0  0  0  0  0  0
   38.6140   73.0490   62.0780 H   0  0  0  0  0  0  0  0  0  0  0  0
   36.9070   75.5700   56.3610 C   0  0  0  0  0  0  0  0  0  0  0  0
   37.2760   76.9060   56.0110 C   0  0  0  0  0  0  0  0  0  0  0  0
   38.2770   77.5510   56.7850 C   0  0  0  0  0  0  0  0  0  0  0  0
   38.8080   76.8380   57.8040 N   0  0  0  0  0  0  0  0  0  0  0  0
   38.4330   75.5810   58.1030 C   0  0  0  0  0  0  0  0  0  0  0  0
   37.5010   74.9520   57.3970 N   0  0  0  0  0  0  0  0  0  0  0  0
   36.1500   75.0630   55.7870 H   0  0  0  0  0  0  0  0  0  0  0  0
   36.7950   77.3890   55.1810 H   0  0  0  0  0  0  0  0  0  0  0  0
   38.5640   78.5520   56.5350 H   0  0  0  0  0  0  0  0  0  0  0  0
   41.4490   73.0150   62.0010 C   0  0  0  0  0  3  0  0  0  0  0  0
   41.3200   71.6990   62.7100 C   0  0  0  0  0  2  0  0  0  0  0  0
   42.1690   71.7790   61.4460 C   0  0  0  0  0  2  0  0  0  0  0  0
  1  5  1  0  0  0  0
  1  2  2  0  0  0  0
  2  6  1  0  0  0  0
  2  3  1  0  0  0  0
  3  7  1  0  0  0  0
  4  3  2  0  0  0  0
  4 17  1  0  0  0  0
  5  4  1  0  0  0  0
  8 13  1  0  0  0  0
  9  8  2  0  0  0  0
  9 10  1  0  0  0  0
 10 11  2  0  0  0  0
 11 12  1  0  0  0  0
 12  1  1  0  0  0  0
 13 12  2  0  0  0  0
 14  8  1  0  0  0  0
 15  9  1  0  0  0  0
 16 10  1  0  0  0  0
 17 18  1  0  0  0  0
 19 17  1  0  0  0  0
 19 18  1  0  0  0  0
M  END
>  <minimizedAffinity>
-4.55510616

$$$$

 OpenBabel03212520533D

 19 21  0  0  0  0  0  0  0  0999 V2000
   39.0570   74.8260   59.2350 C   0  0  0  0  0  0  0  0  0  0  0  0
   38.3440   74.1990   60.2690 C   0  0  0  0  0  0  0  0  0  0  0  0
   39.0310   73.5590   61.2470 C   0  0  0  0  0  0  0  0  0  0  0  0
   40.4360   73.5440   61.1950 C   0  0  0  0  0  0  0  0  0  0  0  0
   40.8040   74.5030   59.6540 S   0  0  0  0  0  0  0  0  0  0  0  0
   37.2670   74.2230   60.2880 H   0  0  0  0  0  0  0  0  0  0  0  0
   38.6270   73.0370   62.0980 H   0  0  0  0  0  0  0  0  0  0  0  0
   38.3350   77.5040   56.8690 C   0  0  0  0  0  0  0  0  0  0  0  0
   37.3180   76.9370   56.0410 C   0  0  0  0  0  0  0  0  0  0  0  0
   36.8880   75.6120   56.3180 C   0  0  0  0  0  0  0  0  0  0  0  0
   37.4860   74.9860   57.3570 N   0  0  0  0  0  0  0  0  0  0  0  0
   38.4420   75.5540   58.1130 C   0  0  0  0  0  0  0  0  0  0  0  0
   38.8630   76.7910   57.8790 N   0  0  0  0  0  0  0  0  0  0  0  0
   38.6750   78.5080   56.6760 H   0  0  0  0  0  0  0  0  0  0  0  0
   36.9030   77.5180   55.2370 H   0  0  0  0  0  0  0  0  0  0  0  0
   36.1260   75.1740   55.7060 H   0  0  0  0  0  0  0  0  0  0  0  0
   41.4620   72.9970   62.0140 C   0  0  0  0  0  3  0  0  0  0  0  0
   41.3350   71.6800   62.7220 C   0  0  0  0  0  2  0  0  0  0  0  0
   42.1840   71.7630   61.4580 C   0  0  0  0  0  2  0  0  0  0  0  0
  1  5  1  0  0  0  0
  1  2  2  0  0  0  0
  2  6  1  0  0  0  0
  2  3  1  0  0  0  0
  3  7  1  0  0  0  0
  4  3  2  0  0  0  0
  4 17  1  0  0  0  0
  5  4  1  0  0  0  0
  8 13  1  0  0  0  0
  9 10  1  0  0  0  0
  9  8  2  0  0  0  0
 10 11  2  0  0  0  0
 11 12  1  0  0  0  0
 12  1  1  0  0  0  0
 13 12  2  0  0  0  0
 14  8  1  0  0  0  0
 15  9  1  0  0  0  0
 16 10  1  0  0  0  0
 17 18  1  0  0  0  0
 19 17  1  0  0  0  0
 19 18  1  0  0  0  0
M  END
>  <minimizedAffinity>
-4.54472399

$$$$

 OpenBabel03212520533D

 19 21  0  0  0  0  0  0  0  0999 V2000
   40.6670   73.4330   60.9700 C   0  0  0  0  0  0  0  0  0  0  0  0
   39.3420   73.7600   61.3010 C   0  0  0  0  0  0  0  0  0  0  0  0
   38.7780   74.8590   60.7430 C   0  0  0  0  0  0  0  0  0  0  0  0
   39.5370   75.6370   59.8520 C   0  0  0  0  0  0  0  0  0  0  0  0
   41.1600   74.7470   59.8030 S   0  0  0  0  0  0  0  0  0  0  0  0
   38.7800   73.1480   61.9870 H   0  0  0  0  0  0  0  0  0  0  0  0
   37.7800   75.2330   60.8980 H   0  0  0  0  0  0  0  0  0  0  0  0
   41.6830   70.7550   63.2260 C   0  0  0  0  0  0  0  0  0  0  0  0
   42.7500   70.1230   62.5150 C   0  0  0  0  0  0  0  0  0  0  0  0
   43.1090   70.6410   61.2430 C   0  0  0  0  0  0  0  0  0  0  0  0
   42.4020   71.7060   60.8010 N   0  0  0  0  0  0  0  0  0  0  0  0
   41.4030   72.2730   61.4990 C   0  0  0  0  0  0  0  0  0  0  0  0
   41.0450   71.8110   62.6920 N   0  0  0  0  0  0  0  0  0  0  0  0
   41.3960   70.3780   64.1930 H   0  0  0  0  0  0  0  0  0  0  0  0
   43.2530   69.2800   62.9530 H   0  0  0  0  0  0  0  0  0  0  0  0
   43.9070   70.1780   60.6990 H   0  0  0  0  0  0  0  0  0  0  0  0
   39.2920   76.8160   59.0950 C   0  0  0  0  0  3  0  0  0  0  0  0
   40.0300   77.1510   57.8330 C   0  0  0  0  0  2  0  0  0  0  0  0
   38.6060   76.6150   57.7370 C   0  0  0  0  0  2  0  0  0  0  0  0
  1  2  2  0  0  0  0
  1 12  1  0  0  0  0
  2  6  1  0  0  0  0
  3  7  1  0  0  0  0
  3  2  1  0  0  0  0
  4  3  2  0  0  0  0
  5  4  1  0  0  0  0
  5  1  1  0  0  0  0
  8 14  1  0  0  0  0
  9 15  1  0  0  0  0
  9  8  2  0  0  0  0
 10  9  1  0  0  0  0
 11 10  2  0  0  0  0
 11 12  1  0  0  0  0
 12 13  2  0  0  0  0
 13  8  1  0  0  0  0
 16 10  1  0  0  0  0
 17  4  1  0  0  0  0
 18 17  1  0  0  0  0
 19 18  1  0  0  0  0
 19 17  1  0  0  0  0
M  END
>  <minimizedAffinity>
-4.46605921

$$$$

 OpenBabel03212520533D

 19 21  0  0  0  0  0  0  0  0999 V2000
   40.5940   73.3480   60.9760 C   0  0  0  0  0  0  0  0  0  0  0  0
   39.2470   73.6250   61.2620 C   0  0  0  0  0  0  0  0  0  0  0  0
   38.6620   74.7030   60.6850 C   0  0  0  0  0  0  0  0  0  0  0  0
   39.4200   75.5100   59.8200 C   0  0  0  0  0  0  0  0  0  0  0  0
   41.0770   74.6810   59.8250 S   0  0  0  0  0  0  0  0  0  0  0  0
   38.6860   72.9920   61.9290 H   0  0  0  0  0  0  0  0  0  0  0  0
   37.6460   75.0390   60.8070 H   0  0  0  0  0  0  0  0  0  0  0  0
   43.0410   70.6570   61.2290 C   0  0  0  0  0  0  0  0  0  0  0  0
   42.7820   70.1070   62.5230 C   0  0  0  0  0  0  0  0  0  0  0  0
   41.7470   70.6870   63.3040 C   0  0  0  0  0  0  0  0  0  0  0  0
   41.0800   71.7250   62.7510 N   0  0  0  0  0  0  0  0  0  0  0  0
   41.3540   72.2150   61.5300 C   0  0  0  0  0  0  0  0  0  0  0  0
   42.3160   71.6940   60.7760 N   0  0  0  0  0  0  0  0  0  0  0  0
   43.8220   70.2320   60.6210 H   0  0  0  0  0  0  0  0  0  0  0  0
   43.3680   69.2780   62.8740 H   0  0  0  0  0  0  0  0  0  0  0  0
   41.5410   70.2850   64.2750 H   0  0  0  0  0  0  0  0  0  0  0  0
   39.1570   76.6790   59.0550 C   0  0  0  0  0  3  0  0  0  0  0  0
   39.9200   77.0400   57.8140 C   0  0  0  0  0  2  0  0  0  0  0  0
   38.5190   76.4550   57.6780 C   0  0  0  0  0  2  0  0  0  0  0  0
  1  2  2  0  0  0  0
  1 12  1  0  0  0  0
  2  6  1  0  0  0  0
  3  7  1  0  0  0  0
  3  2  1  0  0  0  0
  4  5  1  0  0  0  0
  4  3  2  0  0  0  0
  5  1  1  0  0  0  0
  8  9  1  0  0  0  0
  9 15  1  0  0  0  0
  9 10  2  0  0  0  0
 10 16  1  0  0  0  0
 11 10  1  0  0  0  0
 12 11  2  0  0  0  0
 13  8  2  0  0  0  0
 13 12  1  0  0  0  0
 14  8  1  0  0  0  0
 17  4  1  0  0  0  0
 18 17  1  0  0  0  0
 19 18  1  0  0  0  0
 19 17  1  0  0  0  0
M  END
>  <minimizedAffinity>
-4.4392724

$$$$

 OpenBabel03212520533D

 19 21  0  0  0  0  0  0  0  0999 V2000
   41.3760   72.0820   61.4680 C   0  0  0  0  0  0  0  0  0  0  0  0
   41.4740   71.6100   62.7870 C   0  0  0  0  0  0  0  0  0  0  0  0
   42.2330   70.5150   63.0380 C   0  0  0  0  0  0  0  0  0  0  0  0
   42.8990   69.8880   61.9700 C   0  0  0  0  0  0  0  0  0  0  0  0
   42.4130   70.9220   60.5130 S   0  0  0  0  0  0  0  0  0  0  0  0
   40.9540   72.1070   63.5890 H   0  0  0  0  0  0  0  0  0  0  0  0
   42.4030   70.0400   63.9890 H   0  0  0  0  0  0  0  0  0  0  0  0
   38.5340   74.3220   61.0210 C   0  0  0  0  0  0  0  0  0  0  0  0
   39.0970   75.4150   60.2930 C   0  0  0  0  0  0  0  0  0  0  0  0
   40.4770   75.3620   59.9610 C   0  0  0  0  0  0  0  0  0  0  0  0
   41.1550   74.2640   60.3670 N   0  0  0  0  0  0  0  0  0  0  0  0
   40.5890   73.2550   61.0520 C   0  0  0  0  0  0  0  0  0  0  0  0
   39.3020   73.2770   61.3760 N   0  0  0  0  0  0  0  0  0  0  0  0
   37.4890   74.3430   61.2830 H   0  0  0  0  0  0  0  0  0  0  0  0
   38.4720   76.2450   60.0140 H   0  0  0  0  0  0  0  0  0  0  0  0
   40.9120   76.1730   59.4150 H   0  0  0  0  0  0  0  0  0  0  0  0
   43.7570   68.7600   61.8510 C   0  0  0  0  0  3  0  0  0  0  0  0
   43.9900   67.7830   62.9650 C   0  0  0  0  0  2  0  0  0  0  0  0
   43.0700   67.3890   61.8140 C   0  0  0  0  0  2  0  0  0  0  0  0
  1  2  2  0  0  0  0
  2  3  1  0  0  0  0
  2  6  1  0  0  0  0
  3  7  1  0  0  0  0
  4  3  2  0  0  0  0
  5  1  1  0  0  0  0
  5  4  1  0  0  0  0
  8 14  1  0  0  0  0
  8 13  1  0  0  0  0
  9  8  2  0  0  0  0
 10  9  1  0  0  0  0
 10 11  2  0  0  0  0
 11 12  1  0  0  0  0
 12 13  2  0  0  0  0
 12  1  1  0  0  0  0
 15  9  1  0  0  0  0
 16 10  1  0  0  0  0
 17  4  1  0  0  0  0
 17 18  1  0  0  0  0
 19 17  1  0  0  0  0
 19 18  1  0  0  0  0
M  END
>  <minimizedAffinity>
-4.23472452

$$$$

 OpenBabel03212520533D

 19 21  0  0  0  0  0  0  0  0999 V2000
   39.7530   74.3540   59.2890 C   0  0  0  0  0  0  0  0  0  0  0  0
   39.5800   75.7390   59.1350 C   0  0  0  0  0  0  0  0  0  0  0  0
   38.6670   76.1920   58.2420 C   0  0  0  0  0  0  0  0  0  0  0  0
   37.9200   75.2620   57.4980 C   0  0  0  0  0  0  0  0  0  0  0  0
   38.5600   73.6340   58.1090 S   0  0  0  0  0  0  0  0  0  0  0  0
   40.1650   76.4340   59.7160 H   0  0  0  0  0  0  0  0  0  0  0  0
   38.4240   77.2170   58.0150 H   0  0  0  0  0  0  0  0  0  0  0  0
   42.9120   73.2430   60.7290 C   0  0  0  0  0  0  0  0  0  0  0  0
   42.5030   72.5630   61.9180 C   0  0  0  0  0  0  0  0  0  0  0  0
   41.1140   72.4990   62.2100 C   0  0  0  0  0  0  0  0  0  0  0  0
   40.2810   73.0940   61.3270 N   0  0  0  0  0  0  0  0  0  0  0  0
   40.7060   73.7250   60.2180 C   0  0  0  0  0  0  0  0  0  0  0  0
   41.9970   73.8010   59.9180 N   0  0  0  0  0  0  0  0  0  0  0  0
   43.9600   73.3030   60.4890 H   0  0  0  0  0  0  0  0  0  0  0  0
   43.2440   72.1210   62.5580 H   0  0  0  0  0  0  0  0  0  0  0  0
   40.7930   71.9930   63.0980 H   0  0  0  0  0  0  0  0  0  0  0  0
   36.9060   75.3570   56.5070 C   0  0  0  0  0  3  0  0  0  0  0  0
   36.7340   76.5530   55.6170 C   0  0  0  0  0  2  0  0  0  0  0  0
   37.3790   75.2930   55.0480 C   0  0  0  0  0  2  0  0  0  0  0  0
  1 12  1  0  0  0  0
  2  1  2  0  0  0  0
  2  6  1  0  0  0  0
  3  2  1  0  0  0  0
  4  5  1  0  0  0  0
  4  3  2  0  0  0  0
  5  1  1  0  0  0  0
  7  3  1  0  0  0  0
  8  9  1  0  0  0  0
  9 10  2  0  0  0  0
  9 15  1  0  0  0  0
 10 16  1  0  0  0  0
 11 10  1  0  0  0  0
 12 11  2  0  0  0  0
 13 12  1  0  0  0  0
 13  8  2  0  0  0  0
 14  8  1  0  0  0  0
 17  4  1  0  0  0  0
 18 17  1  0  0  0  0
 19 18  1  0  0  0  0
 19 17  1  0  0  0  0
M  END
>  <minimizedAffinity>
-4.22678947

$$$$

 OpenBabel03212520533D

 19 21  0  0  0  0  0  0  0  0999 V2000
   41.2610   72.6110   61.0650 C   0  0  0  0  0  0  0  0  0  0  0  0
   42.1010   73.4810   60.3520 C   0  0  0  0  0  0  0  0  0  0  0  0
   41.6040   74.6660   59.9200 C   0  0  0  0  0  0  0  0  0  0  0  0
   40.2650   74.9870   60.1990 C   0  0  0  0  0  0  0  0  0  0  0  0
   39.6710   73.5050   61.1390 S   0  0  0  0  0  0  0  0  0  0  0  0
   43.1250   73.2130   60.1500 H   0  0  0  0  0  0  0  0  0  0  0  0
   42.1230   75.4300   59.3660 H   0  0  0  0  0  0  0  0  0  0  0  0
   42.1530   69.9970   63.4460 C   0  0  0  0  0  0  0  0  0  0  0  0
   42.4210   68.8730   62.6050 C   0  0  0  0  0  0  0  0  0  0  0  0
   42.2850   69.0380   61.2000 C   0  0  0  0  0  0  0  0  0  0  0  0
   41.9090   70.2630   60.7680 N   0  0  0  0  0  0  0  0  0  0  0  0
   41.6650   71.2970   61.5920 C   0  0  0  0  0  0  0  0  0  0  0  0
   41.7840   71.1730   62.9090 N   0  0  0  0  0  0  0  0  0  0  0  0
   42.2500   69.8930   64.5140 H   0  0  0  0  0  0  0  0  0  0  0  0
   42.7150   67.9390   63.0460 H   0  0  0  0  0  0  0  0  0  0  0  0
   42.4830   68.2050   60.5580 H   0  0  0  0  0  0  0  0  0  0  0  0
   39.4240   76.0990   59.9210 C   0  0  0  0  0  3  0  0  0  0  0  0
   39.7990   77.1970   58.9710 C   0  0  0  0  0  2  0  0  0  0  0  0
   38.7980   76.1390   58.5210 C   0  0  0  0  0  2  0  0  0  0  0  0
  1  5  1  0  0  0  0
  1 12  1  0  0  0  0
  2  1  2  0  0  0  0
  3  4  2  0  0  0  0
  3  2  1  0  0  0  0
  4  5  1  0  0  0  0
  6  2  1  0  0  0  0
  7  3  1  0  0  0  0
  8 14  1  0  0  0  0
  9 15  1  0  0  0  0
  9  8  2  0  0  0  0
 10  9  1  0  0  0  0
 11 10  2  0  0  0  0
 11 12  1  0  0  0  0
 12 13  2  0  0  0  0
 13  8  1  0  0  0  0
 16 10  1  0  0  0  0
 17  4  1  0  0  0  0
 18 17  1  0  0  0  0
 19 18  1  0  0  0  0
 19 17  1  0  0  0  0
M  END
>  <minimizedAffinity>
-4.10772419

$$$$

 OpenBabel03212520533D

 19 21  0  0  0  0  0  0  0  0999 V2000
   42.5040   71.3950   61.2920 C   0  0  0  0  0  0  0  0  0  0  0  0
   42.0680   71.2850   62.6220 C   0  0  0  0  0  0  0  0  0  0  0  0
   41.8100   70.0550   63.1300 C   0  0  0  0  0  0  0  0  0  0  0  0
   41.9870   68.9280   62.3090 C   0  0  0  0  0  0  0  0  0  0  0  0
   42.5580   69.6660   60.7090 S   0  0  0  0  0  0  0  0  0  0  0  0
   41.9390   72.1640   63.2320 H   0  0  0  0  0  0  0  0  0  0  0  0
   41.4720   69.8140   64.1240 H   0  0  0  0  0  0  0  0  0  0  0  0
   44.4470   74.0820   59.7770 C   0  0  0  0  0  0  0  0  0  0  0  0
   43.4430   75.0110   59.3610 C   0  0  0  0  0  0  0  0  0  0  0  0
   42.0830   74.6870   59.6140 C   0  0  0  0  0  0  0  0  0  0  0  0
   41.8470   73.5110   60.2380 N   0  0  0  0  0  0  0  0  0  0  0  0
   42.8200   72.6630   60.6130 C   0  0  0  0  0  0  0  0  0  0  0  0
   44.1000   72.9380   60.3910 N   0  0  0  0  0  0  0  0  0  0  0  0
   45.4840   74.3080   59.5940 H   0  0  0  0  0  0  0  0  0  0  0  0
   43.7340   75.9220   58.8720 H   0  0  0  0  0  0  0  0  0  0  0  0
   41.3200   75.3740   59.3090 H   0  0  0  0  0  0  0  0  0  0  0  0
   41.8250   67.5260   62.4860 C   0  0  0  0  0  3  0  0  0  0  0  0
   40.8770   66.9270   63.4820 C   0  0  0  0  0  2  0  0  0  0  0  0
   40.4930   66.9340   62.0060 C   0  0  0  0  0  2  0  0  0  0  0  0
  1  2  2  0  0  0  0
  2  3  1  0  0  0  0
  2  6  1  0  0  0  0
  3  7  1  0  0  0  0
  4 17  1  0  0  0  0
  4  3  2  0  0  0  0
  5  1  1  0  0  0  0
  5  4  1  0  0  0  0
  8 13  1  0  0  0  0
  9 10  1  0  0  0  0
  9  8  2  0  0  0  0
 10 11  2  0  0  0  0
 11 12  1  0  0  0  0
 12  1  1  0  0  0  0
 13 12  2  0  0  0  0
 14  8  1  0  0  0  0
 15  9  1  0  0  0  0
 16 10  1  0  0  0  0
 17 18  1  0  0  0  0
 19 17  1  0  0  0  0
 19 18  1  0  0  0  0
M  END
>  <minimizedAffinity>
-4.07240915

$$$$
