
 OpenBabel03212520513D

 29 32  0  0  1  0  0  0  0  0999 V2000
   41.6700   83.8250   61.4530 C   0  0  0  0  0  0  0  0  0  0  0  0
   41.0210   84.1900   62.5900 C   0  0  0  0  0  0  0  0  0  0  0  0
   40.5470   83.2420   63.4990 C   0  0  0  0  0  0  0  0  0  0  0  0
   40.7290   81.9310   63.2550 N   0  0  0  0  0  0  0  0  0  0  0  0
   41.3780   81.5870   62.1180 C   0  0  0  0  0  0  0  0  0  0  0  0
   41.8410   82.4930   61.2320 N   0  0  0  0  0  0  0  0  0  0  0  0
   40.8860   85.2480   62.7650 H   0  0  0  0  0  0  0  0  0  0  0  0
   40.0370   83.5890   64.3880 H   0  0  0  0  0  0  0  0  0  0  0  0
   43.6500   86.4760   59.8870 C   0  0  0  0  0  0  0  0  0  0  0  0
   43.0680   86.5810   58.6340 C   0  0  0  0  0  0  0  0  0  0  0  0
   41.9880   85.7490   58.3030 C   0  0  0  0  0  0  0  0  0  0  0  0
   41.5760   84.8670   59.2730 N   0  0  0  0  0  0  0  0  0  0  0  0
   42.1680   84.7940   60.4790 C   0  0  0  0  0  0  0  0  0  0  0  0
   43.2030   85.5860   60.8070 N   0  0  0  0  0  0  0  0  0  0  0  0
   44.7250   87.3660   60.0750 N   0  0  0  0  0  0  0  0  0  0  0  0
   43.3850   87.2740   57.8630 H   0  0  0  0  0  0  0  0  0  0  0  0
   41.4920   85.7730   57.3650 H   0  0  0  0  0  0  0  0  0  0  0  0
   44.7070   88.3580   59.7480 H   0  0  0  0  0  0  0  0  0  0  0  0
   45.5790   86.9780   60.5780 H   0  0  0  0  0  0  0  0  0  0  0  0
   41.5450   80.1080   61.8850 C   0  0  1  0  0  0  0  0  0  0  0  0
   40.6500   79.1460   62.4860 C   0  0  0  0  0  0  0  0  0  0  0  0
   40.3590   79.5350   61.0790 C   0  0  2  0  0  0  0  0  0  0  0  0
   42.5480   79.7800   61.5400 H   0  0  0  0  0  0  0  0  0  0  0  0
   39.8690   79.4320   63.2370 H   0  0  0  0  0  0  0  0  0  0  0  0
   40.9840   78.1070   62.6500 H   0  0  0  0  0  0  0  0  0  0  0  0
   39.4840   80.1720   60.9010 H   0  0  0  0  0  0  0  0  0  0  0  0
   40.7430   78.6860   59.9260 C   0  0  0  0  0  3  0  0  0  0  0  0
   39.6810   77.6450   59.5370 C   0  0  0  0  0  2  0  0  0  0  0  0
   40.1690   78.7360   58.5860 C   0  0  0  0  0  2  0  0  0  0  0  0
  1  2  1  0  0  0  0
  2  7  1  0  0  0  0
  2  3  2  0  0  0  0
  3  8  1  0  0  0  0
  4  3  1  0  0  0  0
  5  4  2  0  0  0  0
  6  1  2  0  0  0  0
  6  5  1  0  0  0  0
  9 15  1  0  0  0  0
  9 14  1  0  0  0  0
 10  9  2  0  0  0  0
 11 10  1  0  0  0  0
 11 12  2  0  0  0  0
 12 13  1  0  0  0  0
 13 14  2  0  0  0  0
 13  1  1  0  0  0  0
 15 19  1  0  0  0  0
 16 10  1  0  0  0  0
 17 11  1  0  0  0  0
 18 15  1  0  0  0  0
 20 23  1  6  0  0  0
 20  5  1  0  0  0  0
 20 21  1  0  0  0  0
 21 25  1  0  0  0  0
 21 24  1  0  0  0  0
 22 26  1  6  0  0  0
 22 20  1  0  0  0  0
 22 21  1  0  0  0  0
 27 22  1  0  0  0  0
 28 27  1  0  0  0  0
 29 28  1  0  0  0  0
 29 27  1  0  0  0  0
M  END
>  <minimizedAffinity>
-5.16254616

>  <minimizedRMSD>
0.616930783

$$$$
