
 OpenBabel03212521063D

 30 33  0  0  0  0  0  0  0  0999 V2000
   41.8090   84.2410   61.5630 C   0  0  0  0  0  0  0  0  0  0  0  0
   41.4430   83.9450   62.8670 C   0  0  0  0  0  0  0  0  0  0  0  0
   40.1600   83.5340   63.1930 C   0  0  0  0  0  0  0  0  0  0  0  0
   39.2120   83.4160   62.1810 C   0  0  0  0  0  0  0  0  0  0  0  0
   39.5710   83.7110   60.8650 C   0  0  0  0  0  0  0  0  0  0  0  0
   40.8480   84.1170   60.5620 C   0  0  0  0  0  0  0  0  0  0  0  0
   42.1440   84.0200   63.7000 H   0  0  0  0  0  0  0  0  0  0  0  0
   39.8500   83.2980   64.2040 H   0  0  0  0  0  0  0  0  0  0  0  0
   38.2160   83.0980   62.4310 H   0  0  0  0  0  0  0  0  0  0  0  0
   38.8420   83.6230   60.0650 H   0  0  0  0  0  0  0  0  0  0  0  0
   45.3430   84.1350   60.6750 C   0  0  0  0  0  0  0  0  0  0  0  0
   45.7380   85.4580   60.7450 C   0  0  0  0  0  0  0  0  0  0  0  0
   44.7600   86.4170   61.1080 C   0  0  0  0  0  0  0  0  0  0  0  0
   43.4990   85.9840   61.3650 N   0  0  0  0  0  0  0  0  0  0  0  0
   43.1600   84.6630   61.2820 C   0  0  0  0  0  0  0  0  0  0  0  0
   44.0820   83.7710   60.9410 N   0  0  0  0  0  0  0  0  0  0  0  0
   46.1280   83.4630   60.3960 H   0  0  0  0  0  0  0  0  0  0  0  0
   46.7500   85.7930   60.5360 H   0  0  0  0  0  0  0  0  0  0  0  0
   45.0590   87.4460   61.1630 H   0  0  0  0  0  0  0  0  0  0  0  0
   41.1790   84.4120   59.1850 C   0  0  0  0  0  0  0  0  0  0  0  0
   40.7410   85.6760   58.8040 C   0  0  0  0  0  0  0  0  0  0  0  0
   40.9570   86.1600   57.5170 C   0  0  0  0  0  0  0  0  0  0  0  0
   41.6080   85.3480   56.6610 N   0  0  0  0  0  0  0  0  0  0  0  0
   42.0320   84.1160   57.0360 C   0  0  0  0  0  0  0  0  0  0  0  0
   41.8250   83.6440   58.2800 N   0  0  0  0  0  0  0  0  0  0  0  0
   40.2060   86.3900   59.4490 H   0  0  0  0  0  0  0  0  0  0  0  0
   40.6270   87.1380   57.1990 H   0  0  0  0  0  0  0  0  0  0  0  0
   42.7460   83.2500   56.0670 C   0  0  0  0  0  3  0  0  0  0  0  0
   42.4730   83.5650   54.5960 C   0  0  0  0  0  2  0  0  0  0  0  0
   42.0590   82.2870   55.2100 C   0  0  0  0  0  2  0  0  0  0  0  0
  1  2  1  0  0  0  0
  2  3  2  0  0  0  0
  2  7  1  0  0  0  0
  3  8  1  0  0  0  0
  4  9  1  0  0  0  0
  4  3  1  0  0  0  0
  5  4  2  0  0  0  0
  6  5  1  0  0  0  0
  6  1  2  0  0  0  0
 10  5  1  0  0  0  0
 11 12  2  0  0  0  0
 11 16  1  0  0  0  0
 12 13  1  0  0  0  0
 13 19  1  0  0  0  0
 13 14  2  0  0  0  0
 15 14  1  0  0  0  0
 15  1  1  0  0  0  0
 16 15  2  0  0  0  0
 17 11  1  0  0  0  0
 18 12  1  0  0  0  0
 20  6  1  0  0  0  0
 21 20  1  0  0  0  0
 21 26  1  0  0  0  0
 22 21  2  0  0  0  0
 23 24  2  0  0  0  0
 23 22  1  0  0  0  0
 24 25  1  0  0  0  0
 25 20  2  0  0  0  0
 27 22  1  0  0  0  0
 28 24  1  0  0  0  0
 29 30  1  0  0  0  0
 29 28  1  0  0  0  0
 30 28  1  0  0  0  0
M  END
>  <minimizedAffinity>
-5.3955698

>  <minimizedRMSD>
0.155492485

$$$$
