
 OpenBabel03212520343D

 28 31  0  0  0  0  0  0  0  0999 V2000
   40.4290   81.1310   57.0620 C   0  0  0  0  0  0  0  0  0  0  0  0
   41.6640   81.4830   56.5150 C   0  0  0  0  0  0  0  0  0  0  0  0
   42.0120   81.2480   55.2000 C   0  0  0  0  0  0  0  0  0  0  0  0
   41.1010   80.6290   54.3610 C   0  0  0  0  0  0  0  0  0  0  0  0
   39.8780   80.2770   54.8920 C   0  0  0  0  0  0  0  0  0  0  0  0
   38.9000   79.6520   54.1430 C   0  0  0  0  0  0  0  0  0  0  0  0
   37.6830   79.2990   54.6850 C   0  0  0  0  0  0  0  0  0  0  0  0
   37.3770   79.5540   56.0110 C   0  0  0  0  0  0  0  0  0  0  0  0
   38.3380   80.1790   56.7800 C   0  0  0  0  0  0  0  0  0  0  0  0
   39.5340   80.5130   56.2070 C   0  0  0  0  0  0  0  0  0  0  0  0
   42.4340   81.9720   57.1020 H   0  0  0  0  0  0  0  0  0  0  0  0
   42.9790   81.5340   54.8050 H   0  0  0  0  0  0  0  0  0  0  0  0
   41.2760   80.4050   53.3290 H   0  0  0  0  0  0  0  0  0  0  0  0
   39.1460   79.4520   53.0960 H   0  0  0  0  0  0  0  0  0  0  0  0
   36.9940   78.8150   54.0040 H   0  0  0  0  0  0  0  0  0  0  0  0
   36.4080   79.2620   56.4030 H   0  0  0  0  0  0  0  0  0  0  0  0
   38.0990   80.3820   57.8110 H   0  0  0  0  0  0  0  0  0  0  0  0
   40.1720   80.6670   59.5990 C   0  0  0  0  0  0  0  0  0  0  0  0
   40.2690   81.4780   58.4710 C   0  0  0  0  0  0  0  0  0  0  0  0
   40.2020   82.8820   58.6640 C   0  0  0  0  0  0  0  0  0  0  0  0
   40.0480   83.3510   59.9320 N   0  0  0  0  0  0  0  0  0  0  0  0
   39.9580   82.5130   60.9980 C   0  0  0  0  0  0  0  0  0  0  0  0
   40.0220   81.1790   60.8090 N   0  0  0  0  0  0  0  0  0  0  0  0
   40.2390   79.6290   59.3520 H   0  0  0  0  0  0  0  0  0  0  0  0
   40.2630   83.6180   57.8880 H   0  0  0  0  0  0  0  0  0  0  0  0
   39.7910   83.1190   62.3420 C   0  0  0  0  0  0  0  0  0  0  0  0
   40.9630   82.8740   63.3430 C   0  0  0  0  0  0  0  0  0  0  0  0
   40.6370   84.2320   62.7850 C   0  0  0  0  0  0  0  0  0  0  0  0
  1 19  1  0  0  0  0
  2  1  1  0  0  0  0
  2 11  1  0  0  0  0
  3  2  2  0  0  0  0
  4  5  2  0  0  0  0
  4  3  1  0  0  0  0
  5 10  1  0  0  0  0
  6  7  2  0  0  0  0
  6  5  1  0  0  0  0
  7  8  1  0  0  0  0
  8 16  1  0  0  0  0
  8  9  2  0  0  0  0
  9 17  1  0  0  0  0
 10  9  1  0  0  0  0
 10  1  2  0  0  0  0
 12  3  1  0  0  0  0
 13  4  1  0  0  0  0
 14  6  1  0  0  0  0
 15  7  1  0  0  0  0
 18 23  1  0  0  0  0
 19 20  1  0  0  0  0
 19 18  2  0  0  0  0
 20 21  2  0  0  0  0
 21 22  1  0  0  0  0
 22 26  1  0  0  0  0
 23 22  2  0  0  0  0
 24 18  1  0  0  0  0
 25 20  1  0  0  0  0
 26 28  1  0  0  0  0
 26 27  1  0  0  0  0
 28 27  1  0  0  0  0
M  END
>  <minimizedAffinity>
-5.07236958

>  <minimizedRMSD>
2.21771955

$$$$
