
 OpenBabel03212520103D

 12 13  0  0  0  0  0  0  0  0999 V2000
   38.4470   74.4840   58.5530 C   0  0  0  0  0  0  0  0  0  0  0  0
   39.0290   75.7610   58.7350 C   0  0  0  0  0  0  0  0  0  0  0  0
   38.6240   76.8010   57.8960 C   0  0  0  0  0  0  0  0  0  0  0  0
   37.6840   76.5290   56.9410 N   0  0  0  0  0  0  0  0  0  0  0  0
   37.1480   75.3010   56.7930 C   0  0  0  0  0  0  0  0  0  0  0  0
   37.5280   74.2790   57.5980 N   0  0  0  0  0  0  0  0  0  0  0  0
   38.7430   73.6640   59.1900 H   0  0  0  0  0  0  0  0  0  0  0  0
   39.0490   77.7930   58.0060 H   0  0  0  0  0  0  0  0  0  0  0  0
   36.4150   75.2240   55.9990 H   0  0  0  0  0  0  0  0  0  0  0  0
   40.0320   75.9590   59.7890 C   0  0  0  0  0  3  0  0  0  0  0  0
   39.4040   76.2010   61.1870 C   0  0  0  0  0  2  0  0  0  0  0  0
   40.2720   77.2410   60.4410 C   0  0  0  0  0  2  0  0  0  0  0  0
  1  2  1  0  0  0  0
  1  7  1  0  0  0  0
  2 10  1  0  0  0  0
  3  8  1  0  0  0  0
  3  2  2  0  0  0  0
  4  3  1  0  0  0  0
  5  4  2  0  0  0  0
  5  6  1  0  0  0  0
  6  1  2  0  0  0  0
  9  5  1  0  0  0  0
 10 12  1  0  0  0  0
 10 11  1  0  0  0  0
 12 11  1  0  0  0  0
M  END
>  <minimizedAffinity>
-3.42784429

$$$$

 OpenBabel03212520103D

 12 13  0  0  0  0  0  0  0  0999 V2000
   38.5840   76.7510   57.8640 C   0  0  0  0  0  0  0  0  0  0  0  0
   38.9510   75.6460   58.6690 C   0  0  0  0  0  0  0  0  0  0  0  0
   38.3470   74.4130   58.4200 C   0  0  0  0  0  0  0  0  0  0  0  0
   37.4300   74.3380   57.4080 N   0  0  0  0  0  0  0  0  0  0  0  0
   37.1020   75.4090   56.6580 C   0  0  0  0  0  0  0  0  0  0  0  0
   37.6780   76.6150   56.8850 N   0  0  0  0  0  0  0  0  0  0  0  0
   39.0380   77.7160   58.0380 H   0  0  0  0  0  0  0  0  0  0  0  0
   38.6040   73.5450   59.0170 H   0  0  0  0  0  0  0  0  0  0  0  0
   36.3630   75.2110   55.8910 H   0  0  0  0  0  0  0  0  0  0  0  0
   39.9470   75.8230   59.7340 C   0  0  0  0  0  3  0  0  0  0  0  0
   39.3100   76.0100   61.1360 C   0  0  0  0  0  2  0  0  0  0  0  0
   40.1660   77.0860   60.4290 C   0  0  0  0  0  2  0  0  0  0  0  0
  1  7  1  0  0  0  0
  1  2  1  0  0  0  0
  2 10  1  0  0  0  0
  3  2  2  0  0  0  0
  3  8  1  0  0  0  0
  4  3  1  0  0  0  0
  5  6  1  0  0  0  0
  5  4  2  0  0  0  0
  6  1  2  0  0  0  0
  9  5  1  0  0  0  0
 10 12  1  0  0  0  0
 10 11  1  0  0  0  0
 12 11  1  0  0  0  0
M  END
>  <minimizedAffinity>
-3.4223783

$$$$

 OpenBabel03212520103D

 12 13  0  0  0  0  0  0  0  0999 V2000
   38.1170   74.5100   58.8640 C   0  0  0  0  0  0  0  0  0  0  0  0
   38.9590   75.2840   59.6980 C   0  0  0  0  0  0  0  0  0  0  0  0
   39.3280   76.5600   59.2680 C   0  0  0  0  0  0  0  0  0  0  0  0
   38.8550   76.9940   58.0600 N   0  0  0  0  0  0  0  0  0  0  0  0
   38.0540   76.2330   57.2890 C   0  0  0  0  0  0  0  0  0  0  0  0
   37.6840   74.9910   57.6900 N   0  0  0  0  0  0  0  0  0  0  0  0
   37.8170   73.5200   59.1750 H   0  0  0  0  0  0  0  0  0  0  0  0
   39.9720   77.1810   59.8810 H   0  0  0  0  0  0  0  0  0  0  0  0
   37.7510   76.6980   56.3580 H   0  0  0  0  0  0  0  0  0  0  0  0
   39.4170   74.7330   60.9790 C   0  0  0  0  0  3  0  0  0  0  0  0
   40.7550   73.9560   60.8620 C   0  0  0  0  0  2  0  0  0  0  0  0
   39.4170   73.3080   61.2880 C   0  0  0  0  0  2  0  0  0  0  0  0
  1  7  1  0  0  0  0
  1  2  1  0  0  0  0
  2 10  1  0  0  0  0
  3  2  2  0  0  0  0
  3  8  1  0  0  0  0
  4  3  1  0  0  0  0
  5  6  1  0  0  0  0
  5  4  2  0  0  0  0
  6  1  2  0  0  0  0
  9  5  1  0  0  0  0
 10 12  1  0  0  0  0
 11 10  1  0  0  0  0
 11 12  1  0  0  0  0
M  END
>  <minimizedAffinity>
-3.41374159

$$$$

 OpenBabel03212520103D

 12 13  0  0  0  0  0  0  0  0999 V2000
   38.1010   74.9380   58.4310 C   0  0  0  0  0  0  0  0  0  0  0  0
   38.8760   76.0790   58.7470 C   0  0  0  0  0  0  0  0  0  0  0  0
   38.8680   77.1540   57.8580 C   0  0  0  0  0  0  0  0  0  0  0  0
   38.1100   77.0470   56.7250 N   0  0  0  0  0  0  0  0  0  0  0  0
   37.3820   75.9470   56.4520 C   0  0  0  0  0  0  0  0  0  0  0  0
   37.3770   74.8920   57.3040 N   0  0  0  0  0  0  0  0  0  0  0  0
   38.0910   74.0930   59.1040 H   0  0  0  0  0  0  0  0  0  0  0  0
   39.4500   78.0450   58.0680 H   0  0  0  0  0  0  0  0  0  0  0  0
   36.8270   75.9940   55.5220 H   0  0  0  0  0  0  0  0  0  0  0  0
   39.6590   76.1030   59.9890 C   0  0  0  0  0  3  0  0  0  0  0  0
   41.0080   75.3450   59.8710 C   0  0  0  0  0  2  0  0  0  0  0  0
   39.8680   74.9300   60.8310 C   0  0  0  0  0  2  0  0  0  0  0  0
  1  2  1  0  0  0  0
  1  7  1  0  0  0  0
  2 10  1  0  0  0  0
  3  8  1  0  0  0  0
  3  2  2  0  0  0  0
  4  3  1  0  0  0  0
  5  4  2  0  0  0  0
  5  6  1  0  0  0  0
  6  1  2  0  0  0  0
  9  5  1  0  0  0  0
 10 12  1  0  0  0  0
 11 10  1  0  0  0  0
 11 12  1  0  0  0  0
M  END
>  <minimizedAffinity>
-3.23925972

$$$$

 OpenBabel03212520103D

 12 13  0  0  0  0  0  0  0  0999 V2000
   39.7210   76.0870   60.6260 C   0  0  0  0  0  0  0  0  0  0  0  0
   40.4350   75.4530   59.5820 C   0  0  0  0  0  0  0  0  0  0  0  0
   40.1500   74.1160   59.3000 C   0  0  0  0  0  0  0  0  0  0  0  0
   39.1940   73.4890   60.0500 N   0  0  0  0  0  0  0  0  0  0  0  0
   38.5300   74.1210   61.0380 C   0  0  0  0  0  0  0  0  0  0  0  0
   38.7930   75.4200   61.3260 N   0  0  0  0  0  0  0  0  0  0  0  0
   39.9220   77.1220   60.8630 H   0  0  0  0  0  0  0  0  0  0  0  0
   40.6780   73.5980   58.5060 H   0  0  0  0  0  0  0  0  0  0  0  0
   37.7990   73.5080   61.5520 H   0  0  0  0  0  0  0  0  0  0  0  0
   41.4450   76.2080   58.8300 C   0  0  0  0  0  3  0  0  0  0  0  0
   42.8980   75.8450   59.2330 C   0  0  0  0  0  2  0  0  0  0  0  0
   42.2770   77.2490   59.4220 C   0  0  0  0  0  2  0  0  0  0  0  0
  1  7  1  0  0  0  0
  1  6  1  0  0  0  0
  2  1  2  0  0  0  0
  3  2  1  0  0  0  0
  3  4  2  0  0  0  0
  4  5  1  0  0  0  0
  5  6  2  0  0  0  0
  5  9  1  0  0  0  0
  8  3  1  0  0  0  0
 10 11  1  0  0  0  0
 10 12  1  0  0  0  0
 10  2  1  0  0  0  0
 11 12  1  0  0  0  0
M  END
>  <minimizedAffinity>
-3.2027967

$$$$

 OpenBabel03212520103D

 12 13  0  0  0  0  0  0  0  0999 V2000
   41.0540   74.2420   60.1540 C   0  0  0  0  0  0  0  0  0  0  0  0
   40.5470   75.5620   60.1110 C   0  0  0  0  0  0  0  0  0  0  0  0
   39.2840   75.8070   60.6520 C   0  0  0  0  0  0  0  0  0  0  0  0
   38.6020   74.7540   61.1960 N   0  0  0  0  0  0  0  0  0  0  0  0
   39.1120   73.5070   61.2230 C   0  0  0  0  0  0  0  0  0  0  0  0
   40.3380   73.2500   60.7020 N   0  0  0  0  0  0  0  0  0  0  0  0
   42.0290   74.0270   59.7420 H   0  0  0  0  0  0  0  0  0  0  0  0
   38.8640   76.8070   60.6370 H   0  0  0  0  0  0  0  0  0  0  0  0
   38.4680   72.7670   61.6830 H   0  0  0  0  0  0  0  0  0  0  0  0
   41.3530   76.6300   59.5050 C   0  0  0  0  0  3  0  0  0  0  0  0
   41.2110   76.6960   57.9620 C   0  0  0  0  0  2  0  0  0  0  0  0
   42.5370   76.3800   58.6920 C   0  0  0  0  0  2  0  0  0  0  0  0
  1  6  1  0  0  0  0
  2  1  2  0  0  0  0
  2  3  1  0  0  0  0
  3  4  2  0  0  0  0
  4  5  1  0  0  0  0
  5  9  1  0  0  0  0
  6  5  2  0  0  0  0
  7  1  1  0  0  0  0
  8  3  1  0  0  0  0
 10  2  1  0  0  0  0
 11 12  1  0  0  0  0
 11 10  1  0  0  0  0
 12 10  1  0  0  0  0
M  END
>  <minimizedAffinity>
-3.11203027

$$$$

 OpenBabel03212520103D

 12 13  0  0  0  0  0  0  0  0999 V2000
   40.2770   73.6600   59.5500 C   0  0  0  0  0  0  0  0  0  0  0  0
   40.5380   75.0500   59.5590 C   0  0  0  0  0  0  0  0  0  0  0  0
   39.7650   75.8660   60.3870 C   0  0  0  0  0  0  0  0  0  0  0  0
   38.7950   75.2750   61.1480 N   0  0  0  0  0  0  0  0  0  0  0  0
   38.5710   73.9470   61.1190 C   0  0  0  0  0  0  0  0  0  0  0  0
   39.3110   73.1380   60.3200 N   0  0  0  0  0  0  0  0  0  0  0  0
   40.8610   73.0080   58.9180 H   0  0  0  0  0  0  0  0  0  0  0  0
   39.9380   76.9360   60.4190 H   0  0  0  0  0  0  0  0  0  0  0  0
   37.7730   73.6110   61.7710 H   0  0  0  0  0  0  0  0  0  0  0  0
   41.6020   75.5950   58.7060 C   0  0  0  0  0  3  0  0  0  0  0  0
   43.0220   75.3760   59.2930 C   0  0  0  0  0  2  0  0  0  0  0  0
   42.3930   76.7690   59.0570 C   0  0  0  0  0  2  0  0  0  0  0  0
  1  2  2  0  0  0  0
  1  6  1  0  0  0  0
  2  3  1  0  0  0  0
  3  8  1  0  0  0  0
  3  4  2  0  0  0  0
  5  4  1  0  0  0  0
  5  9  1  0  0  0  0
  6  5  2  0  0  0  0
  7  1  1  0  0  0  0
 10 12  1  0  0  0  0
 10 11  1  0  0  0  0
 10  2  1  0  0  0  0
 12 11  1  0  0  0  0
M  END
>  <minimizedAffinity>
-3.09089923

$$$$

 OpenBabel03212520103D

 12 13  0  0  0  0  0  0  0  0999 V2000
   41.1420   74.4650   60.0790 C   0  0  0  0  0  0  0  0  0  0  0  0
   40.6210   73.3900   60.8390 C   0  0  0  0  0  0  0  0  0  0  0  0
   39.2930   73.4580   61.2620 C   0  0  0  0  0  0  0  0  0  0  0  0
   38.5640   74.5630   60.9190 N   0  0  0  0  0  0  0  0  0  0  0  0
   39.0880   75.5700   60.1930 C   0  0  0  0  0  0  0  0  0  0  0  0
   40.3770   75.5220   59.7730 N   0  0  0  0  0  0  0  0  0  0  0  0
   42.1670   74.4350   59.7400 H   0  0  0  0  0  0  0  0  0  0  0  0
   38.8610   72.6530   61.8460 H   0  0  0  0  0  0  0  0  0  0  0  0
   38.4010   76.3840   59.9920 H   0  0  0  0  0  0  0  0  0  0  0  0
   41.4820   72.2440   61.1590 C   0  0  0  0  0  3  0  0  0  0  0  0
   42.1510   72.3580   62.5540 C   0  0  0  0  0  2  0  0  0  0  0  0
   42.9360   72.3230   61.2220 C   0  0  0  0  0  2  0  0  0  0  0  0
  1  2  1  0  0  0  0
  2 10  1  0  0  0  0
  2  3  2  0  0  0  0
  3  8  1  0  0  0  0
  4  3  1  0  0  0  0
  5  4  2  0  0  0  0
  6  1  2  0  0  0  0
  6  5  1  0  0  0  0
  7  1  1  0  0  0  0
  9  5  1  0  0  0  0
 10 12  1  0  0  0  0
 10 11  1  0  0  0  0
 12 11  1  0  0  0  0
M  END
>  <minimizedAffinity>
-3.05690122

$$$$

 OpenBabel03212520103D

 12 13  0  0  0  0  0  0  0  0999 V2000
   40.9170   67.8740   63.3200 C   0  0  0  0  0  0  0  0  0  0  0  0
   42.1620   67.4230   62.8210 C   0  0  0  0  0  0  0  0  0  0  0  0
   42.2920   66.0750   62.4810 C   0  0  0  0  0  0  0  0  0  0  0  0
   41.2070   65.2610   62.6510 N   0  0  0  0  0  0  0  0  0  0  0  0
   40.0340   65.7200   63.1280 C   0  0  0  0  0  0  0  0  0  0  0  0
   39.8880   67.0260   63.4630 N   0  0  0  0  0  0  0  0  0  0  0  0
   40.7910   68.9120   63.5900 H   0  0  0  0  0  0  0  0  0  0  0  0
   43.2320   65.6940   62.0960 H   0  0  0  0  0  0  0  0  0  0  0  0
   39.2570   64.9690   63.2120 H   0  0  0  0  0  0  0  0  0  0  0  0
   43.2720   68.3720   62.6740 C   0  0  0  0  0  3  0  0  0  0  0  0
   43.1520   69.2540   61.4030 C   0  0  0  0  0  2  0  0  0  0  0  0
   44.3030   68.2510   61.6500 C   0  0  0  0  0  2  0  0  0  0  0  0
  1  6  1  0  0  0  0
  1  7  1  0  0  0  0
  2  1  2  0  0  0  0
  3  4  2  0  0  0  0
  3  2  1  0  0  0  0
  4  5  1  0  0  0  0
  5  9  1  0  0  0  0
  5  6  2  0  0  0  0
  8  3  1  0  0  0  0
 10  2  1  0  0  0  0
 11 12  1  0  0  0  0
 11 10  1  0  0  0  0
 12 10  1  0  0  0  0
M  END
>  <minimizedAffinity>
-3.05635643

$$$$
