
 OpenBabel03212520433D

 12 13  0  0  0  0  0  0  0  0999 V2000
   40.3380   82.1250   61.0230 C   0  0  0  0  0  0  0  0  0  0  0  0
   40.4040   82.9250   59.8710 C   0  0  0  0  0  0  0  0  0  0  0  0
   39.6480   84.1000   59.8460 C   0  0  0  0  0  0  0  0  0  0  0  0
   38.8900   84.4020   60.9390 N   0  0  0  0  0  0  0  0  0  0  0  0
   38.8510   83.6130   62.0270 C   0  0  0  0  0  0  0  0  0  0  0  0
   39.5650   82.4830   62.0750 N   0  0  0  0  0  0  0  0  0  0  0  0
   41.0120   82.6680   59.0150 H   0  0  0  0  0  0  0  0  0  0  0  0
   39.6440   84.7790   58.9840 H   0  0  0  0  0  0  0  0  0  0  0  0
   38.2590   83.8280   62.9050 H   0  0  0  0  0  0  0  0  0  0  0  0
   41.1440   80.8590   61.0680 C   0  0  0  0  0  3  0  0  0  0  0  0
   40.8590   79.8130   62.0470 C   0  0  0  0  0  2  0  0  0  0  0  0
   40.3050   79.6390   60.6390 C   0  0  0  0  0  2  0  0  0  0  0  0
  1 10  1  0  0  0  0
  1  6  1  0  0  0  0
  2  1  2  0  0  0  0
  3  2  1  0  0  0  0
  3  4  2  0  0  0  0
  4  5  1  0  0  0  0
  5  6  2  0  0  0  0
  5  9  1  0  0  0  0
  7  2  1  0  0  0  0
  8  3  1  0  0  0  0
 10 11  1  0  0  0  0
 12 10  1  0  0  0  0
 12 11  1  0  0  0  0
M  END
>  <minimizedAffinity>
-3.77379203

>  <minimizedRMSD>
0.383040696

$$$$
