
 OpenBabel03212521033D

 22 24  0  0  0  0  0  0  0  0999 V2000
   42.3770   84.5050   62.3870 C   0  0  0  0  0  0  0  0  0  0  0  0
   42.3630   84.4470   63.7700 C   0  0  0  0  0  0  0  0  0  0  0  0
   41.2370   84.0660   64.4640 C   0  0  0  0  0  0  0  0  0  0  0  0
   40.0750   83.7290   63.7800 C   0  0  0  0  0  0  0  0  0  0  0  0
   40.0890   83.7870   62.3920 C   0  0  0  0  0  0  0  0  0  0  0  0
   41.2220   84.1690   61.7030 C   0  0  0  0  0  0  0  0  0  0  0  0
   43.2720   84.7120   64.3000 H   0  0  0  0  0  0  0  0  0  0  0  0
   41.2790   84.0380   65.5580 H   0  0  0  0  0  0  0  0  0  0  0  0
   39.2040   83.4320   64.3460 H   0  0  0  0  0  0  0  0  0  0  0  0
   39.1620   83.5130   61.9350 H   0  0  0  0  0  0  0  0  0  0  0  0
   45.5920   84.3530   60.6410 C   0  0  0  0  0  0  0  0  0  0  0  0
   45.8700   85.6930   60.3770 C   0  0  0  0  0  0  0  0  0  0  0  0
   44.9410   86.6460   60.8050 C   0  0  0  0  0  0  0  0  0  0  0  0
   43.8240   86.2240   61.4510 N   0  0  0  0  0  0  0  0  0  0  0  0
   43.5870   84.9120   61.6910 C   0  0  0  0  0  0  0  0  0  0  0  0
   44.4670   84.0040   61.2860 N   0  0  0  0  0  0  0  0  0  0  0  0
   46.3480   83.6910   60.2830 H   0  0  0  0  0  0  0  0  0  0  0  0
   46.7430   86.0680   59.8670 H   0  0  0  0  0  0  0  0  0  0  0  0
   45.1060   87.7020   60.6250 H   0  0  0  0  0  0  0  0  0  0  0  0
   41.1690   84.2090   60.2310 C   0  0  0  0  0  0  0  0  0  0  0  0
   40.1310   83.2940   59.6100 C   0  0  0  0  0  0  0  0  0  0  0  0
   40.0520   84.8110   59.4990 C   0  0  0  0  0  0  0  0  0  0  0  0
  1  2  1  0  0  0  0
  2  7  1  0  0  0  0
  2  3  2  0  0  0  0
  3  8  1  0  0  0  0
  4  9  1  0  0  0  0
  4  3  1  0  0  0  0
  5  4  2  0  0  0  0
  6  1  2  0  0  0  0
  6  5  1  0  0  0  0
 10  5  1  0  0  0  0
 11 16  1  0  0  0  0
 12 11  2  0  0  0  0
 12 13  1  0  0  0  0
 13 14  2  0  0  0  0
 14 15  1  0  0  0  0
 15  1  1  0  0  0  0
 16 15  2  0  0  0  0
 17 11  1  0  0  0  0
 18 12  1  0  0  0  0
 19 13  1  0  0  0  0
 20  6  1  0  0  0  0
 21 20  1  0  0  0  0
 22 21  1  0  0  0  0
 22 20  1  0  0  0  0
M  END
>  <minimizedAffinity>
-4.58556175

>  <minimizedRMSD>
2.03006315

$$$$
