
 OpenBabel03212521063D

 30 33  0  0  0  0  0  0  0  0999 V2000
   41.8260   84.2410   61.5750 C   0  0  0  0  0  0  0  0  0  0  0  0
   41.4530   83.9730   62.8830 C   0  0  0  0  0  0  0  0  0  0  0  0
   40.1700   83.5610   63.2100 C   0  0  0  0  0  0  0  0  0  0  0  0
   39.2300   83.4130   62.1960 C   0  0  0  0  0  0  0  0  0  0  0  0
   39.5960   83.6800   60.8750 C   0  0  0  0  0  0  0  0  0  0  0  0
   40.8730   84.0860   60.5700 C   0  0  0  0  0  0  0  0  0  0  0  0
   42.1480   84.0730   63.7190 H   0  0  0  0  0  0  0  0  0  0  0  0
   39.8560   83.3480   64.2240 H   0  0  0  0  0  0  0  0  0  0  0  0
   38.2350   83.0940   62.4460 H   0  0  0  0  0  0  0  0  0  0  0  0
   38.8730   83.5670   60.0720 H   0  0  0  0  0  0  0  0  0  0  0  0
   45.3640   84.1390   60.7040 C   0  0  0  0  0  0  0  0  0  0  0  0
   45.7510   85.4660   60.7530 C   0  0  0  0  0  0  0  0  0  0  0  0
   44.7660   86.4250   61.0960 C   0  0  0  0  0  0  0  0  0  0  0  0
   43.5070   85.9890   61.3550 N   0  0  0  0  0  0  0  0  0  0  0  0
   43.1760   84.6660   61.2930 C   0  0  0  0  0  0  0  0  0  0  0  0
   44.1040   83.7730   60.9700 N   0  0  0  0  0  0  0  0  0  0  0  0
   46.1540   83.4680   60.4400 H   0  0  0  0  0  0  0  0  0  0  0  0
   46.7630   85.8020   60.5440 H   0  0  0  0  0  0  0  0  0  0  0  0
   45.0600   87.4560   61.1350 H   0  0  0  0  0  0  0  0  0  0  0  0
   41.2100   84.3520   59.1890 C   0  0  0  0  0  0  0  0  0  0  0  0
   40.7900   85.6140   58.7840 C   0  0  0  0  0  0  0  0  0  0  0  0
   41.0150   86.0710   57.4890 C   0  0  0  0  0  0  0  0  0  0  0  0
   41.6570   85.2350   56.6490 N   0  0  0  0  0  0  0  0  0  0  0  0
   42.0650   84.0040   57.0490 C   0  0  0  0  0  0  0  0  0  0  0  0
   41.8490   83.5580   58.3000 N   0  0  0  0  0  0  0  0  0  0  0  0
   40.2620   86.3470   59.4130 H   0  0  0  0  0  0  0  0  0  0  0  0
   40.6980   87.0470   57.1510 H   0  0  0  0  0  0  0  0  0  0  0  0
   42.7690   83.1110   56.0980 C   0  0  0  0  0  3  0  0  0  0  0  0
   41.8620   82.1760   55.2960 C   0  0  0  0  0  2  0  0  0  0  0  0
   42.8420   81.6640   56.2750 C   0  0  0  0  0  2  0  0  0  0  0  0
  1  2  1  0  0  0  0
  2  3  2  0  0  0  0
  2  7  1  0  0  0  0
  3  8  1  0  0  0  0
  4  9  1  0  0  0  0
  4  3  1  0  0  0  0
  5  4  2  0  0  0  0
  6  5  1  0  0  0  0
  6  1  2  0  0  0  0
 10  5  1  0  0  0  0
 11 12  2  0  0  0  0
 11 16  1  0  0  0  0
 12 13  1  0  0  0  0
 13 19  1  0  0  0  0
 13 14  2  0  0  0  0
 15 14  1  0  0  0  0
 15  1  1  0  0  0  0
 16 15  2  0  0  0  0
 17 11  1  0  0  0  0
 18 12  1  0  0  0  0
 20  6  1  0  0  0  0
 21 20  1  0  0  0  0
 21 26  1  0  0  0  0
 22 21  2  0  0  0  0
 23 24  2  0  0  0  0
 23 22  1  0  0  0  0
 24 25  1  0  0  0  0
 25 20  2  0  0  0  0
 27 22  1  0  0  0  0
 28 30  1  0  0  0  0
 28 24  1  0  0  0  0
 29 28  1  0  0  0  0
 29 30  1  0  0  0  0
M  END
>  <minimizedAffinity>
-5.30645704

>  <minimizedRMSD>
0.522511899

$$$$
