
 OpenBabel03212520513D

 29 32  0  0  1  0  0  0  0  0999 V2000
   41.6150   83.8310   61.3940 C   0  0  0  0  0  0  0  0  0  0  0  0
   40.9930   84.2060   62.5420 C   0  0  0  0  0  0  0  0  0  0  0  0
   40.5520   83.2670   63.4770 C   0  0  0  0  0  0  0  0  0  0  0  0
   40.7420   81.9540   63.2470 N   0  0  0  0  0  0  0  0  0  0  0  0
   41.3640   81.6010   62.0990 C   0  0  0  0  0  0  0  0  0  0  0  0
   41.7950   82.4980   61.1870 N   0  0  0  0  0  0  0  0  0  0  0  0
   40.8520   85.2660   62.7060 H   0  0  0  0  0  0  0  0  0  0  0  0
   40.0630   83.6220   64.3740 H   0  0  0  0  0  0  0  0  0  0  0  0
   43.5910   86.4040   59.6970 C   0  0  0  0  0  0  0  0  0  0  0  0
   42.9080   86.5630   58.5010 C   0  0  0  0  0  0  0  0  0  0  0  0
   41.7620   85.7940   58.2560 C   0  0  0  0  0  0  0  0  0  0  0  0
   41.3890   84.9170   59.2450 N   0  0  0  0  0  0  0  0  0  0  0  0
   42.0780   84.7910   60.3930 C   0  0  0  0  0  0  0  0  0  0  0  0
   43.1790   85.5220   60.6400 N   0  0  0  0  0  0  0  0  0  0  0  0
   44.7240   87.2340   59.8020 N   0  0  0  0  0  0  0  0  0  0  0  0
   43.1940   87.2520   57.7160 H   0  0  0  0  0  0  0  0  0  0  0  0
   41.1880   85.8610   57.3650 H   0  0  0  0  0  0  0  0  0  0  0  0
   44.7310   88.2310   59.4930 H   0  0  0  0  0  0  0  0  0  0  0  0
   45.5970   86.7920   60.2230 H   0  0  0  0  0  0  0  0  0  0  0  0
   41.5400   80.1200   61.8820 C   0  0  1  0  0  0  0  0  0  0  0  0
   40.6500   79.1600   62.4920 C   0  0  0  0  0  0  0  0  0  0  0  0
   40.3590   79.5310   61.0800 C   0  0  2  0  0  0  0  0  0  0  0  0
   42.5460   79.7940   61.5420 H   0  0  0  0  0  0  0  0  0  0  0  0
   39.8650   79.4500   63.2390 H   0  0  0  0  0  0  0  0  0  0  0  0
   40.9890   78.1250   62.6680 H   0  0  0  0  0  0  0  0  0  0  0  0
   39.4800   80.1610   60.8940 H   0  0  0  0  0  0  0  0  0  0  0  0
   40.7490   78.6710   59.9380 C   0  0  0  0  0  3  0  0  0  0  0  0
   39.6790   77.6400   59.5390 C   0  0  0  0  0  2  0  0  0  0  0  0
   40.1950   78.7210   58.5880 C   0  0  0  0  0  2  0  0  0  0  0  0
  1  2  1  0  0  0  0
  2  7  1  0  0  0  0
  2  3  2  0  0  0  0
  3  8  1  0  0  0  0
  4  3  1  0  0  0  0
  5  4  2  0  0  0  0
  6  1  2  0  0  0  0
  6  5  1  0  0  0  0
  9 15  1  0  0  0  0
  9 14  1  0  0  0  0
 10  9  2  0  0  0  0
 11 10  1  0  0  0  0
 11 12  2  0  0  0  0
 12 13  1  0  0  0  0
 13 14  2  0  0  0  0
 13  1  1  0  0  0  0
 15 19  1  0  0  0  0
 16 10  1  0  0  0  0
 17 11  1  0  0  0  0
 18 15  1  0  0  0  0
 20 23  1  6  0  0  0
 20  5  1  0  0  0  0
 20 21  1  0  0  0  0
 21 25  1  0  0  0  0
 21 24  1  0  0  0  0
 22 26  1  6  0  0  0
 22 20  1  0  0  0  0
 22 21  1  0  0  0  0
 27 22  1  0  0  0  0
 28 27  1  0  0  0  0
 29 28  1  0  0  0  0
 29 27  1  0  0  0  0
M  END
>  <minimizedAffinity>
-5.17100477

>  <minimizedRMSD>
0.0378186256

$$$$
