
 OpenBabel03212520463D

 14 15  0  0  0  0  0  0  0  0999 V2000
   37.3980   74.8600   57.2250 C   0  0  0  0  0  0  0  0  0  0  0  0
   37.4140   76.0770   56.5240 C   0  0  0  0  0  0  0  0  0  0  0  0
   38.2450   77.1080   56.9820 C   0  0  0  0  0  0  0  0  0  0  0  0
   38.9870   76.8540   58.0870 N   0  0  0  0  0  0  0  0  0  0  0  0
   38.9590   75.6820   58.7430 C   0  0  0  0  0  0  0  0  0  0  0  0
   38.1690   74.7000   58.3090 N   0  0  0  0  0  0  0  0  0  0  0  0
   36.5110   73.9170   56.6420 N   0  0  0  0  0  0  0  0  0  0  0  0
   36.8410   76.3100   55.6510 H   0  0  0  0  0  0  0  0  0  0  0  0
   38.2890   78.0630   56.4750 H   0  0  0  0  0  0  0  0  0  0  0  0
   35.8620   73.4480   57.3350 H   0  0  0  0  0  0  0  0  0  0  0  0
   36.5200   73.7240   55.6170 H   0  0  0  0  0  0  0  0  0  0  0  0
   39.7980   75.4540   59.9560 C   0  0  0  0  0  3  0  0  0  0  0  0
   39.2240   76.0370   61.2760 C   0  0  0  0  0  2  0  0  0  0  0  0
   39.3000   74.5730   61.0430 C   0  0  0  0  0  2  0  0  0  0  0  0
  1  6  1  0  0  0  0
  2  3  1  0  0  0  0
  2  1  2  0  0  0  0
  3  4  2  0  0  0  0
  4  5  1  0  0  0  0
  5 12  1  0  0  0  0
  6  5  2  0  0  0  0
  7  1  1  0  0  0  0
  7 10  1  0  0  0  0
  8  2  1  0  0  0  0
  9  3  1  0  0  0  0
 11  7  1  0  0  0  0
 12 14  1  0  0  0  0
 12 13  1  0  0  0  0
 14 13  1  0  0  0  0
M  END
>  <minimizedAffinity>
-4.03934479

$$$$

 OpenBabel03212520463D

 14 15  0  0  0  0  0  0  0  0999 V2000
   37.3990   74.7270   57.4340 C   0  0  0  0  0  0  0  0  0  0  0  0
   37.8930   76.0170   57.1790 C   0  0  0  0  0  0  0  0  0  0  0  0
   38.7640   76.6010   58.1070 C   0  0  0  0  0  0  0  0  0  0  0  0
   39.0740   75.8700   59.2050 N   0  0  0  0  0  0  0  0  0  0  0  0
   38.5920   74.6360   59.4310 C   0  0  0  0  0  0  0  0  0  0  0  0
   37.7630   74.0780   58.5490 N   0  0  0  0  0  0  0  0  0  0  0  0
   36.5320   74.2710   56.4070 N   0  0  0  0  0  0  0  0  0  0  0  0
   37.6680   76.6200   56.3240 H   0  0  0  0  0  0  0  0  0  0  0  0
   39.1690   77.5930   57.9520 H   0  0  0  0  0  0  0  0  0  0  0  0
   35.6210   73.8630   56.7590 H   0  0  0  0  0  0  0  0  0  0  0  0
   36.7960   74.3450   55.4000 H   0  0  0  0  0  0  0  0  0  0  0  0
   38.9660   73.8720   60.6570 C   0  0  0  0  0  3  0  0  0  0  0  0
   40.1490   72.8820   60.4840 C   0  0  0  0  0  2  0  0  0  0  0  0
   40.2820   74.1120   61.3030 C   0  0  0  0  0  2  0  0  0  0  0  0
  1  6  1  0  0  0  0
  2  1  2  0  0  0  0
  2  3  1  0  0  0  0
  3  4  2  0  0  0  0
  4  5  1  0  0  0  0
  5 12  1  0  0  0  0
  6  5  2  0  0  0  0
  7 10  1  0  0  0  0
  7  1  1  0  0  0  0
  8  2  1  0  0  0  0
  9  3  1  0  0  0  0
 11  7  1  0  0  0  0
 12 14  1  0  0  0  0
 13 12  1  0  0  0  0
 13 14  1  0  0  0  0
M  END
>  <minimizedAffinity>
-3.8102355

$$$$

 OpenBabel03212520463D

 14 15  0  0  0  0  0  0  0  0999 V2000
   41.2110   71.9150   62.3630 C   0  0  0  0  0  0  0  0  0  0  0  0
   42.5120   72.0630   61.8550 C   0  0  0  0  0  0  0  0  0  0  0  0
   42.7530   73.0550   60.8960 C   0  0  0  0  0  0  0  0  0  0  0  0
   41.6960   73.8150   60.5200 N   0  0  0  0  0  0  0  0  0  0  0  0
   40.4580   73.6590   61.0180 C   0  0  0  0  0  0  0  0  0  0  0  0
   40.2280   72.7150   61.9310 N   0  0  0  0  0  0  0  0  0  0  0  0
   41.1260   70.8730   63.3240 N   0  0  0  0  0  0  0  0  0  0  0  0
   43.3670   71.4800   62.1310 H   0  0  0  0  0  0  0  0  0  0  0  0
   43.7390   73.2050   60.4760 H   0  0  0  0  0  0  0  0  0  0  0  0
   40.3200   70.2040   63.1650 H   0  0  0  0  0  0  0  0  0  0  0  0
   41.8110   70.7960   64.1060 H   0  0  0  0  0  0  0  0  0  0  0  0
   39.3280   74.5240   60.5690 C   0  0  0  0  0  3  0  0  0  0  0  0
   39.2830   75.9380   61.2100 C   0  0  0  0  0  2  0  0  0  0  0  0
   39.6070   75.7470   59.7740 C   0  0  0  0  0  2  0  0  0  0  0  0
  1  7  1  0  0  0  0
  2  8  1  0  0  0  0
  2  1  2  0  0  0  0
  3  2  1  0  0  0  0
  4  3  2  0  0  0  0
  4  5  1  0  0  0  0
  5  6  2  0  0  0  0
  6  1  1  0  0  0  0
  7 11  1  0  0  0  0
  9  3  1  0  0  0  0
 10  7  1  0  0  0  0
 12  5  1  0  0  0  0
 12 13  1  0  0  0  0
 14 12  1  0  0  0  0
 14 13  1  0  0  0  0
M  END
>  <minimizedAffinity>
-3.74335456

$$$$

 OpenBabel03212520463D

 14 15  0  0  0  0  0  0  0  0999 V2000
   37.7520   73.3140   57.5640 C   0  0  0  0  0  0  0  0  0  0  0  0
   38.3610   72.1160   57.1550 C   0  0  0  0  0  0  0  0  0  0  0  0
   39.4070   71.5940   57.9270 C   0  0  0  0  0  0  0  0  0  0  0  0
   39.7630   72.2920   59.0330 N   0  0  0  0  0  0  0  0  0  0  0  0
   39.1670   73.4360   59.4080 C   0  0  0  0  0  0  0  0  0  0  0  0
   38.1720   73.9350   58.6740 N   0  0  0  0  0  0  0  0  0  0  0  0
   36.7130   73.7150   56.6830 N   0  0  0  0  0  0  0  0  0  0  0  0
   38.1050   71.5420   56.2890 H   0  0  0  0  0  0  0  0  0  0  0  0
   39.9060   70.6740   57.6510 H   0  0  0  0  0  0  0  0  0  0  0  0
   36.7640   74.7310   56.3900 H   0  0  0  0  0  0  0  0  0  0  0  0
   35.9780   73.0450   56.3690 H   0  0  0  0  0  0  0  0  0  0  0  0
   39.5980   74.1660   60.6370 C   0  0  0  0  0  3  0  0  0  0  0  0
   40.4730   75.4240   60.3850 C   0  0  0  0  0  2  0  0  0  0  0  0
   39.0850   75.5350   60.8990 C   0  0  0  0  0  2  0  0  0  0  0  0
  1  6  1  0  0  0  0
  2  1  2  0  0  0  0
  2  3  1  0  0  0  0
  3  4  2  0  0  0  0
  4  5  1  0  0  0  0
  5 12  1  0  0  0  0
  6  5  2  0  0  0  0
  7  1  1  0  0  0  0
  8  2  1  0  0  0  0
  9  3  1  0  0  0  0
 10  7  1  0  0  0  0
 11  7  1  0  0  0  0
 12 14  1  0  0  0  0
 13 12  1  0  0  0  0
 13 14  1  0  0  0  0
M  END
>  <minimizedAffinity>
-3.74020338

$$$$

 OpenBabel03212520463D

 14 15  0  0  0  0  0  0  0  0999 V2000
   38.9970   74.5460   60.9830 C   0  0  0  0  0  0  0  0  0  0  0  0
   38.4840   74.3490   59.6910 C   0  0  0  0  0  0  0  0  0  0  0  0
   39.0110   73.3160   58.9060 C   0  0  0  0  0  0  0  0  0  0  0  0
   39.9970   72.5670   59.4580 N   0  0  0  0  0  0  0  0  0  0  0  0
   40.4740   72.7700   60.6970 C   0  0  0  0  0  0  0  0  0  0  0  0
   39.9730   73.7540   61.4450 N   0  0  0  0  0  0  0  0  0  0  0  0
   38.3640   75.6270   61.6530 N   0  0  0  0  0  0  0  0  0  0  0  0
   37.7080   74.9220   59.2260 H   0  0  0  0  0  0  0  0  0  0  0  0
   38.6470   73.1270   57.9040 H   0  0  0  0  0  0  0  0  0  0  0  0
   39.0360   76.3070   62.1070 H   0  0  0  0  0  0  0  0  0  0  0  0
   37.3250   75.7170   61.6780 H   0  0  0  0  0  0  0  0  0  0  0  0
   41.5610   71.9150   61.2580 C   0  0  0  0  0  3  0  0  0  0  0  0
   42.9890   72.5210   61.1750 C   0  0  0  0  0  2  0  0  0  0  0  0
   42.2910   72.3540   62.4740 C   0  0  0  0  0  2  0  0  0  0  0  0
  1  6  1  0  0  0  0
  1  7  1  0  0  0  0
  2  1  2  0  0  0  0
  3  4  2  0  0  0  0
  3  2  1  0  0  0  0
  4  5  1  0  0  0  0
  5 12  1  0  0  0  0
  5  6  2  0  0  0  0
  7 11  1  0  0  0  0
  7 10  1  0  0  0  0
  8  2  1  0  0  0  0
  9  3  1  0  0  0  0
 12 14  1  0  0  0  0
 13 12  1  0  0  0  0
 13 14  1  0  0  0  0
M  END
>  <minimizedAffinity>
-3.72587585

$$$$

 OpenBabel03212520463D

 14 15  0  0  0  0  0  0  0  0999 V2000
   38.3430   72.9690   57.2110 C   0  0  0  0  0  0  0  0  0  0  0  0
   38.0870   74.0800   56.3910 C   0  0  0  0  0  0  0  0  0  0  0  0
   37.9980   75.3480   56.9810 C   0  0  0  0  0  0  0  0  0  0  0  0
   38.1680   75.4140   58.3240 N   0  0  0  0  0  0  0  0  0  0  0  0
   38.4130   74.3390   59.0920 C   0  0  0  0  0  0  0  0  0  0  0  0
   38.4980   73.1320   58.5320 N   0  0  0  0  0  0  0  0  0  0  0  0
   38.4050   71.7600   56.4710 N   0  0  0  0  0  0  0  0  0  0  0  0
   37.9470   74.0630   55.3300 H   0  0  0  0  0  0  0  0  0  0  0  0
   37.8010   76.2320   56.3900 H   0  0  0  0  0  0  0  0  0  0  0  0
   37.8310   70.9710   56.8820 H   0  0  0  0  0  0  0  0  0  0  0  0
   38.9750   71.6830   55.6000 H   0  0  0  0  0  0  0  0  0  0  0  0
   38.5940   74.4670   60.5680 C   0  0  0  0  0  3  0  0  0  0  0  0
   40.0680   74.5260   61.0510 C   0  0  0  0  0  2  0  0  0  0  0  0
   39.1760   75.7090   61.1350 C   0  0  0  0  0  2  0  0  0  0  0  0
  1  6  1  0  0  0  0
  2  3  1  0  0  0  0
  2  1  2  0  0  0  0
  3  4  2  0  0  0  0
  4  5  1  0  0  0  0
  5 12  1  0  0  0  0
  6  5  2  0  0  0  0
  7 10  1  0  0  0  0
  7  1  1  0  0  0  0
  8  2  1  0  0  0  0
  9  3  1  0  0  0  0
 11  7  1  0  0  0  0
 12 13  1  0  0  0  0
 12 14  1  0  0  0  0
 13 14  1  0  0  0  0
M  END
>  <minimizedAffinity>
-3.62009263

$$$$

 OpenBabel03212520463D

 14 15  0  0  0  0  0  0  0  0999 V2000
   41.3940   76.2660   59.4740 C   0  0  0  0  0  0  0  0  0  0  0  0
   40.2540   76.8570   60.0440 C   0  0  0  0  0  0  0  0  0  0  0  0
   39.4600   76.0940   60.9090 C   0  0  0  0  0  0  0  0  0  0  0  0
   39.8520   74.8170   61.1380 N   0  0  0  0  0  0  0  0  0  0  0  0
   40.9460   74.2690   60.5830 C   0  0  0  0  0  0  0  0  0  0  0  0
   41.7030   74.9940   59.7600 N   0  0  0  0  0  0  0  0  0  0  0  0
   42.0940   77.1620   58.6240 N   0  0  0  0  0  0  0  0  0  0  0  0
   39.9180   77.8610   59.8840 H   0  0  0  0  0  0  0  0  0  0  0  0
   38.5730   76.5070   61.3710 H   0  0  0  0  0  0  0  0  0  0  0  0
   42.3460   76.7540   57.6800 H   0  0  0  0  0  0  0  0  0  0  0  0
   42.3270   78.1310   58.9300 H   0  0  0  0  0  0  0  0  0  0  0  0
   41.3340   72.8560   60.8690 C   0  0  0  0  0  3  0  0  0  0  0  0
   42.3120   72.6680   62.0600 C   0  0  0  0  0  2  0  0  0  0  0  0
   40.9010   72.2150   62.1360 C   0  0  0  0  0  2  0  0  0  0  0  0
  1  6  2  0  0  0  0
  1  2  1  0  0  0  0
  2  3  2  0  0  0  0
  3  4  1  0  0  0  0
  3  9  1  0  0  0  0
  5 12  1  0  0  0  0
  5  4  2  0  0  0  0
  6  5  1  0  0  0  0
  7 11  1  0  0  0  0
  7  1  1  0  0  0  0
  8  2  1  0  0  0  0
 10  7  1  0  0  0  0
 12 13  1  0  0  0  0
 12 14  1  0  0  0  0
 13 14  1  0  0  0  0
M  END
>  <minimizedAffinity>
-3.54309082

$$$$

 OpenBabel03212520463D

 14 15  0  0  0  0  0  0  0  0999 V2000
   39.2170   75.3610   60.5440 C   0  0  0  0  0  0  0  0  0  0  0  0
   38.5740   74.5370   59.6070 C   0  0  0  0  0  0  0  0  0  0  0  0
   39.2590   74.1840   58.4370 C   0  0  0  0  0  0  0  0  0  0  0  0
   40.5140   74.6720   58.2880 N   0  0  0  0  0  0  0  0  0  0  0  0
   41.1130   75.4600   59.1970 C   0  0  0  0  0  0  0  0  0  0  0  0
   40.4630   75.7960   60.3120 N   0  0  0  0  0  0  0  0  0  0  0  0
   38.3990   75.6290   61.6730 N   0  0  0  0  0  0  0  0  0  0  0  0
   37.5850   74.1350   59.6930 H   0  0  0  0  0  0  0  0  0  0  0  0
   38.8030   73.5520   57.6860 H   0  0  0  0  0  0  0  0  0  0  0  0
   38.3540   76.6520   61.9420 H   0  0  0  0  0  0  0  0  0  0  0  0
   37.8980   74.8640   62.1750 H   0  0  0  0  0  0  0  0  0  0  0  0
   42.5000   75.9710   58.9860 C   0  0  0  0  0  3  0  0  0  0  0  0
   43.6340   74.9820   59.3690 C   0  0  0  0  0  2  0  0  0  0  0  0
   43.3670   75.3460   57.9550 C   0  0  0  0  0  2  0  0  0  0  0  0
  1  7  1  0  0  0  0
  2  8  1  0  0  0  0
  2  1  2  0  0  0  0
  3  2  1  0  0  0  0
  4  3  2  0  0  0  0
  4  5  1  0  0  0  0
  5  6  2  0  0  0  0
  6  1  1  0  0  0  0
  7 10  1  0  0  0  0
  7 11  1  0  0  0  0
  9  3  1  0  0  0  0
 12  5  1  0  0  0  0
 12 13  1  0  0  0  0
 14 12  1  0  0  0  0
 14 13  1  0  0  0  0
M  END
>  <minimizedAffinity>
-3.53017926

$$$$

 OpenBabel03212520463D

 14 15  0  0  0  0  0  0  0  0999 V2000
   38.4810   74.1810   59.2350 C   0  0  0  0  0  0  0  0  0  0  0  0
   38.8270   75.5350   59.3740 C   0  0  0  0  0  0  0  0  0  0  0  0
   39.7530   75.8970   60.3600 C   0  0  0  0  0  0  0  0  0  0  0  0
   40.2600   74.8980   61.1240 N   0  0  0  0  0  0  0  0  0  0  0  0
   39.9170   73.6070   60.9750 C   0  0  0  0  0  0  0  0  0  0  0  0
   39.0350   73.2610   60.0370 N   0  0  0  0  0  0  0  0  0  0  0  0
   37.5350   73.9720   58.1970 N   0  0  0  0  0  0  0  0  0  0  0  0
   38.4460   76.3460   58.7880 H   0  0  0  0  0  0  0  0  0  0  0  0
   40.0490   76.9270   60.5040 H   0  0  0  0  0  0  0  0  0  0  0  0
   36.7130   73.3660   58.4760 H   0  0  0  0  0  0  0  0  0  0  0  0
   37.6640   74.3930   57.2510 H   0  0  0  0  0  0  0  0  0  0  0  0
   40.5050   72.5450   61.8430 C   0  0  0  0  0  3  0  0  0  0  0  0
   41.7520   71.8280   61.2570 C   0  0  0  0  0  2  0  0  0  0  0  0
   41.8570   72.7350   62.4270 C   0  0  0  0  0  2  0  0  0  0  0  0
  1  2  2  0  0  0  0
  1  6  1  0  0  0  0
  2  3  1  0  0  0  0
  3  9  1  0  0  0  0
  3  4  2  0  0  0  0
  5  4  1  0  0  0  0
  5 12  1  0  0  0  0
  6  5  2  0  0  0  0
  7 10  1  0  0  0  0
  7  1  1  0  0  0  0
  8  2  1  0  0  0  0
 11  7  1  0  0  0  0
 12 14  1  0  0  0  0
 13 12  1  0  0  0  0
 13 14  1  0  0  0  0
M  END
>  <minimizedAffinity>
-3.50543189

$$$$
