
 OpenBabel03212521063D

 30 33  0  0  0  0  0  0  0  0999 V2000
   41.8240   84.2370   61.5590 C   0  0  0  0  0  0  0  0  0  0  0  0
   41.4860   83.9190   62.8660 C   0  0  0  0  0  0  0  0  0  0  0  0
   40.2130   83.4920   63.2110 C   0  0  0  0  0  0  0  0  0  0  0  0
   39.2460   83.3820   62.2170 C   0  0  0  0  0  0  0  0  0  0  0  0
   39.5760   83.6990   60.8980 C   0  0  0  0  0  0  0  0  0  0  0  0
   40.8440   84.1200   60.5750 C   0  0  0  0  0  0  0  0  0  0  0  0
   42.2040   83.9870   63.6850 H   0  0  0  0  0  0  0  0  0  0  0  0
   39.9260   83.2400   64.2240 H   0  0  0  0  0  0  0  0  0  0  0  0
   38.2580   83.0520   62.4810 H   0  0  0  0  0  0  0  0  0  0  0  0
   38.8320   83.6170   60.1120 H   0  0  0  0  0  0  0  0  0  0  0  0
   45.3350   84.1760   60.5800 C   0  0  0  0  0  0  0  0  0  0  0  0
   45.7250   85.4990   60.6800 C   0  0  0  0  0  0  0  0  0  0  0  0
   44.7520   86.4410   61.0960 C   0  0  0  0  0  0  0  0  0  0  0  0
   43.5000   85.9940   61.3720 N   0  0  0  0  0  0  0  0  0  0  0  0
   43.1660   84.6750   61.2580 C   0  0  0  0  0  0  0  0  0  0  0  0
   44.0830   83.7980   60.8660 N   0  0  0  0  0  0  0  0  0  0  0  0
   46.1160   83.5180   60.2620 H   0  0  0  0  0  0  0  0  0  0  0  0
   46.7310   85.8450   60.4570 H   0  0  0  0  0  0  0  0  0  0  0  0
   45.0490   87.4690   61.1750 H   0  0  0  0  0  0  0  0  0  0  0  0
   41.1440   84.4390   59.1970 C   0  0  0  0  0  0  0  0  0  0  0  0
   40.7120   85.7140   58.8510 C   0  0  0  0  0  0  0  0  0  0  0  0
   40.9020   86.2210   57.5690 C   0  0  0  0  0  0  0  0  0  0  0  0
   41.5230   85.4190   56.6810 N   0  0  0  0  0  0  0  0  0  0  0  0
   41.9420   84.1750   57.0220 C   0  0  0  0  0  0  0  0  0  0  0  0
   41.7600   83.6800   58.2620 N   0  0  0  0  0  0  0  0  0  0  0  0
   40.2010   86.4220   59.5220 H   0  0  0  0  0  0  0  0  0  0  0  0
   40.5760   87.2090   57.2780 H   0  0  0  0  0  0  0  0  0  0  0  0
   42.6210   83.3200   56.0200 C   0  0  0  0  0  3  0  0  0  0  0  0
   44.0570   83.7270   55.6880 C   0  0  0  0  0  2  0  0  0  0  0  0
   42.9750   83.7930   54.6840 C   0  0  0  0  0  2  0  0  0  0  0  0
  1  2  1  0  0  0  0
  2  3  2  0  0  0  0
  2  7  1  0  0  0  0
  3  8  1  0  0  0  0
  4  9  1  0  0  0  0
  4  3  1  0  0  0  0
  5  4  2  0  0  0  0
  6  5  1  0  0  0  0
  6  1  2  0  0  0  0
 10  5  1  0  0  0  0
 11 12  2  0  0  0  0
 11 16  1  0  0  0  0
 12 13  1  0  0  0  0
 13 19  1  0  0  0  0
 13 14  2  0  0  0  0
 15 14  1  0  0  0  0
 15  1  1  0  0  0  0
 16 15  2  0  0  0  0
 17 11  1  0  0  0  0
 18 12  1  0  0  0  0
 20  6  1  0  0  0  0
 21 20  1  0  0  0  0
 21 26  1  0  0  0  0
 22 21  2  0  0  0  0
 23 24  2  0  0  0  0
 23 22  1  0  0  0  0
 24 25  1  0  0  0  0
 25 20  2  0  0  0  0
 27 22  1  0  0  0  0
 28 24  1  0  0  0  0
 29 28  1  0  0  0  0
 30 29  1  0  0  0  0
 30 28  1  0  0  0  0
M  END
>  <minimizedAffinity>
-5.25033474

>  <minimizedRMSD>
0.306735396

$$$$
