
 OpenBabel03212520523D

 29 32  0  0  1  0  0  0  0  0999 V2000
   39.5530   75.0660   56.8290 C   0  0  0  0  0  0  0  0  0  0  0  0
   40.6260   74.4380   56.2810 C   0  0  0  0  0  0  0  0  0  0  0  0
   41.6370   73.8900   57.0730 C   0  0  0  0  0  0  0  0  0  0  0  0
   41.5590   73.9800   58.4140 N   0  0  0  0  0  0  0  0  0  0  0  0
   40.4830   74.6080   58.9400 C   0  0  0  0  0  0  0  0  0  0  0  0
   39.4990   75.1420   58.1860 N   0  0  0  0  0  0  0  0  0  0  0  0
   40.6680   74.3780   55.2020 H   0  0  0  0  0  0  0  0  0  0  0  0
   42.4690   73.4010   56.5830 H   0  0  0  0  0  0  0  0  0  0  0  0
   37.0460   75.5710   54.2100 C   0  0  0  0  0  0  0  0  0  0  0  0
   36.4920   76.7920   54.5590 C   0  0  0  0  0  0  0  0  0  0  0  0
   36.9670   77.4640   55.6940 C   0  0  0  0  0  0  0  0  0  0  0  0
   37.9730   76.8450   56.3960 N   0  0  0  0  0  0  0  0  0  0  0  0
   38.4850   75.6580   56.0250 C   0  0  0  0  0  0  0  0  0  0  0  0
   38.0380   75.0040   54.9390 N   0  0  0  0  0  0  0  0  0  0  0  0
   36.4670   75.0100   53.0540 N   0  0  0  0  0  0  0  0  0  0  0  0
   35.7000   77.2880   54.0120 H   0  0  0  0  0  0  0  0  0  0  0  0
   36.5930   78.4020   56.0230 H   0  0  0  0  0  0  0  0  0  0  0  0
   36.2260   75.5720   52.2070 H   0  0  0  0  0  0  0  0  0  0  0  0
   36.2800   73.9620   53.0790 H   0  0  0  0  0  0  0  0  0  0  0  0
   40.4490   74.6940   60.4440 C   0  0  1  0  0  0  0  0  0  0  0  0
   39.2740   74.3110   61.1930 C   0  0  0  0  0  0  0  0  0  0  0  0
   40.3500   73.2890   61.0790 C   0  0  2  0  0  0  0  0  0  0  0  0
   41.1990   75.3670   60.9110 H   0  0  0  0  0  0  0  0  0  0  0  0
   38.3020   74.0450   60.7010 H   0  0  0  0  0  0  0  0  0  0  0  0
   39.0980   74.7300   62.1980 H   0  0  0  0  0  0  0  0  0  0  0  0
   40.1620   72.4260   60.4270 H   0  0  0  0  0  0  0  0  0  0  0  0
   41.3170   73.0310   62.1720 C   0  0  0  0  0  3  0  0  0  0  0  0
   41.3430   71.5680   62.6500 C   0  0  0  0  0  2  0  0  0  0  0  0
   42.5640   72.2810   62.0660 C   0  0  0  0  0  2  0  0  0  0  0  0
  1  6  1  0  0  0  0
  2  1  2  0  0  0  0
  2  3  1  0  0  0  0
  3  4  2  0  0  0  0
  4  5  1  0  0  0  0
  5 20  1  0  0  0  0
  6  5  2  0  0  0  0
  7  2  1  0  0  0  0
  8  3  1  0  0  0  0
  9 10  2  0  0  0  0
  9 14  1  0  0  0  0
 10 11  1  0  0  0  0
 11 17  1  0  0  0  0
 11 12  2  0  0  0  0
 13 12  1  0  0  0  0
 13  1  1  0  0  0  0
 14 13  2  0  0  0  0
 15 19  1  0  0  0  0
 15  9  1  0  0  0  0
 16 10  1  0  0  0  0
 18 15  1  0  0  0  0
 20 23  1  1  0  0  0
 20 22  1  0  0  0  0
 20 21  1  0  0  0  0
 21 25  1  0  0  0  0
 22 26  1  6  0  0  0
 22 21  1  0  0  0  0
 22 27  1  0  0  0  0
 24 21  1  0  0  0  0
 27 28  1  0  0  0  0
 29 27  1  0  0  0  0
 29 28  1  0  0  0  0
M  END
>  <minimizedAffinity>
-5.53791666

$$$$

 OpenBabel03212520523D

 29 32  0  0  1  0  0  0  0  0999 V2000
   42.2860   73.0100   60.2640 C   0  0  0  0  0  0  0  0  0  0  0  0
   43.1430   72.6870   59.2610 C   0  0  0  0  0  0  0  0  0  0  0  0
   43.9120   71.5220   59.3010 C   0  0  0  0  0  0  0  0  0  0  0  0
   43.8130   70.6910   60.3550 N   0  0  0  0  0  0  0  0  0  0  0  0
   42.9530   71.0290   61.3430 C   0  0  0  0  0  0  0  0  0  0  0  0
   42.2040   72.1510   61.3170 N   0  0  0  0  0  0  0  0  0  0  0  0
   43.2070   73.3700   58.4240 H   0  0  0  0  0  0  0  0  0  0  0  0
   44.5790   71.3150   58.4740 H   0  0  0  0  0  0  0  0  0  0  0  0
   39.6160   75.4150   60.9650 C   0  0  0  0  0  0  0  0  0  0  0  0
   39.9990   76.5120   60.2100 C   0  0  0  0  0  0  0  0  0  0  0  0
   41.1740   76.4480   59.4480 C   0  0  0  0  0  0  0  0  0  0  0  0
   41.8790   75.2700   59.5080 N   0  0  0  0  0  0  0  0  0  0  0  0
   41.4750   74.2260   60.2540 C   0  0  0  0  0  0  0  0  0  0  0  0
   40.3510   74.2760   60.9880 N   0  0  0  0  0  0  0  0  0  0  0  0
   38.4220   75.6250   61.6820 N   0  0  0  0  0  0  0  0  0  0  0  0
   39.4490   77.4440   60.1550 H   0  0  0  0  0  0  0  0  0  0  0  0
   41.5290   77.2470   58.8460 H   0  0  0  0  0  0  0  0  0  0  0  0
   37.5920   76.1130   61.2780 H   0  0  0  0  0  0  0  0  0  0  0  0
   38.3980   75.2550   62.6800 H   0  0  0  0  0  0  0  0  0  0  0  0
   42.8880   70.0720   62.5060 C   0  0  1  0  0  0  0  0  0  0  0  0
   41.8010   70.1190   63.4570 C   0  0  0  0  0  0  0  0  0  0  0  0
   41.6870   69.1110   62.3680 C   0  0  2  0  0  0  0  0  0  0  0  0
   43.8450   69.5880   62.7930 H   0  0  0  0  0  0  0  0  0  0  0  0
   41.0240   70.9270   63.4500 H   0  0  0  0  0  0  0  0  0  0  0  0
   41.9430   69.7260   64.4780 H   0  0  0  0  0  0  0  0  0  0  0  0
   40.9470   69.2990   61.5800 H   0  0  0  0  0  0  0  0  0  0  0  0
   42.0090   67.6790   62.5750 C   0  0  0  0  0  3  0  0  0  0  0  0
   40.8060   66.7370   62.3970 C   0  0  0  0  0  2  0  0  0  0  0  0
   42.0720   66.6480   61.5450 C   0  0  0  0  0  2  0  0  0  0  0  0
  1  6  1  0  0  0  0
  2  3  1  0  0  0  0
  2  1  2  0  0  0  0
  3  4  2  0  0  0  0
  4  5  1  0  0  0  0
  5 20  1  0  0  0  0
  6  5  2  0  0  0  0
  7  2  1  0  0  0  0
  8  3  1  0  0  0  0
  9 14  1  0  0  0  0
  9 15  1  0  0  0  0
 10  9  2  0  0  0  0
 11 12  2  0  0  0  0
 11 10  1  0  0  0  0
 12 13  1  0  0  0  0
 13  1  1  0  0  0  0
 13 14  2  0  0  0  0
 15 19  1  0  0  0  0
 16 10  1  0  0  0  0
 17 11  1  0  0  0  0
 18 15  1  0  0  0  0
 20 23  1  1  0  0  0
 20 21  1  0  0  0  0
 21 25  1  0  0  0  0
 22 26  1  6  0  0  0
 22 20  1  0  0  0  0
 22 27  1  0  0  0  0
 22 21  1  0  0  0  0
 24 21  1  0  0  0  0
 28 27  1  0  0  0  0
 29 28  1  0  0  0  0
 29 27  1  0  0  0  0
M  END
>  <minimizedAffinity>
-5.39700747

$$$$

 OpenBabel03212520523D

 29 32  0  0  1  0  0  0  0  0999 V2000
   41.7540   74.4700   59.6380 C   0  0  0  0  0  0  0  0  0  0  0  0
   43.0140   74.7640   59.2230 C   0  0  0  0  0  0  0  0  0  0  0  0
   44.1360   74.1870   59.8220 C   0  0  0  0  0  0  0  0  0  0  0  0
   43.9790   73.3170   60.8380 N   0  0  0  0  0  0  0  0  0  0  0  0
   42.7170   73.0380   61.2360 C   0  0  0  0  0  0  0  0  0  0  0  0
   41.6240   73.5880   60.6650 N   0  0  0  0  0  0  0  0  0  0  0  0
   43.1170   75.4640   58.4050 H   0  0  0  0  0  0  0  0  0  0  0  0
   45.1160   74.4570   59.4510 H   0  0  0  0  0  0  0  0  0  0  0  0
   38.4200   74.8550   58.1760 C   0  0  0  0  0  0  0  0  0  0  0  0
   38.3630   76.2160   57.9210 C   0  0  0  0  0  0  0  0  0  0  0  0
   39.4620   77.0240   58.2430 C   0  0  0  0  0  0  0  0  0  0  0  0
   40.5450   76.3910   58.8030 N   0  0  0  0  0  0  0  0  0  0  0  0
   40.5630   75.0660   59.0360 C   0  0  0  0  0  0  0  0  0  0  0  0
   39.5150   74.2810   58.7320 N   0  0  0  0  0  0  0  0  0  0  0  0
   37.2440   74.1720   57.8080 N   0  0  0  0  0  0  0  0  0  0  0  0
   37.5140   76.7240   57.4790 H   0  0  0  0  0  0  0  0  0  0  0  0
   39.4910   78.0720   58.0770 H   0  0  0  0  0  0  0  0  0  0  0  0
   36.7220   74.3700   56.9260 H   0  0  0  0  0  0  0  0  0  0  0  0
   36.8990   73.4260   58.4850 H   0  0  0  0  0  0  0  0  0  0  0  0
   42.5950   72.0690   62.3850 C   0  0  1  0  0  0  0  0  0  0  0  0
   41.3220   71.4890   62.7470 C   0  0  0  0  0  0  0  0  0  0  0  0
   42.2070   70.6600   61.8850 C   0  0  2  0  0  0  0  0  0  0  0  0
   43.4170   72.0920   63.1310 H   0  0  0  0  0  0  0  0  0  0  0  0
   40.3550   71.8100   62.2790 H   0  0  0  0  0  0  0  0  0  0  0  0
   41.1530   71.1240   63.7740 H   0  0  0  0  0  0  0  0  0  0  0  0
   41.9170   70.5330   60.8340 H   0  0  0  0  0  0  0  0  0  0  0  0
   43.0360   69.5580   62.4280 C   0  0  0  0  0  3  0  0  0  0  0  0
   42.5070   68.1540   62.0890 C   0  0  0  0  0  2  0  0  0  0  0  0
   43.8860   68.6550   61.6590 C   0  0  0  0  0  2  0  0  0  0  0  0
  1  6  1  0  0  0  0
  2  1  2  0  0  0  0
  2  3  1  0  0  0  0
  3  4  2  0  0  0  0
  4  5  1  0  0  0  0
  5 20  1  0  0  0  0
  6  5  2  0  0  0  0
  7  2  1  0  0  0  0
  8  3  1  0  0  0  0
  9 14  1  0  0  0  0
 10  9  2  0  0  0  0
 10 11  1  0  0  0  0
 11 12  2  0  0  0  0
 12 13  1  0  0  0  0
 13  1  1  0  0  0  0
 14 13  2  0  0  0  0
 15  9  1  0  0  0  0
 15 19  1  0  0  0  0
 16 10  1  0  0  0  0
 17 11  1  0  0  0  0
 18 15  1  0  0  0  0
 20 21  1  0  0  0  0
 20 23  1  1  0  0  0
 21 25  1  0  0  0  0
 22 26  1  6  0  0  0
 22 20  1  0  0  0  0
 22 27  1  0  0  0  0
 22 21  1  0  0  0  0
 24 21  1  0  0  0  0
 28 27  1  0  0  0  0
 29 28  1  0  0  0  0
 29 27  1  0  0  0  0
M  END
>  <minimizedAffinity>
-5.38787127

$$$$

 OpenBabel03212520523D

 29 32  0  0  1  0  0  0  0  0999 V2000
   40.7660   72.2910   60.3870 C   0  0  0  0  0  0  0  0  0  0  0  0
   40.9330   73.0380   61.5090 C   0  0  0  0  0  0  0  0  0  0  0  0
   41.8550   72.6830   62.4950 C   0  0  0  0  0  0  0  0  0  0  0  0
   42.6040   71.5750   62.3440 N   0  0  0  0  0  0  0  0  0  0  0  0
   42.4240   70.8440   61.2190 C   0  0  0  0  0  0  0  0  0  0  0  0
   41.5370   71.1760   60.2580 N   0  0  0  0  0  0  0  0  0  0  0  0
   40.3210   73.9240   61.6100 H   0  0  0  0  0  0  0  0  0  0  0  0
   41.9460   73.3160   63.3690 H   0  0  0  0  0  0  0  0  0  0  0  0
   38.8450   72.2220   57.2710 C   0  0  0  0  0  0  0  0  0  0  0  0
   37.9890   73.3000   57.4260 C   0  0  0  0  0  0  0  0  0  0  0  0
   38.0540   74.0690   58.5960 C   0  0  0  0  0  0  0  0  0  0  0  0
   38.9880   73.6870   59.5290 N   0  0  0  0  0  0  0  0  0  0  0  0
   39.8020   72.6320   59.3420 C   0  0  0  0  0  0  0  0  0  0  0  0
   39.7490   71.8880   58.2250 N   0  0  0  0  0  0  0  0  0  0  0  0
   38.6620   71.5390   56.0520 N   0  0  0  0  0  0  0  0  0  0  0  0
   37.2510   73.6100   56.6960 H   0  0  0  0  0  0  0  0  0  0  0  0
   37.4320   74.9080   58.7850 H   0  0  0  0  0  0  0  0  0  0  0  0
   38.5020   72.0280   55.1440 H   0  0  0  0  0  0  0  0  0  0  0  0
   38.6960   70.4760   56.0960 H   0  0  0  0  0  0  0  0  0  0  0  0
   43.2760   69.6070   61.1030 C   0  0  1  0  0  0  0  0  0  0  0  0
   43.6000   68.8060   62.2610 C   0  0  0  0  0  0  0  0  0  0  0  0
   42.4590   68.3370   61.4280 C   0  0  2  0  0  0  0  0  0  0  0  0
   43.9110   69.5360   60.1950 H   0  0  0  0  0  0  0  0  0  0  0  0
   43.3390   69.1170   63.3060 H   0  0  0  0  0  0  0  0  0  0  0  0
   44.5030   68.1720   62.2600 H   0  0  0  0  0  0  0  0  0  0  0  0
   41.4500   68.4490   61.8430 H   0  0  0  0  0  0  0  0  0  0  0  0
   42.5970   67.2400   60.4410 C   0  0  0  0  0  3  0  0  0  0  0  0
   41.6960   66.0260   60.7280 C   0  0  0  0  0  2  0  0  0  0  0  0
   41.6100   66.8470   59.4400 C   0  0  0  0  0  2  0  0  0  0  0  0
  1  2  1  0  0  0  0
  2  7  1  0  0  0  0
  2  3  2  0  0  0  0
  3  8  1  0  0  0  0
  4  3  1  0  0  0  0
  5  4  2  0  0  0  0
  6  1  2  0  0  0  0
  6  5  1  0  0  0  0
  9 10  2  0  0  0  0
  9 14  1  0  0  0  0
 10 11  1  0  0  0  0
 11 17  1  0  0  0  0
 11 12  2  0  0  0  0
 13 12  1  0  0  0  0
 13  1  1  0  0  0  0
 14 13  2  0  0  0  0
 15 19  1  0  0  0  0
 15  9  1  0  0  0  0
 16 10  1  0  0  0  0
 18 15  1  0  0  0  0
 20 23  1  6  0  0  0
 20  5  1  0  0  0  0
 20 22  1  0  0  0  0
 20 21  1  0  0  0  0
 21 24  1  0  0  0  0
 22 26  1  1  0  0  0
 22 21  1  0  0  0  0
 25 21  1  0  0  0  0
 27 28  1  0  0  0  0
 27 22  1  0  0  0  0
 29 27  1  0  0  0  0
 29 28  1  0  0  0  0
M  END
>  <minimizedAffinity>
-5.31011677

$$$$

 OpenBabel03212520523D

 29 32  0  0  1  0  0  0  0  0999 V2000
   40.4730   75.2700   59.7230 C   0  0  0  0  0  0  0  0  0  0  0  0
   40.6430   76.5860   60.0140 C   0  0  0  0  0  0  0  0  0  0  0  0
   39.9100   77.5800   59.3610 C   0  0  0  0  0  0  0  0  0  0  0  0
   39.0100   77.2390   58.4190 N   0  0  0  0  0  0  0  0  0  0  0  0
   38.8560   75.9240   58.1450 C   0  0  0  0  0  0  0  0  0  0  0  0
   39.5580   74.9530   58.7680 N   0  0  0  0  0  0  0  0  0  0  0  0
   41.3700   76.8380   60.7730 H   0  0  0  0  0  0  0  0  0  0  0  0
   40.0850   78.6140   59.6330 H   0  0  0  0  0  0  0  0  0  0  0  0
   41.3510   72.4560   61.8940 C   0  0  0  0  0  0  0  0  0  0  0  0
   42.6830   72.2430   61.5810 C   0  0  0  0  0  0  0  0  0  0  0  0
   43.3050   73.0570   60.6240 C   0  0  0  0  0  0  0  0  0  0  0  0
   42.5260   74.0330   60.0520 N   0  0  0  0  0  0  0  0  0  0  0  0
   41.2330   74.2090   60.3820 C   0  0  0  0  0  0  0  0  0  0  0  0
   40.6270   73.4350   61.2980 N   0  0  0  0  0  0  0  0  0  0  0  0
   40.8590   71.5600   62.8640 N   0  0  0  0  0  0  0  0  0  0  0  0
   43.3060   71.4770   62.0270 H   0  0  0  0  0  0  0  0  0  0  0  0
   44.3210   72.9540   60.3340 H   0  0  0  0  0  0  0  0  0  0  0  0
   41.4050   71.2780   63.7080 H   0  0  0  0  0  0  0  0  0  0  0  0
   39.8810   71.1720   62.6980 H   0  0  0  0  0  0  0  0  0  0  0  0
   37.8470   75.5950   57.0750 C   0  0  1  0  0  0  0  0  0  0  0  0
   37.3360   76.6120   56.1850 C   0  0  0  0  0  0  0  0  0  0  0  0
   38.4530   75.7770   55.6660 C   0  0  2  0  0  0  0  0  0  0  0  0
   37.2720   74.6570   57.2200 H   0  0  0  0  0  0  0  0  0  0  0  0
   37.5680   77.7020   56.3140 H   0  0  0  0  0  0  0  0  0  0  0  0
   36.3550   76.4800   55.6990 H   0  0  0  0  0  0  0  0  0  0  0  0
   39.4380   76.2510   55.5710 H   0  0  0  0  0  0  0  0  0  0  0  0
   38.2290   74.6410   54.7410 C   0  0  0  0  0  3  0  0  0  0  0  0
   38.6960   74.9090   53.2990 C   0  0  0  0  0  2  0  0  0  0  0  0
   39.2560   73.7790   54.1640 C   0  0  0  0  0  2  0  0  0  0  0  0
  1  2  1  0  0  0  0
  1 13  1  0  0  0  0
  2  7  1  0  0  0  0
  3  8  1  0  0  0  0
  3  2  2  0  0  0  0
  4  3  1  0  0  0  0
  5  4  2  0  0  0  0
  5  6  1  0  0  0  0
  6  1  2  0  0  0  0
  9 15  1  0  0  0  0
 10  9  1  0  0  0  0
 10 16  1  0  0  0  0
 11 10  2  0  0  0  0
 12 13  2  0  0  0  0
 12 11  1  0  0  0  0
 13 14  1  0  0  0  0
 14  9  2  0  0  0  0
 15 18  1  0  0  0  0
 17 11  1  0  0  0  0
 19 15  1  0  0  0  0
 20 23  1  1  0  0  0
 20  5  1  0  0  0  0
 21 24  1  0  0  0  0
 21 20  1  0  0  0  0
 22 26  1  6  0  0  0
 22 21  1  0  0  0  0
 22 20  1  0  0  0  0
 25 21  1  0  0  0  0
 27 22  1  0  0  0  0
 28 29  1  0  0  0  0
 28 27  1  0  0  0  0
 29 27  1  0  0  0  0
M  END
>  <minimizedAffinity>
-5.13413954

$$$$

 OpenBabel03212520523D

 29 32  0  0  1  0  0  0  0  0999 V2000
   40.9890   72.0100   60.2440 C   0  0  0  0  0  0  0  0  0  0  0  0
   41.0860   72.9760   61.1940 C   0  0  0  0  0  0  0  0  0  0  0  0
   41.8270   72.7840   62.3620 C   0  0  0  0  0  0  0  0  0  0  0  0
   42.4660   71.6170   62.5640 N   0  0  0  0  0  0  0  0  0  0  0  0
   42.3590   70.6680   61.6060 C   0  0  0  0  0  0  0  0  0  0  0  0
   41.6460   70.8410   60.4730 N   0  0  0  0  0  0  0  0  0  0  0  0
   40.5640   73.9060   61.0110 H   0  0  0  0  0  0  0  0  0  0  0  0
   41.8690   73.5880   63.0860 H   0  0  0  0  0  0  0  0  0  0  0  0
   38.4140   73.1020   57.8830 C   0  0  0  0  0  0  0  0  0  0  0  0
   38.7990   72.4710   56.7100 C   0  0  0  0  0  0  0  0  0  0  0  0
   39.9440   71.6620   56.7070 C   0  0  0  0  0  0  0  0  0  0  0  0
   40.6180   71.5510   57.8990 N   0  0  0  0  0  0  0  0  0  0  0  0
   40.2130   72.1790   59.0170 C   0  0  0  0  0  0  0  0  0  0  0  0
   39.1180   72.9580   59.0330 N   0  0  0  0  0  0  0  0  0  0  0  0
   37.2530   73.8860   57.7350 N   0  0  0  0  0  0  0  0  0  0  0  0
   38.2740   72.5520   55.7660 H   0  0  0  0  0  0  0  0  0  0  0  0
   40.2990   71.1480   55.8490 H   0  0  0  0  0  0  0  0  0  0  0  0
   36.4230   73.5760   57.1820 H   0  0  0  0  0  0  0  0  0  0  0  0
   37.2550   74.8320   58.2230 H   0  0  0  0  0  0  0  0  0  0  0  0
   43.0820   69.3750   61.8860 C   0  0  1  0  0  0  0  0  0  0  0  0
   43.3620   68.9470   63.2370 C   0  0  0  0  0  0  0  0  0  0  0  0
   42.1550   68.3620   62.5920 C   0  0  2  0  0  0  0  0  0  0  0  0
   43.6790   68.9590   61.0470 H   0  0  0  0  0  0  0  0  0  0  0  0
   43.1650   69.5950   64.1310 H   0  0  0  0  0  0  0  0  0  0  0  0
   44.1980   68.2560   63.4360 H   0  0  0  0  0  0  0  0  0  0  0  0
   41.1750   68.7010   62.9490 H   0  0  0  0  0  0  0  0  0  0  0  0
   42.1540   67.0030   62.0000 C   0  0  0  0  0  3  0  0  0  0  0  0
   41.2230   66.0100   62.7180 C   0  0  0  0  0  2  0  0  0  0  0  0
   41.0670   66.3890   61.2450 C   0  0  0  0  0  2  0  0  0  0  0  0
  1  6  2  0  0  0  0
  1  2  1  0  0  0  0
  2  3  2  0  0  0  0
  3  4  1  0  0  0  0
  3  8  1  0  0  0  0
  5 20  1  0  0  0  0
  5  4  2  0  0  0  0
  6  5  1  0  0  0  0
  7  2  1  0  0  0  0
  9 14  1  0  0  0  0
 10  9  2  0  0  0  0
 11 10  1  0  0  0  0
 11 12  2  0  0  0  0
 12 13  1  0  0  0  0
 13 14  2  0  0  0  0
 13  1  1  0  0  0  0
 15  9  1  0  0  0  0
 15 19  1  0  0  0  0
 16 10  1  0  0  0  0
 17 11  1  0  0  0  0
 18 15  1  0  0  0  0
 20 23  1  6  0  0  0
 20 22  1  0  0  0  0
 20 21  1  0  0  0  0
 21 25  1  0  0  0  0
 21 24  1  0  0  0  0
 22 26  1  1  0  0  0
 22 21  1  0  0  0  0
 27 22  1  0  0  0  0
 27 28  1  0  0  0  0
 29 27  1  0  0  0  0
 29 28  1  0  0  0  0
M  END
>  <minimizedAffinity>
-4.96462202

$$$$

 OpenBabel03212520523D

 29 32  0  0  1  0  0  0  0  0999 V2000
   43.0700   69.2610   60.9140 C   0  0  0  0  0  0  0  0  0  0  0  0
   43.9790   69.1500   59.9100 C   0  0  0  0  0  0  0  0  0  0  0  0
   44.5080   70.2750   59.2740 C   0  0  0  0  0  0  0  0  0  0  0  0
   44.1160   71.5050   59.6540 N   0  0  0  0  0  0  0  0  0  0  0  0
   43.2110   71.5950   60.6550 C   0  0  0  0  0  0  0  0  0  0  0  0
   42.6920   70.5160   61.2790 N   0  0  0  0  0  0  0  0  0  0  0  0
   44.2800   68.1520   59.6210 H   0  0  0  0  0  0  0  0  0  0  0  0
   45.2290   70.1280   58.4800 H   0  0  0  0  0  0  0  0  0  0  0  0
   40.7810   67.1300   62.8170 C   0  0  0  0  0  0  0  0  0  0  0  0
   41.4510   65.9180   62.8370 C   0  0  0  0  0  0  0  0  0  0  0  0
   42.6960   65.8080   62.2020 C   0  0  0  0  0  0  0  0  0  0  0  0
   43.1730   66.9410   61.5900 N   0  0  0  0  0  0  0  0  0  0  0  0
   42.4920   68.1020   61.5920 C   0  0  0  0  0  0  0  0  0  0  0  0
   41.2980   68.2190   62.1970 N   0  0  0  0  0  0  0  0  0  0  0  0
   39.5420   67.0910   63.4870 N   0  0  0  0  0  0  0  0  0  0  0  0
   41.0830   65.0190   63.3180 H   0  0  0  0  0  0  0  0  0  0  0  0
   43.2670   64.9130   62.1770 H   0  0  0  0  0  0  0  0  0  0  0  0
   39.4010   66.5960   64.3960 H   0  0  0  0  0  0  0  0  0  0  0  0
   38.7330   67.5990   63.0170 H   0  0  0  0  0  0  0  0  0  0  0  0
   42.7950   72.9930   61.0350 C   0  0  1  0  0  0  0  0  0  0  0  0
   42.8480   74.0780   60.0820 C   0  0  0  0  0  0  0  0  0  0  0  0
   41.5250   73.4220   60.2670 C   0  0  2  0  0  0  0  0  0  0  0  0
   42.7840   73.2200   62.1210 H   0  0  0  0  0  0  0  0  0  0  0  0
   43.3040   73.9680   59.0630 H   0  0  0  0  0  0  0  0  0  0  0  0
   42.9350   75.1190   60.4350 H   0  0  0  0  0  0  0  0  0  0  0  0
   41.1580   72.7840   59.4530 H   0  0  0  0  0  0  0  0  0  0  0  0
   40.4580   74.0130   61.1090 C   0  0  0  0  0  3  0  0  0  0  0  0
   39.3940   74.7890   60.3150 C   0  0  0  0  0  2  0  0  0  0  0  0
   39.0700   73.5720   61.1820 C   0  0  0  0  0  2  0  0  0  0  0  0
  1  6  1  0  0  0  0
  1 13  1  0  0  0  0
  2  1  2  0  0  0  0
  3  4  2  0  0  0  0
  3  2  1  0  0  0  0
  4  5  1  0  0  0  0
  5 20  1  0  0  0  0
  5  6  2  0  0  0  0
  7  2  1  0  0  0  0
  8  3  1  0  0  0  0
  9 10  1  0  0  0  0
  9 15  1  0  0  0  0
 10 16  1  0  0  0  0
 11 10  2  0  0  0  0
 12 13  2  0  0  0  0
 12 11  1  0  0  0  0
 13 14  1  0  0  0  0
 14  9  2  0  0  0  0
 15 18  1  0  0  0  0
 17 11  1  0  0  0  0
 19 15  1  0  0  0  0
 20 23  1  1  0  0  0
 21 22  1  0  0  0  0
 21 25  1  0  0  0  0
 21 20  1  0  0  0  0
 22 26  1  6  0  0  0
 22 20  1  0  0  0  0
 22 27  1  0  0  0  0
 24 21  1  0  0  0  0
 27 29  1  0  0  0  0
 28 27  1  0  0  0  0
 28 29  1  0  0  0  0
M  END
>  <minimizedAffinity>
-4.94741154

$$$$

 OpenBabel03212520523D

 29 32  0  0  1  0  0  0  0  0999 V2000
   42.7970   70.3080   61.8030 C   0  0  0  0  0  0  0  0  0  0  0  0
   41.7170   70.7250   62.5140 C   0  0  0  0  0  0  0  0  0  0  0  0
   41.3370   72.0680   62.5490 C   0  0  0  0  0  0  0  0  0  0  0  0
   42.0500   72.9830   61.8660 N   0  0  0  0  0  0  0  0  0  0  0  0
   43.1210   72.5480   61.1630 C   0  0  0  0  0  0  0  0  0  0  0  0
   43.4990   71.2530   61.1210 N   0  0  0  0  0  0  0  0  0  0  0  0
   41.1590   69.9730   63.0560 H   0  0  0  0  0  0  0  0  0  0  0  0
   40.4680   72.3440   63.1320 H   0  0  0  0  0  0  0  0  0  0  0  0
   42.9030   66.6860   62.3230 C   0  0  0  0  0  0  0  0  0  0  0  0
   44.0520   66.3210   61.6400 C   0  0  0  0  0  0  0  0  0  0  0  0
   44.8110   67.3060   60.9920 C   0  0  0  0  0  0  0  0  0  0  0  0
   44.3460   68.5950   61.0840 N   0  0  0  0  0  0  0  0  0  0  0  0
   43.2240   68.9100   61.7560 C   0  0  0  0  0  0  0  0  0  0  0  0
   42.4890   67.9750   62.3820 N   0  0  0  0  0  0  0  0  0  0  0  0
   42.2410   65.5930   62.9180 N   0  0  0  0  0  0  0  0  0  0  0  0
   44.4270   65.3070   61.5630 H   0  0  0  0  0  0  0  0  0  0  0  0
   45.7010   67.1020   60.4510 H   0  0  0  0  0  0  0  0  0  0  0  0
   42.7440   64.8210   63.4090 H   0  0  0  0  0  0  0  0  0  0  0  0
   41.1790   65.5870   62.8450 H   0  0  0  0  0  0  0  0  0  0  0  0
   43.8940   73.6120   60.4270 C   0  0  1  0  0  0  0  0  0  0  0  0
   44.3370   73.4130   59.0660 C   0  0  0  0  0  0  0  0  0  0  0  0
   43.0730   74.1780   59.2470 C   0  0  2  0  0  0  0  0  0  0  0  0
   44.3950   74.3760   61.0580 H   0  0  0  0  0  0  0  0  0  0  0  0
   44.2340   72.4320   58.5320 H   0  0  0  0  0  0  0  0  0  0  0  0
   45.2020   73.9770   58.6780 H   0  0  0  0  0  0  0  0  0  0  0  0
   42.1350   73.6810   58.9680 H   0  0  0  0  0  0  0  0  0  0  0  0
   43.0250   75.6580   59.1760 C   0  0  0  0  0  3  0  0  0  0  0  0
   42.3590   76.2000   57.8990 C   0  0  0  0  0  2  0  0  0  0  0  0
   41.8360   76.4930   59.3070 C   0  0  0  0  0  2  0  0  0  0  0  0
  1  2  1  0  0  0  0
  2  3  2  0  0  0  0
  2  7  1  0  0  0  0
  3  8  1  0  0  0  0
  4  3  1  0  0  0  0
  5  4  2  0  0  0  0
  6  5  1  0  0  0  0
  6  1  2  0  0  0  0
  9 14  1  0  0  0  0
  9 15  1  0  0  0  0
 10  9  2  0  0  0  0
 11 12  2  0  0  0  0
 11 10  1  0  0  0  0
 12 13  1  0  0  0  0
 13  1  1  0  0  0  0
 13 14  2  0  0  0  0
 15 18  1  0  0  0  0
 16 10  1  0  0  0  0
 17 11  1  0  0  0  0
 19 15  1  0  0  0  0
 20 23  1  1  0  0  0
 20  5  1  0  0  0  0
 21 22  1  0  0  0  0
 21 20  1  0  0  0  0
 22 26  1  6  0  0  0
 22 20  1  0  0  0  0
 24 21  1  0  0  0  0
 25 21  1  0  0  0  0
 27 22  1  0  0  0  0
 27 29  1  0  0  0  0
 28 27  1  0  0  0  0
 28 29  1  0  0  0  0
M  END
>  <minimizedAffinity>
-4.93674374

$$$$

 OpenBabel03212520523D

 29 32  0  0  1  0  0  0  0  0999 V2000
   42.0920   69.7960   61.7550 C   0  0  0  0  0  0  0  0  0  0  0  0
   42.1590   70.6130   62.8380 C   0  0  0  0  0  0  0  0  0  0  0  0
   41.9150   71.9850   62.7360 C   0  0  0  0  0  0  0  0  0  0  0  0
   41.6060   72.5220   61.5410 N   0  0  0  0  0  0  0  0  0  0  0  0
   41.5440   71.6920   60.4760 C   0  0  0  0  0  0  0  0  0  0  0  0
   41.7770   70.3650   60.5600 N   0  0  0  0  0  0  0  0  0  0  0  0
   42.4090   70.1600   63.7880 H   0  0  0  0  0  0  0  0  0  0  0  0
   41.9820   72.5890   63.6320 H   0  0  0  0  0  0  0  0  0  0  0  0
   41.8610   66.2650   62.6940 C   0  0  0  0  0  0  0  0  0  0  0  0
   42.8670   65.6890   61.9360 C   0  0  0  0  0  0  0  0  0  0  0  0
   43.6420   66.4970   61.0920 C   0  0  0  0  0  0  0  0  0  0  0  0
   43.3390   67.8360   61.0790 N   0  0  0  0  0  0  0  0  0  0  0  0
   42.3530   68.3590   61.8300 C   0  0  0  0  0  0  0  0  0  0  0  0
   41.6030   67.5950   62.6430 N   0  0  0  0  0  0  0  0  0  0  0  0
   41.1620   65.3330   63.4870 N   0  0  0  0  0  0  0  0  0  0  0  0
   43.1140   64.6340   61.9400 H   0  0  0  0  0  0  0  0  0  0  0  0
   44.4290   66.1270   60.4830 H   0  0  0  0  0  0  0  0  0  0  0  0
   41.6340   64.5610   64.0090 H   0  0  0  0  0  0  0  0  0  0  0  0
   40.1050   65.4510   63.5350 H   0  0  0  0  0  0  0  0  0  0  0  0
   41.2070   72.3430   59.1590 C   0  0  1  0  0  0  0  0  0  0  0  0
   40.3350   71.7010   58.2030 C   0  0  0  0  0  0  0  0  0  0  0  0
   39.7100   72.7180   59.0920 C   0  0  2  0  0  0  0  0  0  0  0  0
   41.9040   73.1360   58.8160 H   0  0  0  0  0  0  0  0  0  0  0  0
   39.9610   70.6520   58.3340 H   0  0  0  0  0  0  0  0  0  0  0  0
   40.4030   71.9570   57.1330 H   0  0  0  0  0  0  0  0  0  0  0  0
   39.0380   72.3570   59.8810 H   0  0  0  0  0  0  0  0  0  0  0  0
   39.4350   74.1030   58.6400 C   0  0  0  0  0  3  0  0  0  0  0  0
   37.9390   74.4600   58.5970 C   0  0  0  0  0  2  0  0  0  0  0  0
   38.9530   75.2030   59.4680 C   0  0  0  0  0  2  0  0  0  0  0  0
  1 13  1  0  0  0  0
  1  2  1  0  0  0  0
  2  7  1  0  0  0  0
  3  2  2  0  0  0  0
  3  8  1  0  0  0  0
  4  3  1  0  0  0  0
  5  6  1  0  0  0  0
  5  4  2  0  0  0  0
  6  1  2  0  0  0  0
  9 15  1  0  0  0  0
 10 16  1  0  0  0  0
 10  9  2  0  0  0  0
 11 10  1  0  0  0  0
 12 11  2  0  0  0  0
 12 13  1  0  0  0  0
 13 14  2  0  0  0  0
 14  9  1  0  0  0  0
 15 19  1  0  0  0  0
 15 18  1  0  0  0  0
 17 11  1  0  0  0  0
 20 23  1  6  0  0  0
 20  5  1  0  0  0  0
 21 24  1  0  0  0  0
 21 22  1  0  0  0  0
 21 20  1  0  0  0  0
 22 20  1  0  0  0  0
 22 26  1  1  0  0  0
 25 21  1  0  0  0  0
 27 22  1  0  0  0  0
 27 29  1  0  0  0  0
 28 27  1  0  0  0  0
 28 29  1  0  0  0  0
M  END
>  <minimizedAffinity>
-4.89597702

$$$$
