
 OpenBabel03212519593D

 12 13  0  0  0  0  0  0  0  0999 V2000
   39.8370   81.8990   60.7220 C   0  0  0  0  0  0  0  0  0  0  0  0
   40.0920   82.9640   59.8440 C   0  0  0  0  0  0  0  0  0  0  0  0
   40.6940   84.1210   60.3910 C   0  0  0  0  0  0  0  0  0  0  0  0
   40.9850   84.1290   61.7180 N   0  0  0  0  0  0  0  0  0  0  0  0
   40.7230   83.0800   62.5260 C   0  0  0  0  0  0  0  0  0  0  0  0
   40.1460   81.9640   62.0200 N   0  0  0  0  0  0  0  0  0  0  0  0
   39.3720   80.9660   60.3750 H   0  0  0  0  0  0  0  0  0  0  0  0
   39.8270   82.8760   58.7950 H   0  0  0  0  0  0  0  0  0  0  0  0
   40.8990   84.9550   59.7320 H   0  0  0  0  0  0  0  0  0  0  0  0
   41.0780   83.1780   63.9700 C   0  0  0  0  0  3  0  0  0  0  0  0
   40.2820   84.2200   64.7210 C   0  0  0  0  0  2  0  0  0  0  0  0
   41.7430   84.4090   64.4920 C   0  0  0  0  0  2  0  0  0  0  0  0
  1  6  1  0  0  0  0
  2  3  1  0  0  0  0
  2  1  2  0  0  0  0
  3  4  2  0  0  0  0
  4  5  1  0  0  0  0
  5 10  1  0  0  0  0
  6  5  2  0  0  0  0
  7  1  1  0  0  0  0
  8  2  1  0  0  0  0
  9  3  1  0  0  0  0
 10 12  1  0  0  0  0
 10 11  1  0  0  0  0
 12 11  1  0  0  0  0
M  END
>  <minimizedAffinity>
-3.6171782

>  <minimizedRMSD>
2.6090734

$$$$
