
 OpenBabel03212520513D

 29 32  0  0  1  0  0  0  0  0999 V2000
   42.1940   83.9180   61.9640 C   0  0  0  0  0  0  0  0  0  0  0  0
   41.3390   84.2370   62.9690 C   0  0  0  0  0  0  0  0  0  0  0  0
   40.5980   83.2600   63.6380 C   0  0  0  0  0  0  0  0  0  0  0  0
   40.7250   81.9670   63.2860 N   0  0  0  0  0  0  0  0  0  0  0  0
   41.5820   81.6700   62.2830 C   0  0  0  0  0  0  0  0  0  0  0  0
   42.3040   82.6040   61.6290 N   0  0  0  0  0  0  0  0  0  0  0  0
   41.2520   85.2820   63.2350 H   0  0  0  0  0  0  0  0  0  0  0  0
   39.9310   83.5710   64.4320 H   0  0  0  0  0  0  0  0  0  0  0  0
   44.0940   86.9500   61.1870 C   0  0  0  0  0  0  0  0  0  0  0  0
   44.4310   86.7570   59.8570 C   0  0  0  0  0  0  0  0  0  0  0  0
   44.0140   85.5890   59.2030 C   0  0  0  0  0  0  0  0  0  0  0  0
   43.2830   84.6970   59.9490 N   0  0  0  0  0  0  0  0  0  0  0  0
   42.9750   84.9200   61.2400 C   0  0  0  0  0  0  0  0  0  0  0  0
   43.3690   86.0360   61.8770 N   0  0  0  0  0  0  0  0  0  0  0  0
   44.5840   88.1620   61.7130 N   0  0  0  0  0  0  0  0  0  0  0  0
   45.0060   87.4550   59.2600 H   0  0  0  0  0  0  0  0  0  0  0  0
   44.2340   85.3730   58.1870 H   0  0  0  0  0  0  0  0  0  0  0  0
   44.5660   89.0620   61.1840 H   0  0  0  0  0  0  0  0  0  0  0  0
   44.9850   88.1220   62.6990 H   0  0  0  0  0  0  0  0  0  0  0  0
   41.6790   80.2110   61.9190 C   0  0  1  0  0  0  0  0  0  0  0  0
   40.7010   79.2540   62.3820 C   0  0  0  0  0  0  0  0  0  0  0  0
   40.5060   79.7870   61.0070 C   0  0  2  0  0  0  0  0  0  0  0  0
   42.6790   79.8550   61.5920 H   0  0  0  0  0  0  0  0  0  0  0  0
   39.8980   79.5170   63.1200 H   0  0  0  0  0  0  0  0  0  0  0  0
   40.9660   78.1860   62.4640 H   0  0  0  0  0  0  0  0  0  0  0  0
   39.6790   80.4900   60.8480 H   0  0  0  0  0  0  0  0  0  0  0  0
   40.9020   79.0250   59.7980 C   0  0  0  0  0  3  0  0  0  0  0  0
   39.7930   78.1170   59.2410 C   0  0  0  0  0  2  0  0  0  0  0  0
   40.4270   79.2530   58.4380 C   0  0  0  0  0  2  0  0  0  0  0  0
  1  2  1  0  0  0  0
  2  7  1  0  0  0  0
  2  3  2  0  0  0  0
  3  8  1  0  0  0  0
  4  3  1  0  0  0  0
  5  4  2  0  0  0  0
  6  1  2  0  0  0  0
  6  5  1  0  0  0  0
  9 15  1  0  0  0  0
  9 14  1  0  0  0  0
 10  9  2  0  0  0  0
 11 10  1  0  0  0  0
 11 12  2  0  0  0  0
 12 13  1  0  0  0  0
 13 14  2  0  0  0  0
 13  1  1  0  0  0  0
 15 19  1  0  0  0  0
 16 10  1  0  0  0  0
 17 11  1  0  0  0  0
 18 15  1  0  0  0  0
 20 23  1  6  0  0  0
 20  5  1  0  0  0  0
 20 21  1  0  0  0  0
 21 25  1  0  0  0  0
 21 24  1  0  0  0  0
 22 26  1  6  0  0  0
 22 20  1  0  0  0  0
 22 21  1  0  0  0  0
 27 22  1  0  0  0  0
 28 27  1  0  0  0  0
 29 28  1  0  0  0  0
 29 27  1  0  0  0  0
M  END
>  <minimizedAffinity>
-5.12813711

>  <minimizedRMSD>
1.39620912

$$$$
