
 OpenBabel03212520533D

 19 21  0  0  0  0  0  0  0  0999 V2000
   41.2200   83.5790   59.0340 C   0  0  0  0  0  0  0  0  0  0  0  0
   41.0160   82.4760   58.1900 C   0  0  0  0  0  0  0  0  0  0  0  0
   41.4150   82.5550   56.8970 C   0  0  0  0  0  0  0  0  0  0  0  0
   42.0200   83.7390   56.4410 C   0  0  0  0  0  0  0  0  0  0  0  0
   42.0220   84.8110   57.9520 S   0  0  0  0  0  0  0  0  0  0  0  0
   40.5490   81.5780   58.5620 H   0  0  0  0  0  0  0  0  0  0  0  0
   41.3270   81.7970   56.1360 H   0  0  0  0  0  0  0  0  0  0  0  0
   41.4890   84.0110   62.6440 C   0  0  0  0  0  0  0  0  0  0  0  0
   40.1640   83.7330   63.1020 C   0  0  0  0  0  0  0  0  0  0  0  0
   39.1780   83.3940   62.1370 C   0  0  0  0  0  0  0  0  0  0  0  0
   39.5790   83.3620   60.8460 N   0  0  0  0  0  0  0  0  0  0  0  0
   40.8370   83.6320   60.4550 C   0  0  0  0  0  0  0  0  0  0  0  0
   41.7800   83.9510   61.3330 N   0  0  0  0  0  0  0  0  0  0  0  0
   42.2510   84.2700   63.3590 H   0  0  0  0  0  0  0  0  0  0  0  0
   39.9430   83.7840   64.1520 H   0  0  0  0  0  0  0  0  0  0  0  0
   38.1810   83.1820   62.4650 H   0  0  0  0  0  0  0  0  0  0  0  0
   42.5530   84.1760   55.1970 C   0  0  0  0  0  3  0  0  0  0  0  0
   43.8170   83.6260   54.6050 C   0  0  0  0  0  2  0  0  0  0  0  0
   42.4760   83.1730   54.0390 C   0  0  0  0  0  2  0  0  0  0  0  0
  1 12  1  0  0  0  0
  2  6  1  0  0  0  0
  2  1  2  0  0  0  0
  3  2  1  0  0  0  0
  4  3  2  0  0  0  0
  4  5  1  0  0  0  0
  5  1  1  0  0  0  0
  7  3  1  0  0  0  0
  8  9  1  0  0  0  0
  8 14  1  0  0  0  0
  9 15  1  0  0  0  0
 10 16  1  0  0  0  0
 10  9  2  0  0  0  0
 11 10  1  0  0  0  0
 12 11  2  0  0  0  0
 12 13  1  0  0  0  0
 13  8  2  0  0  0  0
 17  4  1  0  0  0  0
 18 17  1  0  0  0  0
 19 18  1  0  0  0  0
 19 17  1  0  0  0  0
M  END
>  <minimizedAffinity>
-3.49823928

>  <minimizedRMSD>
0.86294812

$$$$
