
 OpenBabel03212520513D

 29 32  0  0  1  0  0  0  0  0999 V2000
   41.6140   83.8310   61.3920 C   0  0  0  0  0  0  0  0  0  0  0  0
   40.9910   84.2060   62.5400 C   0  0  0  0  0  0  0  0  0  0  0  0
   40.5500   83.2670   63.4740 C   0  0  0  0  0  0  0  0  0  0  0  0
   40.7400   81.9540   63.2450 N   0  0  0  0  0  0  0  0  0  0  0  0
   41.3630   81.6010   62.0970 C   0  0  0  0  0  0  0  0  0  0  0  0
   41.7950   82.4980   61.1860 N   0  0  0  0  0  0  0  0  0  0  0  0
   40.8490   85.2660   62.7040 H   0  0  0  0  0  0  0  0  0  0  0  0
   40.0590   83.6220   64.3710 H   0  0  0  0  0  0  0  0  0  0  0  0
   43.5920   86.4020   59.6950 C   0  0  0  0  0  0  0  0  0  0  0  0
   42.9080   86.5630   58.5000 C   0  0  0  0  0  0  0  0  0  0  0  0
   41.7600   85.7960   58.2550 C   0  0  0  0  0  0  0  0  0  0  0  0
   41.3870   84.9190   59.2440 N   0  0  0  0  0  0  0  0  0  0  0  0
   42.0780   84.7910   60.3920 C   0  0  0  0  0  0  0  0  0  0  0  0
   43.1790   85.5200   60.6380 N   0  0  0  0  0  0  0  0  0  0  0  0
   44.7260   87.2310   59.8000 N   0  0  0  0  0  0  0  0  0  0  0  0
   43.1940   87.2520   57.7150 H   0  0  0  0  0  0  0  0  0  0  0  0
   41.1860   85.8650   57.3650 H   0  0  0  0  0  0  0  0  0  0  0  0
   44.7350   88.2280   59.4910 H   0  0  0  0  0  0  0  0  0  0  0  0
   45.5990   86.7880   60.2190 H   0  0  0  0  0  0  0  0  0  0  0  0
   41.5410   80.1200   61.8810 C   0  0  1  0  0  0  0  0  0  0  0  0
   40.6510   79.1590   62.4920 C   0  0  0  0  0  0  0  0  0  0  0  0
   40.3590   79.5300   61.0800 C   0  0  2  0  0  0  0  0  0  0  0  0
   42.5460   79.7940   61.5410 H   0  0  0  0  0  0  0  0  0  0  0  0
   39.8670   79.4490   63.2390 H   0  0  0  0  0  0  0  0  0  0  0  0
   40.9910   78.1250   62.6680 H   0  0  0  0  0  0  0  0  0  0  0  0
   39.4790   80.1600   60.8940 H   0  0  0  0  0  0  0  0  0  0  0  0
   40.7490   78.6700   59.9380 C   0  0  0  0  0  3  0  0  0  0  0  0
   39.6800   77.6390   59.5400 C   0  0  0  0  0  2  0  0  0  0  0  0
   40.1960   78.7190   58.5890 C   0  0  0  0  0  2  0  0  0  0  0  0
  1  2  1  0  0  0  0
  2  7  1  0  0  0  0
  2  3  2  0  0  0  0
  3  8  1  0  0  0  0
  4  3  1  0  0  0  0
  5  4  2  0  0  0  0
  6  1  2  0  0  0  0
  6  5  1  0  0  0  0
  9 15  1  0  0  0  0
  9 14  1  0  0  0  0
 10  9  2  0  0  0  0
 11 10  1  0  0  0  0
 11 12  2  0  0  0  0
 12 13  1  0  0  0  0
 13 14  2  0  0  0  0
 13  1  1  0  0  0  0
 15 19  1  0  0  0  0
 16 10  1  0  0  0  0
 17 11  1  0  0  0  0
 18 15  1  0  0  0  0
 20 23  1  6  0  0  0
 20  5  1  0  0  0  0
 20 21  1  0  0  0  0
 21 25  1  0  0  0  0
 21 24  1  0  0  0  0
 22 26  1  6  0  0  0
 22 20  1  0  0  0  0
 22 21  1  0  0  0  0
 27 22  1  0  0  0  0
 28 27  1  0  0  0  0
 29 28  1  0  0  0  0
 29 27  1  0  0  0  0
M  END
>  <minimizedAffinity>
-5.17138481

>  <minimizedRMSD>
0.496108741

$$$$
