
 OpenBabel03212520433D

 12 13  0  0  0  0  0  0  0  0999 V2000
   39.8510   81.8900   61.0600 C   0  0  0  0  0  0  0  0  0  0  0  0
   40.1070   82.5970   59.8750 C   0  0  0  0  0  0  0  0  0  0  0  0
   39.6840   83.9270   59.8020 C   0  0  0  0  0  0  0  0  0  0  0  0
   39.0470   84.4610   60.8840 N   0  0  0  0  0  0  0  0  0  0  0  0
   38.8190   83.7550   62.0050 C   0  0  0  0  0  0  0  0  0  0  0  0
   39.2140   82.4800   62.0990 N   0  0  0  0  0  0  0  0  0  0  0  0
   40.6130   82.1550   59.0290 H   0  0  0  0  0  0  0  0  0  0  0  0
   39.8450   84.5480   58.9120 H   0  0  0  0  0  0  0  0  0  0  0  0
   38.3170   84.1520   62.8750 H   0  0  0  0  0  0  0  0  0  0  0  0
   40.2980   80.4600   61.1570 C   0  0  0  0  0  3  0  0  0  0  0  0
   41.5030   79.9950   60.4720 C   0  0  0  0  0  2  0  0  0  0  0  0
   41.6130   80.3310   61.9530 C   0  0  0  0  0  2  0  0  0  0  0  0
  1 10  1  0  0  0  0
  1  6  1  0  0  0  0
  2  1  2  0  0  0  0
  3  2  1  0  0  0  0
  3  4  2  0  0  0  0
  4  5  1  0  0  0  0
  5  6  2  0  0  0  0
  5  9  1  0  0  0  0
  7  2  1  0  0  0  0
  8  3  1  0  0  0  0
 10 12  1  0  0  0  0
 11 10  1  0  0  0  0
 11 12  1  0  0  0  0
M  END
>  <minimizedAffinity>
-3.75414014

>  <minimizedRMSD>
0.56007123

$$$$
