
 OpenBabel03212520343D

 28 31  0  0  0  0  0  0  0  0999 V2000
   42.0370   72.4720   61.0150 C   0  0  0  0  0  0  0  0  0  0  0  0
   43.3220   72.7280   60.5330 C   0  0  0  0  0  0  0  0  0  0  0  0
   43.6700   73.8820   59.8610 C   0  0  0  0  0  0  0  0  0  0  0  0
   42.7070   74.8510   59.6410 C   0  0  0  0  0  0  0  0  0  0  0  0
   41.4340   74.6080   60.1130 C   0  0  0  0  0  0  0  0  0  0  0  0
   40.4000   75.5070   59.9430 C   0  0  0  0  0  0  0  0  0  0  0  0
   39.1290   75.2530   60.4140 C   0  0  0  0  0  0  0  0  0  0  0  0
   38.8250   74.0790   61.0840 C   0  0  0  0  0  0  0  0  0  0  0  0
   39.8430   73.1650   61.2670 C   0  0  0  0  0  0  0  0  0  0  0  0
   41.0900   73.4540   60.7840 C   0  0  0  0  0  0  0  0  0  0  0  0
   44.1360   72.0220   60.6630 H   0  0  0  0  0  0  0  0  0  0  0  0
   44.6770   74.0510   59.4990 H   0  0  0  0  0  0  0  0  0  0  0  0
   42.8780   75.7770   59.1320 H   0  0  0  0  0  0  0  0  0  0  0  0
   40.6440   76.4330   59.4140 H   0  0  0  0  0  0  0  0  0  0  0  0
   38.3980   76.0300   60.2250 H   0  0  0  0  0  0  0  0  0  0  0  0
   37.8140   73.9130   61.4410 H   0  0  0  0  0  0  0  0  0  0  0  0
   39.6090   72.2540   61.7910 H   0  0  0  0  0  0  0  0  0  0  0  0
   41.6980   70.9060   63.0510 C   0  0  0  0  0  0  0  0  0  0  0  0
   41.8910   71.1930   61.7030 C   0  0  0  0  0  0  0  0  0  0  0  0
   41.9710   70.0980   60.8030 C   0  0  0  0  0  0  0  0  0  0  0  0
   41.8540   68.8400   61.3090 N   0  0  0  0  0  0  0  0  0  0  0  0
   41.6670   68.6180   62.6360 C   0  0  0  0  0  0  0  0  0  0  0  0
   41.5920   69.6610   63.4870 N   0  0  0  0  0  0  0  0  0  0  0  0
   41.6460   71.7930   63.6460 H   0  0  0  0  0  0  0  0  0  0  0  0
   42.1160   70.1750   59.7450 H   0  0  0  0  0  0  0  0  0  0  0  0
   41.5520   67.2100   63.0920 C   0  0  0  0  0  3  0  0  0  0  0  0
   40.0970   66.6650   63.2400 C   0  0  0  0  0  2  0  0  0  0  0  0
   41.0560   66.1590   62.1970 C   0  0  0  0  0  2  0  0  0  0  0  0
  1 19  1  0  0  0  0
  2 11  1  0  0  0  0
  2  1  2  0  0  0  0
  3  2  1  0  0  0  0
  4  3  2  0  0  0  0
  4  5  1  0  0  0  0
  5 10  1  0  0  0  0
  6  5  2  0  0  0  0
  6  7  1  0  0  0  0
  7  8  2  0  0  0  0
  8  9  1  0  0  0  0
  8 16  1  0  0  0  0
  9 17  1  0  0  0  0
 10  1  1  0  0  0  0
 10  9  2  0  0  0  0
 12  3  1  0  0  0  0
 13  4  1  0  0  0  0
 14  6  1  0  0  0  0
 15  7  1  0  0  0  0
 18 23  1  0  0  0  0
 18 24  1  0  0  0  0
 19 18  2  0  0  0  0
 20 21  2  0  0  0  0
 20 19  1  0  0  0  0
 21 22  1  0  0  0  0
 22 26  1  0  0  0  0
 22 23  2  0  0  0  0
 25 20  1  0  0  0  0
 26 27  1  0  0  0  0
 28 26  1  0  0  0  0
 28 27  1  0  0  0  0
M  END
>  <minimizedAffinity>
-5.98277664

$$$$

 OpenBabel03212520343D

 28 31  0  0  0  0  0  0  0  0999 V2000
   40.7680   73.4370   60.8260 C   0  0  0  0  0  0  0  0  0  0  0  0
   39.4400   73.5600   61.2370 C   0  0  0  0  0  0  0  0  0  0  0  0
   38.6590   74.6670   60.9750 C   0  0  0  0  0  0  0  0  0  0  0  0
   39.2030   75.7240   60.2670 C   0  0  0  0  0  0  0  0  0  0  0  0
   40.5140   75.6130   59.8570 C   0  0  0  0  0  0  0  0  0  0  0  0
   41.1530   76.6120   59.1480 C   0  0  0  0  0  0  0  0  0  0  0  0
   42.4670   76.4930   58.7460 C   0  0  0  0  0  0  0  0  0  0  0  0
   43.2140   75.3630   59.0320 C   0  0  0  0  0  0  0  0  0  0  0  0
   42.5960   74.3500   59.7380 C   0  0  0  0  0  0  0  0  0  0  0  0
   41.2920   74.5060   60.1200 C   0  0  0  0  0  0  0  0  0  0  0  0
   38.9370   72.7780   61.7960 H   0  0  0  0  0  0  0  0  0  0  0  0
   37.6300   74.7320   61.3090 H   0  0  0  0  0  0  0  0  0  0  0  0
   38.6790   76.6240   60.0150 H   0  0  0  0  0  0  0  0  0  0  0  0
   40.5590   77.5030   58.9240 H   0  0  0  0  0  0  0  0  0  0  0  0
   42.8630   77.3380   58.1960 H   0  0  0  0  0  0  0  0  0  0  0  0
   44.2450   75.3040   58.6990 H   0  0  0  0  0  0  0  0  0  0  0  0
   43.1760   73.4690   59.9580 H   0  0  0  0  0  0  0  0  0  0  0  0
   41.7170   71.0560   60.4420 C   0  0  0  0  0  0  0  0  0  0  0  0
   41.4070   72.1800   61.2040 C   0  0  0  0  0  0  0  0  0  0  0  0
   41.7400   72.1500   62.5830 C   0  0  0  0  0  0  0  0  0  0  0  0
   42.3390   71.0340   63.0760 N   0  0  0  0  0  0  0  0  0  0  0  0
   42.6190   69.9640   62.2870 C   0  0  0  0  0  0  0  0  0  0  0  0
   42.3000   69.9960   60.9770 N   0  0  0  0  0  0  0  0  0  0  0  0
   41.4330   71.1760   59.4180 H   0  0  0  0  0  0  0  0  0  0  0  0
   41.5590   72.9430   63.2800 H   0  0  0  0  0  0  0  0  0  0  0  0
   43.2740   68.7910   62.9170 C   0  0  0  0  0  3  0  0  0  0  0  0
   42.3090   67.7040   63.4850 C   0  0  0  0  0  2  0  0  0  0  0  0
   43.2060   67.4610   62.3020 C   0  0  0  0  0  2  0  0  0  0  0  0
  1 19  1  0  0  0  0
  1  2  1  0  0  0  0
  2 11  1  0  0  0  0
  3  2  2  0  0  0  0
  3 12  1  0  0  0  0
  4  3  1  0  0  0  0
  5 10  1  0  0  0  0
  5  4  2  0  0  0  0
  6  5  1  0  0  0  0
  7  8  1  0  0  0  0
  7  6  2  0  0  0  0
  8  9  2  0  0  0  0
  9 17  1  0  0  0  0
  9 10  1  0  0  0  0
 10  1  2  0  0  0  0
 13  4  1  0  0  0  0
 14  6  1  0  0  0  0
 15  7  1  0  0  0  0
 16  8  1  0  0  0  0
 18 23  2  0  0  0  0
 18 19  1  0  0  0  0
 19 20  2  0  0  0  0
 20 21  1  0  0  0  0
 20 25  1  0  0  0  0
 22 26  1  0  0  0  0
 22 21  2  0  0  0  0
 23 22  1  0  0  0  0
 24 18  1  0  0  0  0
 26 27  1  0  0  0  0
 28 26  1  0  0  0  0
 28 27  1  0  0  0  0
M  END
>  <minimizedAffinity>
-5.94825125

$$$$

 OpenBabel03212520343D

 28 31  0  0  0  0  0  0  0  0999 V2000
   42.3730   73.8720   60.1270 C   0  0  0  0  0  0  0  0  0  0  0  0
   43.5760   73.9970   59.4290 C   0  0  0  0  0  0  0  0  0  0  0  0
   43.8060   74.9640   58.4710 C   0  0  0  0  0  0  0  0  0  0  0  0
   42.8030   75.8680   58.1690 C   0  0  0  0  0  0  0  0  0  0  0  0
   41.6110   75.7530   58.8530 C   0  0  0  0  0  0  0  0  0  0  0  0
   40.5440   76.6020   58.6260 C   0  0  0  0  0  0  0  0  0  0  0  0
   39.3550   76.4760   59.3110 C   0  0  0  0  0  0  0  0  0  0  0  0
   39.1680   75.4890   60.2650 C   0  0  0  0  0  0  0  0  0  0  0  0
   40.2200   74.6290   60.5100 C   0  0  0  0  0  0  0  0  0  0  0  0
   41.3840   74.7860   59.8100 C   0  0  0  0  0  0  0  0  0  0  0  0
   44.4140   73.3310   59.6040 H   0  0  0  0  0  0  0  0  0  0  0  0
   44.7510   75.0340   57.9460 H   0  0  0  0  0  0  0  0  0  0  0  0
   42.8840   76.6520   57.4440 H   0  0  0  0  0  0  0  0  0  0  0  0
   40.6960   77.3790   57.8710 H   0  0  0  0  0  0  0  0  0  0  0  0
   38.5890   77.1970   59.0510 H   0  0  0  0  0  0  0  0  0  0  0  0
   38.2180   75.4200   60.7850 H   0  0  0  0  0  0  0  0  0  0  0  0
   40.0770   73.8640   61.2560 H   0  0  0  0  0  0  0  0  0  0  0  0
   41.8070   72.7310   62.3820 C   0  0  0  0  0  0  0  0  0  0  0  0
   42.3470   72.7850   61.1010 C   0  0  0  0  0  0  0  0  0  0  0  0
   42.9950   71.6220   60.6110 C   0  0  0  0  0  0  0  0  0  0  0  0
   43.0500   70.5280   61.4170 N   0  0  0  0  0  0  0  0  0  0  0  0
   42.5050   70.5300   62.6620 C   0  0  0  0  0  0  0  0  0  0  0  0
   41.8910   71.6380   63.1240 N   0  0  0  0  0  0  0  0  0  0  0  0
   41.3370   73.6510   62.6590 H   0  0  0  0  0  0  0  0  0  0  0  0
   43.4510   71.5270   59.6460 H   0  0  0  0  0  0  0  0  0  0  0  0
   42.6160   69.2880   63.4670 C   0  0  0  0  0  3  0  0  0  0  0  0
   41.3500   68.3760   63.4790 C   0  0  0  0  0  2  0  0  0  0  0  0
   42.6440   67.9680   62.8290 C   0  0  0  0  0  2  0  0  0  0  0  0
  1 19  1  0  0  0  0
  2 11  1  0  0  0  0
  2  1  2  0  0  0  0
  3  2  1  0  0  0  0
  4  3  2  0  0  0  0
  4  5  1  0  0  0  0
  5 10  1  0  0  0  0
  6  5  2  0  0  0  0
  6  7  1  0  0  0  0
  7  8  2  0  0  0  0
  8  9  1  0  0  0  0
  8 16  1  0  0  0  0
  9 17  1  0  0  0  0
 10  1  1  0  0  0  0
 10  9  2  0  0  0  0
 12  3  1  0  0  0  0
 13  4  1  0  0  0  0
 14  6  1  0  0  0  0
 15  7  1  0  0  0  0
 18 24  1  0  0  0  0
 18 23  1  0  0  0  0
 19 18  2  0  0  0  0
 20 19  1  0  0  0  0
 20 21  2  0  0  0  0
 21 22  1  0  0  0  0
 22 23  2  0  0  0  0
 22 26  1  0  0  0  0
 25 20  1  0  0  0  0
 26 27  1  0  0  0  0
 28 26  1  0  0  0  0
 28 27  1  0  0  0  0
M  END
>  <minimizedAffinity>
-5.80548048

$$$$

 OpenBabel03212520343D

 28 31  0  0  0  0  0  0  0  0999 V2000
   40.3520   74.1800   59.7460 C   0  0  0  0  0  0  0  0  0  0  0  0
   39.6880   73.4660   60.7450 C   0  0  0  0  0  0  0  0  0  0  0  0
   40.3360   72.7530   61.7340 C   0  0  0  0  0  0  0  0  0  0  0  0
   41.7190   72.7320   61.7540 C   0  0  0  0  0  0  0  0  0  0  0  0
   42.3850   73.4330   60.7720 C   0  0  0  0  0  0  0  0  0  0  0  0
   43.7640   73.4740   60.6990 C   0  0  0  0  0  0  0  0  0  0  0  0
   44.4210   74.1750   59.7100 C   0  0  0  0  0  0  0  0  0  0  0  0
   43.7290   74.8770   58.7360 C   0  0  0  0  0  0  0  0  0  0  0  0
   42.3500   74.8510   58.7890 C   0  0  0  0  0  0  0  0  0  0  0  0
   41.7350   74.1450   59.7850 C   0  0  0  0  0  0  0  0  0  0  0  0
   38.6060   73.4310   60.8030 H   0  0  0  0  0  0  0  0  0  0  0  0
   39.7910   72.2090   62.4950 H   0  0  0  0  0  0  0  0  0  0  0  0
   42.3110   72.2100   62.4780 H   0  0  0  0  0  0  0  0  0  0  0  0
   44.3070   72.9190   61.4700 H   0  0  0  0  0  0  0  0  0  0  0  0
   45.5020   74.1360   59.7520 H   0  0  0  0  0  0  0  0  0  0  0  0
   44.2800   75.4170   57.9730 H   0  0  0  0  0  0  0  0  0  0  0  0
   41.8110   75.4000   58.0340 H   0  0  0  0  0  0  0  0  0  0  0  0
   39.1490   76.2160   58.6890 C   0  0  0  0  0  0  0  0  0  0  0  0
   39.4740   74.8680   58.8050 C   0  0  0  0  0  0  0  0  0  0  0  0
   38.8760   73.9670   57.8860 C   0  0  0  0  0  0  0  0  0  0  0  0
   38.0270   74.4710   56.9510 N   0  0  0  0  0  0  0  0  0  0  0  0
   37.7450   75.7990   56.8830 C   0  0  0  0  0  0  0  0  0  0  0  0
   38.3150   76.6510   57.7580 N   0  0  0  0  0  0  0  0  0  0  0  0
   39.6520   76.8140   59.4190 H   0  0  0  0  0  0  0  0  0  0  0  0
   39.0370   72.9080   57.8630 H   0  0  0  0  0  0  0  0  0  0  0  0
   36.8060   76.2530   55.8270 C   0  0  0  0  0  3  0  0  0  0  0  0
   37.4660   76.7400   54.5000 C   0  0  0  0  0  2  0  0  0  0  0  0
   36.6310   75.4920   54.5860 C   0  0  0  0  0  2  0  0  0  0  0  0
  1 10  2  0  0  0  0
  1  2  1  0  0  0  0
  2 11  1  0  0  0  0
  2  3  2  0  0  0  0
  3  4  1  0  0  0  0
  3 12  1  0  0  0  0
  4 13  1  0  0  0  0
  5  4  2  0  0  0  0
  6  5  1  0  0  0  0
  6 14  1  0  0  0  0
  7 15  1  0  0  0  0
  7  6  2  0  0  0  0
  8  9  2  0  0  0  0
  8  7  1  0  0  0  0
  9 10  1  0  0  0  0
 10  5  1  0  0  0  0
 16  8  1  0  0  0  0
 17  9  1  0  0  0  0
 18 19  1  0  0  0  0
 18 24  1  0  0  0  0
 19  1  1  0  0  0  0
 20 19  2  0  0  0  0
 21 20  1  0  0  0  0
 22 21  2  0  0  0  0
 22 23  1  0  0  0  0
 23 18  2  0  0  0  0
 25 20  1  0  0  0  0
 26 22  1  0  0  0  0
 27 28  1  0  0  0  0
 27 26  1  0  0  0  0
 28 26  1  0  0  0  0
M  END
>  <minimizedAffinity>
-5.53340721

$$$$

 OpenBabel03212520343D

 28 31  0  0  0  0  0  0  0  0999 V2000
   42.5200   68.9970   61.9400 C   0  0  0  0  0  0  0  0  0  0  0  0
   43.8650   68.9240   61.5750 C   0  0  0  0  0  0  0  0  0  0  0  0
   44.5960   67.7530   61.5790 C   0  0  0  0  0  0  0  0  0  0  0  0
   43.9790   66.5750   61.9620 C   0  0  0  0  0  0  0  0  0  0  0  0
   42.6500   66.6360   62.3250 C   0  0  0  0  0  0  0  0  0  0  0  0
   41.9430   65.5200   62.7270 C   0  0  0  0  0  0  0  0  0  0  0  0
   40.6150   65.5920   63.0930 C   0  0  0  0  0  0  0  0  0  0  0  0
   39.9210   66.7910   63.0740 C   0  0  0  0  0  0  0  0  0  0  0  0
   40.6080   67.9200   62.6750 C   0  0  0  0  0  0  0  0  0  0  0  0
   41.9240   67.8080   62.3200 C   0  0  0  0  0  0  0  0  0  0  0  0
   44.4240   69.7990   61.2610 H   0  0  0  0  0  0  0  0  0  0  0  0
   45.6390   67.7300   61.2900 H   0  0  0  0  0  0  0  0  0  0  0  0
   44.4590   65.6180   61.9980 H   0  0  0  0  0  0  0  0  0  0  0  0
   42.4940   64.5750   62.7400 H   0  0  0  0  0  0  0  0  0  0  0  0
   40.1630   64.6540   63.3900 H   0  0  0  0  0  0  0  0  0  0  0  0
   38.8770   66.8090   63.3680 H   0  0  0  0  0  0  0  0  0  0  0  0
   40.0670   68.8520   62.6560 H   0  0  0  0  0  0  0  0  0  0  0  0
   41.4810   71.1860   62.8580 C   0  0  0  0  0  0  0  0  0  0  0  0
   41.9410   70.3340   61.8570 C   0  0  0  0  0  0  0  0  0  0  0  0
   41.8500   70.7880   60.5160 C   0  0  0  0  0  0  0  0  0  0  0  0
   41.3230   72.0210   60.2880 N   0  0  0  0  0  0  0  0  0  0  0  0
   40.8890   72.8120   61.3040 C   0  0  0  0  0  0  0  0  0  0  0  0
   40.9770   72.3760   62.5780 N   0  0  0  0  0  0  0  0  0  0  0  0
   41.5970   70.7590   63.8310 H   0  0  0  0  0  0  0  0  0  0  0  0
   42.1650   70.2370   59.6530 H   0  0  0  0  0  0  0  0  0  0  0  0
   40.3290   74.1410   60.9550 C   0  0  0  0  0  3  0  0  0  0  0  0
   39.2820   74.1500   59.7980 C   0  0  0  0  0  2  0  0  0  0  0  0
   38.9250   74.4690   61.2240 C   0  0  0  0  0  2  0  0  0  0  0  0
  1 10  1  0  0  0  0
  2  3  1  0  0  0  0
  2  1  2  0  0  0  0
  3  4  2  0  0  0  0
  4 13  1  0  0  0  0
  4  5  1  0  0  0  0
  5  6  1  0  0  0  0
  6 14  1  0  0  0  0
  6  7  2  0  0  0  0
  7 15  1  0  0  0  0
  8  7  1  0  0  0  0
  8 16  1  0  0  0  0
  9  8  2  0  0  0  0
 10  5  2  0  0  0  0
 10  9  1  0  0  0  0
 11  2  1  0  0  0  0
 12  3  1  0  0  0  0
 17  9  1  0  0  0  0
 18 24  1  0  0  0  0
 19  1  1  0  0  0  0
 19 18  2  0  0  0  0
 20 19  1  0  0  0  0
 21 20  2  0  0  0  0
 21 22  1  0  0  0  0
 22 23  2  0  0  0  0
 23 18  1  0  0  0  0
 25 20  1  0  0  0  0
 26 28  1  0  0  0  0
 26 22  1  0  0  0  0
 27 26  1  0  0  0  0
 27 28  1  0  0  0  0
M  END
>  <minimizedAffinity>
-5.52407598

$$$$

 OpenBabel03212520343D

 28 31  0  0  0  0  0  0  0  0999 V2000
   42.2310   75.4760   59.5300 C   0  0  0  0  0  0  0  0  0  0  0  0
   42.1790   76.8500   59.2870 C   0  0  0  0  0  0  0  0  0  0  0  0
   41.0810   77.6350   59.5710 C   0  0  0  0  0  0  0  0  0  0  0  0
   39.9580   77.0490   60.1270 C   0  0  0  0  0  0  0  0  0  0  0  0
   39.9980   75.6920   60.3720 C   0  0  0  0  0  0  0  0  0  0  0  0
   38.9310   75.0090   60.9210 C   0  0  0  0  0  0  0  0  0  0  0  0
   38.9790   73.6510   61.1570 C   0  0  0  0  0  0  0  0  0  0  0  0
   40.1040   72.9020   60.8550 C   0  0  0  0  0  0  0  0  0  0  0  0
   41.1840   73.5630   60.3060 C   0  0  0  0  0  0  0  0  0  0  0  0
   41.0970   74.9100   60.0870 C   0  0  0  0  0  0  0  0  0  0  0  0
   43.0150   77.3890   58.8530 H   0  0  0  0  0  0  0  0  0  0  0  0
   41.0720   78.7000   59.3690 H   0  0  0  0  0  0  0  0  0  0  0  0
   39.0590   77.5710   60.3830 H   0  0  0  0  0  0  0  0  0  0  0  0
   38.0440   75.6040   61.1580 H   0  0  0  0  0  0  0  0  0  0  0  0
   38.0840   73.2220   61.5910 H   0  0  0  0  0  0  0  0  0  0  0  0
   40.1060   71.8350   61.0550 H   0  0  0  0  0  0  0  0  0  0  0  0
   42.0620   72.9820   60.0750 H   0  0  0  0  0  0  0  0  0  0  0  0
   44.4350   74.1780   59.9400 C   0  0  0  0  0  0  0  0  0  0  0  0
   43.4920   74.8420   59.1610 C   0  0  0  0  0  0  0  0  0  0  0  0
   43.7520   74.9520   57.7700 C   0  0  0  0  0  0  0  0  0  0  0  0
   44.8990   74.4070   57.2840 N   0  0  0  0  0  0  0  0  0  0  0  0
   45.7860   73.7700   58.0920 C   0  0  0  0  0  0  0  0  0  0  0  0
   45.5360   73.6670   59.4130 N   0  0  0  0  0  0  0  0  0  0  0  0
   44.1490   74.1420   60.9700 H   0  0  0  0  0  0  0  0  0  0  0  0
   43.1130   75.4350   57.0580 H   0  0  0  0  0  0  0  0  0  0  0  0
   47.0100   73.2080   57.4680 C   0  0  0  0  0  3  0  0  0  0  0  0
   48.2520   74.1530   57.4480 C   0  0  0  0  0  2  0  0  0  0  0  0
   48.1970   72.8950   58.2710 C   0  0  0  0  0  2  0  0  0  0  0  0
  1 10  1  0  0  0  0
  2  1  2  0  0  0  0
  2  3  1  0  0  0  0
  3  4  2  0  0  0  0
  4  5  1  0  0  0  0
  4 13  1  0  0  0  0
  5  6  1  0  0  0  0
  6  7  2  0  0  0  0
  6 14  1  0  0  0  0
  7 15  1  0  0  0  0
  8 16  1  0  0  0  0
  8  7  1  0  0  0  0
  9  8  2  0  0  0  0
 10  9  1  0  0  0  0
 10  5  2  0  0  0  0
 11  2  1  0  0  0  0
 12  3  1  0  0  0  0
 17  9  1  0  0  0  0
 18 24  1  0  0  0  0
 19  1  1  0  0  0  0
 19 18  2  0  0  0  0
 20 19  1  0  0  0  0
 21 20  2  0  0  0  0
 21 22  1  0  0  0  0
 22 23  2  0  0  0  0
 23 18  1  0  0  0  0
 25 20  1  0  0  0  0
 26 22  1  0  0  0  0
 26 28  1  0  0  0  0
 27 26  1  0  0  0  0
 27 28  1  0  0  0  0
M  END
>  <minimizedAffinity>
-5.47288036

$$$$

 OpenBabel03212520343D

 28 31  0  0  0  0  0  0  0  0999 V2000
   39.6060   73.4550   59.2780 C   0  0  0  0  0  0  0  0  0  0  0  0
   38.9700   72.6210   58.3580 C   0  0  0  0  0  0  0  0  0  0  0  0
   38.2420   73.0850   57.2810 C   0  0  0  0  0  0  0  0  0  0  0  0
   38.1240   74.4500   57.0850 C   0  0  0  0  0  0  0  0  0  0  0  0
   38.7480   75.2830   57.9890 C   0  0  0  0  0  0  0  0  0  0  0  0
   38.6890   76.6600   57.8870 C   0  0  0  0  0  0  0  0  0  0  0  0
   39.3130   77.4850   58.7990 C   0  0  0  0  0  0  0  0  0  0  0  0
   40.0330   76.9730   59.8660 C   0  0  0  0  0  0  0  0  0  0  0  0
   40.1070   75.6000   59.9880 C   0  0  0  0  0  0  0  0  0  0  0  0
   39.4740   74.8160   59.0640 C   0  0  0  0  0  0  0  0  0  0  0  0
   39.0120   71.5390   58.4370 H   0  0  0  0  0  0  0  0  0  0  0  0
   37.7590   72.4110   56.5840 H   0  0  0  0  0  0  0  0  0  0  0  0
   37.5830   74.9070   56.2820 H   0  0  0  0  0  0  0  0  0  0  0  0
   38.1200   77.0590   57.0430 H   0  0  0  0  0  0  0  0  0  0  0  0
   39.2000   78.5470   58.6190 H   0  0  0  0  0  0  0  0  0  0  0  0
   40.5110   77.6530   60.5640 H   0  0  0  0  0  0  0  0  0  0  0  0
   40.6710   75.2020   60.8160 H   0  0  0  0  0  0  0  0  0  0  0  0
   40.2230   72.8510   61.7210 C   0  0  0  0  0  0  0  0  0  0  0  0
   40.3260   72.7530   60.3360 C   0  0  0  0  0  0  0  0  0  0  0  0
   41.2770   71.8400   59.8120 C   0  0  0  0  0  0  0  0  0  0  0  0
   42.0260   71.1170   60.6870 N   0  0  0  0  0  0  0  0  0  0  0  0
   41.8840   71.2530   62.0310 C   0  0  0  0  0  0  0  0  0  0  0  0
   40.9800   72.1230   62.5260 N   0  0  0  0  0  0  0  0  0  0  0  0
   39.4790   73.5590   62.0180 H   0  0  0  0  0  0  0  0  0  0  0  0
   41.4590   71.6660   58.7700 H   0  0  0  0  0  0  0  0  0  0  0  0
   42.7480   70.4210   62.9060 C   0  0  0  0  0  3  0  0  0  0  0  0
   42.0810   69.1350   63.4860 C   0  0  0  0  0  2  0  0  0  0  0  0
   43.2020   69.0920   62.4840 C   0  0  0  0  0  2  0  0  0  0  0  0
  1 19  1  0  0  0  0
  2 11  1  0  0  0  0
  2  1  2  0  0  0  0
  3  2  1  0  0  0  0
  4  3  2  0  0  0  0
  4  5  1  0  0  0  0
  5 10  1  0  0  0  0
  6  5  2  0  0  0  0
  6  7  1  0  0  0  0
  7  8  2  0  0  0  0
  8  9  1  0  0  0  0
  8 16  1  0  0  0  0
  9 17  1  0  0  0  0
 10  1  1  0  0  0  0
 10  9  2  0  0  0  0
 12  3  1  0  0  0  0
 13  4  1  0  0  0  0
 14  6  1  0  0  0  0
 15  7  1  0  0  0  0
 18 24  1  0  0  0  0
 18 23  1  0  0  0  0
 19 18  2  0  0  0  0
 20 19  1  0  0  0  0
 20 21  2  0  0  0  0
 21 22  1  0  0  0  0
 22 23  2  0  0  0  0
 22 26  1  0  0  0  0
 25 20  1  0  0  0  0
 26 27  1  0  0  0  0
 28 26  1  0  0  0  0
 28 27  1  0  0  0  0
M  END
>  <minimizedAffinity>
-5.45619678

$$$$

 OpenBabel03212520343D

 28 31  0  0  0  0  0  0  0  0999 V2000
   42.2260   70.2100   61.4630 C   0  0  0  0  0  0  0  0  0  0  0  0
   42.8210   70.1700   62.7240 C   0  0  0  0  0  0  0  0  0  0  0  0
   43.2290   69.0040   63.3400 C   0  0  0  0  0  0  0  0  0  0  0  0
   43.0460   67.7970   62.6880 C   0  0  0  0  0  0  0  0  0  0  0  0
   42.4580   67.8250   61.4410 C   0  0  0  0  0  0  0  0  0  0  0  0
   42.2260   66.6780   60.7070 C   0  0  0  0  0  0  0  0  0  0  0  0
   41.6330   66.7160   59.4630 C   0  0  0  0  0  0  0  0  0  0  0  0
   41.2390   67.9120   58.8840 C   0  0  0  0  0  0  0  0  0  0  0  0
   41.4610   69.0720   59.5980 C   0  0  0  0  0  0  0  0  0  0  0  0
   42.0520   68.9920   60.8290 C   0  0  0  0  0  0  0  0  0  0  0  0
   43.0020   71.0690   63.3030 H   0  0  0  0  0  0  0  0  0  0  0  0
   43.6880   69.0060   64.3210 H   0  0  0  0  0  0  0  0  0  0  0  0
   43.3270   66.8420   63.0810 H   0  0  0  0  0  0  0  0  0  0  0  0
   42.5390   65.7360   61.1690 H   0  0  0  0  0  0  0  0  0  0  0  0
   41.5020   65.7560   58.9810 H   0  0  0  0  0  0  0  0  0  0  0  0
   40.7750   67.9030   57.9020 H   0  0  0  0  0  0  0  0  0  0  0  0
   41.1590   70.0020   59.1460 H   0  0  0  0  0  0  0  0  0  0  0  0
   42.3080   72.2600   59.8800 C   0  0  0  0  0  0  0  0  0  0  0  0
   41.8790   71.5500   60.9980 C   0  0  0  0  0  0  0  0  0  0  0  0
   40.9540   72.1870   61.8650 C   0  0  0  0  0  0  0  0  0  0  0  0
   40.5440   73.4460   61.5560 N   0  0  0  0  0  0  0  0  0  0  0  0
   40.9970   74.0940   60.4510 C   0  0  0  0  0  0  0  0  0  0  0  0
   41.8760   73.4850   59.6290 N   0  0  0  0  0  0  0  0  0  0  0  0
   42.9970   71.6960   59.2870 H   0  0  0  0  0  0  0  0  0  0  0  0
   40.5440   71.7560   62.7560 H   0  0  0  0  0  0  0  0  0  0  0  0
   40.4920   75.4670   60.1980 C   0  0  0  0  0  3  0  0  0  0  0  0
   39.0710   75.5560   59.5600 C   0  0  0  0  0  2  0  0  0  0  0  0
   39.3660   76.0150   60.9620 C   0  0  0  0  0  2  0  0  0  0  0  0
  1  2  1  0  0  0  0
  2 11  1  0  0  0  0
  2  3  2  0  0  0  0
  3 12  1  0  0  0  0
  4 13  1  0  0  0  0
  4  3  1  0  0  0  0
  5  4  2  0  0  0  0
  6 14  1  0  0  0  0
  6  5  1  0  0  0  0
  7  6  2  0  0  0  0
  8  7  1  0  0  0  0
  8  9  2  0  0  0  0
  9 10  1  0  0  0  0
 10  5  1  0  0  0  0
 10  1  2  0  0  0  0
 15  7  1  0  0  0  0
 16  8  1  0  0  0  0
 17  9  1  0  0  0  0
 18 19  1  0  0  0  0
 19  1  1  0  0  0  0
 19 20  2  0  0  0  0
 20 25  1  0  0  0  0
 21 20  1  0  0  0  0
 22 21  2  0  0  0  0
 23 18  2  0  0  0  0
 23 22  1  0  0  0  0
 24 18  1  0  0  0  0
 26 22  1  0  0  0  0
 26 28  1  0  0  0  0
 27 26  1  0  0  0  0
 27 28  1  0  0  0  0
M  END
>  <minimizedAffinity>
-5.41260624

$$$$

 OpenBabel03212520343D

 28 31  0  0  0  0  0  0  0  0999 V2000
   42.1350   73.6330   59.4580 C   0  0  0  0  0  0  0  0  0  0  0  0
   43.1990   74.0790   58.6730 C   0  0  0  0  0  0  0  0  0  0  0  0
   43.3950   75.4030   58.3340 C   0  0  0  0  0  0  0  0  0  0  0  0
   42.5000   76.3560   58.7860 C   0  0  0  0  0  0  0  0  0  0  0  0
   41.4440   75.9250   59.5620 C   0  0  0  0  0  0  0  0  0  0  0  0
   40.4920   76.7930   60.0610 C   0  0  0  0  0  0  0  0  0  0  0  0
   39.4380   76.3520   60.8320 C   0  0  0  0  0  0  0  0  0  0  0  0
   39.2800   75.0130   61.1480 C   0  0  0  0  0  0  0  0  0  0  0  0
   40.2200   74.1260   60.6610 C   0  0  0  0  0  0  0  0  0  0  0  0
   41.2510   74.6020   59.8990 C   0  0  0  0  0  0  0  0  0  0  0  0
   43.9460   73.4000   58.2780 H   0  0  0  0  0  0  0  0  0  0  0  0
   44.2320   75.7170   57.7220 H   0  0  0  0  0  0  0  0  0  0  0  0
   42.5660   77.4040   58.5780 H   0  0  0  0  0  0  0  0  0  0  0  0
   40.6210   77.8500   59.8090 H   0  0  0  0  0  0  0  0  0  0  0  0
   38.7540   77.1220   61.1680 H   0  0  0  0  0  0  0  0  0  0  0  0
   38.4370   74.7020   61.7570 H   0  0  0  0  0  0  0  0  0  0  0  0
   40.0990   73.0850   60.9100 H   0  0  0  0  0  0  0  0  0  0  0  0
   41.4500   71.1700   59.0380 C   0  0  0  0  0  0  0  0  0  0  0  0
   42.1210   72.1940   59.7000 C   0  0  0  0  0  0  0  0  0  0  0  0
   42.9390   71.8370   60.8040 C   0  0  0  0  0  0  0  0  0  0  0  0
   43.0170   70.5230   61.1480 N   0  0  0  0  0  0  0  0  0  0  0  0
   42.3390   69.5640   60.4660 C   0  0  0  0  0  0  0  0  0  0  0  0
   41.5630   69.9070   59.4180 N   0  0  0  0  0  0  0  0  0  0  0  0
   40.8660   71.5370   58.2210 H   0  0  0  0  0  0  0  0  0  0  0  0
   43.5080   72.5210   61.4000 H   0  0  0  0  0  0  0  0  0  0  0  0
   42.4880   68.1580   60.9170 C   0  0  0  0  0  3  0  0  0  0  0  0
   41.4570   67.6790   61.9850 C   0  0  0  0  0  2  0  0  0  0  0  0
   41.4860   67.1410   60.5810 C   0  0  0  0  0  2  0  0  0  0  0  0
  1 19  1  0  0  0  0
  1 10  1  0  0  0  0
  2  1  2  0  0  0  0
  3  2  1  0  0  0  0
  3  4  2  0  0  0  0
  4  5  1  0  0  0  0
  5 10  2  0  0  0  0
  5  6  1  0  0  0  0
  6  7  2  0  0  0  0
  7  8  1  0  0  0  0
  7 15  1  0  0  0  0
  8 16  1  0  0  0  0
  9 17  1  0  0  0  0
  9  8  2  0  0  0  0
 10  9  1  0  0  0  0
 11  2  1  0  0  0  0
 12  3  1  0  0  0  0
 13  4  1  0  0  0  0
 14  6  1  0  0  0  0
 18 23  2  0  0  0  0
 18 19  1  0  0  0  0
 19 20  2  0  0  0  0
 20 21  1  0  0  0  0
 20 25  1  0  0  0  0
 22 26  1  0  0  0  0
 22 21  2  0  0  0  0
 23 22  1  0  0  0  0
 24 18  1  0  0  0  0
 26 27  1  0  0  0  0
 28 26  1  0  0  0  0
 28 27  1  0  0  0  0
M  END
>  <minimizedAffinity>
-5.38626432

$$$$
