
 OpenBabel03212520533D

 19 21  0  0  0  0  0  0  0  0999 V2000
   42.3070   81.6410   61.6720 C   0  0  0  0  0  0  0  0  0  0  0  0
   42.0190   80.2790   61.8540 C   0  0  0  0  0  0  0  0  0  0  0  0
   42.4570   79.3870   60.9330 C   0  0  0  0  0  0  0  0  0  0  0  0
   43.1860   79.8520   59.8250 C   0  0  0  0  0  0  0  0  0  0  0  0
   43.2530   81.6810   60.1120 S   0  0  0  0  0  0  0  0  0  0  0  0
   41.4580   79.9450   62.7120 H   0  0  0  0  0  0  0  0  0  0  0  0
   42.3160   78.3190   60.9360 H   0  0  0  0  0  0  0  0  0  0  0  0
   42.2850   84.8460   63.4110 C   0  0  0  0  0  0  0  0  0  0  0  0
   41.1610   84.7310   64.2860 C   0  0  0  0  0  0  0  0  0  0  0  0
   40.4120   83.5240   64.2600 C   0  0  0  0  0  0  0  0  0  0  0  0
   40.8300   82.5690   63.3990 N   0  0  0  0  0  0  0  0  0  0  0  0
   41.8940   82.7160   62.5900 C   0  0  0  0  0  0  0  0  0  0  0  0
   42.6140   83.8320   62.5920 N   0  0  0  0  0  0  0  0  0  0  0  0
   42.8670   85.7530   63.4150 H   0  0  0  0  0  0  0  0  0  0  0  0
   40.9090   85.5480   64.9360 H   0  0  0  0  0  0  0  0  0  0  0  0
   39.5670   83.4230   64.9110 H   0  0  0  0  0  0  0  0  0  0  0  0
   43.7900   79.2370   58.6940 C   0  0  0  0  0  3  0  0  0  0  0  0
   43.3760   77.8930   58.1710 C   0  0  0  0  0  2  0  0  0  0  0  0
   42.9250   79.1480   57.4300 C   0  0  0  0  0  2  0  0  0  0  0  0
  1  2  2  0  0  0  0
  1 12  1  0  0  0  0
  2  6  1  0  0  0  0
  3  7  1  0  0  0  0
  3  2  1  0  0  0  0
  4  5  1  0  0  0  0
  4  3  2  0  0  0  0
  5  1  1  0  0  0  0
  8 14  1  0  0  0  0
  8  9  1  0  0  0  0
  9 15  1  0  0  0  0
 10  9  2  0  0  0  0
 10 16  1  0  0  0  0
 11 10  1  0  0  0  0
 12 13  1  0  0  0  0
 12 11  2  0  0  0  0
 13  8  2  0  0  0  0
 17  4  1  0  0  0  0
 18 17  1  0  0  0  0
 19 18  1  0  0  0  0
 19 17  1  0  0  0  0
M  END
>  <minimizedAffinity>
-3.3058567

>  <minimizedRMSD>
4.97671556

$$$$
