
 OpenBabel03212520513D

 29 32  0  0  1  0  0  0  0  0999 V2000
   41.6150   83.8310   61.3910 C   0  0  0  0  0  0  0  0  0  0  0  0
   40.9920   84.2070   62.5390 C   0  0  0  0  0  0  0  0  0  0  0  0
   40.5510   83.2670   63.4740 C   0  0  0  0  0  0  0  0  0  0  0  0
   40.7410   81.9550   63.2440 N   0  0  0  0  0  0  0  0  0  0  0  0
   41.3640   81.6010   62.0960 C   0  0  0  0  0  0  0  0  0  0  0  0
   41.7950   82.4990   61.1840 N   0  0  0  0  0  0  0  0  0  0  0  0
   40.8500   85.2660   62.7030 H   0  0  0  0  0  0  0  0  0  0  0  0
   40.0610   83.6220   64.3710 H   0  0  0  0  0  0  0  0  0  0  0  0
   43.5910   86.4040   59.6930 C   0  0  0  0  0  0  0  0  0  0  0  0
   42.9080   86.5630   58.4980 C   0  0  0  0  0  0  0  0  0  0  0  0
   41.7600   85.7950   58.2530 C   0  0  0  0  0  0  0  0  0  0  0  0
   41.3880   84.9180   59.2420 N   0  0  0  0  0  0  0  0  0  0  0  0
   42.0780   84.7910   60.3900 C   0  0  0  0  0  0  0  0  0  0  0  0
   43.1790   85.5210   60.6370 N   0  0  0  0  0  0  0  0  0  0  0  0
   44.7250   87.2330   59.7980 N   0  0  0  0  0  0  0  0  0  0  0  0
   43.1930   87.2520   57.7130 H   0  0  0  0  0  0  0  0  0  0  0  0
   41.1860   85.8630   57.3630 H   0  0  0  0  0  0  0  0  0  0  0  0
   44.7320   88.2300   59.4890 H   0  0  0  0  0  0  0  0  0  0  0  0
   45.5970   86.7910   60.2180 H   0  0  0  0  0  0  0  0  0  0  0  0
   41.5410   80.1200   61.8790 C   0  0  1  0  0  0  0  0  0  0  0  0
   40.6510   79.1600   62.4910 C   0  0  0  0  0  0  0  0  0  0  0  0
   40.3590   79.5310   61.0790 C   0  0  2  0  0  0  0  0  0  0  0  0
   42.5460   79.7940   61.5390 H   0  0  0  0  0  0  0  0  0  0  0  0
   39.8670   79.4500   63.2380 H   0  0  0  0  0  0  0  0  0  0  0  0
   40.9910   78.1250   62.6670 H   0  0  0  0  0  0  0  0  0  0  0  0
   39.4790   80.1600   60.8930 H   0  0  0  0  0  0  0  0  0  0  0  0
   40.7480   78.6710   59.9370 C   0  0  0  0  0  3  0  0  0  0  0  0
   39.6790   77.6380   59.5400 C   0  0  0  0  0  2  0  0  0  0  0  0
   40.1940   78.7190   58.5880 C   0  0  0  0  0  2  0  0  0  0  0  0
  1  2  1  0  0  0  0
  2  7  1  0  0  0  0
  2  3  2  0  0  0  0
  3  8  1  0  0  0  0
  4  3  1  0  0  0  0
  5  4  2  0  0  0  0
  6  1  2  0  0  0  0
  6  5  1  0  0  0  0
  9 15  1  0  0  0  0
  9 14  1  0  0  0  0
 10  9  2  0  0  0  0
 11 10  1  0  0  0  0
 11 12  2  0  0  0  0
 12 13  1  0  0  0  0
 13 14  2  0  0  0  0
 13  1  1  0  0  0  0
 15 19  1  0  0  0  0
 16 10  1  0  0  0  0
 17 11  1  0  0  0  0
 18 15  1  0  0  0  0
 20 23  1  6  0  0  0
 20  5  1  0  0  0  0
 20 21  1  0  0  0  0
 21 25  1  0  0  0  0
 21 24  1  0  0  0  0
 22 26  1  6  0  0  0
 22 20  1  0  0  0  0
 22 21  1  0  0  0  0
 27 22  1  0  0  0  0
 28 27  1  0  0  0  0
 29 28  1  0  0  0  0
 29 27  1  0  0  0  0
M  END
>  <minimizedAffinity>
-5.17513943

>  <minimizedRMSD>
0.235011205

$$$$
