
 OpenBabel03212520513D

 29 32  0  0  1  0  0  0  0  0999 V2000
   41.6640   83.8280   61.4470 C   0  0  0  0  0  0  0  0  0  0  0  0
   41.0180   84.1950   62.5840 C   0  0  0  0  0  0  0  0  0  0  0  0
   40.5470   83.2480   63.4970 C   0  0  0  0  0  0  0  0  0  0  0  0
   40.7310   81.9360   63.2550 N   0  0  0  0  0  0  0  0  0  0  0  0
   41.3760   81.5910   62.1170 C   0  0  0  0  0  0  0  0  0  0  0  0
   41.8370   82.4960   61.2270 N   0  0  0  0  0  0  0  0  0  0  0  0
   40.8820   85.2530   62.7580 H   0  0  0  0  0  0  0  0  0  0  0  0
   40.0400   83.5960   64.3870 H   0  0  0  0  0  0  0  0  0  0  0  0
   43.6560   86.4570   59.8590 C   0  0  0  0  0  0  0  0  0  0  0  0
   43.0510   86.5800   58.6190 C   0  0  0  0  0  0  0  0  0  0  0  0
   41.9520   85.7680   58.3040 C   0  0  0  0  0  0  0  0  0  0  0  0
   41.5450   84.8860   59.2750 N   0  0  0  0  0  0  0  0  0  0  0  0
   42.1590   84.7950   60.4690 C   0  0  0  0  0  0  0  0  0  0  0  0
   43.2130   85.5680   60.7820 N   0  0  0  0  0  0  0  0  0  0  0  0
   44.7490   87.3290   60.0320 N   0  0  0  0  0  0  0  0  0  0  0  0
   43.3650   87.2730   57.8470 H   0  0  0  0  0  0  0  0  0  0  0  0
   41.4390   85.8070   57.3760 H   0  0  0  0  0  0  0  0  0  0  0  0
   44.7410   88.3230   59.7130 H   0  0  0  0  0  0  0  0  0  0  0  0
   45.6060   86.9230   60.5150 H   0  0  0  0  0  0  0  0  0  0  0  0
   41.5440   80.1120   61.8860 C   0  0  1  0  0  0  0  0  0  0  0  0
   40.6490   79.1500   62.4870 C   0  0  0  0  0  0  0  0  0  0  0  0
   40.3590   79.5370   61.0800 C   0  0  2  0  0  0  0  0  0  0  0  0
   42.5480   79.7830   61.5430 H   0  0  0  0  0  0  0  0  0  0  0  0
   39.8660   79.4380   63.2370 H   0  0  0  0  0  0  0  0  0  0  0  0
   40.9830   78.1120   62.6540 H   0  0  0  0  0  0  0  0  0  0  0  0
   39.4840   80.1740   60.8990 H   0  0  0  0  0  0  0  0  0  0  0  0
   40.7440   78.6860   59.9290 C   0  0  0  0  0  3  0  0  0  0  0  0
   39.6810   77.6460   59.5380 C   0  0  0  0  0  2  0  0  0  0  0  0
   40.1740   78.7350   58.5860 C   0  0  0  0  0  2  0  0  0  0  0  0
  1  2  1  0  0  0  0
  2  7  1  0  0  0  0
  2  3  2  0  0  0  0
  3  8  1  0  0  0  0
  4  3  1  0  0  0  0
  5  4  2  0  0  0  0
  6  1  2  0  0  0  0
  6  5  1  0  0  0  0
  9 15  1  0  0  0  0
  9 14  1  0  0  0  0
 10  9  2  0  0  0  0
 11 10  1  0  0  0  0
 11 12  2  0  0  0  0
 12 13  1  0  0  0  0
 13 14  2  0  0  0  0
 13  1  1  0  0  0  0
 15 19  1  0  0  0  0
 16 10  1  0  0  0  0
 17 11  1  0  0  0  0
 18 15  1  0  0  0  0
 20 23  1  6  0  0  0
 20  5  1  0  0  0  0
 20 21  1  0  0  0  0
 21 25  1  0  0  0  0
 21 24  1  0  0  0  0
 22 26  1  6  0  0  0
 22 20  1  0  0  0  0
 22 21  1  0  0  0  0
 27 22  1  0  0  0  0
 28 27  1  0  0  0  0
 29 28  1  0  0  0  0
 29 27  1  0  0  0  0
M  END
>  <minimizedAffinity>
-5.1681881

>  <minimizedRMSD>
0.741282642

$$$$
