
 OpenBabel03212520383D

 20 22  0  0  1  0  0  0  0  0999 V2000
   38.0960   74.4770   58.7170 O   0  0  0  0  0  0  0  0  0  0  0  0
   36.8140   76.3780   55.9170 C   0  0  0  0  0  0  0  0  0  0  0  0
   37.5910   77.5340   55.9550 C   0  0  0  0  0  0  0  0  0  0  0  0
   38.5600   77.6160   56.9780 C   0  0  0  0  0  0  0  0  0  0  0  0
   38.6430   76.5630   57.8300 N   0  0  0  0  0  0  0  0  0  0  0  0
   37.8900   75.4690   57.7740 C   0  0  0  0  0  0  0  0  0  0  0  0
   36.9500   75.3660   56.7980 N   0  0  0  0  0  0  0  0  0  0  0  0
   36.0600   76.2910   55.1370 H   0  0  0  0  0  0  0  0  0  0  0  0
   37.5070   78.3500   55.2740 H   0  0  0  0  0  0  0  0  0  0  0  0
   39.2230   78.4560   57.1160 H   0  0  0  0  0  0  0  0  0  0  0  0
   38.8920   74.7130   59.8700 C   0  0  1  0  0  0  0  0  0  0  0  0
   38.1660   74.3940   61.1630 C   0  0  0  0  0  0  0  0  0  0  0  0
   39.3010   73.5240   60.6570 C   0  0  2  0  0  0  0  0  0  0  0  0
   39.4270   75.6680   59.8700 H   0  0  0  0  0  0  0  0  0  0  0  0
   37.1260   74.0360   61.1280 H   0  0  0  0  0  0  0  0  0  0  0  0
   38.3860   75.0060   62.0600 H   0  0  0  0  0  0  0  0  0  0  0  0
   38.9940   72.5310   60.3080 H   0  0  0  0  0  0  0  0  0  0  0  0
   40.5940   73.5480   61.4510 C   0  0  0  0  0  3  0  0  0  0  0  0
   41.7360   72.6430   60.9770 C   0  0  0  0  0  2  0  0  0  0  0  0
   40.9220   72.2370   62.1720 C   0  0  0  0  0  2  0  0  0  0  0  0
  1 11  1  0  0  0  0
  2  3  2  0  0  0  0
  2  7  1  0  0  0  0
  3  4  1  0  0  0  0
  4 10  1  0  0  0  0
  4  5  2  0  0  0  0
  6  5  1  0  0  0  0
  6  1  1  0  0  0  0
  7  6  2  0  0  0  0
  8  2  1  0  0  0  0
  9  3  1  0  0  0  0
 11 14  1  6  0  0  0
 11 13  1  0  0  0  0
 11 12  1  0  0  0  0
 12 16  1  0  0  0  0
 13 17  1  6  0  0  0
 13 12  1  0  0  0  0
 13 18  1  0  0  0  0
 15 12  1  0  0  0  0
 18 20  1  0  0  0  0
 19 18  1  0  0  0  0
 19 20  1  0  0  0  0
M  END
>  <minimizedAffinity>
-4.1473546

$$$$

 OpenBabel03212520383D

 20 22  0  0  1  0  0  0  0  0999 V2000
   42.5140   68.5290   60.6160 O   0  0  0  0  0  0  0  0  0  0  0  0
   43.0140   72.0590   61.2390 C   0  0  0  0  0  0  0  0  0  0  0  0
   42.2810   72.2660   62.4060 C   0  0  0  0  0  0  0  0  0  0  0  0
   41.6220   71.1440   62.9500 C   0  0  0  0  0  0  0  0  0  0  0  0
   41.7610   69.9690   62.2880 N   0  0  0  0  0  0  0  0  0  0  0  0
   42.4660   69.7930   61.1750 C   0  0  0  0  0  0  0  0  0  0  0  0
   43.1110   70.8580   60.6300 N   0  0  0  0  0  0  0  0  0  0  0  0
   43.5330   72.9090   60.7990 H   0  0  0  0  0  0  0  0  0  0  0  0
   42.1860   73.2010   62.9090 H   0  0  0  0  0  0  0  0  0  0  0  0
   41.0230   71.1720   63.8480 H   0  0  0  0  0  0  0  0  0  0  0  0
   41.3780   67.6750   60.6300 C   0  0  1  0  0  0  0  0  0  0  0  0
   41.6930   66.2670   60.1610 C   0  0  0  0  0  0  0  0  0  0  0  0
   41.3850   66.5670   61.6170 C   0  0  2  0  0  0  0  0  0  0  0  0
   40.4730   68.1100   60.1960 H   0  0  0  0  0  0  0  0  0  0  0  0
   42.7170   66.0170   59.8440 H   0  0  0  0  0  0  0  0  0  0  0  0
   40.9150   65.7070   59.6060 H   0  0  0  0  0  0  0  0  0  0  0  0
   42.2420   66.4700   62.2930 H   0  0  0  0  0  0  0  0  0  0  0  0
   40.0760   66.0330   62.1670 C   0  0  0  0  0  3  0  0  0  0  0  0
   39.5660   66.6250   63.4860 C   0  0  0  0  0  2  0  0  0  0  0  0
   40.2060   65.2670   63.4860 C   0  0  0  0  0  2  0  0  0  0  0  0
  1 11  1  0  0  0  0
  1  6  1  0  0  0  0
  2  3  1  0  0  0  0
  3  9  1  0  0  0  0
  3  4  2  0  0  0  0
  4 10  1  0  0  0  0
  5  4  1  0  0  0  0
  6  5  2  0  0  0  0
  7  6  1  0  0  0  0
  7  2  2  0  0  0  0
  8  2  1  0  0  0  0
 11 14  1  6  0  0  0
 11 13  1  0  0  0  0
 12 11  1  0  0  0  0
 12 13  1  0  0  0  0
 13 18  1  0  0  0  0
 13 17  1  1  0  0  0
 15 12  1  0  0  0  0
 16 12  1  0  0  0  0
 18 19  1  0  0  0  0
 18 20  1  0  0  0  0
 19 20  1  0  0  0  0
M  END
>  <minimizedAffinity>
-4.12548542

$$$$

 OpenBabel03212520383D

 20 22  0  0  1  0  0  0  0  0999 V2000
   38.8420   77.3170   58.2420 O   0  0  0  0  0  0  0  0  0  0  0  0
   37.7710   76.8880   54.8120 C   0  0  0  0  0  0  0  0  0  0  0  0
   36.9180   75.7890   54.8970 C   0  0  0  0  0  0  0  0  0  0  0  0
   36.7390   75.2210   56.1760 C   0  0  0  0  0  0  0  0  0  0  0  0
   37.4140   75.7950   57.2030 N   0  0  0  0  0  0  0  0  0  0  0  0
   38.2230   76.8450   57.0990 C   0  0  0  0  0  0  0  0  0  0  0  0
   38.4130   77.4110   55.8780 N   0  0  0  0  0  0  0  0  0  0  0  0
   37.9250   77.3450   53.8360 H   0  0  0  0  0  0  0  0  0  0  0  0
   36.3980   75.3540   54.0740 H   0  0  0  0  0  0  0  0  0  0  0  0
   36.1060   74.3690   56.3750 H   0  0  0  0  0  0  0  0  0  0  0  0
   39.8230   76.5460   58.9210 C   0  0  1  0  0  0  0  0  0  0  0  0
   40.0950   77.0430   60.3280 C   0  0  0  0  0  0  0  0  0  0  0  0
   39.3600   75.7390   60.0770 C   0  0  2  0  0  0  0  0  0  0  0  0
   40.7190   76.3260   58.3320 H   0  0  0  0  0  0  0  0  0  0  0  0
   39.5570   77.9260   60.7050 H   0  0  0  0  0  0  0  0  0  0  0  0
   41.1210   76.9520   60.7340 H   0  0  0  0  0  0  0  0  0  0  0  0
   38.2960   75.7570   60.3390 H   0  0  0  0  0  0  0  0  0  0  0  0
   40.0850   74.4590   60.4460 C   0  0  0  0  0  3  0  0  0  0  0  0
   39.5590   73.1470   59.8520 C   0  0  0  0  0  2  0  0  0  0  0  0
   39.2590   73.4800   61.2860 C   0  0  0  0  0  2  0  0  0  0  0  0
  1 11  1  0  0  0  0
  2  3  2  0  0  0  0
  2  7  1  0  0  0  0
  3  4  1  0  0  0  0
  4 10  1  0  0  0  0
  4  5  2  0  0  0  0
  6  5  1  0  0  0  0
  6  1  1  0  0  0  0
  7  6  2  0  0  0  0
  8  2  1  0  0  0  0
  9  3  1  0  0  0  0
 11 14  1  6  0  0  0
 11 13  1  0  0  0  0
 11 12  1  0  0  0  0
 12 15  1  0  0  0  0
 12 16  1  0  0  0  0
 13 12  1  0  0  0  0
 13 17  1  1  0  0  0
 13 18  1  0  0  0  0
 18 20  1  0  0  0  0
 19 18  1  0  0  0  0
 19 20  1  0  0  0  0
M  END
>  <minimizedAffinity>
-4.0925355

$$$$

 OpenBabel03212520383D

 20 22  0  0  1  0  0  0  0  0999 V2000
   39.3420   73.6150   61.1190 O   0  0  0  0  0  0  0  0  0  0  0  0
   42.0710   71.3790   60.3130 C   0  0  0  0  0  0  0  0  0  0  0  0
   42.6780   71.1840   61.5520 C   0  0  0  0  0  0  0  0  0  0  0  0
   42.1030   71.8520   62.6540 C   0  0  0  0  0  0  0  0  0  0  0  0
   41.0150   72.6230   62.4050 N   0  0  0  0  0  0  0  0  0  0  0  0
   40.4520   72.7960   61.2130 C   0  0  0  0  0  0  0  0  0  0  0  0
   40.9870   72.1630   60.1350 N   0  0  0  0  0  0  0  0  0  0  0  0
   42.4950   70.8740   59.4470 H   0  0  0  0  0  0  0  0  0  0  0  0
   43.5340   70.5720   61.7230 H   0  0  0  0  0  0  0  0  0  0  0  0
   42.4770   71.7840   63.6640 H   0  0  0  0  0  0  0  0  0  0  0  0
   39.3650   74.7980   60.3330 C   0  0  1  0  0  0  0  0  0  0  0  0
   39.2730   76.0630   61.1660 C   0  0  0  0  0  0  0  0  0  0  0  0
   40.5590   75.6680   60.4640 C   0  0  2  0  0  0  0  0  0  0  0  0
   38.7070   74.7780   59.4580 H   0  0  0  0  0  0  0  0  0  0  0  0
   39.1850   75.9860   62.2600 H   0  0  0  0  0  0  0  0  0  0  0  0
   38.7390   76.9380   60.7460 H   0  0  0  0  0  0  0  0  0  0  0  0
   41.3680   75.3540   61.1350 H   0  0  0  0  0  0  0  0  0  0  0  0
   41.0000   76.5320   59.2970 C   0  0  0  0  0  3  0  0  0  0  0  0
   42.4460   76.3860   58.8110 C   0  0  0  0  0  2  0  0  0  0  0  0
   42.0660   77.5750   59.6460 C   0  0  0  0  0  2  0  0  0  0  0  0
  1  6  1  0  0  0  0
  2  3  1  0  0  0  0
  3  9  1  0  0  0  0
  3  4  2  0  0  0  0
  4 10  1  0  0  0  0
  5  4  1  0  0  0  0
  6  5  2  0  0  0  0
  7  2  2  0  0  0  0
  7  6  1  0  0  0  0
  8  2  1  0  0  0  0
 11 14  1  6  0  0  0
 11 13  1  0  0  0  0
 11  1  1  0  0  0  0
 11 12  1  0  0  0  0
 12 15  1  0  0  0  0
 13 17  1  1  0  0  0
 13 12  1  0  0  0  0
 16 12  1  0  0  0  0
 18 20  1  0  0  0  0
 18 13  1  0  0  0  0
 19 18  1  0  0  0  0
 19 20  1  0  0  0  0
M  END
>  <minimizedAffinity>
-4.04643297

$$$$

 OpenBabel03212520383D

 20 22  0  0  1  0  0  0  0  0999 V2000
   40.6590   73.6710   61.6510 O   0  0  0  0  0  0  0  0  0  0  0  0
   42.0690   70.4460   60.8080 C   0  0  0  0  0  0  0  0  0  0  0  0
   42.1750   69.8290   62.0530 C   0  0  0  0  0  0  0  0  0  0  0  0
   41.7410   70.5720   63.1710 C   0  0  0  0  0  0  0  0  0  0  0  0
   41.2630   71.8190   62.9310 N   0  0  0  0  0  0  0  0  0  0  0  0
   41.1710   72.3890   61.7340 C   0  0  0  0  0  0  0  0  0  0  0  0
   41.5820   71.6940   60.6400 N   0  0  0  0  0  0  0  0  0  0  0  0
   42.3960   69.8930   59.9300 H   0  0  0  0  0  0  0  0  0  0  0  0
   42.5550   68.8460   62.2170 H   0  0  0  0  0  0  0  0  0  0  0  0
   41.7710   70.2080   64.1870 H   0  0  0  0  0  0  0  0  0  0  0  0
   39.3330   73.9060   61.1960 C   0  0  1  0  0  0  0  0  0  0  0  0
   38.9820   75.3810   61.1410 C   0  0  0  0  0  0  0  0  0  0  0  0
   39.1840   74.5670   59.8760 C   0  0  2  0  0  0  0  0  0  0  0  0
   38.5710   73.2720   61.6600 H   0  0  0  0  0  0  0  0  0  0  0  0
   39.7270   76.1290   61.4520 H   0  0  0  0  0  0  0  0  0  0  0  0
   37.9400   75.6870   61.3600 H   0  0  0  0  0  0  0  0  0  0  0  0
   40.0880   74.8210   59.3100 H   0  0  0  0  0  0  0  0  0  0  0  0
   37.9560   74.2970   59.0280 C   0  0  0  0  0  3  0  0  0  0  0  0
   38.1480   73.4960   57.7350 C   0  0  0  0  0  2  0  0  0  0  0  0
   37.9640   74.9850   57.6600 C   0  0  0  0  0  2  0  0  0  0  0  0
  1  6  1  0  0  0  0
  2  3  1  0  0  0  0
  3  9  1  0  0  0  0
  3  4  2  0  0  0  0
  4 10  1  0  0  0  0
  5  4  1  0  0  0  0
  6  5  2  0  0  0  0
  7  2  2  0  0  0  0
  7  6  1  0  0  0  0
  8  2  1  0  0  0  0
 11  1  1  0  0  0  0
 11 14  1  1  0  0  0
 12 11  1  0  0  0  0
 12 16  1  0  0  0  0
 12 15  1  0  0  0  0
 13 17  1  6  0  0  0
 13 12  1  0  0  0  0
 13 11  1  0  0  0  0
 18 13  1  0  0  0  0
 19 18  1  0  0  0  0
 20 19  1  0  0  0  0
 20 18  1  0  0  0  0
M  END
>  <minimizedAffinity>
-4.01570845

$$$$

 OpenBabel03212520383D

 20 22  0  0  1  0  0  0  0  0999 V2000
   40.0980   72.7620   61.7000 O   0  0  0  0  0  0  0  0  0  0  0  0
   38.5980   74.4150   58.8510 C   0  0  0  0  0  0  0  0  0  0  0  0
   38.8110   75.7620   59.1370 C   0  0  0  0  0  0  0  0  0  0  0  0
   39.4870   76.0580   60.3400 C   0  0  0  0  0  0  0  0  0  0  0  0
   39.8640   75.0050   61.1070 N   0  0  0  0  0  0  0  0  0  0  0  0
   39.6500   73.7250   60.8140 C   0  0  0  0  0  0  0  0  0  0  0  0
   39.0010   73.4140   59.6610 N   0  0  0  0  0  0  0  0  0  0  0  0
   38.0790   74.1610   57.9280 H   0  0  0  0  0  0  0  0  0  0  0  0
   38.5050   76.5740   58.5170 H   0  0  0  0  0  0  0  0  0  0  0  0
   39.7130   77.0580   60.6750 H   0  0  0  0  0  0  0  0  0  0  0  0
   41.3530   72.1220   61.5180 C   0  0  1  0  0  0  0  0  0  0  0  0
   42.4090   72.6100   62.4920 C   0  0  0  0  0  0  0  0  0  0  0  0
   41.8100   71.2200   62.6040 C   0  0  2  0  0  0  0  0  0  0  0  0
   41.6870   72.0560   60.4780 H   0  0  0  0  0  0  0  0  0  0  0  0
   42.1540   73.3920   63.2240 H   0  0  0  0  0  0  0  0  0  0  0  0
   43.4630   72.6590   62.1530 H   0  0  0  0  0  0  0  0  0  0  0  0
   41.1590   71.0720   63.4740 H   0  0  0  0  0  0  0  0  0  0  0  0
   42.7210   70.0500   62.2840 C   0  0  0  0  0  3  0  0  0  0  0  0
   42.0940   68.6520   62.2420 C   0  0  0  0  0  2  0  0  0  0  0  0
   42.9090   69.0580   63.4360 C   0  0  0  0  0  2  0  0  0  0  0  0
  2  3  2  0  0  0  0
  2  7  1  0  0  0  0
  3  4  1  0  0  0  0
  4 10  1  0  0  0  0
  4  5  2  0  0  0  0
  6  5  1  0  0  0  0
  6  1  1  0  0  0  0
  7  6  2  0  0  0  0
  8  2  1  0  0  0  0
  9  3  1  0  0  0  0
 11 14  1  6  0  0  0
 11  1  1  0  0  0  0
 11 12  1  0  0  0  0
 11 13  1  0  0  0  0
 12 13  1  0  0  0  0
 12 15  1  0  0  0  0
 13 17  1  1  0  0  0
 16 12  1  0  0  0  0
 18 13  1  0  0  0  0
 18 20  1  0  0  0  0
 19 18  1  0  0  0  0
 19 20  1  0  0  0  0
M  END
>  <minimizedAffinity>
-3.96388721

$$$$

 OpenBabel03212520383D

 20 22  0  0  1  0  0  0  0  0999 V2000
   38.6880   73.7280   58.8110 O   0  0  0  0  0  0  0  0  0  0  0  0
   38.0530   76.7900   56.9890 C   0  0  0  0  0  0  0  0  0  0  0  0
   37.1120   76.3880   56.0430 C   0  0  0  0  0  0  0  0  0  0  0  0
   36.7200   75.0340   56.0710 C   0  0  0  0  0  0  0  0  0  0  0  0
   37.2960   74.2470   57.0150 N   0  0  0  0  0  0  0  0  0  0  0  0
   38.1920   74.6520   57.9090 C   0  0  0  0  0  0  0  0  0  0  0  0
   38.5870   75.9530   57.9030 N   0  0  0  0  0  0  0  0  0  0  0  0
   38.3710   77.8310   56.9880 H   0  0  0  0  0  0  0  0  0  0  0  0
   36.6730   77.0260   55.3090 H   0  0  0  0  0  0  0  0  0  0  0  0
   36.0010   74.5990   55.3930 H   0  0  0  0  0  0  0  0  0  0  0  0
   39.4790   74.1330   59.9200 C   0  0  1  0  0  0  0  0  0  0  0  0
   38.6800   74.2480   61.2040 C   0  0  0  0  0  0  0  0  0  0  0  0
   39.6890   73.1340   60.9950 C   0  0  2  0  0  0  0  0  0  0  0  0
   40.1470   74.9770   59.7200 H   0  0  0  0  0  0  0  0  0  0  0  0
   37.6000   74.0360   61.1920 H   0  0  0  0  0  0  0  0  0  0  0  0
   38.9630   75.0280   61.9380 H   0  0  0  0  0  0  0  0  0  0  0  0
   39.2500   72.1360   60.8800 H   0  0  0  0  0  0  0  0  0  0  0  0
   40.9500   73.1800   61.8380 C   0  0  0  0  0  3  0  0  0  0  0  0
   42.1270   72.2990   61.4050 C   0  0  0  0  0  2  0  0  0  0  0  0
   41.2760   71.8740   62.5670 C   0  0  0  0  0  2  0  0  0  0  0  0
  1 11  1  0  0  0  0
  2  7  1  0  0  0  0
  3  4  1  0  0  0  0
  3  2  2  0  0  0  0
  4  5  2  0  0  0  0
  5  6  1  0  0  0  0
  6  1  1  0  0  0  0
  7  6  2  0  0  0  0
  8  2  1  0  0  0  0
  9  3  1  0  0  0  0
 10  4  1  0  0  0  0
 11 14  1  6  0  0  0
 11 13  1  0  0  0  0
 11 12  1  0  0  0  0
 12 16  1  0  0  0  0
 13 17  1  6  0  0  0
 13 12  1  0  0  0  0
 13 18  1  0  0  0  0
 15 12  1  0  0  0  0
 18 20  1  0  0  0  0
 19 18  1  0  0  0  0
 19 20  1  0  0  0  0
M  END
>  <minimizedAffinity>
-3.94720149

$$$$

 OpenBabel03212520383D

 20 22  0  0  1  0  0  0  0  0999 V2000
   42.2060   70.0660   61.8240 O   0  0  0  0  0  0  0  0  0  0  0  0
   40.8300   67.1480   63.4640 C   0  0  0  0  0  0  0  0  0  0  0  0
   41.2300   66.1120   62.6230 C   0  0  0  0  0  0  0  0  0  0  0  0
   41.9840   66.4710   61.4860 C   0  0  0  0  0  0  0  0  0  0  0  0
   42.2480   67.7910   61.3160 N   0  0  0  0  0  0  0  0  0  0  0  0
   41.8560   68.7640   62.1330 C   0  0  0  0  0  0  0  0  0  0  0  0
   41.1280   68.4440   63.2360 N   0  0  0  0  0  0  0  0  0  0  0  0
   40.2470   66.8960   64.3480 H   0  0  0  0  0  0  0  0  0  0  0  0
   41.0100   65.0800   62.7770 H   0  0  0  0  0  0  0  0  0  0  0  0
   42.3540   65.7650   60.7580 H   0  0  0  0  0  0  0  0  0  0  0  0
   41.4770   71.1670   62.3480 C   0  0  1  0  0  0  0  0  0  0  0  0
   42.3350   72.4030   62.5420 C   0  0  0  0  0  0  0  0  0  0  0  0
   41.2840   72.3320   61.4490 C   0  0  2  0  0  0  0  0  0  0  0  0
   40.8260   70.9250   63.1940 H   0  0  0  0  0  0  0  0  0  0  0  0
   43.4060   72.3650   62.2940 H   0  0  0  0  0  0  0  0  0  0  0  0
   42.1080   73.0790   63.3910 H   0  0  0  0  0  0  0  0  0  0  0  0
   41.6880   72.2840   60.4310 H   0  0  0  0  0  0  0  0  0  0  0  0
   40.0640   73.2190   61.6090 C   0  0  0  0  0  3  0  0  0  0  0  0
   39.1860   73.4500   60.3740 C   0  0  0  0  0  2  0  0  0  0  0  0
   40.1260   74.5330   60.8240 C   0  0  0  0  0  2  0  0  0  0  0  0
  1  6  1  0  0  0  0
  1 11  1  0  0  0  0
  2  8  1  0  0  0  0
  3  9  1  0  0  0  0
  3  2  2  0  0  0  0
  4  3  1  0  0  0  0
  5  4  2  0  0  0  0
  5  6  1  0  0  0  0
  6  7  2  0  0  0  0
  7  2  1  0  0  0  0
 10  4  1  0  0  0  0
 11 12  1  0  0  0  0
 11 14  1  1  0  0  0
 12 16  1  0  0  0  0
 13 17  1  6  0  0  0
 13 18  1  0  0  0  0
 13 11  1  0  0  0  0
 13 12  1  0  0  0  0
 15 12  1  0  0  0  0
 19 20  1  0  0  0  0
 19 18  1  0  0  0  0
 20 18  1  0  0  0  0
M  END
>  <minimizedAffinity>
-3.79371262

$$$$

 OpenBabel03212520383D

 20 22  0  0  1  0  0  0  0  0999 V2000
   41.8260   70.8390   62.9350 O   0  0  0  0  0  0  0  0  0  0  0  0
   40.2040   73.5270   61.1340 C   0  0  0  0  0  0  0  0  0  0  0  0
   41.1700   73.8890   60.1970 C   0  0  0  0  0  0  0  0  0  0  0  0
   42.3820   73.1680   60.2230 C   0  0  0  0  0  0  0  0  0  0  0  0
   42.4960   72.1910   61.1570 N   0  0  0  0  0  0  0  0  0  0  0  0
   41.5610   71.8620   62.0430 C   0  0  0  0  0  0  0  0  0  0  0  0
   40.3830   72.5420   62.0390 N   0  0  0  0  0  0  0  0  0  0  0  0
   39.2600   74.0680   61.1340 H   0  0  0  0  0  0  0  0  0  0  0  0
   41.0580   74.6610   59.4710 H   0  0  0  0  0  0  0  0  0  0  0  0
   43.2080   73.3490   59.5510 H   0  0  0  0  0  0  0  0  0  0  0  0
   42.1690   69.5370   62.4800 C   0  0  1  0  0  0  0  0  0  0  0  0
   43.0650   68.7910   63.4510 C   0  0  0  0  0  0  0  0  0  0  0  0
   41.6150   68.3930   63.2450 C   0  0  2  0  0  0  0  0  0  0  0  0
   42.4860   69.4870   61.4340 H   0  0  0  0  0  0  0  0  0  0  0  0
   43.3850   69.2820   64.3820 H   0  0  0  0  0  0  0  0  0  0  0  0
   43.8220   68.0930   63.0440 H   0  0  0  0  0  0  0  0  0  0  0  0
   40.9590   68.5980   64.0990 H   0  0  0  0  0  0  0  0  0  0  0  0
   41.3560   67.0700   62.5480 C   0  0  0  0  0  3  0  0  0  0  0  0
   39.9080   66.5710   62.4850 C   0  0  0  0  0  2  0  0  0  0  0  0
   40.8590   65.9530   63.4700 C   0  0  0  0  0  2  0  0  0  0  0  0
  2  8  1  0  0  0  0
  2  7  1  0  0  0  0
  3  4  1  0  0  0  0
  3  2  2  0  0  0  0
  4  5  2  0  0  0  0
  5  6  1  0  0  0  0
  6  1  1  0  0  0  0
  7  6  2  0  0  0  0
  9  3  1  0  0  0  0
 10  4  1  0  0  0  0
 11 14  1  6  0  0  0
 11  1  1  0  0  0  0
 11 13  1  0  0  0  0
 11 12  1  0  0  0  0
 12 15  1  0  0  0  0
 13 12  1  0  0  0  0
 13 17  1  1  0  0  0
 16 12  1  0  0  0  0
 18 13  1  0  0  0  0
 18 20  1  0  0  0  0
 19 18  1  0  0  0  0
 19 20  1  0  0  0  0
M  END
>  <minimizedAffinity>
-3.74074602

$$$$
