
 OpenBabel03212520513D

 29 32  0  0  1  0  0  0  0  0999 V2000
   41.6640   83.8270   61.4480 C   0  0  0  0  0  0  0  0  0  0  0  0
   41.0190   84.1940   62.5860 C   0  0  0  0  0  0  0  0  0  0  0  0
   40.5480   83.2470   63.4980 C   0  0  0  0  0  0  0  0  0  0  0  0
   40.7310   81.9360   63.2560 N   0  0  0  0  0  0  0  0  0  0  0  0
   41.3760   81.5910   62.1190 C   0  0  0  0  0  0  0  0  0  0  0  0
   41.8360   82.4950   61.2290 N   0  0  0  0  0  0  0  0  0  0  0  0
   40.8830   85.2530   62.7600 H   0  0  0  0  0  0  0  0  0  0  0  0
   40.0400   83.5960   64.3890 H   0  0  0  0  0  0  0  0  0  0  0  0
   43.6560   86.4570   59.8600 C   0  0  0  0  0  0  0  0  0  0  0  0
   43.0510   86.5800   58.6200 C   0  0  0  0  0  0  0  0  0  0  0  0
   41.9520   85.7680   58.3060 C   0  0  0  0  0  0  0  0  0  0  0  0
   41.5450   84.8860   59.2770 N   0  0  0  0  0  0  0  0  0  0  0  0
   42.1590   84.7950   60.4710 C   0  0  0  0  0  0  0  0  0  0  0  0
   43.2130   85.5680   60.7830 N   0  0  0  0  0  0  0  0  0  0  0  0
   44.7490   87.3290   60.0330 N   0  0  0  0  0  0  0  0  0  0  0  0
   43.3640   87.2730   57.8480 H   0  0  0  0  0  0  0  0  0  0  0  0
   41.4380   85.8060   57.3780 H   0  0  0  0  0  0  0  0  0  0  0  0
   44.7410   88.3230   59.7140 H   0  0  0  0  0  0  0  0  0  0  0  0
   45.6070   86.9230   60.5170 H   0  0  0  0  0  0  0  0  0  0  0  0
   41.5440   80.1110   61.8870 C   0  0  1  0  0  0  0  0  0  0  0  0
   40.6480   79.1500   62.4880 C   0  0  0  0  0  0  0  0  0  0  0  0
   40.3590   79.5370   61.0810 C   0  0  2  0  0  0  0  0  0  0  0  0
   42.5480   79.7820   61.5440 H   0  0  0  0  0  0  0  0  0  0  0  0
   39.8660   79.4370   63.2380 H   0  0  0  0  0  0  0  0  0  0  0  0
   40.9820   78.1120   62.6550 H   0  0  0  0  0  0  0  0  0  0  0  0
   39.4840   80.1740   60.9000 H   0  0  0  0  0  0  0  0  0  0  0  0
   40.7440   78.6860   59.9290 C   0  0  0  0  0  3  0  0  0  0  0  0
   39.6820   77.6460   59.5390 C   0  0  0  0  0  2  0  0  0  0  0  0
   40.1750   78.7360   58.5870 C   0  0  0  0  0  2  0  0  0  0  0  0
  1  2  1  0  0  0  0
  2  7  1  0  0  0  0
  2  3  2  0  0  0  0
  3  8  1  0  0  0  0
  4  3  1  0  0  0  0
  5  4  2  0  0  0  0
  6  1  2  0  0  0  0
  6  5  1  0  0  0  0
  9 15  1  0  0  0  0
  9 14  1  0  0  0  0
 10  9  2  0  0  0  0
 11 10  1  0  0  0  0
 11 12  2  0  0  0  0
 12 13  1  0  0  0  0
 13 14  2  0  0  0  0
 13  1  1  0  0  0  0
 15 19  1  0  0  0  0
 16 10  1  0  0  0  0
 17 11  1  0  0  0  0
 18 15  1  0  0  0  0
 20 23  1  6  0  0  0
 20  5  1  0  0  0  0
 20 21  1  0  0  0  0
 21 25  1  0  0  0  0
 21 24  1  0  0  0  0
 22 26  1  6  0  0  0
 22 20  1  0  0  0  0
 22 21  1  0  0  0  0
 27 22  1  0  0  0  0
 28 27  1  0  0  0  0
 29 28  1  0  0  0  0
 29 27  1  0  0  0  0
M  END
>  <minimizedAffinity>
-5.16760063

>  <minimizedRMSD>
0.843717933

$$$$
