
 OpenBabel03212520243D

 12 13  0  0  0  0  0  0  0  0999 V2000
   37.9710   77.2670   56.7170 C   0  0  0  0  0  0  0  0  0  0  0  0
   38.8830   77.1720   57.7930 C   0  0  0  0  0  0  0  0  0  0  0  0
   38.8970   75.9820   58.5220 C   0  0  0  0  0  0  0  0  0  0  0  0
   38.0400   74.9870   58.1610 N   0  0  0  0  0  0  0  0  0  0  0  0
   37.1730   75.1080   57.1220 C   0  0  0  0  0  0  0  0  0  0  0  0
   37.1410   76.2500   56.4020 N   0  0  0  0  0  0  0  0  0  0  0  0
   37.9540   78.2000   56.1400 H   0  0  0  0  0  0  0  0  0  0  0  0
   39.5360   77.9990   58.0270 H   0  0  0  0  0  0  0  0  0  0  0  0
   36.5420   74.2580   56.9260 H   0  0  0  0  0  0  0  0  0  0  0  0
   39.8320   75.8330   59.6550 C   0  0  0  0  0  3  0  0  0  0  0  0
   40.1030   76.9240   60.6200 C   0  0  0  0  0  2  0  0  0  0  0  0
   39.1620   75.8540   61.0220 C   0  0  0  0  0  2  0  0  0  0  0  0
  1  2  1  0  0  0  0
  2  8  1  0  0  0  0
  2  3  2  0  0  0  0
  3 10  1  0  0  0  0
  4  3  1  0  0  0  0
  5  4  2  0  0  0  0
  6  1  2  0  0  0  0
  6  5  1  0  0  0  0
  7  1  1  0  0  0  0
  9  5  1  0  0  0  0
 10 11  1  0  0  0  0
 10 12  1  0  0  0  0
 11 12  1  0  0  0  0
M  END
>  <minimizedAffinity>
-3.46230888

$$$$

 OpenBabel03212520243D

 12 13  0  0  0  0  0  0  0  0999 V2000
   37.1860   75.0960   57.0910 C   0  0  0  0  0  0  0  0  0  0  0  0
   38.0700   74.9120   58.1790 C   0  0  0  0  0  0  0  0  0  0  0  0
   38.8990   75.9810   58.5220 C   0  0  0  0  0  0  0  0  0  0  0  0
   38.8100   77.1330   57.7990 N   0  0  0  0  0  0  0  0  0  0  0  0
   37.9500   77.2800   56.7580 C   0  0  0  0  0  0  0  0  0  0  0  0
   37.1380   76.2590   56.4070 N   0  0  0  0  0  0  0  0  0  0  0  0
   36.5320   74.2590   56.8160 H   0  0  0  0  0  0  0  0  0  0  0  0
   38.0910   73.9730   58.7110 H   0  0  0  0  0  0  0  0  0  0  0  0
   37.9640   78.2320   56.2580 H   0  0  0  0  0  0  0  0  0  0  0  0
   39.8400   75.8400   59.6500 C   0  0  0  0  0  3  0  0  0  0  0  0
   40.1610   76.9570   60.5700 C   0  0  0  0  0  2  0  0  0  0  0  0
   39.1870   75.9370   61.0220 C   0  0  0  0  0  2  0  0  0  0  0  0
  1  2  1  0  0  0  0
  2  3  2  0  0  0  0
  2  8  1  0  0  0  0
  3 10  1  0  0  0  0
  4  3  1  0  0  0  0
  5  4  2  0  0  0  0
  6  5  1  0  0  0  0
  6  1  2  0  0  0  0
  7  1  1  0  0  0  0
  9  5  1  0  0  0  0
 10 11  1  0  0  0  0
 10 12  1  0  0  0  0
 11 12  1  0  0  0  0
M  END
>  <minimizedAffinity>
-3.42874599

$$$$

 OpenBabel03212520243D

 12 13  0  0  0  0  0  0  0  0999 V2000
   37.6900   74.9450   57.5510 C   0  0  0  0  0  0  0  0  0  0  0  0
   38.0620   74.4290   58.8140 C   0  0  0  0  0  0  0  0  0  0  0  0
   38.8380   75.2440   59.6380 C   0  0  0  0  0  0  0  0  0  0  0  0
   39.1920   76.4800   59.1870 N   0  0  0  0  0  0  0  0  0  0  0  0
   38.8200   76.9480   57.9680 C   0  0  0  0  0  0  0  0  0  0  0  0
   38.0680   76.1780   57.1510 N   0  0  0  0  0  0  0  0  0  0  0  0
   37.0800   74.3090   56.8970 H   0  0  0  0  0  0  0  0  0  0  0  0
   37.7480   73.4400   59.1110 H   0  0  0  0  0  0  0  0  0  0  0  0
   39.1560   77.9380   57.7140 H   0  0  0  0  0  0  0  0  0  0  0  0
   39.2530   74.7520   60.9670 C   0  0  0  0  0  3  0  0  0  0  0  0
   39.3570   73.3090   61.2910 C   0  0  0  0  0  2  0  0  0  0  0  0
   40.6020   74.0470   60.9770 C   0  0  0  0  0  2  0  0  0  0  0  0
  1  2  1  0  0  0  0
  2  8  1  0  0  0  0
  2  3  2  0  0  0  0
  3 10  1  0  0  0  0
  4  3  1  0  0  0  0
  5  4  2  0  0  0  0
  6  1  2  0  0  0  0
  6  5  1  0  0  0  0
  7  1  1  0  0  0  0
  9  5  1  0  0  0  0
 10 12  1  0  0  0  0
 10 11  1  0  0  0  0
 12 11  1  0  0  0  0
M  END
>  <minimizedAffinity>
-3.37524891

$$$$

 OpenBabel03212520243D

 12 13  0  0  0  0  0  0  0  0999 V2000
   38.5410   74.5930   60.9760 C   0  0  0  0  0  0  0  0  0  0  0  0
   39.3190   73.4520   61.2780 C   0  0  0  0  0  0  0  0  0  0  0  0
   40.6530   73.4570   60.8700 C   0  0  0  0  0  0  0  0  0  0  0  0
   41.1300   74.5490   60.2100 N   0  0  0  0  0  0  0  0  0  0  0  0
   40.3570   75.6310   59.9330 C   0  0  0  0  0  0  0  0  0  0  0  0
   39.0620   75.6510   60.3180 N   0  0  0  0  0  0  0  0  0  0  0  0
   37.4910   74.5960   61.2930 H   0  0  0  0  0  0  0  0  0  0  0  0
   38.8800   72.6180   61.8050 H   0  0  0  0  0  0  0  0  0  0  0  0
   40.8370   76.4380   59.4070 H   0  0  0  0  0  0  0  0  0  0  0  0
   41.5090   72.2890   61.1620 C   0  0  0  0  0  3  0  0  0  0  0  0
   42.9880   72.3710   61.2100 C   0  0  0  0  0  2  0  0  0  0  0  0
   42.2460   72.3750   62.4920 C   0  0  0  0  0  2  0  0  0  0  0  0
  1  2  1  0  0  0  0
  1  7  1  0  0  0  0
  2  8  1  0  0  0  0
  3 10  1  0  0  0  0
  3  2  2  0  0  0  0
  4  3  1  0  0  0  0
  5  4  2  0  0  0  0
  5  6  1  0  0  0  0
  6  1  2  0  0  0  0
  9  5  1  0  0  0  0
 10 11  1  0  0  0  0
 10 12  1  0  0  0  0
 11 12  1  0  0  0  0
M  END
>  <minimizedAffinity>
-3.14069796

$$$$

 OpenBabel03212520243D

 12 13  0  0  0  0  0  0  0  0999 V2000
   42.5690   69.3160   60.8590 C   0  0  0  0  0  0  0  0  0  0  0  0
   41.8150   68.1190   60.8460 C   0  0  0  0  0  0  0  0  0  0  0  0
   41.7730   67.3740   62.0250 C   0  0  0  0  0  0  0  0  0  0  0  0
   42.4510   67.8350   63.1130 N   0  0  0  0  0  0  0  0  0  0  0  0
   43.1680   68.9890   63.0940 C   0  0  0  0  0  0  0  0  0  0  0  0
   43.2250   69.7280   61.9640 N   0  0  0  0  0  0  0  0  0  0  0  0
   42.6070   69.9060   59.9350 H   0  0  0  0  0  0  0  0  0  0  0  0
   41.3000   67.8100   59.9500 H   0  0  0  0  0  0  0  0  0  0  0  0
   43.6650   69.2570   64.0100 H   0  0  0  0  0  0  0  0  0  0  0  0
   40.9990   66.1170   62.0650 C   0  0  0  0  0  3  0  0  0  0  0  0
   40.6020   65.4610   63.3330 C   0  0  0  0  0  2  0  0  0  0  0  0
   39.5890   66.2720   62.6190 C   0  0  0  0  0  2  0  0  0  0  0  0
  1  6  1  0  0  0  0
  2  1  2  0  0  0  0
  2  3  1  0  0  0  0
  3 10  1  0  0  0  0
  3  4  2  0  0  0  0
  5  4  1  0  0  0  0
  5  9  1  0  0  0  0
  6  5  2  0  0  0  0
  7  1  1  0  0  0  0
  8  2  1  0  0  0  0
 10 12  1  0  0  0  0
 10 11  1  0  0  0  0
 12 11  1  0  0  0  0
M  END
>  <minimizedAffinity>
-3.11497879

$$$$

 OpenBabel03212520243D

 12 13  0  0  0  0  0  0  0  0999 V2000
   40.8510   74.4480   59.5650 C   0  0  0  0  0  0  0  0  0  0  0  0
   41.7320   73.7840   60.4500 C   0  0  0  0  0  0  0  0  0  0  0  0
   41.1650   73.0570   61.4970 C   0  0  0  0  0  0  0  0  0  0  0  0
   39.8070   73.0270   61.6090 N   0  0  0  0  0  0  0  0  0  0  0  0
   38.9860   73.6760   60.7440 C   0  0  0  0  0  0  0  0  0  0  0  0
   39.5120   74.3860   59.7220 N   0  0  0  0  0  0  0  0  0  0  0  0
   41.2910   75.0220   58.7400 H   0  0  0  0  0  0  0  0  0  0  0  0
   42.8000   73.8490   60.3050 H   0  0  0  0  0  0  0  0  0  0  0  0
   37.9300   73.5830   60.9270 H   0  0  0  0  0  0  0  0  0  0  0  0
   42.0410   72.3450   62.4480 C   0  0  0  0  0  3  0  0  0  0  0  0
   41.6790   71.0390   63.0480 C   0  0  0  0  0  2  0  0  0  0  0  0
   42.6220   71.0460   61.9060 C   0  0  0  0  0  2  0  0  0  0  0  0
  1  6  2  0  0  0  0
  1  2  1  0  0  0  0
  2  3  2  0  0  0  0
  3  4  1  0  0  0  0
  3 10  1  0  0  0  0
  5  9  1  0  0  0  0
  5  4  2  0  0  0  0
  6  5  1  0  0  0  0
  7  1  1  0  0  0  0
  8  2  1  0  0  0  0
 10 11  1  0  0  0  0
 12 10  1  0  0  0  0
 12 11  1  0  0  0  0
M  END
>  <minimizedAffinity>
-3.08510256

$$$$

 OpenBabel03212520243D

 12 13  0  0  0  0  0  0  0  0999 V2000
   43.1270   73.1830   60.4960 C   0  0  0  0  0  0  0  0  0  0  0  0
   41.9800   73.8590   60.0180 C   0  0  0  0  0  0  0  0  0  0  0  0
   40.8200   73.7820   60.7900 C   0  0  0  0  0  0  0  0  0  0  0  0
   40.8550   73.0680   61.9500 N   0  0  0  0  0  0  0  0  0  0  0  0
   41.9720   72.4270   62.3820 C   0  0  0  0  0  0  0  0  0  0  0  0
   43.1070   72.4870   61.6520 N   0  0  0  0  0  0  0  0  0  0  0  0
   44.0420   73.2390   59.8940 H   0  0  0  0  0  0  0  0  0  0  0  0
   42.0200   74.4090   59.0900 H   0  0  0  0  0  0  0  0  0  0  0  0
   41.8850   71.8930   63.3120 H   0  0  0  0  0  0  0  0  0  0  0  0
   39.5960   74.4710   60.3360 C   0  0  0  0  0  3  0  0  0  0  0  0
   38.3780   74.5760   61.1740 C   0  0  0  0  0  2  0  0  0  0  0  0
   39.2800   75.7490   61.1030 C   0  0  0  0  0  2  0  0  0  0  0  0
  1  6  1  0  0  0  0
  2  1  2  0  0  0  0
  2  3  1  0  0  0  0
  3  4  2  0  0  0  0
  4  5  1  0  0  0  0
  5  9  1  0  0  0  0
  6  5  2  0  0  0  0
  7  1  1  0  0  0  0
  8  2  1  0  0  0  0
 10  3  1  0  0  0  0
 10 12  1  0  0  0  0
 10 11  1  0  0  0  0
 12 11  1  0  0  0  0
M  END
>  <minimizedAffinity>
-3.08227062

$$$$

 OpenBabel03212520243D

 12 13  0  0  0  0  0  0  0  0999 V2000
   42.4280   70.2700   62.9750 C   0  0  0  0  0  0  0  0  0  0  0  0
   41.5940   69.2460   63.4800 C   0  0  0  0  0  0  0  0  0  0  0  0
   41.3020   68.1780   62.6320 C   0  0  0  0  0  0  0  0  0  0  0  0
   41.8300   68.1780   61.3760 N   0  0  0  0  0  0  0  0  0  0  0  0
   42.6280   69.1780   60.9180 C   0  0  0  0  0  0  0  0  0  0  0  0
   42.9260   70.2230   61.7210 N   0  0  0  0  0  0  0  0  0  0  0  0
   42.6620   71.1140   63.6360 H   0  0  0  0  0  0  0  0  0  0  0  0
   41.2080   69.3060   64.4860 H   0  0  0  0  0  0  0  0  0  0  0  0
   42.9900   69.0750   59.9100 H   0  0  0  0  0  0  0  0  0  0  0  0
   40.4360   67.0820   63.1110 C   0  0  0  0  0  3  0  0  0  0  0  0
   39.9490   66.0000   62.2250 C   0  0  0  0  0  2  0  0  0  0  0  0
   41.1040   65.7140   63.1060 C   0  0  0  0  0  2  0  0  0  0  0  0
  1  2  1  0  0  0  0
  1  7  1  0  0  0  0
  2  8  1  0  0  0  0
  3 10  1  0  0  0  0
  3  2  2  0  0  0  0
  4  3  1  0  0  0  0
  5  4  2  0  0  0  0
  5  6  1  0  0  0  0
  6  1  2  0  0  0  0
  9  5  1  0  0  0  0
 11 12  1  0  0  0  0
 11 10  1  0  0  0  0
 12 10  1  0  0  0  0
M  END
>  <minimizedAffinity>
-3.06861448

$$$$

 OpenBabel03212520243D

 12 13  0  0  0  0  0  0  0  0999 V2000
   42.4470   70.4970   60.9360 C   0  0  0  0  0  0  0  0  0  0  0  0
   41.8320   71.7390   60.6570 C   0  0  0  0  0  0  0  0  0  0  0  0
   41.1840   72.3870   61.7100 C   0  0  0  0  0  0  0  0  0  0  0  0
   41.1800   71.7940   62.9370 N   0  0  0  0  0  0  0  0  0  0  0  0
   41.7800   70.5990   63.1740 C   0  0  0  0  0  0  0  0  0  0  0  0
   42.4130   69.9530   62.1710 N   0  0  0  0  0  0  0  0  0  0  0  0
   42.9580   69.9820   60.1130 H   0  0  0  0  0  0  0  0  0  0  0  0
   41.8710   72.1550   59.6620 H   0  0  0  0  0  0  0  0  0  0  0  0
   41.7150   70.2240   64.1800 H   0  0  0  0  0  0  0  0  0  0  0  0
   40.5260   73.6870   61.4710 C   0  0  0  0  0  3  0  0  0  0  0  0
   40.0380   74.1050   60.1360 C   0  0  0  0  0  2  0  0  0  0  0  0
   39.0510   73.5810   61.1080 C   0  0  0  0  0  2  0  0  0  0  0  0
  1  6  1  0  0  0  0
  2  1  2  0  0  0  0
  2  3  1  0  0  0  0
  3  4  2  0  0  0  0
  4  5  1  0  0  0  0
  5  9  1  0  0  0  0
  6  5  2  0  0  0  0
  7  1  1  0  0  0  0
  8  2  1  0  0  0  0
 10  3  1  0  0  0  0
 11 12  1  0  0  0  0
 11 10  1  0  0  0  0
 12 10  1  0  0  0  0
M  END
>  <minimizedAffinity>
-3.06354594

$$$$
