
 OpenBabel03212521073D

 30 33  0  0  0  0  0  0  0  0999 V2000
   41.8250   84.2370   61.5580 C   0  0  0  0  0  0  0  0  0  0  0  0
   41.4870   83.9190   62.8650 C   0  0  0  0  0  0  0  0  0  0  0  0
   40.2150   83.4930   63.2110 C   0  0  0  0  0  0  0  0  0  0  0  0
   39.2470   83.3810   62.2160 C   0  0  0  0  0  0  0  0  0  0  0  0
   39.5780   83.6980   60.8980 C   0  0  0  0  0  0  0  0  0  0  0  0
   40.8450   84.1190   60.5740 C   0  0  0  0  0  0  0  0  0  0  0  0
   42.2050   83.9890   63.6850 H   0  0  0  0  0  0  0  0  0  0  0  0
   39.9280   83.2400   64.2230 H   0  0  0  0  0  0  0  0  0  0  0  0
   38.2600   83.0510   62.4810 H   0  0  0  0  0  0  0  0  0  0  0  0
   38.8340   83.6150   60.1110 H   0  0  0  0  0  0  0  0  0  0  0  0
   45.3350   84.1770   60.5770 C   0  0  0  0  0  0  0  0  0  0  0  0
   45.7260   85.5000   60.6780 C   0  0  0  0  0  0  0  0  0  0  0  0
   44.7530   86.4410   61.0970 C   0  0  0  0  0  0  0  0  0  0  0  0
   43.5020   85.9940   61.3730 N   0  0  0  0  0  0  0  0  0  0  0  0
   43.1670   84.6750   61.2560 C   0  0  0  0  0  0  0  0  0  0  0  0
   44.0830   83.7990   60.8630 N   0  0  0  0  0  0  0  0  0  0  0  0
   46.1150   83.5190   60.2560 H   0  0  0  0  0  0  0  0  0  0  0  0
   46.7310   85.8460   60.4540 H   0  0  0  0  0  0  0  0  0  0  0  0
   45.0500   87.4690   61.1770 H   0  0  0  0  0  0  0  0  0  0  0  0
   41.1450   84.4370   59.1960 C   0  0  0  0  0  0  0  0  0  0  0  0
   40.7180   85.7150   58.8510 C   0  0  0  0  0  0  0  0  0  0  0  0
   40.9080   86.2210   57.5690 C   0  0  0  0  0  0  0  0  0  0  0  0
   41.5250   85.4170   56.6800 N   0  0  0  0  0  0  0  0  0  0  0  0
   41.9390   84.1710   57.0200 C   0  0  0  0  0  0  0  0  0  0  0  0
   41.7570   83.6770   58.2590 N   0  0  0  0  0  0  0  0  0  0  0  0
   40.2100   86.4240   59.5230 H   0  0  0  0  0  0  0  0  0  0  0  0
   40.5850   87.2100   57.2780 H   0  0  0  0  0  0  0  0  0  0  0  0
   42.6140   83.3140   56.0170 C   0  0  0  0  0  3  0  0  0  0  0  0
   44.0510   83.7160   55.6830 C   0  0  0  0  0  2  0  0  0  0  0  0
   42.9700   83.7850   54.6810 C   0  0  0  0  0  2  0  0  0  0  0  0
  1  2  1  0  0  0  0
  2  3  2  0  0  0  0
  2  7  1  0  0  0  0
  3  8  1  0  0  0  0
  4  9  1  0  0  0  0
  4  3  1  0  0  0  0
  5  4  2  0  0  0  0
  6  5  1  0  0  0  0
  6  1  2  0  0  0  0
 10  5  1  0  0  0  0
 11 12  2  0  0  0  0
 11 16  1  0  0  0  0
 12 13  1  0  0  0  0
 13 19  1  0  0  0  0
 13 14  2  0  0  0  0
 15 14  1  0  0  0  0
 15  1  1  0  0  0  0
 16 15  2  0  0  0  0
 17 11  1  0  0  0  0
 18 12  1  0  0  0  0
 20  6  1  0  0  0  0
 21 20  1  0  0  0  0
 21 26  1  0  0  0  0
 22 21  2  0  0  0  0
 23 24  2  0  0  0  0
 23 22  1  0  0  0  0
 24 25  1  0  0  0  0
 25 20  2  0  0  0  0
 27 22  1  0  0  0  0
 28 24  1  0  0  0  0
 29 28  1  0  0  0  0
 30 29  1  0  0  0  0
 30 28  1  0  0  0  0
M  END
>  <minimizedAffinity>
-5.25085592

>  <minimizedRMSD>
0.557498634

$$$$
