
 OpenBabel03212520433D

 12 13  0  0  0  0  0  0  0  0999 V2000
   39.8820   81.9190   61.0650 C   0  0  0  0  0  0  0  0  0  0  0  0
   40.1200   82.6280   59.8770 C   0  0  0  0  0  0  0  0  0  0  0  0
   39.6700   83.9490   59.8020 C   0  0  0  0  0  0  0  0  0  0  0  0
   39.0250   84.4730   60.8830 N   0  0  0  0  0  0  0  0  0  0  0  0
   38.8150   83.7660   62.0070 C   0  0  0  0  0  0  0  0  0  0  0  0
   39.2360   82.4990   62.1040 N   0  0  0  0  0  0  0  0  0  0  0  0
   40.6320   82.1950   59.0300 H   0  0  0  0  0  0  0  0  0  0  0  0
   39.8160   84.5710   58.9090 H   0  0  0  0  0  0  0  0  0  0  0  0
   38.3080   84.1550   62.8780 H   0  0  0  0  0  0  0  0  0  0  0  0
   40.3580   80.4990   61.1630 C   0  0  0  0  0  3  0  0  0  0  0  0
   41.5410   80.0440   60.4360 C   0  0  0  0  0  2  0  0  0  0  0  0
   41.7050   80.4040   61.9060 C   0  0  0  0  0  2  0  0  0  0  0  0
  1 10  1  0  0  0  0
  1  6  1  0  0  0  0
  2  1  2  0  0  0  0
  3  2  1  0  0  0  0
  3  4  2  0  0  0  0
  4  5  1  0  0  0  0
  5  6  2  0  0  0  0
  5  9  1  0  0  0  0
  7  2  1  0  0  0  0
  8  3  1  0  0  0  0
 10 12  1  0  0  0  0
 11 10  1  0  0  0  0
 11 12  1  0  0  0  0
M  END
>  <minimizedAffinity>
-3.74573278

>  <minimizedRMSD>
0.580482244

$$$$
