
 OpenBabel03212519593D

 12 13  0  0  0  0  0  0  0  0999 V2000
   38.8450   76.9530   57.9750 C   0  0  0  0  0  0  0  0  0  0  0  0
   38.0520   76.1580   57.1330 C   0  0  0  0  0  0  0  0  0  0  0  0
   37.6710   74.8860   57.6170 C   0  0  0  0  0  0  0  0  0  0  0  0
   38.0920   74.5160   58.8560 N   0  0  0  0  0  0  0  0  0  0  0  0
   38.8550   75.3140   59.6330 C   0  0  0  0  0  0  0  0  0  0  0  0
   39.2300   76.5360   59.1840 N   0  0  0  0  0  0  0  0  0  0  0  0
   39.1820   77.9540   57.6720 H   0  0  0  0  0  0  0  0  0  0  0  0
   37.7590   76.5310   56.1560 H   0  0  0  0  0  0  0  0  0  0  0  0
   37.0600   74.2560   56.9850 H   0  0  0  0  0  0  0  0  0  0  0  0
   39.2700   74.8240   60.9770 C   0  0  0  0  0  3  0  0  0  0  0  0
   40.5740   74.0630   60.9700 C   0  0  0  0  0  2  0  0  0  0  0  0
   39.2940   73.3580   61.2620 C   0  0  0  0  0  2  0  0  0  0  0  0
  1  6  1  0  0  0  0
  2  3  1  0  0  0  0
  2  1  2  0  0  0  0
  3  4  2  0  0  0  0
  4  5  1  0  0  0  0
  5 10  1  0  0  0  0
  6  5  2  0  0  0  0
  7  1  1  0  0  0  0
  8  2  1  0  0  0  0
  9  3  1  0  0  0  0
 10 12  1  0  0  0  0
 11 10  1  0  0  0  0
 11 12  1  0  0  0  0
M  END
>  <minimizedAffinity>
-3.40492749

$$$$

 OpenBabel03212519593D

 12 13  0  0  0  0  0  0  0  0999 V2000
   37.6990   75.0200   57.6370 C   0  0  0  0  0  0  0  0  0  0  0  0
   38.0950   76.2850   57.1730 C   0  0  0  0  0  0  0  0  0  0  0  0
   38.9140   77.0580   58.0280 C   0  0  0  0  0  0  0  0  0  0  0  0
   39.2650   76.5330   59.2320 N   0  0  0  0  0  0  0  0  0  0  0  0
   38.8610   75.3110   59.6370 C   0  0  0  0  0  0  0  0  0  0  0  0
   38.0750   74.5570   58.8320 N   0  0  0  0  0  0  0  0  0  0  0  0
   37.0620   74.3600   57.0330 H   0  0  0  0  0  0  0  0  0  0  0  0
   37.7690   76.6290   56.1970 H   0  0  0  0  0  0  0  0  0  0  0  0
   39.2310   78.0360   57.6910 H   0  0  0  0  0  0  0  0  0  0  0  0
   39.2940   74.8170   60.9750 C   0  0  0  0  0  3  0  0  0  0  0  0
   40.5880   74.0390   60.9440 C   0  0  0  0  0  2  0  0  0  0  0  0
   39.3040   73.3520   61.2620 C   0  0  0  0  0  2  0  0  0  0  0  0
  1  6  1  0  0  0  0
  2  1  2  0  0  0  0
  2  3  1  0  0  0  0
  3  4  2  0  0  0  0
  4  5  1  0  0  0  0
  5 10  1  0  0  0  0
  6  5  2  0  0  0  0
  7  1  1  0  0  0  0
  8  2  1  0  0  0  0
  9  3  1  0  0  0  0
 10 12  1  0  0  0  0
 11 10  1  0  0  0  0
 11 12  1  0  0  0  0
M  END
>  <minimizedAffinity>
-3.39759111

$$$$

 OpenBabel03212519593D

 12 13  0  0  0  0  0  0  0  0999 V2000
   39.5360   76.3580   60.2920 C   0  0  0  0  0  0  0  0  0  0  0  0
   39.0640   75.3800   61.1820 C   0  0  0  0  0  0  0  0  0  0  0  0
   38.2970   74.3270   60.6350 C   0  0  0  0  0  0  0  0  0  0  0  0
   38.0670   74.3250   59.2950 N   0  0  0  0  0  0  0  0  0  0  0  0
   38.5410   75.2870   58.4760 C   0  0  0  0  0  0  0  0  0  0  0  0
   39.2780   76.3050   58.9820 N   0  0  0  0  0  0  0  0  0  0  0  0
   40.1390   77.2090   60.6380 H   0  0  0  0  0  0  0  0  0  0  0  0
   39.2940   75.4570   62.2400 H   0  0  0  0  0  0  0  0  0  0  0  0
   37.9220   73.5620   61.3030 H   0  0  0  0  0  0  0  0  0  0  0  0
   38.2390   75.2040   57.0190 C   0  0  0  0  0  3  0  0  0  0  0  0
   37.3970   76.3490   56.5070 C   0  0  0  0  0  2  0  0  0  0  0  0
   36.8370   74.9690   56.5610 C   0  0  0  0  0  2  0  0  0  0  0  0
  1  7  1  0  0  0  0
  1  2  1  0  0  0  0
  2  8  1  0  0  0  0
  3  2  2  0  0  0  0
  3  9  1  0  0  0  0
  4  3  1  0  0  0  0
  5  6  1  0  0  0  0
  5  4  2  0  0  0  0
  6  1  2  0  0  0  0
 10  5  1  0  0  0  0
 11 12  1  0  0  0  0
 11 10  1  0  0  0  0
 12 10  1  0  0  0  0
M  END
>  <minimizedAffinity>
-3.21772814

$$$$

 OpenBabel03212519593D

 12 13  0  0  0  0  0  0  0  0999 V2000
   38.0910   77.1610   56.5590 C   0  0  0  0  0  0  0  0  0  0  0  0
   37.3560   76.0010   56.2630 C   0  0  0  0  0  0  0  0  0  0  0  0
   37.3910   74.9560   57.2150 C   0  0  0  0  0  0  0  0  0  0  0  0
   38.1240   75.1380   58.3450 N   0  0  0  0  0  0  0  0  0  0  0  0
   38.8160   76.2720   58.5880 C   0  0  0  0  0  0  0  0  0  0  0  0
   38.7950   77.2830   57.6870 N   0  0  0  0  0  0  0  0  0  0  0  0
   38.1150   78.0170   55.8710 H   0  0  0  0  0  0  0  0  0  0  0  0
   36.7960   75.9380   55.3360 H   0  0  0  0  0  0  0  0  0  0  0  0
   36.8320   74.0530   57.0080 H   0  0  0  0  0  0  0  0  0  0  0  0
   39.5930   76.3810   59.8550 C   0  0  0  0  0  3  0  0  0  0  0  0
   40.9240   75.6690   59.8140 C   0  0  0  0  0  2  0  0  0  0  0  0
   39.8290   75.1680   60.6920 C   0  0  0  0  0  2  0  0  0  0  0  0
  1  6  1  0  0  0  0
  2  1  2  0  0  0  0
  2  3  1  0  0  0  0
  3  4  2  0  0  0  0
  4  5  1  0  0  0  0
  5 10  1  0  0  0  0
  6  5  2  0  0  0  0
  7  1  1  0  0  0  0
  8  2  1  0  0  0  0
  9  3  1  0  0  0  0
 10 12  1  0  0  0  0
 11 10  1  0  0  0  0
 11 12  1  0  0  0  0
M  END
>  <minimizedAffinity>
-3.18028975

$$$$

 OpenBabel03212519593D

 12 13  0  0  0  0  0  0  0  0999 V2000
   40.4370   75.4360   60.0540 C   0  0  0  0  0  0  0  0  0  0  0  0
   39.0970   75.5340   60.4600 C   0  0  0  0  0  0  0  0  0  0  0  0
   38.5460   74.4240   61.1400 C   0  0  0  0  0  0  0  0  0  0  0  0
   39.3390   73.3420   61.3560 N   0  0  0  0  0  0  0  0  0  0  0  0
   40.6250   73.2900   60.9470 C   0  0  0  0  0  0  0  0  0  0  0  0
   41.1700   74.3450   60.2940 N   0  0  0  0  0  0  0  0  0  0  0  0
   40.9390   76.2550   59.5210 H   0  0  0  0  0  0  0  0  0  0  0  0
   38.5330   76.4370   60.2470 H   0  0  0  0  0  0  0  0  0  0  0  0
   37.5140   74.4780   61.4620 H   0  0  0  0  0  0  0  0  0  0  0  0
   41.4190   72.0610   61.2280 C   0  0  0  0  0  3  0  0  0  0  0  0
   42.1570   72.1030   62.5450 C   0  0  0  0  0  2  0  0  0  0  0  0
   42.9110   72.1280   61.2590 C   0  0  0  0  0  2  0  0  0  0  0  0
  1  6  2  0  0  0  0
  1  2  1  0  0  0  0
  2  3  2  0  0  0  0
  3  4  1  0  0  0  0
  3  9  1  0  0  0  0
  5 10  1  0  0  0  0
  5  4  2  0  0  0  0
  6  5  1  0  0  0  0
  7  1  1  0  0  0  0
  8  2  1  0  0  0  0
 10 12  1  0  0  0  0
 10 11  1  0  0  0  0
 12 11  1  0  0  0  0
M  END
>  <minimizedAffinity>
-3.17355657

$$$$

 OpenBabel03212519593D

 12 13  0  0  0  0  0  0  0  0999 V2000
   41.2950   67.1940   61.0310 C   0  0  0  0  0  0  0  0  0  0  0  0
   40.4420   66.5060   61.9100 C   0  0  0  0  0  0  0  0  0  0  0  0
   40.2420   67.0730   63.1890 C   0  0  0  0  0  0  0  0  0  0  0  0
   40.8790   68.2370   63.4850 N   0  0  0  0  0  0  0  0  0  0  0  0
   41.6900   68.8650   62.6080 C   0  0  0  0  0  0  0  0  0  0  0  0
   41.8950   68.3350   61.3780 N   0  0  0  0  0  0  0  0  0  0  0  0
   41.5020   66.8190   60.0200 H   0  0  0  0  0  0  0  0  0  0  0  0
   39.9730   65.5800   61.5930 H   0  0  0  0  0  0  0  0  0  0  0  0
   39.5890   66.5600   63.8830 H   0  0  0  0  0  0  0  0  0  0  0  0
   42.3470   70.1370   63.0200 C   0  0  0  0  0  3  0  0  0  0  0  0
   41.4790   71.3580   62.8290 C   0  0  0  0  0  2  0  0  0  0  0  0
   42.6980   71.1630   61.9940 C   0  0  0  0  0  2  0  0  0  0  0  0
  1  6  2  0  0  0  0
  1  2  1  0  0  0  0
  2  3  2  0  0  0  0
  3  4  1  0  0  0  0
  3  9  1  0  0  0  0
  5 10  1  0  0  0  0
  5  4  2  0  0  0  0
  6  5  1  0  0  0  0
  7  1  1  0  0  0  0
  8  2  1  0  0  0  0
 11 10  1  0  0  0  0
 12 11  1  0  0  0  0
 12 10  1  0  0  0  0
M  END
>  <minimizedAffinity>
-3.17286277

$$$$

 OpenBabel03212519593D

 12 13  0  0  0  0  0  0  0  0999 V2000
   38.5960   74.6260   61.0570 C   0  0  0  0  0  0  0  0  0  0  0  0
   39.1210   75.7270   60.3620 C   0  0  0  0  0  0  0  0  0  0  0  0
   40.4720   75.6480   59.9550 C   0  0  0  0  0  0  0  0  0  0  0  0
   41.1710   74.5220   60.2560 N   0  0  0  0  0  0  0  0  0  0  0  0
   40.6250   73.4850   60.9260 C   0  0  0  0  0  0  0  0  0  0  0  0
   39.3320   73.5440   61.3250 N   0  0  0  0  0  0  0  0  0  0  0  0
   37.5550   74.6100   61.4070 H   0  0  0  0  0  0  0  0  0  0  0  0
   38.4930   76.5900   60.1630 H   0  0  0  0  0  0  0  0  0  0  0  0
   40.8990   76.4860   59.4190 H   0  0  0  0  0  0  0  0  0  0  0  0
   41.4680   72.2900   61.2130 C   0  0  0  0  0  3  0  0  0  0  0  0
   42.2080   72.3700   62.5270 C   0  0  0  0  0  2  0  0  0  0  0  0
   42.9550   72.4160   61.2390 C   0  0  0  0  0  2  0  0  0  0  0  0
  1  6  1  0  0  0  0
  1  7  1  0  0  0  0
  2  1  2  0  0  0  0
  3  4  2  0  0  0  0
  3  2  1  0  0  0  0
  4  5  1  0  0  0  0
  5 10  1  0  0  0  0
  5  6  2  0  0  0  0
  8  2  1  0  0  0  0
  9  3  1  0  0  0  0
 10 12  1  0  0  0  0
 10 11  1  0  0  0  0
 12 11  1  0  0  0  0
M  END
>  <minimizedAffinity>
-3.16108608

$$$$

 OpenBabel03212519593D

 12 13  0  0  0  0  0  0  0  0999 V2000
   42.1520   69.4280   61.0900 C   0  0  0  0  0  0  0  0  0  0  0  0
   42.4610   70.0880   62.2900 C   0  0  0  0  0  0  0  0  0  0  0  0
   42.3200   69.3500   63.4870 C   0  0  0  0  0  0  0  0  0  0  0  0
   41.8990   68.0600   63.4030 N   0  0  0  0  0  0  0  0  0  0  0  0
   41.6130   67.4650   62.2260 C   0  0  0  0  0  0  0  0  0  0  0  0
   41.7420   68.1570   61.0680 N   0  0  0  0  0  0  0  0  0  0  0  0
   42.2370   69.9320   60.1180 H   0  0  0  0  0  0  0  0  0  0  0  0
   42.7910   71.1220   62.2680 H   0  0  0  0  0  0  0  0  0  0  0  0
   42.5520   69.8390   64.4240 H   0  0  0  0  0  0  0  0  0  0  0  0
   41.1570   66.0460   62.2300 C   0  0  0  0  0  3  0  0  0  0  0  0
   39.6680   65.8870   62.4310 C   0  0  0  0  0  2  0  0  0  0  0  0
   40.6220   65.4390   63.4850 C   0  0  0  0  0  2  0  0  0  0  0  0
  1  2  1  0  0  0  0
  2  3  2  0  0  0  0
  3  9  1  0  0  0  0
  4  3  1  0  0  0  0
  5 10  1  0  0  0  0
  5  4  2  0  0  0  0
  6  1  2  0  0  0  0
  6  5  1  0  0  0  0
  7  1  1  0  0  0  0
  8  2  1  0  0  0  0
 10 11  1  0  0  0  0
 10 12  1  0  0  0  0
 11 12  1  0  0  0  0
M  END
>  <minimizedAffinity>
-3.15741801

$$$$

 OpenBabel03212519593D

 12 13  0  0  0  0  0  0  0  0999 V2000
   41.9260   70.6870   63.1120 C   0  0  0  0  0  0  0  0  0  0  0  0
   42.8730   70.2210   62.1860 C   0  0  0  0  0  0  0  0  0  0  0  0
   43.0380   70.9710   60.9990 C   0  0  0  0  0  0  0  0  0  0  0  0
   42.2770   72.0850   60.8310 N   0  0  0  0  0  0  0  0  0  0  0  0
   41.3780   72.4970   61.7490 C   0  0  0  0  0  0  0  0  0  0  0  0
   41.2060   71.7900   62.8920 N   0  0  0  0  0  0  0  0  0  0  0  0
   41.7390   70.1610   64.0580 H   0  0  0  0  0  0  0  0  0  0  0  0
   43.4390   69.3200   62.3990 H   0  0  0  0  0  0  0  0  0  0  0  0
   43.7620   70.6300   60.2710 H   0  0  0  0  0  0  0  0  0  0  0  0
   40.5880   73.7310   61.4780 C   0  0  0  0  0  3  0  0  0  0  0  0
   39.1530   73.4610   61.0910 C   0  0  0  0  0  2  0  0  0  0  0  0
   40.1090   74.0220   60.0940 C   0  0  0  0  0  2  0  0  0  0  0  0
  1  7  1  0  0  0  0
  2  8  1  0  0  0  0
  2  1  2  0  0  0  0
  3  2  1  0  0  0  0
  4  3  2  0  0  0  0
  4  5  1  0  0  0  0
  5  6  2  0  0  0  0
  6  1  1  0  0  0  0
  9  3  1  0  0  0  0
 10  5  1  0  0  0  0
 11 10  1  0  0  0  0
 12 11  1  0  0  0  0
 12 10  1  0  0  0  0
M  END
>  <minimizedAffinity>
-3.13980603

$$$$
