
 OpenBabel03212520513D

 29 32  0  0  1  0  0  0  0  0999 V2000
   41.6700   83.8230   61.4550 C   0  0  0  0  0  0  0  0  0  0  0  0
   41.0220   84.1880   62.5920 C   0  0  0  0  0  0  0  0  0  0  0  0
   40.5480   83.2400   63.5010 C   0  0  0  0  0  0  0  0  0  0  0  0
   40.7300   81.9280   63.2570 N   0  0  0  0  0  0  0  0  0  0  0  0
   41.3780   81.5850   62.1200 C   0  0  0  0  0  0  0  0  0  0  0  0
   41.8410   82.4910   61.2330 N   0  0  0  0  0  0  0  0  0  0  0  0
   40.8870   85.2460   62.7680 H   0  0  0  0  0  0  0  0  0  0  0  0
   40.0380   83.5870   64.3910 H   0  0  0  0  0  0  0  0  0  0  0  0
   43.6490   86.4750   59.8900 C   0  0  0  0  0  0  0  0  0  0  0  0
   43.0680   86.5790   58.6360 C   0  0  0  0  0  0  0  0  0  0  0  0
   41.9900   85.7460   58.3050 C   0  0  0  0  0  0  0  0  0  0  0  0
   41.5780   84.8640   59.2740 N   0  0  0  0  0  0  0  0  0  0  0  0
   42.1690   84.7920   60.4810 C   0  0  0  0  0  0  0  0  0  0  0  0
   43.2020   85.5850   60.8100 N   0  0  0  0  0  0  0  0  0  0  0  0
   44.7230   87.3670   60.0790 N   0  0  0  0  0  0  0  0  0  0  0  0
   43.3850   87.2720   57.8660 H   0  0  0  0  0  0  0  0  0  0  0  0
   41.4950   85.7690   57.3660 H   0  0  0  0  0  0  0  0  0  0  0  0
   44.7050   88.3590   59.7520 H   0  0  0  0  0  0  0  0  0  0  0  0
   45.5770   86.9800   60.5830 H   0  0  0  0  0  0  0  0  0  0  0  0
   41.5450   80.1060   61.8860 C   0  0  1  0  0  0  0  0  0  0  0  0
   40.6490   79.1440   62.4860 C   0  0  0  0  0  0  0  0  0  0  0  0
   40.3590   79.5340   61.0800 C   0  0  2  0  0  0  0  0  0  0  0  0
   42.5480   79.7770   61.5410 H   0  0  0  0  0  0  0  0  0  0  0  0
   39.8680   79.4300   63.2380 H   0  0  0  0  0  0  0  0  0  0  0  0
   40.9830   78.1050   62.6510 H   0  0  0  0  0  0  0  0  0  0  0  0
   39.4830   80.1710   60.9020 H   0  0  0  0  0  0  0  0  0  0  0  0
   40.7420   78.6840   59.9270 C   0  0  0  0  0  3  0  0  0  0  0  0
   39.6800   77.6410   59.5380 C   0  0  0  0  0  2  0  0  0  0  0  0
   40.1670   78.7340   58.5870 C   0  0  0  0  0  2  0  0  0  0  0  0
  1  2  1  0  0  0  0
  2  7  1  0  0  0  0
  2  3  2  0  0  0  0
  3  8  1  0  0  0  0
  4  3  1  0  0  0  0
  5  4  2  0  0  0  0
  6  1  2  0  0  0  0
  6  5  1  0  0  0  0
  9 15  1  0  0  0  0
  9 14  1  0  0  0  0
 10  9  2  0  0  0  0
 11 10  1  0  0  0  0
 11 12  2  0  0  0  0
 12 13  1  0  0  0  0
 13 14  2  0  0  0  0
 13  1  1  0  0  0  0
 15 19  1  0  0  0  0
 16 10  1  0  0  0  0
 17 11  1  0  0  0  0
 18 15  1  0  0  0  0
 20 23  1  6  0  0  0
 20  5  1  0  0  0  0
 20 21  1  0  0  0  0
 21 25  1  0  0  0  0
 21 24  1  0  0  0  0
 22 26  1  6  0  0  0
 22 20  1  0  0  0  0
 22 21  1  0  0  0  0
 27 22  1  0  0  0  0
 28 27  1  0  0  0  0
 29 28  1  0  0  0  0
 29 27  1  0  0  0  0
M  END
>  <minimizedAffinity>
-5.16172504

>  <minimizedRMSD>
0.79115063

$$$$
