
 OpenBabel03212520133D

 25 27  0  0  0  0  0  0  0  0999 V2000
   40.2570   81.9010   58.4170 Cl  0  0  0  0  0  0  0  0  0  0  0  0
   40.1730   80.2990   59.1500 C   0  0  0  0  0  0  0  0  0  0  0  0
   40.5280   80.0620   60.4530 C   0  0  0  0  0  0  0  0  0  0  0  0
   40.4280   78.7540   60.8720 C   0  0  0  0  0  0  0  0  0  0  0  0
   40.0030   77.6850   60.0870 C   0  0  0  0  0  0  0  0  0  0  0  0
   39.6600   77.9820   58.7870 C   0  0  0  0  0  0  0  0  0  0  0  0
   39.1200   76.6620   57.7690 Cl  0  0  0  0  0  0  0  0  0  0  0  0
   39.7460   79.3000   58.3190 C   0  0  0  0  0  0  0  0  0  0  0  0
   40.6910   78.4960   61.8880 H   0  0  0  0  0  0  0  0  0  0  0  0
   39.9520   76.6870   60.4850 H   0  0  0  0  0  0  0  0  0  0  0  0
   42.2670   81.5130   61.5940 C   0  0  0  0  0  0  0  0  0  0  0  0
   40.9630   81.1410   61.2690 C   0  0  0  0  0  0  0  0  0  0  0  0
   39.9310   81.9300   61.8150 C   0  0  0  0  0  0  0  0  0  0  0  0
   40.2790   82.9810   62.6070 N   0  0  0  0  0  0  0  0  0  0  0  0
   41.5540   83.3010   62.8920 C   0  0  0  0  0  0  0  0  0  0  0  0
   42.5480   82.5580   62.3780 N   0  0  0  0  0  0  0  0  0  0  0  0
   43.0340   80.8790   61.1520 H   0  0  0  0  0  0  0  0  0  0  0  0
   38.8920   81.7480   61.6420 H   0  0  0  0  0  0  0  0  0  0  0  0
   41.7420   84.4800   63.7720 C   0  0  0  0  0  0  0  0  0  0  0  0
   40.5560   85.1030   64.0670 F   0  0  0  0  0  0  0  0  0  0  0  0
   42.3150   84.0720   64.9690 F   0  0  0  0  0  0  0  0  0  0  0  0
   42.5250   85.4400   63.1610 F   0  0  0  0  0  0  0  0  0  0  0  0
   39.3060   79.3950   56.9020 C   0  0  0  0  0  0  0  0  0  0  0  0
   39.5360   80.5840   56.0640 C   0  0  0  0  0  0  0  0  0  0  0  0
   40.3490   79.3210   55.8120 C   0  0  0  0  0  0  0  0  0  0  0  0
  1  2  1  0  0  0  0
  2  3  1  0  0  0  0
  3  4  2  0  0  0  0
  3 12  1  0  0  0  0
  4  9  1  0  0  0  0
  5 10  1  0  0  0  0
  5  4  1  0  0  0  0
  6  5  2  0  0  0  0
  7  6  1  0  0  0  0
  8  6  1  0  0  0  0
  8  2  2  0  0  0  0
 11 16  1  0  0  0  0
 12 11  2  0  0  0  0
 12 13  1  0  0  0  0
 13 14  2  0  0  0  0
 14 15  1  0  0  0  0
 15 19  1  0  0  0  0
 16 15  2  0  0  0  0
 17 11  1  0  0  0  0
 18 13  1  0  0  0  0
 19 20  1  0  0  0  0
 19 21  1  0  0  0  0
 22 19  1  0  0  0  0
 23  8  1  0  0  0  0
 24 23  1  0  0  0  0
 25 24  1  0  0  0  0
 25 23  1  0  0  0  0
M  END
>  <minimizedAffinity>
-5.26693153

>  <minimizedRMSD>
2.60274196

$$$$
