
 OpenBabel03212521063D

 30 33  0  0  0  0  0  0  0  0999 V2000
   41.8220   84.2370   61.5590 C   0  0  0  0  0  0  0  0  0  0  0  0
   41.4830   83.9190   62.8660 C   0  0  0  0  0  0  0  0  0  0  0  0
   40.2100   83.4930   63.2100 C   0  0  0  0  0  0  0  0  0  0  0  0
   39.2430   83.3830   62.2160 C   0  0  0  0  0  0  0  0  0  0  0  0
   39.5740   83.7000   60.8970 C   0  0  0  0  0  0  0  0  0  0  0  0
   40.8420   84.1200   60.5750 C   0  0  0  0  0  0  0  0  0  0  0  0
   42.2000   83.9870   63.6850 H   0  0  0  0  0  0  0  0  0  0  0  0
   39.9220   83.2410   64.2230 H   0  0  0  0  0  0  0  0  0  0  0  0
   38.2550   83.0540   62.4800 H   0  0  0  0  0  0  0  0  0  0  0  0
   38.8300   83.6180   60.1100 H   0  0  0  0  0  0  0  0  0  0  0  0
   45.3330   84.1740   60.5810 C   0  0  0  0  0  0  0  0  0  0  0  0
   45.7240   85.4970   60.6810 C   0  0  0  0  0  0  0  0  0  0  0  0
   44.7510   86.4390   61.0980 C   0  0  0  0  0  0  0  0  0  0  0  0
   43.4990   85.9930   61.3730 N   0  0  0  0  0  0  0  0  0  0  0  0
   43.1640   84.6740   61.2580 C   0  0  0  0  0  0  0  0  0  0  0  0
   44.0800   83.7970   60.8660 N   0  0  0  0  0  0  0  0  0  0  0  0
   46.1130   83.5160   60.2620 H   0  0  0  0  0  0  0  0  0  0  0  0
   46.7290   85.8420   60.4580 H   0  0  0  0  0  0  0  0  0  0  0  0
   45.0480   87.4670   61.1770 H   0  0  0  0  0  0  0  0  0  0  0  0
   41.1430   84.4390   59.1970 C   0  0  0  0  0  0  0  0  0  0  0  0
   40.7120   85.7150   58.8510 C   0  0  0  0  0  0  0  0  0  0  0  0
   40.9030   86.2210   57.5690 C   0  0  0  0  0  0  0  0  0  0  0  0
   41.5230   85.4190   56.6810 N   0  0  0  0  0  0  0  0  0  0  0  0
   41.9410   84.1740   57.0220 C   0  0  0  0  0  0  0  0  0  0  0  0
   41.7580   83.6800   58.2610 N   0  0  0  0  0  0  0  0  0  0  0  0
   40.2010   86.4230   59.5220 H   0  0  0  0  0  0  0  0  0  0  0  0
   40.5780   87.2090   57.2770 H   0  0  0  0  0  0  0  0  0  0  0  0
   42.6190   83.3190   56.0200 C   0  0  0  0  0  3  0  0  0  0  0  0
   44.0550   83.7250   55.6880 C   0  0  0  0  0  2  0  0  0  0  0  0
   42.9740   83.7910   54.6840 C   0  0  0  0  0  2  0  0  0  0  0  0
  1  2  1  0  0  0  0
  2  3  2  0  0  0  0
  2  7  1  0  0  0  0
  3  8  1  0  0  0  0
  4  9  1  0  0  0  0
  4  3  1  0  0  0  0
  5  4  2  0  0  0  0
  6  5  1  0  0  0  0
  6  1  2  0  0  0  0
 10  5  1  0  0  0  0
 11 12  2  0  0  0  0
 11 16  1  0  0  0  0
 12 13  1  0  0  0  0
 13 19  1  0  0  0  0
 13 14  2  0  0  0  0
 15 14  1  0  0  0  0
 15  1  1  0  0  0  0
 16 15  2  0  0  0  0
 17 11  1  0  0  0  0
 18 12  1  0  0  0  0
 20  6  1  0  0  0  0
 21 20  1  0  0  0  0
 21 26  1  0  0  0  0
 22 21  2  0  0  0  0
 23 24  2  0  0  0  0
 23 22  1  0  0  0  0
 24 25  1  0  0  0  0
 25 20  2  0  0  0  0
 27 22  1  0  0  0  0
 28 24  1  0  0  0  0
 29 28  1  0  0  0  0
 30 29  1  0  0  0  0
 30 28  1  0  0  0  0
M  END
>  <minimizedAffinity>
-5.25036907

>  <minimizedRMSD>
0.234787405

$$$$
