
 OpenBabel03212520443D

 12 13  0  0  0  0  0  0  0  0999 V2000
   39.8830   81.9320   60.9420 C   0  0  0  0  0  0  0  0  0  0  0  0
   40.1120   82.6830   59.7780 C   0  0  0  0  0  0  0  0  0  0  0  0
   39.6680   84.0080   59.7570 C   0  0  0  0  0  0  0  0  0  0  0  0
   39.0400   84.4960   60.8640 N   0  0  0  0  0  0  0  0  0  0  0  0
   38.8380   83.7490   61.9640 C   0  0  0  0  0  0  0  0  0  0  0  0
   39.2530   82.4770   62.0090 N   0  0  0  0  0  0  0  0  0  0  0  0
   40.6110   82.2780   58.9100 H   0  0  0  0  0  0  0  0  0  0  0  0
   39.8080   84.6610   58.8860 H   0  0  0  0  0  0  0  0  0  0  0  0
   38.3440   84.1080   62.8550 H   0  0  0  0  0  0  0  0  0  0  0  0
   40.3520   80.5070   60.9830 C   0  0  0  0  0  3  0  0  0  0  0  0
   41.6480   80.1190   60.4290 C   0  0  0  0  0  2  0  0  0  0  0  0
   41.5540   80.3330   61.9320 C   0  0  0  0  0  2  0  0  0  0  0  0
  1 10  1  0  0  0  0
  1  6  1  0  0  0  0
  2  1  2  0  0  0  0
  3  2  1  0  0  0  0
  3  4  2  0  0  0  0
  4  5  1  0  0  0  0
  5  6  2  0  0  0  0
  5  9  1  0  0  0  0
  7  2  1  0  0  0  0
  8  3  1  0  0  0  0
 10 12  1  0  0  0  0
 11 10  1  0  0  0  0
 11 12  1  0  0  0  0
M  END
>  <minimizedAffinity>
-3.74446273

>  <minimizedRMSD>
0.32483229

$$$$
