
 OpenBabel03212520533D

 19 21  0  0  0  0  0  0  0  0999 V2000
   40.6330   82.4760   59.4240 C   0  0  0  0  0  0  0  0  0  0  0  0
   39.9730   83.6590   59.7920 C   0  0  0  0  0  0  0  0  0  0  0  0
   40.1950   84.1790   61.0240 C   0  0  0  0  0  0  0  0  0  0  0  0
   41.0810   83.5190   61.8940 C   0  0  0  0  0  0  0  0  0  0  0  0
   41.6330   82.0610   60.8940 S   0  0  0  0  0  0  0  0  0  0  0  0
   39.2980   84.1480   59.1090 H   0  0  0  0  0  0  0  0  0  0  0  0
   39.7660   85.0730   61.4450 H   0  0  0  0  0  0  0  0  0  0  0  0
   41.1070   81.6910   55.8950 C   0  0  0  0  0  0  0  0  0  0  0  0
   40.2310   80.5790   55.6920 C   0  0  0  0  0  0  0  0  0  0  0  0
   39.4770   80.1080   56.7990 C   0  0  0  0  0  0  0  0  0  0  0  0
   39.6500   80.7590   57.9720 N   0  0  0  0  0  0  0  0  0  0  0  0
   40.4850   81.8020   58.1230 C   0  0  0  0  0  0  0  0  0  0  0  0
   41.2030   82.2650   57.1070 N   0  0  0  0  0  0  0  0  0  0  0  0
   41.6880   82.0640   55.0690 H   0  0  0  0  0  0  0  0  0  0  0  0
   40.1630   80.1290   54.7190 H   0  0  0  0  0  0  0  0  0  0  0  0
   38.8160   79.2760   56.6620 H   0  0  0  0  0  0  0  0  0  0  0  0
   41.5500   83.7580   63.2140 C   0  0  0  0  0  3  0  0  0  0  0  0
   41.0870   84.9100   64.0570 C   0  0  0  0  0  2  0  0  0  0  0  0
   40.5420   83.5140   64.3450 C   0  0  0  0  0  2  0  0  0  0  0  0
  1  2  2  0  0  0  0
  1  5  1  0  0  0  0
  2  3  1  0  0  0  0
  3  7  1  0  0  0  0
  3  4  2  0  0  0  0
  4 17  1  0  0  0  0
  5  4  1  0  0  0  0
  6  2  1  0  0  0  0
  8 13  1  0  0  0  0
  9  8  2  0  0  0  0
  9 10  1  0  0  0  0
 10 11  2  0  0  0  0
 11 12  1  0  0  0  0
 12  1  1  0  0  0  0
 13 12  2  0  0  0  0
 14  8  1  0  0  0  0
 15  9  1  0  0  0  0
 16 10  1  0  0  0  0
 17 18  1  0  0  0  0
 17 19  1  0  0  0  0
 18 19  1  0  0  0  0
M  END
>  <minimizedAffinity>
-3.88278961

>  <minimizedRMSD>
6.23041105

$$$$
