
 OpenBabel03212521043D

 22 24  0  0  0  0  0  0  0  0999 V2000
   40.5070   73.3290   60.9860 C   0  0  0  0  0  0  0  0  0  0  0  0
   39.1650   73.5430   61.2480 C   0  0  0  0  0  0  0  0  0  0  0  0
   38.5230   74.6870   60.8320 C   0  0  0  0  0  0  0  0  0  0  0  0
   39.2190   75.6650   60.1330 C   0  0  0  0  0  0  0  0  0  0  0  0
   40.5670   75.4520   59.8700 C   0  0  0  0  0  0  0  0  0  0  0  0
   41.2040   74.3020   60.2890 C   0  0  0  0  0  0  0  0  0  0  0  0
   38.6250   72.7770   61.7950 H   0  0  0  0  0  0  0  0  0  0  0  0
   37.4590   74.8070   61.0660 H   0  0  0  0  0  0  0  0  0  0  0  0
   38.6940   76.5540   59.8170 H   0  0  0  0  0  0  0  0  0  0  0  0
   41.0360   76.2450   59.3290 H   0  0  0  0  0  0  0  0  0  0  0  0
   41.9250   70.7700   63.1870 C   0  0  0  0  0  0  0  0  0  0  0  0
   42.3660   69.7960   62.2920 C   0  0  0  0  0  0  0  0  0  0  0  0
   42.1700   70.0290   60.9290 C   0  0  0  0  0  0  0  0  0  0  0  0
   41.5650   71.1820   60.5440 N   0  0  0  0  0  0  0  0  0  0  0  0
   41.1500   72.1080   61.4420 C   0  0  0  0  0  0  0  0  0  0  0  0
   41.3340   71.8900   62.7390 N   0  0  0  0  0  0  0  0  0  0  0  0
   42.1110   70.5170   64.2060 H   0  0  0  0  0  0  0  0  0  0  0  0
   42.8480   68.8680   62.5580 H   0  0  0  0  0  0  0  0  0  0  0  0
   42.4930   69.3050   60.1900 H   0  0  0  0  0  0  0  0  0  0  0  0
   42.6340   74.1380   59.9780 C   0  0  0  0  0  3  0  0  0  0  0  0
   42.9440   73.9540   58.5040 C   0  0  0  0  0  2  0  0  0  0  0  0
   43.4140   75.1700   59.2900 C   0  0  0  0  0  2  0  0  0  0  0  0
  1  2  1  0  0  0  0
  1 15  1  0  0  0  0
  2  7  1  0  0  0  0
  3  8  1  0  0  0  0
  3  2  2  0  0  0  0
  4  3  1  0  0  0  0
  5  4  2  0  0  0  0
  5  6  1  0  0  0  0
  6  1  2  0  0  0  0
  9  4  1  0  0  0  0
 10  5  1  0  0  0  0
 11 17  1  0  0  0  0
 12 18  1  0  0  0  0
 12 11  2  0  0  0  0
 13 12  1  0  0  0  0
 14 13  2  0  0  0  0
 14 15  1  0  0  0  0
 15 16  2  0  0  0  0
 16 11  1  0  0  0  0
 19 13  1  0  0  0  0
 20  6  1  0  0  0  0
 21 22  1  0  0  0  0
 21 20  1  0  0  0  0
 22 20  1  0  0  0  0
M  END
>  <minimizedAffinity>
-4.66058922

$$$$

 OpenBabel03212521043D

 22 24  0  0  0  0  0  0  0  0999 V2000
   39.1270   75.4100   58.6960 C   0  0  0  0  0  0  0  0  0  0  0  0
   39.2200   76.1630   59.8530 C   0  0  0  0  0  0  0  0  0  0  0  0
   39.5420   75.5900   61.0620 C   0  0  0  0  0  0  0  0  0  0  0  0
   39.7820   74.2240   61.1470 C   0  0  0  0  0  0  0  0  0  0  0  0
   39.6880   73.4670   59.9850 C   0  0  0  0  0  0  0  0  0  0  0  0
   39.3660   74.0490   58.7760 C   0  0  0  0  0  0  0  0  0  0  0  0
   39.0320   77.2300   59.7830 H   0  0  0  0  0  0  0  0  0  0  0  0
   39.6020   76.2310   61.9490 H   0  0  0  0  0  0  0  0  0  0  0  0
   40.0330   73.7960   62.1060 H   0  0  0  0  0  0  0  0  0  0  0  0
   39.8860   72.4260   60.1270 H   0  0  0  0  0  0  0  0  0  0  0  0
   39.4470   77.1620   55.4970 C   0  0  0  0  0  0  0  0  0  0  0  0
   38.1260   77.2670   55.0630 C   0  0  0  0  0  0  0  0  0  0  0  0
   37.1280   76.7310   55.8810 C   0  0  0  0  0  0  0  0  0  0  0  0
   37.4900   76.1370   57.0480 N   0  0  0  0  0  0  0  0  0  0  0  0
   38.7850   76.0530   57.4370 C   0  0  0  0  0  0  0  0  0  0  0  0
   39.7360   76.5630   56.6630 N   0  0  0  0  0  0  0  0  0  0  0  0
   40.1460   77.5950   54.8170 H   0  0  0  0  0  0  0  0  0  0  0  0
   37.7990   77.7290   54.1450 H   0  0  0  0  0  0  0  0  0  0  0  0
   36.0860   76.7840   55.5920 H   0  0  0  0  0  0  0  0  0  0  0  0
   39.2830   73.1900   57.5820 C   0  0  0  0  0  3  0  0  0  0  0  0
   39.2630   71.7010   57.8750 C   0  0  0  0  0  2  0  0  0  0  0  0
   38.0810   72.4240   57.2450 C   0  0  0  0  0  2  0  0  0  0  0  0
  1  6  2  0  0  0  0
  1  2  1  0  0  0  0
  2  3  2  0  0  0  0
  3  4  1  0  0  0  0
  3  8  1  0  0  0  0
  4  9  1  0  0  0  0
  5 10  1  0  0  0  0
  5  4  2  0  0  0  0
  6  5  1  0  0  0  0
  7  2  1  0  0  0  0
 11 16  1  0  0  0  0
 12 11  2  0  0  0  0
 12 13  1  0  0  0  0
 13 14  2  0  0  0  0
 14 15  1  0  0  0  0
 15  1  1  0  0  0  0
 16 15  2  0  0  0  0
 17 11  1  0  0  0  0
 18 12  1  0  0  0  0
 19 13  1  0  0  0  0
 20 21  1  0  0  0  0
 20  6  1  0  0  0  0
 22 20  1  0  0  0  0
 22 21  1  0  0  0  0
M  END
>  <minimizedAffinity>
-4.51815367

$$$$

 OpenBabel03212521043D

 22 24  0  0  0  0  0  0  0  0999 V2000
   39.7400   73.8920   59.4260 C   0  0  0  0  0  0  0  0  0  0  0  0
   38.9770   73.0860   58.5990 C   0  0  0  0  0  0  0  0  0  0  0  0
   38.0540   73.6170   57.7270 C   0  0  0  0  0  0  0  0  0  0  0  0
   37.8650   74.9910   57.6600 C   0  0  0  0  0  0  0  0  0  0  0  0
   38.6300   75.8020   58.4900 C   0  0  0  0  0  0  0  0  0  0  0  0
   39.5540   75.2630   59.3610 C   0  0  0  0  0  0  0  0  0  0  0  0
   39.1270   72.0130   58.6550 H   0  0  0  0  0  0  0  0  0  0  0  0
   37.4760   72.9340   57.0950 H   0  0  0  0  0  0  0  0  0  0  0  0
   37.1360   75.3850   56.9670 H   0  0  0  0  0  0  0  0  0  0  0  0
   38.4310   76.8470   58.3830 H   0  0  0  0  0  0  0  0  0  0  0  0
   41.1780   72.2280   62.3530 C   0  0  0  0  0  0  0  0  0  0  0  0
   42.5360   72.1650   62.0430 C   0  0  0  0  0  0  0  0  0  0  0  0
   42.9490   72.7000   60.8200 C   0  0  0  0  0  0  0  0  0  0  0  0
   42.0160   73.2500   60.0000 N   0  0  0  0  0  0  0  0  0  0  0  0
   40.7040   73.2930   60.3340 C   0  0  0  0  0  0  0  0  0  0  0  0
   40.3080   72.7860   61.4960 N   0  0  0  0  0  0  0  0  0  0  0  0
   40.9450   71.7990   63.3010 H   0  0  0  0  0  0  0  0  0  0  0  0
   43.3060   71.7370   62.6650 H   0  0  0  0  0  0  0  0  0  0  0  0
   43.9920   72.6770   60.5280 H   0  0  0  0  0  0  0  0  0  0  0  0
   40.3330   76.1770   60.2140 C   0  0  0  0  0  3  0  0  0  0  0  0
   41.4460   76.9170   59.4960 C   0  0  0  0  0  2  0  0  0  0  0  0
   40.2440   77.6350   60.0940 C   0  0  0  0  0  2  0  0  0  0  0  0
  1 15  1  0  0  0  0
  2  7  1  0  0  0  0
  2  1  2  0  0  0  0
  3  2  1  0  0  0  0
  4  3  2  0  0  0  0
  4  5  1  0  0  0  0
  5  6  2  0  0  0  0
  6  1  1  0  0  0  0
  6 20  1  0  0  0  0
  8  3  1  0  0  0  0
  9  4  1  0  0  0  0
 10  5  1  0  0  0  0
 11 17  1  0  0  0  0
 12 11  1  0  0  0  0
 12 18  1  0  0  0  0
 13 12  2  0  0  0  0
 14 15  2  0  0  0  0
 14 13  1  0  0  0  0
 15 16  1  0  0  0  0
 16 11  2  0  0  0  0
 19 13  1  0  0  0  0
 21 22  1  0  0  0  0
 21 20  1  0  0  0  0
 22 20  1  0  0  0  0
M  END
>  <minimizedAffinity>
-4.50263882

$$$$

 OpenBabel03212521043D

 22 24  0  0  0  0  0  0  0  0999 V2000
   40.8650   73.6740   60.3450 C   0  0  0  0  0  0  0  0  0  0  0  0
   40.4390   73.0800   61.5200 C   0  0  0  0  0  0  0  0  0  0  0  0
   41.3220   72.4590   62.3740 C   0  0  0  0  0  0  0  0  0  0  0  0
   42.6760   72.4140   62.0700 C   0  0  0  0  0  0  0  0  0  0  0  0
   43.1050   73.0110   60.8900 C   0  0  0  0  0  0  0  0  0  0  0  0
   42.2140   73.6320   60.0380 C   0  0  0  0  0  0  0  0  0  0  0  0
   39.3800   73.1160   61.7540 H   0  0  0  0  0  0  0  0  0  0  0  0
   40.9320   72.0030   63.2920 H   0  0  0  0  0  0  0  0  0  0  0  0
   43.3500   71.9220   62.7560 H   0  0  0  0  0  0  0  0  0  0  0  0
   44.1580   72.9380   60.7230 H   0  0  0  0  0  0  0  0  0  0  0  0
   38.8410   76.2570   58.7200 C   0  0  0  0  0  0  0  0  0  0  0  0
   38.0780   75.5290   57.8080 C   0  0  0  0  0  0  0  0  0  0  0  0
   38.2670   74.1460   57.7580 C   0  0  0  0  0  0  0  0  0  0  0  0
   39.1780   73.5820   58.5930 N   0  0  0  0  0  0  0  0  0  0  0  0
   39.9020   74.3200   59.4680 C   0  0  0  0  0  0  0  0  0  0  0  0
   39.7240   75.6350   59.5180 N   0  0  0  0  0  0  0  0  0  0  0  0
   38.6380   77.3030   58.6960 H   0  0  0  0  0  0  0  0  0  0  0  0
   37.3480   75.9400   57.1280 H   0  0  0  0  0  0  0  0  0  0  0  0
   37.7020   73.5330   57.0670 H   0  0  0  0  0  0  0  0  0  0  0  0
   42.7340   74.2450   58.8040 C   0  0  0  0  0  3  0  0  0  0  0  0
   43.2160   75.6750   58.9620 C   0  0  0  0  0  2  0  0  0  0  0  0
   44.1570   74.5320   58.6050 C   0  0  0  0  0  2  0  0  0  0  0  0
  1  2  1  0  0  0  0
  2  7  1  0  0  0  0
  2  3  2  0  0  0  0
  3  8  1  0  0  0  0
  4  3  1  0  0  0  0
  4  9  1  0  0  0  0
  5  4  2  0  0  0  0
  6  1  2  0  0  0  0
  6  5  1  0  0  0  0
 10  5  1  0  0  0  0
 11 16  1  0  0  0  0
 12 11  2  0  0  0  0
 13 12  1  0  0  0  0
 13 14  2  0  0  0  0
 14 15  1  0  0  0  0
 15 16  2  0  0  0  0
 15  1  1  0  0  0  0
 17 11  1  0  0  0  0
 18 12  1  0  0  0  0
 19 13  1  0  0  0  0
 20 21  1  0  0  0  0
 20  6  1  0  0  0  0
 22 20  1  0  0  0  0
 22 21  1  0  0  0  0
M  END
>  <minimizedAffinity>
-4.47167873

$$$$

 OpenBabel03212521043D

 22 24  0  0  0  0  0  0  0  0999 V2000
   38.7960   75.1210   58.5720 C   0  0  0  0  0  0  0  0  0  0  0  0
   38.0360   74.3550   59.4400 C   0  0  0  0  0  0  0  0  0  0  0  0
   38.4480   74.1050   60.7290 C   0  0  0  0  0  0  0  0  0  0  0  0
   39.6520   74.6210   61.1920 C   0  0  0  0  0  0  0  0  0  0  0  0
   40.4160   75.3900   60.3220 C   0  0  0  0  0  0  0  0  0  0  0  0
   39.9960   75.6370   59.0300 C   0  0  0  0  0  0  0  0  0  0  0  0
   37.0970   73.9530   59.0750 H   0  0  0  0  0  0  0  0  0  0  0  0
   37.8090   73.4930   61.3750 H   0  0  0  0  0  0  0  0  0  0  0  0
   39.9540   74.4120   62.2070 H   0  0  0  0  0  0  0  0  0  0  0  0
   41.3270   75.7530   60.7460 H   0  0  0  0  0  0  0  0  0  0  0  0
   38.3030   74.7790   54.9610 C   0  0  0  0  0  0  0  0  0  0  0  0
   37.4350   75.8290   54.6620 C   0  0  0  0  0  0  0  0  0  0  0  0
   37.0230   76.6520   55.7130 C   0  0  0  0  0  0  0  0  0  0  0  0
   37.4840   76.3920   56.9640 N   0  0  0  0  0  0  0  0  0  0  0  0
   38.3270   75.3620   57.2180 C   0  0  0  0  0  0  0  0  0  0  0  0
   38.7210   74.5780   56.2210 N   0  0  0  0  0  0  0  0  0  0  0  0
   38.5690   74.2000   54.1060 H   0  0  0  0  0  0  0  0  0  0  0  0
   37.0470   76.0670   53.6840 H   0  0  0  0  0  0  0  0  0  0  0  0
   36.3490   77.4810   55.5380 H   0  0  0  0  0  0  0  0  0  0  0  0
   40.8530   76.4600   58.1590 C   0  0  0  0  0  3  0  0  0  0  0  0
   42.2380   76.7370   58.7120 C   0  0  0  0  0  2  0  0  0  0  0  0
   42.0140   75.9130   57.4520 C   0  0  0  0  0  2  0  0  0  0  0  0
  1  6  2  0  0  0  0
  1  2  1  0  0  0  0
  2  3  2  0  0  0  0
  3  4  1  0  0  0  0
  3  8  1  0  0  0  0
  4  9  1  0  0  0  0
  5 10  1  0  0  0  0
  5  4  2  0  0  0  0
  6  5  1  0  0  0  0
  7  2  1  0  0  0  0
 11 16  1  0  0  0  0
 12 11  2  0  0  0  0
 12 13  1  0  0  0  0
 13 14  2  0  0  0  0
 14 15  1  0  0  0  0
 15  1  1  0  0  0  0
 16 15  2  0  0  0  0
 17 11  1  0  0  0  0
 18 12  1  0  0  0  0
 19 13  1  0  0  0  0
 20 21  1  0  0  0  0
 20  6  1  0  0  0  0
 22 20  1  0  0  0  0
 22 21  1  0  0  0  0
M  END
>  <minimizedAffinity>
-4.46453047

$$$$

 OpenBabel03212521043D

 22 24  0  0  0  0  0  0  0  0999 V2000
   40.2080   74.6130   59.7340 C   0  0  0  0  0  0  0  0  0  0  0  0
   40.2690   75.9830   59.9210 C   0  0  0  0  0  0  0  0  0  0  0  0
   39.5030   76.8480   59.1730 C   0  0  0  0  0  0  0  0  0  0  0  0
   38.6400   76.3560   58.2020 C   0  0  0  0  0  0  0  0  0  0  0  0
   38.5780   74.9810   58.0130 C   0  0  0  0  0  0  0  0  0  0  0  0
   39.3490   74.1190   58.7660 C   0  0  0  0  0  0  0  0  0  0  0  0
   40.9450   76.3630   60.6810 H   0  0  0  0  0  0  0  0  0  0  0  0
   39.5900   77.9230   59.3620 H   0  0  0  0  0  0  0  0  0  0  0  0
   38.0480   77.0530   57.6280 H   0  0  0  0  0  0  0  0  0  0  0  0
   37.8940   74.6760   57.2500 H   0  0  0  0  0  0  0  0  0  0  0  0
   41.2680   72.3130   62.3790 C   0  0  0  0  0  0  0  0  0  0  0  0
   42.6050   72.0720   62.0670 C   0  0  0  0  0  0  0  0  0  0  0  0
   43.1350   72.7060   60.9410 C   0  0  0  0  0  0  0  0  0  0  0  0
   42.3300   73.5200   60.2110 N   0  0  0  0  0  0  0  0  0  0  0  0
   41.0340   73.7320   60.5440 C   0  0  0  0  0  0  0  0  0  0  0  0
   40.5270   73.1310   61.6140 N   0  0  0  0  0  0  0  0  0  0  0  0
   40.9400   71.7930   63.2500 H   0  0  0  0  0  0  0  0  0  0  0  0
   43.2750   71.4330   62.6200 H   0  0  0  0  0  0  0  0  0  0  0  0
   44.1680   72.5530   60.6520 H   0  0  0  0  0  0  0  0  0  0  0  0
   39.2360   72.6720   58.5160 C   0  0  0  0  0  3  0  0  0  0  0  0
   38.3740   72.3020   57.3240 C   0  0  0  0  0  2  0  0  0  0  0  0
   39.8690   72.0190   57.3680 C   0  0  0  0  0  2  0  0  0  0  0  0
  1  2  1  0  0  0  0
  1 15  1  0  0  0  0
  2  7  1  0  0  0  0
  3  8  1  0  0  0  0
  3  2  2  0  0  0  0
  4  3  1  0  0  0  0
  5  4  2  0  0  0  0
  5  6  1  0  0  0  0
  6  1  2  0  0  0  0
  9  4  1  0  0  0  0
 10  5  1  0  0  0  0
 11 17  1  0  0  0  0
 12 11  1  0  0  0  0
 12 18  1  0  0  0  0
 13 12  2  0  0  0  0
 14 15  2  0  0  0  0
 14 13  1  0  0  0  0
 15 16  1  0  0  0  0
 16 11  2  0  0  0  0
 19 13  1  0  0  0  0
 20  6  1  0  0  0  0
 21 22  1  0  0  0  0
 21 20  1  0  0  0  0
 22 20  1  0  0  0  0
M  END
>  <minimizedAffinity>
-4.43652105

$$$$

 OpenBabel03212521043D

 22 24  0  0  0  0  0  0  0  0999 V2000
   42.2290   73.6220   60.3110 C   0  0  0  0  0  0  0  0  0  0  0  0
   43.4160   74.0910   59.7750 C   0  0  0  0  0  0  0  0  0  0  0  0
   43.4960   75.3270   59.1740 C   0  0  0  0  0  0  0  0  0  0  0  0
   42.3720   76.1390   59.0910 C   0  0  0  0  0  0  0  0  0  0  0  0
   41.1800   75.6690   59.6290 C   0  0  0  0  0  0  0  0  0  0  0  0
   41.1070   74.4290   60.2310 C   0  0  0  0  0  0  0  0  0  0  0  0
   44.2920   73.4540   59.8410 H   0  0  0  0  0  0  0  0  0  0  0  0
   44.4590   75.6510   58.7650 H   0  0  0  0  0  0  0  0  0  0  0  0
   42.4590   77.1050   58.6150 H   0  0  0  0  0  0  0  0  0  0  0  0
   40.3590   76.3460   59.5290 H   0  0  0  0  0  0  0  0  0  0  0  0
   42.0310   69.9930   60.7490 C   0  0  0  0  0  0  0  0  0  0  0  0
   42.1010   69.8390   62.1320 C   0  0  0  0  0  0  0  0  0  0  0  0
   42.2170   70.9940   62.9100 C   0  0  0  0  0  0  0  0  0  0  0  0
   42.2560   72.1990   62.2860 N   0  0  0  0  0  0  0  0  0  0  0  0
   42.1850   72.3110   60.9380 C   0  0  0  0  0  0  0  0  0  0  0  0
   42.0740   71.2150   60.1950 N   0  0  0  0  0  0  0  0  0  0  0  0
   41.9440   69.0650   60.2280 H   0  0  0  0  0  0  0  0  0  0  0  0
   42.0750   68.9010   62.6650 H   0  0  0  0  0  0  0  0  0  0  0  0
   42.2760   70.9320   63.9900 H   0  0  0  0  0  0  0  0  0  0  0  0
   39.8130   73.9900   60.7810 C   0  0  0  0  0  3  0  0  0  0  0  0
   38.8730   75.1180   61.1640 C   0  0  0  0  0  2  0  0  0  0  0  0
   38.5540   74.1350   60.0460 C   0  0  0  0  0  2  0  0  0  0  0  0
  1 15  1  0  0  0  0
  2  7  1  0  0  0  0
  2  1  2  0  0  0  0
  3  2  1  0  0  0  0
  4  3  2  0  0  0  0
  4  5  1  0  0  0  0
  5  6  2  0  0  0  0
  6  1  1  0  0  0  0
  6 20  1  0  0  0  0
  8  3  1  0  0  0  0
  9  4  1  0  0  0  0
 10  5  1  0  0  0  0
 11 12  1  0  0  0  0
 12 18  1  0  0  0  0
 12 13  2  0  0  0  0
 13 19  1  0  0  0  0
 14 13  1  0  0  0  0
 15 14  2  0  0  0  0
 16 11  2  0  0  0  0
 16 15  1  0  0  0  0
 17 11  1  0  0  0  0
 20 21  1  0  0  0  0
 22 20  1  0  0  0  0
 22 21  1  0  0  0  0
M  END
>  <minimizedAffinity>
-4.4295001

$$$$

 OpenBabel03212521043D

 22 24  0  0  0  0  0  0  0  0999 V2000
   40.3140   73.5840   60.1040 C   0  0  0  0  0  0  0  0  0  0  0  0
   39.1860   73.7290   60.8920 C   0  0  0  0  0  0  0  0  0  0  0  0
   38.7250   74.9700   61.2710 C   0  0  0  0  0  0  0  0  0  0  0  0
   39.3940   76.1180   60.8650 C   0  0  0  0  0  0  0  0  0  0  0  0
   40.5270   75.9740   60.0730 C   0  0  0  0  0  0  0  0  0  0  0  0
   40.9820   74.7260   59.6970 C   0  0  0  0  0  0  0  0  0  0  0  0
   38.6660   72.8300   61.2080 H   0  0  0  0  0  0  0  0  0  0  0  0
   37.8270   75.0290   61.8960 H   0  0  0  0  0  0  0  0  0  0  0  0
   39.0140   77.0800   61.1730 H   0  0  0  0  0  0  0  0  0  0  0  0
   40.9870   76.8980   59.7990 H   0  0  0  0  0  0  0  0  0  0  0  0
   40.7180   70.4560   58.2450 C   0  0  0  0  0  0  0  0  0  0  0  0
   41.6340   69.7460   59.0200 C   0  0  0  0  0  0  0  0  0  0  0  0
   42.1090   70.3540   60.1850 C   0  0  0  0  0  0  0  0  0  0  0  0
   41.6600   71.5960   60.5030 N   0  0  0  0  0  0  0  0  0  0  0  0
   40.7690   72.2560   59.7250 C   0  0  0  0  0  0  0  0  0  0  0  0
   40.3150   71.6810   58.6170 N   0  0  0  0  0  0  0  0  0  0  0  0
   40.4060   69.9240   57.3750 H   0  0  0  0  0  0  0  0  0  0  0  0
   42.0150   68.7610   58.8020 H   0  0  0  0  0  0  0  0  0  0  0  0
   42.8220   69.8480   60.8240 H   0  0  0  0  0  0  0  0  0  0  0  0
   42.1890   74.6430   58.8570 C   0  0  0  0  0  3  0  0  0  0  0  0
   42.7440   75.9830   58.4120 C   0  0  0  0  0  2  0  0  0  0  0  0
   43.5130   75.0490   59.3370 C   0  0  0  0  0  2  0  0  0  0  0  0
  1  2  1  0  0  0  0
  2  7  1  0  0  0  0
  2  3  2  0  0  0  0
  3  8  1  0  0  0  0
  4  9  1  0  0  0  0
  4  3  1  0  0  0  0
  5  4  2  0  0  0  0
  6  5  1  0  0  0  0
  6  1  2  0  0  0  0
 10  5  1  0  0  0  0
 11 16  2  0  0  0  0
 11 12  1  0  0  0  0
 12 13  2  0  0  0  0
 13 14  1  0  0  0  0
 13 19  1  0  0  0  0
 15  1  1  0  0  0  0
 15 14  2  0  0  0  0
 16 15  1  0  0  0  0
 17 11  1  0  0  0  0
 18 12  1  0  0  0  0
 20 22  1  0  0  0  0
 20  6  1  0  0  0  0
 21 20  1  0  0  0  0
 21 22  1  0  0  0  0
M  END
>  <minimizedAffinity>
-4.41677618

$$$$

 OpenBabel03212521043D

 22 24  0  0  0  0  0  0  0  0999 V2000
   40.6450   73.2920   60.7680 C   0  0  0  0  0  0  0  0  0  0  0  0
   39.3430   73.3670   61.2300 C   0  0  0  0  0  0  0  0  0  0  0  0
   38.6090   74.5280   61.1320 C   0  0  0  0  0  0  0  0  0  0  0  0
   39.1690   75.6630   60.5620 C   0  0  0  0  0  0  0  0  0  0  0  0
   40.4770   75.5890   60.0970 C   0  0  0  0  0  0  0  0  0  0  0  0
   41.2070   74.4220   60.1980 C   0  0  0  0  0  0  0  0  0  0  0  0
   38.9090   72.4780   61.6760 H   0  0  0  0  0  0  0  0  0  0  0  0
   37.5820   74.5330   61.5140 H   0  0  0  0  0  0  0  0  0  0  0  0
   38.5750   76.5620   60.4950 H   0  0  0  0  0  0  0  0  0  0  0  0
   40.8410   76.5000   59.6710 H   0  0  0  0  0  0  0  0  0  0  0  0
   42.0930   70.0260   59.9690 C   0  0  0  0  0  0  0  0  0  0  0  0
   42.7920   69.6990   61.1300 C   0  0  0  0  0  0  0  0  0  0  0  0
   42.7590   70.6130   62.1870 C   0  0  0  0  0  0  0  0  0  0  0  0
   42.0550   71.7640   62.0330 N   0  0  0  0  0  0  0  0  0  0  0  0
   41.3870   72.0480   60.8890 C   0  0  0  0  0  0  0  0  0  0  0  0
   41.4160   71.1820   59.8820 N   0  0  0  0  0  0  0  0  0  0  0  0
   42.1680   69.2780   59.2110 H   0  0  0  0  0  0  0  0  0  0  0  0
   43.3620   68.7980   61.2900 H   0  0  0  0  0  0  0  0  0  0  0  0
   43.2850   70.4100   63.1120 H   0  0  0  0  0  0  0  0  0  0  0  0
   42.5880   74.4100   59.6870 C   0  0  0  0  0  3  0  0  0  0  0  0
   42.7020   74.3740   58.1740 C   0  0  0  0  0  2  0  0  0  0  0  0
   43.1840   75.5590   59.0000 C   0  0  0  0  0  2  0  0  0  0  0  0
  1 15  1  0  0  0  0
  1  2  1  0  0  0  0
  2  7  1  0  0  0  0
  3  2  2  0  0  0  0
  3  8  1  0  0  0  0
  4  3  1  0  0  0  0
  5  6  1  0  0  0  0
  5  4  2  0  0  0  0
  6  1  2  0  0  0  0
  9  4  1  0  0  0  0
 10  5  1  0  0  0  0
 11 12  1  0  0  0  0
 12 18  1  0  0  0  0
 12 13  2  0  0  0  0
 13 19  1  0  0  0  0
 14 13  1  0  0  0  0
 15 14  2  0  0  0  0
 16 11  2  0  0  0  0
 16 15  1  0  0  0  0
 17 11  1  0  0  0  0
 20  6  1  0  0  0  0
 21 22  1  0  0  0  0
 21 20  1  0  0  0  0
 22 20  1  0  0  0  0
M  END
>  <minimizedAffinity>
-4.34518814

$$$$
