
 OpenBabel03212520143D

 25 27  0  0  0  0  0  0  0  0999 V2000
   41.4220   70.3150   58.8580 Cl  0  0  0  0  0  0  0  0  0  0  0  0
   42.0290   70.0620   60.4940 C   0  0  0  0  0  0  0  0  0  0  0  0
   42.0630   71.0610   61.4350 C   0  0  0  0  0  0  0  0  0  0  0  0
   42.5860   70.7120   62.6590 C   0  0  0  0  0  0  0  0  0  0  0  0
   43.0690   69.4520   63.0020 C   0  0  0  0  0  0  0  0  0  0  0  0
   43.0100   68.4880   62.0190 C   0  0  0  0  0  0  0  0  0  0  0  0
   43.6090   66.8900   62.4140 Cl  0  0  0  0  0  0  0  0  0  0  0  0
   42.4860   68.8000   60.7580 C   0  0  0  0  0  0  0  0  0  0  0  0
   42.6420   71.4500   63.4460 H   0  0  0  0  0  0  0  0  0  0  0  0
   43.4650   69.2540   63.9830 H   0  0  0  0  0  0  0  0  0  0  0  0
   42.1880   73.3450   60.3390 C   0  0  0  0  0  0  0  0  0  0  0  0
   41.5740   72.3520   61.1030 C   0  0  0  0  0  0  0  0  0  0  0  0
   40.2990   72.6590   61.6190 C   0  0  0  0  0  0  0  0  0  0  0  0
   39.7710   73.8820   61.3390 N   0  0  0  0  0  0  0  0  0  0  0  0
   40.4040   74.8070   60.5960 C   0  0  0  0  0  0  0  0  0  0  0  0
   41.6200   74.5290   60.0970 N   0  0  0  0  0  0  0  0  0  0  0  0
   43.1700   73.0690   59.9580 H   0  0  0  0  0  0  0  0  0  0  0  0
   39.7260   71.9850   62.2190 H   0  0  0  0  0  0  0  0  0  0  0  0
   39.6740   76.0830   60.3950 C   0  0  0  0  0  0  0  0  0  0  0  0
   38.6860   75.9740   59.4490 F   0  0  0  0  0  0  0  0  0  0  0  0
   39.0780   76.4630   61.5900 F   0  0  0  0  0  0  0  0  0  0  0  0
   40.5200   77.0750   59.9370 F   0  0  0  0  0  0  0  0  0  0  0  0
   42.4950   67.6110   59.8660 C   0  0  0  0  0  3  0  0  0  0  0  0
   41.5450   66.4940   60.0000 C   0  0  0  0  0  2  0  0  0  0  0  0
   41.3960   67.4680   58.8380 C   0  0  0  0  0  2  0  0  0  0  0  0
  1  2  1  0  0  0  0
  2  8  2  0  0  0  0
  2  3  1  0  0  0  0
  3  4  2  0  0  0  0
  4  5  1  0  0  0  0
  4  9  1  0  0  0  0
  5 10  1  0  0  0  0
  6  7  1  0  0  0  0
  6  5  2  0  0  0  0
  8  6  1  0  0  0  0
 11 12  1  0  0  0  0
 12  3  1  0  0  0  0
 12 13  2  0  0  0  0
 13 18  1  0  0  0  0
 14 13  1  0  0  0  0
 15 14  2  0  0  0  0
 16 11  2  0  0  0  0
 16 15  1  0  0  0  0
 17 11  1  0  0  0  0
 19 15  1  0  0  0  0
 19 21  1  0  0  0  0
 20 19  1  0  0  0  0
 22 19  1  0  0  0  0
 23 24  1  0  0  0  0
 23  8  1  0  0  0  0
 25 23  1  0  0  0  0
 25 24  1  0  0  0  0
M  END
>  <minimizedAffinity>
-5.69183254

$$$$

 OpenBabel03212520143D

 25 27  0  0  0  0  0  0  0  0999 V2000
   39.7120   72.8120   61.3570 Cl  0  0  0  0  0  0  0  0  0  0  0  0
   41.2560   73.3190   60.6710 C   0  0  0  0  0  0  0  0  0  0  0  0
   42.3870   72.5460   60.7420 C   0  0  0  0  0  0  0  0  0  0  0  0
   43.5200   73.0890   60.1790 C   0  0  0  0  0  0  0  0  0  0  0  0
   43.5960   74.3340   59.5590 C   0  0  0  0  0  0  0  0  0  0  0  0
   42.4300   75.0660   59.5170 C   0  0  0  0  0  0  0  0  0  0  0  0
   42.4870   76.6380   58.7440 Cl  0  0  0  0  0  0  0  0  0  0  0  0
   41.2540   74.5520   60.0780 C   0  0  0  0  0  0  0  0  0  0  0  0
   44.4460   72.5340   60.1990 H   0  0  0  0  0  0  0  0  0  0  0  0
   44.5200   74.6940   59.1410 H   0  0  0  0  0  0  0  0  0  0  0  0
   42.4280   70.9690   62.7280 C   0  0  0  0  0  0  0  0  0  0  0  0
   42.3280   71.2730   61.3700 C   0  0  0  0  0  0  0  0  0  0  0  0
   42.1430   70.1830   60.4960 C   0  0  0  0  0  0  0  0  0  0  0  0
   42.0770   68.9340   61.0330 N   0  0  0  0  0  0  0  0  0  0  0  0
   42.1800   68.6910   62.3520 C   0  0  0  0  0  0  0  0  0  0  0  0
   42.3560   69.7200   63.1970 N   0  0  0  0  0  0  0  0  0  0  0  0
   42.5690   71.8370   63.3690 H   0  0  0  0  0  0  0  0  0  0  0  0
   42.0530   70.2840   59.4350 H   0  0  0  0  0  0  0  0  0  0  0  0
   42.0850   67.2670   62.7540 C   0  0  0  0  0  0  0  0  0  0  0  0
   42.0140   66.4250   61.6730 F   0  0  0  0  0  0  0  0  0  0  0  0
   43.2120   66.9210   63.4870 F   0  0  0  0  0  0  0  0  0  0  0  0
   40.9380   67.0300   63.4860 F   0  0  0  0  0  0  0  0  0  0  0  0
   40.1180   75.4930   59.8980 C   0  0  0  0  0  3  0  0  0  0  0  0
   38.8650   75.4020   60.6680 C   0  0  0  0  0  2  0  0  0  0  0  0
   39.8520   76.5220   60.9730 C   0  0  0  0  0  2  0  0  0  0  0  0
  2  3  1  0  0  0  0
  2  1  1  0  0  0  0
  3 12  1  0  0  0  0
  4  9  1  0  0  0  0
  4  3  2  0  0  0  0
  5  4  1  0  0  0  0
  6  5  2  0  0  0  0
  6  8  1  0  0  0  0
  7  6  1  0  0  0  0
  8  2  2  0  0  0  0
 10  5  1  0  0  0  0
 11 16  1  0  0  0  0
 11 17  1  0  0  0  0
 12 11  2  0  0  0  0
 13 14  2  0  0  0  0
 13 12  1  0  0  0  0
 14 15  1  0  0  0  0
 15 19  1  0  0  0  0
 15 16  2  0  0  0  0
 18 13  1  0  0  0  0
 19 22  1  0  0  0  0
 19 21  1  0  0  0  0
 20 19  1  0  0  0  0
 23  8  1  0  0  0  0
 23 24  1  0  0  0  0
 23 25  1  0  0  0  0
 24 25  1  0  0  0  0
M  END
>  <minimizedAffinity>
-5.6415844

$$$$

 OpenBabel03212520143D

 25 27  0  0  0  0  0  0  0  0999 V2000
   40.8720   70.7490   58.2630 Cl  0  0  0  0  0  0  0  0  0  0  0  0
   41.7670   70.3170   59.7200 C   0  0  0  0  0  0  0  0  0  0  0  0
   41.9970   71.2050   60.7400 C   0  0  0  0  0  0  0  0  0  0  0  0
   42.7300   70.7230   61.8000 C   0  0  0  0  0  0  0  0  0  0  0  0
   43.2410   69.4320   61.9080 C   0  0  0  0  0  0  0  0  0  0  0  0
   42.9800   68.5830   60.8550 C   0  0  0  0  0  0  0  0  0  0  0  0
   43.6070   66.9500   60.9570 Cl  0  0  0  0  0  0  0  0  0  0  0  0
   42.2370   69.0320   59.7560 C   0  0  0  0  0  0  0  0  0  0  0  0
   42.9480   71.3700   62.6380 H   0  0  0  0  0  0  0  0  0  0  0  0
   43.8080   69.1270   62.7710 H   0  0  0  0  0  0  0  0  0  0  0  0
   41.9780   73.6010   59.9080 C   0  0  0  0  0  0  0  0  0  0  0  0
   41.4830   72.5260   60.6470 C   0  0  0  0  0  0  0  0  0  0  0  0
   40.3200   72.7700   61.4050 C   0  0  0  0  0  0  0  0  0  0  0  0
   39.7750   74.0160   61.3610 N   0  0  0  0  0  0  0  0  0  0  0  0
   40.2910   75.0220   60.6320 C   0  0  0  0  0  0  0  0  0  0  0  0
   41.3990   74.8050   59.9040 N   0  0  0  0  0  0  0  0  0  0  0  0
   42.8760   73.3730   59.3360 H   0  0  0  0  0  0  0  0  0  0  0  0
   39.8450   72.0300   62.0120 H   0  0  0  0  0  0  0  0  0  0  0  0
   39.5620   76.3110   60.7060 C   0  0  0  0  0  0  0  0  0  0  0  0
   40.4050   77.3740   60.9130 F   0  0  0  0  0  0  0  0  0  0  0  0
   38.8900   76.5290   59.5110 F   0  0  0  0  0  0  0  0  0  0  0  0
   38.6790   76.3250   61.7690 F   0  0  0  0  0  0  0  0  0  0  0  0
   42.0550   67.9490   58.7550 C   0  0  0  0  0  3  0  0  0  0  0  0
   41.3510   68.1430   57.4750 C   0  0  0  0  0  2  0  0  0  0  0  0
   42.8670   67.9960   57.4810 C   0  0  0  0  0  2  0  0  0  0  0  0
  1  2  1  0  0  0  0
  2  8  2  0  0  0  0
  2  3  1  0  0  0  0
  3  4  2  0  0  0  0
  4  5  1  0  0  0  0
  4  9  1  0  0  0  0
  5 10  1  0  0  0  0
  6  7  1  0  0  0  0
  6  5  2  0  0  0  0
  8  6  1  0  0  0  0
 11 12  1  0  0  0  0
 12  3  1  0  0  0  0
 12 13  2  0  0  0  0
 13 18  1  0  0  0  0
 14 13  1  0  0  0  0
 15 19  1  0  0  0  0
 15 14  2  0  0  0  0
 16 11  2  0  0  0  0
 16 15  1  0  0  0  0
 17 11  1  0  0  0  0
 19 20  1  0  0  0  0
 19 22  1  0  0  0  0
 21 19  1  0  0  0  0
 23  8  1  0  0  0  0
 24 25  1  0  0  0  0
 24 23  1  0  0  0  0
 25 23  1  0  0  0  0
M  END
>  <minimizedAffinity>
-5.44635582

$$$$

 OpenBabel03212520143D

 25 27  0  0  0  0  0  0  0  0999 V2000
   43.5640   73.4020   59.8510 Cl  0  0  0  0  0  0  0  0  0  0  0  0
   41.8920   73.7450   60.2940 C   0  0  0  0  0  0  0  0  0  0  0  0
   41.1290   72.8780   61.0340 C   0  0  0  0  0  0  0  0  0  0  0  0
   39.8350   73.2780   61.2800 C   0  0  0  0  0  0  0  0  0  0  0  0
   39.2620   74.4700   60.8420 C   0  0  0  0  0  0  0  0  0  0  0  0
   40.0740   75.3020   60.1040 C   0  0  0  0  0  0  0  0  0  0  0  0
   39.3870   76.8110   59.5360 Cl  0  0  0  0  0  0  0  0  0  0  0  0
   41.3980   74.9340   59.8300 C   0  0  0  0  0  0  0  0  0  0  0  0
   39.1790   72.6430   61.8570 H   0  0  0  0  0  0  0  0  0  0  0  0
   38.2400   74.7150   61.0740 H   0  0  0  0  0  0  0  0  0  0  0  0
   42.1520   71.3350   62.7680 C   0  0  0  0  0  0  0  0  0  0  0  0
   41.6980   71.6580   61.4900 C   0  0  0  0  0  0  0  0  0  0  0  0
   41.8120   70.6510   60.5110 C   0  0  0  0  0  0  0  0  0  0  0  0
   42.3490   69.4560   60.8810 N   0  0  0  0  0  0  0  0  0  0  0  0
   42.7740   69.1920   62.1300 C   0  0  0  0  0  0  0  0  0  0  0  0
   42.6720   70.1420   63.0730 N   0  0  0  0  0  0  0  0  0  0  0  0
   42.0460   72.1390   63.4950 H   0  0  0  0  0  0  0  0  0  0  0  0
   41.5010   70.7740   59.4960 H   0  0  0  0  0  0  0  0  0  0  0  0
   43.3310   67.8350   62.3470 C   0  0  0  0  0  0  0  0  0  0  0  0
   42.6310   67.1310   63.2940 F   0  0  0  0  0  0  0  0  0  0  0  0
   43.2750   67.1190   61.1590 F   0  0  0  0  0  0  0  0  0  0  0  0
   44.6300   67.8980   62.8160 F   0  0  0  0  0  0  0  0  0  0  0  0
   42.0950   75.9850   59.0450 C   0  0  0  0  0  3  0  0  0  0  0  0
   43.1950   75.6960   58.1090 C   0  0  0  0  0  2  0  0  0  0  0  0
   41.8260   76.0780   57.5600 C   0  0  0  0  0  2  0  0  0  0  0  0
  1  2  1  0  0  0  0
  2  3  1  0  0  0  0
  3  4  2  0  0  0  0
  3 12  1  0  0  0  0
  4  9  1  0  0  0  0
  5 10  1  0  0  0  0
  5  4  1  0  0  0  0
  6  5  2  0  0  0  0
  7  6  1  0  0  0  0
  8  6  1  0  0  0  0
  8  2  2  0  0  0  0
 11 16  1  0  0  0  0
 11 17  1  0  0  0  0
 12 11  2  0  0  0  0
 13 14  2  0  0  0  0
 13 12  1  0  0  0  0
 14 15  1  0  0  0  0
 15 19  1  0  0  0  0
 15 16  2  0  0  0  0
 18 13  1  0  0  0  0
 19 22  1  0  0  0  0
 19 20  1  0  0  0  0
 21 19  1  0  0  0  0
 23  8  1  0  0  0  0
 24 23  1  0  0  0  0
 25 24  1  0  0  0  0
 25 23  1  0  0  0  0
M  END
>  <minimizedAffinity>
-5.39958143

$$$$

 OpenBabel03212520143D

 25 27  0  0  0  0  0  0  0  0999 V2000
   42.4380   71.3700   62.5630 Cl  0  0  0  0  0  0  0  0  0  0  0  0
   42.1100   70.5600   61.0310 C   0  0  0  0  0  0  0  0  0  0  0  0
   41.5950   71.2160   59.9420 C   0  0  0  0  0  0  0  0  0  0  0  0
   41.3740   70.4410   58.8250 C   0  0  0  0  0  0  0  0  0  0  0  0
   41.6310   69.0760   58.7270 C   0  0  0  0  0  0  0  0  0  0  0  0
   42.1490   68.4700   59.8500 C   0  0  0  0  0  0  0  0  0  0  0  0
   42.4850   66.7530   59.7630 Cl  0  0  0  0  0  0  0  0  0  0  0  0
   42.3890   69.2210   61.0080 C   0  0  0  0  0  0  0  0  0  0  0  0
   40.9700   70.8930   57.9320 H   0  0  0  0  0  0  0  0  0  0  0  0
   41.4320   68.5350   57.8180 H   0  0  0  0  0  0  0  0  0  0  0  0
   42.1580   73.6750   59.6830 C   0  0  0  0  0  0  0  0  0  0  0  0
   41.3270   72.6080   60.0250 C   0  0  0  0  0  0  0  0  0  0  0  0
   40.0500   72.9430   60.5190 C   0  0  0  0  0  0  0  0  0  0  0  0
   39.7280   74.2610   60.6240 N   0  0  0  0  0  0  0  0  0  0  0  0
   40.5660   75.2560   60.2810 C   0  0  0  0  0  0  0  0  0  0  0  0
   41.7860   74.9520   59.8090 N   0  0  0  0  0  0  0  0  0  0  0  0
   43.1340   73.3760   59.3060 H   0  0  0  0  0  0  0  0  0  0  0  0
   39.3220   72.2180   60.8160 H   0  0  0  0  0  0  0  0  0  0  0  0
   40.0430   76.6310   60.4640 C   0  0  0  0  0  0  0  0  0  0  0  0
   39.0030   76.9100   59.6140 F   0  0  0  0  0  0  0  0  0  0  0  0
   39.5780   76.7760   61.7650 F   0  0  0  0  0  0  0  0  0  0  0  0
   41.0140   77.5750   60.1870 F   0  0  0  0  0  0  0  0  0  0  0  0
   42.9680   68.3750   62.0840 C   0  0  0  0  0  3  0  0  0  0  0  0
   43.1050   68.8270   63.4800 C   0  0  0  0  0  2  0  0  0  0  0  0
   42.0420   67.7940   63.1280 C   0  0  0  0  0  2  0  0  0  0  0  0
  2  1  1  0  0  0  0
  3 12  1  0  0  0  0
  3  2  2  0  0  0  0
  4  3  1  0  0  0  0
  5  4  2  0  0  0  0
  5  6  1  0  0  0  0
  6  8  2  0  0  0  0
  7  6  1  0  0  0  0
  8  2  1  0  0  0  0
  8 23  1  0  0  0  0
  9  4  1  0  0  0  0
 10  5  1  0  0  0  0
 11 16  2  0  0  0  0
 11 12  1  0  0  0  0
 12 13  2  0  0  0  0
 13 14  1  0  0  0  0
 13 18  1  0  0  0  0
 15 19  1  0  0  0  0
 15 14  2  0  0  0  0
 16 15  1  0  0  0  0
 17 11  1  0  0  0  0
 19 21  1  0  0  0  0
 20 19  1  0  0  0  0
 22 19  1  0  0  0  0
 23 25  1  0  0  0  0
 23 24  1  0  0  0  0
 25 24  1  0  0  0  0
M  END
>  <minimizedAffinity>
-5.34284401

$$$$

 OpenBabel03212520143D

 25 27  0  0  0  0  0  0  0  0999 V2000
   41.5510   70.7330   58.6440 Cl  0  0  0  0  0  0  0  0  0  0  0  0
   41.6950   70.7680   60.4020 C   0  0  0  0  0  0  0  0  0  0  0  0
   41.4750   71.9020   61.1410 C   0  0  0  0  0  0  0  0  0  0  0  0
   41.6480   71.7750   62.5000 C   0  0  0  0  0  0  0  0  0  0  0  0
   42.0210   70.6060   63.1600 C   0  0  0  0  0  0  0  0  0  0  0  0
   42.2290   69.4980   62.3680 C   0  0  0  0  0  0  0  0  0  0  0  0
   42.6980   68.0100   63.1640 Cl  0  0  0  0  0  0  0  0  0  0  0  0
   42.0630   69.5840   60.9800 C   0  0  0  0  0  0  0  0  0  0  0  0
   41.4910   72.6290   63.1420 H   0  0  0  0  0  0  0  0  0  0  0  0
   42.1380   70.5830   64.2300 H   0  0  0  0  0  0  0  0  0  0  0  0
   41.9110   74.1120   59.9750 C   0  0  0  0  0  0  0  0  0  0  0  0
   41.0940   73.1030   60.4840 C   0  0  0  0  0  0  0  0  0  0  0  0
   39.7040   73.2870   60.3350 C   0  0  0  0  0  0  0  0  0  0  0  0
   39.2700   74.4180   59.7140 N   0  0  0  0  0  0  0  0  0  0  0  0
   40.1000   75.3640   59.2380 C   0  0  0  0  0  0  0  0  0  0  0  0
   41.4260   75.2030   59.3740 N   0  0  0  0  0  0  0  0  0  0  0  0
   42.9760   73.9330   60.1100 H   0  0  0  0  0  0  0  0  0  0  0  0
   38.9740   72.5880   60.6820 H   0  0  0  0  0  0  0  0  0  0  0  0
   39.4470   76.5280   58.5910 C   0  0  0  0  0  0  0  0  0  0  0  0
   39.4380   77.6350   59.4010 F   0  0  0  0  0  0  0  0  0  0  0  0
   40.1360   76.8560   57.4320 F   0  0  0  0  0  0  0  0  0  0  0  0
   38.1200   76.2630   58.3090 F   0  0  0  0  0  0  0  0  0  0  0  0
   42.3120   68.2710   60.3290 C   0  0  0  0  0  3  0  0  0  0  0  0
   41.4210   67.1090   60.4900 C   0  0  0  0  0  2  0  0  0  0  0  0
   41.4390   67.8620   59.1650 C   0  0  0  0  0  2  0  0  0  0  0  0
  1  2  1  0  0  0  0
  2  8  2  0  0  0  0
  2  3  1  0  0  0  0
  3  4  2  0  0  0  0
  4  9  1  0  0  0  0
  4  5  1  0  0  0  0
  5 10  1  0  0  0  0
  6  5  2  0  0  0  0
  6  7  1  0  0  0  0
  8  6  1  0  0  0  0
 11 17  1  0  0  0  0
 11 12  1  0  0  0  0
 12  3  1  0  0  0  0
 13 12  2  0  0  0  0
 13 18  1  0  0  0  0
 14 13  1  0  0  0  0
 15 16  1  0  0  0  0
 15 14  2  0  0  0  0
 16 11  2  0  0  0  0
 19 15  1  0  0  0  0
 19 20  1  0  0  0  0
 21 19  1  0  0  0  0
 22 19  1  0  0  0  0
 23 24  1  0  0  0  0
 23  8  1  0  0  0  0
 25 23  1  0  0  0  0
 25 24  1  0  0  0  0
M  END
>  <minimizedAffinity>
-5.2821188

$$$$

 OpenBabel03212520143D

 25 27  0  0  0  0  0  0  0  0999 V2000
   41.5500   70.0960   58.9240 Cl  0  0  0  0  0  0  0  0  0  0  0  0
   41.8940   70.0580   60.6530 C   0  0  0  0  0  0  0  0  0  0  0  0
   42.0940   71.1950   61.3940 C   0  0  0  0  0  0  0  0  0  0  0  0
   42.3740   70.9990   62.7280 C   0  0  0  0  0  0  0  0  0  0  0  0
   42.4670   69.7620   63.3600 C   0  0  0  0  0  0  0  0  0  0  0  0
   42.2580   68.6550   62.5670 C   0  0  0  0  0  0  0  0  0  0  0  0
   42.3660   67.0810   63.3290 Cl  0  0  0  0  0  0  0  0  0  0  0  0
   41.9690   68.8080   61.2050 C   0  0  0  0  0  0  0  0  0  0  0  0
   42.5420   71.8510   63.3690 H   0  0  0  0  0  0  0  0  0  0  0  0
   42.6920   69.6870   64.4100 H   0  0  0  0  0  0  0  0  0  0  0  0
   40.8590   73.2080   60.4690 C   0  0  0  0  0  0  0  0  0  0  0  0
   42.0020   72.4650   60.7660 C   0  0  0  0  0  0  0  0  0  0  0  0
   43.2350   73.0400   60.3980 C   0  0  0  0  0  0  0  0  0  0  0  0
   43.2190   74.2580   59.7910 N   0  0  0  0  0  0  0  0  0  0  0  0
   42.0880   74.9360   59.5260 C   0  0  0  0  0  0  0  0  0  0  0  0
   40.9060   74.4010   59.8700 N   0  0  0  0  0  0  0  0  0  0  0  0
   39.9280   72.7300   60.7680 H   0  0  0  0  0  0  0  0  0  0  0  0
   44.1810   72.5720   60.5700 H   0  0  0  0  0  0  0  0  0  0  0  0
   42.2660   76.2490   58.8580 C   0  0  0  0  0  0  0  0  0  0  0  0
   43.1390   76.1820   57.8020 F   0  0  0  0  0  0  0  0  0  0  0  0
   41.0410   76.6840   58.3690 F   0  0  0  0  0  0  0  0  0  0  0  0
   42.8010   77.1820   59.7250 F   0  0  0  0  0  0  0  0  0  0  0  0
   41.7560   67.4900   60.5520 C   0  0  0  0  0  3  0  0  0  0  0  0
   41.6690   67.3190   59.0910 C   0  0  0  0  0  2  0  0  0  0  0  0
   42.9150   66.8440   59.8280 C   0  0  0  0  0  2  0  0  0  0  0  0
  1  2  1  0  0  0  0
  2  8  2  0  0  0  0
  2  3  1  0  0  0  0
  3  4  2  0  0  0  0
  4  5  1  0  0  0  0
  4  9  1  0  0  0  0
  5 10  1  0  0  0  0
  6  7  1  0  0  0  0
  6  5  2  0  0  0  0
  8  6  1  0  0  0  0
 11 12  1  0  0  0  0
 11 17  1  0  0  0  0
 12  3  1  0  0  0  0
 13 18  1  0  0  0  0
 13 12  2  0  0  0  0
 14 13  1  0  0  0  0
 15 14  2  0  0  0  0
 15 16  1  0  0  0  0
 16 11  2  0  0  0  0
 19 15  1  0  0  0  0
 19 22  1  0  0  0  0
 20 19  1  0  0  0  0
 21 19  1  0  0  0  0
 23  8  1  0  0  0  0
 24 25  1  0  0  0  0
 24 23  1  0  0  0  0
 25 23  1  0  0  0  0
M  END
>  <minimizedAffinity>
-5.26511669

$$$$

 OpenBabel03212520143D

 25 27  0  0  0  0  0  0  0  0999 V2000
   40.4460   73.8410   61.3220 Cl  0  0  0  0  0  0  0  0  0  0  0  0
   40.9270   74.1640   59.6560 C   0  0  0  0  0  0  0  0  0  0  0  0
   41.6910   73.2920   58.9240 C   0  0  0  0  0  0  0  0  0  0  0  0
   42.0020   73.6960   57.6450 C   0  0  0  0  0  0  0  0  0  0  0  0
   41.6050   74.8950   57.0580 C   0  0  0  0  0  0  0  0  0  0  0  0
   40.8390   75.7320   57.8400 C   0  0  0  0  0  0  0  0  0  0  0  0
   40.3210   77.2500   57.1350 Cl  0  0  0  0  0  0  0  0  0  0  0  0
   40.4990   75.3600   59.1470 C   0  0  0  0  0  0  0  0  0  0  0  0
   42.6010   73.0570   57.0130 H   0  0  0  0  0  0  0  0  0  0  0  0
   41.8890   75.1440   56.0500 H   0  0  0  0  0  0  0  0  0  0  0  0
   41.5030   70.8090   59.4070 C   0  0  0  0  0  0  0  0  0  0  0  0
   42.1040   72.0640   59.5060 C   0  0  0  0  0  0  0  0  0  0  0  0
   43.2780   72.1360   60.2830 C   0  0  0  0  0  0  0  0  0  0  0  0
   43.7300   70.9940   60.8700 N   0  0  0  0  0  0  0  0  0  0  0  0
   43.1130   69.8050   60.7450 C   0  0  0  0  0  0  0  0  0  0  0  0
   41.9930   69.7210   60.0080 N   0  0  0  0  0  0  0  0  0  0  0  0
   40.6000   70.7950   58.7990 H   0  0  0  0  0  0  0  0  0  0  0  0
   43.8310   73.0370   60.4360 H   0  0  0  0  0  0  0  0  0  0  0  0
   43.7490   68.6700   61.4560 C   0  0  0  0  0  0  0  0  0  0  0  0
   42.9990   67.5240   61.3830 F   0  0  0  0  0  0  0  0  0  0  0  0
   44.9860   68.4050   60.8830 F   0  0  0  0  0  0  0  0  0  0  0  0
   43.8860   68.9390   62.8040 F   0  0  0  0  0  0  0  0  0  0  0  0
   39.6520   76.3950   59.7950 C   0  0  0  0  0  3  0  0  0  0  0  0
   39.4850   76.5020   61.2550 C   0  0  0  0  0  2  0  0  0  0  0  0
   40.3290   77.5360   60.5190 C   0  0  0  0  0  2  0  0  0  0  0  0
  2  1  1  0  0  0  0
  3 12  1  0  0  0  0
  3  2  2  0  0  0  0
  4  3  1  0  0  0  0
  5  4  2  0  0  0  0
  5  6  1  0  0  0  0
  6  8  2  0  0  0  0
  7  6  1  0  0  0  0
  8  2  1  0  0  0  0
  8 23  1  0  0  0  0
  9  4  1  0  0  0  0
 10  5  1  0  0  0  0
 11 12  2  0  0  0  0
 11 16  1  0  0  0  0
 12 13  1  0  0  0  0
 13 18  1  0  0  0  0
 13 14  2  0  0  0  0
 15 14  1  0  0  0  0
 15 19  1  0  0  0  0
 16 15  2  0  0  0  0
 17 11  1  0  0  0  0
 19 22  1  0  0  0  0
 20 19  1  0  0  0  0
 21 19  1  0  0  0  0
 23 25  1  0  0  0  0
 23 24  1  0  0  0  0
 25 24  1  0  0  0  0
M  END
>  <minimizedAffinity>
-5.0191865

$$$$

 OpenBabel03212520143D

 25 27  0  0  0  0  0  0  0  0999 V2000
   39.2950   72.9340   56.6520 Cl  0  0  0  0  0  0  0  0  0  0  0  0
   38.9930   74.6480   56.9390 C   0  0  0  0  0  0  0  0  0  0  0  0
   39.2400   75.2510   58.1460 C   0  0  0  0  0  0  0  0  0  0  0  0
   38.9320   76.5910   58.2200 C   0  0  0  0  0  0  0  0  0  0  0  0
   38.4010   77.3560   57.1840 C   0  0  0  0  0  0  0  0  0  0  0  0
   38.1740   76.6980   55.9950 C   0  0  0  0  0  0  0  0  0  0  0  0
   37.5080   77.6290   54.6690 Cl  0  0  0  0  0  0  0  0  0  0  0  0
   38.4730   75.3350   55.8760 C   0  0  0  0  0  0  0  0  0  0  0  0
   39.1010   77.1290   59.1410 H   0  0  0  0  0  0  0  0  0  0  0  0
   38.1850   78.4020   57.3170 H   0  0  0  0  0  0  0  0  0  0  0  0
   39.1060   73.8440   60.2520 C   0  0  0  0  0  0  0  0  0  0  0  0
   39.7810   74.4870   59.2140 C   0  0  0  0  0  0  0  0  0  0  0  0
   41.1850   74.3690   59.2130 C   0  0  0  0  0  0  0  0  0  0  0  0
   41.7690   73.6490   60.2100 N   0  0  0  0  0  0  0  0  0  0  0  0
   41.0730   73.0470   61.1910 C   0  0  0  0  0  0  0  0  0  0  0  0
   39.7340   73.1500   61.2050 N   0  0  0  0  0  0  0  0  0  0  0  0
   38.0240   73.9580   60.2170 H   0  0  0  0  0  0  0  0  0  0  0  0
   41.8160   74.8150   58.4740 H   0  0  0  0  0  0  0  0  0  0  0  0
   41.8790   72.3060   62.1910 C   0  0  0  0  0  0  0  0  0  0  0  0
   42.5340   73.1450   63.0560 F   0  0  0  0  0  0  0  0  0  0  0  0
   41.0430   71.4900   62.9420 F   0  0  0  0  0  0  0  0  0  0  0  0
   42.8670   71.5570   61.5800 F   0  0  0  0  0  0  0  0  0  0  0  0
   38.1740   74.8390   54.5070 C   0  0  0  0  0  3  0  0  0  0  0  0
   38.8560   75.3390   53.3010 C   0  0  0  0  0  2  0  0  0  0  0  0
   39.1840   73.9460   53.8240 C   0  0  0  0  0  2  0  0  0  0  0  0
  1  2  1  0  0  0  0
  2  3  1  0  0  0  0
  3  4  2  0  0  0  0
  3 12  1  0  0  0  0
  4  9  1  0  0  0  0
  5 10  1  0  0  0  0
  5  4  1  0  0  0  0
  6  5  2  0  0  0  0
  7  6  1  0  0  0  0
  8  6  1  0  0  0  0
  8  2  2  0  0  0  0
 11 16  1  0  0  0  0
 12 11  2  0  0  0  0
 13 12  1  0  0  0  0
 13 14  2  0  0  0  0
 14 15  1  0  0  0  0
 15 16  2  0  0  0  0
 15 19  1  0  0  0  0
 17 11  1  0  0  0  0
 18 13  1  0  0  0  0
 19 21  1  0  0  0  0
 19 20  1  0  0  0  0
 22 19  1  0  0  0  0
 23  8  1  0  0  0  0
 24 25  1  0  0  0  0
 24 23  1  0  0  0  0
 25 23  1  0  0  0  0
M  END
>  <minimizedAffinity>
-5.0160327

$$$$
