
 OpenBabel03212521063D

 30 33  0  0  0  0  0  0  0  0999 V2000
   41.8250   84.2400   61.5750 C   0  0  0  0  0  0  0  0  0  0  0  0
   41.4510   83.9720   62.8830 C   0  0  0  0  0  0  0  0  0  0  0  0
   40.1690   83.5610   63.2100 C   0  0  0  0  0  0  0  0  0  0  0  0
   39.2290   83.4130   62.1950 C   0  0  0  0  0  0  0  0  0  0  0  0
   39.5950   83.6800   60.8750 C   0  0  0  0  0  0  0  0  0  0  0  0
   40.8720   84.0860   60.5700 C   0  0  0  0  0  0  0  0  0  0  0  0
   42.1470   84.0720   63.7190 H   0  0  0  0  0  0  0  0  0  0  0  0
   39.8540   83.3480   64.2240 H   0  0  0  0  0  0  0  0  0  0  0  0
   38.2330   83.0950   62.4450 H   0  0  0  0  0  0  0  0  0  0  0  0
   38.8720   83.5680   60.0720 H   0  0  0  0  0  0  0  0  0  0  0  0
   45.3640   84.1370   60.7040 C   0  0  0  0  0  0  0  0  0  0  0  0
   45.7510   85.4640   60.7540 C   0  0  0  0  0  0  0  0  0  0  0  0
   44.7670   86.4230   61.0970 C   0  0  0  0  0  0  0  0  0  0  0  0
   43.5070   85.9880   61.3560 N   0  0  0  0  0  0  0  0  0  0  0  0
   43.1750   84.6650   61.2930 C   0  0  0  0  0  0  0  0  0  0  0  0
   44.1030   83.7720   60.9700 N   0  0  0  0  0  0  0  0  0  0  0  0
   46.1530   83.4660   60.4400 H   0  0  0  0  0  0  0  0  0  0  0  0
   46.7630   85.8000   60.5450 H   0  0  0  0  0  0  0  0  0  0  0  0
   45.0610   87.4540   61.1370 H   0  0  0  0  0  0  0  0  0  0  0  0
   41.2100   84.3520   59.1890 C   0  0  0  0  0  0  0  0  0  0  0  0
   40.7900   85.6140   58.7830 C   0  0  0  0  0  0  0  0  0  0  0  0
   41.0150   86.0700   57.4880 C   0  0  0  0  0  0  0  0  0  0  0  0
   41.6580   85.2340   56.6490 N   0  0  0  0  0  0  0  0  0  0  0  0
   42.0650   84.0040   57.0490 C   0  0  0  0  0  0  0  0  0  0  0  0
   41.8490   83.5580   58.3010 N   0  0  0  0  0  0  0  0  0  0  0  0
   40.2620   86.3470   59.4130 H   0  0  0  0  0  0  0  0  0  0  0  0
   40.6990   87.0470   57.1510 H   0  0  0  0  0  0  0  0  0  0  0  0
   42.7690   83.1110   56.0980 C   0  0  0  0  0  3  0  0  0  0  0  0
   41.8620   82.1770   55.2960 C   0  0  0  0  0  2  0  0  0  0  0  0
   42.8400   81.6620   56.2750 C   0  0  0  0  0  2  0  0  0  0  0  0
  1  2  1  0  0  0  0
  2  3  2  0  0  0  0
  2  7  1  0  0  0  0
  3  8  1  0  0  0  0
  4  9  1  0  0  0  0
  4  3  1  0  0  0  0
  5  4  2  0  0  0  0
  6  5  1  0  0  0  0
  6  1  2  0  0  0  0
 10  5  1  0  0  0  0
 11 12  2  0  0  0  0
 11 16  1  0  0  0  0
 12 13  1  0  0  0  0
 13 19  1  0  0  0  0
 13 14  2  0  0  0  0
 15 14  1  0  0  0  0
 15  1  1  0  0  0  0
 16 15  2  0  0  0  0
 17 11  1  0  0  0  0
 18 12  1  0  0  0  0
 20  6  1  0  0  0  0
 21 20  1  0  0  0  0
 21 26  1  0  0  0  0
 22 21  2  0  0  0  0
 23 24  2  0  0  0  0
 23 22  1  0  0  0  0
 24 25  1  0  0  0  0
 25 20  2  0  0  0  0
 27 22  1  0  0  0  0
 28 30  1  0  0  0  0
 28 24  1  0  0  0  0
 29 28  1  0  0  0  0
 29 30  1  0  0  0  0
M  END
>  <minimizedAffinity>
-5.30678511

>  <minimizedRMSD>
0.138083667

$$$$
