
 OpenBabel03212520303D

 22 24  0  0  0  0  0  0  0  0999 V2000
   40.7210   82.0820   58.8370 N   0  0  0  0  0  0  0  0  0  0  0  0
   40.1340   80.9190   58.5650 C   0  0  0  0  0  0  0  0  0  0  0  0
   40.0580   80.5150   57.2290 C   0  0  0  0  0  0  0  0  0  0  0  0
   40.5920   81.3280   56.2390 C   0  0  0  0  0  0  0  0  0  0  0  0
   40.5660   81.0360   55.0130 O   0  0  0  0  0  0  0  0  0  0  0  0
   41.1800   82.5060   56.5890 N   0  0  0  0  0  0  0  0  0  0  0  0
   41.2510   82.8970   57.8980 C   0  0  0  0  0  0  0  0  0  0  0  0
   41.7920   83.9840   58.2250 O   0  0  0  0  0  0  0  0  0  0  0  0
   39.7100   80.2680   59.3030 H   0  0  0  0  0  0  0  0  0  0  0  0
   39.5920   79.5790   56.9390 H   0  0  0  0  0  0  0  0  0  0  0  0
   41.6030   83.1680   55.9010 H   0  0  0  0  0  0  0  0  0  0  0  0
   39.5620   82.7390   60.8890 C   0  0  0  0  0  0  0  0  0  0  0  0
   40.7510   82.4120   60.2200 C   0  0  0  0  0  0  0  0  0  0  0  0
   41.9630   82.4190   60.9470 C   0  0  0  0  0  0  0  0  0  0  0  0
   41.8900   82.7490   62.2690 N   0  0  0  0  0  0  0  0  0  0  0  0
   40.7360   83.0550   62.8760 C   0  0  0  0  0  0  0  0  0  0  0  0
   39.5810   83.0510   62.1940 N   0  0  0  0  0  0  0  0  0  0  0  0
   38.6430   82.7290   60.3220 H   0  0  0  0  0  0  0  0  0  0  0  0
   42.8680   82.1680   60.4270 H   0  0  0  0  0  0  0  0  0  0  0  0
   40.7500   83.4030   64.3230 C   0  0  0  0  0  0  0  0  0  0  0  0
   40.3230   84.8320   64.7130 C   0  0  0  0  0  0  0  0  0  0  0  0
   41.7290   84.3800   64.8510 C   0  0  0  0  0  0  0  0  0  0  0  0
  1 13  1  0  0  0  0
  2  1  1  0  0  0  0
  2  9  1  0  0  0  0
  3  2  2  0  0  0  0
  4  6  1  0  0  0  0
  4  3  1  0  0  0  0
  5  4  2  0  0  0  0
  6  7  1  0  0  0  0
  7  8  2  0  0  0  0
  7  1  1  0  0  0  0
 10  3  1  0  0  0  0
 11  6  1  0  0  0  0
 12 17  1  0  0  0  0
 13 12  2  0  0  0  0
 13 14  1  0  0  0  0
 14 15  2  0  0  0  0
 15 16  1  0  0  0  0
 16 20  1  0  0  0  0
 17 16  2  0  0  0  0
 18 12  1  0  0  0  0
 19 14  1  0  0  0  0
 20 21  1  0  0  0  0
 20 22  1  0  0  0  0
 21 22  1  0  0  0  0
M  END
>  <minimizedAffinity>
-4.62227583

>  <minimizedRMSD>
2.66882515

$$$$
