
 OpenBabel03212521043D

 21 22  0  0  0  0  0  0  0  0999 V2000
   38.4760   75.3290   58.5210 C   0  0  0  0  0  0  0  0  0  0  0  0
   38.0340   74.3100   59.3430 C   0  0  0  0  0  0  0  0  0  0  0  0
   38.3540   74.2620   60.6830 C   0  0  0  0  0  0  0  0  0  0  0  0
   39.1500   75.2690   61.2310 C   0  0  0  0  0  0  0  0  0  0  0  0
   39.6040   76.3090   60.3980 C   0  0  0  0  0  0  0  0  0  0  0  0
   39.2770   76.3460   59.0600 C   0  0  0  0  0  0  0  0  0  0  0  0
   37.4120   73.4880   59.0020 H   0  0  0  0  0  0  0  0  0  0  0  0
   38.0420   73.5000   61.3720 H   0  0  0  0  0  0  0  0  0  0  0  0
   39.4840   75.3700   62.2540 H   0  0  0  0  0  0  0  0  0  0  0  0
   40.2240   77.1330   60.7300 H   0  0  0  0  0  0  0  0  0  0  0  0
   36.6950   76.0340   55.3950 C   0  0  0  0  0  0  0  0  0  0  0  0
   37.4520   75.3050   54.4550 C   0  0  0  0  0  0  0  0  0  0  0  0
   38.5780   74.5700   54.9030 C   0  0  0  0  0  0  0  0  0  0  0  0
   38.8420   74.6280   56.2230 N   0  0  0  0  0  0  0  0  0  0  0  0
   38.1090   75.3310   57.1140 C   0  0  0  0  0  0  0  0  0  0  0  0
   37.0440   76.0270   56.6980 N   0  0  0  0  0  0  0  0  0  0  0  0
   35.8470   76.5780   55.0050 H   0  0  0  0  0  0  0  0  0  0  0  0
   37.2540   75.2480   53.3970 H   0  0  0  0  0  0  0  0  0  0  0  0
   39.2060   73.9930   54.2670 H   0  0  0  0  0  0  0  0  0  0  0  0
   39.8210   77.6340   57.9550 S   0  0  0  0  0  0  0  0  0  0  0  0
   38.9800   78.7290   58.0890 H   0  0  0  0  0  0  0  0  0  0  0  0
  1  6  2  0  0  0  0
  1  2  1  0  0  0  0
  2  3  2  0  0  0  0
  3  4  1  0  0  0  0
  3  8  1  0  0  0  0
  4  9  1  0  0  0  0
  5 10  1  0  0  0  0
  5  4  2  0  0  0  0
  6  5  1  0  0  0  0
  7  2  1  0  0  0  0
 11 16  1  0  0  0  0
 12 13  1  0  0  0  0
 12 11  2  0  0  0  0
 13 14  2  0  0  0  0
 14 15  1  0  0  0  0
 15  1  1  0  0  0  0
 16 15  2  0  0  0  0
 17 11  1  0  0  0  0
 18 12  1  0  0  0  0
 19 13  1  0  0  0  0
 20 21  1  0  0  0  0
 20  6  1  0  0  0  0
M  END
>  <minimizedAffinity>
-4.58284044

$$$$

 OpenBabel03212521043D

 21 22  0  0  0  0  0  0  0  0999 V2000
   38.7490   75.6250   58.3900 C   0  0  0  0  0  0  0  0  0  0  0  0
   39.2100   76.5180   59.3380 C   0  0  0  0  0  0  0  0  0  0  0  0
   39.4920   76.1290   60.6310 C   0  0  0  0  0  0  0  0  0  0  0  0
   39.3080   74.7960   60.9990 C   0  0  0  0  0  0  0  0  0  0  0  0
   38.8380   73.8810   60.0360 C   0  0  0  0  0  0  0  0  0  0  0  0
   38.5600   74.2820   58.7470 C   0  0  0  0  0  0  0  0  0  0  0  0
   39.3810   77.5710   59.1410 H   0  0  0  0  0  0  0  0  0  0  0  0
   39.8520   76.7730   61.4110 H   0  0  0  0  0  0  0  0  0  0  0  0
   39.4830   74.3410   61.9630 H   0  0  0  0  0  0  0  0  0  0  0  0
   38.6650   72.8290   60.2250 H   0  0  0  0  0  0  0  0  0  0  0  0
   39.1980   76.5950   54.8830 C   0  0  0  0  0  0  0  0  0  0  0  0
   37.8900   76.9670   54.5120 C   0  0  0  0  0  0  0  0  0  0  0  0
   36.8540   76.8830   55.4740 C   0  0  0  0  0  0  0  0  0  0  0  0
   37.2090   76.4420   56.6970 N   0  0  0  0  0  0  0  0  0  0  0  0
   38.4670   76.0880   57.0410 C   0  0  0  0  0  0  0  0  0  0  0  0
   39.4510   76.1660   56.1360 N   0  0  0  0  0  0  0  0  0  0  0  0
   39.9540   76.6770   54.1150 H   0  0  0  0  0  0  0  0  0  0  0  0
   37.5900   77.3220   53.5390 H   0  0  0  0  0  0  0  0  0  0  0  0
   35.8390   77.1420   55.2840 H   0  0  0  0  0  0  0  0  0  0  0  0
   37.9630   73.1740   57.4860 S   0  0  0  0  0  0  0  0  0  0  0  0
   39.0400   72.4940   56.9360 H   0  0  0  0  0  0  0  0  0  0  0  0
  1  6  2  0  0  0  0
  1  2  1  0  0  0  0
  2  3  2  0  0  0  0
  3  4  1  0  0  0  0
  3  8  1  0  0  0  0
  4  9  1  0  0  0  0
  5 10  1  0  0  0  0
  5  4  2  0  0  0  0
  6  5  1  0  0  0  0
  7  2  1  0  0  0  0
 11 16  1  0  0  0  0
 12 11  2  0  0  0  0
 12 13  1  0  0  0  0
 13 14  2  0  0  0  0
 14 15  1  0  0  0  0
 15  1  1  0  0  0  0
 16 15  2  0  0  0  0
 17 11  1  0  0  0  0
 18 12  1  0  0  0  0
 19 13  1  0  0  0  0
 20  6  1  0  0  0  0
 21 20  1  0  0  0  0
M  END
>  <minimizedAffinity>
-4.35083675

$$$$

 OpenBabel03212521043D

 21 22  0  0  0  0  0  0  0  0999 V2000
   38.7730   75.3230   58.4810 C   0  0  0  0  0  0  0  0  0  0  0  0
   39.1490   76.2200   59.4620 C   0  0  0  0  0  0  0  0  0  0  0  0
   39.4990   75.8110   60.7310 C   0  0  0  0  0  0  0  0  0  0  0  0
   39.4760   74.4510   61.0410 C   0  0  0  0  0  0  0  0  0  0  0  0
   39.0930   73.5310   60.0450 C   0  0  0  0  0  0  0  0  0  0  0  0
   38.7450   73.9530   58.7800 C   0  0  0  0  0  0  0  0  0  0  0  0
   39.1950   77.2940   59.3090 H   0  0  0  0  0  0  0  0  0  0  0  0
   39.8000   76.4580   61.5340 H   0  0  0  0  0  0  0  0  0  0  0  0
   39.7210   73.9780   61.9810 H   0  0  0  0  0  0  0  0  0  0  0  0
   39.0440   72.4590   60.1890 H   0  0  0  0  0  0  0  0  0  0  0  0
   36.7860   76.4930   55.6310 C   0  0  0  0  0  0  0  0  0  0  0  0
   37.7780   76.7210   54.6560 C   0  0  0  0  0  0  0  0  0  0  0  0
   39.1340   76.4700   54.9840 C   0  0  0  0  0  0  0  0  0  0  0  0
   39.3720   76.0230   56.2320 N   0  0  0  0  0  0  0  0  0  0  0  0
   38.4130   75.8080   57.1590 C   0  0  0  0  0  0  0  0  0  0  0  0
   37.1290   76.0430   56.8550 N   0  0  0  0  0  0  0  0  0  0  0  0
   35.7680   76.6980   55.3330 H   0  0  0  0  0  0  0  0  0  0  0  0
   37.6040   77.0770   53.6530 H   0  0  0  0  0  0  0  0  0  0  0  0
   39.9470   76.6130   54.3140 H   0  0  0  0  0  0  0  0  0  0  0  0
   38.2520   72.8390   57.4800 S   0  0  0  0  0  0  0  0  0  0  0  0
   39.3870   72.3110   56.8830 H   0  0  0  0  0  0  0  0  0  0  0  0
  1  6  2  0  0  0  0
  1  2  1  0  0  0  0
  2  3  2  0  0  0  0
  3  4  1  0  0  0  0
  3  8  1  0  0  0  0
  4  9  1  0  0  0  0
  5 10  1  0  0  0  0
  5  4  2  0  0  0  0
  6  5  1  0  0  0  0
  7  2  1  0  0  0  0
 11 16  1  0  0  0  0
 12 13  1  0  0  0  0
 12 11  2  0  0  0  0
 13 14  2  0  0  0  0
 14 15  1  0  0  0  0
 15  1  1  0  0  0  0
 16 15  2  0  0  0  0
 17 11  1  0  0  0  0
 18 12  1  0  0  0  0
 19 13  1  0  0  0  0
 20  6  1  0  0  0  0
 21 20  1  0  0  0  0
M  END
>  <minimizedAffinity>
-4.26322412

$$$$

 OpenBabel03212521043D

 21 22  0  0  0  0  0  0  0  0999 V2000
   41.0810   73.8750   60.5580 C   0  0  0  0  0  0  0  0  0  0  0  0
   40.4240   73.1250   61.5150 C   0  0  0  0  0  0  0  0  0  0  0  0
   41.0820   72.1990   62.2950 C   0  0  0  0  0  0  0  0  0  0  0  0
   42.4530   72.0080   62.1190 C   0  0  0  0  0  0  0  0  0  0  0  0
   43.1280   72.7690   61.1450 C   0  0  0  0  0  0  0  0  0  0  0  0
   42.4590   73.6920   60.3700 C   0  0  0  0  0  0  0  0  0  0  0  0
   39.3610   73.2080   61.7200 H   0  0  0  0  0  0  0  0  0  0  0  0
   40.6300   71.5880   63.0540 H   0  0  0  0  0  0  0  0  0  0  0  0
   43.1040   71.3270   62.6480 H   0  0  0  0  0  0  0  0  0  0  0  0
   44.1880   72.6930   60.9340 H   0  0  0  0  0  0  0  0  0  0  0  0
   39.5900   77.0210   59.4090 C   0  0  0  0  0  0  0  0  0  0  0  0
   38.9260   76.6180   58.2320 C   0  0  0  0  0  0  0  0  0  0  0  0
   38.9940   75.2590   57.8370 C   0  0  0  0  0  0  0  0  0  0  0  0
   39.7050   74.4400   58.6360 N   0  0  0  0  0  0  0  0  0  0  0  0
   40.3380   74.8380   59.7610 C   0  0  0  0  0  0  0  0  0  0  0  0
   40.2770   76.1210   60.1410 N   0  0  0  0  0  0  0  0  0  0  0  0
   39.5090   78.0670   59.6680 H   0  0  0  0  0  0  0  0  0  0  0  0
   38.3530   77.2600   57.5820 H   0  0  0  0  0  0  0  0  0  0  0  0
   38.5250   74.8650   56.9670 H   0  0  0  0  0  0  0  0  0  0  0  0
   43.2560   74.6830   59.1230 S   0  0  0  0  0  0  0  0  0  0  0  0
   43.8550   75.7770   59.7300 H   0  0  0  0  0  0  0  0  0  0  0  0
  1  2  1  0  0  0  0
  2  7  1  0  0  0  0
  2  3  2  0  0  0  0
  3  8  1  0  0  0  0
  4  3  1  0  0  0  0
  4  9  1  0  0  0  0
  5  4  2  0  0  0  0
  6  1  2  0  0  0  0
  6  5  1  0  0  0  0
 10  5  1  0  0  0  0
 11 17  1  0  0  0  0
 11 16  1  0  0  0  0
 12 11  2  0  0  0  0
 13 12  1  0  0  0  0
 13 14  2  0  0  0  0
 14 15  1  0  0  0  0
 15 16  2  0  0  0  0
 15  1  1  0  0  0  0
 18 12  1  0  0  0  0
 19 13  1  0  0  0  0
 20 21  1  0  0  0  0
 20  6  1  0  0  0  0
M  END
>  <minimizedAffinity>
-4.19569254

$$$$

 OpenBabel03212521043D

 21 22  0  0  0  0  0  0  0  0999 V2000
   41.2970   72.0650   61.3140 C   0  0  0  0  0  0  0  0  0  0  0  0
   41.7120   71.8120   62.6070 C   0  0  0  0  0  0  0  0  0  0  0  0
   42.4460   70.6910   62.9320 C   0  0  0  0  0  0  0  0  0  0  0  0
   42.7830   69.7810   61.9300 C   0  0  0  0  0  0  0  0  0  0  0  0
   42.3630   70.0340   60.6090 C   0  0  0  0  0  0  0  0  0  0  0  0
   41.6290   71.1580   60.2970 C   0  0  0  0  0  0  0  0  0  0  0  0
   41.4950   72.4630   63.4480 H   0  0  0  0  0  0  0  0  0  0  0  0
   42.7980   70.4390   63.9150 H   0  0  0  0  0  0  0  0  0  0  0  0
   43.3490   68.8660   62.0240 H   0  0  0  0  0  0  0  0  0  0  0  0
   42.5750   69.3900   59.7650 H   0  0  0  0  0  0  0  0  0  0  0  0
   38.4920   74.4120   61.0550 C   0  0  0  0  0  0  0  0  0  0  0  0
   39.1050   75.5380   60.4670 C   0  0  0  0  0  0  0  0  0  0  0  0
   40.4870   75.4840   60.1600 C   0  0  0  0  0  0  0  0  0  0  0  0
   41.1210   74.3340   60.4620 N   0  0  0  0  0  0  0  0  0  0  0  0
   40.5230   73.2620   61.0270 C   0  0  0  0  0  0  0  0  0  0  0  0
   39.2170   73.3060   61.3190 N   0  0  0  0  0  0  0  0  0  0  0  0
   37.4370   74.5010   61.2710 H   0  0  0  0  0  0  0  0  0  0  0  0
   38.6120   76.4630   60.2180 H   0  0  0  0  0  0  0  0  0  0  0  0
   41.0320   76.2830   59.7160 H   0  0  0  0  0  0  0  0  0  0  0  0
   41.0680   71.5330   58.6480 S   0  0  0  0  0  0  0  0  0  0  0  0
   42.1010   72.1350   57.9450 H   0  0  0  0  0  0  0  0  0  0  0  0
  1  2  1  0  0  0  0
  2  3  2  0  0  0  0
  2  7  1  0  0  0  0
  3  8  1  0  0  0  0
  4  9  1  0  0  0  0
  4  3  1  0  0  0  0
  5  4  2  0  0  0  0
  6  5  1  0  0  0  0
  6  1  2  0  0  0  0
 10  5  1  0  0  0  0
 11 17  1  0  0  0  0
 11 16  1  0  0  0  0
 12 11  2  0  0  0  0
 13 14  2  0  0  0  0
 13 12  1  0  0  0  0
 14 15  1  0  0  0  0
 15  1  1  0  0  0  0
 15 16  2  0  0  0  0
 18 12  1  0  0  0  0
 19 13  1  0  0  0  0
 20  6  1  0  0  0  0
 21 20  1  0  0  0  0
M  END
>  <minimizedAffinity>
-4.14504051

$$$$

 OpenBabel03212521043D

 21 22  0  0  0  0  0  0  0  0999 V2000
   38.8810   74.5350   58.9470 C   0  0  0  0  0  0  0  0  0  0  0  0
   38.2390   74.4100   60.1640 C   0  0  0  0  0  0  0  0  0  0  0  0
   38.8220   73.7700   61.2360 C   0  0  0  0  0  0  0  0  0  0  0  0
   40.1000   73.2280   61.0950 C   0  0  0  0  0  0  0  0  0  0  0  0
   40.7610   73.3510   59.8570 C   0  0  0  0  0  0  0  0  0  0  0  0
   40.1660   73.9940   58.7920 C   0  0  0  0  0  0  0  0  0  0  0  0
   37.2450   74.8000   60.3630 H   0  0  0  0  0  0  0  0  0  0  0  0
   38.3760   73.6410   62.2040 H   0  0  0  0  0  0  0  0  0  0  0  0
   40.6860   72.7020   61.8350 H   0  0  0  0  0  0  0  0  0  0  0  0
   41.7510   72.9660   59.6500 H   0  0  0  0  0  0  0  0  0  0  0  0
   37.8680   77.1550   56.5930 C   0  0  0  0  0  0  0  0  0  0  0  0
   36.9490   76.4710   55.7700 C   0  0  0  0  0  0  0  0  0  0  0  0
   36.6820   75.1040   56.0300 C   0  0  0  0  0  0  0  0  0  0  0  0
   37.3420   74.5540   57.0670 N   0  0  0  0  0  0  0  0  0  0  0  0
   38.2200   75.2200   57.8490 C   0  0  0  0  0  0  0  0  0  0  0  0
   38.4770   76.5120   57.6090 N   0  0  0  0  0  0  0  0  0  0  0  0
   38.0380   78.1960   56.3550 H   0  0  0  0  0  0  0  0  0  0  0  0
   36.4130   76.8970   54.9370 H   0  0  0  0  0  0  0  0  0  0  0  0
   36.0060   74.5100   55.4630 H   0  0  0  0  0  0  0  0  0  0  0  0
   40.9500   74.1820   57.2030 S   0  0  0  0  0  0  0  0  0  0  0  0
   41.8110   75.2680   57.2490 H   0  0  0  0  0  0  0  0  0  0  0  0
  1  2  1  0  0  0  0
  2  7  1  0  0  0  0
  2  3  2  0  0  0  0
  3  8  1  0  0  0  0
  4  3  1  0  0  0  0
  4  9  1  0  0  0  0
  5  4  2  0  0  0  0
  6  1  2  0  0  0  0
  6  5  1  0  0  0  0
 10  5  1  0  0  0  0
 11 16  1  0  0  0  0
 12 13  1  0  0  0  0
 12 11  2  0  0  0  0
 13 14  2  0  0  0  0
 14 15  1  0  0  0  0
 15  1  1  0  0  0  0
 16 15  2  0  0  0  0
 17 11  1  0  0  0  0
 18 12  1  0  0  0  0
 19 13  1  0  0  0  0
 20 21  1  0  0  0  0
 20  6  1  0  0  0  0
M  END
>  <minimizedAffinity>
-4.13309479

$$$$

 OpenBabel03212521043D

 21 22  0  0  0  0  0  0  0  0999 V2000
   40.2290   74.6700   59.7720 C   0  0  0  0  0  0  0  0  0  0  0  0
   40.2270   76.0210   60.0640 C   0  0  0  0  0  0  0  0  0  0  0  0
   39.5150   76.9300   59.3110 C   0  0  0  0  0  0  0  0  0  0  0  0
   38.7730   76.4800   58.2190 C   0  0  0  0  0  0  0  0  0  0  0  0
   38.7720   75.1050   57.9150 C   0  0  0  0  0  0  0  0  0  0  0  0
   39.4880   74.2050   58.6760 C   0  0  0  0  0  0  0  0  0  0  0  0
   40.7750   76.4580   60.8930 H   0  0  0  0  0  0  0  0  0  0  0  0
   39.4730   77.9890   59.4870 H   0  0  0  0  0  0  0  0  0  0  0  0
   38.1690   77.0630   57.5390 H   0  0  0  0  0  0  0  0  0  0  0  0
   38.2280   74.6600   57.0910 H   0  0  0  0  0  0  0  0  0  0  0  0
   41.1070   72.2300   62.3630 C   0  0  0  0  0  0  0  0  0  0  0  0
   42.4850   72.0410   62.1330 C   0  0  0  0  0  0  0  0  0  0  0  0
   43.1100   72.7570   61.0820 C   0  0  0  0  0  0  0  0  0  0  0  0
   42.3180   73.5820   60.3690 N   0  0  0  0  0  0  0  0  0  0  0  0
   40.9980   73.7550   60.5990 C   0  0  0  0  0  0  0  0  0  0  0  0
   40.4010   73.0810   61.5900 N   0  0  0  0  0  0  0  0  0  0  0  0
   40.6760   71.6620   63.1750 H   0  0  0  0  0  0  0  0  0  0  0  0
   43.1320   71.3860   62.6940 H   0  0  0  0  0  0  0  0  0  0  0  0
   44.1420   72.6780   60.8360 H   0  0  0  0  0  0  0  0  0  0  0  0
   39.5260   72.4550   58.3420 S   0  0  0  0  0  0  0  0  0  0  0  0
   38.3960   71.8660   58.8900 H   0  0  0  0  0  0  0  0  0  0  0  0
  1  2  1  0  0  0  0
  1 15  1  0  0  0  0
  2  7  1  0  0  0  0
  3  8  1  0  0  0  0
  3  2  2  0  0  0  0
  4  3  1  0  0  0  0
  5  4  2  0  0  0  0
  5  6  1  0  0  0  0
  6  1  2  0  0  0  0
  9  4  1  0  0  0  0
 10  5  1  0  0  0  0
 11 17  1  0  0  0  0
 12 11  1  0  0  0  0
 12 18  1  0  0  0  0
 13 12  2  0  0  0  0
 14 15  2  0  0  0  0
 14 13  1  0  0  0  0
 15 16  1  0  0  0  0
 16 11  2  0  0  0  0
 19 13  1  0  0  0  0
 20  6  1  0  0  0  0
 20 21  1  0  0  0  0
M  END
>  <minimizedAffinity>
-4.12504101

$$$$

 OpenBabel03212521043D

 21 22  0  0  0  0  0  0  0  0999 V2000
   40.6180   73.4380   60.8810 C   0  0  0  0  0  0  0  0  0  0  0  0
   39.3050   73.6220   61.2700 C   0  0  0  0  0  0  0  0  0  0  0  0
   38.6170   74.7840   60.9930 C   0  0  0  0  0  0  0  0  0  0  0  0
   39.2600   75.8100   60.3000 C   0  0  0  0  0  0  0  0  0  0  0  0
   40.5980   75.6280   59.9010 C   0  0  0  0  0  0  0  0  0  0  0  0
   41.2750   74.4620   60.1840 C   0  0  0  0  0  0  0  0  0  0  0  0
   38.7270   72.8790   61.8130 H   0  0  0  0  0  0  0  0  0  0  0  0
   37.5980   74.9860   61.2680 H   0  0  0  0  0  0  0  0  0  0  0  0
   38.8590   76.7700   60.0100 H   0  0  0  0  0  0  0  0  0  0  0  0
   41.1810   76.3640   59.3600 H   0  0  0  0  0  0  0  0  0  0  0  0
   42.1020   70.1040   60.5400 C   0  0  0  0  0  0  0  0  0  0  0  0
   42.5790   69.8600   61.8450 C   0  0  0  0  0  0  0  0  0  0  0  0
   42.3870   70.8490   62.8410 C   0  0  0  0  0  0  0  0  0  0  0  0
   41.7480   71.9700   62.4540 N   0  0  0  0  0  0  0  0  0  0  0  0
   41.2960   72.1930   61.2000 C   0  0  0  0  0  0  0  0  0  0  0  0
   41.4750   71.2620   60.2540 N   0  0  0  0  0  0  0  0  0  0  0  0
   42.2730   69.3200   59.8160 H   0  0  0  0  0  0  0  0  0  0  0  0
   43.0910   68.9690   62.1710 H   0  0  0  0  0  0  0  0  0  0  0  0
   42.7120   70.7520   63.8500 H   0  0  0  0  0  0  0  0  0  0  0  0
   42.9680   74.1730   59.7070 S   0  0  0  0  0  0  0  0  0  0  0  0
   43.0000   73.7530   58.3860 H   0  0  0  0  0  0  0  0  0  0  0  0
  1 15  1  0  0  0  0
  1  2  1  0  0  0  0
  2  7  1  0  0  0  0
  3  8  1  0  0  0  0
  3  2  2  0  0  0  0
  4  3  1  0  0  0  0
  5  6  1  0  0  0  0
  5  4  2  0  0  0  0
  6  1  2  0  0  0  0
  9  4  1  0  0  0  0
 10  5  1  0  0  0  0
 11 12  1  0  0  0  0
 12 18  1  0  0  0  0
 12 13  2  0  0  0  0
 13 19  1  0  0  0  0
 14 13  1  0  0  0  0
 15 14  2  0  0  0  0
 16 11  2  0  0  0  0
 16 15  1  0  0  0  0
 17 11  1  0  0  0  0
 20  6  1  0  0  0  0
 21 20  1  0  0  0  0
M  END
>  <minimizedAffinity>
-4.0916667

$$$$

 OpenBabel03212521043D

 21 22  0  0  0  0  0  0  0  0999 V2000
   39.6720   73.1020   59.2370 C   0  0  0  0  0  0  0  0  0  0  0  0
   39.4240   72.0870   58.3320 C   0  0  0  0  0  0  0  0  0  0  0  0
   38.4490   72.1920   57.3640 C   0  0  0  0  0  0  0  0  0  0  0  0
   37.6840   73.3570   57.2900 C   0  0  0  0  0  0  0  0  0  0  0  0
   37.9310   74.3950   58.2090 C   0  0  0  0  0  0  0  0  0  0  0  0
   38.9100   74.2770   59.1720 C   0  0  0  0  0  0  0  0  0  0  0  0
   39.9690   71.1480   58.3170 H   0  0  0  0  0  0  0  0  0  0  0  0
   38.2090   71.4410   56.6350 H   0  0  0  0  0  0  0  0  0  0  0  0
   36.8900   73.5890   56.5940 H   0  0  0  0  0  0  0  0  0  0  0  0
   37.3920   75.3350   58.2310 H   0  0  0  0  0  0  0  0  0  0  0  0
   41.3750   72.2720   62.3750 C   0  0  0  0  0  0  0  0  0  0  0  0
   42.7050   72.6480   62.0950 C   0  0  0  0  0  0  0  0  0  0  0  0
   43.0120   73.1880   60.8220 C   0  0  0  0  0  0  0  0  0  0  0  0
   41.9830   73.3020   59.9590 N   0  0  0  0  0  0  0  0  0  0  0  0
   40.7130   72.9380   60.2380 C   0  0  0  0  0  0  0  0  0  0  0  0
   40.4160   72.4270   61.4400 N   0  0  0  0  0  0  0  0  0  0  0  0
   41.1910   71.8650   63.3590 H   0  0  0  0  0  0  0  0  0  0  0  0
   43.5380   72.5640   62.7740 H   0  0  0  0  0  0  0  0  0  0  0  0
   43.9840   73.4990   60.5230 H   0  0  0  0  0  0  0  0  0  0  0  0
   39.2690   75.5540   60.3620 S   0  0  0  0  0  0  0  0  0  0  0  0
   40.1000   76.4970   59.7760 H   0  0  0  0  0  0  0  0  0  0  0  0
  1 15  1  0  0  0  0
  2  1  2  0  0  0  0
  3  2  1  0  0  0  0
  4  3  2  0  0  0  0
  4  5  1  0  0  0  0
  5 10  1  0  0  0  0
  5  6  2  0  0  0  0
  6  1  1  0  0  0  0
  6 20  1  0  0  0  0
  7  2  1  0  0  0  0
  8  3  1  0  0  0  0
  9  4  1  0  0  0  0
 11 17  1  0  0  0  0
 12 11  1  0  0  0  0
 12 18  1  0  0  0  0
 13 12  2  0  0  0  0
 14 15  2  0  0  0  0
 14 13  1  0  0  0  0
 15 16  1  0  0  0  0
 16 11  2  0  0  0  0
 19 13  1  0  0  0  0
 21 20  1  0  0  0  0
M  END
>  <minimizedAffinity>
-4.02989054

$$$$
