
 OpenBabel03212520263D

 21 22  0  0  0  0  0  0  0  0999 V2000
   42.6030   85.0780   60.9920 C   0  0  0  0  0  0  0  0  0  0  0  0
   43.6460   85.5330   61.7740 C   0  0  0  0  0  0  0  0  0  0  0  0
   44.3100   86.3960   60.8880 C   0  0  0  0  0  0  0  0  0  0  0  0
   43.6920   86.4290   59.6910 N   0  0  0  0  0  0  0  0  0  0  0  0
   42.6540   85.6150   59.7840 N   0  0  0  0  0  0  0  0  0  0  0  0
   43.8940   85.3000   62.7880 H   0  0  0  0  0  0  0  0  0  0  0  0
   45.2110   86.9540   61.1670 H   0  0  0  0  0  0  0  0  0  0  0  0
   40.9100   82.1340   62.5380 C   0  0  0  0  0  0  0  0  0  0  0  0
   41.9370   82.9950   62.1350 C   0  0  0  0  0  0  0  0  0  0  0  0
   41.5880   84.1370   61.4410 C   0  0  0  0  0  0  0  0  0  0  0  0
   40.2660   84.3920   61.1700 N   0  0  0  0  0  0  0  0  0  0  0  0
   39.3060   83.5230   61.5840 C   0  0  0  0  0  0  0  0  0  0  0  0
   39.6350   82.4070   62.2610 N   0  0  0  0  0  0  0  0  0  0  0  0
   41.1290   81.2220   63.0860 H   0  0  0  0  0  0  0  0  0  0  0  0
   42.9640   82.7560   62.3690 H   0  0  0  0  0  0  0  0  0  0  0  0
   38.3160   83.8640   61.2950 H   0  0  0  0  0  0  0  0  0  0  0  0
   44.0680   87.2020   58.5110 C   0  0  0  0  0  0  0  0  0  0  0  0
   45.0520   86.7760   58.1660 H   0  0  0  0  0  0  0  0  0  0  0  0
   43.2750   87.1210   57.7370 H   0  0  0  0  0  0  0  0  0  0  0  0
   44.3100   88.9270   59.0560 S   0  0  0  0  0  0  0  0  0  0  0  0
   43.0710   89.5770   59.2260 H   0  0  0  0  0  0  0  0  0  0  0  0
  1 10  1  0  0  0  0
  1  2  1  0  0  0  0
  2  6  1  0  0  0  0
  3  7  1  0  0  0  0
  3  2  2  0  0  0  0
  4  5  1  0  0  0  0
  4  3  1  0  0  0  0
  5  1  2  0  0  0  0
  8 14  1  0  0  0  0
  9 15  1  0  0  0  0
  9  8  2  0  0  0  0
 10  9  1  0  0  0  0
 11 10  2  0  0  0  0
 11 12  1  0  0  0  0
 12 13  2  0  0  0  0
 13  8  1  0  0  0  0
 16 12  1  0  0  0  0
 17 20  1  0  0  0  0
 17  4  1  0  0  0  0
 18 17  1  0  0  0  0
 19 17  1  0  0  0  0
 20 21  1  0  0  0  0
M  END
>  <minimizedAffinity>
-3.93688345

>  <minimizedRMSD>
0.588870704

$$$$
