
 OpenBabel03212520293D

 21 22  0  0  0  0  0  0  0  0999 V2000
   40.4000   81.5920   59.5930 N   0  0  0  0  0  0  0  0  0  0  0  0
   40.2970   80.2720   59.7050 C   0  0  0  0  0  0  0  0  0  0  0  0
   40.1480   79.5110   58.5510 C   0  0  0  0  0  0  0  0  0  0  0  0
   40.1130   80.1580   57.3160 C   0  0  0  0  0  0  0  0  0  0  0  0
   39.9810   79.5640   56.2140 O   0  0  0  0  0  0  0  0  0  0  0  0
   40.2250   81.4990   57.2920 N   0  0  0  0  0  0  0  0  0  0  0  0
   40.3720   82.2630   58.4160 C   0  0  0  0  0  0  0  0  0  0  0  0
   40.4760   83.5010   58.3990 O   0  0  0  0  0  0  0  0  0  0  0  0
   40.3190   79.7270   60.6370 H   0  0  0  0  0  0  0  0  0  0  0  0
   40.0580   78.4390   58.5700 H   0  0  0  0  0  0  0  0  0  0  0  0
   40.2020   82.0180   56.3810 H   0  0  0  0  0  0  0  0  0  0  0  0
   39.4160   82.7230   61.5320 C   0  0  0  0  0  0  0  0  0  0  0  0
   40.5480   82.2630   60.8380 C   0  0  0  0  0  0  0  0  0  0  0  0
   41.8070   82.4890   61.4120 C   0  0  0  0  0  0  0  0  0  0  0  0
   41.8670   83.1400   62.6080 N   0  0  0  0  0  0  0  0  0  0  0  0
   40.7570   83.5630   63.2390 C   0  0  0  0  0  0  0  0  0  0  0  0
   39.5490   83.3560   62.7060 N   0  0  0  0  0  0  0  0  0  0  0  0
   38.4690   82.5220   61.0460 H   0  0  0  0  0  0  0  0  0  0  0  0
   42.6850   82.1400   60.8860 H   0  0  0  0  0  0  0  0  0  0  0  0
   40.8210   84.4180   64.8100 S   0  0  0  0  0  0  0  0  0  0  0  0
   40.2450   85.7130   64.6560 H   0  0  0  0  0  0  0  0  0  0  0  0
  1  2  1  0  0  0  0
  1 13  1  0  0  0  0
  2  9  1  0  0  0  0
  3 10  1  0  0  0  0
  3  2  2  0  0  0  0
  4  3  1  0  0  0  0
  5  4  2  0  0  0  0
  6  4  1  0  0  0  0
  6  7  1  0  0  0  0
  7  1  1  0  0  0  0
  8  7  2  0  0  0  0
 11  6  1  0  0  0  0
 12 17  1  0  0  0  0
 13 14  1  0  0  0  0
 13 12  2  0  0  0  0
 14 15  2  0  0  0  0
 15 16  1  0  0  0  0
 16 20  1  0  0  0  0
 17 16  2  0  0  0  0
 18 12  1  0  0  0  0
 19 14  1  0  0  0  0
 21 20  1  0  0  0  0
M  END
>  <minimizedAffinity>
-4.12928677

>  <minimizedRMSD>
2.26075578

$$$$
