
 OpenBabel03212520293D

 21 22  0  0  0  0  0  0  0  0999 V2000
   40.4220   81.6290   59.5630 N   0  0  0  0  0  0  0  0  0  0  0  0
   40.2980   80.3100   59.6620 C   0  0  0  0  0  0  0  0  0  0  0  0
   40.1600   79.5600   58.4990 C   0  0  0  0  0  0  0  0  0  0  0  0
   40.1570   80.2180   57.2690 C   0  0  0  0  0  0  0  0  0  0  0  0
   40.0370   79.6350   56.1600 O   0  0  0  0  0  0  0  0  0  0  0  0
   40.2880   81.5570   57.2580 N   0  0  0  0  0  0  0  0  0  0  0  0
   40.4240   82.3100   58.3920 C   0  0  0  0  0  0  0  0  0  0  0  0
   40.5460   83.5460   58.3860 O   0  0  0  0  0  0  0  0  0  0  0  0
   40.2960   79.7570   60.5900 H   0  0  0  0  0  0  0  0  0  0  0  0
   40.0550   78.4890   58.5070 H   0  0  0  0  0  0  0  0  0  0  0  0
   40.2890   82.0840   56.3510 H   0  0  0  0  0  0  0  0  0  0  0  0
   39.4160   82.7370   61.5040 C   0  0  0  0  0  0  0  0  0  0  0  0
   40.5560   82.2870   60.8160 C   0  0  0  0  0  0  0  0  0  0  0  0
   41.8080   82.5120   61.4040 C   0  0  0  0  0  0  0  0  0  0  0  0
   41.8560   83.1510   62.6070 N   0  0  0  0  0  0  0  0  0  0  0  0
   40.7390   83.5640   63.2320 C   0  0  0  0  0  0  0  0  0  0  0  0
   39.5370   83.3580   62.6860 N   0  0  0  0  0  0  0  0  0  0  0  0
   38.4750   82.5380   61.0070 H   0  0  0  0  0  0  0  0  0  0  0  0
   42.6930   82.1710   60.8820 H   0  0  0  0  0  0  0  0  0  0  0  0
   40.7860   84.4030   64.8120 S   0  0  0  0  0  0  0  0  0  0  0  0
   40.5400   85.7920   64.6060 H   0  0  0  0  0  0  0  0  0  0  0  0
  1  2  1  0  0  0  0
  1 13  1  0  0  0  0
  2  9  1  0  0  0  0
  3 10  1  0  0  0  0
  3  2  2  0  0  0  0
  4  3  1  0  0  0  0
  5  4  2  0  0  0  0
  6  4  1  0  0  0  0
  6  7  1  0  0  0  0
  7  1  1  0  0  0  0
  8  7  2  0  0  0  0
 11  6  1  0  0  0  0
 12 17  1  0  0  0  0
 13 14  1  0  0  0  0
 13 12  2  0  0  0  0
 14 15  2  0  0  0  0
 15 16  1  0  0  0  0
 16 20  1  0  0  0  0
 17 16  2  0  0  0  0
 18 12  1  0  0  0  0
 19 14  1  0  0  0  0
 21 20  1  0  0  0  0
M  END
>  <minimizedAffinity>
-4.1294775

>  <minimizedRMSD>
2.25687814

$$$$
