
 OpenBabel03212520293D

 21 22  0  0  0  0  0  0  0  0999 V2000
   40.4190   81.6260   59.5660 N   0  0  0  0  0  0  0  0  0  0  0  0
   40.2960   80.3060   59.6660 C   0  0  0  0  0  0  0  0  0  0  0  0
   40.1570   79.5550   58.5040 C   0  0  0  0  0  0  0  0  0  0  0  0
   40.1510   80.2130   57.2740 C   0  0  0  0  0  0  0  0  0  0  0  0
   40.0300   79.6280   56.1650 O   0  0  0  0  0  0  0  0  0  0  0  0
   40.2800   81.5510   57.2620 N   0  0  0  0  0  0  0  0  0  0  0  0
   40.4180   82.3060   58.3940 C   0  0  0  0  0  0  0  0  0  0  0  0
   40.5380   83.5420   58.3880 O   0  0  0  0  0  0  0  0  0  0  0  0
   40.2960   79.7540   60.5940 H   0  0  0  0  0  0  0  0  0  0  0  0
   40.0530   78.4850   58.5130 H   0  0  0  0  0  0  0  0  0  0  0  0
   40.2790   82.0780   56.3540 H   0  0  0  0  0  0  0  0  0  0  0  0
   39.4150   82.7350   61.5070 C   0  0  0  0  0  0  0  0  0  0  0  0
   40.5550   82.2850   60.8180 C   0  0  0  0  0  0  0  0  0  0  0  0
   41.8080   82.5090   61.4050 C   0  0  0  0  0  0  0  0  0  0  0  0
   41.8560   83.1490   62.6070 N   0  0  0  0  0  0  0  0  0  0  0  0
   40.7400   83.5630   63.2330 C   0  0  0  0  0  0  0  0  0  0  0  0
   39.5370   83.3570   62.6880 N   0  0  0  0  0  0  0  0  0  0  0  0
   38.4730   82.5370   61.0120 H   0  0  0  0  0  0  0  0  0  0  0  0
   42.6920   82.1670   60.8830 H   0  0  0  0  0  0  0  0  0  0  0  0
   40.7890   84.4040   64.8130 S   0  0  0  0  0  0  0  0  0  0  0  0
   42.1480   84.5210   65.2320 H   0  0  0  0  0  0  0  0  0  0  0  0
  1  2  1  0  0  0  0
  1 13  1  0  0  0  0
  2  9  1  0  0  0  0
  3 10  1  0  0  0  0
  3  2  2  0  0  0  0
  4  3  1  0  0  0  0
  5  4  2  0  0  0  0
  6  4  1  0  0  0  0
  6  7  1  0  0  0  0
  7  1  1  0  0  0  0
  8  7  2  0  0  0  0
 11  6  1  0  0  0  0
 12 17  1  0  0  0  0
 13 14  1  0  0  0  0
 13 12  2  0  0  0  0
 14 15  2  0  0  0  0
 15 16  1  0  0  0  0
 16 20  1  0  0  0  0
 17 16  2  0  0  0  0
 18 12  1  0  0  0  0
 19 14  1  0  0  0  0
 20 21  1  0  0  0  0
M  END
>  <minimizedAffinity>
-4.12603235

>  <minimizedRMSD>
2.25718522

$$$$
