
 OpenBabel03212520293D

 21 22  0  0  0  0  0  0  0  0999 V2000
   40.4170   81.6230   59.5680 N   0  0  0  0  0  0  0  0  0  0  0  0
   40.2960   80.3040   59.6680 C   0  0  0  0  0  0  0  0  0  0  0  0
   40.1560   79.5520   58.5070 C   0  0  0  0  0  0  0  0  0  0  0  0
   40.1480   80.2090   57.2760 C   0  0  0  0  0  0  0  0  0  0  0  0
   40.0260   79.6240   56.1680 O   0  0  0  0  0  0  0  0  0  0  0  0
   40.2760   81.5480   57.2630 N   0  0  0  0  0  0  0  0  0  0  0  0
   40.4150   82.3030   58.3960 C   0  0  0  0  0  0  0  0  0  0  0  0
   40.5340   83.5390   58.3880 O   0  0  0  0  0  0  0  0  0  0  0  0
   40.2970   79.7520   60.5970 H   0  0  0  0  0  0  0  0  0  0  0  0
   40.0530   78.4820   58.5160 H   0  0  0  0  0  0  0  0  0  0  0  0
   40.2740   82.0740   56.3560 H   0  0  0  0  0  0  0  0  0  0  0  0
   39.4150   82.7350   61.5090 C   0  0  0  0  0  0  0  0  0  0  0  0
   40.5540   82.2830   60.8200 C   0  0  0  0  0  0  0  0  0  0  0  0
   41.8070   82.5070   61.4060 C   0  0  0  0  0  0  0  0  0  0  0  0
   41.8570   83.1480   62.6080 N   0  0  0  0  0  0  0  0  0  0  0  0
   40.7410   83.5630   63.2330 C   0  0  0  0  0  0  0  0  0  0  0  0
   39.5380   83.3570   62.6890 N   0  0  0  0  0  0  0  0  0  0  0  0
   38.4730   82.5360   61.0140 H   0  0  0  0  0  0  0  0  0  0  0  0
   42.6910   82.1650   60.8830 H   0  0  0  0  0  0  0  0  0  0  0  0
   40.7910   84.4040   64.8130 S   0  0  0  0  0  0  0  0  0  0  0  0
   41.3970   83.5450   65.7770 H   0  0  0  0  0  0  0  0  0  0  0  0
  1  2  1  0  0  0  0
  1 13  1  0  0  0  0
  2  9  1  0  0  0  0
  3 10  1  0  0  0  0
  3  2  2  0  0  0  0
  4  3  1  0  0  0  0
  5  4  2  0  0  0  0
  6  4  1  0  0  0  0
  6  7  1  0  0  0  0
  7  1  1  0  0  0  0
  8  7  2  0  0  0  0
 11  6  1  0  0  0  0
 12 17  1  0  0  0  0
 13 14  1  0  0  0  0
 13 12  2  0  0  0  0
 14 15  2  0  0  0  0
 15 16  1  0  0  0  0
 16 20  1  0  0  0  0
 17 16  2  0  0  0  0
 18 12  1  0  0  0  0
 19 14  1  0  0  0  0
 20 21  1  0  0  0  0
M  END
>  <minimizedAffinity>
-4.12606144

>  <minimizedRMSD>
2.25749135

$$$$
