
 OpenBabel03212519593D

 11 11  0  0  0  0  0  0  0  0999 V2000
   40.7010   67.8420   63.3050 C   0  0  0  0  0  0  0  0  0  0  0  0
   39.7230   66.8320   63.4870 C   0  0  0  0  0  0  0  0  0  0  0  0
   40.0720   65.5160   63.1920 C   0  0  0  0  0  0  0  0  0  0  0  0
   41.3370   65.2600   62.7420 N   0  0  0  0  0  0  0  0  0  0  0  0
   42.2430   66.2520   62.5810 C   0  0  0  0  0  0  0  0  0  0  0  0
   41.9360   67.5310   62.8580 N   0  0  0  0  0  0  0  0  0  0  0  0
   40.4870   68.8790   63.5190 H   0  0  0  0  0  0  0  0  0  0  0  0
   38.7270   67.1110   63.8520 H   0  0  0  0  0  0  0  0  0  0  0  0
   39.3390   64.7300   63.3230 H   0  0  0  0  0  0  0  0  0  0  0  0
   43.8130   65.6420   61.9830 S   0  0  0  0  0  0  0  0  0  0  0  0
   43.6570   65.2170   60.6430 H   0  0  0  0  0  0  0  0  0  0  0  0
  1  2  1  0  0  0  0
  1  7  1  0  0  0  0
  2  8  1  0  0  0  0
  3  9  1  0  0  0  0
  3  2  2  0  0  0  0
  4  3  1  0  0  0  0
  5  4  2  0  0  0  0
  5  6  1  0  0  0  0
  6  1  2  0  0  0  0
 10  5  1  0  0  0  0
 11 10  1  0  0  0  0
M  END
>  <minimizedAffinity>
-2.92502165

$$$$

 OpenBabel03212519593D

 11 11  0  0  0  0  0  0  0  0999 V2000
   39.5560   76.3820   60.1720 C   0  0  0  0  0  0  0  0  0  0  0  0
   39.2830   75.3050   61.0520 C   0  0  0  0  0  0  0  0  0  0  0  0
   38.5000   74.2520   60.5820 C   0  0  0  0  0  0  0  0  0  0  0  0
   38.0320   74.3080   59.2990 N   0  0  0  0  0  0  0  0  0  0  0  0
   38.3140   75.3540   58.4900 C   0  0  0  0  0  0  0  0  0  0  0  0
   39.0670   76.3830   58.9140 N   0  0  0  0  0  0  0  0  0  0  0  0
   40.1580   77.2240   60.4810 H   0  0  0  0  0  0  0  0  0  0  0  0
   39.6920   75.3270   62.0690 H   0  0  0  0  0  0  0  0  0  0  0  0
   38.2800   73.4200   61.2390 H   0  0  0  0  0  0  0  0  0  0  0  0
   37.5790   75.1720   56.8700 S   0  0  0  0  0  0  0  0  0  0  0  0
   36.1760   75.3080   56.9870 H   0  0  0  0  0  0  0  0  0  0  0  0
  1  7  1  0  0  0  0
  1  2  1  0  0  0  0
  2  8  1  0  0  0  0
  3  2  2  0  0  0  0
  3  9  1  0  0  0  0
  4  3  1  0  0  0  0
  5  6  1  0  0  0  0
  5  4  2  0  0  0  0
  6  1  2  0  0  0  0
 10 11  1  0  0  0  0
 10  5  1  0  0  0  0
M  END
>  <minimizedAffinity>
-2.78049636

$$$$

 OpenBabel03212519593D

 11 11  0  0  0  0  0  0  0  0999 V2000
   38.4330   74.2560   60.2200 C   0  0  0  0  0  0  0  0  0  0  0  0
   39.2070   75.1360   61.0170 C   0  0  0  0  0  0  0  0  0  0  0  0
   39.6090   76.3480   60.4590 C   0  0  0  0  0  0  0  0  0  0  0  0
   39.2410   76.6300   59.1740 N   0  0  0  0  0  0  0  0  0  0  0  0
   38.5010   75.7630   58.4450 C   0  0  0  0  0  0  0  0  0  0  0  0
   38.0980   74.5870   58.9560 N   0  0  0  0  0  0  0  0  0  0  0  0
   38.0920   73.3040   60.6000 H   0  0  0  0  0  0  0  0  0  0  0  0
   39.4650   74.8440   62.0420 H   0  0  0  0  0  0  0  0  0  0  0  0
   40.2020   77.0350   61.0510 H   0  0  0  0  0  0  0  0  0  0  0  0
   38.1620   76.3800   56.8020 S   0  0  0  0  0  0  0  0  0  0  0  0
   39.3650   76.3810   56.0570 H   0  0  0  0  0  0  0  0  0  0  0  0
  1  7  1  0  0  0  0
  1  2  1  0  0  0  0
  2  8  1  0  0  0  0
  3  2  2  0  0  0  0
  3  9  1  0  0  0  0
  4  3  1  0  0  0  0
  5  6  1  0  0  0  0
  5  4  2  0  0  0  0
  6  1  2  0  0  0  0
 10  5  1  0  0  0  0
 11 10  1  0  0  0  0
M  END
>  <minimizedAffinity>
-2.75870538

$$$$

 OpenBabel03212519593D

 11 11  0  0  0  0  0  0  0  0999 V2000
   40.9080   66.0660   61.6280 C   0  0  0  0  0  0  0  0  0  0  0  0
   39.7830   66.0080   62.4880 C   0  0  0  0  0  0  0  0  0  0  0  0
   39.6210   67.0210   63.4310 C   0  0  0  0  0  0  0  0  0  0  0  0
   40.5530   68.0200   63.4840 N   0  0  0  0  0  0  0  0  0  0  0  0
   41.6140   68.0400   62.6450 C   0  0  0  0  0  0  0  0  0  0  0  0
   41.7960   67.0780   61.7250 N   0  0  0  0  0  0  0  0  0  0  0  0
   41.0840   65.3090   60.8780 H   0  0  0  0  0  0  0  0  0  0  0  0
   39.0750   65.1760   62.3890 H   0  0  0  0  0  0  0  0  0  0  0  0
   38.7680   66.9950   64.0980 H   0  0  0  0  0  0  0  0  0  0  0  0
   42.6710   69.4540   62.9290 S   0  0  0  0  0  0  0  0  0  0  0  0
   43.3280   69.2910   64.1710 H   0  0  0  0  0  0  0  0  0  0  0  0
  1  6  2  0  0  0  0
  1  2  1  0  0  0  0
  2  3  2  0  0  0  0
  3  4  1  0  0  0  0
  3  9  1  0  0  0  0
  5 10  1  0  0  0  0
  5  4  2  0  0  0  0
  6  5  1  0  0  0  0
  7  1  1  0  0  0  0
  8  2  1  0  0  0  0
 10 11  1  0  0  0  0
M  END
>  <minimizedAffinity>
-2.73158121

$$$$

 OpenBabel03212519593D

 11 11  0  0  0  0  0  0  0  0999 V2000
   38.9150   76.8050   58.1970 C   0  0  0  0  0  0  0  0  0  0  0  0
   38.1130   76.1870   57.2040 C   0  0  0  0  0  0  0  0  0  0  0  0
   37.6120   74.9120   57.4630 C   0  0  0  0  0  0  0  0  0  0  0  0
   37.9170   74.3190   58.6560 N   0  0  0  0  0  0  0  0  0  0  0  0
   38.6870   74.9420   59.5770 C   0  0  0  0  0  0  0  0  0  0  0  0
   39.1830   76.1710   59.3580 N   0  0  0  0  0  0  0  0  0  0  0  0
   39.3300   77.7920   58.0520 H   0  0  0  0  0  0  0  0  0  0  0  0
   37.9100   76.7230   56.2700 H   0  0  0  0  0  0  0  0  0  0  0  0
   36.9980   74.4220   56.7170 H   0  0  0  0  0  0  0  0  0  0  0  0
   38.9260   73.9450   61.0420 S   0  0  0  0  0  0  0  0  0  0  0  0
   39.7560   72.8460   60.7150 H   0  0  0  0  0  0  0  0  0  0  0  0
  1  6  1  0  0  0  0
  2  3  1  0  0  0  0
  2  1  2  0  0  0  0
  3  4  2  0  0  0  0
  4  5  1  0  0  0  0
  5 10  1  0  0  0  0
  6  5  2  0  0  0  0
  7  1  1  0  0  0  0
  8  2  1  0  0  0  0
  9  3  1  0  0  0  0
 11 10  1  0  0  0  0
M  END
>  <minimizedAffinity>
-2.68742347

$$$$

 OpenBabel03212519593D

 11 11  0  0  0  0  0  0  0  0999 V2000
   36.8100   75.1700   56.4670 C   0  0  0  0  0  0  0  0  0  0  0  0
   36.8250   76.3340   55.6570 C   0  0  0  0  0  0  0  0  0  0  0  0
   37.6490   77.3910   56.0390 C   0  0  0  0  0  0  0  0  0  0  0  0
   38.4010   77.2580   57.1720 N   0  0  0  0  0  0  0  0  0  0  0  0
   38.3590   76.1310   57.9190 C   0  0  0  0  0  0  0  0  0  0  0  0
   37.5750   75.0950   57.5770 N   0  0  0  0  0  0  0  0  0  0  0  0
   36.1920   74.3200   56.2200 H   0  0  0  0  0  0  0  0  0  0  0  0
   36.1950   76.3710   54.7610 H   0  0  0  0  0  0  0  0  0  0  0  0
   37.6750   78.2890   55.4340 H   0  0  0  0  0  0  0  0  0  0  0  0
   39.4380   76.2230   59.3420 S   0  0  0  0  0  0  0  0  0  0  0  0
   38.9050   77.1590   60.2590 H   0  0  0  0  0  0  0  0  0  0  0  0
  1  6  1  0  0  0  0
  2  3  1  0  0  0  0
  2  1  2  0  0  0  0
  3  4  2  0  0  0  0
  4  5  1  0  0  0  0
  5 10  1  0  0  0  0
  6  5  2  0  0  0  0
  7  1  1  0  0  0  0
  8  2  1  0  0  0  0
  9  3  1  0  0  0  0
 10 11  1  0  0  0  0
M  END
>  <minimizedAffinity>
-2.63687968

$$$$

 OpenBabel03212519593D

 11 11  0  0  0  0  0  0  0  0999 V2000
   38.0830   74.4090   58.8680 C   0  0  0  0  0  0  0  0  0  0  0  0
   37.6490   74.9440   57.6290 C   0  0  0  0  0  0  0  0  0  0  0  0
   38.0760   76.2230   57.2770 C   0  0  0  0  0  0  0  0  0  0  0  0
   38.8900   76.9010   58.1410 N   0  0  0  0  0  0  0  0  0  0  0  0
   39.2830   76.3560   59.3150 C   0  0  0  0  0  0  0  0  0  0  0  0
   38.8890   75.1250   59.6810 N   0  0  0  0  0  0  0  0  0  0  0  0
   37.7850   73.4230   59.1920 H   0  0  0  0  0  0  0  0  0  0  0  0
   36.9950   74.3430   56.9860 H   0  0  0  0  0  0  0  0  0  0  0  0
   37.7550   76.6500   56.3350 H   0  0  0  0  0  0  0  0  0  0  0  0
   40.3420   77.4540   60.2470 S   0  0  0  0  0  0  0  0  0  0  0  0
   39.5710   78.5440   60.7150 H   0  0  0  0  0  0  0  0  0  0  0  0
  1  7  1  0  0  0  0
  1  6  1  0  0  0  0
  2  1  2  0  0  0  0
  3  2  1  0  0  0  0
  3  4  2  0  0  0  0
  4  5  1  0  0  0  0
  5  6  2  0  0  0  0
  5 10  1  0  0  0  0
  8  2  1  0  0  0  0
  9  3  1  0  0  0  0
 10 11  1  0  0  0  0
M  END
>  <minimizedAffinity>
-2.6007092

$$$$

 OpenBabel03212519593D

 11 11  0  0  0  0  0  0  0  0999 V2000
   40.3770   77.5090   60.4510 C   0  0  0  0  0  0  0  0  0  0  0  0
   41.5120   77.3230   59.6220 C   0  0  0  0  0  0  0  0  0  0  0  0
   41.8820   76.0190   59.2960 C   0  0  0  0  0  0  0  0  0  0  0  0
   41.1380   74.9850   59.7890 N   0  0  0  0  0  0  0  0  0  0  0  0
   40.0610   75.2040   60.5780 C   0  0  0  0  0  0  0  0  0  0  0  0
   39.6780   76.4490   60.9090 N   0  0  0  0  0  0  0  0  0  0  0  0
   40.0430   78.4960   60.7350 H   0  0  0  0  0  0  0  0  0  0  0  0
   42.0620   78.2000   59.2620 H   0  0  0  0  0  0  0  0  0  0  0  0
   42.7470   75.8550   58.6640 H   0  0  0  0  0  0  0  0  0  0  0  0
   39.2710   73.6810   61.0810 S   0  0  0  0  0  0  0  0  0  0  0  0
   40.1210   73.0050   61.9880 H   0  0  0  0  0  0  0  0  0  0  0  0
  1  7  1  0  0  0  0
  1  6  1  0  0  0  0
  2  1  2  0  0  0  0
  3  2  1  0  0  0  0
  3  4  2  0  0  0  0
  4  5  1  0  0  0  0
  5  6  2  0  0  0  0
  5 10  1  0  0  0  0
  8  2  1  0  0  0  0
  9  3  1  0  0  0  0
 10 11  1  0  0  0  0
M  END
>  <minimizedAffinity>
-2.57001781

$$$$

 OpenBabel03212519593D

 11 11  0  0  0  0  0  0  0  0999 V2000
   41.8420   71.9320   62.5280 C   0  0  0  0  0  0  0  0  0  0  0  0
   42.8750   72.3260   61.6400 C   0  0  0  0  0  0  0  0  0  0  0  0
   42.5610   73.2250   60.6220 C   0  0  0  0  0  0  0  0  0  0  0  0
   41.2770   73.6840   60.5270 N   0  0  0  0  0  0  0  0  0  0  0  0
   40.3190   73.2850   61.3950 C   0  0  0  0  0  0  0  0  0  0  0  0
   40.5910   72.4190   62.3860 N   0  0  0  0  0  0  0  0  0  0  0  0
   42.0260   71.2390   63.3350 H   0  0  0  0  0  0  0  0  0  0  0  0
   43.8820   71.9160   61.7760 H   0  0  0  0  0  0  0  0  0  0  0  0
   43.3360   73.5380   59.9330 H   0  0  0  0  0  0  0  0  0  0  0  0
   38.7360   74.0370   61.0440 S   0  0  0  0  0  0  0  0  0  0  0  0
   38.2310   73.4970   59.8380 H   0  0  0  0  0  0  0  0  0  0  0  0
  1  7  1  0  0  0  0
  2  8  1  0  0  0  0
  2  1  2  0  0  0  0
  3  2  1  0  0  0  0
  4  3  2  0  0  0  0
  4  5  1  0  0  0  0
  5  6  2  0  0  0  0
  6  1  1  0  0  0  0
  9  3  1  0  0  0  0
 10  5  1  0  0  0  0
 11 10  1  0  0  0  0
M  END
>  <minimizedAffinity>
-2.56706524

$$$$
