
 OpenBabel03212520463D

 13 13  0  0  0  0  0  0  0  0999 V2000
   37.4530   74.7600   57.5310 C   0  0  0  0  0  0  0  0  0  0  0  0
   37.9140   76.0410   57.1840 C   0  0  0  0  0  0  0  0  0  0  0  0
   38.7760   76.6940   58.0710 C   0  0  0  0  0  0  0  0  0  0  0  0
   39.1150   76.0570   59.2110 N   0  0  0  0  0  0  0  0  0  0  0  0
   38.6580   74.8300   59.5190 C   0  0  0  0  0  0  0  0  0  0  0  0
   37.8360   74.2030   58.6760 N   0  0  0  0  0  0  0  0  0  0  0  0
   36.5870   74.2040   56.5520 N   0  0  0  0  0  0  0  0  0  0  0  0
   37.6440   76.5570   56.2690 H   0  0  0  0  0  0  0  0  0  0  0  0
   39.1510   77.6730   57.8450 H   0  0  0  0  0  0  0  0  0  0  0  0
   35.5380   74.2470   56.6820 H   0  0  0  0  0  0  0  0  0  0  0  0
   37.1000   73.7880   55.7560 H   0  0  0  0  0  0  0  0  0  0  0  0
   39.0770   73.9450   61.0130 S   0  0  0  0  0  0  0  0  0  0  0  0
   40.4440   73.8060   61.1970 H   0  0  0  0  0  0  0  0  0  0  0  0
  1  6  1  0  0  0  0
  2  1  2  0  0  0  0
  2  3  1  0  0  0  0
  3  4  2  0  0  0  0
  4  5  1  0  0  0  0
  5 12  1  0  0  0  0
  6  5  2  0  0  0  0
  7 10  1  0  0  0  0
  7  1  1  0  0  0  0
  8  2  1  0  0  0  0
  9  3  1  0  0  0  0
 11  7  1  0  0  0  0
 12 13  1  0  0  0  0
M  END
>  <minimizedAffinity>
-3.397614

$$$$

 OpenBabel03212520463D

 13 13  0  0  0  0  0  0  0  0999 V2000
   37.2660   74.9910   57.0010 C   0  0  0  0  0  0  0  0  0  0  0  0
   37.2360   76.0770   56.1090 C   0  0  0  0  0  0  0  0  0  0  0  0
   37.9850   77.2140   56.4290 C   0  0  0  0  0  0  0  0  0  0  0  0
   38.6940   77.2040   57.5770 N   0  0  0  0  0  0  0  0  0  0  0  0
   38.7040   76.1510   58.4140 C   0  0  0  0  0  0  0  0  0  0  0  0
   37.9920   75.0640   58.1130 N   0  0  0  0  0  0  0  0  0  0  0  0
   36.4670   73.9000   56.5660 N   0  0  0  0  0  0  0  0  0  0  0  0
   36.6670   76.0890   55.1860 H   0  0  0  0  0  0  0  0  0  0  0  0
   37.9900   78.0650   55.7760 H   0  0  0  0  0  0  0  0  0  0  0  0
   35.4950   73.7610   56.9610 H   0  0  0  0  0  0  0  0  0  0  0  0
   36.9430   73.3140   55.8590 H   0  0  0  0  0  0  0  0  0  0  0  0
   39.6250   76.0880   59.9440 S   0  0  0  0  0  0  0  0  0  0  0  0
   40.9770   76.3450   59.7740 H   0  0  0  0  0  0  0  0  0  0  0  0
  1  6  1  0  0  0  0
  2  3  1  0  0  0  0
  2  1  2  0  0  0  0
  3  4  2  0  0  0  0
  4  5  1  0  0  0  0
  5 12  1  0  0  0  0
  6  5  2  0  0  0  0
  7 10  1  0  0  0  0
  7  1  1  0  0  0  0
  8  2  1  0  0  0  0
  9  3  1  0  0  0  0
 11  7  1  0  0  0  0
 13 12  1  0  0  0  0
M  END
>  <minimizedAffinity>
-3.3878715

$$$$

 OpenBabel03212520463D

 13 13  0  0  0  0  0  0  0  0999 V2000
   39.2190   75.4660   60.1780 C   0  0  0  0  0  0  0  0  0  0  0  0
   39.8070   76.7390   60.0910 C   0  0  0  0  0  0  0  0  0  0  0  0
   39.5930   77.4860   58.9280 C   0  0  0  0  0  0  0  0  0  0  0  0
   38.8350   76.9400   57.9540 N   0  0  0  0  0  0  0  0  0  0  0  0
   38.2840   75.7190   58.0640 C   0  0  0  0  0  0  0  0  0  0  0  0
   38.4840   75.0020   59.1720 N   0  0  0  0  0  0  0  0  0  0  0  0
   39.5090   74.8100   61.4040 N   0  0  0  0  0  0  0  0  0  0  0  0
   40.4180   77.1810   60.8710 H   0  0  0  0  0  0  0  0  0  0  0  0
   40.0240   78.4620   58.8200 H   0  0  0  0  0  0  0  0  0  0  0  0
   40.2780   74.0840   61.4510 H   0  0  0  0  0  0  0  0  0  0  0  0
   38.9030   75.1270   62.1790 H   0  0  0  0  0  0  0  0  0  0  0  0
   37.2720   74.9530   56.8050 S   0  0  0  0  0  0  0  0  0  0  0  0
   36.1900   75.7330   56.4300 H   0  0  0  0  0  0  0  0  0  0  0  0
  1  7  1  0  0  0  0
  2  1  1  0  0  0  0
  2  8  1  0  0  0  0
  3  2  2  0  0  0  0
  4  5  2  0  0  0  0
  4  3  1  0  0  0  0
  5  6  1  0  0  0  0
  6  1  2  0  0  0  0
  7 10  1  0  0  0  0
  7 11  1  0  0  0  0
  9  3  1  0  0  0  0
 12  5  1  0  0  0  0
 13 12  1  0  0  0  0
M  END
>  <minimizedAffinity>
-3.25193548

$$$$

 OpenBabel03212520463D

 13 13  0  0  0  0  0  0  0  0999 V2000
   38.8850   74.6690   60.7770 C   0  0  0  0  0  0  0  0  0  0  0  0
   39.9380   73.8710   61.2560 C   0  0  0  0  0  0  0  0  0  0  0  0
   40.3800   72.8130   60.4570 C   0  0  0  0  0  0  0  0  0  0  0  0
   39.7700   72.6170   59.2690 N   0  0  0  0  0  0  0  0  0  0  0  0
   38.7630   73.3960   58.8340 C   0  0  0  0  0  0  0  0  0  0  0  0
   38.3380   74.4080   59.5930 N   0  0  0  0  0  0  0  0  0  0  0  0
   38.5280   75.7080   61.6780 N   0  0  0  0  0  0  0  0  0  0  0  0
   40.4300   74.0250   62.2110 H   0  0  0  0  0  0  0  0  0  0  0  0
   41.1800   72.1790   60.7850 H   0  0  0  0  0  0  0  0  0  0  0  0
   37.6970   75.5930   62.3210 H   0  0  0  0  0  0  0  0  0  0  0  0
   39.1580   76.5260   61.6130 H   0  0  0  0  0  0  0  0  0  0  0  0
   37.9240   73.1790   57.2720 S   0  0  0  0  0  0  0  0  0  0  0  0
   38.7870   73.1770   56.1880 H   0  0  0  0  0  0  0  0  0  0  0  0
  1  2  1  0  0  0  0
  1  7  1  0  0  0  0
  2  8  1  0  0  0  0
  3  9  1  0  0  0  0
  3  2  2  0  0  0  0
  4  3  1  0  0  0  0
  5  4  2  0  0  0  0
  5  6  1  0  0  0  0
  6  1  2  0  0  0  0
  7 10  1  0  0  0  0
 11  7  1  0  0  0  0
 12  5  1  0  0  0  0
 13 12  1  0  0  0  0
M  END
>  <minimizedAffinity>
-3.22546887

$$$$

 OpenBabel03212520463D

 13 13  0  0  0  0  0  0  0  0999 V2000
   39.5600   74.9780   60.9760 C   0  0  0  0  0  0  0  0  0  0  0  0
   39.5980   73.5880   61.1760 C   0  0  0  0  0  0  0  0  0  0  0  0
   40.6550   72.8690   60.6060 C   0  0  0  0  0  0  0  0  0  0  0  0
   41.5770   73.5510   59.8970 N   0  0  0  0  0  0  0  0  0  0  0  0
   41.5160   74.8830   59.7210 C   0  0  0  0  0  0  0  0  0  0  0  0
   40.5110   75.5740   60.2620 N   0  0  0  0  0  0  0  0  0  0  0  0
   38.4420   75.5920   61.6010 N   0  0  0  0  0  0  0  0  0  0  0  0
   38.8580   73.0350   61.7450 H   0  0  0  0  0  0  0  0  0  0  0  0
   40.7220   71.8060   60.7340 H   0  0  0  0  0  0  0  0  0  0  0  0
   37.5790   75.8290   61.0370 H   0  0  0  0  0  0  0  0  0  0  0  0
   38.5910   75.7560   62.6120 H   0  0  0  0  0  0  0  0  0  0  0  0
   42.7110   75.8330   58.7920 S   0  0  0  0  0  0  0  0  0  0  0  0
   44.0120   75.6520   59.2360 H   0  0  0  0  0  0  0  0  0  0  0  0
  1  2  1  0  0  0  0
  1  7  1  0  0  0  0
  2  8  1  0  0  0  0
  3  9  1  0  0  0  0
  3  2  2  0  0  0  0
  4  3  1  0  0  0  0
  5  4  2  0  0  0  0
  5  6  1  0  0  0  0
  6  1  2  0  0  0  0
  7 11  1  0  0  0  0
 10  7  1  0  0  0  0
 12 13  1  0  0  0  0
 12  5  1  0  0  0  0
M  END
>  <minimizedAffinity>
-3.21050406

$$$$

 OpenBabel03212520463D

 13 13  0  0  0  0  0  0  0  0999 V2000
   37.6390   73.4670   57.5300 C   0  0  0  0  0  0  0  0  0  0  0  0
   38.3000   72.2700   57.2040 C   0  0  0  0  0  0  0  0  0  0  0  0
   39.3030   71.8150   58.0660 C   0  0  0  0  0  0  0  0  0  0  0  0
   39.5800   72.5520   59.1620 N   0  0  0  0  0  0  0  0  0  0  0  0
   38.9320   73.6940   59.4510 C   0  0  0  0  0  0  0  0  0  0  0  0
   37.9730   74.1330   58.6320 N   0  0  0  0  0  0  0  0  0  0  0  0
   36.6450   73.8220   56.5800 N   0  0  0  0  0  0  0  0  0  0  0  0
   38.0810   71.6760   56.3240 H   0  0  0  0  0  0  0  0  0  0  0  0
   39.8330   70.9070   57.8550 H   0  0  0  0  0  0  0  0  0  0  0  0
   36.8560   74.5390   55.8310 H   0  0  0  0  0  0  0  0  0  0  0  0
   35.7580   73.3100   56.7210 H   0  0  0  0  0  0  0  0  0  0  0  0
   39.2590   74.7050   60.8880 S   0  0  0  0  0  0  0  0  0  0  0  0
   39.1640   74.0010   62.0780 H   0  0  0  0  0  0  0  0  0  0  0  0
  1  6  1  0  0  0  0
  2  1  2  0  0  0  0
  2  3  1  0  0  0  0
  3  4  2  0  0  0  0
  4  5  1  0  0  0  0
  5 12  1  0  0  0  0
  6  5  2  0  0  0  0
  7 11  1  0  0  0  0
  7  1  1  0  0  0  0
  8  2  1  0  0  0  0
  9  3  1  0  0  0  0
 10  7  1  0  0  0  0
 12 13  1  0  0  0  0
M  END
>  <minimizedAffinity>
-3.16340137

$$$$

 OpenBabel03212520463D

 13 13  0  0  0  0  0  0  0  0999 V2000
   39.7020   75.7140   60.8500 C   0  0  0  0  0  0  0  0  0  0  0  0
   40.0830   77.0120   60.4720 C   0  0  0  0  0  0  0  0  0  0  0  0
   41.2290   77.1600   59.6830 C   0  0  0  0  0  0  0  0  0  0  0  0
   41.9030   76.0470   59.3290 N   0  0  0  0  0  0  0  0  0  0  0  0
   41.5160   74.8150   59.7040 C   0  0  0  0  0  0  0  0  0  0  0  0
   40.4240   74.6680   60.4570 N   0  0  0  0  0  0  0  0  0  0  0  0
   38.5270   75.6960   61.6470 N   0  0  0  0  0  0  0  0  0  0  0  0
   39.5440   77.9100   60.7550 H   0  0  0  0  0  0  0  0  0  0  0  0
   41.5550   78.1340   59.3730 H   0  0  0  0  0  0  0  0  0  0  0  0
   38.5990   75.6150   62.7000 H   0  0  0  0  0  0  0  0  0  0  0  0
   37.6620   75.7710   61.0850 H   0  0  0  0  0  0  0  0  0  0  0  0
   42.3730   73.3100   59.2630 S   0  0  0  0  0  0  0  0  0  0  0  0
   42.5420   73.1640   57.8940 H   0  0  0  0  0  0  0  0  0  0  0  0
  1  7  1  0  0  0  0
  2  8  1  0  0  0  0
  2  1  1  0  0  0  0
  3  2  2  0  0  0  0
  4  3  1  0  0  0  0
  4  5  2  0  0  0  0
  5  6  1  0  0  0  0
  6  1  2  0  0  0  0
  7 10  1  0  0  0  0
  9  3  1  0  0  0  0
 11  7  1  0  0  0  0
 12  5  1  0  0  0  0
 13 12  1  0  0  0  0
M  END
>  <minimizedAffinity>
-3.1471529

$$$$

 OpenBabel03212520463D

 13 13  0  0  0  0  0  0  0  0999 V2000
   39.5080   76.4980   59.9380 C   0  0  0  0  0  0  0  0  0  0  0  0
   39.3410   75.6040   61.0090 C   0  0  0  0  0  0  0  0  0  0  0  0
   38.5850   74.4480   60.7920 C   0  0  0  0  0  0  0  0  0  0  0  0
   38.0580   74.2570   59.5650 N   0  0  0  0  0  0  0  0  0  0  0  0
   38.2330   75.1290   58.5560 C   0  0  0  0  0  0  0  0  0  0  0  0
   38.9540   76.2340   58.7590 N   0  0  0  0  0  0  0  0  0  0  0  0
   40.2940   77.6300   60.2850 N   0  0  0  0  0  0  0  0  0  0  0  0
   39.7630   75.7550   61.9980 H   0  0  0  0  0  0  0  0  0  0  0  0
   38.4330   73.7400   61.5820 H   0  0  0  0  0  0  0  0  0  0  0  0
   39.8270   78.5460   60.5330 H   0  0  0  0  0  0  0  0  0  0  0  0
   41.3090   77.4340   60.2600 H   0  0  0  0  0  0  0  0  0  0  0  0
   37.5570   74.9220   56.9150 S   0  0  0  0  0  0  0  0  0  0  0  0
   37.9140   73.7180   56.3290 H   0  0  0  0  0  0  0  0  0  0  0  0
  1  7  1  0  0  0  0
  1  2  1  0  0  0  0
  2  8  1  0  0  0  0
  3  2  2  0  0  0  0
  3  9  1  0  0  0  0
  4  3  1  0  0  0  0
  5  6  1  0  0  0  0
  5  4  2  0  0  0  0
  6  1  2  0  0  0  0
  7 10  1  0  0  0  0
 11  7  1  0  0  0  0
 12  5  1  0  0  0  0
 13 12  1  0  0  0  0
M  END
>  <minimizedAffinity>
-3.12772155

$$$$

 OpenBabel03212520463D

 13 13  0  0  0  0  0  0  0  0999 V2000
   39.3020   75.6480   60.5660 C   0  0  0  0  0  0  0  0  0  0  0  0
   40.2910   74.6540   60.6540 C   0  0  0  0  0  0  0  0  0  0  0  0
   41.1940   74.5250   59.5940 C   0  0  0  0  0  0  0  0  0  0  0  0
   41.0650   75.3640   58.5460 N   0  0  0  0  0  0  0  0  0  0  0  0
   40.1090   76.3080   58.4860 C   0  0  0  0  0  0  0  0  0  0  0  0
   39.2450   76.4350   59.4950 N   0  0  0  0  0  0  0  0  0  0  0  0
   38.4490   75.6780   61.7010 N   0  0  0  0  0  0  0  0  0  0  0  0
   40.3980   73.9770   61.4950 H   0  0  0  0  0  0  0  0  0  0  0  0
   41.9640   73.7790   59.6210 H   0  0  0  0  0  0  0  0  0  0  0  0
   37.5010   75.2100   61.6670 H   0  0  0  0  0  0  0  0  0  0  0  0
   38.8670   76.1840   62.5010 H   0  0  0  0  0  0  0  0  0  0  0  0
   39.8950   77.4430   57.1220 S   0  0  0  0  0  0  0  0  0  0  0  0
   41.0430   78.1650   56.8330 H   0  0  0  0  0  0  0  0  0  0  0  0
  1  2  1  0  0  0  0
  1  7  1  0  0  0  0
  2  8  1  0  0  0  0
  3  9  1  0  0  0  0
  3  2  2  0  0  0  0
  4  3  1  0  0  0  0
  5  4  2  0  0  0  0
  5  6  1  0  0  0  0
  6  1  2  0  0  0  0
  7 11  1  0  0  0  0
 10  7  1  0  0  0  0
 12  5  1  0  0  0  0
 13 12  1  0  0  0  0
M  END
>  <minimizedAffinity>
-3.05006409

$$$$
