
 OpenBabel03212521033D

 21 22  0  0  0  0  0  0  0  0999 V2000
   41.9810   84.2370   61.7830 C   0  0  0  0  0  0  0  0  0  0  0  0
   42.5750   84.4380   63.0140 C   0  0  0  0  0  0  0  0  0  0  0  0
   41.9040   84.2030   64.1950 C   0  0  0  0  0  0  0  0  0  0  0  0
   40.5860   83.7490   64.1530 C   0  0  0  0  0  0  0  0  0  0  0  0
   39.9750   83.5420   62.9010 C   0  0  0  0  0  0  0  0  0  0  0  0
   40.6560   83.7810   61.7270 C   0  0  0  0  0  0  0  0  0  0  0  0
   43.5940   84.7900   63.1410 H   0  0  0  0  0  0  0  0  0  0  0  0
   42.3090   84.3400   65.1800 H   0  0  0  0  0  0  0  0  0  0  0  0
   39.9340   83.5210   64.9840 H   0  0  0  0  0  0  0  0  0  0  0  0
   38.9590   83.1920   62.7660 H   0  0  0  0  0  0  0  0  0  0  0  0
   44.2000   83.7790   58.9010 C   0  0  0  0  0  0  0  0  0  0  0  0
   44.1370   85.0430   58.2780 C   0  0  0  0  0  0  0  0  0  0  0  0
   43.3260   86.0520   58.8550 C   0  0  0  0  0  0  0  0  0  0  0  0
   42.6650   85.7160   59.9800 N   0  0  0  0  0  0  0  0  0  0  0  0
   42.7340   84.5010   60.5670 C   0  0  0  0  0  0  0  0  0  0  0  0
   43.4980   83.5430   60.0280 N   0  0  0  0  0  0  0  0  0  0  0  0
   44.8320   83.0430   58.4240 H   0  0  0  0  0  0  0  0  0  0  0  0
   44.6590   85.3270   57.3790 H   0  0  0  0  0  0  0  0  0  0  0  0
   43.2170   87.0320   58.4550 H   0  0  0  0  0  0  0  0  0  0  0  0
   39.9380   83.5390   60.1140 S   0  0  0  0  0  0  0  0  0  0  0  0
   40.9040   83.0250   59.2620 H   0  0  0  0  0  0  0  0  0  0  0  0
  1  2  1  0  0  0  0
  2  7  1  0  0  0  0
  2  3  2  0  0  0  0
  3  8  1  0  0  0  0
  4  3  1  0  0  0  0
  4  9  1  0  0  0  0
  5  4  2  0  0  0  0
  6  1  2  0  0  0  0
  6  5  1  0  0  0  0
 10  5  1  0  0  0  0
 11 16  1  0  0  0  0
 12 13  1  0  0  0  0
 12 11  2  0  0  0  0
 13 14  2  0  0  0  0
 14 15  1  0  0  0  0
 15  1  1  0  0  0  0
 16 15  2  0  0  0  0
 17 11  1  0  0  0  0
 18 12  1  0  0  0  0
 19 13  1  0  0  0  0
 20  6  1  0  0  0  0
 21 20  1  0  0  0  0
M  END
>  <minimizedAffinity>
-4.20420408

>  <minimizedRMSD>
0.895659566

$$$$
