
 OpenBabel03212520483D

 21 22  0  0  0  0  0  0  0  0999 V2000
   43.6190   86.3510   59.7380 C   0  0  0  0  0  0  0  0  0  0  0  0
   42.9180   86.4640   58.5260 C   0  0  0  0  0  0  0  0  0  0  0  0
   41.7500   85.7160   58.3210 C   0  0  0  0  0  0  0  0  0  0  0  0
   41.3680   84.9070   59.3500 N   0  0  0  0  0  0  0  0  0  0  0  0
   42.0480   84.8160   60.4900 C   0  0  0  0  0  0  0  0  0  0  0  0
   43.1640   85.5230   60.7010 N   0  0  0  0  0  0  0  0  0  0  0  0
   44.7700   87.1580   59.7830 N   0  0  0  0  0  0  0  0  0  0  0  0
   43.1880   87.0910   57.6890 H   0  0  0  0  0  0  0  0  0  0  0  0
   41.1890   85.7800   57.4020 H   0  0  0  0  0  0  0  0  0  0  0  0
   44.7640   88.1550   60.1430 H   0  0  0  0  0  0  0  0  0  0  0  0
   45.5020   86.5030   59.3910 H   0  0  0  0  0  0  0  0  0  0  0  0
   41.5640   83.9190   61.5400 C   0  0  0  0  0  0  0  0  0  0  0  0
   41.0760   84.3870   62.7310 C   0  0  0  0  0  0  0  0  0  0  0  0
   40.6170   83.4950   63.7240 C   0  0  0  0  0  0  0  0  0  0  0  0
   40.6560   82.1770   63.5020 N   0  0  0  0  0  0  0  0  0  0  0  0
   41.1380   81.7180   62.3220 C   0  0  0  0  0  0  0  0  0  0  0  0
   41.5830   82.5750   61.3620 N   0  0  0  0  0  0  0  0  0  0  0  0
   41.0300   85.4380   62.9440 H   0  0  0  0  0  0  0  0  0  0  0  0
   40.2300   83.8660   64.6690 H   0  0  0  0  0  0  0  0  0  0  0  0
   41.2710   80.0010   61.8420 S   0  0  0  0  0  0  0  0  0  0  0  0
   41.9350   79.8750   60.6010 H   0  0  0  0  0  0  0  0  0  0  0  0
  1  7  1  0  0  0  0
  1  6  1  0  0  0  0
  2  1  2  0  0  0  0
  3  2  1  0  0  0  0
  3  4  2  0  0  0  0
  4  5  1  0  0  0  0
  5  6  2  0  0  0  0
  5 12  1  0  0  0  0
  7 10  1  0  0  0  0
  8  2  1  0  0  0  0
  9  3  1  0  0  0  0
 11  7  1  0  0  0  0
 12 13  1  0  0  0  0
 13 18  1  0  0  0  0
 13 14  2  0  0  0  0
 14 19  1  0  0  0  0
 15 14  1  0  0  0  0
 16 15  2  0  0  0  0
 17 12  2  0  0  0  0
 17 16  1  0  0  0  0
 20 16  1  0  0  0  0
 21 20  1  0  0  0  0
M  END
>  <minimizedAffinity>
-4.40276051

>  <minimizedRMSD>
0.0258716177

$$$$
