
 OpenBabel03212520273D

 21 22  0  0  0  0  0  0  0  0999 V2000
   37.8290   75.3830   57.5850 C   0  0  0  0  0  0  0  0  0  0  0  0
   37.2530   74.4040   56.7980 C   0  0  0  0  0  0  0  0  0  0  0  0
   36.6990   75.1660   55.7570 C   0  0  0  0  0  0  0  0  0  0  0  0
   36.9400   76.4790   55.9380 N   0  0  0  0  0  0  0  0  0  0  0  0
   37.6310   76.5820   57.0600 N   0  0  0  0  0  0  0  0  0  0  0  0
   37.2300   73.3430   56.9340 H   0  0  0  0  0  0  0  0  0  0  0  0
   36.1480   74.7170   54.9230 H   0  0  0  0  0  0  0  0  0  0  0  0
   39.8920   75.8260   60.6620 C   0  0  0  0  0  0  0  0  0  0  0  0
   39.2150   76.1430   59.4800 C   0  0  0  0  0  0  0  0  0  0  0  0
   38.5550   75.1250   58.8190 C   0  0  0  0  0  0  0  0  0  0  0  0
   38.5830   73.8510   59.3300 N   0  0  0  0  0  0  0  0  0  0  0  0
   39.2560   73.5940   60.4830 C   0  0  0  0  0  0  0  0  0  0  0  0
   39.9020   74.5800   61.1360 N   0  0  0  0  0  0  0  0  0  0  0  0
   40.4280   76.5880   61.2210 H   0  0  0  0  0  0  0  0  0  0  0  0
   39.2180   77.1590   59.1120 H   0  0  0  0  0  0  0  0  0  0  0  0
   39.1830   72.5460   60.7550 H   0  0  0  0  0  0  0  0  0  0  0  0
   36.5340   77.5880   55.0800 C   0  0  0  0  0  0  0  0  0  0  0  0
   35.4570   77.7960   55.3340 H   0  0  0  0  0  0  0  0  0  0  0  0
   37.1910   78.4660   55.2610 H   0  0  0  0  0  0  0  0  0  0  0  0
   36.6500   77.0010   53.3550 S   0  0  0  0  0  0  0  0  0  0  0  0
   36.5400   78.0750   52.4500 H   0  0  0  0  0  0  0  0  0  0  0  0
  1 10  1  0  0  0  0
  2  6  1  0  0  0  0
  2  1  1  0  0  0  0
  3  4  1  0  0  0  0
  3  2  2  0  0  0  0
  4  5  1  0  0  0  0
  5  1  2  0  0  0  0
  7  3  1  0  0  0  0
  8 13  1  0  0  0  0
  8 14  1  0  0  0  0
  9  8  2  0  0  0  0
 10 11  2  0  0  0  0
 10  9  1  0  0  0  0
 11 12  1  0  0  0  0
 12 16  1  0  0  0  0
 12 13  2  0  0  0  0
 15  9  1  0  0  0  0
 17 19  1  0  0  0  0
 17 18  1  0  0  0  0
 17  4  1  0  0  0  0
 20 17  1  0  0  0  0
 21 20  1  0  0  0  0
M  END
>  <minimizedAffinity>
-4.25492048

$$$$

 OpenBabel03212520273D

 21 22  0  0  0  0  0  0  0  0999 V2000
   38.3300   75.7250   57.9770 C   0  0  0  0  0  0  0  0  0  0  0  0
   39.1250   76.6590   58.6120 C   0  0  0  0  0  0  0  0  0  0  0  0
   39.2990   76.0710   59.8760 C   0  0  0  0  0  0  0  0  0  0  0  0
   38.6510   74.8930   59.9540 N   0  0  0  0  0  0  0  0  0  0  0  0
   38.0690   74.7070   58.7820 N   0  0  0  0  0  0  0  0  0  0  0  0
   39.5140   77.5870   58.2500 H   0  0  0  0  0  0  0  0  0  0  0  0
   39.8910   76.5390   60.6700 H   0  0  0  0  0  0  0  0  0  0  0  0
   37.7340   75.1210   54.3440 C   0  0  0  0  0  0  0  0  0  0  0  0
   38.2340   74.9450   55.6390 C   0  0  0  0  0  0  0  0  0  0  0  0
   37.8490   75.8480   56.6090 C   0  0  0  0  0  0  0  0  0  0  0  0
   37.0010   76.8780   56.2830 N   0  0  0  0  0  0  0  0  0  0  0  0
   36.5430   77.0060   55.0100 C   0  0  0  0  0  0  0  0  0  0  0  0
   36.9120   76.1300   54.0560 N   0  0  0  0  0  0  0  0  0  0  0  0
   38.0060   74.4400   53.5430 H   0  0  0  0  0  0  0  0  0  0  0  0
   38.8990   74.1200   55.8520 H   0  0  0  0  0  0  0  0  0  0  0  0
   35.8860   77.8650   54.9140 H   0  0  0  0  0  0  0  0  0  0  0  0
   38.5900   73.9800   61.0920 C   0  0  0  0  0  0  0  0  0  0  0  0
   38.3640   74.6220   61.9890 H   0  0  0  0  0  0  0  0  0  0  0  0
   37.8130   73.2060   60.9150 H   0  0  0  0  0  0  0  0  0  0  0  0
   40.2500   73.2430   61.2760 S   0  0  0  0  0  0  0  0  0  0  0  0
   40.2200   72.1540   62.1700 H   0  0  0  0  0  0  0  0  0  0  0  0
  1  2  1  0  0  0  0
  1  5  2  0  0  0  0
  2  3  2  0  0  0  0
  3  4  1  0  0  0  0
  3  7  1  0  0  0  0
  4 17  1  0  0  0  0
  5  4  1  0  0  0  0
  6  2  1  0  0  0  0
  8  9  1  0  0  0  0
  9 15  1  0  0  0  0
  9 10  2  0  0  0  0
 10  1  1  0  0  0  0
 11 10  1  0  0  0  0
 12 11  2  0  0  0  0
 13  8  2  0  0  0  0
 13 12  1  0  0  0  0
 14  8  1  0  0  0  0
 16 12  1  0  0  0  0
 17 20  1  0  0  0  0
 17 18  1  0  0  0  0
 19 17  1  0  0  0  0
 20 21  1  0  0  0  0
M  END
>  <minimizedAffinity>
-4.24222517

$$$$

 OpenBabel03212520273D

 21 22  0  0  0  0  0  0  0  0999 V2000
   38.8930   74.3660   59.3770 C   0  0  0  0  0  0  0  0  0  0  0  0
   38.3800   74.3020   60.6580 C   0  0  0  0  0  0  0  0  0  0  0  0
   39.2690   73.4070   61.2750 C   0  0  0  0  0  0  0  0  0  0  0  0
   40.2160   72.9930   60.4110 N   0  0  0  0  0  0  0  0  0  0  0  0
   39.9610   73.5940   59.2610 N   0  0  0  0  0  0  0  0  0  0  0  0
   37.5320   74.7980   61.0810 H   0  0  0  0  0  0  0  0  0  0  0  0
   39.1740   73.1070   62.3250 H   0  0  0  0  0  0  0  0  0  0  0  0
   38.1680   77.2010   57.0620 C   0  0  0  0  0  0  0  0  0  0  0  0
   38.7480   76.4790   58.1110 C   0  0  0  0  0  0  0  0  0  0  0  0
   38.3330   75.1770   58.3060 C   0  0  0  0  0  0  0  0  0  0  0  0
   37.3780   74.6350   57.4810 N   0  0  0  0  0  0  0  0  0  0  0  0
   36.8450   75.3790   56.4750 C   0  0  0  0  0  0  0  0  0  0  0  0
   37.2430   76.6500   56.2760 N   0  0  0  0  0  0  0  0  0  0  0  0
   38.4580   78.2290   56.8650 H   0  0  0  0  0  0  0  0  0  0  0  0
   39.4960   76.9440   58.7360 H   0  0  0  0  0  0  0  0  0  0  0  0
   36.1080   74.8110   55.9150 H   0  0  0  0  0  0  0  0  0  0  0  0
   41.3160   72.0690   60.6660 C   0  0  0  0  0  0  0  0  0  0  0  0
   40.8930   71.0360   60.5130 H   0  0  0  0  0  0  0  0  0  0  0  0
   42.1620   72.2880   59.9800 H   0  0  0  0  0  0  0  0  0  0  0  0
   41.7940   72.2760   62.4160 S   0  0  0  0  0  0  0  0  0  0  0  0
   43.0160   71.6270   62.6840 H   0  0  0  0  0  0  0  0  0  0  0  0
  1  2  1  0  0  0  0
  2  6  1  0  0  0  0
  2  3  2  0  0  0  0
  3  7  1  0  0  0  0
  4 17  1  0  0  0  0
  4  3  1  0  0  0  0
  5  1  2  0  0  0  0
  5  4  1  0  0  0  0
  8  9  1  0  0  0  0
  9 10  2  0  0  0  0
  9 15  1  0  0  0  0
 10  1  1  0  0  0  0
 11 10  1  0  0  0  0
 12 11  2  0  0  0  0
 13 12  1  0  0  0  0
 13  8  2  0  0  0  0
 14  8  1  0  0  0  0
 16 12  1  0  0  0  0
 17 20  1  0  0  0  0
 18 17  1  0  0  0  0
 19 17  1  0  0  0  0
 20 21  1  0  0  0  0
M  END
>  <minimizedAffinity>
-4.19382429

$$$$

 OpenBabel03212520273D

 21 22  0  0  0  0  0  0  0  0999 V2000
   40.3830   73.6110   61.1110 C   0  0  0  0  0  0  0  0  0  0  0  0
   39.0060   73.6160   61.2270 C   0  0  0  0  0  0  0  0  0  0  0  0
   38.6830   74.8800   60.7060 C   0  0  0  0  0  0  0  0  0  0  0  0
   39.7910   75.5430   60.3240 N   0  0  0  0  0  0  0  0  0  0  0  0
   40.8130   74.7450   60.5830 N   0  0  0  0  0  0  0  0  0  0  0  0
   38.3490   72.8640   61.6090 H   0  0  0  0  0  0  0  0  0  0  0  0
   37.6520   75.2450   60.6360 H   0  0  0  0  0  0  0  0  0  0  0  0
   43.0470   70.9990   61.1500 C   0  0  0  0  0  0  0  0  0  0  0  0
   42.2620   72.0660   60.7000 C   0  0  0  0  0  0  0  0  0  0  0  0
   41.2380   72.5050   61.5150 C   0  0  0  0  0  0  0  0  0  0  0  0
   41.0190   71.8910   62.7240 N   0  0  0  0  0  0  0  0  0  0  0  0
   41.8100   70.8570   63.1160 C   0  0  0  0  0  0  0  0  0  0  0  0
   42.8120   70.4220   62.3290 N   0  0  0  0  0  0  0  0  0  0  0  0
   43.8650   70.6140   60.5480 H   0  0  0  0  0  0  0  0  0  0  0  0
   42.4690   72.5200   59.7420 H   0  0  0  0  0  0  0  0  0  0  0  0
   41.5120   70.4820   64.0900 H   0  0  0  0  0  0  0  0  0  0  0  0
   39.8760   76.8760   59.7350 C   0  0  0  0  0  0  0  0  0  0  0  0
   39.3320   76.8140   58.7510 H   0  0  0  0  0  0  0  0  0  0  0  0
   39.4260   77.6240   60.4240 H   0  0  0  0  0  0  0  0  0  0  0  0
   41.6450   77.2150   59.4310 S   0  0  0  0  0  0  0  0  0  0  0  0
   41.8490   78.5730   59.1180 H   0  0  0  0  0  0  0  0  0  0  0  0
  1  2  1  0  0  0  0
  1 10  1  0  0  0  0
  2  6  1  0  0  0  0
  3  2  2  0  0  0  0
  4  5  1  0  0  0  0
  4  3  1  0  0  0  0
  5  1  2  0  0  0  0
  7  3  1  0  0  0  0
  8 13  1  0  0  0  0
  9  8  2  0  0  0  0
  9 10  1  0  0  0  0
 10 11  2  0  0  0  0
 11 12  1  0  0  0  0
 12 16  1  0  0  0  0
 13 12  2  0  0  0  0
 14  8  1  0  0  0  0
 15  9  1  0  0  0  0
 17  4  1  0  0  0  0
 17 19  1  0  0  0  0
 18 17  1  0  0  0  0
 20 17  1  0  0  0  0
 21 20  1  0  0  0  0
M  END
>  <minimizedAffinity>
-4.03369284

$$$$

 OpenBabel03212520273D

 21 22  0  0  0  0  0  0  0  0999 V2000
   38.8420   75.9420   58.2870 C   0  0  0  0  0  0  0  0  0  0  0  0
   39.3130   77.2220   58.0690 C   0  0  0  0  0  0  0  0  0  0  0  0
   38.5260   77.6320   56.9810 C   0  0  0  0  0  0  0  0  0  0  0  0
   37.6720   76.6590   56.6080 N   0  0  0  0  0  0  0  0  0  0  0  0
   37.8870   75.6400   57.4220 N   0  0  0  0  0  0  0  0  0  0  0  0
   40.0740   77.7680   58.5840 H   0  0  0  0  0  0  0  0  0  0  0  0
   38.6210   78.6220   56.5210 H   0  0  0  0  0  0  0  0  0  0  0  0
   38.9920   73.5540   61.1500 C   0  0  0  0  0  0  0  0  0  0  0  0
   38.4540   74.3960   60.1710 C   0  0  0  0  0  0  0  0  0  0  0  0
   39.3310   75.0520   59.3290 C   0  0  0  0  0  0  0  0  0  0  0  0
   40.6840   74.8650   59.4760 N   0  0  0  0  0  0  0  0  0  0  0  0
   41.1560   74.0360   60.4440 C   0  0  0  0  0  0  0  0  0  0  0  0
   40.3100   73.3910   61.2690 N   0  0  0  0  0  0  0  0  0  0  0  0
   38.3480   73.0150   61.8380 H   0  0  0  0  0  0  0  0  0  0  0  0
   37.3840   74.5140   60.0900 H   0  0  0  0  0  0  0  0  0  0  0  0
   42.2410   73.9950   60.4300 H   0  0  0  0  0  0  0  0  0  0  0  0
   36.6910   76.6960   55.5270 C   0  0  0  0  0  0  0  0  0  0  0  0
   35.7100   76.3950   55.9910 H   0  0  0  0  0  0  0  0  0  0  0  0
   36.6570   77.7140   55.0820 H   0  0  0  0  0  0  0  0  0  0  0  0
   37.1960   75.4390   54.3030 S   0  0  0  0  0  0  0  0  0  0  0  0
   36.4710   75.5860   53.1040 H   0  0  0  0  0  0  0  0  0  0  0  0
  1 10  1  0  0  0  0
  2  1  1  0  0  0  0
  2  6  1  0  0  0  0
  3  2  2  0  0  0  0
  4  3  1  0  0  0  0
  4  5  1  0  0  0  0
  5  1  2  0  0  0  0
  7  3  1  0  0  0  0
  8 13  1  0  0  0  0
  8 14  1  0  0  0  0
  9  8  2  0  0  0  0
 10 11  2  0  0  0  0
 10  9  1  0  0  0  0
 11 12  1  0  0  0  0
 12 13  2  0  0  0  0
 15  9  1  0  0  0  0
 16 12  1  0  0  0  0
 17 18  1  0  0  0  0
 17  4  1  0  0  0  0
 19 17  1  0  0  0  0
 20 17  1  0  0  0  0
 21 20  1  0  0  0  0
M  END
>  <minimizedAffinity>
-4.01053762

$$$$

 OpenBabel03212520273D

 21 22  0  0  0  0  0  0  0  0999 V2000
   40.3380   75.2340   59.7770 C   0  0  0  0  0  0  0  0  0  0  0  0
   40.3680   76.5790   60.0920 C   0  0  0  0  0  0  0  0  0  0  0  0
   39.4920   77.1140   59.1330 C   0  0  0  0  0  0  0  0  0  0  0  0
   39.0010   76.1470   58.3340 N   0  0  0  0  0  0  0  0  0  0  0  0
   39.5350   75.0110   58.7500 N   0  0  0  0  0  0  0  0  0  0  0  0
   40.9090   77.0910   60.8590 H   0  0  0  0  0  0  0  0  0  0  0  0
   39.2610   78.1830   59.0730 H   0  0  0  0  0  0  0  0  0  0  0  0
   41.2920   72.5230   62.1570 C   0  0  0  0  0  0  0  0  0  0  0  0
   40.5150   73.4970   61.5210 C   0  0  0  0  0  0  0  0  0  0  0  0
   41.0880   74.2070   60.4850 C   0  0  0  0  0  0  0  0  0  0  0  0
   42.3840   73.9440   60.1140 N   0  0  0  0  0  0  0  0  0  0  0  0
   43.0980   72.9870   60.7650 C   0  0  0  0  0  0  0  0  0  0  0  0
   42.5470   72.2890   61.7760 N   0  0  0  0  0  0  0  0  0  0  0  0
   40.8900   71.9370   62.9780 H   0  0  0  0  0  0  0  0  0  0  0  0
   39.4990   73.6720   61.8440 H   0  0  0  0  0  0  0  0  0  0  0  0
   44.1000   72.8990   60.3560 H   0  0  0  0  0  0  0  0  0  0  0  0
   38.0630   76.2940   57.2250 C   0  0  0  0  0  0  0  0  0  0  0  0
   37.2470   76.9730   57.6000 H   0  0  0  0  0  0  0  0  0  0  0  0
   38.5880   76.7110   56.3380 H   0  0  0  0  0  0  0  0  0  0  0  0
   37.3710   74.6390   56.8860 S   0  0  0  0  0  0  0  0  0  0  0  0
   36.6660   74.6300   55.6660 H   0  0  0  0  0  0  0  0  0  0  0  0
  1  2  1  0  0  0  0
  1 10  1  0  0  0  0
  2  6  1  0  0  0  0
  3  2  2  0  0  0  0
  4  5  1  0  0  0  0
  4  3  1  0  0  0  0
  5  1  2  0  0  0  0
  7  3  1  0  0  0  0
  8 14  1  0  0  0  0
  9 15  1  0  0  0  0
  9  8  2  0  0  0  0
 10  9  1  0  0  0  0
 11 10  2  0  0  0  0
 11 12  1  0  0  0  0
 12 13  2  0  0  0  0
 13  8  1  0  0  0  0
 16 12  1  0  0  0  0
 17 18  1  0  0  0  0
 17  4  1  0  0  0  0
 19 17  1  0  0  0  0
 20 17  1  0  0  0  0
 21 20  1  0  0  0  0
M  END
>  <minimizedAffinity>
-3.91392827

$$$$

 OpenBabel03212520273D

 21 22  0  0  0  0  0  0  0  0999 V2000
   40.1600   73.5290   60.6700 C   0  0  0  0  0  0  0  0  0  0  0  0
   39.9160   74.7810   61.2000 C   0  0  0  0  0  0  0  0  0  0  0  0
   38.9960   75.3050   60.2770 C   0  0  0  0  0  0  0  0  0  0  0  0
   38.7380   74.4190   59.2950 N   0  0  0  0  0  0  0  0  0  0  0  0
   39.4620   73.3450   59.5610 N   0  0  0  0  0  0  0  0  0  0  0  0
   40.3130   75.2420   62.0790 H   0  0  0  0  0  0  0  0  0  0  0  0
   38.5660   76.3080   60.3740 H   0  0  0  0  0  0  0  0  0  0  0  0
   43.0200   71.1930   61.2070 C   0  0  0  0  0  0  0  0  0  0  0  0
   42.1960   72.1370   60.5850 C   0  0  0  0  0  0  0  0  0  0  0  0
   41.0620   72.5490   61.2570 C   0  0  0  0  0  0  0  0  0  0  0  0
   40.7790   72.0300   62.4960 N   0  0  0  0  0  0  0  0  0  0  0  0
   41.6120   71.1150   63.0580 C   0  0  0  0  0  0  0  0  0  0  0  0
   42.7200   70.7070   62.4110 N   0  0  0  0  0  0  0  0  0  0  0  0
   43.9230   70.8340   60.7220 H   0  0  0  0  0  0  0  0  0  0  0  0
   42.4560   72.5200   59.6080 H   0  0  0  0  0  0  0  0  0  0  0  0
   41.2520   70.8040   64.0340 H   0  0  0  0  0  0  0  0  0  0  0  0
   37.8400   74.5830   58.1560 C   0  0  0  0  0  0  0  0  0  0  0  0
   38.0720   73.7320   57.4560 H   0  0  0  0  0  0  0  0  0  0  0  0
   36.7850   74.5740   58.5020 H   0  0  0  0  0  0  0  0  0  0  0  0
   38.2770   76.1650   57.3550 S   0  0  0  0  0  0  0  0  0  0  0  0
   37.2960   76.5390   56.4150 H   0  0  0  0  0  0  0  0  0  0  0  0
  1  2  1  0  0  0  0
  1 10  1  0  0  0  0
  2  6  1  0  0  0  0
  3  7  1  0  0  0  0
  3  2  2  0  0  0  0
  4  5  1  0  0  0  0
  4  3  1  0  0  0  0
  5  1  2  0  0  0  0
  8 13  1  0  0  0  0
  9  8  2  0  0  0  0
  9 10  1  0  0  0  0
 10 11  2  0  0  0  0
 11 12  1  0  0  0  0
 12 16  1  0  0  0  0
 13 12  2  0  0  0  0
 14  8  1  0  0  0  0
 15  9  1  0  0  0  0
 17 19  1  0  0  0  0
 17  4  1  0  0  0  0
 18 17  1  0  0  0  0
 20 17  1  0  0  0  0
 21 20  1  0  0  0  0
M  END
>  <minimizedAffinity>
-3.90837836

$$$$

 OpenBabel03212520273D

 21 22  0  0  0  0  0  0  0  0999 V2000
   40.4680   73.3390   60.9810 C   0  0  0  0  0  0  0  0  0  0  0  0
   39.1160   73.4930   61.2220 C   0  0  0  0  0  0  0  0  0  0  0  0
   38.8790   74.7730   60.6930 C   0  0  0  0  0  0  0  0  0  0  0  0
   40.0100   75.3050   60.1910 N   0  0  0  0  0  0  0  0  0  0  0  0
   40.9630   74.4080   60.3800 N   0  0  0  0  0  0  0  0  0  0  0  0
   38.4230   72.8250   61.6860 H   0  0  0  0  0  0  0  0  0  0  0  0
   37.8910   75.2440   60.7050 H   0  0  0  0  0  0  0  0  0  0  0  0
   42.2600   70.7130   62.9350 C   0  0  0  0  0  0  0  0  0  0  0  0
   41.5170   71.8660   62.6610 C   0  0  0  0  0  0  0  0  0  0  0  0
   41.2370   72.1560   61.3400 C   0  0  0  0  0  0  0  0  0  0  0  0
   41.6890   71.3200   60.3490 N   0  0  0  0  0  0  0  0  0  0  0  0
   42.4080   70.2110   60.6680 C   0  0  0  0  0  0  0  0  0  0  0  0
   42.6850   69.9190   61.9530 N   0  0  0  0  0  0  0  0  0  0  0  0
   42.5080   70.4380   63.9560 H   0  0  0  0  0  0  0  0  0  0  0  0
   41.1810   72.4960   63.4710 H   0  0  0  0  0  0  0  0  0  0  0  0
   42.6890   69.6560   59.7780 H   0  0  0  0  0  0  0  0  0  0  0  0
   40.1790   76.6090   59.5550 C   0  0  0  0  0  0  0  0  0  0  0  0
   39.9180   77.3710   60.3420 H   0  0  0  0  0  0  0  0  0  0  0  0
   41.2210   76.7180   59.1860 H   0  0  0  0  0  0  0  0  0  0  0  0
   38.9650   76.7010   58.1940 S   0  0  0  0  0  0  0  0  0  0  0  0
   39.2320   77.8020   57.3560 H   0  0  0  0  0  0  0  0  0  0  0  0
  1  2  1  0  0  0  0
  1 10  1  0  0  0  0
  2  6  1  0  0  0  0
  3  7  1  0  0  0  0
  3  2  2  0  0  0  0
  4  5  1  0  0  0  0
  4  3  1  0  0  0  0
  5  1  2  0  0  0  0
  8 14  1  0  0  0  0
  9  8  1  0  0  0  0
  9 15  1  0  0  0  0
 10  9  2  0  0  0  0
 11 12  2  0  0  0  0
 11 10  1  0  0  0  0
 12 13  1  0  0  0  0
 13  8  2  0  0  0  0
 16 12  1  0  0  0  0
 17  4  1  0  0  0  0
 17 18  1  0  0  0  0
 19 17  1  0  0  0  0
 20 17  1  0  0  0  0
 21 20  1  0  0  0  0
M  END
>  <minimizedAffinity>
-3.81098223

$$$$

 OpenBabel03212520273D

 21 22  0  0  0  0  0  0  0  0999 V2000
   39.6330   73.4410   59.8630 C   0  0  0  0  0  0  0  0  0  0  0  0
   39.5540   73.7520   61.2070 C   0  0  0  0  0  0  0  0  0  0  0  0
   40.4650   72.8400   61.7640 C   0  0  0  0  0  0  0  0  0  0  0  0
   41.0200   72.0680   60.8090 N   0  0  0  0  0  0  0  0  0  0  0  0
   40.4940   72.4570   59.6600 N   0  0  0  0  0  0  0  0  0  0  0  0
   38.9610   74.4900   61.7050 H   0  0  0  0  0  0  0  0  0  0  0  0
   40.6720   72.7910   62.8380 H   0  0  0  0  0  0  0  0  0  0  0  0
   38.1140   76.0640   57.6880 C   0  0  0  0  0  0  0  0  0  0  0  0
   38.8650   75.4860   58.7170 C   0  0  0  0  0  0  0  0  0  0  0  0
   38.8730   74.1090   58.8180 C   0  0  0  0  0  0  0  0  0  0  0  0
   38.1540   73.3570   57.9220 N   0  0  0  0  0  0  0  0  0  0  0  0
   37.4390   73.9670   56.9400 C   0  0  0  0  0  0  0  0  0  0  0  0
   37.4250   75.3090   56.8320 N   0  0  0  0  0  0  0  0  0  0  0  0
   38.0730   77.1420   57.5640 H   0  0  0  0  0  0  0  0  0  0  0  0
   39.4170   76.1160   59.4010 H   0  0  0  0  0  0  0  0  0  0  0  0
   36.9290   73.2390   56.3160 H   0  0  0  0  0  0  0  0  0  0  0  0
   42.0100   71.0090   60.9800 C   0  0  0  0  0  0  0  0  0  0  0  0
   41.5650   70.0920   60.5010 H   0  0  0  0  0  0  0  0  0  0  0  0
   42.9720   71.3100   60.5110 H   0  0  0  0  0  0  0  0  0  0  0  0
   42.1910   70.7300   62.7760 S   0  0  0  0  0  0  0  0  0  0  0  0
   43.3130   69.9220   63.0480 H   0  0  0  0  0  0  0  0  0  0  0  0
  1  2  1  0  0  0  0
  2  6  1  0  0  0  0
  2  3  2  0  0  0  0
  3  7  1  0  0  0  0
  4 17  1  0  0  0  0
  4  3  1  0  0  0  0
  5  1  2  0  0  0  0
  5  4  1  0  0  0  0
  8  9  1  0  0  0  0
  9 10  2  0  0  0  0
  9 15  1  0  0  0  0
 10  1  1  0  0  0  0
 11 10  1  0  0  0  0
 12 11  2  0  0  0  0
 13 12  1  0  0  0  0
 13  8  2  0  0  0  0
 14  8  1  0  0  0  0
 16 12  1  0  0  0  0
 17 20  1  0  0  0  0
 18 17  1  0  0  0  0
 19 17  1  0  0  0  0
 20 21  1  0  0  0  0
M  END
>  <minimizedAffinity>
-3.78269315

$$$$
