
 OpenBabel03212520503D

 21 22  0  0  0  0  0  0  0  0999 V2000
   36.8040   75.5660   54.2400 C   0  0  0  0  0  0  0  0  0  0  0  0
   36.5000   76.9340   54.3290 C   0  0  0  0  0  0  0  0  0  0  0  0
   36.7690   77.6350   55.5130 C   0  0  0  0  0  0  0  0  0  0  0  0
   37.3260   76.9100   56.5250 N   0  0  0  0  0  0  0  0  0  0  0  0
   37.6060   75.6140   56.4170 C   0  0  0  0  0  0  0  0  0  0  0  0
   37.3550   74.9310   55.2940 N   0  0  0  0  0  0  0  0  0  0  0  0
   36.4670   75.0100   52.9920 N   0  0  0  0  0  0  0  0  0  0  0  0
   36.0590   77.5420   53.5520 H   0  0  0  0  0  0  0  0  0  0  0  0
   36.5480   78.6860   55.6140 H   0  0  0  0  0  0  0  0  0  0  0  0
   37.1370   74.9790   52.1730 H   0  0  0  0  0  0  0  0  0  0  0  0
   35.4710   74.6960   53.1640 H   0  0  0  0  0  0  0  0  0  0  0  0
   38.2020   74.9160   57.5570 C   0  0  0  0  0  0  0  0  0  0  0  0
   38.4370   73.5670   57.5440 C   0  0  0  0  0  0  0  0  0  0  0  0
   39.0140   72.9230   58.6600 C   0  0  0  0  0  0  0  0  0  0  0  0
   39.3360   73.6360   59.7450 N   0  0  0  0  0  0  0  0  0  0  0  0
   39.1020   74.9710   59.7540 C   0  0  0  0  0  0  0  0  0  0  0  0
   38.5450   75.5950   58.6790 N   0  0  0  0  0  0  0  0  0  0  0  0
   38.1920   72.9630   56.6910 H   0  0  0  0  0  0  0  0  0  0  0  0
   39.2010   71.8530   58.6500 H   0  0  0  0  0  0  0  0  0  0  0  0
   39.4610   76.0870   61.1020 S   0  0  0  0  0  0  0  0  0  0  0  0
   40.7130   76.7140   60.9170 H   0  0  0  0  0  0  0  0  0  0  0  0
  1  2  2  0  0  0  0
  1  6  1  0  0  0  0
  2  3  1  0  0  0  0
  3  9  1  0  0  0  0
  3  4  2  0  0  0  0
  5  4  1  0  0  0  0
  5 12  1  0  0  0  0
  6  5  2  0  0  0  0
  7 11  1  0  0  0  0
  7  1  1  0  0  0  0
  8  2  1  0  0  0  0
 10  7  1  0  0  0  0
 12 17  1  0  0  0  0
 13 12  2  0  0  0  0
 13 14  1  0  0  0  0
 14 15  2  0  0  0  0
 15 16  1  0  0  0  0
 16 20  1  0  0  0  0
 17 16  2  0  0  0  0
 18 13  1  0  0  0  0
 19 14  1  0  0  0  0
 21 20  1  0  0  0  0
M  END
>  <minimizedAffinity>
-4.88017368

$$$$

 OpenBabel03212520503D

 21 22  0  0  0  0  0  0  0  0999 V2000
   37.9760   75.1530   54.5770 C   0  0  0  0  0  0  0  0  0  0  0  0
   36.9570   76.0340   54.1810 C   0  0  0  0  0  0  0  0  0  0  0  0
   36.5120   77.0300   55.0620 C   0  0  0  0  0  0  0  0  0  0  0  0
   37.1240   77.0700   56.2800 N   0  0  0  0  0  0  0  0  0  0  0  0
   38.0870   76.2250   56.6330 C   0  0  0  0  0  0  0  0  0  0  0  0
   38.5240   75.2690   55.8050 N   0  0  0  0  0  0  0  0  0  0  0  0
   38.3020   74.2100   53.5860 N   0  0  0  0  0  0  0  0  0  0  0  0
   36.4490   76.0340   53.2280 H   0  0  0  0  0  0  0  0  0  0  0  0
   35.7310   77.7220   54.7880 H   0  0  0  0  0  0  0  0  0  0  0  0
   39.0470   74.3780   52.8500 H   0  0  0  0  0  0  0  0  0  0  0  0
   37.6390   73.4200   53.8200 H   0  0  0  0  0  0  0  0  0  0  0  0
   38.6860   76.3410   57.9640 C   0  0  0  0  0  0  0  0  0  0  0  0
   39.3720   77.4580   58.3590 C   0  0  0  0  0  0  0  0  0  0  0  0
   39.9380   77.5390   59.6510 C   0  0  0  0  0  0  0  0  0  0  0  0
   39.8040   76.5150   60.5000 N   0  0  0  0  0  0  0  0  0  0  0  0
   39.1240   75.4120   60.1050 C   0  0  0  0  0  0  0  0  0  0  0  0
   38.5770   75.3300   58.8600 N   0  0  0  0  0  0  0  0  0  0  0  0
   39.5000   78.2990   57.7050 H   0  0  0  0  0  0  0  0  0  0  0  0
   40.4820   78.4250   59.9650 H   0  0  0  0  0  0  0  0  0  0  0  0
   38.8390   73.9480   61.0910 S   0  0  0  0  0  0  0  0  0  0  0  0
   37.5790   74.0070   61.7260 H   0  0  0  0  0  0  0  0  0  0  0  0
  1  6  1  0  0  0  0
  2  1  2  0  0  0  0
  2  3  1  0  0  0  0
  3  4  2  0  0  0  0
  4  5  1  0  0  0  0
  5 12  1  0  0  0  0
  6  5  2  0  0  0  0
  7 11  1  0  0  0  0
  7  1  1  0  0  0  0
  8  2  1  0  0  0  0
  9  3  1  0  0  0  0
 10  7  1  0  0  0  0
 12 13  2  0  0  0  0
 12 17  1  0  0  0  0
 13 14  1  0  0  0  0
 14 19  1  0  0  0  0
 14 15  2  0  0  0  0
 16 15  1  0  0  0  0
 16 20  1  0  0  0  0
 17 16  2  0  0  0  0
 18 13  1  0  0  0  0
 20 21  1  0  0  0  0
M  END
>  <minimizedAffinity>
-4.86536551

$$$$

 OpenBabel03212520503D

 21 22  0  0  0  0  0  0  0  0999 V2000
   41.3260   72.2000   62.1130 C   0  0  0  0  0  0  0  0  0  0  0  0
   42.7010   72.1010   61.8450 C   0  0  0  0  0  0  0  0  0  0  0  0
   43.2860   72.9300   60.8770 C   0  0  0  0  0  0  0  0  0  0  0  0
   42.4470   73.8020   60.2480 N   0  0  0  0  0  0  0  0  0  0  0  0
   41.1470   73.8780   60.5190 C   0  0  0  0  0  0  0  0  0  0  0  0
   40.5730   73.0940   61.4400 N   0  0  0  0  0  0  0  0  0  0  0  0
   40.8940   71.2970   63.1010 N   0  0  0  0  0  0  0  0  0  0  0  0
   43.3960   71.4250   62.3200 H   0  0  0  0  0  0  0  0  0  0  0  0
   44.3390   72.8790   60.6470 H   0  0  0  0  0  0  0  0  0  0  0  0
   40.8810   71.5330   64.1350 H   0  0  0  0  0  0  0  0  0  0  0  0
   40.6370   70.4530   62.5180 H   0  0  0  0  0  0  0  0  0  0  0  0
   40.3220   74.8430   59.7920 C   0  0  0  0  0  0  0  0  0  0  0  0
   40.4240   76.1930   60.0000 C   0  0  0  0  0  0  0  0  0  0  0  0
   39.6130   77.0980   59.2810 C   0  0  0  0  0  0  0  0  0  0  0  0
   38.7340   76.6360   58.3860 N   0  0  0  0  0  0  0  0  0  0  0  0
   38.6360   75.2990   58.1830 C   0  0  0  0  0  0  0  0  0  0  0  0
   39.4170   74.4230   58.8740 N   0  0  0  0  0  0  0  0  0  0  0  0
   41.1180   76.6000   60.7100 H   0  0  0  0  0  0  0  0  0  0  0  0
   39.6940   78.1690   59.4460 H   0  0  0  0  0  0  0  0  0  0  0  0
   37.5270   74.4930   57.0360 S   0  0  0  0  0  0  0  0  0  0  0  0
   38.1770   74.2270   55.8110 H   0  0  0  0  0  0  0  0  0  0  0  0
  1  7  1  0  0  0  0
  2  1  1  0  0  0  0
  2  8  1  0  0  0  0
  3  2  2  0  0  0  0
  4  5  2  0  0  0  0
  4  3  1  0  0  0  0
  5  6  1  0  0  0  0
  6  1  2  0  0  0  0
  7 10  1  0  0  0  0
  9  3  1  0  0  0  0
 11  7  1  0  0  0  0
 12 13  1  0  0  0  0
 12  5  1  0  0  0  0
 13 18  1  0  0  0  0
 14 19  1  0  0  0  0
 14 13  2  0  0  0  0
 15 14  1  0  0  0  0
 16 15  2  0  0  0  0
 16 17  1  0  0  0  0
 17 12  2  0  0  0  0
 20 16  1  0  0  0  0
 21 20  1  0  0  0  0
M  END
>  <minimizedAffinity>
-4.56807327

$$$$

 OpenBabel03212520503D

 21 22  0  0  0  0  0  0  0  0999 V2000
   37.5100   74.5080   57.3540 C   0  0  0  0  0  0  0  0  0  0  0  0
   37.6310   75.8850   57.1050 C   0  0  0  0  0  0  0  0  0  0  0  0
   38.6020   76.6360   57.7840 C   0  0  0  0  0  0  0  0  0  0  0  0
   39.3840   75.9490   58.6650 N   0  0  0  0  0  0  0  0  0  0  0  0
   39.2510   74.6440   58.8840 C   0  0  0  0  0  0  0  0  0  0  0  0
   38.3300   73.9130   58.2450 N   0  0  0  0  0  0  0  0  0  0  0  0
   36.4870   73.9030   56.6020 N   0  0  0  0  0  0  0  0  0  0  0  0
   37.0320   76.4640   56.4170 H   0  0  0  0  0  0  0  0  0  0  0  0
   38.7200   77.6950   57.6150 H   0  0  0  0  0  0  0  0  0  0  0  0
   36.6460   73.4830   55.6420 H   0  0  0  0  0  0  0  0  0  0  0  0
   35.6580   74.0110   57.2490 H   0  0  0  0  0  0  0  0  0  0  0  0
   40.1340   73.9890   59.8500 C   0  0  0  0  0  0  0  0  0  0  0  0
   39.6500   73.2990   60.9290 C   0  0  0  0  0  0  0  0  0  0  0  0
   40.5300   72.6780   61.8430 C   0  0  0  0  0  0  0  0  0  0  0  0
   41.8510   72.7640   61.6560 N   0  0  0  0  0  0  0  0  0  0  0  0
   42.3250   73.4480   60.5870 C   0  0  0  0  0  0  0  0  0  0  0  0
   41.4810   74.0480   59.7030 N   0  0  0  0  0  0  0  0  0  0  0  0
   38.5960   73.2090   61.1110 H   0  0  0  0  0  0  0  0  0  0  0  0
   40.1460   72.1300   62.6990 H   0  0  0  0  0  0  0  0  0  0  0  0
   44.0490   73.6730   60.1690 S   0  0  0  0  0  0  0  0  0  0  0  0
   44.4690   72.7050   59.2300 H   0  0  0  0  0  0  0  0  0  0  0  0
  1  6  1  0  0  0  0
  2  1  2  0  0  0  0
  2  3  1  0  0  0  0
  3  4  2  0  0  0  0
  4  5  1  0  0  0  0
  5 12  1  0  0  0  0
  6  5  2  0  0  0  0
  7 11  1  0  0  0  0
  7  1  1  0  0  0  0
  8  2  1  0  0  0  0
  9  3  1  0  0  0  0
 10  7  1  0  0  0  0
 12 13  1  0  0  0  0
 13 18  1  0  0  0  0
 13 14  2  0  0  0  0
 14 19  1  0  0  0  0
 15 14  1  0  0  0  0
 16 15  2  0  0  0  0
 17 12  2  0  0  0  0
 17 16  1  0  0  0  0
 20 16  1  0  0  0  0
 21 20  1  0  0  0  0
M  END
>  <minimizedAffinity>
-4.5204854

$$$$

 OpenBabel03212520503D

 21 22  0  0  0  0  0  0  0  0999 V2000
   42.9400   70.5570   61.1520 C   0  0  0  0  0  0  0  0  0  0  0  0
   42.7350   70.0460   62.4440 C   0  0  0  0  0  0  0  0  0  0  0  0
   41.7980   70.6490   63.2950 C   0  0  0  0  0  0  0  0  0  0  0  0
   41.1310   71.7240   62.7860 N   0  0  0  0  0  0  0  0  0  0  0  0
   41.3420   72.1900   61.5580 C   0  0  0  0  0  0  0  0  0  0  0  0
   42.2320   71.6260   60.7340 N   0  0  0  0  0  0  0  0  0  0  0  0
   43.9160   69.8460   60.4300 N   0  0  0  0  0  0  0  0  0  0  0  0
   43.2430   69.1990   62.8830 H   0  0  0  0  0  0  0  0  0  0  0  0
   41.6180   70.2810   64.2930 H   0  0  0  0  0  0  0  0  0  0  0  0
   43.6890   69.0120   59.8170 H   0  0  0  0  0  0  0  0  0  0  0  0
   44.7960   70.3730   60.6900 H   0  0  0  0  0  0  0  0  0  0  0  0
   40.5810   73.3520   61.0960 C   0  0  0  0  0  0  0  0  0  0  0  0
   39.2330   73.4700   61.3030 C   0  0  0  0  0  0  0  0  0  0  0  0
   38.5270   74.6040   60.8450 C   0  0  0  0  0  0  0  0  0  0  0  0
   39.1800   75.5760   60.2000 N   0  0  0  0  0  0  0  0  0  0  0  0
   40.5150   75.4560   59.9970 C   0  0  0  0  0  0  0  0  0  0  0  0
   41.1980   74.3640   60.4380 N   0  0  0  0  0  0  0  0  0  0  0  0
   38.6750   72.7090   61.8170 H   0  0  0  0  0  0  0  0  0  0  0  0
   37.4570   74.6970   61.0100 H   0  0  0  0  0  0  0  0  0  0  0  0
   41.5570   76.6430   59.1610 S   0  0  0  0  0  0  0  0  0  0  0  0
   42.1810   77.5060   60.0890 H   0  0  0  0  0  0  0  0  0  0  0  0
  1  2  1  0  0  0  0
  2  8  1  0  0  0  0
  2  3  2  0  0  0  0
  3  9  1  0  0  0  0
  4  3  1  0  0  0  0
  5  4  2  0  0  0  0
  6  1  2  0  0  0  0
  6  5  1  0  0  0  0
  7 11  1  0  0  0  0
  7  1  1  0  0  0  0
 10  7  1  0  0  0  0
 12 13  1  0  0  0  0
 12  5  1  0  0  0  0
 13 18  1  0  0  0  0
 14 19  1  0  0  0  0
 14 13  2  0  0  0  0
 15 14  1  0  0  0  0
 16 15  2  0  0  0  0
 16 17  1  0  0  0  0
 17 12  2  0  0  0  0
 20 16  1  0  0  0  0
 20 21  1  0  0  0  0
M  END
>  <minimizedAffinity>
-4.37522411

$$$$

 OpenBabel03212520503D

 21 22  0  0  0  0  0  0  0  0999 V2000
   38.8360   72.2040   57.2420 C   0  0  0  0  0  0  0  0  0  0  0  0
   37.9720   73.2970   57.4180 C   0  0  0  0  0  0  0  0  0  0  0  0
   38.0440   74.0650   58.5890 C   0  0  0  0  0  0  0  0  0  0  0  0
   38.9820   73.6820   59.5010 N   0  0  0  0  0  0  0  0  0  0  0  0
   39.7910   72.6420   59.3120 C   0  0  0  0  0  0  0  0  0  0  0  0
   39.7350   71.8990   58.2010 N   0  0  0  0  0  0  0  0  0  0  0  0
   38.6320   71.5340   56.0230 N   0  0  0  0  0  0  0  0  0  0  0  0
   37.2170   73.6320   56.7210 H   0  0  0  0  0  0  0  0  0  0  0  0
   37.3940   74.9100   58.7540 H   0  0  0  0  0  0  0  0  0  0  0  0
   39.1430   71.7900   55.1300 H   0  0  0  0  0  0  0  0  0  0  0  0
   37.9080   70.8140   56.2960 H   0  0  0  0  0  0  0  0  0  0  0  0
   40.7680   72.3020   60.3480 C   0  0  0  0  0  0  0  0  0  0  0  0
   40.8360   72.9780   61.5360 C   0  0  0  0  0  0  0  0  0  0  0  0
   41.7910   72.6240   62.5150 C   0  0  0  0  0  0  0  0  0  0  0  0
   42.6390   71.6170   62.2820 N   0  0  0  0  0  0  0  0  0  0  0  0
   42.5670   70.9500   61.1040 C   0  0  0  0  0  0  0  0  0  0  0  0
   41.6480   71.2880   60.1580 N   0  0  0  0  0  0  0  0  0  0  0  0
   40.1720   73.7920   61.7580 H   0  0  0  0  0  0  0  0  0  0  0  0
   41.8450   73.1610   63.4580 H   0  0  0  0  0  0  0  0  0  0  0  0
   43.6080   69.5840   60.6110 S   0  0  0  0  0  0  0  0  0  0  0  0
   42.9830   68.3480   60.8890 H   0  0  0  0  0  0  0  0  0  0  0  0
  1  2  2  0  0  0  0
  1  6  1  0  0  0  0
  2  3  1  0  0  0  0
  3  9  1  0  0  0  0
  3  4  2  0  0  0  0
  5  4  1  0  0  0  0
  5 12  1  0  0  0  0
  6  5  2  0  0  0  0
  7 11  1  0  0  0  0
  7  1  1  0  0  0  0
  8  2  1  0  0  0  0
 10  7  1  0  0  0  0
 12 13  1  0  0  0  0
 13 18  1  0  0  0  0
 13 14  2  0  0  0  0
 14 19  1  0  0  0  0
 15 14  1  0  0  0  0
 16 15  2  0  0  0  0
 17 12  2  0  0  0  0
 17 16  1  0  0  0  0
 20 21  1  0  0  0  0
 20 16  1  0  0  0  0
M  END
>  <minimizedAffinity>
-4.29336166

$$$$

 OpenBabel03212520503D

 21 22  0  0  0  0  0  0  0  0999 V2000
   41.2210   76.1680   59.3670 C   0  0  0  0  0  0  0  0  0  0  0  0
   40.0500   76.7120   59.9190 C   0  0  0  0  0  0  0  0  0  0  0  0
   39.3150   75.9800   60.8630 C   0  0  0  0  0  0  0  0  0  0  0  0
   39.8120   74.7520   61.1870 N   0  0  0  0  0  0  0  0  0  0  0  0
   40.9240   74.2570   60.6510 C   0  0  0  0  0  0  0  0  0  0  0  0
   41.6360   74.9420   59.7490 N   0  0  0  0  0  0  0  0  0  0  0  0
   41.8350   77.0210   58.4320 N   0  0  0  0  0  0  0  0  0  0  0  0
   39.6260   77.6780   59.6880 H   0  0  0  0  0  0  0  0  0  0  0  0
   38.4120   76.3700   61.3050 H   0  0  0  0  0  0  0  0  0  0  0  0
   42.5670   77.7400   58.6990 H   0  0  0  0  0  0  0  0  0  0  0  0
   41.3680   76.7190   57.5330 H   0  0  0  0  0  0  0  0  0  0  0  0
   41.3810   72.9270   61.0580 C   0  0  0  0  0  0  0  0  0  0  0  0
   41.6880   72.6280   62.3580 C   0  0  0  0  0  0  0  0  0  0  0  0
   42.1270   71.3350   62.7170 C   0  0  0  0  0  0  0  0  0  0  0  0
   42.2430   70.3880   61.7800 N   0  0  0  0  0  0  0  0  0  0  0  0
   41.9370   70.6890   60.4940 C   0  0  0  0  0  0  0  0  0  0  0  0
   41.5150   71.9350   60.1440 N   0  0  0  0  0  0  0  0  0  0  0  0
   41.6070   73.3620   63.1370 H   0  0  0  0  0  0  0  0  0  0  0  0
   42.3710   71.0970   63.7490 H   0  0  0  0  0  0  0  0  0  0  0  0
   42.0300   69.5660   59.1070 S   0  0  0  0  0  0  0  0  0  0  0  0
   40.7700   68.9800   58.8490 H   0  0  0  0  0  0  0  0  0  0  0  0
  1  6  2  0  0  0  0
  1  2  1  0  0  0  0
  2  3  2  0  0  0  0
  3  4  1  0  0  0  0
  3  9  1  0  0  0  0
  5 12  1  0  0  0  0
  5  4  2  0  0  0  0
  6  5  1  0  0  0  0
  7 10  1  0  0  0  0
  7  1  1  0  0  0  0
  8  2  1  0  0  0  0
 11  7  1  0  0  0  0
 12 13  1  0  0  0  0
 13 14  2  0  0  0  0
 13 18  1  0  0  0  0
 14 19  1  0  0  0  0
 15 14  1  0  0  0  0
 16 15  2  0  0  0  0
 17 16  1  0  0  0  0
 17 12  2  0  0  0  0
 20 16  1  0  0  0  0
 21 20  1  0  0  0  0
M  END
>  <minimizedAffinity>
-4.26326942

$$$$

 OpenBabel03212520503D

 21 22  0  0  0  0  0  0  0  0999 V2000
   42.8240   70.6370   61.0860 C   0  0  0  0  0  0  0  0  0  0  0  0
   42.6890   70.3390   62.4510 C   0  0  0  0  0  0  0  0  0  0  0  0
   41.7100   70.9890   63.2160 C   0  0  0  0  0  0  0  0  0  0  0  0
   40.9330   71.8930   62.5530 N   0  0  0  0  0  0  0  0  0  0  0  0
   41.0790   72.1590   61.2580 C   0  0  0  0  0  0  0  0  0  0  0  0
   42.0090   71.5470   60.5140 N   0  0  0  0  0  0  0  0  0  0  0  0
   43.8540   69.9090   60.4650 N   0  0  0  0  0  0  0  0  0  0  0  0
   43.2830   69.6320   63.0120 H   0  0  0  0  0  0  0  0  0  0  0  0
   41.5810   70.7830   64.2670 H   0  0  0  0  0  0  0  0  0  0  0  0
   43.7010   68.9640   60.0090 H   0  0  0  0  0  0  0  0  0  0  0  0
   44.6820   70.5530   60.6040 H   0  0  0  0  0  0  0  0  0  0  0  0
   40.2010   73.1470   60.6290 C   0  0  0  0  0  0  0  0  0  0  0  0
   40.0030   74.3910   61.1640 C   0  0  0  0  0  0  0  0  0  0  0  0
   39.1490   75.3220   60.5330 C   0  0  0  0  0  0  0  0  0  0  0  0
   38.5250   74.9870   59.3980 N   0  0  0  0  0  0  0  0  0  0  0  0
   38.7250   73.7540   58.8720 C   0  0  0  0  0  0  0  0  0  0  0  0
   39.5470   72.8540   59.4780 N   0  0  0  0  0  0  0  0  0  0  0  0
   40.4870   74.6950   62.0730 H   0  0  0  0  0  0  0  0  0  0  0  0
   38.9920   76.3090   60.9570 H   0  0  0  0  0  0  0  0  0  0  0  0
   37.9840   73.1240   57.3720 S   0  0  0  0  0  0  0  0  0  0  0  0
   38.8530   73.2960   56.2720 H   0  0  0  0  0  0  0  0  0  0  0  0
  1  2  1  0  0  0  0
  2  8  1  0  0  0  0
  2  3  2  0  0  0  0
  3  9  1  0  0  0  0
  4  3  1  0  0  0  0
  5  4  2  0  0  0  0
  6  1  2  0  0  0  0
  6  5  1  0  0  0  0
  7 11  1  0  0  0  0
  7  1  1  0  0  0  0
 10  7  1  0  0  0  0
 12 13  1  0  0  0  0
 12  5  1  0  0  0  0
 13 18  1  0  0  0  0
 14 19  1  0  0  0  0
 14 13  2  0  0  0  0
 15 14  1  0  0  0  0
 16 15  2  0  0  0  0
 16 17  1  0  0  0  0
 17 12  2  0  0  0  0
 20 16  1  0  0  0  0
 21 20  1  0  0  0  0
M  END
>  <minimizedAffinity>
-4.23522043

$$$$

 OpenBabel03212520503D

 21 22  0  0  0  0  0  0  0  0999 V2000
   44.6060   74.1120   58.9160 C   0  0  0  0  0  0  0  0  0  0  0  0
   43.6220   75.1000   58.7530 C   0  0  0  0  0  0  0  0  0  0  0  0
   42.3990   74.9880   59.4300 C   0  0  0  0  0  0  0  0  0  0  0  0
   42.2520   73.8890   60.2240 N   0  0  0  0  0  0  0  0  0  0  0  0
   43.1990   72.9660   60.3630 C   0  0  0  0  0  0  0  0  0  0  0  0
   44.3720   73.0590   59.7250 N   0  0  0  0  0  0  0  0  0  0  0  0
   45.7680   74.3670   58.1660 N   0  0  0  0  0  0  0  0  0  0  0  0
   43.7000   75.9830   58.1350 H   0  0  0  0  0  0  0  0  0  0  0  0
   41.6220   75.7290   59.3260 H   0  0  0  0  0  0  0  0  0  0  0  0
   46.5890   74.9240   58.5410 H   0  0  0  0  0  0  0  0  0  0  0  0
   45.5430   73.8780   57.2550 H   0  0  0  0  0  0  0  0  0  0  0  0
   42.9530   71.8180   61.2370 C   0  0  0  0  0  0  0  0  0  0  0  0
   42.1310   71.8950   62.3280 C   0  0  0  0  0  0  0  0  0  0  0  0
   41.9140   70.7680   63.1510 C   0  0  0  0  0  0  0  0  0  0  0  0
   42.5180   69.6100   62.8640 N   0  0  0  0  0  0  0  0  0  0  0  0
   43.3300   69.5380   61.7820 C   0  0  0  0  0  0  0  0  0  0  0  0
   43.5420   70.6220   60.9860 N   0  0  0  0  0  0  0  0  0  0  0  0
   41.6300   72.8080   62.5910 H   0  0  0  0  0  0  0  0  0  0  0  0
   41.2620   70.8290   64.0180 H   0  0  0  0  0  0  0  0  0  0  0  0
   44.2210   68.0870   61.2370 S   0  0  0  0  0  0  0  0  0  0  0  0
   43.4970   67.3970   60.2390 H   0  0  0  0  0  0  0  0  0  0  0  0
  1  6  1  0  0  0  0
  2  1  2  0  0  0  0
  2  3  1  0  0  0  0
  3  4  2  0  0  0  0
  4  5  1  0  0  0  0
  5 12  1  0  0  0  0
  6  5  2  0  0  0  0
  7 10  1  0  0  0  0
  7  1  1  0  0  0  0
  8  2  1  0  0  0  0
  9  3  1  0  0  0  0
 11  7  1  0  0  0  0
 12 13  1  0  0  0  0
 13 18  1  0  0  0  0
 13 14  2  0  0  0  0
 14 19  1  0  0  0  0
 15 14  1  0  0  0  0
 16 15  2  0  0  0  0
 17 12  2  0  0  0  0
 17 16  1  0  0  0  0
 20 16  1  0  0  0  0
 21 20  1  0  0  0  0
M  END
>  <minimizedAffinity>
-4.12396288

$$$$
