
 OpenBabel03212520363D

 33 36  0  0  0  0  0  0  0  0999 V2000
   40.7830   73.5540   60.6790 C   0  0  0  0  0  0  0  0  0  0  0  0
   39.4810   73.5240   61.2360 C   0  0  0  0  0  0  0  0  0  0  0  0
   38.6290   74.5960   61.2360 C   0  0  0  0  0  0  0  0  0  0  0  0
   39.0420   75.7870   60.6630 C   0  0  0  0  0  0  0  0  0  0  0  0
   40.3110   75.8380   60.1140 C   0  0  0  0  0  0  0  0  0  0  0  0
   40.8190   76.9600   59.5040 C   0  0  0  0  0  0  0  0  0  0  0  0
   42.0950   76.9750   58.9520 C   0  0  0  0  0  0  0  0  0  0  0  0
   42.9190   75.8680   58.9870 C   0  0  0  0  0  0  0  0  0  0  0  0
   42.4120   74.7350   59.5990 C   0  0  0  0  0  0  0  0  0  0  0  0
   41.1610   74.7500   60.1230 C   0  0  0  0  0  0  0  0  0  0  0  0
   38.9940   72.6850   61.7100 H   0  0  0  0  0  0  0  0  0  0  0  0
   37.6350   74.6240   61.6440 H   0  0  0  0  0  0  0  0  0  0  0  0
   38.4420   76.6850   60.6140 H   0  0  0  0  0  0  0  0  0  0  0  0
   40.1600   77.8400   59.4810 H   0  0  0  0  0  0  0  0  0  0  0  0
   42.3520   77.9390   58.5030 H   0  0  0  0  0  0  0  0  0  0  0  0
   43.8890   75.9850   58.5310 H   0  0  0  0  0  0  0  0  0  0  0  0
   43.1690   73.9900   59.6110 H   0  0  0  0  0  0  0  0  0  0  0  0
   41.6810   71.3400   59.7330 C   0  0  0  0  0  0  0  0  0  0  0  0
   41.4760   72.2810   60.7410 C   0  0  0  0  0  0  0  0  0  0  0  0
   41.9730   72.0130   62.0780 C   0  0  0  0  0  0  0  0  0  0  0  0
   42.6260   70.8300   62.2780 N   0  0  0  0  0  0  0  0  0  0  0  0
   42.7990   69.9360   61.2290 C   0  0  0  0  0  0  0  0  0  0  0  0
   42.3290   70.2000   59.9810 N   0  0  0  0  0  0  0  0  0  0  0  0
   41.2820   71.4430   58.7620 H   0  0  0  0  0  0  0  0  0  0  0  0
   41.9400   72.5700   62.9620 H   0  0  0  0  0  0  0  0  0  0  0  0
   43.4860   68.6540   61.4340 C   0  0  0  0  0  0  0  0  0  0  0  0
   44.5710   68.3910   60.8830 O   0  0  0  0  0  0  0  0  0  0  0  0
   42.7670   67.7170   62.3520 C   0  0  0  0  0  3  0  0  0  0  0  0
   41.3810   67.3930   61.8220 C   0  0  0  0  0  2  0  0  0  0  0  0
   41.4850   66.6350   60.5250 C   0  0  0  0  0  2  0  0  0  0  0  0
   42.4660   65.5110   60.5770 C   0  0  0  0  0  2  0  0  0  0  0  0
   43.0410   65.2610   61.9490 C   0  0  0  0  0  2  0  0  0  0  0  0
   43.5950   66.4950   62.5940 C   0  0  0  0  0  2  0  0  0  0  0  0
  1 19  1  0  0  0  0
  1  2  1  0  0  0  0
  2  3  2  0  0  0  0
  2 11  1  0  0  0  0
  3 12  1  0  0  0  0
  4  3  1  0  0  0  0
  5 10  1  0  0  0  0
  5  4  2  0  0  0  0
  6  5  1  0  0  0  0
  7  8  1  0  0  0  0
  7  6  2  0  0  0  0
  8  9  2  0  0  0  0
  9 17  1  0  0  0  0
  9 10  1  0  0  0  0
 10  1  2  0  0  0  0
 13  4  1  0  0  0  0
 14  6  1  0  0  0  0
 15  7  1  0  0  0  0
 16  8  1  0  0  0  0
 18 23  2  0  0  0  0
 18 19  1  0  0  0  0
 19 20  2  0  0  0  0
 20 21  1  0  0  0  0
 20 25  1  0  0  0  0
 22 26  1  0  0  0  0
 22 21  2  0  0  0  0
 23 22  1  0  0  0  0
 24 18  1  0  0  0  0
 26 28  1  0  0  0  0
 27 26  2  0  0  0  0
 28 33  1  0  0  0  0
 29 28  1  0  0  0  0
 30 31  1  0  0  0  0
 30 29  1  0  0  0  0
 31 32  1  0  0  0  0
 32 33  1  0  0  0  0
M  END
>  <minimizedAffinity>
-6.6137619

$$$$

 OpenBabel03212520363D

 33 36  0  0  0  0  0  0  0  0999 V2000
   42.2480   73.4750   59.8420 C   0  0  0  0  0  0  0  0  0  0  0  0
   43.4120   73.8030   59.1040 C   0  0  0  0  0  0  0  0  0  0  0  0
   43.6860   75.0590   58.6350 C   0  0  0  0  0  0  0  0  0  0  0  0
   42.7890   76.0850   58.8830 C   0  0  0  0  0  0  0  0  0  0  0  0
   41.6450   75.7860   59.6020 C   0  0  0  0  0  0  0  0  0  0  0  0
   40.6950   76.7260   59.9230 C   0  0  0  0  0  0  0  0  0  0  0  0
   39.5610   76.3950   60.6570 C   0  0  0  0  0  0  0  0  0  0  0  0
   39.3270   75.1090   61.0990 C   0  0  0  0  0  0  0  0  0  0  0  0
   40.2810   74.1590   60.7790 C   0  0  0  0  0  0  0  0  0  0  0  0
   41.3800   74.5140   60.0680 C   0  0  0  0  0  0  0  0  0  0  0  0
   44.2180   73.1390   58.8290 H   0  0  0  0  0  0  0  0  0  0  0  0
   44.5520   75.3580   58.0720 H   0  0  0  0  0  0  0  0  0  0  0  0
   42.9180   77.1070   58.5550 H   0  0  0  0  0  0  0  0  0  0  0  0
   40.8850   77.7490   59.5660 H   0  0  0  0  0  0  0  0  0  0  0  0
   38.9030   77.2520   60.8310 H   0  0  0  0  0  0  0  0  0  0  0  0
   38.4170   74.9590   61.6580 H   0  0  0  0  0  0  0  0  0  0  0  0
   39.9440   73.2120   61.1230 H   0  0  0  0  0  0  0  0  0  0  0  0
   42.6600   71.5420   61.4830 C   0  0  0  0  0  0  0  0  0  0  0  0
   42.2050   72.0960   60.2880 C   0  0  0  0  0  0  0  0  0  0  0  0
   41.6160   71.2320   59.2810 C   0  0  0  0  0  0  0  0  0  0  0  0
   41.5390   69.8990   59.5670 N   0  0  0  0  0  0  0  0  0  0  0  0
   42.0090   69.4120   60.7790 C   0  0  0  0  0  0  0  0  0  0  0  0
   42.5580   70.2320   61.7140 N   0  0  0  0  0  0  0  0  0  0  0  0
   43.1620   72.1030   62.2220 H   0  0  0  0  0  0  0  0  0  0  0  0
   41.2110   71.4320   58.3380 H   0  0  0  0  0  0  0  0  0  0  0  0
   41.9460   67.9780   61.0930 C   0  0  0  0  0  0  0  0  0  0  0  0
   41.8440   67.1120   60.2040 O   0  0  0  0  0  0  0  0  0  0  0  0
   42.0150   67.6700   62.5540 C   0  0  0  0  0  3  0  0  0  0  0  0
   40.7060   68.0090   63.2450 C   0  0  0  0  0  2  0  0  0  0  0  0
   39.6020   67.1230   62.7310 C   0  0  0  0  0  2  0  0  0  0  0  0
   39.9820   65.6800   62.6780 C   0  0  0  0  0  2  0  0  0  0  0  0
   41.3270   65.3760   63.2900 C   0  0  0  0  0  2  0  0  0  0  0  0
   42.4280   66.2470   62.7630 C   0  0  0  0  0  2  0  0  0  0  0  0
  1 10  1  0  0  0  0
  1 19  1  0  0  0  0
  2  1  2  0  0  0  0
  3  4  2  0  0  0  0
  3  2  1  0  0  0  0
  4  5  1  0  0  0  0
  5  6  2  0  0  0  0
  5 10  1  0  0  0  0
  6  7  1  0  0  0  0
  7 15  1  0  0  0  0
  7  8  2  0  0  0  0
  8 16  1  0  0  0  0
  9  8  1  0  0  0  0
  9 17  1  0  0  0  0
 10  9  2  0  0  0  0
 11  2  1  0  0  0  0
 12  3  1  0  0  0  0
 13  4  1  0  0  0  0
 14  6  1  0  0  0  0
 18 23  1  0  0  0  0
 18 24  1  0  0  0  0
 19 18  2  0  0  0  0
 20 21  2  0  0  0  0
 20 19  1  0  0  0  0
 21 22  1  0  0  0  0
 22 26  1  0  0  0  0
 22 23  2  0  0  0  0
 25 20  1  0  0  0  0
 26 28  1  0  0  0  0
 27 26  2  0  0  0  0
 28 33  1  0  0  0  0
 28 29  1  0  0  0  0
 30 29  1  0  0  0  0
 31 30  1  0  0  0  0
 31 32  1  0  0  0  0
 33 32  1  0  0  0  0
M  END
>  <minimizedAffinity>
-6.51212168

$$$$

 OpenBabel03212520363D

 33 36  0  0  0  0  0  0  0  0999 V2000
   42.2820   73.2230   60.4250 C   0  0  0  0  0  0  0  0  0  0  0  0
   43.5340   73.5040   59.8240 C   0  0  0  0  0  0  0  0  0  0  0  0
   43.8390   74.6960   59.2250 C   0  0  0  0  0  0  0  0  0  0  0  0
   42.8860   75.7010   59.1940 C   0  0  0  0  0  0  0  0  0  0  0  0
   41.6570   75.4470   59.7750 C   0  0  0  0  0  0  0  0  0  0  0  0
   40.6430   76.3740   59.8190 C   0  0  0  0  0  0  0  0  0  0  0  0
   39.4220   76.0920   60.4200 C   0  0  0  0  0  0  0  0  0  0  0  0
   39.1610   74.8680   61.0020 C   0  0  0  0  0  0  0  0  0  0  0  0
   40.1780   73.9310   60.9620 C   0  0  0  0  0  0  0  0  0  0  0  0
   41.3610   74.2390   60.3730 C   0  0  0  0  0  0  0  0  0  0  0  0
   44.3900   72.8490   59.7650 H   0  0  0  0  0  0  0  0  0  0  0  0
   44.7710   74.9580   58.7570 H   0  0  0  0  0  0  0  0  0  0  0  0
   43.0350   76.6740   58.7460 H   0  0  0  0  0  0  0  0  0  0  0  0
   40.8550   77.3470   59.3510 H   0  0  0  0  0  0  0  0  0  0  0  0
   38.7210   76.9310   60.3740 H   0  0  0  0  0  0  0  0  0  0  0  0
   38.1820   74.7510   61.4400 H   0  0  0  0  0  0  0  0  0  0  0  0
   39.8200   73.0240   61.3850 H   0  0  0  0  0  0  0  0  0  0  0  0
   42.4110   71.5690   62.3860 C   0  0  0  0  0  0  0  0  0  0  0  0
   42.2120   71.9170   61.0510 C   0  0  0  0  0  0  0  0  0  0  0  0
   41.9150   70.8800   60.0810 C   0  0  0  0  0  0  0  0  0  0  0  0
   41.8450   69.5950   60.5380 N   0  0  0  0  0  0  0  0  0  0  0  0
   42.0520   69.3160   61.8830 C   0  0  0  0  0  0  0  0  0  0  0  0
   42.3280   70.2970   62.7820 N   0  0  0  0  0  0  0  0  0  0  0  0
   42.7000   72.2640   63.1240 H   0  0  0  0  0  0  0  0  0  0  0  0
   41.7260   70.9170   59.0530 H   0  0  0  0  0  0  0  0  0  0  0  0
   41.9950   67.9360   62.3850 C   0  0  0  0  0  0  0  0  0  0  0  0
   40.9310   67.4190   62.7740 O   0  0  0  0  0  0  0  0  0  0  0  0
   43.3140   67.2320   62.3830 C   0  0  0  0  0  3  0  0  0  0  0  0
   43.1400   65.7500   62.1030 C   0  0  0  0  0  2  0  0  0  0  0  0
   42.6070   65.5430   60.7100 C   0  0  0  0  0  2  0  0  0  0  0  0
   43.3310   66.3430   59.6780 C   0  0  0  0  0  2  0  0  0  0  0  0
   44.5410   67.0740   60.2050 C   0  0  0  0  0  2  0  0  0  0  0  0
   44.2520   67.8960   61.4250 C   0  0  0  0  0  2  0  0  0  0  0  0
  1 19  1  0  0  0  0
  2  1  2  0  0  0  0
  3  2  1  0  0  0  0
  4  3  2  0  0  0  0
  4  5  1  0  0  0  0
  5  6  2  0  0  0  0
  5 10  1  0  0  0  0
  6  7  1  0  0  0  0
  7  8  2  0  0  0  0
  8 16  1  0  0  0  0
  9  8  1  0  0  0  0
  9 17  1  0  0  0  0
 10  1  1  0  0  0  0
 10  9  2  0  0  0  0
 11  2  1  0  0  0  0
 12  3  1  0  0  0  0
 13  4  1  0  0  0  0
 14  6  1  0  0  0  0
 15  7  1  0  0  0  0
 18 23  1  0  0  0  0
 18 24  1  0  0  0  0
 19 18  2  0  0  0  0
 20 21  2  0  0  0  0
 20 19  1  0  0  0  0
 21 22  1  0  0  0  0
 22 26  1  0  0  0  0
 22 23  2  0  0  0  0
 25 20  1  0  0  0  0
 26 27  2  0  0  0  0
 28 26  1  0  0  0  0
 29 28  1  0  0  0  0
 30 29  1  0  0  0  0
 31 32  1  0  0  0  0
 31 30  1  0  0  0  0
 32 33  1  0  0  0  0
 33 28  1  0  0  0  0
M  END
>  <minimizedAffinity>
-6.34489822

$$$$

 OpenBabel03212520363D

 33 36  0  0  0  0  0  0  0  0999 V2000
   41.9390   73.7630   59.3030 C   0  0  0  0  0  0  0  0  0  0  0  0
   42.9960   74.2200   58.4780 C   0  0  0  0  0  0  0  0  0  0  0  0
   43.2330   75.5420   58.2080 C   0  0  0  0  0  0  0  0  0  0  0  0
   42.4050   76.5040   58.7630 C   0  0  0  0  0  0  0  0  0  0  0  0
   41.3670   76.0780   59.5710 C   0  0  0  0  0  0  0  0  0  0  0  0
   40.4950   76.9430   60.1880 C   0  0  0  0  0  0  0  0  0  0  0  0
   39.4670   76.4840   61.0040 C   0  0  0  0  0  0  0  0  0  0  0  0
   39.2660   75.1390   61.2370 C   0  0  0  0  0  0  0  0  0  0  0  0
   40.1400   74.2630   60.6190 C   0  0  0  0  0  0  0  0  0  0  0  0
   41.1370   74.7430   59.8330 C   0  0  0  0  0  0  0  0  0  0  0  0
   43.7380   73.6180   57.9760 H   0  0  0  0  0  0  0  0  0  0  0  0
   44.0190   75.9380   57.5910 H   0  0  0  0  0  0  0  0  0  0  0  0
   42.5130   77.5690   58.6090 H   0  0  0  0  0  0  0  0  0  0  0  0
   40.6580   78.0140   59.9980 H   0  0  0  0  0  0  0  0  0  0  0  0
   38.8610   77.2940   61.4220 H   0  0  0  0  0  0  0  0  0  0  0  0
   38.4400   74.8880   61.8840 H   0  0  0  0  0  0  0  0  0  0  0  0
   39.8320   73.2690   60.8310 H   0  0  0  0  0  0  0  0  0  0  0  0
   41.1420   71.3610   58.8640 C   0  0  0  0  0  0  0  0  0  0  0  0
   41.9250   72.3260   59.4950 C   0  0  0  0  0  0  0  0  0  0  0  0
   42.8680   71.9190   60.5210 C   0  0  0  0  0  0  0  0  0  0  0  0
   42.9360   70.5880   60.8180 N   0  0  0  0  0  0  0  0  0  0  0  0
   42.1280   69.6770   60.1490 C   0  0  0  0  0  0  0  0  0  0  0  0
   41.2500   70.0710   59.1890 N   0  0  0  0  0  0  0  0  0  0  0  0
   40.3900   71.5990   58.1640 H   0  0  0  0  0  0  0  0  0  0  0  0
   43.5450   72.4630   61.1040 H   0  0  0  0  0  0  0  0  0  0  0  0
   42.1800   68.2440   60.4690 C   0  0  0  0  0  0  0  0  0  0  0  0
   41.9550   67.3680   59.6130 O   0  0  0  0  0  0  0  0  0  0  0  0
   42.5240   67.9500   61.8950 C   0  0  0  0  0  3  0  0  0  0  0  0
   41.3440   68.2350   62.8090 C   0  0  0  0  0  2  0  0  0  0  0  0
   40.2090   67.2950   62.5000 C   0  0  0  0  0  2  0  0  0  0  0  0
   40.6390   65.8710   62.3780 C   0  0  0  0  0  2  0  0  0  0  0  0
   42.0850   65.6330   62.7390 C   0  0  0  0  0  2  0  0  0  0  0  0
   43.0320   66.5490   62.0240 C   0  0  0  0  0  2  0  0  0  0  0  0
  1 19  1  0  0  0  0
  1 10  1  0  0  0  0
  2  1  2  0  0  0  0
  3  2  1  0  0  0  0
  3  4  2  0  0  0  0
  4  5  1  0  0  0  0
  5 10  2  0  0  0  0
  5  6  1  0  0  0  0
  6  7  2  0  0  0  0
  7  8  1  0  0  0  0
  7 15  1  0  0  0  0
  8 16  1  0  0  0  0
  9 17  1  0  0  0  0
  9  8  2  0  0  0  0
 10  9  1  0  0  0  0
 11  2  1  0  0  0  0
 12  3  1  0  0  0  0
 13  4  1  0  0  0  0
 14  6  1  0  0  0  0
 18 23  2  0  0  0  0
 18 19  1  0  0  0  0
 19 20  2  0  0  0  0
 20 21  1  0  0  0  0
 20 25  1  0  0  0  0
 22 26  1  0  0  0  0
 22 21  2  0  0  0  0
 23 22  1  0  0  0  0
 24 18  1  0  0  0  0
 26 28  1  0  0  0  0
 27 26  2  0  0  0  0
 28 33  1  0  0  0  0
 28 29  1  0  0  0  0
 30 29  1  0  0  0  0
 31 30  1  0  0  0  0
 31 32  1  0  0  0  0
 33 32  1  0  0  0  0
M  END
>  <minimizedAffinity>
-6.26900434

$$$$

 OpenBabel03212520363D

 33 36  0  0  0  0  0  0  0  0999 V2000
   42.2820   73.2000   59.8730 C   0  0  0  0  0  0  0  0  0  0  0  0
   43.3120   73.9660   59.2750 C   0  0  0  0  0  0  0  0  0  0  0  0
   43.2200   75.3120   59.0420 C   0  0  0  0  0  0  0  0  0  0  0  0
   42.0640   75.9840   59.4040 C   0  0  0  0  0  0  0  0  0  0  0  0
   41.0460   75.2540   59.9900 C   0  0  0  0  0  0  0  0  0  0  0  0
   39.8630   75.8170   60.4050 C   0  0  0  0  0  0  0  0  0  0  0  0
   38.8620   75.0570   61.0010 C   0  0  0  0  0  0  0  0  0  0  0  0
   39.0010   73.6990   61.2050 C   0  0  0  0  0  0  0  0  0  0  0  0
   40.1900   73.1260   60.7890 C   0  0  0  0  0  0  0  0  0  0  0  0
   41.1500   73.8960   60.2170 C   0  0  0  0  0  0  0  0  0  0  0  0
   44.2770   73.6150   58.9420 H   0  0  0  0  0  0  0  0  0  0  0  0
   43.9710   75.9370   58.5920 H   0  0  0  0  0  0  0  0  0  0  0  0
   41.8990   77.0440   59.2620 H   0  0  0  0  0  0  0  0  0  0  0  0
   39.7560   76.8990   60.2380 H   0  0  0  0  0  0  0  0  0  0  0  0
   37.9850   75.6500   61.2760 H   0  0  0  0  0  0  0  0  0  0  0  0
   38.1660   73.2020   61.6730 H   0  0  0  0  0  0  0  0  0  0  0  0
   40.1350   72.0770   60.9470 H   0  0  0  0  0  0  0  0  0  0  0  0
   42.9760   71.1480   61.2560 C   0  0  0  0  0  0  0  0  0  0  0  0
   42.6310   71.8070   60.0770 C   0  0  0  0  0  0  0  0  0  0  0  0
   42.6200   71.0710   58.8260 C   0  0  0  0  0  0  0  0  0  0  0  0
   42.9570   69.7480   58.8750 N   0  0  0  0  0  0  0  0  0  0  0  0
   43.2890   69.1510   60.0840 C   0  0  0  0  0  0  0  0  0  0  0  0
   43.2940   69.8520   61.2490 N   0  0  0  0  0  0  0  0  0  0  0  0
   43.0730   71.6430   62.1820 H   0  0  0  0  0  0  0  0  0  0  0  0
   42.3890   71.3570   57.8470 H   0  0  0  0  0  0  0  0  0  0  0  0
   43.6680   67.7330   60.1480 C   0  0  0  0  0  0  0  0  0  0  0  0
   44.8390   67.3730   60.3700 O   0  0  0  0  0  0  0  0  0  0  0  0
   42.5310   66.7880   59.9240 C   0  0  0  0  0  3  0  0  0  0  0  0
   42.8350   65.4220   60.5130 C   0  0  0  0  0  2  0  0  0  0  0  0
   42.9490   65.5150   62.0120 C   0  0  0  0  0  2  0  0  0  0  0  0
   41.8370   66.2880   62.6400 C   0  0  0  0  0  2  0  0  0  0  0  0
   40.7450   66.6860   61.6770 C   0  0  0  0  0  2  0  0  0  0  0  0
   41.2600   67.3760   60.4500 C   0  0  0  0  0  2  0  0  0  0  0  0
  1 19  1  0  0  0  0
  1 10  1  0  0  0  0
  2  1  2  0  0  0  0
  3  2  1  0  0  0  0
  3  4  2  0  0  0  0
  4  5  1  0  0  0  0
  5 10  2  0  0  0  0
  5  6  1  0  0  0  0
  6  7  2  0  0  0  0
  7  8  1  0  0  0  0
  7 15  1  0  0  0  0
  8 16  1  0  0  0  0
  9 17  1  0  0  0  0
  9  8  2  0  0  0  0
 10  9  1  0  0  0  0
 11  2  1  0  0  0  0
 12  3  1  0  0  0  0
 13  4  1  0  0  0  0
 14  6  1  0  0  0  0
 18 24  1  0  0  0  0
 19 18  2  0  0  0  0
 20 21  2  0  0  0  0
 20 19  1  0  0  0  0
 21 22  1  0  0  0  0
 22 26  1  0  0  0  0
 22 23  2  0  0  0  0
 23 18  1  0  0  0  0
 25 20  1  0  0  0  0
 26 27  2  0  0  0  0
 28 26  1  0  0  0  0
 28 33  1  0  0  0  0
 28 29  1  0  0  0  0
 29 30  1  0  0  0  0
 30 31  1  0  0  0  0
 32 31  1  0  0  0  0
 33 32  1  0  0  0  0
M  END
>  <minimizedAffinity>
-6.23297739

$$$$

 OpenBabel03212520363D

 33 36  0  0  0  0  0  0  0  0999 V2000
   41.7980   73.9280   59.9190 C   0  0  0  0  0  0  0  0  0  0  0  0
   43.0470   74.5710   59.7370 C   0  0  0  0  0  0  0  0  0  0  0  0
   43.2010   75.7600   59.0760 C   0  0  0  0  0  0  0  0  0  0  0  0
   42.0870   76.3890   58.5460 C   0  0  0  0  0  0  0  0  0  0  0  0
   40.8570   75.7770   58.7120 C   0  0  0  0  0  0  0  0  0  0  0  0
   39.6820   76.3170   58.2450 C   0  0  0  0  0  0  0  0  0  0  0  0
   38.4600   75.6820   58.4380 C   0  0  0  0  0  0  0  0  0  0  0  0
   38.3610   74.4780   59.1050 C   0  0  0  0  0  0  0  0  0  0  0  0
   39.5400   73.9300   59.5780 C   0  0  0  0  0  0  0  0  0  0  0  0
   40.7160   74.5770   59.3790 C   0  0  0  0  0  0  0  0  0  0  0  0
   44.0110   74.2350   60.0880 H   0  0  0  0  0  0  0  0  0  0  0  0
   44.1240   76.2870   58.9120 H   0  0  0  0  0  0  0  0  0  0  0  0
   42.1080   77.3280   58.0100 H   0  0  0  0  0  0  0  0  0  0  0  0
   39.7670   77.2760   57.7120 H   0  0  0  0  0  0  0  0  0  0  0  0
   37.6200   76.2380   58.0100 H   0  0  0  0  0  0  0  0  0  0  0  0
   37.3670   74.0700   59.1990 H   0  0  0  0  0  0  0  0  0  0  0  0
   39.3250   72.9830   60.0080 H   0  0  0  0  0  0  0  0  0  0  0  0
   41.3650   72.4530   61.9770 C   0  0  0  0  0  0  0  0  0  0  0  0
   41.8740   72.7120   60.7050 C   0  0  0  0  0  0  0  0  0  0  0  0
   42.6220   71.6800   60.0130 C   0  0  0  0  0  0  0  0  0  0  0  0
   42.7900   70.4870   60.6580 N   0  0  0  0  0  0  0  0  0  0  0  0
   42.2540   70.2930   61.9240 C   0  0  0  0  0  0  0  0  0  0  0  0
   41.5540   71.2680   62.5620 N   0  0  0  0  0  0  0  0  0  0  0  0
   40.8770   73.1830   62.5600 H   0  0  0  0  0  0  0  0  0  0  0  0
   43.0760   71.6570   59.0710 H   0  0  0  0  0  0  0  0  0  0  0  0
   42.4390   69.0210   62.6350 C   0  0  0  0  0  0  0  0  0  0  0  0
   43.4530   68.7900   63.3220 O   0  0  0  0  0  0  0  0  0  0  0  0
   41.3140   68.0520   62.4560 C   0  0  0  0  0  3  0  0  0  0  0  0
   41.2840   67.5100   61.0370 C   0  0  0  0  0  2  0  0  0  0  0  0
   42.5210   66.6950   60.7650 C   0  0  0  0  0  2  0  0  0  0  0  0
   42.8360   65.7220   61.8520 C   0  0  0  0  0  2  0  0  0  0  0  0
   41.7790   65.6360   62.9250 C   0  0  0  0  0  2  0  0  0  0  0  0
   41.3940   66.9710   63.4870 C   0  0  0  0  0  2  0  0  0  0  0  0
  1 19  1  0  0  0  0
  2  1  1  0  0  0  0
  2 11  1  0  0  0  0
  3  2  2  0  0  0  0
  4  5  2  0  0  0  0
  4  3  1  0  0  0  0
  5 10  1  0  0  0  0
  6  7  2  0  0  0  0
  6  5  1  0  0  0  0
  7  8  1  0  0  0  0
  8 16  1  0  0  0  0
  8  9  2  0  0  0  0
  9 17  1  0  0  0  0
 10  9  1  0  0  0  0
 10  1  2  0  0  0  0
 12  3  1  0  0  0  0
 13  4  1  0  0  0  0
 14  6  1  0  0  0  0
 15  7  1  0  0  0  0
 18 24  1  0  0  0  0
 18 23  1  0  0  0  0
 19 18  2  0  0  0  0
 20 21  2  0  0  0  0
 20 19  1  0  0  0  0
 21 22  1  0  0  0  0
 22 23  2  0  0  0  0
 22 26  1  0  0  0  0
 25 20  1  0  0  0  0
 26 27  2  0  0  0  0
 28 26  1  0  0  0  0
 28 33  1  0  0  0  0
 29 28  1  0  0  0  0
 30 29  1  0  0  0  0
 30 31  1  0  0  0  0
 31 32  1  0  0  0  0
 32 33  1  0  0  0  0
M  END
>  <minimizedAffinity>
-6.16274071

$$$$

 OpenBabel03212520363D

 33 36  0  0  0  0  0  0  0  0999 V2000
   40.6010   70.6220   55.4760 C   0  0  0  0  0  0  0  0  0  0  0  0
   41.1880   69.6270   56.2960 C   0  0  0  0  0  0  0  0  0  0  0  0
   41.5270   68.3770   55.8520 C   0  0  0  0  0  0  0  0  0  0  0  0
   41.2930   68.0440   54.5280 C   0  0  0  0  0  0  0  0  0  0  0  0
   40.7200   69.0010   53.7100 C   0  0  0  0  0  0  0  0  0  0  0  0
   40.4590   68.7890   52.3770 C   0  0  0  0  0  0  0  0  0  0  0  0
   39.8930   69.7760   51.5780 C   0  0  0  0  0  0  0  0  0  0  0  0
   39.5610   71.0180   52.0790 C   0  0  0  0  0  0  0  0  0  0  0  0
   39.8220   71.2380   53.4200 C   0  0  0  0  0  0  0  0  0  0  0  0
   40.3810   70.2570   54.1710 C   0  0  0  0  0  0  0  0  0  0  0  0
   41.4480   69.7130   57.3410 H   0  0  0  0  0  0  0  0  0  0  0  0
   41.9720   67.5900   56.4330 H   0  0  0  0  0  0  0  0  0  0  0  0
   41.5270   67.0860   54.0850 H   0  0  0  0  0  0  0  0  0  0  0  0
   40.7230   67.7960   51.9830 H   0  0  0  0  0  0  0  0  0  0  0  0
   39.7490   69.4540   50.5420 H   0  0  0  0  0  0  0  0  0  0  0  0
   39.1260   71.7110   51.3760 H   0  0  0  0  0  0  0  0  0  0  0  0
   39.4600   72.2020   53.6810 H   0  0  0  0  0  0  0  0  0  0  0  0
   41.1470   73.0560   56.0900 C   0  0  0  0  0  0  0  0  0  0  0  0
   40.3890   71.8880   56.1500 C   0  0  0  0  0  0  0  0  0  0  0  0
   39.2200   71.8410   57.0090 C   0  0  0  0  0  0  0  0  0  0  0  0
   38.9210   72.9660   57.7230 N   0  0  0  0  0  0  0  0  0  0  0  0
   39.7180   74.0990   57.6150 C   0  0  0  0  0  0  0  0  0  0  0  0
   40.8100   74.1300   56.8070 N   0  0  0  0  0  0  0  0  0  0  0  0
   42.0460   73.1300   55.5430 H   0  0  0  0  0  0  0  0  0  0  0  0
   38.5190   71.0880   57.1960 H   0  0  0  0  0  0  0  0  0  0  0  0
   39.4170   75.3100   58.3900 C   0  0  0  0  0  0  0  0  0  0  0  0
   38.5010   76.0890   58.0670 O   0  0  0  0  0  0  0  0  0  0  0  0
   40.3020   75.5090   59.5790 C   0  0  0  0  0  3  0  0  0  0  0  0
   39.4960   75.9480   60.7900 C   0  0  0  0  0  2  0  0  0  0  0  0
   38.5510   74.8540   61.2100 C   0  0  0  0  0  2  0  0  0  0  0  0
   39.2000   73.5110   61.2830 C   0  0  0  0  0  2  0  0  0  0  0  0
   40.6940   73.5390   61.0750 C   0  0  0  0  0  2  0  0  0  0  0  0
   41.1070   74.2740   59.8350 C   0  0  0  0  0  2  0  0  0  0  0  0
  1 19  1  0  0  0  0
  1  2  1  0  0  0  0
  2 11  1  0  0  0  0
  3  2  2  0  0  0  0
  3 12  1  0  0  0  0
  4  3  1  0  0  0  0
  5 10  1  0  0  0  0
  5  4  2  0  0  0  0
  6  5  1  0  0  0  0
  7  8  1  0  0  0  0
  7  6  2  0  0  0  0
  8  9  2  0  0  0  0
  9 17  1  0  0  0  0
  9 10  1  0  0  0  0
 10  1  2  0  0  0  0
 13  4  1  0  0  0  0
 14  6  1  0  0  0  0
 15  7  1  0  0  0  0
 16  8  1  0  0  0  0
 18 19  2  0  0  0  0
 18 23  1  0  0  0  0
 19 20  1  0  0  0  0
 20 25  1  0  0  0  0
 20 21  2  0  0  0  0
 22 21  1  0  0  0  0
 22 26  1  0  0  0  0
 23 22  2  0  0  0  0
 24 18  1  0  0  0  0
 26 28  1  0  0  0  0
 27 26  2  0  0  0  0
 28 33  1  0  0  0  0
 28 29  1  0  0  0  0
 29 30  1  0  0  0  0
 30 31  1  0  0  0  0
 32 31  1  0  0  0  0
 33 32  1  0  0  0  0
M  END
>  <minimizedAffinity>
-5.99478292

$$$$

 OpenBabel03212520363D

 33 36  0  0  0  0  0  0  0  0999 V2000
   42.5070   68.4590   60.4560 C   0  0  0  0  0  0  0  0  0  0  0  0
   43.1890   67.7780   59.4180 C   0  0  0  0  0  0  0  0  0  0  0  0
   43.3490   66.4190   59.3770 C   0  0  0  0  0  0  0  0  0  0  0  0
   42.8230   65.6450   60.3980 C   0  0  0  0  0  0  0  0  0  0  0  0
   42.1540   66.2900   61.4230 C   0  0  0  0  0  0  0  0  0  0  0  0
   41.5770   65.6240   62.4770 C   0  0  0  0  0  0  0  0  0  0  0  0
   40.9020   66.3020   63.4860 C   0  0  0  0  0  0  0  0  0  0  0  0
   40.7760   67.6760   63.4850 C   0  0  0  0  0  0  0  0  0  0  0  0
   41.3550   68.3520   62.4260 C   0  0  0  0  0  0  0  0  0  0  0  0
   42.0020   67.6620   61.4530 C   0  0  0  0  0  0  0  0  0  0  0  0
   43.6490   68.2150   58.5440 H   0  0  0  0  0  0  0  0  0  0  0  0
   43.8560   65.8560   58.6130 H   0  0  0  0  0  0  0  0  0  0  0  0
   42.8970   64.5680   60.4530 H   0  0  0  0  0  0  0  0  0  0  0  0
   41.6820   64.5300   62.4750 H   0  0  0  0  0  0  0  0  0  0  0  0
   40.4980   65.6320   64.2520 H   0  0  0  0  0  0  0  0  0  0  0  0
   40.2350   68.1030   64.3140 H   0  0  0  0  0  0  0  0  0  0  0  0
   41.2390   69.3960   62.5850 H   0  0  0  0  0  0  0  0  0  0  0  0
   43.1410   70.9180   60.8460 C   0  0  0  0  0  0  0  0  0  0  0  0
   42.4090   69.8910   60.2520 C   0  0  0  0  0  0  0  0  0  0  0  0
   41.3620   70.2200   59.3030 C   0  0  0  0  0  0  0  0  0  0  0  0
   41.1480   71.5430   59.0390 N   0  0  0  0  0  0  0  0  0  0  0  0
   41.9160   72.5170   59.6640 C   0  0  0  0  0  0  0  0  0  0  0  0
   42.8940   72.1960   60.5510 N   0  0  0  0  0  0  0  0  0  0  0  0
   43.8640   70.7490   61.5960 H   0  0  0  0  0  0  0  0  0  0  0  0
   40.7100   69.6220   58.7450 H   0  0  0  0  0  0  0  0  0  0  0  0
   41.6860   73.9440   59.4000 C   0  0  0  0  0  0  0  0  0  0  0  0
   42.0590   74.4890   58.3450 O   0  0  0  0  0  0  0  0  0  0  0  0
   40.9740   74.6610   60.5030 C   0  0  0  0  0  3  0  0  0  0  0  0
   40.1900   75.8450   59.9660 C   0  0  0  0  0  2  0  0  0  0  0  0
   39.0860   75.3700   59.0600 C   0  0  0  0  0  2  0  0  0  0  0  0
   38.2940   74.2440   59.6370 C   0  0  0  0  0  2  0  0  0  0  0  0
   38.6510   73.9100   61.0650 C   0  0  0  0  0  2  0  0  0  0  0  0
   40.1210   73.7030   61.2750 C   0  0  0  0  0  2  0  0  0  0  0  0
  1 10  1  0  0  0  0
  2  1  2  0  0  0  0
  3  2  1  0  0  0  0
  3  4  2  0  0  0  0
  4 13  1  0  0  0  0
  4  5  1  0  0  0  0
  5 10  2  0  0  0  0
  5  6  1  0  0  0  0
  6  7  2  0  0  0  0
  7 15  1  0  0  0  0
  8  7  1  0  0  0  0
  8 16  1  0  0  0  0
  9 17  1  0  0  0  0
  9  8  2  0  0  0  0
 10  9  1  0  0  0  0
 11  2  1  0  0  0  0
 12  3  1  0  0  0  0
 14  6  1  0  0  0  0
 18 24  1  0  0  0  0
 19  1  1  0  0  0  0
 19 18  2  0  0  0  0
 20 19  1  0  0  0  0
 21 20  2  0  0  0  0
 21 22  1  0  0  0  0
 22 23  2  0  0  0  0
 23 18  1  0  0  0  0
 25 20  1  0  0  0  0
 26 22  1  0  0  0  0
 26 28  1  0  0  0  0
 27 26  2  0  0  0  0
 28 33  1  0  0  0  0
 29 28  1  0  0  0  0
 30 31  1  0  0  0  0
 30 29  1  0  0  0  0
 31 32  1  0  0  0  0
 32 33  1  0  0  0  0
M  END
>  <minimizedAffinity>
-5.97404242

$$$$

 OpenBabel03212520363D

 33 36  0  0  0  0  0  0  0  0999 V2000
   40.0380   71.5140   54.6530 C   0  0  0  0  0  0  0  0  0  0  0  0
   39.6000   71.9150   53.3670 C   0  0  0  0  0  0  0  0  0  0  0  0
   39.6860   71.1240   52.2530 C   0  0  0  0  0  0  0  0  0  0  0  0
   40.2280   69.8540   52.3660 C   0  0  0  0  0  0  0  0  0  0  0  0
   40.6630   69.4430   53.6130 C   0  0  0  0  0  0  0  0  0  0  0  0
   41.2010   68.2000   53.8470 C   0  0  0  0  0  0  0  0  0  0  0  0
   41.6190   67.8130   55.1160 C   0  0  0  0  0  0  0  0  0  0  0  0
   41.5180   68.6530   56.2050 C   0  0  0  0  0  0  0  0  0  0  0  0
   40.9770   69.9060   55.9760 C   0  0  0  0  0  0  0  0  0  0  0  0
   40.5730   70.2520   54.7280 C   0  0  0  0  0  0  0  0  0  0  0  0
   39.1460   72.8570   53.0970 H   0  0  0  0  0  0  0  0  0  0  0  0
   39.3690   71.3810   51.2580 H   0  0  0  0  0  0  0  0  0  0  0  0
   40.3370   69.1580   51.5460 H   0  0  0  0  0  0  0  0  0  0  0  0
   41.2820   67.5350   52.9750 H   0  0  0  0  0  0  0  0  0  0  0  0
   42.0220   66.7960   55.1380 H   0  0  0  0  0  0  0  0  0  0  0  0
   41.8720   68.2570   57.1440 H   0  0  0  0  0  0  0  0  0  0  0  0
   41.0190   70.4640   56.8790 H   0  0  0  0  0  0  0  0  0  0  0  0
   38.7710   72.5280   56.6450 C   0  0  0  0  0  0  0  0  0  0  0  0
   39.7860   72.4950   55.6910 C   0  0  0  0  0  0  0  0  0  0  0  0
   40.7560   73.5740   55.6450 C   0  0  0  0  0  0  0  0  0  0  0  0
   40.6170   74.5810   56.5570 N   0  0  0  0  0  0  0  0  0  0  0  0
   39.5830   74.5520   57.4830 C   0  0  0  0  0  0  0  0  0  0  0  0
   38.6810   73.5350   57.5160 N   0  0  0  0  0  0  0  0  0  0  0  0
   37.9960   71.8140   56.6830 H   0  0  0  0  0  0  0  0  0  0  0  0
   41.5860   73.7430   55.0320 H   0  0  0  0  0  0  0  0  0  0  0  0
   39.4120   75.6370   58.4590 C   0  0  0  0  0  0  0  0  0  0  0  0
   38.5440   76.5180   58.3210 O   0  0  0  0  0  0  0  0  0  0  0  0
   40.3660   75.5770   59.6100 C   0  0  0  0  0  3  0  0  0  0  0  0
   39.6790   75.9680   60.9070 C   0  0  0  0  0  2  0  0  0  0  0  0
   38.6150   74.9620   61.2560 C   0  0  0  0  0  2  0  0  0  0  0  0
   39.0790   73.5490   61.1390 C   0  0  0  0  0  2  0  0  0  0  0  0
   40.5530   73.4080   60.8490 C   0  0  0  0  0  2  0  0  0  0  0  0
   41.0070   74.2270   59.6780 C   0  0  0  0  0  2  0  0  0  0  0  0
  1 10  1  0  0  0  0
  1 19  1  0  0  0  0
  2  1  2  0  0  0  0
  3  4  2  0  0  0  0
  3  2  1  0  0  0  0
  4  5  1  0  0  0  0
  5  6  2  0  0  0  0
  5 10  1  0  0  0  0
  6  7  1  0  0  0  0
  7 15  1  0  0  0  0
  7  8  2  0  0  0  0
  8 16  1  0  0  0  0
  9  8  1  0  0  0  0
  9 17  1  0  0  0  0
 10  9  2  0  0  0  0
 11  2  1  0  0  0  0
 12  3  1  0  0  0  0
 13  4  1  0  0  0  0
 14  6  1  0  0  0  0
 18 24  1  0  0  0  0
 18 23  1  0  0  0  0
 19 18  2  0  0  0  0
 20 19  1  0  0  0  0
 20 21  2  0  0  0  0
 21 22  1  0  0  0  0
 22 23  2  0  0  0  0
 22 26  1  0  0  0  0
 25 20  1  0  0  0  0
 26 28  1  0  0  0  0
 27 26  2  0  0  0  0
 28 33  1  0  0  0  0
 28 29  1  0  0  0  0
 29 30  1  0  0  0  0
 31 30  1  0  0  0  0
 32 31  1  0  0  0  0
 33 32  1  0  0  0  0
M  END
>  <minimizedAffinity>
-5.90006304

$$$$
