
 OpenBabel03212520563D

 32 35  0  0  0  0  0  0  0  0999 V2000
   40.9000   80.0580   61.7540 C   0  0  0  0  0  0  0  0  0  0  0  0
   40.7560   78.8970   62.4890 C   0  0  0  0  0  0  0  0  0  0  0  0
   40.3460   77.7860   61.8480 C   0  0  0  0  0  0  0  0  0  0  0  0
   40.0840   77.8430   60.4800 C   0  0  0  0  0  0  0  0  0  0  0  0
   40.4420   79.6080   60.0570 S   0  0  0  0  0  0  0  0  0  0  0  0
   40.9600   78.8570   63.5540 H   0  0  0  0  0  0  0  0  0  0  0  0
   40.1760   76.7920   62.2370 H   0  0  0  0  0  0  0  0  0  0  0  0
   43.0610   82.9030   62.5750 C   0  0  0  0  0  0  0  0  0  0  0  0
   42.2000   83.7400   63.3530 C   0  0  0  0  0  0  0  0  0  0  0  0
   40.9060   83.3120   63.5760 C   0  0  0  0  0  0  0  0  0  0  0  0
   40.5160   82.1280   63.0510 N   0  0  0  0  0  0  0  0  0  0  0  0
   41.3450   81.3600   62.3240 C   0  0  0  0  0  0  0  0  0  0  0  0
   42.5910   81.7420   62.0910 N   0  0  0  0  0  0  0  0  0  0  0  0
   44.0670   83.2560   62.4110 H   0  0  0  0  0  0  0  0  0  0  0  0
   42.4890   84.6720   63.7720 H   0  0  0  0  0  0  0  0  0  0  0  0
   40.1600   83.8450   64.1430 H   0  0  0  0  0  0  0  0  0  0  0  0
   39.6440   76.9170   59.4680 C   0  0  0  0  0  0  0  0  0  0  0  0
   40.0550   75.6300   59.5230 C   0  0  0  0  0  0  0  0  0  0  0  0
   39.5380   74.8540   58.4650 C   0  0  0  0  0  0  0  0  0  0  0  0
   38.7280   75.3260   57.5060 N   0  0  0  0  0  0  0  0  0  0  0  0
   38.3760   76.6200   57.5380 C   0  0  0  0  0  0  0  0  0  0  0  0
   38.8340   77.4370   58.5280 N   0  0  0  0  0  0  0  0  0  0  0  0
   40.7000   75.2020   60.2650 H   0  0  0  0  0  0  0  0  0  0  0  0
   39.8010   73.7880   58.4000 H   0  0  0  0  0  0  0  0  0  0  0  0
   37.4950   77.1320   56.4960 C   0  0  0  0  0  0  0  0  0  0  0  0
   36.4420   77.7290   56.8750 O   0  0  0  0  0  0  0  0  0  0  0  0
   37.9340   76.8960   55.0950 C   0  0  0  0  0  3  0  0  0  0  0  0
   36.8080   77.0500   54.1060 C   0  0  0  0  0  2  0  0  0  0  0  0
   36.5880   78.4580   53.6490 C   0  0  0  0  0  2  0  0  0  0  0  0
   37.8330   79.2400   53.3860 C   0  0  0  0  0  2  0  0  0  0  0  0
   39.0670   78.3710   53.4190 C   0  0  0  0  0  2  0  0  0  0  0  0
   39.1180   77.7720   54.8180 C   0  0  0  0  0  2  0  0  0  0  0  0
  1 12  1  0  0  0  0
  1  2  2  0  0  0  0
  2  6  1  0  0  0  0
  3  7  1  0  0  0  0
  3  2  1  0  0  0  0
  4  3  2  0  0  0  0
  5  4  1  0  0  0  0
  5  1  1  0  0  0  0
  8  9  1  0  0  0  0
  9 10  2  0  0  0  0
  9 15  1  0  0  0  0
 10 16  1  0  0  0  0
 11 10  1  0  0  0  0
 12 11  2  0  0  0  0
 13 12  1  0  0  0  0
 13  8  2  0  0  0  0
 14  8  1  0  0  0  0
 17 18  1  0  0  0  0
 17  4  1  0  0  0  0
 18 23  1  0  0  0  0
 19 18  2  0  0  0  0
 20 21  2  0  0  0  0
 20 19  1  0  0  0  0
 21 22  1  0  0  0  0
 22 17  2  0  0  0  0
 24 19  1  0  0  0  0
 25 26  2  0  0  0  0
 25 21  1  0  0  0  0
 27 25  1  0  0  0  0
 28 27  1  0  0  0  0
 29 28  1  0  0  0  0
 30 31  1  0  0  0  0
 30 29  1  0  0  0  0
 31 32  1  0  0  0  0
 32 27  1  0  0  0  0
M  END
>  <minimizedAffinity>
-6.19117117

>  <minimizedRMSD>
0.793741286

$$$$
