
 OpenBabel03212520353D

 33 36  0  0  0  0  0  0  0  0999 V2000
   40.4850   80.5900   56.7430 C   0  0  0  0  0  0  0  0  0  0  0  0
   41.8320   80.2650   56.4510 C   0  0  0  0  0  0  0  0  0  0  0  0
   42.2320   79.6450   55.2980 C   0  0  0  0  0  0  0  0  0  0  0  0
   41.2820   79.3090   54.3470 C   0  0  0  0  0  0  0  0  0  0  0  0
   39.9600   79.6170   54.6130 C   0  0  0  0  0  0  0  0  0  0  0  0
   38.9370   79.3470   53.7360 C   0  0  0  0  0  0  0  0  0  0  0  0
   37.6190   79.6800   54.0290 C   0  0  0  0  0  0  0  0  0  0  0  0
   37.2670   80.2970   55.2120 C   0  0  0  0  0  0  0  0  0  0  0  0
   38.2940   80.5720   56.0990 C   0  0  0  0  0  0  0  0  0  0  0  0
   39.5700   80.2400   55.7810 C   0  0  0  0  0  0  0  0  0  0  0  0
   42.6980   80.4600   57.0660 H   0  0  0  0  0  0  0  0  0  0  0  0
   43.2380   79.3770   55.0300 H   0  0  0  0  0  0  0  0  0  0  0  0
   41.5010   78.8200   53.4070 H   0  0  0  0  0  0  0  0  0  0  0  0
   39.2220   78.8530   52.7960 H   0  0  0  0  0  0  0  0  0  0  0  0
   36.9230   79.4010   53.2310 H   0  0  0  0  0  0  0  0  0  0  0  0
   36.2180   80.5110   55.3410 H   0  0  0  0  0  0  0  0  0  0  0  0
   37.8750   80.9830   56.9840 H   0  0  0  0  0  0  0  0  0  0  0  0
   40.3000   82.6730   58.2360 C   0  0  0  0  0  0  0  0  0  0  0  0
   40.3110   81.3000   57.9960 C   0  0  0  0  0  0  0  0  0  0  0  0
   40.1620   80.3810   59.1090 C   0  0  0  0  0  0  0  0  0  0  0  0
   40.0160   80.9230   60.3540 N   0  0  0  0  0  0  0  0  0  0  0  0
   40.0100   82.3010   60.5240 C   0  0  0  0  0  0  0  0  0  0  0  0
   40.1500   83.1520   59.4720 N   0  0  0  0  0  0  0  0  0  0  0  0
   40.4750   83.3890   57.4820 H   0  0  0  0  0  0  0  0  0  0  0  0
   40.1340   79.3370   59.1550 H   0  0  0  0  0  0  0  0  0  0  0  0
   39.8690   82.8970   61.8590 C   0  0  0  0  0  0  0  0  0  0  0  0
   38.9380   83.6760   62.1390 O   0  0  0  0  0  0  0  0  0  0  0  0
   40.9310   82.4840   62.8270 C   0  0  0  0  0  3  0  0  0  0  0  0
   42.3160   82.6930   62.2380 C   0  0  0  0  0  2  0  0  0  0  0  0
   42.5700   84.1590   62.0140 C   0  0  0  0  0  2  0  0  0  0  0  0
   42.2020   85.0060   63.1870 C   0  0  0  0  0  2  0  0  0  0  0  0
   41.7990   84.2210   64.4100 C   0  0  0  0  0  2  0  0  0  0  0  0
   40.7440   83.1930   64.1330 C   0  0  0  0  0  2  0  0  0  0  0  0
  1 19  1  0  0  0  0
  2  1  1  0  0  0  0
  2 11  1  0  0  0  0
  3  2  2  0  0  0  0
  4  5  2  0  0  0  0
  4  3  1  0  0  0  0
  5 10  1  0  0  0  0
  6  7  2  0  0  0  0
  6  5  1  0  0  0  0
  7  8  1  0  0  0  0
  8 16  1  0  0  0  0
  8  9  2  0  0  0  0
  9 17  1  0  0  0  0
 10  9  1  0  0  0  0
 10  1  2  0  0  0  0
 12  3  1  0  0  0  0
 13  4  1  0  0  0  0
 14  6  1  0  0  0  0
 15  7  1  0  0  0  0
 18 23  1  0  0  0  0
 19 18  2  0  0  0  0
 19 20  1  0  0  0  0
 20 25  1  0  0  0  0
 20 21  2  0  0  0  0
 21 22  1  0  0  0  0
 22 26  1  0  0  0  0
 23 22  2  0  0  0  0
 24 18  1  0  0  0  0
 26 27  2  0  0  0  0
 26 28  1  0  0  0  0
 28 33  1  0  0  0  0
 29 28  1  0  0  0  0
 30 29  1  0  0  0  0
 30 31  1  0  0  0  0
 31 32  1  0  0  0  0
 33 32  1  0  0  0  0
M  END
>  <minimizedAffinity>
-6.23598433

>  <minimizedRMSD>
3.56821156

$$$$
