
 OpenBabel03212520563D

 32 35  0  0  0  0  0  0  0  0999 V2000
   40.9260   80.2020   61.8040 C   0  0  0  0  0  0  0  0  0  0  0  0
   40.8460   79.0120   62.5000 C   0  0  0  0  0  0  0  0  0  0  0  0
   40.4490   77.9110   61.8340 C   0  0  0  0  0  0  0  0  0  0  0  0
   40.1360   78.0070   60.4790 C   0  0  0  0  0  0  0  0  0  0  0  0
   40.4220   79.7980   60.1080 S   0  0  0  0  0  0  0  0  0  0  0  0
   41.0900   78.9400   63.5560 H   0  0  0  0  0  0  0  0  0  0  0  0
   40.3240   76.8990   62.1920 H   0  0  0  0  0  0  0  0  0  0  0  0
   43.0330   83.0720   62.6770 C   0  0  0  0  0  0  0  0  0  0  0  0
   42.1650   83.8650   63.4910 C   0  0  0  0  0  0  0  0  0  0  0  0
   40.8850   83.4010   63.7200 C   0  0  0  0  0  0  0  0  0  0  0  0
   40.5140   82.2240   63.1660 N   0  0  0  0  0  0  0  0  0  0  0  0
   41.3500   81.4970   62.4050 C   0  0  0  0  0  0  0  0  0  0  0  0
   42.5830   81.9150   62.1660 N   0  0  0  0  0  0  0  0  0  0  0  0
   44.0290   83.4530   62.5090 H   0  0  0  0  0  0  0  0  0  0  0  0
   42.4390   84.7920   63.9330 H   0  0  0  0  0  0  0  0  0  0  0  0
   40.1360   83.9000   64.3130 H   0  0  0  0  0  0  0  0  0  0  0  0
   39.6890   77.1050   59.4500 C   0  0  0  0  0  0  0  0  0  0  0  0
   40.1540   75.8340   59.4350 C   0  0  0  0  0  0  0  0  0  0  0  0
   39.6220   75.0790   58.3690 C   0  0  0  0  0  0  0  0  0  0  0  0
   38.7520   75.5540   57.4650 N   0  0  0  0  0  0  0  0  0  0  0  0
   38.3500   76.8300   57.5650 C   0  0  0  0  0  0  0  0  0  0  0  0
   38.8180   77.6260   58.5670 N   0  0  0  0  0  0  0  0  0  0  0  0
   40.8480   75.4050   60.1310 H   0  0  0  0  0  0  0  0  0  0  0  0
   39.9250   74.0290   58.2490 H   0  0  0  0  0  0  0  0  0  0  0  0
   37.4030   77.3440   56.5830 C   0  0  0  0  0  0  0  0  0  0  0  0
   36.2020   76.9480   56.6800 O   0  0  0  0  0  0  0  0  0  0  0  0
   37.9570   78.2830   55.5720 C   0  0  0  0  0  3  0  0  0  0  0  0
   39.3710   77.9380   55.1800 C   0  0  0  0  0  2  0  0  0  0  0  0
   39.4670   76.9240   54.0820 C   0  0  0  0  0  2  0  0  0  0  0  0
   38.4780   77.0910   52.9770 C   0  0  0  0  0  2  0  0  0  0  0  0
   37.7250   78.3970   53.0820 C   0  0  0  0  0  2  0  0  0  0  0  0
   37.0010   78.3530   54.4200 C   0  0  0  0  0  2  0  0  0  0  0  0
  1 12  1  0  0  0  0
  1  2  2  0  0  0  0
  2  6  1  0  0  0  0
  3  7  1  0  0  0  0
  3  2  1  0  0  0  0
  4  3  2  0  0  0  0
  5  4  1  0  0  0  0
  5  1  1  0  0  0  0
  8  9  1  0  0  0  0
  9 10  2  0  0  0  0
  9 15  1  0  0  0  0
 10 16  1  0  0  0  0
 11 10  1  0  0  0  0
 12 11  2  0  0  0  0
 13 12  1  0  0  0  0
 13  8  2  0  0  0  0
 14  8  1  0  0  0  0
 17  4  1  0  0  0  0
 18 17  1  0  0  0  0
 18 23  1  0  0  0  0
 19 18  2  0  0  0  0
 20 21  2  0  0  0  0
 20 19  1  0  0  0  0
 21 22  1  0  0  0  0
 22 17  2  0  0  0  0
 24 19  1  0  0  0  0
 25 26  2  0  0  0  0
 25 21  1  0  0  0  0
 27 25  1  0  0  0  0
 28 27  1  0  0  0  0
 29 28  1  0  0  0  0
 30 31  1  0  0  0  0
 30 29  1  0  0  0  0
 31 32  1  0  0  0  0
 32 27  1  0  0  0  0
M  END
>  <minimizedAffinity>
-6.04326725

>  <minimizedRMSD>
0.740360856

$$$$
