
 OpenBabel03212520563D

 32 35  0  0  0  0  0  0  0  0999 V2000
   40.9040   80.1430   61.8810 C   0  0  0  0  0  0  0  0  0  0  0  0
   40.8080   79.0000   62.6500 C   0  0  0  0  0  0  0  0  0  0  0  0
   40.4290   77.8570   62.0470 C   0  0  0  0  0  0  0  0  0  0  0  0
   40.1480   77.8660   60.6810 C   0  0  0  0  0  0  0  0  0  0  0  0
   40.4410   79.6290   60.2030 S   0  0  0  0  0  0  0  0  0  0  0  0
   41.0270   78.9970   63.7130 H   0  0  0  0  0  0  0  0  0  0  0  0
   40.2970   76.8710   62.4660 H   0  0  0  0  0  0  0  0  0  0  0  0
   42.9880   83.0680   62.6180 C   0  0  0  0  0  0  0  0  0  0  0  0
   42.0990   83.9100   63.3570 C   0  0  0  0  0  0  0  0  0  0  0  0
   40.8140   83.4600   63.5840 C   0  0  0  0  0  0  0  0  0  0  0  0
   40.4570   82.2480   63.0980 N   0  0  0  0  0  0  0  0  0  0  0  0
   41.3120   81.4750   62.4070 C   0  0  0  0  0  0  0  0  0  0  0  0
   42.5510   81.8790   62.1720 N   0  0  0  0  0  0  0  0  0  0  0  0
   43.9870   83.4390   62.4510 H   0  0  0  0  0  0  0  0  0  0  0  0
   42.3610   84.8640   63.7450 H   0  0  0  0  0  0  0  0  0  0  0  0
   40.0490   83.9950   64.1230 H   0  0  0  0  0  0  0  0  0  0  0  0
   39.7260   76.8980   59.7020 C   0  0  0  0  0  0  0  0  0  0  0  0
   40.1490   75.6170   59.8120 C   0  0  0  0  0  0  0  0  0  0  0  0
   39.6500   74.7960   58.7800 C   0  0  0  0  0  0  0  0  0  0  0  0
   38.8450   75.2220   57.7950 N   0  0  0  0  0  0  0  0  0  0  0  0
   38.4810   76.5130   57.7730 C   0  0  0  0  0  0  0  0  0  0  0  0
   38.9210   77.3720   58.7350 N   0  0  0  0  0  0  0  0  0  0  0  0
   40.7900   75.2250   60.5760 H   0  0  0  0  0  0  0  0  0  0  0  0
   39.9230   73.7310   58.7590 H   0  0  0  0  0  0  0  0  0  0  0  0
   37.6060   76.9750   56.7030 C   0  0  0  0  0  0  0  0  0  0  0  0
   36.3920   77.1860   57.0040 O   0  0  0  0  0  0  0  0  0  0  0  0
   38.2400   77.1490   55.3690 C   0  0  0  0  0  3  0  0  0  0  0  0
   37.4100   76.5610   54.2570 C   0  0  0  0  0  2  0  0  0  0  0  0
   36.3650   77.4900   53.7230 C   0  0  0  0  0  2  0  0  0  0  0  0
   36.7990   78.9110   53.5690 C   0  0  0  0  0  2  0  0  0  0  0  0
   38.2880   79.0760   53.7710 C   0  0  0  0  0  2  0  0  0  0  0  0
   38.5690   78.6000   55.1900 C   0  0  0  0  0  2  0  0  0  0  0  0
  1 12  1  0  0  0  0
  1  2  2  0  0  0  0
  2  6  1  0  0  0  0
  3  7  1  0  0  0  0
  3  2  1  0  0  0  0
  4  3  2  0  0  0  0
  5  4  1  0  0  0  0
  5  1  1  0  0  0  0
  8  9  1  0  0  0  0
  9 10  2  0  0  0  0
  9 15  1  0  0  0  0
 10 16  1  0  0  0  0
 11 10  1  0  0  0  0
 12 11  2  0  0  0  0
 13 12  1  0  0  0  0
 13  8  2  0  0  0  0
 14  8  1  0  0  0  0
 17 18  1  0  0  0  0
 17  4  1  0  0  0  0
 18 23  1  0  0  0  0
 19 18  2  0  0  0  0
 20 19  1  0  0  0  0
 21 20  2  0  0  0  0
 21 22  1  0  0  0  0
 22 17  2  0  0  0  0
 24 19  1  0  0  0  0
 25 26  2  0  0  0  0
 25 21  1  0  0  0  0
 27 25  1  0  0  0  0
 28 27  1  0  0  0  0
 29 28  1  0  0  0  0
 30 29  1  0  0  0  0
 30 31  1  0  0  0  0
 31 32  1  0  0  0  0
 32 27  1  0  0  0  0
M  END
>  <minimizedAffinity>
-6.32736158

>  <minimizedRMSD>
0.723948359

$$$$
