
 OpenBabel03212520563D

 32 35  0  0  0  0  0  0  0  0999 V2000
   41.0580   80.4450   61.9510 C   0  0  0  0  0  0  0  0  0  0  0  0
   41.3890   79.2810   62.6170 C   0  0  0  0  0  0  0  0  0  0  0  0
   41.0340   78.1070   62.0600 C   0  0  0  0  0  0  0  0  0  0  0  0
   40.3530   78.1050   60.8440 C   0  0  0  0  0  0  0  0  0  0  0  0
   40.1950   79.9060   60.4490 S   0  0  0  0  0  0  0  0  0  0  0  0
   41.9200   79.2860   63.5640 H   0  0  0  0  0  0  0  0  0  0  0  0
   41.1990   77.1000   62.4170 H   0  0  0  0  0  0  0  0  0  0  0  0
   42.7680   83.6710   62.2850 C   0  0  0  0  0  0  0  0  0  0  0  0
   42.0180   84.3200   63.3160 C   0  0  0  0  0  0  0  0  0  0  0  0
   40.9510   83.6410   63.8690 C   0  0  0  0  0  0  0  0  0  0  0  0
   40.6650   82.4000   63.4120 N   0  0  0  0  0  0  0  0  0  0  0  0
   41.3860   81.8120   62.4420 C   0  0  0  0  0  0  0  0  0  0  0  0
   42.4150   82.4370   61.8910 N   0  0  0  0  0  0  0  0  0  0  0  0
   43.5970   84.2180   61.8650 H   0  0  0  0  0  0  0  0  0  0  0  0
   42.2280   85.2930   63.6860 H   0  0  0  0  0  0  0  0  0  0  0  0
   40.3080   84.0160   64.6490 H   0  0  0  0  0  0  0  0  0  0  0  0
   39.8160   77.1060   59.9560 C   0  0  0  0  0  0  0  0  0  0  0  0
   40.1730   75.8120   60.1220 C   0  0  0  0  0  0  0  0  0  0  0  0
   39.5630   74.9610   59.1770 C   0  0  0  0  0  0  0  0  0  0  0  0
   38.7220   75.3740   58.2170 N   0  0  0  0  0  0  0  0  0  0  0  0
   38.4290   76.6810   58.1350 C   0  0  0  0  0  0  0  0  0  0  0  0
   38.9780   77.5690   59.0120 N   0  0  0  0  0  0  0  0  0  0  0  0
   40.8390   75.4290   60.8690 H   0  0  0  0  0  0  0  0  0  0  0  0
   39.7750   73.8830   59.2070 H   0  0  0  0  0  0  0  0  0  0  0  0
   37.5140   77.1300   57.0930 C   0  0  0  0  0  0  0  0  0  0  0  0
   36.2730   77.0000   57.3230 O   0  0  0  0  0  0  0  0  0  0  0  0
   38.1430   77.6930   55.8690 C   0  0  0  0  0  3  0  0  0  0  0  0
   39.3120   76.8690   55.3930 C   0  0  0  0  0  2  0  0  0  0  0  0
   38.9310   75.7300   54.5000 C   0  0  0  0  0  2  0  0  0  0  0  0
   37.8660   76.0400   53.5000 C   0  0  0  0  0  2  0  0  0  0  0  0
   37.5510   77.5160   53.4430 C   0  0  0  0  0  2  0  0  0  0  0  0
   37.0740   77.8940   54.8390 C   0  0  0  0  0  2  0  0  0  0  0  0
  1 12  1  0  0  0  0
  1  2  2  0  0  0  0
  2  6  1  0  0  0  0
  3  7  1  0  0  0  0
  3  2  1  0  0  0  0
  4  3  2  0  0  0  0
  5  4  1  0  0  0  0
  5  1  1  0  0  0  0
  8  9  1  0  0  0  0
  9 15  1  0  0  0  0
  9 10  2  0  0  0  0
 10 16  1  0  0  0  0
 11 10  1  0  0  0  0
 12 11  2  0  0  0  0
 13  8  2  0  0  0  0
 13 12  1  0  0  0  0
 14  8  1  0  0  0  0
 17 18  1  0  0  0  0
 17  4  1  0  0  0  0
 18 23  1  0  0  0  0
 19 24  1  0  0  0  0
 19 18  2  0  0  0  0
 20 19  1  0  0  0  0
 21 20  2  0  0  0  0
 21 22  1  0  0  0  0
 22 17  2  0  0  0  0
 25 26  2  0  0  0  0
 25 21  1  0  0  0  0
 27 25  1  0  0  0  0
 28 27  1  0  0  0  0
 29 28  1  0  0  0  0
 30 29  1  0  0  0  0
 31 30  1  0  0  0  0
 31 32  1  0  0  0  0
 32 27  1  0  0  0  0
M  END
>  <minimizedAffinity>
-6.00199366

>  <minimizedRMSD>
0.860044897

$$$$
