
 OpenBabel03212520563D

 32 35  0  0  0  0  0  0  0  0999 V2000
   40.8610   80.1340   61.7700 C   0  0  0  0  0  0  0  0  0  0  0  0
   40.7420   78.9700   62.5030 C   0  0  0  0  0  0  0  0  0  0  0  0
   40.3590   77.8500   61.8610 C   0  0  0  0  0  0  0  0  0  0  0  0
   40.0980   77.9020   60.4920 C   0  0  0  0  0  0  0  0  0  0  0  0
   40.4170   79.6750   60.0720 S   0  0  0  0  0  0  0  0  0  0  0  0
   40.9460   78.9330   63.5690 H   0  0  0  0  0  0  0  0  0  0  0  0
   40.2100   76.8520   62.2490 H   0  0  0  0  0  0  0  0  0  0  0  0
   42.9790   82.9880   62.6690 C   0  0  0  0  0  0  0  0  0  0  0  0
   42.0750   83.8420   63.3760 C   0  0  0  0  0  0  0  0  0  0  0  0
   40.7680   83.4220   63.5280 C   0  0  0  0  0  0  0  0  0  0  0  0
   40.4060   82.2290   63.0010 N   0  0  0  0  0  0  0  0  0  0  0  0
   41.2760   81.4450   62.3410 C   0  0  0  0  0  0  0  0  0  0  0  0
   42.5350   81.8200   62.1790 N   0  0  0  0  0  0  0  0  0  0  0  0
   43.9950   83.3340   62.5610 H   0  0  0  0  0  0  0  0  0  0  0  0
   42.3420   84.7810   63.7950 H   0  0  0  0  0  0  0  0  0  0  0  0
   39.9910   83.9690   64.0360 H   0  0  0  0  0  0  0  0  0  0  0  0
   39.6810   76.9680   59.4790 C   0  0  0  0  0  0  0  0  0  0  0  0
   40.1240   75.6910   59.5320 C   0  0  0  0  0  0  0  0  0  0  0  0
   39.6260   74.9040   58.4730 C   0  0  0  0  0  0  0  0  0  0  0  0
   38.8040   75.3580   57.5140 N   0  0  0  0  0  0  0  0  0  0  0  0
   38.4210   76.6430   57.5490 C   0  0  0  0  0  0  0  0  0  0  0  0
   38.8580   77.4690   58.5400 N   0  0  0  0  0  0  0  0  0  0  0  0
   40.7800   75.2770   60.2730 H   0  0  0  0  0  0  0  0  0  0  0  0
   39.9150   73.8460   58.4050 H   0  0  0  0  0  0  0  0  0  0  0  0
   37.5270   77.1340   56.5080 C   0  0  0  0  0  0  0  0  0  0  0  0
   36.4650   77.7160   56.8890 O   0  0  0  0  0  0  0  0  0  0  0  0
   37.9640   76.8980   55.1060 C   0  0  0  0  0  3  0  0  0  0  0  0
   36.8320   77.0350   54.1200 C   0  0  0  0  0  2  0  0  0  0  0  0
   36.5950   78.4390   53.6590 C   0  0  0  0  0  2  0  0  0  0  0  0
   37.8300   79.2340   53.3900 C   0  0  0  0  0  2  0  0  0  0  0  0
   39.0740   78.3790   53.4210 C   0  0  0  0  0  2  0  0  0  0  0  0
   39.1360   77.7860   54.8220 C   0  0  0  0  0  2  0  0  0  0  0  0
  1 12  1  0  0  0  0
  1  2  2  0  0  0  0
  2  6  1  0  0  0  0
  3  7  1  0  0  0  0
  3  2  1  0  0  0  0
  4  3  2  0  0  0  0
  5  4  1  0  0  0  0
  5  1  1  0  0  0  0
  8  9  1  0  0  0  0
  9 10  2  0  0  0  0
  9 15  1  0  0  0  0
 10 16  1  0  0  0  0
 11 10  1  0  0  0  0
 12 11  2  0  0  0  0
 13 12  1  0  0  0  0
 13  8  2  0  0  0  0
 14  8  1  0  0  0  0
 17 18  1  0  0  0  0
 17  4  1  0  0  0  0
 18 23  1  0  0  0  0
 19 18  2  0  0  0  0
 20 21  2  0  0  0  0
 20 19  1  0  0  0  0
 21 22  1  0  0  0  0
 22 17  2  0  0  0  0
 24 19  1  0  0  0  0
 25 26  2  0  0  0  0
 25 21  1  0  0  0  0
 27 25  1  0  0  0  0
 28 27  1  0  0  0  0
 29 28  1  0  0  0  0
 30 31  1  0  0  0  0
 30 29  1  0  0  0  0
 31 32  1  0  0  0  0
 32 27  1  0  0  0  0
M  END
>  <minimizedAffinity>
-6.19343519

>  <minimizedRMSD>
0.807050765

$$$$
