
 OpenBabel03212520563D

 32 35  0  0  0  0  0  0  0  0999 V2000
   40.9790   80.2360   61.8990 C   0  0  0  0  0  0  0  0  0  0  0  0
   40.9860   79.0460   62.6010 C   0  0  0  0  0  0  0  0  0  0  0  0
   40.5830   77.9300   61.9650 C   0  0  0  0  0  0  0  0  0  0  0  0
   40.1750   78.0100   60.6340 C   0  0  0  0  0  0  0  0  0  0  0  0
   40.3750   79.8080   60.2420 S   0  0  0  0  0  0  0  0  0  0  0  0
   41.3040   78.9880   63.6370 H   0  0  0  0  0  0  0  0  0  0  0  0
   40.5170   76.9160   62.3330 H   0  0  0  0  0  0  0  0  0  0  0  0
   43.0930   83.1090   62.7450 C   0  0  0  0  0  0  0  0  0  0  0  0
   42.2060   83.9430   63.4950 C   0  0  0  0  0  0  0  0  0  0  0  0
   40.9120   83.5050   63.6910 C   0  0  0  0  0  0  0  0  0  0  0  0
   40.5450   82.3130   63.1680 N   0  0  0  0  0  0  0  0  0  0  0  0
   41.3990   81.5470   62.4670 C   0  0  0  0  0  0  0  0  0  0  0  0
   42.6460   81.9390   62.2600 N   0  0  0  0  0  0  0  0  0  0  0  0
   44.1000   83.4690   62.6020 H   0  0  0  0  0  0  0  0  0  0  0  0
   42.4770   84.8820   63.9120 H   0  0  0  0  0  0  0  0  0  0  0  0
   40.1480   84.0370   64.2350 H   0  0  0  0  0  0  0  0  0  0  0  0
   39.6910   77.0890   59.6400 C   0  0  0  0  0  0  0  0  0  0  0  0
   40.0330   75.7820   59.7240 C   0  0  0  0  0  0  0  0  0  0  0  0
   39.4790   75.0130   58.6800 C   0  0  0  0  0  0  0  0  0  0  0  0
   38.6990   75.5070   57.7070 N   0  0  0  0  0  0  0  0  0  0  0  0
   38.4160   76.8180   57.7100 C   0  0  0  0  0  0  0  0  0  0  0  0
   38.9130   77.6310   58.6860 N   0  0  0  0  0  0  0  0  0  0  0  0
   40.6510   75.3360   60.4780 H   0  0  0  0  0  0  0  0  0  0  0  0
   39.6850   73.9340   58.6380 H   0  0  0  0  0  0  0  0  0  0  0  0
   37.5680   77.3540   56.6530 C   0  0  0  0  0  0  0  0  0  0  0  0
   36.3420   77.0300   56.6800 O   0  0  0  0  0  0  0  0  0  0  0  0
   38.2400   78.2290   55.6560 C   0  0  0  0  0  3  0  0  0  0  0  0
   38.5270   77.5100   54.3630 C   0  0  0  0  0  2  0  0  0  0  0  0
   37.3880   77.5230   53.3930 C   0  0  0  0  0  2  0  0  0  0  0  0
   36.6500   78.8180   53.3010 C   0  0  0  0  0  2  0  0  0  0  0  0
   37.3560   79.9280   54.0440 C   0  0  0  0  0  2  0  0  0  0  0  0
   37.4260   79.4760   55.4970 C   0  0  0  0  0  2  0  0  0  0  0  0
  1 12  1  0  0  0  0
  1  2  2  0  0  0  0
  2  6  1  0  0  0  0
  3  7  1  0  0  0  0
  3  2  1  0  0  0  0
  4  3  2  0  0  0  0
  5  4  1  0  0  0  0
  5  1  1  0  0  0  0
  8  9  1  0  0  0  0
  9 10  2  0  0  0  0
  9 15  1  0  0  0  0
 10 16  1  0  0  0  0
 11 10  1  0  0  0  0
 12 11  2  0  0  0  0
 13 12  1  0  0  0  0
 13  8  2  0  0  0  0
 14  8  1  0  0  0  0
 17 18  1  0  0  0  0
 17  4  1  0  0  0  0
 18 23  1  0  0  0  0
 19 18  2  0  0  0  0
 20 21  2  0  0  0  0
 20 19  1  0  0  0  0
 21 22  1  0  0  0  0
 22 17  2  0  0  0  0
 24 19  1  0  0  0  0
 25 26  2  0  0  0  0
 25 21  1  0  0  0  0
 27 25  1  0  0  0  0
 28 27  1  0  0  0  0
 29 28  1  0  0  0  0
 30 29  1  0  0  0  0
 30 31  1  0  0  0  0
 31 32  1  0  0  0  0
 32 27  1  0  0  0  0
M  END
>  <minimizedAffinity>
-6.47474527

>  <minimizedRMSD>
0.82727921

$$$$
