
 OpenBabel03212520553D

 32 35  0  0  0  0  0  0  0  0999 V2000
   40.9770   80.2310   61.8990 C   0  0  0  0  0  0  0  0  0  0  0  0
   40.9860   79.0410   62.6000 C   0  0  0  0  0  0  0  0  0  0  0  0
   40.5830   77.9250   61.9630 C   0  0  0  0  0  0  0  0  0  0  0  0
   40.1740   78.0060   60.6330 C   0  0  0  0  0  0  0  0  0  0  0  0
   40.3720   79.8040   60.2420 S   0  0  0  0  0  0  0  0  0  0  0  0
   41.3050   78.9820   63.6360 H   0  0  0  0  0  0  0  0  0  0  0  0
   40.5190   76.9100   62.3300 H   0  0  0  0  0  0  0  0  0  0  0  0
   43.0880   83.1060   62.7430 C   0  0  0  0  0  0  0  0  0  0  0  0
   42.2020   83.9380   63.4970 C   0  0  0  0  0  0  0  0  0  0  0  0
   40.9090   83.4970   63.6970 C   0  0  0  0  0  0  0  0  0  0  0  0
   40.5430   82.3050   63.1720 N   0  0  0  0  0  0  0  0  0  0  0  0
   41.3960   81.5420   62.4680 C   0  0  0  0  0  0  0  0  0  0  0  0
   42.6420   81.9370   62.2580 N   0  0  0  0  0  0  0  0  0  0  0  0
   44.0940   83.4690   62.5970 H   0  0  0  0  0  0  0  0  0  0  0  0
   42.4720   84.8770   63.9150 H   0  0  0  0  0  0  0  0  0  0  0  0
   40.1460   84.0270   64.2440 H   0  0  0  0  0  0  0  0  0  0  0  0
   39.6900   77.0850   59.6380 C   0  0  0  0  0  0  0  0  0  0  0  0
   40.0310   75.7780   59.7220 C   0  0  0  0  0  0  0  0  0  0  0  0
   39.4770   75.0100   58.6780 C   0  0  0  0  0  0  0  0  0  0  0  0
   38.6980   75.5040   57.7040 N   0  0  0  0  0  0  0  0  0  0  0  0
   38.4160   76.8150   57.7080 C   0  0  0  0  0  0  0  0  0  0  0  0
   38.9120   77.6270   58.6840 N   0  0  0  0  0  0  0  0  0  0  0  0
   40.6490   75.3320   60.4760 H   0  0  0  0  0  0  0  0  0  0  0  0
   39.6830   73.9300   58.6350 H   0  0  0  0  0  0  0  0  0  0  0  0
   37.5670   77.3520   56.6510 C   0  0  0  0  0  0  0  0  0  0  0  0
   36.3410   77.0280   56.6780 O   0  0  0  0  0  0  0  0  0  0  0  0
   38.2400   78.2270   55.6540 C   0  0  0  0  0  3  0  0  0  0  0  0
   38.5270   77.5070   54.3610 C   0  0  0  0  0  2  0  0  0  0  0  0
   37.3870   77.5220   53.3920 C   0  0  0  0  0  2  0  0  0  0  0  0
   36.6500   78.8170   53.3000 C   0  0  0  0  0  2  0  0  0  0  0  0
   37.3560   79.9260   54.0420 C   0  0  0  0  0  2  0  0  0  0  0  0
   37.4250   79.4740   55.4960 C   0  0  0  0  0  2  0  0  0  0  0  0
  1 12  1  0  0  0  0
  1  2  2  0  0  0  0
  2  6  1  0  0  0  0
  3  7  1  0  0  0  0
  3  2  1  0  0  0  0
  4  3  2  0  0  0  0
  5  4  1  0  0  0  0
  5  1  1  0  0  0  0
  8  9  1  0  0  0  0
  9 10  2  0  0  0  0
  9 15  1  0  0  0  0
 10 16  1  0  0  0  0
 11 10  1  0  0  0  0
 12 11  2  0  0  0  0
 13 12  1  0  0  0  0
 13  8  2  0  0  0  0
 14  8  1  0  0  0  0
 17 18  1  0  0  0  0
 17  4  1  0  0  0  0
 18 23  1  0  0  0  0
 19 18  2  0  0  0  0
 20 21  2  0  0  0  0
 20 19  1  0  0  0  0
 21 22  1  0  0  0  0
 22 17  2  0  0  0  0
 24 19  1  0  0  0  0
 25 26  2  0  0  0  0
 25 21  1  0  0  0  0
 27 25  1  0  0  0  0
 28 27  1  0  0  0  0
 29 28  1  0  0  0  0
 30 29  1  0  0  0  0
 30 31  1  0  0  0  0
 31 32  1  0  0  0  0
 32 27  1  0  0  0  0
M  END
>  <minimizedAffinity>
-6.47375011

>  <minimizedRMSD>
1.05956125

$$$$
