
 OpenBabel03212520563D

 32 35  0  0  0  0  0  0  0  0999 V2000
   40.9540   80.0910   61.6160 C   0  0  0  0  0  0  0  0  0  0  0  0
   40.9350   78.8610   62.2460 C   0  0  0  0  0  0  0  0  0  0  0  0
   40.5070   77.7940   61.5440 C   0  0  0  0  0  0  0  0  0  0  0  0
   40.1020   77.9630   60.2210 C   0  0  0  0  0  0  0  0  0  0  0  0
   40.3420   79.7760   59.9370 S   0  0  0  0  0  0  0  0  0  0  0  0
   41.2510   78.7330   63.2760 H   0  0  0  0  0  0  0  0  0  0  0  0
   40.4190   76.7620   61.8500 H   0  0  0  0  0  0  0  0  0  0  0  0
   43.1390   82.8450   62.6540 C   0  0  0  0  0  0  0  0  0  0  0  0
   42.2630   83.6670   63.4310 C   0  0  0  0  0  0  0  0  0  0  0  0
   40.9520   83.2610   63.5800 C   0  0  0  0  0  0  0  0  0  0  0  0
   40.5590   82.1100   62.9860 N   0  0  0  0  0  0  0  0  0  0  0  0
   41.4030   81.3550   62.2610 C   0  0  0  0  0  0  0  0  0  0  0  0
   42.6660   81.7180   62.0990 N   0  0  0  0  0  0  0  0  0  0  0  0
   44.1590   83.1810   62.5490 H   0  0  0  0  0  0  0  0  0  0  0  0
   42.5540   84.5740   63.9030 H   0  0  0  0  0  0  0  0  0  0  0  0
   40.1940   83.7870   64.1380 H   0  0  0  0  0  0  0  0  0  0  0  0
   39.5980   77.1140   59.1730 C   0  0  0  0  0  0  0  0  0  0  0  0
   40.1960   75.9230   58.9400 C   0  0  0  0  0  0  0  0  0  0  0  0
   39.5850   75.2120   57.8860 C   0  0  0  0  0  0  0  0  0  0  0  0
   38.5290   75.6540   57.1860 N   0  0  0  0  0  0  0  0  0  0  0  0
   38.0060   76.8500   57.4950 C   0  0  0  0  0  0  0  0  0  0  0  0
   38.5390   77.6000   58.5010 N   0  0  0  0  0  0  0  0  0  0  0  0
   41.0400   75.5230   59.4670 H   0  0  0  0  0  0  0  0  0  0  0  0
   39.9820   74.2280   57.5990 H   0  0  0  0  0  0  0  0  0  0  0  0
   36.8580   77.3290   56.7350 C   0  0  0  0  0  0  0  0  0  0  0  0
   35.7100   77.1010   57.2230 O   0  0  0  0  0  0  0  0  0  0  0  0
   37.1660   78.0370   55.4630 C   0  0  0  0  0  3  0  0  0  0  0  0
   38.4980   78.7390   55.5050 C   0  0  0  0  0  2  0  0  0  0  0  0
   39.6570   77.8670   55.1330 C   0  0  0  0  0  2  0  0  0  0  0  0
   39.4110   76.9420   53.9860 C   0  0  0  0  0  2  0  0  0  0  0  0
   38.1080   77.2410   53.2840 C   0  0  0  0  0  2  0  0  0  0  0  0
   37.0190   77.0610   54.3350 C   0  0  0  0  0  2  0  0  0  0  0  0
  1  2  2  0  0  0  0
  1 12  1  0  0  0  0
  2  6  1  0  0  0  0
  3  7  1  0  0  0  0
  3  2  1  0  0  0  0
  4  3  2  0  0  0  0
  5  4  1  0  0  0  0
  5  1  1  0  0  0  0
  8  9  1  0  0  0  0
  9 10  2  0  0  0  0
  9 15  1  0  0  0  0
 10 16  1  0  0  0  0
 11 10  1  0  0  0  0
 12 11  2  0  0  0  0
 13 12  1  0  0  0  0
 13  8  2  0  0  0  0
 14  8  1  0  0  0  0
 17  4  1  0  0  0  0
 18 17  1  0  0  0  0
 18 23  1  0  0  0  0
 19 18  2  0  0  0  0
 20 21  2  0  0  0  0
 20 19  1  0  0  0  0
 21 22  1  0  0  0  0
 22 17  2  0  0  0  0
 24 19  1  0  0  0  0
 25 26  2  0  0  0  0
 25 21  1  0  0  0  0
 27 28  1  0  0  0  0
 27 25  1  0  0  0  0
 29 28  1  0  0  0  0
 30 29  1  0  0  0  0
 31 30  1  0  0  0  0
 31 32  1  0  0  0  0
 32 27  1  0  0  0  0
M  END
>  <minimizedAffinity>
-6.19133139

>  <minimizedRMSD>
0.454975605

$$$$
