
 OpenBabel03212520553D

 32 35  0  0  0  0  0  0  0  0999 V2000
   40.9610   80.2260   61.7140 C   0  0  0  0  0  0  0  0  0  0  0  0
   40.9530   78.9910   62.3330 C   0  0  0  0  0  0  0  0  0  0  0  0
   40.5600   77.9220   61.6150 C   0  0  0  0  0  0  0  0  0  0  0  0
   40.1800   78.0950   60.2840 C   0  0  0  0  0  0  0  0  0  0  0  0
   40.3900   79.9140   60.0200 S   0  0  0  0  0  0  0  0  0  0  0  0
   41.2490   78.8610   63.3700 H   0  0  0  0  0  0  0  0  0  0  0  0
   40.4860   76.8860   61.9110 H   0  0  0  0  0  0  0  0  0  0  0  0
   43.0560   83.0410   62.7770 C   0  0  0  0  0  0  0  0  0  0  0  0
   42.1610   83.8120   63.5840 C   0  0  0  0  0  0  0  0  0  0  0  0
   40.8690   83.3530   63.7440 C   0  0  0  0  0  0  0  0  0  0  0  0
   40.5110   82.2010   63.1320 N   0  0  0  0  0  0  0  0  0  0  0  0
   41.3710   81.4940   62.3790 C   0  0  0  0  0  0  0  0  0  0  0  0
   42.6170   81.9070   62.2060 N   0  0  0  0  0  0  0  0  0  0  0  0
   44.0610   83.4170   62.6640 H   0  0  0  0  0  0  0  0  0  0  0  0
   42.4250   84.7200   64.0700 H   0  0  0  0  0  0  0  0  0  0  0  0
   40.1000   83.8390   64.3230 H   0  0  0  0  0  0  0  0  0  0  0  0
   39.7140   77.2440   59.2200 C   0  0  0  0  0  0  0  0  0  0  0  0
   40.3180   76.0520   59.0110 C   0  0  0  0  0  0  0  0  0  0  0  0
   39.7460   75.3410   57.9360 C   0  0  0  0  0  0  0  0  0  0  0  0
   38.7190   75.7830   57.1950 N   0  0  0  0  0  0  0  0  0  0  0  0
   38.1870   76.9810   57.4820 C   0  0  0  0  0  0  0  0  0  0  0  0
   38.6830   77.7310   58.5060 N   0  0  0  0  0  0  0  0  0  0  0  0
   41.1400   75.6510   59.5710 H   0  0  0  0  0  0  0  0  0  0  0  0
   40.1510   74.3540   57.6660 H   0  0  0  0  0  0  0  0  0  0  0  0
   37.0700   77.4610   56.6780 C   0  0  0  0  0  0  0  0  0  0  0  0
   35.9040   77.1530   57.0710 O   0  0  0  0  0  0  0  0  0  0  0  0
   37.4270   78.2640   55.4780 C   0  0  0  0  0  3  0  0  0  0  0  0
   37.2660   79.7450   55.7090 C   0  0  0  0  0  2  0  0  0  0  0  0
   38.4630   80.3970   56.3250 C   0  0  0  0  0  2  0  0  0  0  0  0
   39.7810   79.9320   55.7990 C   0  0  0  0  0  2  0  0  0  0  0  0
   39.6250   79.0540   54.5790 C   0  0  0  0  0  2  0  0  0  0  0  0
   38.7980   77.8580   55.0300 C   0  0  0  0  0  2  0  0  0  0  0  0
  1  2  2  0  0  0  0
  1 12  1  0  0  0  0
  2  6  1  0  0  0  0
  3  7  1  0  0  0  0
  3  2  1  0  0  0  0
  4  3  2  0  0  0  0
  5  4  1  0  0  0  0
  5  1  1  0  0  0  0
  8  9  1  0  0  0  0
  9 10  2  0  0  0  0
  9 15  1  0  0  0  0
 10 16  1  0  0  0  0
 11 10  1  0  0  0  0
 12 11  2  0  0  0  0
 13 12  1  0  0  0  0
 13  8  2  0  0  0  0
 14  8  1  0  0  0  0
 17  4  1  0  0  0  0
 18 17  1  0  0  0  0
 18 23  1  0  0  0  0
 19 18  2  0  0  0  0
 20 21  2  0  0  0  0
 20 19  1  0  0  0  0
 21 22  1  0  0  0  0
 22 17  2  0  0  0  0
 24 19  1  0  0  0  0
 25 26  2  0  0  0  0
 25 21  1  0  0  0  0
 27 28  1  0  0  0  0
 27 25  1  0  0  0  0
 28 29  1  0  0  0  0
 30 29  1  0  0  0  0
 31 32  1  0  0  0  0
 31 30  1  0  0  0  0
 32 27  1  0  0  0  0
M  END
>  <minimizedAffinity>
-6.38005447

>  <minimizedRMSD>
1.10204434

$$$$
