
 OpenBabel03212520563D

 32 35  0  0  0  0  0  0  0  0999 V2000
   40.9620   80.2370   61.7250 C   0  0  0  0  0  0  0  0  0  0  0  0
   40.9510   79.0030   62.3450 C   0  0  0  0  0  0  0  0  0  0  0  0
   40.5620   77.9330   61.6250 C   0  0  0  0  0  0  0  0  0  0  0  0
   40.1880   78.1050   60.2930 C   0  0  0  0  0  0  0  0  0  0  0  0
   40.3990   79.9240   60.0280 S   0  0  0  0  0  0  0  0  0  0  0  0
   41.2430   78.8730   63.3820 H   0  0  0  0  0  0  0  0  0  0  0  0
   40.4860   76.8970   61.9220 H   0  0  0  0  0  0  0  0  0  0  0  0
   43.0520   83.0540   62.7930 C   0  0  0  0  0  0  0  0  0  0  0  0
   42.1540   83.8250   63.5960 C   0  0  0  0  0  0  0  0  0  0  0  0
   40.8620   83.3650   63.7520 C   0  0  0  0  0  0  0  0  0  0  0  0
   40.5070   82.2120   63.1400 N   0  0  0  0  0  0  0  0  0  0  0  0
   41.3700   81.5060   62.3900 C   0  0  0  0  0  0  0  0  0  0  0  0
   42.6150   81.9200   62.2210 N   0  0  0  0  0  0  0  0  0  0  0  0
   44.0570   83.4310   62.6830 H   0  0  0  0  0  0  0  0  0  0  0  0
   42.4160   84.7330   64.0830 H   0  0  0  0  0  0  0  0  0  0  0  0
   40.0910   83.8500   64.3290 H   0  0  0  0  0  0  0  0  0  0  0  0
   39.7270   77.2540   59.2270 C   0  0  0  0  0  0  0  0  0  0  0  0
   40.3330   76.0620   59.0210 C   0  0  0  0  0  0  0  0  0  0  0  0
   39.7660   75.3490   57.9440 C   0  0  0  0  0  0  0  0  0  0  0  0
   38.7410   75.7900   57.2000 N   0  0  0  0  0  0  0  0  0  0  0  0
   38.2060   76.9870   57.4840 C   0  0  0  0  0  0  0  0  0  0  0  0
   38.6970   77.7390   58.5100 N   0  0  0  0  0  0  0  0  0  0  0  0
   41.1540   75.6620   59.5830 H   0  0  0  0  0  0  0  0  0  0  0  0
   40.1740   74.3640   57.6760 H   0  0  0  0  0  0  0  0  0  0  0  0
   37.0910   77.4660   56.6760 C   0  0  0  0  0  0  0  0  0  0  0  0
   35.9240   77.1540   57.0650 O   0  0  0  0  0  0  0  0  0  0  0  0
   37.4500   78.2720   55.4790 C   0  0  0  0  0  3  0  0  0  0  0  0
   37.2760   79.7510   55.7080 C   0  0  0  0  0  2  0  0  0  0  0  0
   38.4630   80.4130   56.3340 C   0  0  0  0  0  2  0  0  0  0  0  0
   39.7880   79.9570   55.8170 C   0  0  0  0  0  2  0  0  0  0  0  0
   39.6490   79.0780   54.5960 C   0  0  0  0  0  2  0  0  0  0  0  0
   38.8270   77.8760   55.0410 C   0  0  0  0  0  2  0  0  0  0  0  0
  1  2  2  0  0  0  0
  1 12  1  0  0  0  0
  2  6  1  0  0  0  0
  3  7  1  0  0  0  0
  3  2  1  0  0  0  0
  4  3  2  0  0  0  0
  5  4  1  0  0  0  0
  5  1  1  0  0  0  0
  8  9  1  0  0  0  0
  9 10  2  0  0  0  0
  9 15  1  0  0  0  0
 10 16  1  0  0  0  0
 11 10  1  0  0  0  0
 12 11  2  0  0  0  0
 13 12  1  0  0  0  0
 13  8  2  0  0  0  0
 14  8  1  0  0  0  0
 17  4  1  0  0  0  0
 18 17  1  0  0  0  0
 18 23  1  0  0  0  0
 19 18  2  0  0  0  0
 20 21  2  0  0  0  0
 20 19  1  0  0  0  0
 21 22  1  0  0  0  0
 22 17  2  0  0  0  0
 24 19  1  0  0  0  0
 25 26  2  0  0  0  0
 25 21  1  0  0  0  0
 27 28  1  0  0  0  0
 27 25  1  0  0  0  0
 28 29  1  0  0  0  0
 30 29  1  0  0  0  0
 31 32  1  0  0  0  0
 31 30  1  0  0  0  0
 32 27  1  0  0  0  0
M  END
>  <minimizedAffinity>
-6.37689447

>  <minimizedRMSD>
0.703063905

$$$$
