
 OpenBabel03212520573D

 32 35  0  0  0  0  0  0  0  0999 V2000
   41.7180   69.4630   62.3160 C   0  0  0  0  0  0  0  0  0  0  0  0
   41.7830   70.5180   63.2060 C   0  0  0  0  0  0  0  0  0  0  0  0
   42.0980   71.7360   62.7250 C   0  0  0  0  0  0  0  0  0  0  0  0
   42.3450   71.8910   61.3620 C   0  0  0  0  0  0  0  0  0  0  0  0
   42.1160   70.1790   60.6970 S   0  0  0  0  0  0  0  0  0  0  0  0
   41.5910   70.3940   64.2670 H   0  0  0  0  0  0  0  0  0  0  0  0
   42.1970   72.6760   63.2490 H   0  0  0  0  0  0  0  0  0  0  0  0
   39.9530   66.6370   63.8460 C   0  0  0  0  0  0  0  0  0  0  0  0
   40.7310   65.5140   63.4240 C   0  0  0  0  0  0  0  0  0  0  0  0
   41.8360   65.7490   62.6310 C   0  0  0  0  0  0  0  0  0  0  0  0
   42.1280   67.0250   62.2890 N   0  0  0  0  0  0  0  0  0  0  0  0
   41.3810   68.0640   62.6990 C   0  0  0  0  0  0  0  0  0  0  0  0
   40.3150   67.8720   63.4610 N   0  0  0  0  0  0  0  0  0  0  0  0
   39.0940   66.4320   64.4650 H   0  0  0  0  0  0  0  0  0  0  0  0
   40.5160   64.5060   63.6820 H   0  0  0  0  0  0  0  0  0  0  0  0
   42.5020   64.9940   62.2470 H   0  0  0  0  0  0  0  0  0  0  0  0
   42.6990   72.9790   60.4880 C   0  0  0  0  0  0  0  0  0  0  0  0
   43.9590   73.4700   60.5190 C   0  0  0  0  0  0  0  0  0  0  0  0
   44.1460   74.5290   59.6060 C   0  0  0  0  0  0  0  0  0  0  0  0
   43.1920   75.0050   58.7920 N   0  0  0  0  0  0  0  0  0  0  0  0
   41.9710   74.4490   58.8360 C   0  0  0  0  0  0  0  0  0  0  0  0
   41.7090   73.4210   59.6910 N   0  0  0  0  0  0  0  0  0  0  0  0
   44.7580   73.1280   61.1470 H   0  0  0  0  0  0  0  0  0  0  0  0
   45.1310   75.0140   59.5370 H   0  0  0  0  0  0  0  0  0  0  0  0
   40.9350   74.9660   57.9510 C   0  0  0  0  0  0  0  0  0  0  0  0
   40.9830   74.6030   56.7360 O   0  0  0  0  0  0  0  0  0  0  0  0
   39.9300   75.8660   58.5770 C   0  0  0  0  0  3  0  0  0  0  0  0
   38.5580   75.2480   58.6280 C   0  0  0  0  0  2  0  0  0  0  0  0
   38.3230   74.3860   59.8300 C   0  0  0  0  0  2  0  0  0  0  0  0
   38.8760   74.9220   61.1100 C   0  0  0  0  0  2  0  0  0  0  0  0
   39.3630   76.3450   60.9680 C   0  0  0  0  0  2  0  0  0  0  0  0
   40.4560   76.3050   59.9090 C   0  0  0  0  0  2  0  0  0  0  0  0
  1 12  1  0  0  0  0
  1  2  2  0  0  0  0
  2  6  1  0  0  0  0
  3  2  1  0  0  0  0
  3  7  1  0  0  0  0
  4  3  2  0  0  0  0
  5  4  1  0  0  0  0
  5  1  1  0  0  0  0
  8 14  1  0  0  0  0
  9 15  1  0  0  0  0
  9  8  2  0  0  0  0
 10  9  1  0  0  0  0
 11 10  2  0  0  0  0
 11 12  1  0  0  0  0
 12 13  2  0  0  0  0
 13  8  1  0  0  0  0
 16 10  1  0  0  0  0
 17 18  1  0  0  0  0
 17  4  1  0  0  0  0
 18 23  1  0  0  0  0
 19 18  2  0  0  0  0
 20 21  2  0  0  0  0
 20 19  1  0  0  0  0
 21 22  1  0  0  0  0
 22 17  2  0  0  0  0
 24 19  1  0  0  0  0
 25 27  1  0  0  0  0
 25 21  1  0  0  0  0
 26 25  2  0  0  0  0
 27 28  1  0  0  0  0
 27 32  1  0  0  0  0
 28 29  1  0  0  0  0
 29 30  1  0  0  0  0
 31 30  1  0  0  0  0
 32 31  1  0  0  0  0
M  END
>  <minimizedAffinity>
-6.62238884

$$$$

 OpenBabel03212520573D

 32 35  0  0  0  0  0  0  0  0999 V2000
   41.3400   72.3560   61.1060 C   0  0  0  0  0  0  0  0  0  0  0  0
   40.1510   72.7440   61.6930 C   0  0  0  0  0  0  0  0  0  0  0  0
   39.5580   73.8680   61.2460 C   0  0  0  0  0  0  0  0  0  0  0  0
   40.1570   74.5940   60.2170 C   0  0  0  0  0  0  0  0  0  0  0  0
   41.6830   73.6160   59.8460 S   0  0  0  0  0  0  0  0  0  0  0  0
   39.6880   72.1770   62.4940 H   0  0  0  0  0  0  0  0  0  0  0  0
   38.6370   74.3330   61.5670 H   0  0  0  0  0  0  0  0  0  0  0  0
   43.3760   69.3230   60.8030 C   0  0  0  0  0  0  0  0  0  0  0  0
   43.5200   68.9020   62.1620 C   0  0  0  0  0  0  0  0  0  0  0  0
   42.9190   69.6630   63.1450 C   0  0  0  0  0  0  0  0  0  0  0  0
   42.2270   70.7660   62.7780 N   0  0  0  0  0  0  0  0  0  0  0  0
   42.1070   71.1400   61.4930 C   0  0  0  0  0  0  0  0  0  0  0  0
   42.6710   70.4320   60.5270 N   0  0  0  0  0  0  0  0  0  0  0  0
   43.8540   68.7160   60.0490 H   0  0  0  0  0  0  0  0  0  0  0  0
   44.0600   68.0400   62.4680 H   0  0  0  0  0  0  0  0  0  0  0  0
   42.9520   69.4560   64.2030 H   0  0  0  0  0  0  0  0  0  0  0  0
   39.8580   75.7990   59.4870 C   0  0  0  0  0  0  0  0  0  0  0  0
   40.4980   76.9460   59.8110 C   0  0  0  0  0  0  0  0  0  0  0  0
   40.0970   78.0310   59.0050 C   0  0  0  0  0  0  0  0  0  0  0  0
   39.1840   77.9500   58.0240 N   0  0  0  0  0  0  0  0  0  0  0  0
   38.6050   76.7650   57.7800 C   0  0  0  0  0  0  0  0  0  0  0  0
   38.9380   75.6670   58.5140 N   0  0  0  0  0  0  0  0  0  0  0  0
   41.2330   77.0660   60.5820 H   0  0  0  0  0  0  0  0  0  0  0  0
   40.5460   79.0210   59.1710 H   0  0  0  0  0  0  0  0  0  0  0  0
   37.6150   76.6780   56.7130 C   0  0  0  0  0  0  0  0  0  0  0  0
   36.7950   75.7110   56.7680 O   0  0  0  0  0  0  0  0  0  0  0  0
   37.6780   77.7400   55.6740 C   0  0  0  0  0  3  0  0  0  0  0  0
   38.5140   77.3330   54.4880 C   0  0  0  0  0  2  0  0  0  0  0  0
   37.7610   76.5610   53.4490 C   0  0  0  0  0  2  0  0  0  0  0  0
   36.3800   77.0560   53.1700 C   0  0  0  0  0  2  0  0  0  0  0  0
   36.1070   78.3850   53.8340 C   0  0  0  0  0  2  0  0  0  0  0  0
   36.2780   78.1450   55.3290 C   0  0  0  0  0  2  0  0  0  0  0  0
  1 12  1  0  0  0  0
  1  2  2  0  0  0  0
  2  6  1  0  0  0  0
  3  7  1  0  0  0  0
  3  2  1  0  0  0  0
  4  3  2  0  0  0  0
  5  4  1  0  0  0  0
  5  1  1  0  0  0  0
  8  9  1  0  0  0  0
  9 15  1  0  0  0  0
  9 10  2  0  0  0  0
 10 16  1  0  0  0  0
 11 10  1  0  0  0  0
 12 11  2  0  0  0  0
 13  8  2  0  0  0  0
 13 12  1  0  0  0  0
 14  8  1  0  0  0  0
 17 18  1  0  0  0  0
 17  4  1  0  0  0  0
 18 23  1  0  0  0  0
 19 24  1  0  0  0  0
 19 18  2  0  0  0  0
 20 19  1  0  0  0  0
 21 20  2  0  0  0  0
 21 22  1  0  0  0  0
 22 17  2  0  0  0  0
 25 26  2  0  0  0  0
 25 21  1  0  0  0  0
 27 25  1  0  0  0  0
 28 27  1  0  0  0  0
 29 28  1  0  0  0  0
 30 29  1  0  0  0  0
 30 31  1  0  0  0  0
 31 32  1  0  0  0  0
 32 27  1  0  0  0  0
M  END
>  <minimizedAffinity>
-6.47927427

$$$$

 OpenBabel03212520573D

 32 35  0  0  0  0  0  0  0  0999 V2000
   39.1940   76.3460   57.3190 C   0  0  0  0  0  0  0  0  0  0  0  0
   38.7310   76.1660   58.6080 C   0  0  0  0  0  0  0  0  0  0  0  0
   39.5310   75.5330   59.4880 C   0  0  0  0  0  0  0  0  0  0  0  0
   40.7850   75.0860   59.0730 C   0  0  0  0  0  0  0  0  0  0  0  0
   40.8460   75.5970   57.2960 S   0  0  0  0  0  0  0  0  0  0  0  0
   37.7540   76.5150   58.9270 H   0  0  0  0  0  0  0  0  0  0  0  0
   39.3570   75.2970   60.5280 H   0  0  0  0  0  0  0  0  0  0  0  0
   38.4810   78.2700   54.2810 C   0  0  0  0  0  0  0  0  0  0  0  0
   37.0510   78.2900   54.2480 C   0  0  0  0  0  0  0  0  0  0  0  0
   36.3690   77.6490   55.2620 C   0  0  0  0  0  0  0  0  0  0  0  0
   37.0810   77.0320   56.2340 N   0  0  0  0  0  0  0  0  0  0  0  0
   38.4250   77.0280   56.2410 C   0  0  0  0  0  0  0  0  0  0  0  0
   39.1090   77.6340   55.2830 N   0  0  0  0  0  0  0  0  0  0  0  0
   38.9960   78.7760   53.4790 H   0  0  0  0  0  0  0  0  0  0  0  0
   36.4760   78.7680   53.4930 H   0  0  0  0  0  0  0  0  0  0  0  0
   35.2970   77.5900   55.3550 H   0  0  0  0  0  0  0  0  0  0  0  0
   41.8920   74.3920   59.6790 C   0  0  0  0  0  0  0  0  0  0  0  0
   43.1560   74.7600   59.3660 C   0  0  0  0  0  0  0  0  0  0  0  0
   44.1230   73.9890   60.0420 C   0  0  0  0  0  0  0  0  0  0  0  0
   43.8380   72.9990   60.9010 N   0  0  0  0  0  0  0  0  0  0  0  0
   42.5510   72.7090   61.1460 C   0  0  0  0  0  0  0  0  0  0  0  0
   41.5550   73.4090   60.5330 N   0  0  0  0  0  0  0  0  0  0  0  0
   43.4390   75.5410   58.6880 H   0  0  0  0  0  0  0  0  0  0  0  0
   45.1900   74.1910   59.8700 H   0  0  0  0  0  0  0  0  0  0  0  0
   42.2410   71.6350   62.0810 C   0  0  0  0  0  0  0  0  0  0  0  0
   41.4260   71.9020   63.0150 O   0  0  0  0  0  0  0  0  0  0  0  0
   42.9220   70.3360   61.8320 C   0  0  0  0  0  3  0  0  0  0  0  0
   43.1220   69.5410   63.0960 C   0  0  0  0  0  2  0  0  0  0  0  0
   41.9480   68.6910   63.4730 C   0  0  0  0  0  2  0  0  0  0  0  0
   41.2780   67.9970   62.3330 C   0  0  0  0  0  2  0  0  0  0  0  0
   42.0690   68.1150   61.0510 C   0  0  0  0  0  2  0  0  0  0  0  0
   42.1700   69.6070   60.7620 C   0  0  0  0  0  2  0  0  0  0  0  0
  1  2  2  0  0  0  0
  2  6  1  0  0  0  0
  2  3  1  0  0  0  0
  3  7  1  0  0  0  0
  4  3  2  0  0  0  0
  4 17  1  0  0  0  0
  5  1  1  0  0  0  0
  5  4  1  0  0  0  0
  8 13  1  0  0  0  0
  9  8  2  0  0  0  0
  9 10  1  0  0  0  0
 10 16  1  0  0  0  0
 10 11  2  0  0  0  0
 11 12  1  0  0  0  0
 12  1  1  0  0  0  0
 13 12  2  0  0  0  0
 14  8  1  0  0  0  0
 15  9  1  0  0  0  0
 17 22  1  0  0  0  0
 18 17  2  0  0  0  0
 18 19  1  0  0  0  0
 19 20  2  0  0  0  0
 20 21  1  0  0  0  0
 21 25  1  0  0  0  0
 22 21  2  0  0  0  0
 23 18  1  0  0  0  0
 24 19  1  0  0  0  0
 25 26  2  0  0  0  0
 27 25  1  0  0  0  0
 27 28  1  0  0  0  0
 28 29  1  0  0  0  0
 30 29  1  0  0  0  0
 31 30  1  0  0  0  0
 32 31  1  0  0  0  0
 32 27  1  0  0  0  0
M  END
>  <minimizedAffinity>
-6.44642544

$$$$

 OpenBabel03212520573D

 32 35  0  0  0  0  0  0  0  0999 V2000
   41.8460   69.6920   62.1070 C   0  0  0  0  0  0  0  0  0  0  0  0
   41.8490   70.6760   63.0770 C   0  0  0  0  0  0  0  0  0  0  0  0
   42.0450   71.9510   62.6880 C   0  0  0  0  0  0  0  0  0  0  0  0
   42.2360   72.2320   61.3360 C   0  0  0  0  0  0  0  0  0  0  0  0
   42.1330   70.5640   60.5420 S   0  0  0  0  0  0  0  0  0  0  0  0
   41.7000   70.4540   64.1290 H   0  0  0  0  0  0  0  0  0  0  0  0
   42.0810   72.8520   63.2830 H   0  0  0  0  0  0  0  0  0  0  0  0
   40.6870   66.6270   63.7510 C   0  0  0  0  0  0  0  0  0  0  0  0
   41.2420   65.5980   62.9280 C   0  0  0  0  0  0  0  0  0  0  0  0
   41.9970   65.9760   61.8350 C   0  0  0  0  0  0  0  0  0  0  0  0
   42.1730   67.2960   61.5950 N   0  0  0  0  0  0  0  0  0  0  0  0
   41.6400   68.2440   62.3850 C   0  0  0  0  0  0  0  0  0  0  0  0
   40.9120   67.9140   63.4400 N   0  0  0  0  0  0  0  0  0  0  0  0
   40.1000   66.3110   64.6000 H   0  0  0  0  0  0  0  0  0  0  0  0
   41.1130   64.5580   63.1010 H   0  0  0  0  0  0  0  0  0  0  0  0
   42.4680   65.3020   61.1380 H   0  0  0  0  0  0  0  0  0  0  0  0
   42.4710   73.4110   60.5440 C   0  0  0  0  0  0  0  0  0  0  0  0
   43.7260   73.6870   60.1200 C   0  0  0  0  0  0  0  0  0  0  0  0
   43.7880   74.8710   59.3580 C   0  0  0  0  0  0  0  0  0  0  0  0
   42.7310   75.6480   59.0760 N   0  0  0  0  0  0  0  0  0  0  0  0
   41.5250   75.2890   59.5430 C   0  0  0  0  0  0  0  0  0  0  0  0
   41.3800   74.1570   60.2880 N   0  0  0  0  0  0  0  0  0  0  0  0
   44.6030   73.1030   60.3160 H   0  0  0  0  0  0  0  0  0  0  0  0
   44.7560   75.2030   58.9560 H   0  0  0  0  0  0  0  0  0  0  0  0
   40.3760   76.1320   59.2360 C   0  0  0  0  0  0  0  0  0  0  0  0
   39.7450   76.6240   60.2200 O   0  0  0  0  0  0  0  0  0  0  0  0
   40.0720   76.3210   57.7920 C   0  0  0  0  0  3  0  0  0  0  0  0
   39.8880   75.0130   57.0680 C   0  0  0  0  0  2  0  0  0  0  0  0
   38.4950   74.4670   57.1430 C   0  0  0  0  0  2  0  0  0  0  0  0
   37.4100   75.4830   57.0000 C   0  0  0  0  0  2  0  0  0  0  0  0
   37.9440   76.8310   56.5770 C   0  0  0  0  0  2  0  0  0  0  0  0
   38.9100   77.2580   57.6750 C   0  0  0  0  0  2  0  0  0  0  0  0
  1 12  1  0  0  0  0
  1  2  2  0  0  0  0
  2  6  1  0  0  0  0
  3  2  1  0  0  0  0
  3  7  1  0  0  0  0
  4  3  2  0  0  0  0
  5  4  1  0  0  0  0
  5  1  1  0  0  0  0
  8 14  1  0  0  0  0
  9 15  1  0  0  0  0
  9  8  2  0  0  0  0
 10  9  1  0  0  0  0
 11 10  2  0  0  0  0
 11 12  1  0  0  0  0
 12 13  2  0  0  0  0
 13  8  1  0  0  0  0
 16 10  1  0  0  0  0
 17  4  1  0  0  0  0
 18 23  1  0  0  0  0
 18 17  2  0  0  0  0
 19 18  1  0  0  0  0
 20 19  2  0  0  0  0
 20 21  1  0  0  0  0
 21 22  2  0  0  0  0
 22 17  1  0  0  0  0
 24 19  1  0  0  0  0
 25 21  1  0  0  0  0
 25 26  2  0  0  0  0
 27 25  1  0  0  0  0
 28 29  1  0  0  0  0
 28 27  1  0  0  0  0
 30 29  1  0  0  0  0
 31 30  1  0  0  0  0
 31 32  1  0  0  0  0
 32 27  1  0  0  0  0
M  END
>  <minimizedAffinity>
-6.36112642

$$$$

 OpenBabel03212520573D

 32 35  0  0  0  0  0  0  0  0999 V2000
   38.9140   74.9640   58.0110 C   0  0  0  0  0  0  0  0  0  0  0  0
   38.5350   73.6450   57.8480 C   0  0  0  0  0  0  0  0  0  0  0  0
   39.1220   72.7140   58.6250 C   0  0  0  0  0  0  0  0  0  0  0  0
   40.0820   73.1080   59.5560 C   0  0  0  0  0  0  0  0  0  0  0  0
   40.1680   74.9410   59.3220 S   0  0  0  0  0  0  0  0  0  0  0  0
   37.7880   73.3430   57.1220 H   0  0  0  0  0  0  0  0  0  0  0  0
   38.9670   71.6460   58.6520 H   0  0  0  0  0  0  0  0  0  0  0  0
   36.7370   76.8390   55.7340 C   0  0  0  0  0  0  0  0  0  0  0  0
   37.2940   78.1550   55.7780 C   0  0  0  0  0  0  0  0  0  0  0  0
   38.3960   78.3690   56.5810 C   0  0  0  0  0  0  0  0  0  0  0  0
   38.8940   77.3280   57.2880 N   0  0  0  0  0  0  0  0  0  0  0  0
   38.3520   76.0990   57.2290 C   0  0  0  0  0  0  0  0  0  0  0  0
   37.2950   75.8620   56.4680 N   0  0  0  0  0  0  0  0  0  0  0  0
   35.8760   76.6930   55.1010 H   0  0  0  0  0  0  0  0  0  0  0  0
   36.9160   78.9840   55.2310 H   0  0  0  0  0  0  0  0  0  0  0  0
   38.9080   79.3090   56.7030 H   0  0  0  0  0  0  0  0  0  0  0  0
   40.9110   72.4500   60.5330 C   0  0  0  0  0  0  0  0  0  0  0  0
   41.1550   73.0620   61.7150 C   0  0  0  0  0  0  0  0  0  0  0  0
   41.9790   72.2900   62.5600 C   0  0  0  0  0  0  0  0  0  0  0  0
   42.4730   71.0840   62.2410 N   0  0  0  0  0  0  0  0  0  0  0  0
   42.1730   70.5610   61.0420 C   0  0  0  0  0  0  0  0  0  0  0  0
   41.3820   71.2440   60.1680 N   0  0  0  0  0  0  0  0  0  0  0  0
   40.7870   74.0210   62.0200 H   0  0  0  0  0  0  0  0  0  0  0  0
   42.2500   72.6800   63.5510 H   0  0  0  0  0  0  0  0  0  0  0  0
   42.7090   69.2500   60.6960 C   0  0  0  0  0  0  0  0  0  0  0  0
   43.9700   69.1520   60.5980 O   0  0  0  0  0  0  0  0  0  0  0  0
   41.7090   68.1680   60.4980 C   0  0  0  0  0  3  0  0  0  0  0  0
   42.1650   67.1430   59.4920 C   0  0  0  0  0  2  0  0  0  0  0  0
   43.0150   66.0560   60.0730 C   0  0  0  0  0  2  0  0  0  0  0  0
   42.5690   65.5490   61.4060 C   0  0  0  0  0  2  0  0  0  0  0  0
   41.2100   66.0840   61.7920 C   0  0  0  0  0  2  0  0  0  0  0  0
   41.3580   67.5990   61.8380 C   0  0  0  0  0  2  0  0  0  0  0  0
  1  5  1  0  0  0  0
  2  1  2  0  0  0  0
  2  3  1  0  0  0  0
  3  7  1  0  0  0  0
  3  4  2  0  0  0  0
  4 17  1  0  0  0  0
  5  4  1  0  0  0  0
  6  2  1  0  0  0  0
  8  9  2  0  0  0  0
  8 13  1  0  0  0  0
  9 10  1  0  0  0  0
 10 16  1  0  0  0  0
 10 11  2  0  0  0  0
 12 11  1  0  0  0  0
 12  1  1  0  0  0  0
 13 12  2  0  0  0  0
 14  8  1  0  0  0  0
 15  9  1  0  0  0  0
 17 18  1  0  0  0  0
 18 23  1  0  0  0  0
 18 19  2  0  0  0  0
 19 24  1  0  0  0  0
 20 19  1  0  0  0  0
 21 20  2  0  0  0  0
 22 17  2  0  0  0  0
 22 21  1  0  0  0  0
 25 21  1  0  0  0  0
 26 25  2  0  0  0  0
 27 25  1  0  0  0  0
 27 32  1  0  0  0  0
 28 29  1  0  0  0  0
 28 27  1  0  0  0  0
 29 30  1  0  0  0  0
 30 31  1  0  0  0  0
 31 32  1  0  0  0  0
M  END
>  <minimizedAffinity>
-6.08302546

$$$$

 OpenBabel03212520573D

 32 35  0  0  0  0  0  0  0  0999 V2000
   41.5570   68.8120   56.6210 C   0  0  0  0  0  0  0  0  0  0  0  0
   41.3590   68.0390   57.7480 C   0  0  0  0  0  0  0  0  0  0  0  0
   41.3480   68.6530   58.9470 C   0  0  0  0  0  0  0  0  0  0  0  0
   41.5340   70.0330   59.0100 C   0  0  0  0  0  0  0  0  0  0  0  0
   41.7440   70.5100   57.2340 S   0  0  0  0  0  0  0  0  0  0  0  0
   41.2150   66.9640   57.6950 H   0  0  0  0  0  0  0  0  0  0  0  0
   41.2090   68.2320   59.9330 H   0  0  0  0  0  0  0  0  0  0  0  0
   42.8020   67.1690   53.5900 C   0  0  0  0  0  0  0  0  0  0  0  0
   41.6940   67.2800   52.6930 C   0  0  0  0  0  0  0  0  0  0  0  0
   40.5530   67.9120   53.1440 C   0  0  0  0  0  0  0  0  0  0  0  0
   40.5360   68.3930   54.4090 N   0  0  0  0  0  0  0  0  0  0  0  0
   41.5910   68.2760   55.2320 C   0  0  0  0  0  0  0  0  0  0  0  0
   42.7000   67.6750   54.8290 N   0  0  0  0  0  0  0  0  0  0  0  0
   43.6850   66.6720   53.2180 H   0  0  0  0  0  0  0  0  0  0  0  0
   41.6890   66.9080   51.6980 H   0  0  0  0  0  0  0  0  0  0  0  0
   39.6520   68.0600   52.5710 H   0  0  0  0  0  0  0  0  0  0  0  0
   41.5900   71.0260   60.0510 C   0  0  0  0  0  0  0  0  0  0  0  0
   42.3190   70.7790   61.1640 C   0  0  0  0  0  0  0  0  0  0  0  0
   42.2740   71.8470   62.0840 C   0  0  0  0  0  0  0  0  0  0  0  0
   41.5900   72.9850   61.8910 N   0  0  0  0  0  0  0  0  0  0  0  0
   40.8970   73.1350   60.7520 C   0  0  0  0  0  0  0  0  0  0  0  0
   40.8900   72.1490   59.8110 N   0  0  0  0  0  0  0  0  0  0  0  0
   42.8820   69.8900   61.3690 H   0  0  0  0  0  0  0  0  0  0  0  0
   42.8270   71.7660   63.0310 H   0  0  0  0  0  0  0  0  0  0  0  0
   40.1560   74.3730   60.5420 C   0  0  0  0  0  0  0  0  0  0  0  0
   39.2510   74.6510   61.3870 O   0  0  0  0  0  0  0  0  0  0  0  0
   40.5470   75.1750   59.3530 C   0  0  0  0  0  3  0  0  0  0  0  0
   39.7410   76.4410   59.2230 C   0  0  0  0  0  2  0  0  0  0  0  0
   40.2890   77.5950   60.0040 C   0  0  0  0  0  2  0  0  0  0  0  0
   41.7770   77.7300   59.9720 C   0  0  0  0  0  2  0  0  0  0  0  0
   42.4110   76.8010   58.9630 C   0  0  0  0  0  2  0  0  0  0  0  0
   42.0290   75.3920   59.3980 C   0  0  0  0  0  2  0  0  0  0  0  0
  1  5  1  0  0  0  0
  1  2  2  0  0  0  0
  2  3  1  0  0  0  0
  3  4  2  0  0  0  0
  3  7  1  0  0  0  0
  4 17  1  0  0  0  0
  5  4  1  0  0  0  0
  6  2  1  0  0  0  0
  8 13  1  0  0  0  0
  9 10  1  0  0  0  0
  9  8  2  0  0  0  0
 10 11  2  0  0  0  0
 11 12  1  0  0  0  0
 12  1  1  0  0  0  0
 13 12  2  0  0  0  0
 14  8  1  0  0  0  0
 15  9  1  0  0  0  0
 16 10  1  0  0  0  0
 17 18  1  0  0  0  0
 18 23  1  0  0  0  0
 18 19  2  0  0  0  0
 19 24  1  0  0  0  0
 20 19  1  0  0  0  0
 21 20  2  0  0  0  0
 22 17  2  0  0  0  0
 22 21  1  0  0  0  0
 25 21  1  0  0  0  0
 25 26  2  0  0  0  0
 27 32  1  0  0  0  0
 27 25  1  0  0  0  0
 28 27  1  0  0  0  0
 28 29  1  0  0  0  0
 30 29  1  0  0  0  0
 31 32  1  0  0  0  0
 31 30  1  0  0  0  0
M  END
>  <minimizedAffinity>
-5.91461945

$$$$

 OpenBabel03212520573D

 32 35  0  0  0  0  0  0  0  0999 V2000
   42.2620   69.9740   61.2770 C   0  0  0  0  0  0  0  0  0  0  0  0
   42.5610   71.0200   62.1280 C   0  0  0  0  0  0  0  0  0  0  0  0
   42.6360   72.2610   61.6090 C   0  0  0  0  0  0  0  0  0  0  0  0
   42.4100   72.4460   60.2450 C   0  0  0  0  0  0  0  0  0  0  0  0
   42.0650   70.7320   59.6400 S   0  0  0  0  0  0  0  0  0  0  0  0
   42.7370   70.8720   63.1890 H   0  0  0  0  0  0  0  0  0  0  0  0
   42.8530   73.1980   62.0990 H   0  0  0  0  0  0  0  0  0  0  0  0
   41.4660   66.3970   61.1760 C   0  0  0  0  0  0  0  0  0  0  0  0
   41.9090   65.9390   62.4570 C   0  0  0  0  0  0  0  0  0  0  0  0
   42.4670   66.8610   63.3200 C   0  0  0  0  0  0  0  0  0  0  0  0
   42.5690   68.1480   62.9150 N   0  0  0  0  0  0  0  0  0  0  0  0
   42.1440   68.5530   61.7060 C   0  0  0  0  0  0  0  0  0  0  0  0
   41.6050   67.6930   60.8560 N   0  0  0  0  0  0  0  0  0  0  0  0
   41.0340   65.6610   60.5170 H   0  0  0  0  0  0  0  0  0  0  0  0
   41.8380   64.9330   62.7910 H   0  0  0  0  0  0  0  0  0  0  0  0
   42.8390   66.6470   64.3090 H   0  0  0  0  0  0  0  0  0  0  0  0
   42.3980   73.5640   59.3380 C   0  0  0  0  0  0  0  0  0  0  0  0
   42.9050   73.4130   58.0930 C   0  0  0  0  0  0  0  0  0  0  0  0
   42.8190   74.5950   57.3290 C   0  0  0  0  0  0  0  0  0  0  0  0
   42.2950   75.7480   57.7740 N   0  0  0  0  0  0  0  0  0  0  0  0
   41.8180   75.7970   59.0270 C   0  0  0  0  0  0  0  0  0  0  0  0
   41.8640   74.6970   59.8290 N   0  0  0  0  0  0  0  0  0  0  0  0
   43.3340   72.5170   57.6880 H   0  0  0  0  0  0  0  0  0  0  0  0
   43.1990   74.6000   56.2980 H   0  0  0  0  0  0  0  0  0  0  0  0
   41.2480   77.0490   59.5100 C   0  0  0  0  0  0  0  0  0  0  0  0
   42.0400   77.8590   60.0800 O   0  0  0  0  0  0  0  0  0  0  0  0
   39.7910   77.2370   59.2760 C   0  0  0  0  0  3  0  0  0  0  0  0
   39.5030   78.3810   58.3390 C   0  0  0  0  0  2  0  0  0  0  0  0
   39.5420   78.0060   56.8900 C   0  0  0  0  0  2  0  0  0  0  0  0
   38.9240   76.6860   56.5620 C   0  0  0  0  0  2  0  0  0  0  0  0
   38.1770   76.1000   57.7360 C   0  0  0  0  0  2  0  0  0  0  0  0
   39.2110   75.9260   58.8410 C   0  0  0  0  0  2  0  0  0  0  0  0
  1 12  1  0  0  0  0
  1  2  2  0  0  0  0
  2  6  1  0  0  0  0
  3  7  1  0  0  0  0
  3  2  1  0  0  0  0
  4  3  2  0  0  0  0
  5  4  1  0  0  0  0
  5  1  1  0  0  0  0
  8  9  1  0  0  0  0
  9 15  1  0  0  0  0
  9 10  2  0  0  0  0
 10 16  1  0  0  0  0
 11 10  1  0  0  0  0
 12 11  2  0  0  0  0
 13  8  2  0  0  0  0
 13 12  1  0  0  0  0
 14  8  1  0  0  0  0
 17 22  1  0  0  0  0
 17  4  1  0  0  0  0
 18 17  2  0  0  0  0
 19 20  2  0  0  0  0
 19 18  1  0  0  0  0
 20 21  1  0  0  0  0
 21 25  1  0  0  0  0
 21 22  2  0  0  0  0
 23 18  1  0  0  0  0
 24 19  1  0  0  0  0
 25 26  2  0  0  0  0
 27 25  1  0  0  0  0
 28 27  1  0  0  0  0
 29 28  1  0  0  0  0
 30 29  1  0  0  0  0
 30 31  1  0  0  0  0
 31 32  1  0  0  0  0
 32 27  1  0  0  0  0
M  END
>  <minimizedAffinity>
-5.8558569

$$$$

 OpenBabel03212520573D

 32 35  0  0  0  0  0  0  0  0999 V2000
   41.6360   71.9790   61.1540 C   0  0  0  0  0  0  0  0  0  0  0  0
   40.5490   72.4070   61.8920 C   0  0  0  0  0  0  0  0  0  0  0  0
   39.9030   73.5170   61.4870 C   0  0  0  0  0  0  0  0  0  0  0  0
   40.3470   74.1900   60.3490 C   0  0  0  0  0  0  0  0  0  0  0  0
   41.7960   73.1780   59.8020 S   0  0  0  0  0  0  0  0  0  0  0  0
   40.2070   71.8810   62.7770 H   0  0  0  0  0  0  0  0  0  0  0  0
   39.0430   74.0080   61.9200 H   0  0  0  0  0  0  0  0  0  0  0  0
   43.1550   69.2650   63.0950 C   0  0  0  0  0  0  0  0  0  0  0  0
   43.9160   68.5610   62.1100 C   0  0  0  0  0  0  0  0  0  0  0  0
   43.8920   69.0290   60.8120 C   0  0  0  0  0  0  0  0  0  0  0  0
   43.1510   70.1270   60.5330 N   0  0  0  0  0  0  0  0  0  0  0  0
   42.4440   70.7710   61.4780 C   0  0  0  0  0  0  0  0  0  0  0  0
   42.4470   70.3470   62.7320 N   0  0  0  0  0  0  0  0  0  0  0  0
   43.1860   68.8830   64.1030 H   0  0  0  0  0  0  0  0  0  0  0  0
   44.5020   67.6970   62.3110 H   0  0  0  0  0  0  0  0  0  0  0  0
   44.4180   68.5920   59.9790 H   0  0  0  0  0  0  0  0  0  0  0  0
   39.9510   75.3660   59.6180 C   0  0  0  0  0  0  0  0  0  0  0  0
   40.3220   76.5850   60.0720 C   0  0  0  0  0  0  0  0  0  0  0  0
   39.8580   77.6300   59.2460 C   0  0  0  0  0  0  0  0  0  0  0  0
   39.1310   77.4500   58.1330 N   0  0  0  0  0  0  0  0  0  0  0  0
   38.8130   76.1990   57.7660 C   0  0  0  0  0  0  0  0  0  0  0  0
   39.2240   75.1340   58.5100 N   0  0  0  0  0  0  0  0  0  0  0  0
   40.9010   76.7850   60.9510 H   0  0  0  0  0  0  0  0  0  0  0  0
   40.0950   78.6710   59.5090 H   0  0  0  0  0  0  0  0  0  0  0  0
   38.0240   76.0040   56.5560 C   0  0  0  0  0  0  0  0  0  0  0  0
   36.7640   76.0900   56.6710 O   0  0  0  0  0  0  0  0  0  0  0  0
   38.7920   75.7240   55.3130 C   0  0  0  0  0  3  0  0  0  0  0  0
   40.1130   76.4470   55.2800 C   0  0  0  0  0  2  0  0  0  0  0  0
   41.2260   75.7130   55.9620 C   0  0  0  0  0  2  0  0  0  0  0  0
   41.2510   74.2380   55.7230 C   0  0  0  0  0  2  0  0  0  0  0  0
   40.2750   73.8200   54.6480 C   0  0  0  0  0  2  0  0  0  0  0  0
   38.9000   74.2390   55.1500 C   0  0  0  0  0  2  0  0  0  0  0  0
  1 12  1  0  0  0  0
  1  2  2  0  0  0  0
  2  6  1  0  0  0  0
  3  2  1  0  0  0  0
  3  7  1  0  0  0  0
  4  3  2  0  0  0  0
  5  4  1  0  0  0  0
  5  1  1  0  0  0  0
  8 14  1  0  0  0  0
  9 15  1  0  0  0  0
  9  8  2  0  0  0  0
 10  9  1  0  0  0  0
 11 10  2  0  0  0  0
 11 12  1  0  0  0  0
 12 13  2  0  0  0  0
 13  8  1  0  0  0  0
 16 10  1  0  0  0  0
 17 18  1  0  0  0  0
 17  4  1  0  0  0  0
 18 23  1  0  0  0  0
 19 24  1  0  0  0  0
 19 18  2  0  0  0  0
 20 19  1  0  0  0  0
 21 20  2  0  0  0  0
 21 22  1  0  0  0  0
 22 17  2  0  0  0  0
 25 26  2  0  0  0  0
 25 21  1  0  0  0  0
 27 25  1  0  0  0  0
 28 27  1  0  0  0  0
 28 29  1  0  0  0  0
 30 29  1  0  0  0  0
 31 32  1  0  0  0  0
 31 30  1  0  0  0  0
 32 27  1  0  0  0  0
M  END
>  <minimizedAffinity>
-5.80087996

$$$$

 OpenBabel03212520573D

 32 35  0  0  0  0  0  0  0  0999 V2000
   41.7190   70.6120   61.3030 C   0  0  0  0  0  0  0  0  0  0  0  0
   41.7710   70.7000   59.9250 C   0  0  0  0  0  0  0  0  0  0  0  0
   41.3020   71.8190   59.3410 C   0  0  0  0  0  0  0  0  0  0  0  0
   40.7830   72.8400   60.1360 C   0  0  0  0  0  0  0  0  0  0  0  0
   40.9710   72.1720   61.8520 S   0  0  0  0  0  0  0  0  0  0  0  0
   42.1750   69.9030   59.3090 H   0  0  0  0  0  0  0  0  0  0  0  0
   41.2550   72.0790   58.2930 H   0  0  0  0  0  0  0  0  0  0  0  0
   42.1340   67.1460   62.4200 C   0  0  0  0  0  0  0  0  0  0  0  0
   43.0620   67.2720   63.5010 C   0  0  0  0  0  0  0  0  0  0  0  0
   43.5200   68.5340   63.8210 C   0  0  0  0  0  0  0  0  0  0  0  0
   43.0740   69.5870   63.0990 N   0  0  0  0  0  0  0  0  0  0  0  0
   42.2010   69.4420   62.0870 C   0  0  0  0  0  0  0  0  0  0  0  0
   41.7430   68.2450   61.7550 N   0  0  0  0  0  0  0  0  0  0  0  0
   41.7880   66.1510   62.1860 H   0  0  0  0  0  0  0  0  0  0  0  0
   43.4230   66.4560   64.0780 H   0  0  0  0  0  0  0  0  0  0  0  0
   44.2180   68.7650   64.6100 H   0  0  0  0  0  0  0  0  0  0  0  0
   40.2040   74.1390   59.9110 C   0  0  0  0  0  0  0  0  0  0  0  0
   40.1820   75.0390   60.9210 C   0  0  0  0  0  0  0  0  0  0  0  0
   39.5860   76.2590   60.5410 C   0  0  0  0  0  0  0  0  0  0  0  0
   39.0920   76.5130   59.3190 N   0  0  0  0  0  0  0  0  0  0  0  0
   39.1610   75.5540   58.3840 C   0  0  0  0  0  0  0  0  0  0  0  0
   39.7230   74.3460   58.6720 N   0  0  0  0  0  0  0  0  0  0  0  0
   40.5620   74.8890   61.9120 H   0  0  0  0  0  0  0  0  0  0  0  0
   39.5080   77.0730   61.2760 H   0  0  0  0  0  0  0  0  0  0  0  0
   38.6260   75.8300   57.0570 C   0  0  0  0  0  0  0  0  0  0  0  0
   38.4130   74.8320   56.3030 O   0  0  0  0  0  0  0  0  0  0  0  0
   38.3870   77.2620   56.7340 C   0  0  0  0  0  3  0  0  0  0  0  0
   39.6030   77.9290   56.1470 C   0  0  0  0  0  2  0  0  0  0  0  0
   39.7320   77.7640   54.6640 C   0  0  0  0  0  2  0  0  0  0  0  0
   38.4540   77.8880   53.9010 C   0  0  0  0  0  2  0  0  0  0  0  0
   37.3200   78.3850   54.7670 C   0  0  0  0  0  2  0  0  0  0  0  0
   37.1620   77.3540   55.8770 C   0  0  0  0  0  2  0  0  0  0  0  0
  1  5  1  0  0  0  0
  1 12  1  0  0  0  0
  2  1  2  0  0  0  0
  3  2  1  0  0  0  0
  3  4  2  0  0  0  0
  4  5  1  0  0  0  0
  6  2  1  0  0  0  0
  7  3  1  0  0  0  0
  8  9  1  0  0  0  0
  9 10  2  0  0  0  0
  9 15  1  0  0  0  0
 10 16  1  0  0  0  0
 11 10  1  0  0  0  0
 12 11  2  0  0  0  0
 13 12  1  0  0  0  0
 13  8  2  0  0  0  0
 14  8  1  0  0  0  0
 17  4  1  0  0  0  0
 17 18  1  0  0  0  0
 18 23  1  0  0  0  0
 19 18  2  0  0  0  0
 19 24  1  0  0  0  0
 20 19  1  0  0  0  0
 21 22  1  0  0  0  0
 21 20  2  0  0  0  0
 22 17  2  0  0  0  0
 25 21  1  0  0  0  0
 26 25  2  0  0  0  0
 27 25  1  0  0  0  0
 28 27  1  0  0  0  0
 29 28  1  0  0  0  0
 30 29  1  0  0  0  0
 30 31  1  0  0  0  0
 31 32  1  0  0  0  0
 32 27  1  0  0  0  0
M  END
>  <minimizedAffinity>
-5.72432232

$$$$
