
 OpenBabel03212520563D

 32 35  0  0  0  0  0  0  0  0999 V2000
   40.9150   80.1620   61.7760 C   0  0  0  0  0  0  0  0  0  0  0  0
   40.8050   78.9810   62.4850 C   0  0  0  0  0  0  0  0  0  0  0  0
   40.4070   77.8780   61.8230 C   0  0  0  0  0  0  0  0  0  0  0  0
   40.1230   77.9620   60.4610 C   0  0  0  0  0  0  0  0  0  0  0  0
   40.4400   79.7430   60.0750 S   0  0  0  0  0  0  0  0  0  0  0  0
   41.0270   78.9200   63.5450 H   0  0  0  0  0  0  0  0  0  0  0  0
   40.2620   76.8720   62.1910 H   0  0  0  0  0  0  0  0  0  0  0  0
   43.0240   83.0420   62.6110 C   0  0  0  0  0  0  0  0  0  0  0  0
   42.1670   83.8300   63.4420 C   0  0  0  0  0  0  0  0  0  0  0  0
   40.8940   83.3590   63.6950 C   0  0  0  0  0  0  0  0  0  0  0  0
   40.5190   82.1810   63.1470 N   0  0  0  0  0  0  0  0  0  0  0  0
   41.3440   81.4580   62.3700 C   0  0  0  0  0  0  0  0  0  0  0  0
   42.5700   81.8830   62.1080 N   0  0  0  0  0  0  0  0  0  0  0  0
   44.0150   83.4270   62.4250 H   0  0  0  0  0  0  0  0  0  0  0  0
   42.4450   84.7580   63.8800 H   0  0  0  0  0  0  0  0  0  0  0  0
   40.1540   83.8550   64.3020 H   0  0  0  0  0  0  0  0  0  0  0  0
   39.6850   77.0520   59.4340 C   0  0  0  0  0  0  0  0  0  0  0  0
   40.1860   75.7960   59.4040 C   0  0  0  0  0  0  0  0  0  0  0  0
   39.6580   75.0320   58.3430 C   0  0  0  0  0  0  0  0  0  0  0  0
   38.7600   75.4860   57.4560 N   0  0  0  0  0  0  0  0  0  0  0  0
   38.3240   76.7500   57.5700 C   0  0  0  0  0  0  0  0  0  0  0  0
   38.7850   77.5540   58.5690 N   0  0  0  0  0  0  0  0  0  0  0  0
   40.9020   75.3830   60.0860 H   0  0  0  0  0  0  0  0  0  0  0  0
   39.9880   73.9910   58.2110 H   0  0  0  0  0  0  0  0  0  0  0  0
   37.3470   77.2430   56.6060 C   0  0  0  0  0  0  0  0  0  0  0  0
   36.1230   77.0500   56.8780 O   0  0  0  0  0  0  0  0  0  0  0  0
   37.9010   77.9220   55.4050 C   0  0  0  0  0  3  0  0  0  0  0  0
   37.1360   79.1700   55.0480 C   0  0  0  0  0  2  0  0  0  0  0  0
   37.5960   80.3950   55.7750 C   0  0  0  0  0  2  0  0  0  0  0  0
   39.0760   80.5240   55.9240 C   0  0  0  0  0  2  0  0  0  0  0  0
   39.8220   79.4990   55.1030 C   0  0  0  0  0  2  0  0  0  0  0  0
   39.3670   78.1410   55.6210 C   0  0  0  0  0  2  0  0  0  0  0  0
  1 12  1  0  0  0  0
  1  2  2  0  0  0  0
  2  6  1  0  0  0  0
  3  7  1  0  0  0  0
  3  2  1  0  0  0  0
  4  3  2  0  0  0  0
  5  4  1  0  0  0  0
  5  1  1  0  0  0  0
  8  9  1  0  0  0  0
  9 10  2  0  0  0  0
  9 15  1  0  0  0  0
 10 16  1  0  0  0  0
 11 10  1  0  0  0  0
 12 11  2  0  0  0  0
 13 12  1  0  0  0  0
 13  8  2  0  0  0  0
 14  8  1  0  0  0  0
 17  4  1  0  0  0  0
 18 17  1  0  0  0  0
 18 23  1  0  0  0  0
 19 18  2  0  0  0  0
 20 21  2  0  0  0  0
 20 19  1  0  0  0  0
 21 22  1  0  0  0  0
 22 17  2  0  0  0  0
 24 19  1  0  0  0  0
 25 26  2  0  0  0  0
 25 21  1  0  0  0  0
 27 32  1  0  0  0  0
 27 25  1  0  0  0  0
 28 27  1  0  0  0  0
 28 29  1  0  0  0  0
 29 30  1  0  0  0  0
 31 32  1  0  0  0  0
 31 30  1  0  0  0  0
M  END
>  <minimizedAffinity>
-6.40831423

>  <minimizedRMSD>
0.513477921

$$$$
