
 OpenBabel03212520353D

 33 36  0  0  0  0  0  0  0  0999 V2000
   41.2950   82.0200   59.6150 C   0  0  0  0  0  0  0  0  0  0  0  0
   41.2650   81.6270   60.9750 C   0  0  0  0  0  0  0  0  0  0  0  0
   41.6760   82.4280   62.0070 C   0  0  0  0  0  0  0  0  0  0  0  0
   42.1500   83.6990   61.7290 C   0  0  0  0  0  0  0  0  0  0  0  0
   42.1880   84.1030   60.4060 C   0  0  0  0  0  0  0  0  0  0  0  0
   42.6220   85.3460   60.0140 C   0  0  0  0  0  0  0  0  0  0  0  0
   42.6380   85.7250   58.6760 C   0  0  0  0  0  0  0  0  0  0  0  0
   42.2210   84.8750   57.6720 C   0  0  0  0  0  0  0  0  0  0  0  0
   41.7830   83.6210   58.0610 C   0  0  0  0  0  0  0  0  0  0  0  0
   41.7740   83.2840   59.3750 C   0  0  0  0  0  0  0  0  0  0  0  0
   40.9200   80.6860   61.3750 H   0  0  0  0  0  0  0  0  0  0  0  0
   41.6730   82.1780   63.0530 H   0  0  0  0  0  0  0  0  0  0  0  0
   42.4950   84.4030   62.4740 H   0  0  0  0  0  0  0  0  0  0  0  0
   42.9560   86.0190   60.8180 H   0  0  0  0  0  0  0  0  0  0  0  0
   43.0090   86.7440   58.5270 H   0  0  0  0  0  0  0  0  0  0  0  0
   42.2750   85.2650   56.6680 H   0  0  0  0  0  0  0  0  0  0  0  0
   41.5570   83.0560   57.1900 H   0  0  0  0  0  0  0  0  0  0  0  0
   39.6290   81.1090   57.8840 C   0  0  0  0  0  0  0  0  0  0  0  0
   40.7510   81.0290   58.7060 C   0  0  0  0  0  0  0  0  0  0  0  0
   41.5270   79.8020   58.7360 C   0  0  0  0  0  0  0  0  0  0  0  0
   41.1050   78.7750   57.9410 N   0  0  0  0  0  0  0  0  0  0  0  0
   39.9780   78.9210   57.1430 C   0  0  0  0  0  0  0  0  0  0  0  0
   39.2610   80.0760   57.1240 N   0  0  0  0  0  0  0  0  0  0  0  0
   38.9840   81.9440   57.8730 H   0  0  0  0  0  0  0  0  0  0  0  0
   42.3900   79.5320   59.2610 H   0  0  0  0  0  0  0  0  0  0  0  0
   39.5040   77.8190   56.2950 C   0  0  0  0  0  0  0  0  0  0  0  0
   40.0750   77.5120   55.2320 O   0  0  0  0  0  0  0  0  0  0  0  0
   38.2950   77.1180   56.8260 C   0  0  0  0  0  3  0  0  0  0  0  0
   38.1170   75.7630   56.1630 C   0  0  0  0  0  2  0  0  0  0  0  0
   39.2610   74.8540   56.5250 C   0  0  0  0  0  2  0  0  0  0  0  0
   39.5730   74.8540   57.9850 C   0  0  0  0  0  2  0  0  0  0  0  0
   38.5940   75.6370   58.8230 C   0  0  0  0  0  2  0  0  0  0  0  0
   38.3630   77.0290   58.3190 C   0  0  0  0  0  2  0  0  0  0  0  0
  1  2  1  0  0  0  0
  2 11  1  0  0  0  0
  2  3  2  0  0  0  0
  3 12  1  0  0  0  0
  4  3  1  0  0  0  0
  4 13  1  0  0  0  0
  5  4  2  0  0  0  0
  6  5  1  0  0  0  0
  6 14  1  0  0  0  0
  7  6  2  0  0  0  0
  8  9  2  0  0  0  0
  8  7  1  0  0  0  0
  9 10  1  0  0  0  0
 10  1  2  0  0  0  0
 10  5  1  0  0  0  0
 15  7  1  0  0  0  0
 16  8  1  0  0  0  0
 17  9  1  0  0  0  0
 18 19  1  0  0  0  0
 19 20  2  0  0  0  0
 19  1  1  0  0  0  0
 20 25  1  0  0  0  0
 21 20  1  0  0  0  0
 22 21  2  0  0  0  0
 23 22  1  0  0  0  0
 23 18  2  0  0  0  0
 24 18  1  0  0  0  0
 26 28  1  0  0  0  0
 26 22  1  0  0  0  0
 27 26  2  0  0  0  0
 28 33  1  0  0  0  0
 29 30  1  0  0  0  0
 29 28  1  0  0  0  0
 30 31  1  0  0  0  0
 31 32  1  0  0  0  0
 33 32  1  0  0  0  0
M  END
>  <minimizedAffinity>
-4.66892433

>  <minimizedRMSD>
8.23879528

$$$$
