
 OpenBabel03212520053D

 38 42  0  0  0  0  0  0  0  0999 V2000
   40.7660   81.9280   57.0550 C   0  0  0  0  0  0  0  0  0  0  0  0
   41.8830   82.4740   56.4070 C   0  0  0  0  0  0  0  0  0  0  0  0
   42.6850   83.3250   57.1230 C   0  0  0  0  0  0  0  0  0  0  0  0
   42.3860   83.6110   58.4220 N   0  0  0  0  0  0  0  0  0  0  0  0
   41.2990   83.0650   59.0270 C   0  0  0  0  0  0  0  0  0  0  0  0
   40.4780   82.2170   58.3410 N   0  0  0  0  0  0  0  0  0  0  0  0
   40.0470   81.2490   56.6210 H   0  0  0  0  0  0  0  0  0  0  0  0
   41.9300   82.0770   55.4210 H   0  0  0  0  0  0  0  0  0  0  0  0
   39.7110   83.1220   60.8870 C   0  0  0  0  0  0  0  0  0  0  0  0
   41.0090   83.3440   60.4260 C   0  0  0  0  0  0  0  0  0  0  0  0
   42.0100   83.8020   61.2840 C   0  0  0  0  0  0  0  0  0  0  0  0
   41.7440   84.0490   62.6230 C   0  0  0  0  0  0  0  0  0  0  0  0
   42.4300   84.4750   63.6960 N   0  0  0  0  0  0  0  0  0  0  0  0
   41.6410   84.5280   64.7780 C   0  0  0  0  0  0  0  0  0  0  0  0
   40.4410   84.1170   64.3370 N   0  0  0  0  0  0  0  0  0  0  0  0
   40.4660   83.8170   63.0250 C   0  0  0  0  0  0  0  0  0  0  0  0
   39.4260   83.3650   62.2350 C   0  0  0  0  0  0  0  0  0  0  0  0
   38.9100   82.7670   60.2510 H   0  0  0  0  0  0  0  0  0  0  0  0
   43.0180   83.9740   60.9210 H   0  0  0  0  0  0  0  0  0  0  0  0
   43.4590   84.7180   63.6130 H   0  0  0  0  0  0  0  0  0  0  0  0
   41.9650   84.8400   65.7600 H   0  0  0  0  0  0  0  0  0  0  0  0
   38.4510   83.2140   62.6480 H   0  0  0  0  0  0  0  0  0  0  0  0
   42.6940   83.4020   54.1420 Cl  0  0  0  0  0  0  0  0  0  0  0  0
   43.9900   84.0490   55.1580 C   0  0  0  0  0  0  0  0  0  0  0  0
   43.8440   83.9400   56.5190 C   0  0  0  0  0  0  0  0  0  0  0  0
   44.9010   84.4780   57.2410 C   0  0  0  0  0  0  0  0  0  0  0  0
   46.0040   85.0720   56.6670 C   0  0  0  0  0  0  0  0  0  0  0  0
   46.0860   85.1500   55.2820 C   0  0  0  0  0  0  0  0  0  0  0  0
   47.4840   85.8940   54.5550 Cl  0  0  0  0  0  0  0  0  0  0  0  0
   45.0750   84.6360   54.5370 C   0  0  0  0  0  0  0  0  0  0  0  0
   44.8720   84.4370   58.3210 H   0  0  0  0  0  0  0  0  0  0  0  0
   46.7910   85.4720   57.2910 H   0  0  0  0  0  0  0  0  0  0  0  0
   45.0730   84.6700   53.0570 C   0  0  0  0  0  3  0  0  0  0  0  0
   44.0790   85.6380   52.4600 C   0  0  0  0  0  2  0  0  0  0  0  0
   44.2520   85.5990   50.9670 C   0  0  0  0  0  2  0  0  0  0  0  0
   45.4730   84.8910   50.4840 C   0  0  0  0  0  2  0  0  0  0  0  0
   45.5960   83.4810   51.0190 C   0  0  0  0  0  2  0  0  0  0  0  0
   44.9100   83.3550   52.3770 C   0  0  0  0  0  2  0  0  0  0  0  0
  1  6  1  0  0  0  0
  2  1  2  0  0  0  0
  2  3  1  0  0  0  0
  3  4  2  0  0  0  0
  4  5  1  0  0  0  0
  5 10  1  0  0  0  0
  6  5  2  0  0  0  0
  7  1  1  0  0  0  0
  8  2  1  0  0  0  0
  9 17  1  0  0  0  0
 10  9  2  0  0  0  0
 10 11  1  0  0  0  0
 11 12  2  0  0  0  0
 12 16  1  0  0  0  0
 12 13  1  0  0  0  0
 13 14  1  0  0  0  0
 14 21  1  0  0  0  0
 15 14  2  0  0  0  0
 16 15  1  0  0  0  0
 17 22  1  0  0  0  0
 17 16  2  0  0  0  0
 18  9  1  0  0  0  0
 19 11  1  0  0  0  0
 20 13  1  0  0  0  0
 23 24  1  0  0  0  0
 24 25  1  0  0  0  0
 25  3  1  0  0  0  0
 25 26  2  0  0  0  0
 26 31  1  0  0  0  0
 27 26  1  0  0  0  0
 27 32  1  0  0  0  0
 28 27  2  0  0  0  0
 29 28  1  0  0  0  0
 30 24  2  0  0  0  0
 30 28  1  0  0  0  0
 33 30  1  0  0  0  0
 34 33  1  0  0  0  0
 35 34  1  0  0  0  0
 36 35  1  0  0  0  0
 36 37  1  0  0  0  0
 37 38  1  0  0  0  0
 38 33  1  0  0  0  0
M  END
>  <minimizedAffinity>
-4.93837881

>  <minimizedRMSD>
0.549054444

$$$$
