
 OpenBabel03212520493D

 25 27  0  0  0  0  0  0  0  0999 V2000
   41.6330   83.9220   61.3930 C   0  0  0  0  0  0  0  0  0  0  0  0
   41.5310   84.2250   62.7420 C   0  0  0  0  0  0  0  0  0  0  0  0
   41.0090   83.2820   63.6480 C   0  0  0  0  0  0  0  0  0  0  0  0
   40.6060   82.0770   63.2090 N   0  0  0  0  0  0  0  0  0  0  0  0
   40.7100   81.7990   61.9060 C   0  0  0  0  0  0  0  0  0  0  0  0
   41.2110   82.6950   61.0050 N   0  0  0  0  0  0  0  0  0  0  0  0
   41.8610   85.1980   63.0710 H   0  0  0  0  0  0  0  0  0  0  0  0
   40.9600   83.5870   64.6810 H   0  0  0  0  0  0  0  0  0  0  0  0
   43.6990   86.4960   59.8410 C   0  0  0  0  0  0  0  0  0  0  0  0
   43.0810   86.6310   58.5810 C   0  0  0  0  0  0  0  0  0  0  0  0
   41.9710   85.8480   58.2690 C   0  0  0  0  0  0  0  0  0  0  0  0
   41.5610   84.9870   59.2430 N   0  0  0  0  0  0  0  0  0  0  0  0
   42.1670   84.8790   60.4350 C   0  0  0  0  0  0  0  0  0  0  0  0
   43.2200   85.6170   60.7420 N   0  0  0  0  0  0  0  0  0  0  0  0
   44.8070   87.3600   59.9970 N   0  0  0  0  0  0  0  0  0  0  0  0
   43.3990   87.3100   57.8040 H   0  0  0  0  0  0  0  0  0  0  0  0
   41.4830   85.9330   57.3140 H   0  0  0  0  0  0  0  0  0  0  0  0
   45.7570   87.3680   59.5640 H   0  0  0  0  0  0  0  0  0  0  0  0
   44.5940   88.1300   60.6910 H   0  0  0  0  0  0  0  0  0  0  0  0
   40.2830   80.4920   61.3630 C   0  0  0  0  0  3  0  0  0  0  0  0
   40.7520   79.3880   62.2610 C   0  0  0  0  0  2  0  0  0  0  0  0
   40.6560   78.0230   61.6710 C   0  0  0  0  0  2  0  0  0  0  0  0
   40.9360   77.9420   60.2070 C   0  0  0  0  0  2  0  0  0  0  0  0
   40.2040   79.0230   59.4430 C   0  0  0  0  0  2  0  0  0  0  0  0
   40.7910   80.3450   59.9490 C   0  0  0  0  0  2  0  0  0  0  0  0
  1  2  1  0  0  0  0
  2  7  1  0  0  0  0
  2  3  2  0  0  0  0
  3  8  1  0  0  0  0
  4  3  1  0  0  0  0
  5  4  2  0  0  0  0
  6  1  2  0  0  0  0
  6  5  1  0  0  0  0
  9 15  1  0  0  0  0
  9 14  1  0  0  0  0
 10  9  2  0  0  0  0
 11 10  1  0  0  0  0
 11 12  2  0  0  0  0
 12 13  1  0  0  0  0
 13 14  2  0  0  0  0
 13  1  1  0  0  0  0
 15 19  1  0  0  0  0
 16 10  1  0  0  0  0
 17 11  1  0  0  0  0
 18 15  1  0  0  0  0
 20  5  1  0  0  0  0
 20 21  1  0  0  0  0
 22 21  1  0  0  0  0
 23 22  1  0  0  0  0
 24 25  1  0  0  0  0
 24 23  1  0  0  0  0
 25 20  1  0  0  0  0
M  END
>  <minimizedAffinity>
-5.4099369

>  <minimizedRMSD>
1.10807705

$$$$
