
 OpenBabel03212520053D

 38 42  0  0  0  0  0  0  0  0999 V2000
   40.7370   81.7990   57.1160 C   0  0  0  0  0  0  0  0  0  0  0  0
   41.8570   82.3220   56.4510 C   0  0  0  0  0  0  0  0  0  0  0  0
   42.6680   83.1810   57.1450 C   0  0  0  0  0  0  0  0  0  0  0  0
   42.3760   83.4990   58.4390 N   0  0  0  0  0  0  0  0  0  0  0  0
   41.2860   82.9760   59.0590 C   0  0  0  0  0  0  0  0  0  0  0  0
   40.4560   82.1210   58.3950 N   0  0  0  0  0  0  0  0  0  0  0  0
   40.0110   81.1170   56.6990 H   0  0  0  0  0  0  0  0  0  0  0  0
   41.8980   81.9020   55.4750 H   0  0  0  0  0  0  0  0  0  0  0  0
   39.7020   83.1060   60.9180 C   0  0  0  0  0  0  0  0  0  0  0  0
   41.0040   83.2900   60.4520 C   0  0  0  0  0  0  0  0  0  0  0  0
   42.0160   83.7410   61.3010 C   0  0  0  0  0  0  0  0  0  0  0  0
   41.7560   84.0210   62.6350 C   0  0  0  0  0  0  0  0  0  0  0  0
   42.4510   84.4530   63.7000 N   0  0  0  0  0  0  0  0  0  0  0  0
   41.6640   84.5440   64.7800 C   0  0  0  0  0  0  0  0  0  0  0  0
   40.4550   84.1530   64.3480 N   0  0  0  0  0  0  0  0  0  0  0  0
   40.4730   83.8260   63.0420 C   0  0  0  0  0  0  0  0  0  0  0  0
   39.4230   83.3830   62.2600 C   0  0  0  0  0  0  0  0  0  0  0  0
   38.8920   82.7580   60.2880 H   0  0  0  0  0  0  0  0  0  0  0  0
   43.0270   83.8840   60.9350 H   0  0  0  0  0  0  0  0  0  0  0  0
   43.4860   84.6700   63.6110 H   0  0  0  0  0  0  0  0  0  0  0  0
   41.9960   84.8690   65.7550 H   0  0  0  0  0  0  0  0  0  0  0  0
   38.4450   83.2620   62.6770 H   0  0  0  0  0  0  0  0  0  0  0  0
   42.4010   83.7970   54.2400 Cl  0  0  0  0  0  0  0  0  0  0  0  0
   43.8580   84.1110   55.1930 C   0  0  0  0  0  0  0  0  0  0  0  0
   43.8300   83.7720   56.5230 C   0  0  0  0  0  0  0  0  0  0  0  0
   45.0100   84.0580   57.1990 C   0  0  0  0  0  0  0  0  0  0  0  0
   46.1170   84.6300   56.6100 C   0  0  0  0  0  0  0  0  0  0  0  0
   46.0750   84.9480   55.2580 C   0  0  0  0  0  0  0  0  0  0  0  0
   47.4770   85.6630   54.5100 Cl  0  0  0  0  0  0  0  0  0  0  0  0
   44.9420   84.6860   54.5590 C   0  0  0  0  0  0  0  0  0  0  0  0
   45.0790   83.8250   58.2520 H   0  0  0  0  0  0  0  0  0  0  0  0
   47.0030   84.8260   57.1970 H   0  0  0  0  0  0  0  0  0  0  0  0
   44.8020   84.9870   53.1160 C   0  0  0  0  0  3  0  0  0  0  0  0
   45.6080   84.0840   52.2120 C   0  0  0  0  0  2  0  0  0  0  0  0
   45.3010   84.4760   50.7920 C   0  0  0  0  0  2  0  0  0  0  0  0
   44.1370   85.3930   50.6230 C   0  0  0  0  0  2  0  0  0  0  0  0
   44.2400   86.6500   51.4570 C   0  0  0  0  0  2  0  0  0  0  0  0
   45.0610   86.3980   52.7180 C   0  0  0  0  0  2  0  0  0  0  0  0
  1  6  1  0  0  0  0
  2  1  2  0  0  0  0
  2  3  1  0  0  0  0
  3  4  2  0  0  0  0
  4  5  1  0  0  0  0
  5 10  1  0  0  0  0
  6  5  2  0  0  0  0
  7  1  1  0  0  0  0
  8  2  1  0  0  0  0
  9 17  1  0  0  0  0
 10  9  2  0  0  0  0
 10 11  1  0  0  0  0
 11 12  2  0  0  0  0
 12 16  1  0  0  0  0
 12 13  1  0  0  0  0
 13 14  1  0  0  0  0
 14 21  1  0  0  0  0
 15 14  2  0  0  0  0
 16 15  1  0  0  0  0
 17 22  1  0  0  0  0
 17 16  2  0  0  0  0
 18  9  1  0  0  0  0
 19 11  1  0  0  0  0
 20 13  1  0  0  0  0
 23 24  1  0  0  0  0
 24 25  1  0  0  0  0
 25  3  1  0  0  0  0
 25 26  2  0  0  0  0
 26 31  1  0  0  0  0
 27 32  1  0  0  0  0
 27 26  1  0  0  0  0
 28 27  2  0  0  0  0
 29 28  1  0  0  0  0
 30 24  2  0  0  0  0
 30 28  1  0  0  0  0
 33 30  1  0  0  0  0
 34 33  1  0  0  0  0
 35 34  1  0  0  0  0
 36 35  1  0  0  0  0
 36 37  1  0  0  0  0
 37 38  1  0  0  0  0
 38 33  1  0  0  0  0
M  END
>  <minimizedAffinity>
-5.07435989

>  <minimizedRMSD>
0.31623292

$$$$
