
 OpenBabel03212521073D

 33 36  0  0  0  0  0  0  0  0999 V2000
   41.8120   84.2490   61.5680 C   0  0  0  0  0  0  0  0  0  0  0  0
   41.4430   83.9600   62.8790 C   0  0  0  0  0  0  0  0  0  0  0  0
   40.1630   83.5430   63.1970 C   0  0  0  0  0  0  0  0  0  0  0  0
   39.2210   83.4070   62.1910 C   0  0  0  0  0  0  0  0  0  0  0  0
   39.5790   83.6930   60.8800 C   0  0  0  0  0  0  0  0  0  0  0  0
   40.8610   84.1110   60.5600 C   0  0  0  0  0  0  0  0  0  0  0  0
   42.1530   84.0540   63.7060 H   0  0  0  0  0  0  0  0  0  0  0  0
   39.8430   83.3110   64.2020 H   0  0  0  0  0  0  0  0  0  0  0  0
   38.1910   83.0860   62.3440 H   0  0  0  0  0  0  0  0  0  0  0  0
   38.8470   83.5900   60.0820 H   0  0  0  0  0  0  0  0  0  0  0  0
   45.3500   84.1330   60.6680 C   0  0  0  0  0  0  0  0  0  0  0  0
   45.7370   85.4590   60.7330 C   0  0  0  0  0  0  0  0  0  0  0  0
   44.7630   86.4080   61.0930 C   0  0  0  0  0  0  0  0  0  0  0  0
   43.5030   85.9850   61.3570 N   0  0  0  0  0  0  0  0  0  0  0  0
   43.1570   84.6810   61.2840 C   0  0  0  0  0  0  0  0  0  0  0  0
   44.0830   83.7820   60.9420 N   0  0  0  0  0  0  0  0  0  0  0  0
   46.0050   83.2940   60.4020 H   0  0  0  0  0  0  0  0  0  0  0  0
   46.7710   85.6670   60.4990 H   0  0  0  0  0  0  0  0  0  0  0  0
   45.0870   87.4280   61.1360 H   0  0  0  0  0  0  0  0  0  0  0  0
   41.1870   84.3970   59.1830 C   0  0  0  0  0  0  0  0  0  0  0  0
   40.7380   85.6680   58.8020 C   0  0  0  0  0  0  0  0  0  0  0  0
   40.9570   86.1320   57.5040 C   0  0  0  0  0  0  0  0  0  0  0  0
   41.6050   85.3160   56.6570 N   0  0  0  0  0  0  0  0  0  0  0  0
   42.0350   84.0880   57.0370 C   0  0  0  0  0  0  0  0  0  0  0  0
   41.8250   83.6420   58.2820 N   0  0  0  0  0  0  0  0  0  0  0  0
   40.2110   86.3730   59.4300 H   0  0  0  0  0  0  0  0  0  0  0  0
   40.6180   87.1180   57.1770 H   0  0  0  0  0  0  0  0  0  0  0  0
   42.7490   83.2230   56.0590 C   0  0  0  0  0  3  0  0  0  0  0  0
   43.6640   84.0470   55.1660 C   0  0  0  0  0  2  0  0  0  0  0  0
   44.0790   83.1270   54.0320 C   0  0  0  0  0  2  0  0  0  0  0  0
   44.9450   82.0420   54.6700 C   0  0  0  0  0  2  0  0  0  0  0  0
   44.1680   81.2720   55.6950 C   0  0  0  0  0  2  0  0  0  0  0  0
   43.5230   82.1280   56.7430 C   0  0  0  0  0  2  0  0  0  0  0  0
  1  2  1  0  0  0  0
  2  3  2  0  0  0  0
  2  7  1  0  0  0  0
  3  8  1  0  0  0  0
  4  9  1  0  0  0  0
  4  3  1  0  0  0  0
  5  4  2  0  0  0  0
  6  5  1  0  0  0  0
  6  1  2  0  0  0  0
 10  5  1  0  0  0  0
 11 12  2  0  0  0  0
 11 16  1  0  0  0  0
 12 13  1  0  0  0  0
 13 19  1  0  0  0  0
 13 14  2  0  0  0  0
 15 14  1  0  0  0  0
 15  1  1  0  0  0  0
 16 15  2  0  0  0  0
 17 11  1  0  0  0  0
 18 12  1  0  0  0  0
 20  6  1  0  0  0  0
 21 20  1  0  0  0  0
 21 26  1  0  0  0  0
 22 21  2  0  0  0  0
 23 24  2  0  0  0  0
 23 22  1  0  0  0  0
 24 25  1  0  0  0  0
 25 20  2  0  0  0  0
 27 22  1  0  0  0  0
 28 33  1  0  0  0  0
 28 24  1  0  0  0  0
 29 28  1  0  0  0  0
 30 31  1  0  0  0  0
 30 29  1  0  0  0  0
 31 32  1  0  0  0  0
 32 33  1  0  0  0  0
M  END
>  <minimizedAffinity>
-5.32309961

>  <minimizedRMSD>
0.168775111

$$$$
