
 OpenBabel03212520273D

 25 27  0  0  0  0  0  0  0  0999 V2000
   42.4220   84.8550   61.0100 C   0  0  0  0  0  0  0  0  0  0  0  0
   43.4780   85.2050   61.8590 C   0  0  0  0  0  0  0  0  0  0  0  0
   44.1330   86.1770   61.0840 C   0  0  0  0  0  0  0  0  0  0  0  0
   43.4960   86.3610   59.8940 N   0  0  0  0  0  0  0  0  0  0  0  0
   42.4530   85.5390   59.8750 N   0  0  0  0  0  0  0  0  0  0  0  0
   43.7610   84.8640   62.8330 H   0  0  0  0  0  0  0  0  0  0  0  0
   45.0310   86.7300   61.3660 H   0  0  0  0  0  0  0  0  0  0  0  0
   40.7920   81.5850   61.7920 C   0  0  0  0  0  0  0  0  0  0  0  0
   41.7900   82.5100   61.4650 C   0  0  0  0  0  0  0  0  0  0  0  0
   41.4220   83.8590   61.3480 C   0  0  0  0  0  0  0  0  0  0  0  0
   40.1330   84.2150   61.5520 N   0  0  0  0  0  0  0  0  0  0  0  0
   39.1960   83.2800   61.8690 C   0  0  0  0  0  0  0  0  0  0  0  0
   39.5250   81.9880   61.9850 N   0  0  0  0  0  0  0  0  0  0  0  0
   41.2000   80.5830   61.8520 H   0  0  0  0  0  0  0  0  0  0  0  0
   42.8340   82.2740   61.2910 H   0  0  0  0  0  0  0  0  0  0  0  0
   38.1680   83.5650   62.0310 H   0  0  0  0  0  0  0  0  0  0  0  0
   43.8980   87.2790   58.8610 C   0  0  0  0  0  0  0  0  0  0  0  0
   44.3270   88.1890   59.2760 H   0  0  0  0  0  0  0  0  0  0  0  0
   42.9670   87.5280   58.2790 H   0  0  0  0  0  0  0  0  0  0  0  0
   44.8250   86.5440   57.9250 C   0  0  0  0  0  3  0  0  0  0  0  0
   44.2620   85.2140   57.4840 C   0  0  0  0  0  2  0  0  0  0  0  0
   45.0840   84.8140   56.2650 C   0  0  0  0  0  2  0  0  0  0  0  0
   46.5390   84.6780   56.6170 C   0  0  0  0  0  2  0  0  0  0  0  0
   47.0900   85.7950   57.4390 C   0  0  0  0  0  2  0  0  0  0  0  0
   46.1620   86.2590   58.5480 C   0  0  0  0  0  2  0  0  0  0  0  0
  1 10  1  0  0  0  0
  1  2  1  0  0  0  0
  2  6  1  0  0  0  0
  3  7  1  0  0  0  0
  3  2  2  0  0  0  0
  4  3  1  0  0  0  0
  5  4  1  0  0  0  0
  5  1  2  0  0  0  0
  8 14  1  0  0  0  0
  8 13  1  0  0  0  0
  9  8  2  0  0  0  0
 10  9  1  0  0  0  0
 10 11  2  0  0  0  0
 11 12  1  0  0  0  0
 12 13  2  0  0  0  0
 12 16  1  0  0  0  0
 15  9  1  0  0  0  0
 17 18  1  0  0  0  0
 17  4  1  0  0  0  0
 19 17  1  0  0  0  0
 20 25  1  0  0  0  0
 20 17  1  0  0  0  0
 21 20  1  0  0  0  0
 22 23  1  0  0  0  0
 22 21  1  0  0  0  0
 23 24  1  0  0  0  0
 24 25  1  0  0  0  0
M  END
>  <minimizedAffinity>
-4.14332914

>  <minimizedRMSD>
0.553059399

$$$$
