
 OpenBabel03212520533D

 22 24  0  0  0  0  0  0  0  0999 V2000
   38.9840   74.8300   59.0850 C   0  0  0  0  0  0  0  0  0  0  0  0
   38.3270   74.4440   60.2690 C   0  0  0  0  0  0  0  0  0  0  0  0
   39.0300   73.8040   61.2370 C   0  0  0  0  0  0  0  0  0  0  0  0
   40.4000   73.5450   61.0220 C   0  0  0  0  0  0  0  0  0  0  0  0
   40.7080   74.2540   59.3440 S   0  0  0  0  0  0  0  0  0  0  0  0
   37.2760   74.6500   60.4170 H   0  0  0  0  0  0  0  0  0  0  0  0
   38.6880   73.4440   62.1900 H   0  0  0  0  0  0  0  0  0  0  0  0
   38.1810   77.4400   56.6720 C   0  0  0  0  0  0  0  0  0  0  0  0
   37.1700   76.8580   55.8820 C   0  0  0  0  0  0  0  0  0  0  0  0
   36.7680   75.5520   56.1920 C   0  0  0  0  0  0  0  0  0  0  0  0
   37.3810   74.9300   57.2380 N   0  0  0  0  0  0  0  0  0  0  0  0
   38.3420   75.5300   57.9620 C   0  0  0  0  0  0  0  0  0  0  0  0
   38.7500   76.7660   57.6980 N   0  0  0  0  0  0  0  0  0  0  0  0
   38.4640   78.4460   56.4030 H   0  0  0  0  0  0  0  0  0  0  0  0
   36.7000   77.3740   55.0580 H   0  0  0  0  0  0  0  0  0  0  0  0
   36.0160   75.0240   55.6600 H   0  0  0  0  0  0  0  0  0  0  0  0
   41.4660   72.9280   61.7340 C   0  0  0  0  0  3  0  0  0  0  0  0
   40.9560   71.6430   62.3550 C   0  0  0  0  0  2  0  0  0  0  0  0
   42.1570   70.9720   62.9870 C   0  0  0  0  0  2  0  0  0  0  0  0
   43.0720   70.3830   61.9260 C   0  0  0  0  0  2  0  0  0  0  0  0
   42.7960   71.0940   60.6410 C   0  0  0  0  0  2  0  0  0  0  0  0
   42.6570   72.5750   60.8680 C   0  0  0  0  0  2  0  0  0  0  0  0
  1  5  1  0  0  0  0
  1  2  2  0  0  0  0
  2  6  1  0  0  0  0
  2  3  1  0  0  0  0
  3  7  1  0  0  0  0
  4  3  2  0  0  0  0
  4 17  1  0  0  0  0
  5  4  1  0  0  0  0
  8 13  1  0  0  0  0
  9 10  1  0  0  0  0
  9  8  2  0  0  0  0
 10 11  2  0  0  0  0
 11 12  1  0  0  0  0
 12  1  1  0  0  0  0
 13 12  2  0  0  0  0
 14  8  1  0  0  0  0
 15  9  1  0  0  0  0
 16 10  1  0  0  0  0
 17 18  1  0  0  0  0
 18 19  1  0  0  0  0
 20 19  1  0  0  0  0
 21 22  1  0  0  0  0
 21 20  1  0  0  0  0
 22 17  1  0  0  0  0
M  END
>  <minimizedAffinity>
-5.19178677

$$$$

 OpenBabel03212520533D

 22 24  0  0  0  0  0  0  0  0999 V2000
   41.3510   72.6360   61.2010 C   0  0  0  0  0  0  0  0  0  0  0  0
   41.6260   72.2780   62.5360 C   0  0  0  0  0  0  0  0  0  0  0  0
   42.0920   71.0330   62.8030 C   0  0  0  0  0  0  0  0  0  0  0  0
   42.2860   70.1350   61.7310 C   0  0  0  0  0  0  0  0  0  0  0  0
   41.7740   71.1210   60.2550 S   0  0  0  0  0  0  0  0  0  0  0  0
   41.4710   72.9780   63.3450 H   0  0  0  0  0  0  0  0  0  0  0  0
   42.3500   70.6010   63.7530 H   0  0  0  0  0  0  0  0  0  0  0  0
   39.1940   75.5610   60.9230 C   0  0  0  0  0  0  0  0  0  0  0  0
   39.8750   76.3840   60.0050 C   0  0  0  0  0  0  0  0  0  0  0  0
   41.0890   75.9190   59.4820 C   0  0  0  0  0  0  0  0  0  0  0  0
   41.5320   74.6990   59.8960 N   0  0  0  0  0  0  0  0  0  0  0  0
   40.8440   73.9500   60.7750 C   0  0  0  0  0  0  0  0  0  0  0  0
   39.6910   74.3570   61.2920 N   0  0  0  0  0  0  0  0  0  0  0  0
   38.2650   75.9520   61.3040 H   0  0  0  0  0  0  0  0  0  0  0  0
   39.5010   77.3490   59.6940 H   0  0  0  0  0  0  0  0  0  0  0  0
   41.6780   76.4620   58.7860 H   0  0  0  0  0  0  0  0  0  0  0  0
   42.7360   68.7950   61.5650 C   0  0  0  0  0  3  0  0  0  0  0  0
   42.9900   68.1950   62.9330 C   0  0  0  0  0  2  0  0  0  0  0  0
   43.3400   66.7410   62.6990 C   0  0  0  0  0  2  0  0  0  0  0  0
   42.1080   65.9420   62.3080 C   0  0  0  0  0  2  0  0  0  0  0  0
   41.0960   66.8990   61.7690 C   0  0  0  0  0  2  0  0  0  0  0  0
   41.7430   67.9020   60.8510 C   0  0  0  0  0  2  0  0  0  0  0  0
  1  2  2  0  0  0  0
  2  3  1  0  0  0  0
  2  6  1  0  0  0  0
  3  7  1  0  0  0  0
  4  3  2  0  0  0  0
  5  1  1  0  0  0  0
  5  4  1  0  0  0  0
  8 13  1  0  0  0  0
  8 14  1  0  0  0  0
  9  8  2  0  0  0  0
 10 11  2  0  0  0  0
 10  9  1  0  0  0  0
 11 12  1  0  0  0  0
 12  1  1  0  0  0  0
 12 13  2  0  0  0  0
 15  9  1  0  0  0  0
 16 10  1  0  0  0  0
 17  4  1  0  0  0  0
 17 18  1  0  0  0  0
 19 18  1  0  0  0  0
 20 19  1  0  0  0  0
 21 20  1  0  0  0  0
 22 17  1  0  0  0  0
 22 21  1  0  0  0  0
M  END
>  <minimizedAffinity>
-5.06642866

$$$$

 OpenBabel03212520533D

 22 24  0  0  0  0  0  0  0  0999 V2000
   40.4860   73.1550   60.2430 C   0  0  0  0  0  0  0  0  0  0  0  0
   40.6040   73.1540   61.6460 C   0  0  0  0  0  0  0  0  0  0  0  0
   41.3340   72.1820   62.2470 C   0  0  0  0  0  0  0  0  0  0  0  0
   41.9520   71.2010   61.4420 C   0  0  0  0  0  0  0  0  0  0  0  0
   41.4650   71.6900   59.7290 S   0  0  0  0  0  0  0  0  0  0  0  0
   40.1230   73.9140   62.2470 H   0  0  0  0  0  0  0  0  0  0  0  0
   41.5240   72.0350   63.2950 H   0  0  0  0  0  0  0  0  0  0  0  0
   39.4390   76.3580   58.8560 C   0  0  0  0  0  0  0  0  0  0  0  0
   38.3420   76.0200   58.0400 C   0  0  0  0  0  0  0  0  0  0  0  0
   37.9660   74.6720   57.9720 C   0  0  0  0  0  0  0  0  0  0  0  0
   38.6870   73.7750   58.7020 N   0  0  0  0  0  0  0  0  0  0  0  0
   39.7280   74.1490   59.4670 C   0  0  0  0  0  0  0  0  0  0  0  0
   40.1130   75.4170   59.5560 N   0  0  0  0  0  0  0  0  0  0  0  0
   39.6990   77.4050   58.8820 H   0  0  0  0  0  0  0  0  0  0  0  0
   37.7870   76.7530   57.4710 H   0  0  0  0  0  0  0  0  0  0  0  0
   37.1560   74.3140   57.3880 H   0  0  0  0  0  0  0  0  0  0  0  0
   42.7690   70.0530   61.6450 C   0  0  0  0  0  3  0  0  0  0  0  0
   42.8310   69.7570   63.1300 C   0  0  0  0  0  2  0  0  0  0  0  0
   43.6030   68.4630   63.2710 C   0  0  0  0  0  2  0  0  0  0  0  0
   42.7640   67.2780   62.8220 C   0  0  0  0  0  2  0  0  0  0  0  0
   41.6970   67.7940   61.9120 C   0  0  0  0  0  2  0  0  0  0  0  0
   42.2580   68.8080   60.9510 C   0  0  0  0  0  2  0  0  0  0  0  0
  1  2  2  0  0  0  0
  2  6  1  0  0  0  0
  2  3  1  0  0  0  0
  3  7  1  0  0  0  0
  4 17  1  0  0  0  0
  4  3  2  0  0  0  0
  5  1  1  0  0  0  0
  5  4  1  0  0  0  0
  8 14  1  0  0  0  0
  8 13  1  0  0  0  0
  9  8  2  0  0  0  0
 10  9  1  0  0  0  0
 10 11  2  0  0  0  0
 11 12  1  0  0  0  0
 12 13  2  0  0  0  0
 12  1  1  0  0  0  0
 15  9  1  0  0  0  0
 16 10  1  0  0  0  0
 17 18  1  0  0  0  0
 18 19  1  0  0  0  0
 20 19  1  0  0  0  0
 21 20  1  0  0  0  0
 22 17  1  0  0  0  0
 22 21  1  0  0  0  0
M  END
>  <minimizedAffinity>
-4.88491106

$$$$

 OpenBabel03212520533D

 22 24  0  0  0  0  0  0  0  0999 V2000
   41.9380   70.8230   61.6970 C   0  0  0  0  0  0  0  0  0  0  0  0
   41.6230   71.8560   62.6010 C   0  0  0  0  0  0  0  0  0  0  0  0
   41.1660   73.0380   62.1190 C   0  0  0  0  0  0  0  0  0  0  0  0
   41.0210   73.1930   60.7240 C   0  0  0  0  0  0  0  0  0  0  0  0
   41.5680   71.5600   60.0570 S   0  0  0  0  0  0  0  0  0  0  0  0
   41.7410   71.7200   63.6670 H   0  0  0  0  0  0  0  0  0  0  0  0
   40.8820   73.9210   62.6630 H   0  0  0  0  0  0  0  0  0  0  0  0
   42.4090   67.2090   61.7530 C   0  0  0  0  0  0  0  0  0  0  0  0
   43.3530   67.0170   62.7810 C   0  0  0  0  0  0  0  0  0  0  0  0
   43.8260   68.1500   63.4560 C   0  0  0  0  0  0  0  0  0  0  0  0
   43.3420   69.3640   63.0740 N   0  0  0  0  0  0  0  0  0  0  0  0
   42.4400   69.4950   62.0850 C   0  0  0  0  0  0  0  0  0  0  0  0
   41.9690   68.4460   61.4220 N   0  0  0  0  0  0  0  0  0  0  0  0
   42.0680   66.3140   61.2560 H   0  0  0  0  0  0  0  0  0  0  0  0
   43.7200   66.0410   63.0640 H   0  0  0  0  0  0  0  0  0  0  0  0
   44.5360   68.1130   64.2440 H   0  0  0  0  0  0  0  0  0  0  0  0
   40.5960   74.2150   59.8290 C   0  0  0  0  0  3  0  0  0  0  0  0
   40.0170   75.3590   60.6380 C   0  0  0  0  0  2  0  0  0  0  0  0
   39.7020   76.4600   59.6490 C   0  0  0  0  0  2  0  0  0  0  0  0
   40.9760   77.1300   59.1580 C   0  0  0  0  0  2  0  0  0  0  0  0
   42.1050   76.1750   59.3750 C   0  0  0  0  0  2  0  0  0  0  0  0
   41.7100   74.7800   58.9730 C   0  0  0  0  0  2  0  0  0  0  0  0
  1 12  1  0  0  0  0
  1  2  2  0  0  0  0
  2  6  1  0  0  0  0
  3  2  1  0  0  0  0
  3  7  1  0  0  0  0
  4  3  2  0  0  0  0
  5  4  1  0  0  0  0
  5  1  1  0  0  0  0
  8  9  1  0  0  0  0
  9 15  1  0  0  0  0
  9 10  2  0  0  0  0
 10 16  1  0  0  0  0
 11 10  1  0  0  0  0
 12 11  2  0  0  0  0
 13  8  2  0  0  0  0
 13 12  1  0  0  0  0
 14  8  1  0  0  0  0
 17 18  1  0  0  0  0
 17  4  1  0  0  0  0
 19 18  1  0  0  0  0
 20 21  1  0  0  0  0
 20 19  1  0  0  0  0
 22 21  1  0  0  0  0
 22 17  1  0  0  0  0
M  END
>  <minimizedAffinity>
-4.87017107

$$$$

 OpenBabel03212520533D

 22 24  0  0  0  0  0  0  0  0999 V2000
   41.8860   70.6240   61.5050 C   0  0  0  0  0  0  0  0  0  0  0  0
   41.6820   70.8940   60.1380 C   0  0  0  0  0  0  0  0  0  0  0  0
   41.2710   72.1310   59.7630 C   0  0  0  0  0  0  0  0  0  0  0  0
   41.0630   73.1090   60.7590 C   0  0  0  0  0  0  0  0  0  0  0  0
   41.4730   72.2150   62.3220 S   0  0  0  0  0  0  0  0  0  0  0  0
   41.8460   70.1320   59.3880 H   0  0  0  0  0  0  0  0  0  0  0  0
   41.0700   72.5010   58.7730 H   0  0  0  0  0  0  0  0  0  0  0  0
   43.7190   68.1750   63.4870 C   0  0  0  0  0  0  0  0  0  0  0  0
   43.1770   66.9440   63.0700 C   0  0  0  0  0  0  0  0  0  0  0  0
   42.1700   66.9670   62.0960 C   0  0  0  0  0  0  0  0  0  0  0  0
   41.7810   68.1810   61.6140 N   0  0  0  0  0  0  0  0  0  0  0  0
   42.3300   69.3300   62.0450 C   0  0  0  0  0  0  0  0  0  0  0  0
   43.2860   69.3480   62.9670 N   0  0  0  0  0  0  0  0  0  0  0  0
   44.4910   68.1180   64.2370 H   0  0  0  0  0  0  0  0  0  0  0  0
   43.5040   65.9950   63.4680 H   0  0  0  0  0  0  0  0  0  0  0  0
   41.6970   66.0960   61.7150 H   0  0  0  0  0  0  0  0  0  0  0  0
   40.6510   74.4700   60.8090 C   0  0  0  0  0  3  0  0  0  0  0  0
   41.2880   75.2140   59.6520 C   0  0  0  0  0  2  0  0  0  0  0  0
   40.7170   76.6150   59.6840 C   0  0  0  0  0  2  0  0  0  0  0  0
   39.2710   76.6230   59.2130 C   0  0  0  0  0  2  0  0  0  0  0  0
   38.7290   75.2420   59.3830 C   0  0  0  0  0  2  0  0  0  0  0  0
   39.1520   74.6600   60.7050 C   0  0  0  0  0  2  0  0  0  0  0  0
  1 12  1  0  0  0  0
  1  5  1  0  0  0  0
  2  1  2  0  0  0  0
  3  2  1  0  0  0  0
  3  4  2  0  0  0  0
  4 17  1  0  0  0  0
  4  5  1  0  0  0  0
  6  2  1  0  0  0  0
  7  3  1  0  0  0  0
  8 14  1  0  0  0  0
  9 15  1  0  0  0  0
  9  8  1  0  0  0  0
 10  9  2  0  0  0  0
 11 12  2  0  0  0  0
 11 10  1  0  0  0  0
 12 13  1  0  0  0  0
 13  8  2  0  0  0  0
 16 10  1  0  0  0  0
 18 19  1  0  0  0  0
 18 17  1  0  0  0  0
 20 21  1  0  0  0  0
 20 19  1  0  0  0  0
 21 22  1  0  0  0  0
 22 17  1  0  0  0  0
M  END
>  <minimizedAffinity>
-4.71611404

$$$$

 OpenBabel03212520533D

 22 24  0  0  0  0  0  0  0  0999 V2000
   41.2120   72.8170   60.8990 C   0  0  0  0  0  0  0  0  0  0  0  0
   41.6400   71.8940   59.9250 C   0  0  0  0  0  0  0  0  0  0  0  0
   41.9540   70.6300   60.3070 C   0  0  0  0  0  0  0  0  0  0  0  0
   41.8400   70.2840   61.6700 C   0  0  0  0  0  0  0  0  0  0  0  0
   41.2520   71.8480   62.4570 S   0  0  0  0  0  0  0  0  0  0  0  0
   41.7230   72.1760   58.8850 H   0  0  0  0  0  0  0  0  0  0  0  0
   42.2940   69.8100   59.7000 H   0  0  0  0  0  0  0  0  0  0  0  0
   39.3870   75.9700   60.9940 C   0  0  0  0  0  0  0  0  0  0  0  0
   40.1240   76.8020   60.1280 C   0  0  0  0  0  0  0  0  0  0  0  0
   41.2600   76.2620   59.5100 C   0  0  0  0  0  0  0  0  0  0  0  0
   41.5770   74.9670   59.7860 N   0  0  0  0  0  0  0  0  0  0  0  0
   40.8400   74.2130   60.6210 C   0  0  0  0  0  0  0  0  0  0  0  0
   39.7580   74.6890   61.2260 N   0  0  0  0  0  0  0  0  0  0  0  0
   38.5200   76.4200   61.4510 H   0  0  0  0  0  0  0  0  0  0  0  0
   39.8490   77.8270   59.9260 H   0  0  0  0  0  0  0  0  0  0  0  0
   41.8810   76.8040   58.8410 H   0  0  0  0  0  0  0  0  0  0  0  0
   42.0570   69.1270   62.4710 C   0  0  0  0  0  3  0  0  0  0  0  0
   41.6930   67.8990   61.6600 C   0  0  0  0  0  2  0  0  0  0  0  0
   42.0620   66.7040   62.5120 C   0  0  0  0  0  2  0  0  0  0  0  0
   43.5710   66.5210   62.5670 C   0  0  0  0  0  2  0  0  0  0  0  0
   44.2010   67.8340   62.2330 C   0  0  0  0  0  2  0  0  0  0  0  0
   43.4900   68.9620   62.9310 C   0  0  0  0  0  2  0  0  0  0  0  0
  1  5  1  0  0  0  0
  2  3  1  0  0  0  0
  2  1  2  0  0  0  0
  3  4  2  0  0  0  0
  4  5  1  0  0  0  0
  4 17  1  0  0  0  0
  6  2  1  0  0  0  0
  7  3  1  0  0  0  0
  8 13  1  0  0  0  0
  8 14  1  0  0  0  0
  9  8  2  0  0  0  0
 10 11  2  0  0  0  0
 10  9  1  0  0  0  0
 11 12  1  0  0  0  0
 12  1  1  0  0  0  0
 12 13  2  0  0  0  0
 15  9  1  0  0  0  0
 16 10  1  0  0  0  0
 17 22  1  0  0  0  0
 18 17  1  0  0  0  0
 18 19  1  0  0  0  0
 19 20  1  0  0  0  0
 21 20  1  0  0  0  0
 21 22  1  0  0  0  0
M  END
>  <minimizedAffinity>
-4.71393442

$$$$

 OpenBabel03212520533D

 22 24  0  0  0  0  0  0  0  0999 V2000
   41.3570   72.8370   60.4210 C   0  0  0  0  0  0  0  0  0  0  0  0
   41.6090   72.0720   59.2670 C   0  0  0  0  0  0  0  0  0  0  0  0
   42.1080   70.8170   59.4020 C   0  0  0  0  0  0  0  0  0  0  0  0
   42.3580   70.3220   60.7000 C   0  0  0  0  0  0  0  0  0  0  0  0
   41.8540   71.7230   61.7930 S   0  0  0  0  0  0  0  0  0  0  0  0
   41.4130   72.4670   58.2800 H   0  0  0  0  0  0  0  0  0  0  0  0
   42.3560   70.1060   58.6350 H   0  0  0  0  0  0  0  0  0  0  0  0
   40.9100   76.3500   59.5610 C   0  0  0  0  0  0  0  0  0  0  0  0
   39.8380   76.7560   60.3790 C   0  0  0  0  0  0  0  0  0  0  0  0
   39.2690   75.8020   61.2330 C   0  0  0  0  0  0  0  0  0  0  0  0
   39.7910   74.5430   61.2160 N   0  0  0  0  0  0  0  0  0  0  0  0
   40.8170   74.2060   60.4150 C   0  0  0  0  0  0  0  0  0  0  0  0
   41.3810   75.0820   59.5930 N   0  0  0  0  0  0  0  0  0  0  0  0
   41.3220   77.1120   58.9170 H   0  0  0  0  0  0  0  0  0  0  0  0
   39.4440   77.7610   60.3730 H   0  0  0  0  0  0  0  0  0  0  0  0
   38.4590   76.0050   61.8890 H   0  0  0  0  0  0  0  0  0  0  0  0
   42.8560   69.1200   61.2760 C   0  0  0  0  0  3  0  0  0  0  0  0
   43.1690   69.3740   62.7370 C   0  0  0  0  0  2  0  0  0  0  0  0
   43.5710   68.0370   63.3220 C   0  0  0  0  0  2  0  0  0  0  0  0
   42.3620   67.1310   63.4870 C   0  0  0  0  0  2  0  0  0  0  0  0
   41.2990   67.6160   62.5560 C   0  0  0  0  0  2  0  0  0  0  0  0
   41.8810   67.9620   61.2120 C   0  0  0  0  0  2  0  0  0  0  0  0
  1  5  1  0  0  0  0
  2  3  1  0  0  0  0
  2  1  2  0  0  0  0
  3  4  2  0  0  0  0
  4 17  1  0  0  0  0
  4  5  1  0  0  0  0
  6  2  1  0  0  0  0
  7  3  1  0  0  0  0
  8 13  2  0  0  0  0
  8  9  1  0  0  0  0
  9 10  2  0  0  0  0
 10 16  1  0  0  0  0
 11 10  1  0  0  0  0
 12  1  1  0  0  0  0
 12 11  2  0  0  0  0
 13 12  1  0  0  0  0
 14  8  1  0  0  0  0
 15  9  1  0  0  0  0
 17 18  1  0  0  0  0
 18 19  1  0  0  0  0
 19 20  1  0  0  0  0
 21 20  1  0  0  0  0
 22 17  1  0  0  0  0
 22 21  1  0  0  0  0
M  END
>  <minimizedAffinity>
-4.63981247

$$$$

 OpenBabel03212520533D

 22 24  0  0  0  0  0  0  0  0999 V2000
   41.7950   70.7340   60.9010 C   0  0  0  0  0  0  0  0  0  0  0  0
   41.6410   70.8070   59.5030 C   0  0  0  0  0  0  0  0  0  0  0  0
   41.0750   71.9130   58.9580 C   0  0  0  0  0  0  0  0  0  0  0  0
   40.6580   72.9550   59.8140 C   0  0  0  0  0  0  0  0  0  0  0  0
   41.0970   72.3240   61.4940 S   0  0  0  0  0  0  0  0  0  0  0  0
   41.9660   69.9990   58.8620 H   0  0  0  0  0  0  0  0  0  0  0  0
   40.8840   72.1300   57.9220 H   0  0  0  0  0  0  0  0  0  0  0  0
   42.7740   67.3200   61.7190 C   0  0  0  0  0  0  0  0  0  0  0  0
   43.4900   67.4630   62.9230 C   0  0  0  0  0  0  0  0  0  0  0  0
   43.6340   68.7530   63.4510 C   0  0  0  0  0  0  0  0  0  0  0  0
   43.0690   69.7860   62.7640 N   0  0  0  0  0  0  0  0  0  0  0  0
   42.3930   69.5960   61.6180 C   0  0  0  0  0  0  0  0  0  0  0  0
   42.2370   68.3890   61.0870 N   0  0  0  0  0  0  0  0  0  0  0  0
   42.6840   66.3120   61.3440 H   0  0  0  0  0  0  0  0  0  0  0  0
   43.9280   66.6260   63.4470 H   0  0  0  0  0  0  0  0  0  0  0  0
   44.1550   68.9680   64.3500 H   0  0  0  0  0  0  0  0  0  0  0  0
   40.0450   74.2310   59.6760 C   0  0  0  0  0  3  0  0  0  0  0  0
   39.9510   74.8770   61.0440 C   0  0  0  0  0  2  0  0  0  0  0  0
   39.4120   76.2730   60.8170 C   0  0  0  0  0  2  0  0  0  0  0  0
   40.4710   77.1700   60.1970 C   0  0  0  0  0  2  0  0  0  0  0  0
   41.4800   76.2910   59.5330 C   0  0  0  0  0  2  0  0  0  0  0  0
   40.8060   75.1800   58.7740 C   0  0  0  0  0  2  0  0  0  0  0  0
  1  5  1  0  0  0  0
  1 12  1  0  0  0  0
  2  1  2  0  0  0  0
  3  2  1  0  0  0  0
  3  4  2  0  0  0  0
  4  5  1  0  0  0  0
  6  2  1  0  0  0  0
  7  3  1  0  0  0  0
  8  9  1  0  0  0  0
  9 15  1  0  0  0  0
  9 10  2  0  0  0  0
 10 16  1  0  0  0  0
 11 10  1  0  0  0  0
 12 11  2  0  0  0  0
 13 12  1  0  0  0  0
 13  8  2  0  0  0  0
 14  8  1  0  0  0  0
 17  4  1  0  0  0  0
 17 18  1  0  0  0  0
 19 18  1  0  0  0  0
 20 19  1  0  0  0  0
 21 20  1  0  0  0  0
 22 21  1  0  0  0  0
 22 17  1  0  0  0  0
M  END
>  <minimizedAffinity>
-4.61469078

$$$$

 OpenBabel03212520533D

 22 24  0  0  0  0  0  0  0  0999 V2000
   41.9680   69.7060   61.1140 C   0  0  0  0  0  0  0  0  0  0  0  0
   41.8690   70.1660   59.7860 C   0  0  0  0  0  0  0  0  0  0  0  0
   41.5550   71.4660   59.5590 C   0  0  0  0  0  0  0  0  0  0  0  0
   41.3360   72.3150   60.6650 C   0  0  0  0  0  0  0  0  0  0  0  0
   41.5920   71.1990   62.1140 S   0  0  0  0  0  0  0  0  0  0  0  0
   42.0390   69.5010   58.9510 H   0  0  0  0  0  0  0  0  0  0  0  0
   41.4400   71.9750   58.6190 H   0  0  0  0  0  0  0  0  0  0  0  0
   41.9410   66.5420   62.9220 C   0  0  0  0  0  0  0  0  0  0  0  0
   42.8960   65.7650   62.2390 C   0  0  0  0  0  0  0  0  0  0  0  0
   43.5520   66.3460   61.1450 C   0  0  0  0  0  0  0  0  0  0  0  0
   43.2220   67.6250   60.8130 N   0  0  0  0  0  0  0  0  0  0  0  0
   42.3010   68.3260   61.4980 C   0  0  0  0  0  0  0  0  0  0  0  0
   41.6590   67.8100   62.5400 N   0  0  0  0  0  0  0  0  0  0  0  0
   41.4570   66.0620   63.7570 H   0  0  0  0  0  0  0  0  0  0  0  0
   43.1390   64.7520   62.5230 H   0  0  0  0  0  0  0  0  0  0  0  0
   44.2870   65.8460   60.5640 H   0  0  0  0  0  0  0  0  0  0  0  0
   41.0000   73.6820   60.8750 C   0  0  0  0  0  3  0  0  0  0  0  0
   41.2610   74.4500   59.5950 C   0  0  0  0  0  2  0  0  0  0  0  0
   40.7680   75.8600   59.8390 C   0  0  0  0  0  2  0  0  0  0  0  0
   39.2490   75.9110   59.8470 C   0  0  0  0  0  2  0  0  0  0  0  0
   38.7490   74.5350   60.1470 C   0  0  0  0  0  2  0  0  0  0  0  0
   39.5500   73.9030   61.2530 C   0  0  0  0  0  2  0  0  0  0  0  0
  1 12  1  0  0  0  0
  1  5  1  0  0  0  0
  2  1  2  0  0  0  0
  3  2  1  0  0  0  0
  3  4  2  0  0  0  0
  4 17  1  0  0  0  0
  4  5  1  0  0  0  0
  6  2  1  0  0  0  0
  7  3  1  0  0  0  0
  8 14  1  0  0  0  0
  9 15  1  0  0  0  0
  9  8  2  0  0  0  0
 10  9  1  0  0  0  0
 11 10  2  0  0  0  0
 11 12  1  0  0  0  0
 12 13  2  0  0  0  0
 13  8  1  0  0  0  0
 16 10  1  0  0  0  0
 17 22  1  0  0  0  0
 18 19  1  0  0  0  0
 18 17  1  0  0  0  0
 19 20  1  0  0  0  0
 20 21  1  0  0  0  0
 21 22  1  0  0  0  0
M  END
>  <minimizedAffinity>
-4.51841116

$$$$
