
 OpenBabel03212520493D

 25 27  0  0  0  0  0  0  0  0999 V2000
   41.5790   83.9300   61.5500 C   0  0  0  0  0  0  0  0  0  0  0  0
   41.0270   84.4240   62.7220 C   0  0  0  0  0  0  0  0  0  0  0  0
   40.5620   83.5450   63.7170 C   0  0  0  0  0  0  0  0  0  0  0  0
   40.6500   82.2150   63.5380 N   0  0  0  0  0  0  0  0  0  0  0  0
   41.1850   81.7540   62.4030 C   0  0  0  0  0  0  0  0  0  0  0  0
   41.6430   82.5840   61.4200 N   0  0  0  0  0  0  0  0  0  0  0  0
   40.9670   85.4940   62.8450 H   0  0  0  0  0  0  0  0  0  0  0  0
   40.1450   84.0000   64.6020 H   0  0  0  0  0  0  0  0  0  0  0  0
   43.6080   86.3330   59.7030 C   0  0  0  0  0  0  0  0  0  0  0  0
   42.8870   86.4420   58.4960 C   0  0  0  0  0  0  0  0  0  0  0  0
   41.7200   85.6980   58.3200 C   0  0  0  0  0  0  0  0  0  0  0  0
   41.3630   84.9020   59.3660 N   0  0  0  0  0  0  0  0  0  0  0  0
   42.0670   84.8180   60.5050 C   0  0  0  0  0  0  0  0  0  0  0  0
   43.1750   85.5190   60.6830 N   0  0  0  0  0  0  0  0  0  0  0  0
   44.7620   87.1500   59.7190 N   0  0  0  0  0  0  0  0  0  0  0  0
   43.1640   87.0700   57.6620 H   0  0  0  0  0  0  0  0  0  0  0  0
   41.1540   85.7650   57.4070 H   0  0  0  0  0  0  0  0  0  0  0  0
   45.6690   87.0940   59.2050 H   0  0  0  0  0  0  0  0  0  0  0  0
   44.6450   87.9590   60.3920 H   0  0  0  0  0  0  0  0  0  0  0  0
   41.3090   80.3040   62.1470 C   0  0  0  0  0  3  0  0  0  0  0  0
   42.7050   79.9800   61.7110 C   0  0  0  0  0  2  0  0  0  0  0  0
   42.8760   78.6170   61.1300 C   0  0  0  0  0  2  0  0  0  0  0  0
   41.7250   78.1250   60.3180 C   0  0  0  0  0  2  0  0  0  0  0  0
   40.4090   78.3590   61.0240 C   0  0  0  0  0  2  0  0  0  0  0  0
   40.2730   79.8820   61.1320 C   0  0  0  0  0  2  0  0  0  0  0  0
  1  2  1  0  0  0  0
  2  7  1  0  0  0  0
  2  3  2  0  0  0  0
  3  8  1  0  0  0  0
  4  3  1  0  0  0  0
  5  4  2  0  0  0  0
  6  1  2  0  0  0  0
  6  5  1  0  0  0  0
  9 15  1  0  0  0  0
  9 14  1  0  0  0  0
 10  9  2  0  0  0  0
 11 10  1  0  0  0  0
 11 12  2  0  0  0  0
 12 13  1  0  0  0  0
 13 14  2  0  0  0  0
 13  1  1  0  0  0  0
 15 19  1  0  0  0  0
 16 10  1  0  0  0  0
 17 11  1  0  0  0  0
 18 15  1  0  0  0  0
 20  5  1  0  0  0  0
 21 20  1  0  0  0  0
 22 21  1  0  0  0  0
 23 24  1  0  0  0  0
 23 22  1  0  0  0  0
 24 25  1  0  0  0  0
 25 20  1  0  0  0  0
M  END
>  <minimizedAffinity>
-5.3357935

>  <minimizedRMSD>
0.675261855

$$$$
