
 OpenBabel03212520273D

 25 27  0  0  0  0  0  0  0  0999 V2000
   42.4600   84.8630   61.2200 C   0  0  0  0  0  0  0  0  0  0  0  0
   43.4040   85.2620   62.1740 C   0  0  0  0  0  0  0  0  0  0  0  0
   44.1250   86.2260   61.4480 C   0  0  0  0  0  0  0  0  0  0  0  0
   43.6270   86.3590   60.1870 N   0  0  0  0  0  0  0  0  0  0  0  0
   42.6090   85.5140   60.0740 N   0  0  0  0  0  0  0  0  0  0  0  0
   43.5780   84.9580   63.1830 H   0  0  0  0  0  0  0  0  0  0  0  0
   44.9740   86.8070   61.8140 H   0  0  0  0  0  0  0  0  0  0  0  0
   40.8000   81.5650   61.7890 C   0  0  0  0  0  0  0  0  0  0  0  0
   41.8100   82.5020   61.5450 C   0  0  0  0  0  0  0  0  0  0  0  0
   41.4470   83.8560   61.4710 C   0  0  0  0  0  0  0  0  0  0  0  0
   40.1500   84.2040   61.6360 N   0  0  0  0  0  0  0  0  0  0  0  0
   39.2010   83.2590   61.8720 C   0  0  0  0  0  0  0  0  0  0  0  0
   39.5250   81.9620   61.9460 N   0  0  0  0  0  0  0  0  0  0  0  0
   41.2040   80.5620   61.8230 H   0  0  0  0  0  0  0  0  0  0  0  0
   42.8600   82.2720   61.4060 H   0  0  0  0  0  0  0  0  0  0  0  0
   38.1670   83.5380   62.0030 H   0  0  0  0  0  0  0  0  0  0  0  0
   44.1290   87.2550   59.1780 C   0  0  0  0  0  0  0  0  0  0  0  0
   44.5410   88.1630   59.6140 H   0  0  0  0  0  0  0  0  0  0  0  0
   43.2540   87.5120   58.5190 H   0  0  0  0  0  0  0  0  0  0  0  0
   45.1150   86.4910   58.3300 C   0  0  0  0  0  3  0  0  0  0  0  0
   44.4480   85.4320   57.4850 C   0  0  0  0  0  2  0  0  0  0  0  0
   45.4740   85.0620   56.4210 C   0  0  0  0  0  2  0  0  0  0  0  0
   46.7290   84.5200   57.0490 C   0  0  0  0  0  2  0  0  0  0  0  0
   47.2430   85.3140   58.2020 C   0  0  0  0  0  2  0  0  0  0  0  0
   46.1570   85.7900   59.1530 C   0  0  0  0  0  2  0  0  0  0  0  0
  1 10  1  0  0  0  0
  1  2  1  0  0  0  0
  2  6  1  0  0  0  0
  3  7  1  0  0  0  0
  3  2  2  0  0  0  0
  4  3  1  0  0  0  0
  5  4  1  0  0  0  0
  5  1  2  0  0  0  0
  8 14  1  0  0  0  0
  8 13  1  0  0  0  0
  9  8  2  0  0  0  0
 10  9  1  0  0  0  0
 10 11  2  0  0  0  0
 11 12  1  0  0  0  0
 12 13  2  0  0  0  0
 12 16  1  0  0  0  0
 15  9  1  0  0  0  0
 17 18  1  0  0  0  0
 17  4  1  0  0  0  0
 19 17  1  0  0  0  0
 20 25  1  0  0  0  0
 20 17  1  0  0  0  0
 21 20  1  0  0  0  0
 22 23  1  0  0  0  0
 22 21  1  0  0  0  0
 23 24  1  0  0  0  0
 24 25  1  0  0  0  0
M  END
>  <minimizedAffinity>
-4.12848091

>  <minimizedRMSD>
0.422484577

$$$$
