
 OpenBabel03212521073D

 33 36  0  0  0  0  0  0  0  0999 V2000
   41.8090   84.2500   61.5780 C   0  0  0  0  0  0  0  0  0  0  0  0
   41.4450   83.9340   62.8840 C   0  0  0  0  0  0  0  0  0  0  0  0
   40.1640   83.5190   63.1990 C   0  0  0  0  0  0  0  0  0  0  0  0
   39.2170   83.4120   62.1950 C   0  0  0  0  0  0  0  0  0  0  0  0
   39.5700   83.7240   60.8890 C   0  0  0  0  0  0  0  0  0  0  0  0
   40.8530   84.1410   60.5720 C   0  0  0  0  0  0  0  0  0  0  0  0
   42.1600   84.0050   63.7100 H   0  0  0  0  0  0  0  0  0  0  0  0
   39.8480   83.2660   64.2000 H   0  0  0  0  0  0  0  0  0  0  0  0
   38.1850   83.0930   62.3460 H   0  0  0  0  0  0  0  0  0  0  0  0
   38.8330   83.6440   60.0920 H   0  0  0  0  0  0  0  0  0  0  0  0
   45.3510   84.1260   60.6920 C   0  0  0  0  0  0  0  0  0  0  0  0
   45.7380   85.4530   60.7520 C   0  0  0  0  0  0  0  0  0  0  0  0
   44.7650   86.4040   61.1030 C   0  0  0  0  0  0  0  0  0  0  0  0
   43.5030   85.9840   61.3650 N   0  0  0  0  0  0  0  0  0  0  0  0
   43.1560   84.6790   61.2970 C   0  0  0  0  0  0  0  0  0  0  0  0
   44.0830   83.7780   60.9630 N   0  0  0  0  0  0  0  0  0  0  0  0
   46.0060   83.2860   60.4320 H   0  0  0  0  0  0  0  0  0  0  0  0
   46.7740   85.6580   60.5200 H   0  0  0  0  0  0  0  0  0  0  0  0
   45.0890   87.4240   61.1430 H   0  0  0  0  0  0  0  0  0  0  0  0
   41.1750   84.4550   59.2000 C   0  0  0  0  0  0  0  0  0  0  0  0
   40.6440   85.6950   58.8200 C   0  0  0  0  0  0  0  0  0  0  0  0
   40.8460   86.1790   57.5260 C   0  0  0  0  0  0  0  0  0  0  0  0
   41.5560   85.4130   56.6830 N   0  0  0  0  0  0  0  0  0  0  0  0
   42.0650   84.2150   57.0620 C   0  0  0  0  0  0  0  0  0  0  0  0
   41.8720   83.7500   58.3030 N   0  0  0  0  0  0  0  0  0  0  0  0
   40.0640   86.3590   59.4440 H   0  0  0  0  0  0  0  0  0  0  0  0
   40.4450   87.1420   57.1990 H   0  0  0  0  0  0  0  0  0  0  0  0
   42.8460   83.4050   56.0890 C   0  0  0  0  0  3  0  0  0  0  0  0
   42.7110   83.9620   54.6800 C   0  0  0  0  0  2  0  0  0  0  0  0
   43.2720   82.8990   53.7550 C   0  0  0  0  0  2  0  0  0  0  0  0
   44.7670   82.8250   54.0590 C   0  0  0  0  0  2  0  0  0  0  0  0
   45.0030   82.4380   55.4860 C   0  0  0  0  0  2  0  0  0  0  0  0
   44.2980   83.3070   56.4810 C   0  0  0  0  0  2  0  0  0  0  0  0
  1  2  1  0  0  0  0
  2  3  2  0  0  0  0
  2  7  1  0  0  0  0
  3  8  1  0  0  0  0
  4  9  1  0  0  0  0
  4  3  1  0  0  0  0
  5  4  2  0  0  0  0
  6  5  1  0  0  0  0
  6  1  2  0  0  0  0
 10  5  1  0  0  0  0
 11 12  2  0  0  0  0
 11 16  1  0  0  0  0
 12 13  1  0  0  0  0
 13 19  1  0  0  0  0
 13 14  2  0  0  0  0
 15 14  1  0  0  0  0
 15  1  1  0  0  0  0
 16 15  2  0  0  0  0
 17 11  1  0  0  0  0
 18 12  1  0  0  0  0
 20  6  1  0  0  0  0
 21 20  1  0  0  0  0
 21 26  1  0  0  0  0
 22 21  2  0  0  0  0
 23 24  2  0  0  0  0
 23 22  1  0  0  0  0
 24 25  1  0  0  0  0
 25 20  2  0  0  0  0
 27 22  1  0  0  0  0
 28 33  1  0  0  0  0
 28 24  1  0  0  0  0
 29 28  1  0  0  0  0
 30 31  1  0  0  0  0
 30 29  1  0  0  0  0
 31 32  1  0  0  0  0
 32 33  1  0  0  0  0
M  END
>  <minimizedAffinity>
-5.43747568

>  <minimizedRMSD>
0.403145373

$$$$
