
 OpenBabel03212520443D

 15 16  0  0  0  0  0  0  0  0999 V2000
   39.8920   81.8850   61.1130 C   0  0  0  0  0  0  0  0  0  0  0  0
   40.1350   82.5740   59.9000 C   0  0  0  0  0  0  0  0  0  0  0  0
   39.6830   83.9040   59.7940 C   0  0  0  0  0  0  0  0  0  0  0  0
   39.0420   84.4450   60.8610 N   0  0  0  0  0  0  0  0  0  0  0  0
   38.8210   83.7610   62.0140 C   0  0  0  0  0  0  0  0  0  0  0  0
   39.2470   82.4890   62.1290 N   0  0  0  0  0  0  0  0  0  0  0  0
   40.6480   82.1310   59.0590 H   0  0  0  0  0  0  0  0  0  0  0  0
   39.8500   84.4580   58.8890 H   0  0  0  0  0  0  0  0  0  0  0  0
   38.3000   84.2600   62.8270 H   0  0  0  0  0  0  0  0  0  0  0  0
   40.3820   80.4800   61.1910 C   0  0  0  0  0  3  0  0  0  0  0  0
   41.6880   80.4910   61.9140 C   0  0  0  0  0  2  0  0  0  0  0  0
   42.4540   79.2150   61.8800 C   0  0  0  0  0  2  0  0  0  0  0  0
   42.2210   78.3540   60.6910 C   0  0  0  0  0  2  0  0  0  0  0  0
   41.6730   79.1250   59.5190 C   0  0  0  0  0  2  0  0  0  0  0  0
   40.4120   79.8780   59.8340 C   0  0  0  0  0  2  0  0  0  0  0  0
  1 10  1  0  0  0  0
  1  6  1  0  0  0  0
  2  1  2  0  0  0  0
  3  2  1  0  0  0  0
  3  4  2  0  0  0  0
  4  5  1  0  0  0  0
  5  6  2  0  0  0  0
  5  9  1  0  0  0  0
  7  2  1  0  0  0  0
  8  3  1  0  0  0  0
 10 11  1  0  0  0  0
 12 11  1  0  0  0  0
 13 12  1  0  0  0  0
 14 15  1  0  0  0  0
 14 13  1  0  0  0  0
 15 10  1  0  0  0  0
M  END
>  <minimizedAffinity>
-4.32382298

>  <minimizedRMSD>
0.85820359

$$$$
