
 OpenBabel03212520273D

 25 27  0  0  0  0  0  0  0  0999 V2000
   42.4220   84.8550   61.0110 C   0  0  0  0  0  0  0  0  0  0  0  0
   43.4780   85.2050   61.8610 C   0  0  0  0  0  0  0  0  0  0  0  0
   44.1320   86.1780   61.0850 C   0  0  0  0  0  0  0  0  0  0  0  0
   43.4960   86.3610   59.8950 N   0  0  0  0  0  0  0  0  0  0  0  0
   42.4530   85.5380   59.8760 N   0  0  0  0  0  0  0  0  0  0  0  0
   43.7600   84.8650   62.8340 H   0  0  0  0  0  0  0  0  0  0  0  0
   45.0300   86.7310   61.3680 H   0  0  0  0  0  0  0  0  0  0  0  0
   40.7930   81.5840   61.7910 C   0  0  0  0  0  0  0  0  0  0  0  0
   41.7900   82.5090   61.4650 C   0  0  0  0  0  0  0  0  0  0  0  0
   41.4220   83.8590   61.3480 C   0  0  0  0  0  0  0  0  0  0  0  0
   40.1330   84.2140   61.5530 N   0  0  0  0  0  0  0  0  0  0  0  0
   39.1960   83.2800   61.8690 C   0  0  0  0  0  0  0  0  0  0  0  0
   39.5250   81.9870   61.9850 N   0  0  0  0  0  0  0  0  0  0  0  0
   41.2000   80.5830   61.8510 H   0  0  0  0  0  0  0  0  0  0  0  0
   42.8340   82.2740   61.2910 H   0  0  0  0  0  0  0  0  0  0  0  0
   38.1680   83.5640   62.0320 H   0  0  0  0  0  0  0  0  0  0  0  0
   43.8980   87.2790   58.8620 C   0  0  0  0  0  0  0  0  0  0  0  0
   44.3280   88.1880   59.2770 H   0  0  0  0  0  0  0  0  0  0  0  0
   42.9670   87.5280   58.2800 H   0  0  0  0  0  0  0  0  0  0  0  0
   44.8250   86.5440   57.9260 C   0  0  0  0  0  3  0  0  0  0  0  0
   44.2610   85.2150   57.4830 C   0  0  0  0  0  2  0  0  0  0  0  0
   45.0830   84.8150   56.2650 C   0  0  0  0  0  2  0  0  0  0  0  0
   46.5380   84.6760   56.6180 C   0  0  0  0  0  2  0  0  0  0  0  0
   47.0900   85.7920   57.4400 C   0  0  0  0  0  2  0  0  0  0  0  0
   46.1610   86.2560   58.5500 C   0  0  0  0  0  2  0  0  0  0  0  0
  1 10  1  0  0  0  0
  1  2  1  0  0  0  0
  2  6  1  0  0  0  0
  3  7  1  0  0  0  0
  3  2  2  0  0  0  0
  4  3  1  0  0  0  0
  5  4  1  0  0  0  0
  5  1  2  0  0  0  0
  8 14  1  0  0  0  0
  8 13  1  0  0  0  0
  9  8  2  0  0  0  0
 10  9  1  0  0  0  0
 10 11  2  0  0  0  0
 11 12  1  0  0  0  0
 12 13  2  0  0  0  0
 12 16  1  0  0  0  0
 15  9  1  0  0  0  0
 17 18  1  0  0  0  0
 17  4  1  0  0  0  0
 19 17  1  0  0  0  0
 20 25  1  0  0  0  0
 20 17  1  0  0  0  0
 21 20  1  0  0  0  0
 22 23  1  0  0  0  0
 22 21  1  0  0  0  0
 23 24  1  0  0  0  0
 24 25  1  0  0  0  0
M  END
>  <minimizedAffinity>
-4.14331675

>  <minimizedRMSD>
0.440502763

$$$$
