
 OpenBabel03212520053D

 38 42  0  0  0  0  0  0  0  0999 V2000
   40.6980   81.8990   57.0560 C   0  0  0  0  0  0  0  0  0  0  0  0
   41.8540   82.3710   56.4170 C   0  0  0  0  0  0  0  0  0  0  0  0
   42.7030   83.1690   57.1390 C   0  0  0  0  0  0  0  0  0  0  0  0
   42.4110   83.4770   58.4350 N   0  0  0  0  0  0  0  0  0  0  0  0
   41.2850   83.0050   59.0310 C   0  0  0  0  0  0  0  0  0  0  0  0
   40.4180   82.2100   58.3380 N   0  0  0  0  0  0  0  0  0  0  0  0
   39.9410   81.2680   56.6160 H   0  0  0  0  0  0  0  0  0  0  0  0
   41.8850   81.9690   55.4330 H   0  0  0  0  0  0  0  0  0  0  0  0
   39.7000   83.1120   60.8900 C   0  0  0  0  0  0  0  0  0  0  0  0
   41.0010   83.3060   60.4250 C   0  0  0  0  0  0  0  0  0  0  0  0
   42.0110   83.7550   61.2780 C   0  0  0  0  0  0  0  0  0  0  0  0
   41.7500   84.0230   62.6140 C   0  0  0  0  0  0  0  0  0  0  0  0
   42.4430   84.4500   63.6820 N   0  0  0  0  0  0  0  0  0  0  0  0
   41.6560   84.5300   64.7630 C   0  0  0  0  0  0  0  0  0  0  0  0
   40.4480   84.1350   64.3280 N   0  0  0  0  0  0  0  0  0  0  0  0
   40.4670   83.8190   63.0200 C   0  0  0  0  0  0  0  0  0  0  0  0
   39.4200   83.3760   62.2350 C   0  0  0  0  0  0  0  0  0  0  0  0
   38.8920   82.7640   60.2580 H   0  0  0  0  0  0  0  0  0  0  0  0
   43.0210   83.9060   60.9130 H   0  0  0  0  0  0  0  0  0  0  0  0
   43.4770   84.6730   63.5960 H   0  0  0  0  0  0  0  0  0  0  0  0
   41.9860   84.8480   65.7410 H   0  0  0  0  0  0  0  0  0  0  0  0
   38.4420   83.2480   62.6500 H   0  0  0  0  0  0  0  0  0  0  0  0
   42.6550   83.4540   54.1710 Cl  0  0  0  0  0  0  0  0  0  0  0  0
   44.0320   83.8960   55.1900 C   0  0  0  0  0  0  0  0  0  0  0  0
   43.9050   83.7060   56.5440 C   0  0  0  0  0  0  0  0  0  0  0  0
   45.0260   84.0850   57.2710 C   0  0  0  0  0  0  0  0  0  0  0  0
   46.1720   84.6050   56.7070 C   0  0  0  0  0  0  0  0  0  0  0  0
   46.2310   84.7700   55.3280 C   0  0  0  0  0  0  0  0  0  0  0  0
   47.6810   85.4200   54.6140 Cl  0  0  0  0  0  0  0  0  0  0  0  0
   45.1570   84.4140   54.5800 C   0  0  0  0  0  0  0  0  0  0  0  0
   45.0170   83.9710   58.3460 H   0  0  0  0  0  0  0  0  0  0  0  0
   47.0090   84.8790   57.3340 H   0  0  0  0  0  0  0  0  0  0  0  0
   45.1270   84.5500   53.1060 C   0  0  0  0  0  3  0  0  0  0  0  0
   44.1930   85.6260   52.6030 C   0  0  0  0  0  2  0  0  0  0  0  0
   44.3310   85.6780   51.1060 C   0  0  0  0  0  2  0  0  0  0  0  0
   45.4870   84.9190   50.5440 C   0  0  0  0  0  2  0  0  0  0  0  0
   45.5180   83.4720   50.9800 C   0  0  0  0  0  2  0  0  0  0  0  0
   44.8530   83.3000   52.3430 C   0  0  0  0  0  2  0  0  0  0  0  0
  1  6  1  0  0  0  0
  2  1  2  0  0  0  0
  2  3  1  0  0  0  0
  3  4  2  0  0  0  0
  4  5  1  0  0  0  0
  5 10  1  0  0  0  0
  6  5  2  0  0  0  0
  7  1  1  0  0  0  0
  8  2  1  0  0  0  0
  9 17  1  0  0  0  0
 10  9  2  0  0  0  0
 10 11  1  0  0  0  0
 11 12  2  0  0  0  0
 12 16  1  0  0  0  0
 12 13  1  0  0  0  0
 13 14  1  0  0  0  0
 14 21  1  0  0  0  0
 15 14  2  0  0  0  0
 16 15  1  0  0  0  0
 17 22  1  0  0  0  0
 17 16  2  0  0  0  0
 18  9  1  0  0  0  0
 19 11  1  0  0  0  0
 20 13  1  0  0  0  0
 23 24  1  0  0  0  0
 24 25  1  0  0  0  0
 25  3  1  0  0  0  0
 25 26  2  0  0  0  0
 26 31  1  0  0  0  0
 27 26  1  0  0  0  0
 27 32  1  0  0  0  0
 28 27  2  0  0  0  0
 29 28  1  0  0  0  0
 30 24  2  0  0  0  0
 30 28  1  0  0  0  0
 33 30  1  0  0  0  0
 34 33  1  0  0  0  0
 35 34  1  0  0  0  0
 36 37  1  0  0  0  0
 36 35  1  0  0  0  0
 37 38  1  0  0  0  0
 38 33  1  0  0  0  0
M  END
>  <minimizedAffinity>
-4.88445663

>  <minimizedRMSD>
0.411584914

$$$$
