
 OpenBabel03212520493D

 25 27  0  0  0  0  0  0  0  0999 V2000
   41.7420   83.8920   61.3270 C   0  0  0  0  0  0  0  0  0  0  0  0
   41.1670   84.2540   62.5370 C   0  0  0  0  0  0  0  0  0  0  0  0
   40.7090   83.2690   63.4310 C   0  0  0  0  0  0  0  0  0  0  0  0
   40.8250   81.9660   63.1180 N   0  0  0  0  0  0  0  0  0  0  0  0
   41.3810   81.6340   61.9490 C   0  0  0  0  0  0  0  0  0  0  0  0
   41.8340   82.5680   61.0620 N   0  0  0  0  0  0  0  0  0  0  0  0
   41.0850   85.3050   62.7670 H   0  0  0  0  0  0  0  0  0  0  0  0
   40.2740   83.6240   64.3520 H   0  0  0  0  0  0  0  0  0  0  0  0
   43.6960   86.5630   59.7940 C   0  0  0  0  0  0  0  0  0  0  0  0
   43.0370   86.7210   58.5580 C   0  0  0  0  0  0  0  0  0  0  0  0
   41.9370   85.9190   58.2560 C   0  0  0  0  0  0  0  0  0  0  0  0
   41.5790   85.0190   59.2150 N   0  0  0  0  0  0  0  0  0  0  0  0
   42.2230   84.8910   60.3840 C   0  0  0  0  0  0  0  0  0  0  0  0
   43.2670   85.6460   60.6820 N   0  0  0  0  0  0  0  0  0  0  0  0
   44.7870   87.4500   59.9430 N   0  0  0  0  0  0  0  0  0  0  0  0
   43.3150   87.4300   57.7930 H   0  0  0  0  0  0  0  0  0  0  0  0
   41.4190   86.0210   57.3180 H   0  0  0  0  0  0  0  0  0  0  0  0
   45.7230   87.4960   59.4820 H   0  0  0  0  0  0  0  0  0  0  0  0
   44.5770   88.1930   60.6670 H   0  0  0  0  0  0  0  0  0  0  0  0
   41.5360   80.2190   61.5480 C   0  0  0  0  0  3  0  0  0  0  0  0
   41.7660   80.1300   60.0710 C   0  0  0  0  0  2  0  0  0  0  0  0
   41.6300   78.7580   59.5010 C   0  0  0  0  0  2  0  0  0  0  0  0
   40.5710   77.9130   60.1280 C   0  0  0  0  0  2  0  0  0  0  0  0
   40.6350   77.9760   61.6370 C   0  0  0  0  0  2  0  0  0  0  0  0
   40.3260   79.4340   61.9950 C   0  0  0  0  0  2  0  0  0  0  0  0
  1  2  1  0  0  0  0
  2  7  1  0  0  0  0
  2  3  2  0  0  0  0
  3  8  1  0  0  0  0
  4  3  1  0  0  0  0
  5  4  2  0  0  0  0
  6  1  2  0  0  0  0
  6  5  1  0  0  0  0
  9 15  1  0  0  0  0
  9 14  1  0  0  0  0
 10  9  2  0  0  0  0
 11 10  1  0  0  0  0
 11 12  2  0  0  0  0
 12 13  1  0  0  0  0
 13 14  2  0  0  0  0
 13  1  1  0  0  0  0
 15 19  1  0  0  0  0
 16 10  1  0  0  0  0
 17 11  1  0  0  0  0
 18 15  1  0  0  0  0
 20  5  1  0  0  0  0
 20 25  1  0  0  0  0
 21 20  1  0  0  0  0
 22 21  1  0  0  0  0
 22 23  1  0  0  0  0
 23 24  1  0  0  0  0
 24 25  1  0  0  0  0
M  END
>  <minimizedAffinity>
-5.07924366

>  <minimizedRMSD>
0.454779625

$$$$
