
 OpenBabel03212520493D

 25 27  0  0  0  0  0  0  0  0999 V2000
   41.5800   83.9300   61.5350 C   0  0  0  0  0  0  0  0  0  0  0  0
   41.0640   84.4160   62.7270 C   0  0  0  0  0  0  0  0  0  0  0  0
   40.5930   83.5310   63.7150 C   0  0  0  0  0  0  0  0  0  0  0  0
   40.6420   82.2030   63.5090 N   0  0  0  0  0  0  0  0  0  0  0  0
   41.1420   81.7490   62.3550 C   0  0  0  0  0  0  0  0  0  0  0  0
   41.6040   82.5850   61.3790 N   0  0  0  0  0  0  0  0  0  0  0  0
   41.0350   85.4850   62.8700 H   0  0  0  0  0  0  0  0  0  0  0  0
   40.2060   83.9800   64.6150 H   0  0  0  0  0  0  0  0  0  0  0  0
   43.6190   86.3380   59.7070 C   0  0  0  0  0  0  0  0  0  0  0  0
   42.8990   86.4590   58.5010 C   0  0  0  0  0  0  0  0  0  0  0  0
   41.7290   85.7220   58.3190 C   0  0  0  0  0  0  0  0  0  0  0  0
   41.3680   84.9190   59.3590 N   0  0  0  0  0  0  0  0  0  0  0  0
   42.0710   84.8230   60.4970 C   0  0  0  0  0  0  0  0  0  0  0  0
   43.1820   85.5180   60.6810 N   0  0  0  0  0  0  0  0  0  0  0  0
   44.7760   87.1500   59.7300 N   0  0  0  0  0  0  0  0  0  0  0  0
   43.1780   87.0920   57.6720 H   0  0  0  0  0  0  0  0  0  0  0  0
   41.1630   85.7980   57.4070 H   0  0  0  0  0  0  0  0  0  0  0  0
   45.6830   87.0950   59.2160 H   0  0  0  0  0  0  0  0  0  0  0  0
   44.6630   87.9540   60.4090 H   0  0  0  0  0  0  0  0  0  0  0  0
   41.2210   80.3010   62.0700 C   0  0  0  0  0  3  0  0  0  0  0  0
   42.6440   79.9080   61.8190 C   0  0  0  0  0  2  0  0  0  0  0  0
   42.8210   78.5530   61.2220 C   0  0  0  0  0  2  0  0  0  0  0  0
   41.7680   78.1480   60.2440 C   0  0  0  0  0  2  0  0  0  0  0  0
   40.3810   78.4410   60.7720 C   0  0  0  0  0  2  0  0  0  0  0  0
   40.3150   79.9670   60.9110 C   0  0  0  0  0  2  0  0  0  0  0  0
  1  2  1  0  0  0  0
  2  7  1  0  0  0  0
  2  3  2  0  0  0  0
  3  8  1  0  0  0  0
  4  3  1  0  0  0  0
  5  4  2  0  0  0  0
  6  1  2  0  0  0  0
  6  5  1  0  0  0  0
  9 15  1  0  0  0  0
  9 14  1  0  0  0  0
 10  9  2  0  0  0  0
 11 10  1  0  0  0  0
 11 12  2  0  0  0  0
 12 13  1  0  0  0  0
 13 14  2  0  0  0  0
 13  1  1  0  0  0  0
 15 19  1  0  0  0  0
 16 10  1  0  0  0  0
 17 11  1  0  0  0  0
 18 15  1  0  0  0  0
 20  5  1  0  0  0  0
 21 20  1  0  0  0  0
 22 21  1  0  0  0  0
 23 24  1  0  0  0  0
 23 22  1  0  0  0  0
 24 25  1  0  0  0  0
 25 20  1  0  0  0  0
M  END
>  <minimizedAffinity>
-5.34919596

>  <minimizedRMSD>
0.0487466976

$$$$
