
 OpenBabel03212520053D

 38 42  0  0  0  0  0  0  0  0999 V2000
   40.7370   81.7570   57.1910 C   0  0  0  0  0  0  0  0  0  0  0  0
   41.9000   82.2080   56.5490 C   0  0  0  0  0  0  0  0  0  0  0  0
   42.7460   83.0220   57.2570 C   0  0  0  0  0  0  0  0  0  0  0  0
   42.4450   83.3650   58.5410 N   0  0  0  0  0  0  0  0  0  0  0  0
   41.3130   82.9120   59.1410 C   0  0  0  0  0  0  0  0  0  0  0  0
   40.4480   82.1030   58.4630 N   0  0  0  0  0  0  0  0  0  0  0  0
   39.9810   81.1170   56.7620 H   0  0  0  0  0  0  0  0  0  0  0  0
   41.9370   81.7800   55.5760 H   0  0  0  0  0  0  0  0  0  0  0  0
   39.7110   83.0870   60.9800 C   0  0  0  0  0  0  0  0  0  0  0  0
   41.0200   83.2510   60.5250 C   0  0  0  0  0  0  0  0  0  0  0  0
   42.0270   83.7060   61.3770 C   0  0  0  0  0  0  0  0  0  0  0  0
   41.7560   84.0090   62.7030 C   0  0  0  0  0  0  0  0  0  0  0  0
   42.4450   84.4520   63.7680 N   0  0  0  0  0  0  0  0  0  0  0  0
   41.6480   84.5690   64.8390 C   0  0  0  0  0  0  0  0  0  0  0  0
   40.4400   84.1820   64.4000 N   0  0  0  0  0  0  0  0  0  0  0  0
   40.4670   83.8330   63.1000 C   0  0  0  0  0  0  0  0  0  0  0  0
   39.4210   83.3880   62.3150 C   0  0  0  0  0  0  0  0  0  0  0  0
   38.9040   82.7360   60.3480 H   0  0  0  0  0  0  0  0  0  0  0  0
   43.0430   83.8330   61.0190 H   0  0  0  0  0  0  0  0  0  0  0  0
   43.4830   84.6580   63.6870 H   0  0  0  0  0  0  0  0  0  0  0  0
   41.9740   84.9060   65.8120 H   0  0  0  0  0  0  0  0  0  0  0  0
   38.4380   83.2830   62.7230 H   0  0  0  0  0  0  0  0  0  0  0  0
   42.4920   83.9380   54.4300 Cl  0  0  0  0  0  0  0  0  0  0  0  0
   43.9940   83.9980   55.3640 C   0  0  0  0  0  0  0  0  0  0  0  0
   43.9540   83.5390   56.6570 C   0  0  0  0  0  0  0  0  0  0  0  0
   45.1720   83.6270   57.3210 C   0  0  0  0  0  0  0  0  0  0  0  0
   46.3250   84.1270   56.7540 C   0  0  0  0  0  0  0  0  0  0  0  0
   46.2910   84.5760   55.4390 C   0  0  0  0  0  0  0  0  0  0  0  0
   47.7500   85.2020   54.7190 Cl  0  0  0  0  0  0  0  0  0  0  0  0
   45.1230   84.5080   54.7530 C   0  0  0  0  0  0  0  0  0  0  0  0
   45.2360   83.2880   58.3450 H   0  0  0  0  0  0  0  0  0  0  0  0
   47.2380   84.1680   57.3290 H   0  0  0  0  0  0  0  0  0  0  0  0
   44.9890   84.9600   53.3500 C   0  0  0  0  0  3  0  0  0  0  0  0
   45.6830   84.0740   52.3430 C   0  0  0  0  0  2  0  0  0  0  0  0
   45.3940   84.6300   50.9760 C   0  0  0  0  0  2  0  0  0  0  0  0
   44.3250   85.6700   50.9250 C   0  0  0  0  0  2  0  0  0  0  0  0
   44.5700   86.8240   51.8710 C   0  0  0  0  0  2  0  0  0  0  0  0
   45.3820   86.3710   53.0810 C   0  0  0  0  0  2  0  0  0  0  0  0
  1  6  1  0  0  0  0
  2  1  2  0  0  0  0
  2  3  1  0  0  0  0
  3  4  2  0  0  0  0
  4  5  1  0  0  0  0
  5 10  1  0  0  0  0
  6  5  2  0  0  0  0
  7  1  1  0  0  0  0
  8  2  1  0  0  0  0
  9 17  1  0  0  0  0
 10  9  2  0  0  0  0
 10 11  1  0  0  0  0
 11 12  2  0  0  0  0
 12 16  1  0  0  0  0
 12 13  1  0  0  0  0
 13 14  1  0  0  0  0
 14 21  1  0  0  0  0
 15 14  2  0  0  0  0
 16 15  1  0  0  0  0
 17 22  1  0  0  0  0
 17 16  2  0  0  0  0
 18  9  1  0  0  0  0
 19 11  1  0  0  0  0
 20 13  1  0  0  0  0
 23 24  1  0  0  0  0
 24 25  1  0  0  0  0
 25  3  1  0  0  0  0
 25 26  2  0  0  0  0
 26 31  1  0  0  0  0
 27 26  1  0  0  0  0
 27 32  1  0  0  0  0
 28 27  2  0  0  0  0
 29 28  1  0  0  0  0
 30 24  2  0  0  0  0
 30 28  1  0  0  0  0
 33 30  1  0  0  0  0
 34 33  1  0  0  0  0
 35 34  1  0  0  0  0
 36 35  1  0  0  0  0
 36 37  1  0  0  0  0
 37 38  1  0  0  0  0
 38 33  1  0  0  0  0
M  END
>  <minimizedAffinity>
-5.00408792

>  <minimizedRMSD>
0.713600397

$$$$
