
 OpenBabel03212521073D

 33 36  0  0  0  0  0  0  0  0999 V2000
   41.8140   84.2520   61.6010 C   0  0  0  0  0  0  0  0  0  0  0  0
   41.4100   83.9700   62.9030 C   0  0  0  0  0  0  0  0  0  0  0  0
   40.1220   83.5560   63.1890 C   0  0  0  0  0  0  0  0  0  0  0  0
   39.2070   83.4160   62.1590 C   0  0  0  0  0  0  0  0  0  0  0  0
   39.6000   83.6960   60.8570 C   0  0  0  0  0  0  0  0  0  0  0  0
   40.8910   84.1110   60.5690 C   0  0  0  0  0  0  0  0  0  0  0  0
   42.0990   84.0660   63.7490 H   0  0  0  0  0  0  0  0  0  0  0  0
   39.7760   83.3280   64.1860 H   0  0  0  0  0  0  0  0  0  0  0  0
   38.1730   83.0960   62.2850 H   0  0  0  0  0  0  0  0  0  0  0  0
   38.8900   83.5900   60.0390 H   0  0  0  0  0  0  0  0  0  0  0  0
   45.3940   84.1220   60.8840 C   0  0  0  0  0  0  0  0  0  0  0  0
   45.7620   85.4550   60.8690 C   0  0  0  0  0  0  0  0  0  0  0  0
   44.7620   86.4140   61.1110 C   0  0  0  0  0  0  0  0  0  0  0  0
   43.4950   85.9930   61.3450 N   0  0  0  0  0  0  0  0  0  0  0  0
   43.1670   84.6820   61.3510 C   0  0  0  0  0  0  0  0  0  0  0  0
   44.1190   83.7740   61.1220 N   0  0  0  0  0  0  0  0  0  0  0  0
   46.0700   83.2760   60.7120 H   0  0  0  0  0  0  0  0  0  0  0  0
   46.8050   85.6600   60.6710 H   0  0  0  0  0  0  0  0  0  0  0  0
   45.0720   87.4380   61.0950 H   0  0  0  0  0  0  0  0  0  0  0  0
   41.2540   84.3900   59.2000 C   0  0  0  0  0  0  0  0  0  0  0  0
   40.7120   85.6070   58.7630 C   0  0  0  0  0  0  0  0  0  0  0  0
   40.9490   86.0560   57.4630 C   0  0  0  0  0  0  0  0  0  0  0  0
   41.7050   85.2800   56.6690 N   0  0  0  0  0  0  0  0  0  0  0  0
   42.2250   84.1050   57.1030 C   0  0  0  0  0  0  0  0  0  0  0  0
   41.9970   83.6740   58.3500 N   0  0  0  0  0  0  0  0  0  0  0  0
   40.0970   86.2770   59.3460 H   0  0  0  0  0  0  0  0  0  0  0  0
   40.5400   86.9990   57.0920 H   0  0  0  0  0  0  0  0  0  0  0  0
   43.0560   83.2830   56.1830 C   0  0  0  0  0  3  0  0  0  0  0  0
   43.6400   82.0780   56.9020 C   0  0  0  0  0  2  0  0  0  0  0  0
   44.6980   81.5100   55.9760 C   0  0  0  0  0  2  0  0  0  0  0  0
   43.9460   80.9760   54.7580 C   0  0  0  0  0  2  0  0  0  0  0  0
   43.1990   82.0760   54.0680 C   0  0  0  0  0  2  0  0  0  0  0  0
   42.2820   82.8500   54.9660 C   0  0  0  0  0  2  0  0  0  0  0  0
  1  2  1  0  0  0  0
  2  3  2  0  0  0  0
  2  7  1  0  0  0  0
  3  8  1  0  0  0  0
  4  9  1  0  0  0  0
  4  3  1  0  0  0  0
  5  4  2  0  0  0  0
  6  5  1  0  0  0  0
  6  1  2  0  0  0  0
 10  5  1  0  0  0  0
 11 16  1  0  0  0  0
 12 11  2  0  0  0  0
 12 13  1  0  0  0  0
 13 14  2  0  0  0  0
 14 15  1  0  0  0  0
 15  1  1  0  0  0  0
 16 15  2  0  0  0  0
 17 11  1  0  0  0  0
 18 12  1  0  0  0  0
 19 13  1  0  0  0  0
 20  6  1  0  0  0  0
 21 20  1  0  0  0  0
 21 26  1  0  0  0  0
 22 21  2  0  0  0  0
 23 24  2  0  0  0  0
 23 22  1  0  0  0  0
 24 25  1  0  0  0  0
 25 20  2  0  0  0  0
 27 22  1  0  0  0  0
 28 29  1  0  0  0  0
 28 24  1  0  0  0  0
 30 29  1  0  0  0  0
 31 30  1  0  0  0  0
 32 31  1  0  0  0  0
 32 33  1  0  0  0  0
 33 28  1  0  0  0  0
M  END
>  <minimizedAffinity>
-5.36416674

>  <minimizedRMSD>
0.141310424

$$$$
