
 OpenBabel03212521073D

 33 36  0  0  0  0  0  0  0  0999 V2000
   41.7990   84.1640   61.5660 C   0  0  0  0  0  0  0  0  0  0  0  0
   41.4360   83.8860   62.8810 C   0  0  0  0  0  0  0  0  0  0  0  0
   40.1410   83.5360   63.2170 C   0  0  0  0  0  0  0  0  0  0  0  0
   39.1780   83.4570   62.2260 C   0  0  0  0  0  0  0  0  0  0  0  0
   39.5300   83.7320   60.9110 C   0  0  0  0  0  0  0  0  0  0  0  0
   40.8270   84.0830   60.5720 C   0  0  0  0  0  0  0  0  0  0  0  0
   42.1640   83.9360   63.6970 H   0  0  0  0  0  0  0  0  0  0  0  0
   39.8260   83.3140   64.2260 H   0  0  0  0  0  0  0  0  0  0  0  0
   38.1340   83.1900   62.3940 H   0  0  0  0  0  0  0  0  0  0  0  0
   38.7810   83.6740   60.1240 H   0  0  0  0  0  0  0  0  0  0  0  0
   45.2850   83.8830   60.5120 C   0  0  0  0  0  0  0  0  0  0  0  0
   45.7680   85.1700   60.6710 C   0  0  0  0  0  0  0  0  0  0  0  0
   44.8790   86.1490   61.1490 C   0  0  0  0  0  0  0  0  0  0  0  0
   43.6020   85.7920   61.4300 N   0  0  0  0  0  0  0  0  0  0  0  0
   43.1610   84.5260   61.2630 C   0  0  0  0  0  0  0  0  0  0  0  0
   44.0080   83.5990   60.8090 N   0  0  0  0  0  0  0  0  0  0  0  0
   45.8680   83.0280   60.1490 H   0  0  0  0  0  0  0  0  0  0  0  0
   46.8060   85.3250   60.4110 H   0  0  0  0  0  0  0  0  0  0  0  0
   45.2760   87.1370   61.2640 H   0  0  0  0  0  0  0  0  0  0  0  0
   41.1460   84.3610   59.1920 C   0  0  0  0  0  0  0  0  0  0  0  0
   40.9300   85.7090   58.8760 C   0  0  0  0  0  0  0  0  0  0  0  0
   41.1800   86.1780   57.5860 C   0  0  0  0  0  0  0  0  0  0  0  0
   41.6280   85.2910   56.6820 N   0  0  0  0  0  0  0  0  0  0  0  0
   41.8350   83.9890   56.9990 C   0  0  0  0  0  0  0  0  0  0  0  0
   41.5940   83.5390   58.2370 N   0  0  0  0  0  0  0  0  0  0  0  0
   40.5700   86.4720   59.5510 H   0  0  0  0  0  0  0  0  0  0  0  0
   41.0210   87.2230   57.3080 H   0  0  0  0  0  0  0  0  0  0  0  0
   42.3330   83.0480   55.9610 C   0  0  0  0  0  3  0  0  0  0  0  0
   41.4010   81.8540   55.8110 C   0  0  0  0  0  2  0  0  0  0  0  0
   42.1580   80.8360   54.9800 C   0  0  0  0  0  2  0  0  0  0  0  0
   42.3070   81.4560   53.5920 C   0  0  0  0  0  2  0  0  0  0  0  0
   43.0810   82.7370   53.6590 C   0  0  0  0  0  2  0  0  0  0  0  0
   42.5300   83.7330   54.6340 C   0  0  0  0  0  2  0  0  0  0  0  0
  1  2  1  0  0  0  0
  2  3  2  0  0  0  0
  2  7  1  0  0  0  0
  3  8  1  0  0  0  0
  4  9  1  0  0  0  0
  4  3  1  0  0  0  0
  5  4  2  0  0  0  0
  6  5  1  0  0  0  0
  6  1  2  0  0  0  0
 10  5  1  0  0  0  0
 11 12  2  0  0  0  0
 11 16  1  0  0  0  0
 12 13  1  0  0  0  0
 13 19  1  0  0  0  0
 13 14  2  0  0  0  0
 15 14  1  0  0  0  0
 15  1  1  0  0  0  0
 16 15  2  0  0  0  0
 17 11  1  0  0  0  0
 18 12  1  0  0  0  0
 20  6  1  0  0  0  0
 21 20  1  0  0  0  0
 21 26  1  0  0  0  0
 22 21  2  0  0  0  0
 23 24  2  0  0  0  0
 23 22  1  0  0  0  0
 24 25  1  0  0  0  0
 25 20  2  0  0  0  0
 27 22  1  0  0  0  0
 28 24  1  0  0  0  0
 29 28  1  0  0  0  0
 30 29  1  0  0  0  0
 31 32  1  0  0  0  0
 31 30  1  0  0  0  0
 32 33  1  0  0  0  0
 33 28  1  0  0  0  0
M  END
>  <minimizedAffinity>
-5.64912987

>  <minimizedRMSD>
0.613428712

$$$$
