
 OpenBabel03212520273D

 25 27  0  0  0  0  0  0  0  0999 V2000
   42.3850   84.8760   60.8960 C   0  0  0  0  0  0  0  0  0  0  0  0
   43.4700   85.2460   61.6990 C   0  0  0  0  0  0  0  0  0  0  0  0
   44.0830   86.2160   60.8880 C   0  0  0  0  0  0  0  0  0  0  0  0
   43.3980   86.3800   59.7210 N   0  0  0  0  0  0  0  0  0  0  0  0
   42.3640   85.5470   59.7530 N   0  0  0  0  0  0  0  0  0  0  0  0
   43.7940   84.9200   62.6640 H   0  0  0  0  0  0  0  0  0  0  0  0
   44.9860   86.7810   61.1280 H   0  0  0  0  0  0  0  0  0  0  0  0
   40.8270   81.6020   61.7990 C   0  0  0  0  0  0  0  0  0  0  0  0
   41.8010   82.5330   61.4240 C   0  0  0  0  0  0  0  0  0  0  0  0
   41.4090   83.8740   61.2830 C   0  0  0  0  0  0  0  0  0  0  0  0
   40.1210   84.2150   61.5110 N   0  0  0  0  0  0  0  0  0  0  0  0
   39.2060   83.2750   61.8740 C   0  0  0  0  0  0  0  0  0  0  0  0
   39.5590   81.9910   62.0150 N   0  0  0  0  0  0  0  0  0  0  0  0
   41.2520   80.6090   61.8740 H   0  0  0  0  0  0  0  0  0  0  0  0
   42.8450   82.3090   61.2300 H   0  0  0  0  0  0  0  0  0  0  0  0
   38.1790   83.5480   62.0560 H   0  0  0  0  0  0  0  0  0  0  0  0
   43.7500   87.2900   58.6640 C   0  0  0  0  0  0  0  0  0  0  0  0
   43.6750   88.3270   58.9830 H   0  0  0  0  0  0  0  0  0  0  0  0
   43.0250   87.0960   57.8250 H   0  0  0  0  0  0  0  0  0  0  0  0
   45.1220   86.9090   58.1630 C   0  0  0  0  0  3  0  0  0  0  0  0
   45.7590   88.0040   57.3420 C   0  0  0  0  0  2  0  0  0  0  0  0
   47.2390   87.6480   57.2790 C   0  0  0  0  0  2  0  0  0  0  0  0
   47.4450   86.3120   56.6210 C   0  0  0  0  0  2  0  0  0  0  0  0
   46.5350   85.2330   57.1040 C   0  0  0  0  0  2  0  0  0  0  0  0
   45.0960   85.6830   57.2980 C   0  0  0  0  0  2  0  0  0  0  0  0
  1 10  1  0  0  0  0
  1  2  1  0  0  0  0
  2  6  1  0  0  0  0
  3  7  1  0  0  0  0
  3  2  2  0  0  0  0
  4  5  1  0  0  0  0
  4  3  1  0  0  0  0
  5  1  2  0  0  0  0
  8 14  1  0  0  0  0
  8 13  1  0  0  0  0
  9  8  2  0  0  0  0
 10  9  1  0  0  0  0
 10 11  2  0  0  0  0
 11 12  1  0  0  0  0
 12 13  2  0  0  0  0
 12 16  1  0  0  0  0
 15  9  1  0  0  0  0
 17 18  1  0  0  0  0
 17  4  1  0  0  0  0
 19 17  1  0  0  0  0
 20 17  1  0  0  0  0
 21 20  1  0  0  0  0
 22 21  1  0  0  0  0
 23 24  1  0  0  0  0
 23 22  1  0  0  0  0
 24 25  1  0  0  0  0
 25 20  1  0  0  0  0
M  END
>  <minimizedAffinity>
-4.18417501

>  <minimizedRMSD>
0.935394526

$$$$
