
 OpenBabel03212521073D

 33 36  0  0  0  0  0  0  0  0999 V2000
   41.8260   84.2240   61.5770 C   0  0  0  0  0  0  0  0  0  0  0  0
   41.4840   83.9330   62.8940 C   0  0  0  0  0  0  0  0  0  0  0  0
   40.2120   83.5110   63.2360 C   0  0  0  0  0  0  0  0  0  0  0  0
   39.2510   83.3720   62.2490 C   0  0  0  0  0  0  0  0  0  0  0  0
   39.5830   83.6610   60.9310 C   0  0  0  0  0  0  0  0  0  0  0  0
   40.8560   84.0840   60.5870 C   0  0  0  0  0  0  0  0  0  0  0  0
   42.2100   84.0280   63.7080 H   0  0  0  0  0  0  0  0  0  0  0  0
   39.9130   83.2760   64.2470 H   0  0  0  0  0  0  0  0  0  0  0  0
   38.2250   83.0470   62.4210 H   0  0  0  0  0  0  0  0  0  0  0  0
   38.8360   83.5560   60.1470 H   0  0  0  0  0  0  0  0  0  0  0  0
   45.3180   84.1400   60.5070 C   0  0  0  0  0  0  0  0  0  0  0  0
   45.7280   85.4510   60.6630 C   0  0  0  0  0  0  0  0  0  0  0  0
   44.7870   86.3790   61.1440 C   0  0  0  0  0  0  0  0  0  0  0  0
   43.5340   85.9520   61.4310 N   0  0  0  0  0  0  0  0  0  0  0  0
   43.1640   84.6620   61.2670 C   0  0  0  0  0  0  0  0  0  0  0  0
   44.0590   83.7840   60.8100 N   0  0  0  0  0  0  0  0  0  0  0  0
   45.9460   83.3180   60.1430 H   0  0  0  0  0  0  0  0  0  0  0  0
   46.7550   85.6650   60.3990 H   0  0  0  0  0  0  0  0  0  0  0  0
   45.1290   87.3880   61.2560 H   0  0  0  0  0  0  0  0  0  0  0  0
   41.1550   84.3730   59.2040 C   0  0  0  0  0  0  0  0  0  0  0  0
   40.8840   85.7120   58.8890 C   0  0  0  0  0  0  0  0  0  0  0  0
   41.1060   86.1890   57.5970 C   0  0  0  0  0  0  0  0  0  0  0  0
   41.5820   85.3210   56.6900 N   0  0  0  0  0  0  0  0  0  0  0  0
   41.8420   84.0280   57.0060 C   0  0  0  0  0  0  0  0  0  0  0  0
   41.6270   83.5690   58.2460 N   0  0  0  0  0  0  0  0  0  0  0  0
   40.4990   86.4610   59.5670 H   0  0  0  0  0  0  0  0  0  0  0  0
   40.9040   87.2270   57.3200 H   0  0  0  0  0  0  0  0  0  0  0  0
   42.3690   83.1060   55.9640 C   0  0  0  0  0  3  0  0  0  0  0  0
   42.6530   83.8510   54.6690 C   0  0  0  0  0  2  0  0  0  0  0  0
   42.8720   82.7840   53.6130 C   0  0  0  0  0  2  0  0  0  0  0  0
   44.1650   82.0690   54.0050 C   0  0  0  0  0  2  0  0  0  0  0  0
   44.0380   81.4330   55.3550 C   0  0  0  0  0  2  0  0  0  0  0  0
   43.6000   82.3770   56.4350 C   0  0  0  0  0  2  0  0  0  0  0  0
  1  2  1  0  0  0  0
  2  3  2  0  0  0  0
  2  7  1  0  0  0  0
  3  8  1  0  0  0  0
  4  9  1  0  0  0  0
  4  3  1  0  0  0  0
  5  4  2  0  0  0  0
  6  5  1  0  0  0  0
  6  1  2  0  0  0  0
 10  5  1  0  0  0  0
 11 12  2  0  0  0  0
 11 16  1  0  0  0  0
 12 13  1  0  0  0  0
 13 19  1  0  0  0  0
 13 14  2  0  0  0  0
 15 14  1  0  0  0  0
 15  1  1  0  0  0  0
 16 15  2  0  0  0  0
 17 11  1  0  0  0  0
 18 12  1  0  0  0  0
 20  6  1  0  0  0  0
 21 20  1  0  0  0  0
 21 26  1  0  0  0  0
 22 21  2  0  0  0  0
 23 24  2  0  0  0  0
 23 22  1  0  0  0  0
 24 25  1  0  0  0  0
 25 20  2  0  0  0  0
 27 22  1  0  0  0  0
 28 33  1  0  0  0  0
 28 24  1  0  0  0  0
 29 28  1  0  0  0  0
 30 31  1  0  0  0  0
 30 29  1  0  0  0  0
 31 32  1  0  0  0  0
 32 33  1  0  0  0  0
M  END
>  <minimizedAffinity>
-5.46670723

>  <minimizedRMSD>
0.51382184

$$$$
