
 OpenBabel03212520103D

 15 16  0  0  0  0  0  0  0  0999 V2000
   37.1970   75.1680   57.0320 C   0  0  0  0  0  0  0  0  0  0  0  0
   38.2530   75.9040   57.6040 C   0  0  0  0  0  0  0  0  0  0  0  0
   38.5250   77.1790   57.0810 C   0  0  0  0  0  0  0  0  0  0  0  0
   37.7550   77.6250   56.0550 N   0  0  0  0  0  0  0  0  0  0  0  0
   36.7430   76.8920   55.5230 C   0  0  0  0  0  0  0  0  0  0  0  0
   36.4780   75.6660   56.0220 N   0  0  0  0  0  0  0  0  0  0  0  0
   36.9410   74.1820   57.3910 H   0  0  0  0  0  0  0  0  0  0  0  0
   39.3280   77.7870   57.4860 H   0  0  0  0  0  0  0  0  0  0  0  0
   36.2800   77.4500   54.7260 H   0  0  0  0  0  0  0  0  0  0  0  0
   39.0430   75.3490   58.7170 C   0  0  0  0  0  3  0  0  0  0  0  0
   38.2470   74.1900   59.3020 C   0  0  0  0  0  2  0  0  0  0  0  0
   38.2300   74.2350   60.8010 C   0  0  0  0  0  2  0  0  0  0  0  0
   39.6470   74.4170   61.2890 C   0  0  0  0  0  2  0  0  0  0  0  0
   40.2930   75.6670   60.7850 C   0  0  0  0  0  2  0  0  0  0  0  0
   39.3560   76.3330   59.7980 C   0  0  0  0  0  2  0  0  0  0  0  0
  1  7  1  0  0  0  0
  1  2  1  0  0  0  0
  2 10  1  0  0  0  0
  3  8  1  0  0  0  0
  3  2  2  0  0  0  0
  4  3  1  0  0  0  0
  5  6  1  0  0  0  0
  5  4  2  0  0  0  0
  6  1  2  0  0  0  0
  9  5  1  0  0  0  0
 10 11  1  0  0  0  0
 10 15  1  0  0  0  0
 11 12  1  0  0  0  0
 12 13  1  0  0  0  0
 14 13  1  0  0  0  0
 15 14  1  0  0  0  0
M  END
>  <minimizedAffinity>
-4.26041126

$$$$

 OpenBabel03212520103D

 15 16  0  0  0  0  0  0  0  0999 V2000
   42.3380   73.4020   60.5010 C   0  0  0  0  0  0  0  0  0  0  0  0
   40.9380   73.5470   60.5330 C   0  0  0  0  0  0  0  0  0  0  0  0
   40.2380   72.9500   61.5950 C   0  0  0  0  0  0  0  0  0  0  0  0
   40.9540   72.2680   62.5270 N   0  0  0  0  0  0  0  0  0  0  0  0
   42.3050   72.1450   62.4700 C   0  0  0  0  0  0  0  0  0  0  0  0
   42.9820   72.7170   61.4520 N   0  0  0  0  0  0  0  0  0  0  0  0
   42.9300   73.8380   59.7100 H   0  0  0  0  0  0  0  0  0  0  0  0
   39.1580   73.0320   61.6660 H   0  0  0  0  0  0  0  0  0  0  0  0
   42.6450   71.5650   63.3120 H   0  0  0  0  0  0  0  0  0  0  0  0
   40.2340   74.3030   59.4830 C   0  0  0  0  0  3  0  0  0  0  0  0
   40.7020   75.7490   59.5770 C   0  0  0  0  0  2  0  0  0  0  0  0
   39.5520   76.7070   59.4850 C   0  0  0  0  0  2  0  0  0  0  0  0
   38.7100   76.3300   58.2900 C   0  0  0  0  0  2  0  0  0  0  0  0
   38.1640   74.9390   58.3640 C   0  0  0  0  0  2  0  0  0  0  0  0
   38.7430   74.2560   59.5860 C   0  0  0  0  0  2  0  0  0  0  0  0
  1  2  2  0  0  0  0
  1  6  1  0  0  0  0
  2  3  1  0  0  0  0
  3  8  1  0  0  0  0
  3  4  2  0  0  0  0
  5  4  1  0  0  0  0
  5  9  1  0  0  0  0
  6  5  2  0  0  0  0
  7  1  1  0  0  0  0
 10 11  1  0  0  0  0
 10 15  1  0  0  0  0
 10  2  1  0  0  0  0
 12 11  1  0  0  0  0
 13 14  1  0  0  0  0
 13 12  1  0  0  0  0
 14 15  1  0  0  0  0
M  END
>  <minimizedAffinity>
-4.13167763

$$$$

 OpenBabel03212520103D

 15 16  0  0  0  0  0  0  0  0999 V2000
   38.8250   77.1500   57.7510 C   0  0  0  0  0  0  0  0  0  0  0  0
   38.4480   75.8780   58.2260 C   0  0  0  0  0  0  0  0  0  0  0  0
   37.5580   75.1220   57.4440 C   0  0  0  0  0  0  0  0  0  0  0  0
   37.1160   75.6610   56.2790 N   0  0  0  0  0  0  0  0  0  0  0  0
   37.4970   76.8920   55.8470 C   0  0  0  0  0  0  0  0  0  0  0  0
   38.3510   77.6220   56.5940 N   0  0  0  0  0  0  0  0  0  0  0  0
   39.5040   77.7770   58.3080 H   0  0  0  0  0  0  0  0  0  0  0  0
   37.2370   74.1350   57.7640 H   0  0  0  0  0  0  0  0  0  0  0  0
   37.0190   77.1020   54.9040 H   0  0  0  0  0  0  0  0  0  0  0  0
   38.9730   75.3630   59.5010 C   0  0  0  0  0  3  0  0  0  0  0  0
   40.4920   75.4580   59.4360 C   0  0  0  0  0  2  0  0  0  0  0  0
   41.1440   74.2050   59.9390 C   0  0  0  0  0  2  0  0  0  0  0  0
   40.5300   73.8480   61.2710 C   0  0  0  0  0  2  0  0  0  0  0  0
   39.0540   73.6200   61.2030 C   0  0  0  0  0  2  0  0  0  0  0  0
   38.5760   73.9530   59.8050 C   0  0  0  0  0  2  0  0  0  0  0  0
  1  2  1  0  0  0  0
  1  7  1  0  0  0  0
  2 10  1  0  0  0  0
  3  8  1  0  0  0  0
  3  2  2  0  0  0  0
  4  3  1  0  0  0  0
  5  4  2  0  0  0  0
  5  6  1  0  0  0  0
  6  1  2  0  0  0  0
  9  5  1  0  0  0  0
 10 15  1  0  0  0  0
 11 10  1  0  0  0  0
 11 12  1  0  0  0  0
 12 13  1  0  0  0  0
 14 13  1  0  0  0  0
 15 14  1  0  0  0  0
M  END
>  <minimizedAffinity>
-4.10370255

$$$$

 OpenBabel03212520103D

 15 16  0  0  0  0  0  0  0  0999 V2000
   40.5580   73.2340   61.6830 C   0  0  0  0  0  0  0  0  0  0  0  0
   41.4130   73.7550   60.6920 C   0  0  0  0  0  0  0  0  0  0  0  0
   42.7040   73.2100   60.5850 C   0  0  0  0  0  0  0  0  0  0  0  0
   43.0490   72.2150   61.4420 N   0  0  0  0  0  0  0  0  0  0  0  0
   42.2030   71.7330   62.3890 C   0  0  0  0  0  0  0  0  0  0  0  0
   40.9620   72.2530   62.4960 N   0  0  0  0  0  0  0  0  0  0  0  0
   39.5550   73.6120   61.8140 H   0  0  0  0  0  0  0  0  0  0  0  0
   43.4010   73.5760   59.8370 H   0  0  0  0  0  0  0  0  0  0  0  0
   42.6970   70.9530   62.9440 H   0  0  0  0  0  0  0  0  0  0  0  0
   40.9620   74.8360   59.8000 C   0  0  0  0  0  3  0  0  0  0  0  0
   42.2060   75.5550   59.2960 C   0  0  0  0  0  2  0  0  0  0  0  0
   42.0430   77.0450   59.3570 C   0  0  0  0  0  2  0  0  0  0  0  0
   40.7270   77.4080   58.7130 C   0  0  0  0  0  2  0  0  0  0  0  0
   39.5460   76.7750   59.3770 C   0  0  0  0  0  2  0  0  0  0  0  0
   40.0440   75.8240   60.4470 C   0  0  0  0  0  2  0  0  0  0  0  0
  1  7  1  0  0  0  0
  1  6  1  0  0  0  0
  2  1  2  0  0  0  0
  3  2  1  0  0  0  0
  3  4  2  0  0  0  0
  4  5  1  0  0  0  0
  5  6  2  0  0  0  0
  5  9  1  0  0  0  0
  8  3  1  0  0  0  0
 10 15  1  0  0  0  0
 10  2  1  0  0  0  0
 11 12  1  0  0  0  0
 11 10  1  0  0  0  0
 13 12  1  0  0  0  0
 13 14  1  0  0  0  0
 14 15  1  0  0  0  0
M  END
>  <minimizedAffinity>
-4.07546234

$$$$

 OpenBabel03212520103D

 15 16  0  0  0  0  0  0  0  0999 V2000
   38.1860   74.4780   58.8290 C   0  0  0  0  0  0  0  0  0  0  0  0
   38.4790   75.6620   58.1230 C   0  0  0  0  0  0  0  0  0  0  0  0
   39.1400   76.6920   58.8130 C   0  0  0  0  0  0  0  0  0  0  0  0
   39.4570   76.4850   60.1170 N   0  0  0  0  0  0  0  0  0  0  0  0
   39.1620   75.3330   60.7720 C   0  0  0  0  0  0  0  0  0  0  0  0
   38.5260   74.3400   60.1140 N   0  0  0  0  0  0  0  0  0  0  0  0
   37.6790   73.6520   58.3530 H   0  0  0  0  0  0  0  0  0  0  0  0
   39.3890   77.6240   58.3150 H   0  0  0  0  0  0  0  0  0  0  0  0
   39.5080   75.4020   61.7900 H   0  0  0  0  0  0  0  0  0  0  0  0
   38.1020   75.8080   56.7070 C   0  0  0  0  0  3  0  0  0  0  0  0
   38.0130   77.3000   56.4150 C   0  0  0  0  0  2  0  0  0  0  0  0
   36.7820   77.6340   55.6270 C   0  0  0  0  0  2  0  0  0  0  0  0
   36.6980   76.6930   54.4490 C   0  0  0  0  0  2  0  0  0  0  0  0
   36.6310   75.2530   54.8440 C   0  0  0  0  0  2  0  0  0  0  0  0
   36.8070   75.1530   56.3460 C   0  0  0  0  0  2  0  0  0  0  0  0
  1  6  1  0  0  0  0
  2  3  1  0  0  0  0
  2  1  2  0  0  0  0
  3  4  2  0  0  0  0
  4  5  1  0  0  0  0
  5  9  1  0  0  0  0
  6  5  2  0  0  0  0
  7  1  1  0  0  0  0
  8  3  1  0  0  0  0
 10  2  1  0  0  0  0
 11 10  1  0  0  0  0
 12 11  1  0  0  0  0
 13 14  1  0  0  0  0
 13 12  1  0  0  0  0
 14 15  1  0  0  0  0
 15 10  1  0  0  0  0
M  END
>  <minimizedAffinity>
-4.05630732

$$$$

 OpenBabel03212520103D

 15 16  0  0  0  0  0  0  0  0999 V2000
   39.8070   75.0440   60.9470 C   0  0  0  0  0  0  0  0  0  0  0  0
   40.9550   74.5670   60.2850 C   0  0  0  0  0  0  0  0  0  0  0  0
   41.6220   75.4410   59.4100 C   0  0  0  0  0  0  0  0  0  0  0  0
   41.1190   76.6930   59.2550 N   0  0  0  0  0  0  0  0  0  0  0  0
   40.0090   77.1270   59.9070 C   0  0  0  0  0  0  0  0  0  0  0  0
   39.3650   76.2900   60.7480 N   0  0  0  0  0  0  0  0  0  0  0  0
   39.2520   74.4190   61.6310 H   0  0  0  0  0  0  0  0  0  0  0  0
   42.5110   75.1220   58.8760 H   0  0  0  0  0  0  0  0  0  0  0  0
   39.8050   78.1460   59.6250 H   0  0  0  0  0  0  0  0  0  0  0  0
   41.4370   73.1930   60.5080 C   0  0  0  0  0  3  0  0  0  0  0  0
   40.9300   72.7520   61.8750 C   0  0  0  0  0  2  0  0  0  0  0  0
   42.0050   72.0720   62.6680 C   0  0  0  0  0  2  0  0  0  0  0  0
   42.6490   71.0200   61.7980 C   0  0  0  0  0  2  0  0  0  0  0  0
   43.2580   71.5740   60.5500 C   0  0  0  0  0  2  0  0  0  0  0  0
   42.9250   73.0490   60.4600 C   0  0  0  0  0  2  0  0  0  0  0  0
  1  7  1  0  0  0  0
  2 10  1  0  0  0  0
  2  1  2  0  0  0  0
  3  2  1  0  0  0  0
  4  3  2  0  0  0  0
  4  5  1  0  0  0  0
  5  6  2  0  0  0  0
  6  1  1  0  0  0  0
  8  3  1  0  0  0  0
  9  5  1  0  0  0  0
 10 11  1  0  0  0  0
 11 12  1  0  0  0  0
 13 12  1  0  0  0  0
 14 13  1  0  0  0  0
 15 10  1  0  0  0  0
 15 14  1  0  0  0  0
M  END
>  <minimizedAffinity>
-3.89478374

$$$$

 OpenBabel03212520103D

 15 16  0  0  0  0  0  0  0  0999 V2000
   39.4250   75.2940   56.3630 C   0  0  0  0  0  0  0  0  0  0  0  0
   38.2750   75.4810   57.1540 C   0  0  0  0  0  0  0  0  0  0  0  0
   37.0230   75.4300   56.5170 C   0  0  0  0  0  0  0  0  0  0  0  0
   36.9980   75.2030   55.1790 N   0  0  0  0  0  0  0  0  0  0  0  0
   38.1240   75.0270   54.4410 C   0  0  0  0  0  0  0  0  0  0  0  0
   39.3290   75.0750   55.0480 N   0  0  0  0  0  0  0  0  0  0  0  0
   40.4140   75.3230   56.7950 H   0  0  0  0  0  0  0  0  0  0  0  0
   36.1060   75.5670   57.0820 H   0  0  0  0  0  0  0  0  0  0  0  0
   37.8540   74.8640   53.4110 H   0  0  0  0  0  0  0  0  0  0  0  0
   38.3870   75.7220   58.6030 C   0  0  0  0  0  3  0  0  0  0  0  0
   39.3040   76.9240   58.7910 C   0  0  0  0  0  2  0  0  0  0  0  0
   40.3090   76.6840   59.8780 C   0  0  0  0  0  2  0  0  0  0  0  0
   39.5820   76.1720   61.0970 C   0  0  0  0  0  2  0  0  0  0  0  0
   38.8360   74.8990   60.8530 C   0  0  0  0  0  2  0  0  0  0  0  0
   38.9240   74.5610   59.3780 C   0  0  0  0  0  2  0  0  0  0  0  0
  1  7  1  0  0  0  0
  1  2  1  0  0  0  0
  2 10  1  0  0  0  0
  3  8  1  0  0  0  0
  3  2  2  0  0  0  0
  4  3  1  0  0  0  0
  5  6  1  0  0  0  0
  5  4  2  0  0  0  0
  6  1  2  0  0  0  0
  9  5  1  0  0  0  0
 10 11  1  0  0  0  0
 10 15  1  0  0  0  0
 11 12  1  0  0  0  0
 12 13  1  0  0  0  0
 14 13  1  0  0  0  0
 15 14  1  0  0  0  0
M  END
>  <minimizedAffinity>
-3.89388275

$$$$

 OpenBabel03212520103D

 15 16  0  0  0  0  0  0  0  0999 V2000
   42.6810   67.4250   61.4460 C   0  0  0  0  0  0  0  0  0  0  0  0
   42.2280   68.3770   62.3800 C   0  0  0  0  0  0  0  0  0  0  0  0
   41.3570   67.9420   63.3940 C   0  0  0  0  0  0  0  0  0  0  0  0
   41.0060   66.6300   63.4120 N   0  0  0  0  0  0  0  0  0  0  0  0
   41.4600   65.7340   62.4980 C   0  0  0  0  0  0  0  0  0  0  0  0
   42.2960   66.1470   61.5220 N   0  0  0  0  0  0  0  0  0  0  0  0
   43.3510   67.6990   60.6450 H   0  0  0  0  0  0  0  0  0  0  0  0
   40.9790   68.6360   64.1380 H   0  0  0  0  0  0  0  0  0  0  0  0
   41.0470   64.7630   62.7160 H   0  0  0  0  0  0  0  0  0  0  0  0
   42.6560   69.7830   62.2910 C   0  0  0  0  0  3  0  0  0  0  0  0
   41.7930   70.5810   63.2610 C   0  0  0  0  0  2  0  0  0  0  0  0
   41.2970   71.8510   62.6390 C   0  0  0  0  0  2  0  0  0  0  0  0
   42.4680   72.5650   62.0080 C   0  0  0  0  0  2  0  0  0  0  0  0
   43.1570   71.7590   60.9540 C   0  0  0  0  0  2  0  0  0  0  0  0
   42.5410   70.3750   60.9220 C   0  0  0  0  0  2  0  0  0  0  0  0
  1  6  2  0  0  0  0
  1  2  1  0  0  0  0
  2  3  2  0  0  0  0
  3  4  1  0  0  0  0
  3  8  1  0  0  0  0
  5  9  1  0  0  0  0
  5  4  2  0  0  0  0
  6  5  1  0  0  0  0
  7  1  1  0  0  0  0
 10  2  1  0  0  0  0
 10 11  1  0  0  0  0
 12 11  1  0  0  0  0
 13 12  1  0  0  0  0
 14 13  1  0  0  0  0
 15 14  1  0  0  0  0
 15 10  1  0  0  0  0
M  END
>  <minimizedAffinity>
-3.88419414

$$$$

 OpenBabel03212520103D

 15 16  0  0  0  0  0  0  0  0999 V2000
   41.9980   70.6590   60.7640 C   0  0  0  0  0  0  0  0  0  0  0  0
   42.0290   69.6710   61.7670 C   0  0  0  0  0  0  0  0  0  0  0  0
   41.8500   70.0800   63.1000 C   0  0  0  0  0  0  0  0  0  0  0  0
   41.6590   71.4030   63.3400 N   0  0  0  0  0  0  0  0  0  0  0  0
   41.6340   72.3340   62.3510 C   0  0  0  0  0  0  0  0  0  0  0  0
   41.8060   71.9460   61.0700 N   0  0  0  0  0  0  0  0  0  0  0  0
   42.1300   70.4060   59.7230 H   0  0  0  0  0  0  0  0  0  0  0  0
   41.8650   69.3580   63.9100 H   0  0  0  0  0  0  0  0  0  0  0  0
   41.4700   73.3070   62.7830 H   0  0  0  0  0  0  0  0  0  0  0  0
   42.2420   68.2550   61.4240 C   0  0  0  0  0  3  0  0  0  0  0  0
   42.3790   68.1720   59.9100 C   0  0  0  0  0  2  0  0  0  0  0  0
   41.5770   67.0380   59.3450 C   0  0  0  0  0  2  0  0  0  0  0  0
   41.8890   65.7910   60.1360 C   0  0  0  0  0  2  0  0  0  0  0  0
   41.5730   65.9160   61.5920 C   0  0  0  0  0  2  0  0  0  0  0  0
   41.1450   67.3420   61.8740 C   0  0  0  0  0  2  0  0  0  0  0  0
  1  6  2  0  0  0  0
  1  2  1  0  0  0  0
  2  3  2  0  0  0  0
  3  4  1  0  0  0  0
  3  8  1  0  0  0  0
  5  9  1  0  0  0  0
  5  4  2  0  0  0  0
  6  5  1  0  0  0  0
  7  1  1  0  0  0  0
 10  2  1  0  0  0  0
 10 15  1  0  0  0  0
 11 10  1  0  0  0  0
 12 11  1  0  0  0  0
 12 13  1  0  0  0  0
 13 14  1  0  0  0  0
 14 15  1  0  0  0  0
M  END
>  <minimizedAffinity>
-3.85399175

$$$$
