
 OpenBabel03212520053D

 38 42  0  0  0  0  0  0  0  0999 V2000
   40.7780   81.8260   57.1470 C   0  0  0  0  0  0  0  0  0  0  0  0
   41.9730   82.2380   56.5400 C   0  0  0  0  0  0  0  0  0  0  0  0
   42.8340   83.0080   57.2790 C   0  0  0  0  0  0  0  0  0  0  0  0
   42.5150   83.3460   58.5610 N   0  0  0  0  0  0  0  0  0  0  0  0
   41.3510   82.9310   59.1260 C   0  0  0  0  0  0  0  0  0  0  0  0
   40.4720   82.1670   58.4150 N   0  0  0  0  0  0  0  0  0  0  0  0
   40.0070   81.2230   56.6910 H   0  0  0  0  0  0  0  0  0  0  0  0
   42.0170   81.8220   55.5610 H   0  0  0  0  0  0  0  0  0  0  0  0
   39.7260   83.0830   60.9470 C   0  0  0  0  0  0  0  0  0  0  0  0
   41.0380   83.2630   60.5070 C   0  0  0  0  0  0  0  0  0  0  0  0
   42.0300   83.7270   61.3730 C   0  0  0  0  0  0  0  0  0  0  0  0
   41.7400   84.0240   62.6960 C   0  0  0  0  0  0  0  0  0  0  0  0
   42.4110   84.4720   63.7700 N   0  0  0  0  0  0  0  0  0  0  0  0
   41.6000   84.5770   64.8320 C   0  0  0  0  0  0  0  0  0  0  0  0
   40.4010   84.1780   64.3780 N   0  0  0  0  0  0  0  0  0  0  0  0
   40.4480   83.8330   63.0770 C   0  0  0  0  0  0  0  0  0  0  0  0
   39.4160   83.3780   62.2790 C   0  0  0  0  0  0  0  0  0  0  0  0
   38.9310   82.7250   60.3040 H   0  0  0  0  0  0  0  0  0  0  0  0
   43.0480   83.8660   61.0270 H   0  0  0  0  0  0  0  0  0  0  0  0
   43.4470   84.6900   63.7020 H   0  0  0  0  0  0  0  0  0  0  0  0
   41.9100   84.9150   65.8100 H   0  0  0  0  0  0  0  0  0  0  0  0
   38.4290   83.2610   62.6750 H   0  0  0  0  0  0  0  0  0  0  0  0
   42.6480   84.1590   54.5340 Cl  0  0  0  0  0  0  0  0  0  0  0  0
   44.1490   84.0390   55.4630 C   0  0  0  0  0  0  0  0  0  0  0  0
   44.0760   83.4840   56.7160 C   0  0  0  0  0  0  0  0  0  0  0  0
   45.2960   83.4340   57.3790 C   0  0  0  0  0  0  0  0  0  0  0  0
   46.4820   83.8940   56.8470 C   0  0  0  0  0  0  0  0  0  0  0  0
   46.4820   84.4460   55.5720 C   0  0  0  0  0  0  0  0  0  0  0  0
   47.9820   85.0210   54.8970 Cl  0  0  0  0  0  0  0  0  0  0  0  0
   45.3120   84.5150   54.8890 C   0  0  0  0  0  0  0  0  0  0  0  0
   45.3350   83.0110   58.3730 H   0  0  0  0  0  0  0  0  0  0  0  0
   47.3960   83.8240   57.4200 H   0  0  0  0  0  0  0  0  0  0  0  0
   45.2120   85.0830   53.5260 C   0  0  0  0  0  3  0  0  0  0  0  0
   45.7800   84.1990   52.4410 C   0  0  0  0  0  2  0  0  0  0  0  0
   45.5380   84.8880   51.1260 C   0  0  0  0  0  2  0  0  0  0  0  0
   44.6010   86.0480   51.1750 C   0  0  0  0  0  2  0  0  0  0  0  0
   44.9970   87.0900   52.1980 C   0  0  0  0  0  2  0  0  0  0  0  0
   45.7680   86.4530   53.3510 C   0  0  0  0  0  2  0  0  0  0  0  0
  1  6  1  0  0  0  0
  2  1  2  0  0  0  0
  2  3  1  0  0  0  0
  3  4  2  0  0  0  0
  4  5  1  0  0  0  0
  5 10  1  0  0  0  0
  6  5  2  0  0  0  0
  7  1  1  0  0  0  0
  8  2  1  0  0  0  0
  9 17  1  0  0  0  0
 10  9  2  0  0  0  0
 10 11  1  0  0  0  0
 11 12  2  0  0  0  0
 12 16  1  0  0  0  0
 12 13  1  0  0  0  0
 13 14  1  0  0  0  0
 14 21  1  0  0  0  0
 15 14  2  0  0  0  0
 16 15  1  0  0  0  0
 17 22  1  0  0  0  0
 17 16  2  0  0  0  0
 18  9  1  0  0  0  0
 19 11  1  0  0  0  0
 20 13  1  0  0  0  0
 23 24  1  0  0  0  0
 24 25  1  0  0  0  0
 25  3  1  0  0  0  0
 25 26  2  0  0  0  0
 26 31  1  0  0  0  0
 27 26  1  0  0  0  0
 27 32  1  0  0  0  0
 28 27  2  0  0  0  0
 29 28  1  0  0  0  0
 30 24  2  0  0  0  0
 30 28  1  0  0  0  0
 33 30  1  0  0  0  0
 34 33  1  0  0  0  0
 35 36  1  0  0  0  0
 35 34  1  0  0  0  0
 36 37  1  0  0  0  0
 37 38  1  0  0  0  0
 38 33  1  0  0  0  0
M  END
>  <minimizedAffinity>
-4.97618628

>  <minimizedRMSD>
0.825289845

$$$$
