
 OpenBabel03212521073D

 33 36  0  0  0  0  0  0  0  0999 V2000
   41.7970   84.1660   61.5630 C   0  0  0  0  0  0  0  0  0  0  0  0
   41.4330   83.8790   62.8760 C   0  0  0  0  0  0  0  0  0  0  0  0
   40.1380   83.5240   63.2080 C   0  0  0  0  0  0  0  0  0  0  0  0
   39.1760   83.4500   62.2160 C   0  0  0  0  0  0  0  0  0  0  0  0
   39.5290   83.7340   60.9030 C   0  0  0  0  0  0  0  0  0  0  0  0
   40.8260   84.0900   60.5680 C   0  0  0  0  0  0  0  0  0  0  0  0
   42.1600   83.9250   63.6930 H   0  0  0  0  0  0  0  0  0  0  0  0
   39.8220   83.2950   64.2150 H   0  0  0  0  0  0  0  0  0  0  0  0
   38.1330   83.1790   62.3800 H   0  0  0  0  0  0  0  0  0  0  0  0
   38.7810   83.6790   60.1140 H   0  0  0  0  0  0  0  0  0  0  0  0
   45.2910   83.8930   60.5350 C   0  0  0  0  0  0  0  0  0  0  0  0
   45.7650   85.1850   60.6800 C   0  0  0  0  0  0  0  0  0  0  0  0
   44.8670   86.1640   61.1390 C   0  0  0  0  0  0  0  0  0  0  0  0
   43.5910   85.8040   61.4170 N   0  0  0  0  0  0  0  0  0  0  0  0
   43.1590   84.5320   61.2630 C   0  0  0  0  0  0  0  0  0  0  0  0
   44.0140   83.6040   60.8270 N   0  0  0  0  0  0  0  0  0  0  0  0
   45.8820   83.0370   60.1870 H   0  0  0  0  0  0  0  0  0  0  0  0
   46.8040   85.3440   60.4250 H   0  0  0  0  0  0  0  0  0  0  0  0
   45.2570   87.1560   61.2430 H   0  0  0  0  0  0  0  0  0  0  0  0
   41.1460   84.3770   59.1900 C   0  0  0  0  0  0  0  0  0  0  0  0
   40.8930   85.7180   58.8720 C   0  0  0  0  0  0  0  0  0  0  0  0
   41.1380   86.1940   57.5840 C   0  0  0  0  0  0  0  0  0  0  0  0
   41.6180   85.3210   56.6830 N   0  0  0  0  0  0  0  0  0  0  0  0
   41.8600   84.0260   57.0010 C   0  0  0  0  0  0  0  0  0  0  0  0
   41.6240   83.5690   58.2380 N   0  0  0  0  0  0  0  0  0  0  0  0
   40.5070   86.4700   59.5450 H   0  0  0  0  0  0  0  0  0  0  0  0
   40.9500   87.2340   57.3050 H   0  0  0  0  0  0  0  0  0  0  0  0
   42.3920   83.1000   55.9660 C   0  0  0  0  0  3  0  0  0  0  0  0
   41.4830   81.8930   55.7920 C   0  0  0  0  0  2  0  0  0  0  0  0
   42.2720   80.8910   54.9680 C   0  0  0  0  0  2  0  0  0  0  0  0
   42.4370   81.5230   53.5870 C   0  0  0  0  0  2  0  0  0  0  0  0
   43.1890   82.8160   53.6780 C   0  0  0  0  0  2  0  0  0  0  0  0
   42.6040   83.7970   54.6490 C   0  0  0  0  0  2  0  0  0  0  0  0
  1  2  1  0  0  0  0
  2  3  2  0  0  0  0
  2  7  1  0  0  0  0
  3  8  1  0  0  0  0
  4  9  1  0  0  0  0
  4  3  1  0  0  0  0
  5  4  2  0  0  0  0
  6  5  1  0  0  0  0
  6  1  2  0  0  0  0
 10  5  1  0  0  0  0
 11 12  2  0  0  0  0
 11 16  1  0  0  0  0
 12 13  1  0  0  0  0
 13 19  1  0  0  0  0
 13 14  2  0  0  0  0
 15 14  1  0  0  0  0
 15  1  1  0  0  0  0
 16 15  2  0  0  0  0
 17 11  1  0  0  0  0
 18 12  1  0  0  0  0
 20  6  1  0  0  0  0
 21 20  1  0  0  0  0
 21 26  1  0  0  0  0
 22 21  2  0  0  0  0
 23 24  2  0  0  0  0
 23 22  1  0  0  0  0
 24 25  1  0  0  0  0
 25 20  2  0  0  0  0
 27 22  1  0  0  0  0
 28 24  1  0  0  0  0
 29 28  1  0  0  0  0
 30 29  1  0  0  0  0
 31 32  1  0  0  0  0
 31 30  1  0  0  0  0
 32 33  1  0  0  0  0
 33 28  1  0  0  0  0
M  END
>  <minimizedAffinity>
-5.61944532

>  <minimizedRMSD>
0.600323677

$$$$
