
 OpenBabel03212520443D

 15 16  0  0  0  0  0  0  0  0999 V2000
   40.1760   81.9930   60.8820 C   0  0  0  0  0  0  0  0  0  0  0  0
   40.2640   82.8310   59.7430 C   0  0  0  0  0  0  0  0  0  0  0  0
   39.6120   84.0790   59.7890 C   0  0  0  0  0  0  0  0  0  0  0  0
   38.9380   84.4030   60.9220 N   0  0  0  0  0  0  0  0  0  0  0  0
   38.8690   83.5800   62.0000 C   0  0  0  0  0  0  0  0  0  0  0  0
   39.4870   82.3850   61.9700 N   0  0  0  0  0  0  0  0  0  0  0  0
   40.8050   82.5600   58.8480 H   0  0  0  0  0  0  0  0  0  0  0  0
   39.6580   84.7400   58.9440 H   0  0  0  0  0  0  0  0  0  0  0  0
   38.3090   83.9080   62.8730 H   0  0  0  0  0  0  0  0  0  0  0  0
   40.8760   80.6810   60.8000 C   0  0  0  0  0  3  0  0  0  0  0  0
   40.3570   79.8160   61.9000 C   0  0  0  0  0  2  0  0  0  0  0  0
   41.1090   78.5530   62.1360 C   0  0  0  0  0  2  0  0  0  0  0  0
   42.5500   78.5820   61.7720 C   0  0  0  0  0  2  0  0  0  0  0  0
   43.1030   79.9820   61.7220 C   0  0  0  0  0  2  0  0  0  0  0  0
   42.3470   80.8920   60.8000 C   0  0  0  0  0  2  0  0  0  0  0  0
  1  6  1  0  0  0  0
  2  3  1  0  0  0  0
  2  1  2  0  0  0  0
  3  4  2  0  0  0  0
  4  5  1  0  0  0  0
  5  9  1  0  0  0  0
  6  5  2  0  0  0  0
  7  2  1  0  0  0  0
  8  3  1  0  0  0  0
 10 15  1  0  0  0  0
 10  1  1  0  0  0  0
 10 11  1  0  0  0  0
 11 12  1  0  0  0  0
 13 12  1  0  0  0  0
 14 13  1  0  0  0  0
 15 14  1  0  0  0  0
M  END
>  <minimizedAffinity>
-4.54628706

>  <minimizedRMSD>
0.20396997

$$$$
