
 OpenBabel03212520273D

 25 27  0  0  0  0  0  0  0  0999 V2000
   42.5000   84.9450   60.9680 C   0  0  0  0  0  0  0  0  0  0  0  0
   43.5860   85.3530   61.7510 C   0  0  0  0  0  0  0  0  0  0  0  0
   44.1700   86.3200   60.9150 C   0  0  0  0  0  0  0  0  0  0  0  0
   43.4680   86.4470   59.7540 N   0  0  0  0  0  0  0  0  0  0  0  0
   42.4510   85.5940   59.8140 N   0  0  0  0  0  0  0  0  0  0  0  0
   43.9290   85.0510   62.7180 H   0  0  0  0  0  0  0  0  0  0  0  0
   45.0630   86.9070   61.1330 H   0  0  0  0  0  0  0  0  0  0  0  0
   41.0560   81.7210   62.1850 C   0  0  0  0  0  0  0  0  0  0  0  0
   42.0080   82.6680   61.7910 C   0  0  0  0  0  0  0  0  0  0  0  0
   41.5500   83.9310   61.3860 C   0  0  0  0  0  0  0  0  0  0  0  0
   40.2220   84.1870   61.3910 N   0  0  0  0  0  0  0  0  0  0  0  0
   39.3310   83.2360   61.7820 C   0  0  0  0  0  0  0  0  0  0  0  0
   39.7470   82.0240   62.1730 N   0  0  0  0  0  0  0  0  0  0  0  0
   41.5320   80.7930   62.4730 H   0  0  0  0  0  0  0  0  0  0  0  0
   43.0810   82.5100   61.7700 H   0  0  0  0  0  0  0  0  0  0  0  0
   38.2720   83.4410   61.7860 H   0  0  0  0  0  0  0  0  0  0  0  0
   43.7880   87.3450   58.6750 C   0  0  0  0  0  0  0  0  0  0  0  0
   43.6950   88.3860   58.9760 H   0  0  0  0  0  0  0  0  0  0  0  0
   43.0570   87.1200   57.8490 H   0  0  0  0  0  0  0  0  0  0  0  0
   45.1610   86.9830   58.1650 C   0  0  0  0  0  3  0  0  0  0  0  0
   45.7700   88.0800   57.3240 C   0  0  0  0  0  2  0  0  0  0  0  0
   47.2560   87.7500   57.2510 C   0  0  0  0  0  2  0  0  0  0  0  0
   47.4790   86.4100   56.6070 C   0  0  0  0  0  2  0  0  0  0  0  0
   46.5940   85.3200   57.1130 C   0  0  0  0  0  2  0  0  0  0  0  0
   45.1500   85.7450   57.3150 C   0  0  0  0  0  2  0  0  0  0  0  0
  1 10  1  0  0  0  0
  1  2  1  0  0  0  0
  2  6  1  0  0  0  0
  3  7  1  0  0  0  0
  3  2  2  0  0  0  0
  4  5  1  0  0  0  0
  4  3  1  0  0  0  0
  5  1  2  0  0  0  0
  8 14  1  0  0  0  0
  9  8  2  0  0  0  0
 10 11  2  0  0  0  0
 10  9  1  0  0  0  0
 11 12  1  0  0  0  0
 12 16  1  0  0  0  0
 12 13  2  0  0  0  0
 13  8  1  0  0  0  0
 15  9  1  0  0  0  0
 17 18  1  0  0  0  0
 17  4  1  0  0  0  0
 19 17  1  0  0  0  0
 20 17  1  0  0  0  0
 21 20  1  0  0  0  0
 22 21  1  0  0  0  0
 23 24  1  0  0  0  0
 23 22  1  0  0  0  0
 24 25  1  0  0  0  0
 25 20  1  0  0  0  0
M  END
>  <minimizedAffinity>
-4.17500591

>  <minimizedRMSD>
1.07924724

$$$$
