
 OpenBabel03212520493D

 25 27  0  0  0  0  0  0  0  0999 V2000
   41.8130   83.9430   61.2590 C   0  0  0  0  0  0  0  0  0  0  0  0
   41.2190   84.2500   62.4740 C   0  0  0  0  0  0  0  0  0  0  0  0
   40.7140   83.2280   63.3000 C   0  0  0  0  0  0  0  0  0  0  0  0
   40.8050   81.9420   62.9150 N   0  0  0  0  0  0  0  0  0  0  0  0
   41.3810   81.6630   61.7420 C   0  0  0  0  0  0  0  0  0  0  0  0
   41.8780   82.6330   60.9200 N   0  0  0  0  0  0  0  0  0  0  0  0
   41.1570   85.2880   62.7620 H   0  0  0  0  0  0  0  0  0  0  0  0
   40.2660   83.5410   64.2290 H   0  0  0  0  0  0  0  0  0  0  0  0
   43.7770   86.7390   59.9840 C   0  0  0  0  0  0  0  0  0  0  0  0
   43.2550   86.8790   58.6810 C   0  0  0  0  0  0  0  0  0  0  0  0
   42.2430   86.0230   58.2480 C   0  0  0  0  0  0  0  0  0  0  0  0
   41.8280   85.0910   59.1520 N   0  0  0  0  0  0  0  0  0  0  0  0
   42.3420   84.9800   60.3860 C   0  0  0  0  0  0  0  0  0  0  0  0
   43.3020   85.7870   60.8080 N   0  0  0  0  0  0  0  0  0  0  0  0
   44.7930   87.6810   60.2640 N   0  0  0  0  0  0  0  0  0  0  0  0
   43.5780   87.6140   57.9600 H   0  0  0  0  0  0  0  0  0  0  0  0
   41.8300   86.1110   57.2580 H   0  0  0  0  0  0  0  0  0  0  0  0
   45.7710   87.7850   59.9140 H   0  0  0  0  0  0  0  0  0  0  0  0
   44.4600   88.4010   60.9660 H   0  0  0  0  0  0  0  0  0  0  0  0
   41.5100   80.2700   61.2640 C   0  0  0  0  0  3  0  0  0  0  0  0
   40.5040   79.3990   61.9520 C   0  0  0  0  0  2  0  0  0  0  0  0
   40.7350   77.9340   61.7910 C   0  0  0  0  0  2  0  0  0  0  0  0
   42.1670   77.5160   61.7650 C   0  0  0  0  0  2  0  0  0  0  0  0
   42.9850   78.3980   60.8480 C   0  0  0  0  0  2  0  0  0  0  0  0
   42.9280   79.7960   61.4750 C   0  0  0  0  0  2  0  0  0  0  0  0
  1  2  1  0  0  0  0
  2  7  1  0  0  0  0
  2  3  2  0  0  0  0
  3  8  1  0  0  0  0
  4  3  1  0  0  0  0
  5  4  2  0  0  0  0
  6  1  2  0  0  0  0
  6  5  1  0  0  0  0
  9 15  1  0  0  0  0
  9 14  1  0  0  0  0
 10  9  2  0  0  0  0
 11 10  1  0  0  0  0
 11 12  2  0  0  0  0
 12 13  1  0  0  0  0
 13 14  2  0  0  0  0
 13  1  1  0  0  0  0
 15 19  1  0  0  0  0
 16 10  1  0  0  0  0
 17 11  1  0  0  0  0
 18 15  1  0  0  0  0
 20 25  1  0  0  0  0
 20  5  1  0  0  0  0
 20 21  1  0  0  0  0
 22 21  1  0  0  0  0
 23 22  1  0  0  0  0
 24 25  1  0  0  0  0
 24 23  1  0  0  0  0
M  END
>  <minimizedAffinity>
-5.03405094

>  <minimizedRMSD>
0.874077618

$$$$
