
 OpenBabel03212520273D

 25 27  0  0  0  0  0  0  0  0999 V2000
   42.4230   84.8610   60.9690 C   0  0  0  0  0  0  0  0  0  0  0  0
   43.5030   85.2090   61.7900 C   0  0  0  0  0  0  0  0  0  0  0  0
   44.1280   86.1930   61.0050 C   0  0  0  0  0  0  0  0  0  0  0  0
   43.4540   86.3850   59.8370 N   0  0  0  0  0  0  0  0  0  0  0  0
   42.4160   85.5570   59.8410 N   0  0  0  0  0  0  0  0  0  0  0  0
   43.8170   84.8600   62.7510 H   0  0  0  0  0  0  0  0  0  0  0  0
   45.0310   86.7480   61.2650 H   0  0  0  0  0  0  0  0  0  0  0  0
   40.8470   81.5810   61.8140 C   0  0  0  0  0  0  0  0  0  0  0  0
   41.8290   82.5150   61.4690 C   0  0  0  0  0  0  0  0  0  0  0  0
   41.4390   83.8560   61.3260 C   0  0  0  0  0  0  0  0  0  0  0  0
   40.1450   84.1950   61.5250 N   0  0  0  0  0  0  0  0  0  0  0  0
   39.2230   83.2520   61.8600 C   0  0  0  0  0  0  0  0  0  0  0  0
   39.5740   81.9670   62.0010 N   0  0  0  0  0  0  0  0  0  0  0  0
   41.2710   80.5880   61.8930 H   0  0  0  0  0  0  0  0  0  0  0  0
   42.8770   82.2930   61.2990 H   0  0  0  0  0  0  0  0  0  0  0  0
   38.1910   83.5230   62.0180 H   0  0  0  0  0  0  0  0  0  0  0  0
   43.8190   87.3160   58.8020 C   0  0  0  0  0  0  0  0  0  0  0  0
   43.8080   88.3430   59.1610 H   0  0  0  0  0  0  0  0  0  0  0  0
   43.0590   87.1910   57.9810 H   0  0  0  0  0  0  0  0  0  0  0  0
   45.1530   86.8850   58.2430 C   0  0  0  0  0  3  0  0  0  0  0  0
   45.8020   87.9640   57.4070 C   0  0  0  0  0  2  0  0  0  0  0  0
   47.2630   87.5490   57.2810 C   0  0  0  0  0  2  0  0  0  0  0  0
   47.3870   86.2120   56.6030 C   0  0  0  0  0  2  0  0  0  0  0  0
   46.4530   85.1660   57.1120 C   0  0  0  0  0  2  0  0  0  0  0  0
   45.0430   85.6710   57.3680 C   0  0  0  0  0  2  0  0  0  0  0  0
  1 10  1  0  0  0  0
  1  2  1  0  0  0  0
  2  6  1  0  0  0  0
  3  7  1  0  0  0  0
  3  2  2  0  0  0  0
  4  5  1  0  0  0  0
  4  3  1  0  0  0  0
  5  1  2  0  0  0  0
  8 14  1  0  0  0  0
  8 13  1  0  0  0  0
  9  8  2  0  0  0  0
 10  9  1  0  0  0  0
 10 11  2  0  0  0  0
 11 12  1  0  0  0  0
 12 13  2  0  0  0  0
 12 16  1  0  0  0  0
 15  9  1  0  0  0  0
 17 18  1  0  0  0  0
 17  4  1  0  0  0  0
 19 17  1  0  0  0  0
 20 17  1  0  0  0  0
 21 20  1  0  0  0  0
 22 21  1  0  0  0  0
 23 24  1  0  0  0  0
 23 22  1  0  0  0  0
 24 25  1  0  0  0  0
 25 20  1  0  0  0  0
M  END
>  <minimizedAffinity>
-4.17308235

>  <minimizedRMSD>
0.786126435

$$$$
