
 OpenBabel03212520053D

 38 42  0  0  0  0  0  0  0  0999 V2000
   40.7680   81.9280   57.0550 C   0  0  0  0  0  0  0  0  0  0  0  0
   41.8850   82.4760   56.4070 C   0  0  0  0  0  0  0  0  0  0  0  0
   42.6870   83.3260   57.1230 C   0  0  0  0  0  0  0  0  0  0  0  0
   42.3870   83.6120   58.4220 N   0  0  0  0  0  0  0  0  0  0  0  0
   41.3000   83.0660   59.0270 C   0  0  0  0  0  0  0  0  0  0  0  0
   40.4800   82.2180   58.3400 N   0  0  0  0  0  0  0  0  0  0  0  0
   40.0490   81.2500   56.6210 H   0  0  0  0  0  0  0  0  0  0  0  0
   41.9330   82.0780   55.4210 H   0  0  0  0  0  0  0  0  0  0  0  0
   39.7130   83.1210   60.8870 C   0  0  0  0  0  0  0  0  0  0  0  0
   41.0100   83.3450   60.4250 C   0  0  0  0  0  0  0  0  0  0  0  0
   42.0110   83.8030   61.2840 C   0  0  0  0  0  0  0  0  0  0  0  0
   41.7440   84.0500   62.6230 C   0  0  0  0  0  0  0  0  0  0  0  0
   42.4290   84.4770   63.6960 N   0  0  0  0  0  0  0  0  0  0  0  0
   41.6400   84.5290   64.7780 C   0  0  0  0  0  0  0  0  0  0  0  0
   40.4400   84.1170   64.3370 N   0  0  0  0  0  0  0  0  0  0  0  0
   40.4660   83.8170   63.0250 C   0  0  0  0  0  0  0  0  0  0  0  0
   39.4270   83.3640   62.2340 C   0  0  0  0  0  0  0  0  0  0  0  0
   38.9110   82.7660   60.2500 H   0  0  0  0  0  0  0  0  0  0  0  0
   43.0180   83.9760   60.9210 H   0  0  0  0  0  0  0  0  0  0  0  0
   43.4590   84.7200   63.6130 H   0  0  0  0  0  0  0  0  0  0  0  0
   41.9640   84.8410   65.7590 H   0  0  0  0  0  0  0  0  0  0  0  0
   38.4520   83.2130   62.6480 H   0  0  0  0  0  0  0  0  0  0  0  0
   42.6960   83.4050   54.1420 Cl  0  0  0  0  0  0  0  0  0  0  0  0
   43.9920   84.0520   55.1580 C   0  0  0  0  0  0  0  0  0  0  0  0
   43.8450   83.9420   56.5190 C   0  0  0  0  0  0  0  0  0  0  0  0
   44.9030   84.4790   57.2420 C   0  0  0  0  0  0  0  0  0  0  0  0
   46.0060   85.0740   56.6680 C   0  0  0  0  0  0  0  0  0  0  0  0
   46.0880   85.1520   55.2830 C   0  0  0  0  0  0  0  0  0  0  0  0
   47.4860   85.8970   54.5570 Cl  0  0  0  0  0  0  0  0  0  0  0  0
   45.0770   84.6390   54.5380 C   0  0  0  0  0  0  0  0  0  0  0  0
   44.8730   84.4370   58.3220 H   0  0  0  0  0  0  0  0  0  0  0  0
   46.7930   85.4730   57.2920 H   0  0  0  0  0  0  0  0  0  0  0  0
   45.0750   84.6740   53.0580 C   0  0  0  0  0  3  0  0  0  0  0  0
   44.0810   85.6410   52.4610 C   0  0  0  0  0  2  0  0  0  0  0  0
   44.2550   85.6020   50.9670 C   0  0  0  0  0  2  0  0  0  0  0  0
   45.4760   84.8940   50.4850 C   0  0  0  0  0  2  0  0  0  0  0  0
   45.5980   83.4850   51.0200 C   0  0  0  0  0  2  0  0  0  0  0  0
   44.9120   83.3580   52.3780 C   0  0  0  0  0  2  0  0  0  0  0  0
  1  6  1  0  0  0  0
  2  1  2  0  0  0  0
  2  3  1  0  0  0  0
  3  4  2  0  0  0  0
  4  5  1  0  0  0  0
  5 10  1  0  0  0  0
  6  5  2  0  0  0  0
  7  1  1  0  0  0  0
  8  2  1  0  0  0  0
  9 17  1  0  0  0  0
 10  9  2  0  0  0  0
 10 11  1  0  0  0  0
 11 12  2  0  0  0  0
 12 16  1  0  0  0  0
 12 13  1  0  0  0  0
 13 14  1  0  0  0  0
 14 21  1  0  0  0  0
 15 14  2  0  0  0  0
 16 15  1  0  0  0  0
 17 22  1  0  0  0  0
 17 16  2  0  0  0  0
 18  9  1  0  0  0  0
 19 11  1  0  0  0  0
 20 13  1  0  0  0  0
 23 24  1  0  0  0  0
 24 25  1  0  0  0  0
 25  3  1  0  0  0  0
 25 26  2  0  0  0  0
 26 31  1  0  0  0  0
 27 26  1  0  0  0  0
 27 32  1  0  0  0  0
 28 27  2  0  0  0  0
 29 28  1  0  0  0  0
 30 24  2  0  0  0  0
 30 28  1  0  0  0  0
 33 30  1  0  0  0  0
 34 33  1  0  0  0  0
 35 34  1  0  0  0  0
 36 35  1  0  0  0  0
 36 37  1  0  0  0  0
 37 38  1  0  0  0  0
 38 33  1  0  0  0  0
M  END
>  <minimizedAffinity>
-4.94194508

>  <minimizedRMSD>
0.491469592

$$$$
