
 OpenBabel03212520493D

 25 27  0  0  0  0  0  0  0  0999 V2000
   41.8150   83.9720   61.2610 C   0  0  0  0  0  0  0  0  0  0  0  0
   41.0410   84.2970   62.3650 C   0  0  0  0  0  0  0  0  0  0  0  0
   40.5530   83.2880   63.2150 C   0  0  0  0  0  0  0  0  0  0  0  0
   40.8340   81.9970   62.9620 N   0  0  0  0  0  0  0  0  0  0  0  0
   41.5810   81.7000   61.8940 C   0  0  0  0  0  0  0  0  0  0  0  0
   42.0670   82.6580   61.0520 N   0  0  0  0  0  0  0  0  0  0  0  0
   40.8290   85.3380   62.5490 H   0  0  0  0  0  0  0  0  0  0  0  0
   39.9590   83.6140   64.0540 H   0  0  0  0  0  0  0  0  0  0  0  0
   43.7650   86.7450   59.9140 C   0  0  0  0  0  0  0  0  0  0  0  0
   43.2200   86.8690   58.6190 C   0  0  0  0  0  0  0  0  0  0  0  0
   42.1970   86.0110   58.2160 C   0  0  0  0  0  0  0  0  0  0  0  0
   41.7960   85.0930   59.1390 N   0  0  0  0  0  0  0  0  0  0  0  0
   42.3310   84.9960   60.3650 C   0  0  0  0  0  0  0  0  0  0  0  0
   43.3010   85.8040   60.7590 N   0  0  0  0  0  0  0  0  0  0  0  0
   44.7890   87.6870   60.1640 N   0  0  0  0  0  0  0  0  0  0  0  0
   43.5320   87.5940   57.8820 H   0  0  0  0  0  0  0  0  0  0  0  0
   41.7670   86.0880   57.2320 H   0  0  0  0  0  0  0  0  0  0  0  0
   45.7600   87.7820   59.7950 H   0  0  0  0  0  0  0  0  0  0  0  0
   44.4710   88.4160   60.8610 H   0  0  0  0  0  0  0  0  0  0  0  0
   41.9230   80.3000   61.5630 C   0  0  0  0  0  3  0  0  0  0  0  0
   40.9920   79.3650   62.2720 C   0  0  0  0  0  2  0  0  0  0  0  0
   41.4210   77.9380   62.2690 C   0  0  0  0  0  2  0  0  0  0  0  0
   42.8950   77.7170   62.3690 C   0  0  0  0  0  2  0  0  0  0  0  0
   43.6550   78.6160   61.4200 C   0  0  0  0  0  2  0  0  0  0  0  0
   43.3720   80.0440   61.9030 C   0  0  0  0  0  2  0  0  0  0  0  0
  1  2  1  0  0  0  0
  2  7  1  0  0  0  0
  2  3  2  0  0  0  0
  3  8  1  0  0  0  0
  4  3  1  0  0  0  0
  5  4  2  0  0  0  0
  6  1  2  0  0  0  0
  6  5  1  0  0  0  0
  9 15  1  0  0  0  0
  9 14  1  0  0  0  0
 10  9  2  0  0  0  0
 11 10  1  0  0  0  0
 11 12  2  0  0  0  0
 12 13  1  0  0  0  0
 13 14  2  0  0  0  0
 13  1  1  0  0  0  0
 15 19  1  0  0  0  0
 16 10  1  0  0  0  0
 17 11  1  0  0  0  0
 18 15  1  0  0  0  0
 20  5  1  0  0  0  0
 20 25  1  0  0  0  0
 20 21  1  0  0  0  0
 22 21  1  0  0  0  0
 22 23  1  0  0  0  0
 24 25  1  0  0  0  0
 24 23  1  0  0  0  0
M  END
>  <minimizedAffinity>
-5.0741744

>  <minimizedRMSD>
0.67476207

$$$$
