
 OpenBabel03212520043D

 38 42  0  0  0  0  0  0  0  0999 V2000
   40.7140   81.9090   57.0560 C   0  0  0  0  0  0  0  0  0  0  0  0
   41.8710   82.3830   56.4200 C   0  0  0  0  0  0  0  0  0  0  0  0
   42.7170   83.1810   57.1460 C   0  0  0  0  0  0  0  0  0  0  0  0
   42.4220   83.4870   58.4410 N   0  0  0  0  0  0  0  0  0  0  0  0
   41.2950   83.0120   59.0330 C   0  0  0  0  0  0  0  0  0  0  0  0
   40.4310   82.2180   58.3380 N   0  0  0  0  0  0  0  0  0  0  0  0
   39.9590   81.2780   56.6140 H   0  0  0  0  0  0  0  0  0  0  0  0
   41.9050   81.9820   55.4350 H   0  0  0  0  0  0  0  0  0  0  0  0
   39.7060   83.1130   60.8900 C   0  0  0  0  0  0  0  0  0  0  0  0
   41.0080   83.3110   60.4280 C   0  0  0  0  0  0  0  0  0  0  0  0
   42.0140   83.7630   61.2830 C   0  0  0  0  0  0  0  0  0  0  0  0
   41.7500   84.0280   62.6190 C   0  0  0  0  0  0  0  0  0  0  0  0
   42.4400   84.4560   63.6890 N   0  0  0  0  0  0  0  0  0  0  0  0
   41.6500   84.5320   64.7690 C   0  0  0  0  0  0  0  0  0  0  0  0
   40.4450   84.1350   64.3300 N   0  0  0  0  0  0  0  0  0  0  0  0
   40.4670   83.8200   63.0220 C   0  0  0  0  0  0  0  0  0  0  0  0
   39.4230   83.3750   62.2340 C   0  0  0  0  0  0  0  0  0  0  0  0
   38.9010   82.7640   60.2560 H   0  0  0  0  0  0  0  0  0  0  0  0
   43.0250   83.9160   60.9200 H   0  0  0  0  0  0  0  0  0  0  0  0
   43.4730   84.6820   63.6050 H   0  0  0  0  0  0  0  0  0  0  0  0
   41.9780   84.8500   65.7470 H   0  0  0  0  0  0  0  0  0  0  0  0
   38.4450   83.2440   62.6480 H   0  0  0  0  0  0  0  0  0  0  0  0
   42.6780   83.4670   54.1770 Cl  0  0  0  0  0  0  0  0  0  0  0  0
   44.0510   83.9110   55.2010 C   0  0  0  0  0  0  0  0  0  0  0  0
   43.9200   83.7210   56.5540 C   0  0  0  0  0  0  0  0  0  0  0  0
   45.0390   84.1010   57.2850 C   0  0  0  0  0  0  0  0  0  0  0  0
   46.1850   84.6230   56.7230 C   0  0  0  0  0  0  0  0  0  0  0  0
   46.2480   84.7890   55.3450 C   0  0  0  0  0  0  0  0  0  0  0  0
   47.6990   85.4420   54.6350 Cl  0  0  0  0  0  0  0  0  0  0  0  0
   45.1770   84.4310   54.5930 C   0  0  0  0  0  0  0  0  0  0  0  0
   45.0270   83.9870   58.3590 H   0  0  0  0  0  0  0  0  0  0  0  0
   47.0200   84.8980   57.3530 H   0  0  0  0  0  0  0  0  0  0  0  0
   45.1500   84.5680   53.1200 C   0  0  0  0  0  3  0  0  0  0  0  0
   44.2110   85.6370   52.6140 C   0  0  0  0  0  2  0  0  0  0  0  0
   44.3530   85.6920   51.1170 C   0  0  0  0  0  2  0  0  0  0  0  0
   45.5160   84.9420   50.5600 C   0  0  0  0  0  2  0  0  0  0  0  0
   45.5560   83.4950   50.9940 C   0  0  0  0  0  2  0  0  0  0  0  0
   44.8890   83.3170   52.3550 C   0  0  0  0  0  2  0  0  0  0  0  0
  1  6  1  0  0  0  0
  2  1  2  0  0  0  0
  2  3  1  0  0  0  0
  3  4  2  0  0  0  0
  4  5  1  0  0  0  0
  5 10  1  0  0  0  0
  6  5  2  0  0  0  0
  7  1  1  0  0  0  0
  8  2  1  0  0  0  0
  9 17  1  0  0  0  0
 10  9  2  0  0  0  0
 10 11  1  0  0  0  0
 11 12  2  0  0  0  0
 12 16  1  0  0  0  0
 12 13  1  0  0  0  0
 13 14  1  0  0  0  0
 14 21  1  0  0  0  0
 15 14  2  0  0  0  0
 16 15  1  0  0  0  0
 17 22  1  0  0  0  0
 17 16  2  0  0  0  0
 18  9  1  0  0  0  0
 19 11  1  0  0  0  0
 20 13  1  0  0  0  0
 23 24  1  0  0  0  0
 24 25  1  0  0  0  0
 25  3  1  0  0  0  0
 25 26  2  0  0  0  0
 26 31  1  0  0  0  0
 27 26  1  0  0  0  0
 27 32  1  0  0  0  0
 28 27  2  0  0  0  0
 29 28  1  0  0  0  0
 30 24  2  0  0  0  0
 30 28  1  0  0  0  0
 33 30  1  0  0  0  0
 34 33  1  0  0  0  0
 35 34  1  0  0  0  0
 36 37  1  0  0  0  0
 36 35  1  0  0  0  0
 37 38  1  0  0  0  0
 38 33  1  0  0  0  0
M  END
>  <minimizedAffinity>
-4.87537479

>  <minimizedRMSD>
0.520714164

$$$$
