
 OpenBabel03212520443D

 15 16  0  0  0  0  0  0  0  0999 V2000
   40.1750   81.9930   60.8830 C   0  0  0  0  0  0  0  0  0  0  0  0
   40.2630   82.8310   59.7440 C   0  0  0  0  0  0  0  0  0  0  0  0
   39.6120   84.0780   59.7900 C   0  0  0  0  0  0  0  0  0  0  0  0
   38.9380   84.4030   60.9220 N   0  0  0  0  0  0  0  0  0  0  0  0
   38.8680   83.5810   62.0000 C   0  0  0  0  0  0  0  0  0  0  0  0
   39.4860   82.3850   61.9710 N   0  0  0  0  0  0  0  0  0  0  0  0
   40.8040   82.5580   58.8490 H   0  0  0  0  0  0  0  0  0  0  0  0
   39.6580   84.7400   58.9440 H   0  0  0  0  0  0  0  0  0  0  0  0
   38.3080   83.9080   62.8730 H   0  0  0  0  0  0  0  0  0  0  0  0
   40.8740   80.6800   60.8010 C   0  0  0  0  0  3  0  0  0  0  0  0
   40.3570   79.8150   61.9020 C   0  0  0  0  0  2  0  0  0  0  0  0
   41.1080   78.5520   62.1370 C   0  0  0  0  0  2  0  0  0  0  0  0
   42.5480   78.5800   61.7720 C   0  0  0  0  0  2  0  0  0  0  0  0
   43.1030   79.9810   61.7210 C   0  0  0  0  0  2  0  0  0  0  0  0
   42.3450   80.8910   60.7990 C   0  0  0  0  0  2  0  0  0  0  0  0
  1  6  1  0  0  0  0
  2  3  1  0  0  0  0
  2  1  2  0  0  0  0
  3  4  2  0  0  0  0
  4  5  1  0  0  0  0
  5  9  1  0  0  0  0
  6  5  2  0  0  0  0
  7  2  1  0  0  0  0
  8  3  1  0  0  0  0
 10  1  1  0  0  0  0
 10 11  1  0  0  0  0
 11 12  1  0  0  0  0
 13 12  1  0  0  0  0
 14 13  1  0  0  0  0
 15 10  1  0  0  0  0
 15 14  1  0  0  0  0
M  END
>  <minimizedAffinity>
-4.54573298

>  <minimizedRMSD>
0.699982405

$$$$
