
 OpenBabel03212521083D

 33 36  0  0  0  0  0  0  0  0999 V2000
   40.1520   75.0680   58.1990 C   0  0  0  0  0  0  0  0  0  0  0  0
   39.1680   75.9440   57.7510 C   0  0  0  0  0  0  0  0  0  0  0  0
   39.0340   77.2160   58.2770 C   0  0  0  0  0  0  0  0  0  0  0  0
   39.8990   77.6350   59.2730 C   0  0  0  0  0  0  0  0  0  0  0  0
   40.8850   76.7690   59.7280 C   0  0  0  0  0  0  0  0  0  0  0  0
   41.0200   75.4940   59.2020 C   0  0  0  0  0  0  0  0  0  0  0  0
   38.4610   75.6560   56.9650 H   0  0  0  0  0  0  0  0  0  0  0  0
   38.2820   77.9200   57.9520 H   0  0  0  0  0  0  0  0  0  0  0  0
   39.8720   78.6160   59.7480 H   0  0  0  0  0  0  0  0  0  0  0  0
   41.5700   77.0880   60.5110 H   0  0  0  0  0  0  0  0  0  0  0  0
   39.5630   71.5130   57.6050 C   0  0  0  0  0  0  0  0  0  0  0  0
   40.4130   71.2220   56.5530 C   0  0  0  0  0  0  0  0  0  0  0  0
   41.2010   72.2680   56.0410 C   0  0  0  0  0  0  0  0  0  0  0  0
   41.0940   73.5000   56.5940 N   0  0  0  0  0  0  0  0  0  0  0  0
   40.2530   73.7510   57.6220 C   0  0  0  0  0  0  0  0  0  0  0  0
   39.5060   72.7570   58.1070 N   0  0  0  0  0  0  0  0  0  0  0  0
   38.8960   70.7950   58.0980 H   0  0  0  0  0  0  0  0  0  0  0  0
   40.4050   70.2000   56.2010 H   0  0  0  0  0  0  0  0  0  0  0  0
   41.8510   72.0190   55.2270 H   0  0  0  0  0  0  0  0  0  0  0  0
   42.0590   74.6280   59.7060 C   0  0  0  0  0  0  0  0  0  0  0  0
   43.3280   75.0510   59.2850 C   0  0  0  0  0  0  0  0  0  0  0  0
   44.4680   74.3420   59.6670 C   0  0  0  0  0  0  0  0  0  0  0  0
   44.2920   73.2590   60.4410 N   0  0  0  0  0  0  0  0  0  0  0  0
   43.0600   72.8600   60.8430 C   0  0  0  0  0  0  0  0  0  0  0  0
   41.9660   73.5390   60.4760 N   0  0  0  0  0  0  0  0  0  0  0  0
   43.5400   75.9080   58.6620 H   0  0  0  0  0  0  0  0  0  0  0  0
   45.4700   74.6460   59.3550 H   0  0  0  0  0  0  0  0  0  0  0  0
   42.9200   71.6530   61.7010 C   0  0  0  0  0  3  0  0  0  0  0  0
   41.5180   71.5540   62.2810 C   0  0  0  0  0  2  0  0  0  0  0  0
   41.5880   70.4920   63.3640 C   0  0  0  0  0  2  0  0  0  0  0  0
   41.8610   69.1750   62.6400 C   0  0  0  0  0  2  0  0  0  0  0  0
   43.1600   69.2320   61.8960 C   0  0  0  0  0  2  0  0  0  0  0  0
   43.2740   70.3930   60.9540 C   0  0  0  0  0  2  0  0  0  0  0  0
  1  6  1  0  0  0  0
  2  1  2  0  0  0  0
  2  3  1  0  0  0  0
  3  4  2  0  0  0  0
  4  5  1  0  0  0  0
  4  9  1  0  0  0  0
  5 10  1  0  0  0  0
  6 20  1  0  0  0  0
  6  5  2  0  0  0  0
  7  2  1  0  0  0  0
  8  3  1  0  0  0  0
 11 17  1  0  0  0  0
 11 16  1  0  0  0  0
 12 11  2  0  0  0  0
 13 12  1  0  0  0  0
 13 14  2  0  0  0  0
 14 15  1  0  0  0  0
 15 16  2  0  0  0  0
 15  1  1  0  0  0  0
 18 12  1  0  0  0  0
 19 13  1  0  0  0  0
 20 25  1  0  0  0  0
 21 22  1  0  0  0  0
 21 20  2  0  0  0  0
 22 23  2  0  0  0  0
 23 24  1  0  0  0  0
 24 28  1  0  0  0  0
 25 24  2  0  0  0  0
 26 21  1  0  0  0  0
 27 22  1  0  0  0  0
 28 29  1  0  0  0  0
 29 30  1  0  0  0  0
 31 30  1  0  0  0  0
 32 31  1  0  0  0  0
 33 28  1  0  0  0  0
 33 32  1  0  0  0  0
M  END
>  <minimizedAffinity>
-5.97067022

$$$$

 OpenBabel03212521083D

 33 36  0  0  0  0  0  0  0  0999 V2000
   41.1550   74.5780   59.9420 C   0  0  0  0  0  0  0  0  0  0  0  0
   40.6550   75.8430   60.2380 C   0  0  0  0  0  0  0  0  0  0  0  0
   39.4260   76.0120   60.8490 C   0  0  0  0  0  0  0  0  0  0  0  0
   38.6690   74.9000   61.1760 C   0  0  0  0  0  0  0  0  0  0  0  0
   39.1590   73.6330   60.8840 C   0  0  0  0  0  0  0  0  0  0  0  0
   40.3910   73.4620   60.2720 C   0  0  0  0  0  0  0  0  0  0  0  0
   41.2180   76.7510   59.9980 H   0  0  0  0  0  0  0  0  0  0  0  0
   39.0080   76.9780   61.0930 H   0  0  0  0  0  0  0  0  0  0  0  0
   37.6920   74.9320   61.6570 H   0  0  0  0  0  0  0  0  0  0  0  0
   38.5730   72.7520   61.1360 H   0  0  0  0  0  0  0  0  0  0  0  0
   43.7250   74.5390   57.3460 C   0  0  0  0  0  0  0  0  0  0  0  0
   44.8750   74.2180   58.0450 C   0  0  0  0  0  0  0  0  0  0  0  0
   44.7630   74.0110   59.4310 C   0  0  0  0  0  0  0  0  0  0  0  0
   43.5470   74.1350   60.0150 N   0  0  0  0  0  0  0  0  0  0  0  0
   42.4420   74.4510   59.3040 C   0  0  0  0  0  0  0  0  0  0  0  0
   42.5510   74.6460   57.9880 N   0  0  0  0  0  0  0  0  0  0  0  0
   43.6700   74.7240   56.2670 H   0  0  0  0  0  0  0  0  0  0  0  0
   45.7840   74.1490   57.4620 H   0  0  0  0  0  0  0  0  0  0  0  0
   45.6670   73.7640   59.9500 H   0  0  0  0  0  0  0  0  0  0  0  0
   40.8590   72.1270   59.9880 C   0  0  0  0  0  0  0  0  0  0  0  0
   40.5270   71.7330   58.6850 C   0  0  0  0  0  0  0  0  0  0  0  0
   40.8920   70.4700   58.2170 C   0  0  0  0  0  0  0  0  0  0  0  0
   41.5630   69.6680   59.0610 N   0  0  0  0  0  0  0  0  0  0  0  0
   41.8790   70.0600   60.3190 C   0  0  0  0  0  0  0  0  0  0  0  0
   41.5280   71.2720   60.7680 N   0  0  0  0  0  0  0  0  0  0  0  0
   39.9900   72.3240   57.9570 H   0  0  0  0  0  0  0  0  0  0  0  0
   40.6470   70.1330   57.2070 H   0  0  0  0  0  0  0  0  0  0  0  0
   42.6240   69.1340   61.2140 C   0  0  0  0  0  3  0  0  0  0  0  0
   42.6290   69.6440   62.6470 C   0  0  0  0  0  2  0  0  0  0  0  0
   43.6610   68.8090   63.3830 C   0  0  0  0  0  2  0  0  0  0  0  0
   43.0990   67.3890   63.4220 C   0  0  0  0  0  2  0  0  0  0  0  0
   42.9020   66.8530   62.0370 C   0  0  0  0  0  2  0  0  0  0  0  0
   42.0700   67.7340   61.1530 C   0  0  0  0  0  2  0  0  0  0  0  0
  1  2  2  0  0  0  0
  1  6  1  0  0  0  0
  2  3  1  0  0  0  0
  3  8  1  0  0  0  0
  3  4  2  0  0  0  0
  4  9  1  0  0  0  0
  5 10  1  0  0  0  0
  5  4  1  0  0  0  0
  6  5  2  0  0  0  0
  7  2  1  0  0  0  0
 11 16  2  0  0  0  0
 11 12  1  0  0  0  0
 12 13  2  0  0  0  0
 13 19  1  0  0  0  0
 13 14  1  0  0  0  0
 15  1  1  0  0  0  0
 15 14  2  0  0  0  0
 16 15  1  0  0  0  0
 17 11  1  0  0  0  0
 18 12  1  0  0  0  0
 20  6  1  0  0  0  0
 20 25  1  0  0  0  0
 21 20  2  0  0  0  0
 22 21  1  0  0  0  0
 22 23  2  0  0  0  0
 23 24  1  0  0  0  0
 24 25  2  0  0  0  0
 24 28  1  0  0  0  0
 26 21  1  0  0  0  0
 27 22  1  0  0  0  0
 28 29  1  0  0  0  0
 29 30  1  0  0  0  0
 30 31  1  0  0  0  0
 32 31  1  0  0  0  0
 33 28  1  0  0  0  0
 33 32  1  0  0  0  0
M  END
>  <minimizedAffinity>
-5.93650723

$$$$

 OpenBabel03212521083D

 33 36  0  0  0  0  0  0  0  0999 V2000
   41.1700   75.5360   57.1070 C   0  0  0  0  0  0  0  0  0  0  0  0
   40.6110   76.0460   55.9390 C   0  0  0  0  0  0  0  0  0  0  0  0
   40.9740   75.5690   54.6930 C   0  0  0  0  0  0  0  0  0  0  0  0
   41.9170   74.5600   54.5980 C   0  0  0  0  0  0  0  0  0  0  0  0
   42.4810   74.0440   55.7580 C   0  0  0  0  0  0  0  0  0  0  0  0
   42.1180   74.5210   57.0070 C   0  0  0  0  0  0  0  0  0  0  0  0
   39.8630   76.8450   55.9650 H   0  0  0  0  0  0  0  0  0  0  0  0
   40.5600   75.9410   53.7670 H   0  0  0  0  0  0  0  0  0  0  0  0
   42.2650   74.1200   53.6630 H   0  0  0  0  0  0  0  0  0  0  0  0
   43.2230   73.2500   55.6960 H   0  0  0  0  0  0  0  0  0  0  0  0
   39.3240   75.9560   60.2310 C   0  0  0  0  0  0  0  0  0  0  0  0
   39.9470   77.0400   60.8240 C   0  0  0  0  0  0  0  0  0  0  0  0
   41.0190   77.6350   60.1360 C   0  0  0  0  0  0  0  0  0  0  0  0
   41.3910   77.1260   58.9360 N   0  0  0  0  0  0  0  0  0  0  0  0
   40.7620   76.0650   58.3850 C   0  0  0  0  0  0  0  0  0  0  0  0
   39.7440   75.5020   59.0390 N   0  0  0  0  0  0  0  0  0  0  0  0
   38.4790   75.4010   60.6560 H   0  0  0  0  0  0  0  0  0  0  0  0
   39.5560   77.3500   61.7830 H   0  0  0  0  0  0  0  0  0  0  0  0
   41.4850   78.4720   60.6150 H   0  0  0  0  0  0  0  0  0  0  0  0
   42.7320   73.9550   58.1850 C   0  0  0  0  0  0  0  0  0  0  0  0
   43.9810   74.5350   58.4420 C   0  0  0  0  0  0  0  0  0  0  0  0
   44.7360   74.1220   59.5410 C   0  0  0  0  0  0  0  0  0  0  0  0
   44.2170   73.1600   60.3210 N   0  0  0  0  0  0  0  0  0  0  0  0
   43.0070   72.6060   60.0630 C   0  0  0  0  0  0  0  0  0  0  0  0
   42.2830   73.0020   59.0080 N   0  0  0  0  0  0  0  0  0  0  0  0
   44.4570   75.3090   57.8570 H   0  0  0  0  0  0  0  0  0  0  0  0
   45.7140   74.5540   59.7680 H   0  0  0  0  0  0  0  0  0  0  0  0
   42.4770   71.5430   60.9590 C   0  0  0  0  0  3  0  0  0  0  0  0
   43.3910   70.3290   60.9680 C   0  0  0  0  0  2  0  0  0  0  0  0
   42.6060   69.2190   61.6440 C   0  0  0  0  0  2  0  0  0  0  0  0
   42.4350   69.6550   63.0980 C   0  0  0  0  0  2  0  0  0  0  0  0
   41.6780   70.9440   63.1860 C   0  0  0  0  0  2  0  0  0  0  0  0
   42.2600   72.0520   62.3600 C   0  0  0  0  0  2  0  0  0  0  0  0
  1 15  1  0  0  0  0
  2  7  1  0  0  0  0
  2  1  2  0  0  0  0
  3  2  1  0  0  0  0
  4  3  2  0  0  0  0
  4  5  1  0  0  0  0
  5  6  2  0  0  0  0
  6  1  1  0  0  0  0
  6 20  1  0  0  0  0
  8  3  1  0  0  0  0
  9  4  1  0  0  0  0
 10  5  1  0  0  0  0
 11 17  1  0  0  0  0
 11 12  1  0  0  0  0
 12 18  1  0  0  0  0
 13 19  1  0  0  0  0
 13 12  2  0  0  0  0
 14 13  1  0  0  0  0
 15 14  2  0  0  0  0
 15 16  1  0  0  0  0
 16 11  2  0  0  0  0
 20 21  2  0  0  0  0
 20 25  1  0  0  0  0
 21 22  1  0  0  0  0
 22 27  1  0  0  0  0
 22 23  2  0  0  0  0
 24 23  1  0  0  0  0
 24 28  1  0  0  0  0
 25 24  2  0  0  0  0
 26 21  1  0  0  0  0
 28 29  1  0  0  0  0
 28 33  1  0  0  0  0
 29 30  1  0  0  0  0
 30 31  1  0  0  0  0
 31 32  1  0  0  0  0
 33 32  1  0  0  0  0
M  END
>  <minimizedAffinity>
-5.70115662

$$$$

 OpenBabel03212521083D

 33 36  0  0  0  0  0  0  0  0999 V2000
   38.1270   75.4080   56.8540 C   0  0  0  0  0  0  0  0  0  0  0  0
   37.1930   76.3310   56.3920 C   0  0  0  0  0  0  0  0  0  0  0  0
   36.8710   76.4270   55.0510 C   0  0  0  0  0  0  0  0  0  0  0  0
   37.4880   75.5860   54.1400 C   0  0  0  0  0  0  0  0  0  0  0  0
   38.4210   74.6620   54.5910 C   0  0  0  0  0  0  0  0  0  0  0  0
   38.7450   74.5650   55.9350 C   0  0  0  0  0  0  0  0  0  0  0  0
   36.6810   77.0170   57.0750 H   0  0  0  0  0  0  0  0  0  0  0  0
   36.1510   77.1310   54.6580 H   0  0  0  0  0  0  0  0  0  0  0  0
   37.2990   75.5870   53.0670 H   0  0  0  0  0  0  0  0  0  0  0  0
   38.9130   73.9960   53.8850 H   0  0  0  0  0  0  0  0  0  0  0  0
   39.5020   76.2810   60.1240 C   0  0  0  0  0  0  0  0  0  0  0  0
   39.0410   75.2660   60.9430 C   0  0  0  0  0  0  0  0  0  0  0  0
   38.2450   74.2640   60.3590 C   0  0  0  0  0  0  0  0  0  0  0  0
   37.9670   74.3390   59.0340 N   0  0  0  0  0  0  0  0  0  0  0  0
   38.4320   75.3450   58.2620 C   0  0  0  0  0  0  0  0  0  0  0  0
   39.1880   76.2940   58.8190 N   0  0  0  0  0  0  0  0  0  0  0  0
   40.1290   77.1200   60.4480 H   0  0  0  0  0  0  0  0  0  0  0  0
   39.3330   75.3210   61.9820 H   0  0  0  0  0  0  0  0  0  0  0  0
   37.9000   73.4900   61.0120 H   0  0  0  0  0  0  0  0  0  0  0  0
   39.7210   73.5890   56.3580 C   0  0  0  0  0  0  0  0  0  0  0  0
   39.4480   72.3230   55.8210 C   0  0  0  0  0  0  0  0  0  0  0  0
   40.2790   71.2410   56.1130 C   0  0  0  0  0  0  0  0  0  0  0  0
   41.3300   71.4670   56.9170 N   0  0  0  0  0  0  0  0  0  0  0  0
   41.5850   72.6960   57.4310 C   0  0  0  0  0  0  0  0  0  0  0  0
   40.7880   73.7350   57.1510 N   0  0  0  0  0  0  0  0  0  0  0  0
   38.6220   72.0720   55.1700 H   0  0  0  0  0  0  0  0  0  0  0  0
   40.0920   70.2420   55.7100 H   0  0  0  0  0  0  0  0  0  0  0  0
   42.7640   72.8940   58.3170 C   0  0  0  0  0  3  0  0  0  0  0  0
   43.7080   73.9400   57.7460 C   0  0  0  0  0  2  0  0  0  0  0  0
   44.9920   73.8260   58.5470 C   0  0  0  0  0  2  0  0  0  0  0  0
   44.6410   74.2740   59.9650 C   0  0  0  0  0  2  0  0  0  0  0  0
   43.5860   73.3920   60.5600 C   0  0  0  0  0  2  0  0  0  0  0  0
   42.3520   73.2620   59.7190 C   0  0  0  0  0  2  0  0  0  0  0  0
  1 15  1  0  0  0  0
  2  1  1  0  0  0  0
  2  7  1  0  0  0  0
  3  2  2  0  0  0  0
  4  5  2  0  0  0  0
  4  3  1  0  0  0  0
  5  6  1  0  0  0  0
  6 20  1  0  0  0  0
  6  1  2  0  0  0  0
  8  3  1  0  0  0  0
  9  4  1  0  0  0  0
 10  5  1  0  0  0  0
 11 17  1  0  0  0  0
 11 12  1  0  0  0  0
 12 18  1  0  0  0  0
 13 12  2  0  0  0  0
 13 19  1  0  0  0  0
 14 13  1  0  0  0  0
 15 16  1  0  0  0  0
 15 14  2  0  0  0  0
 16 11  2  0  0  0  0
 20 25  1  0  0  0  0
 21 22  1  0  0  0  0
 21 20  2  0  0  0  0
 22 23  2  0  0  0  0
 23 24  1  0  0  0  0
 24 28  1  0  0  0  0
 25 24  2  0  0  0  0
 26 21  1  0  0  0  0
 27 22  1  0  0  0  0
 28 33  1  0  0  0  0
 29 28  1  0  0  0  0
 29 30  1  0  0  0  0
 30 31  1  0  0  0  0
 31 32  1  0  0  0  0
 33 32  1  0  0  0  0
M  END
>  <minimizedAffinity>
-5.64808846

$$$$

 OpenBabel03212521083D

 33 36  0  0  0  0  0  0  0  0999 V2000
   42.3910   74.0530   59.0370 C   0  0  0  0  0  0  0  0  0  0  0  0
   42.8800   75.0170   58.1600 C   0  0  0  0  0  0  0  0  0  0  0  0
   44.1910   74.9990   57.7210 C   0  0  0  0  0  0  0  0  0  0  0  0
   45.0430   74.0010   58.1590 C   0  0  0  0  0  0  0  0  0  0  0  0
   44.5660   73.0340   59.0340 C   0  0  0  0  0  0  0  0  0  0  0  0
   43.2520   73.0500   59.4760 C   0  0  0  0  0  0  0  0  0  0  0  0
   42.2430   75.8260   57.7880 H   0  0  0  0  0  0  0  0  0  0  0  0
   44.6020   75.7310   57.0410 H   0  0  0  0  0  0  0  0  0  0  0  0
   46.0900   73.9040   57.8680 H   0  0  0  0  0  0  0  0  0  0  0  0
   45.2270   72.2440   59.3850 H   0  0  0  0  0  0  0  0  0  0  0  0
   38.8140   73.3480   59.2500 C   0  0  0  0  0  0  0  0  0  0  0  0
   38.3850   74.1890   60.2610 C   0  0  0  0  0  0  0  0  0  0  0  0
   39.3430   75.0120   60.8790 C   0  0  0  0  0  0  0  0  0  0  0  0
   40.6310   74.9450   60.4600 N   0  0  0  0  0  0  0  0  0  0  0  0
   41.0170   74.1110   59.4700 C   0  0  0  0  0  0  0  0  0  0  0  0
   40.1050   73.3310   58.8850 N   0  0  0  0  0  0  0  0  0  0  0  0
   38.1740   72.6570   58.6870 H   0  0  0  0  0  0  0  0  0  0  0  0
   37.3320   74.1480   60.5020 H   0  0  0  0  0  0  0  0  0  0  0  0
   38.9880   75.6540   61.6580 H   0  0  0  0  0  0  0  0  0  0  0  0
   42.8000   72.0240   60.3850 C   0  0  0  0  0  0  0  0  0  0  0  0
   42.7040   72.5070   61.6970 C   0  0  0  0  0  0  0  0  0  0  0  0
   42.2830   71.6660   62.7280 C   0  0  0  0  0  0  0  0  0  0  0  0
   41.9830   70.3970   62.4070 N   0  0  0  0  0  0  0  0  0  0  0  0
   42.0800   69.9400   61.1340 C   0  0  0  0  0  0  0  0  0  0  0  0
   42.4840   70.7470   60.1450 N   0  0  0  0  0  0  0  0  0  0  0  0
   42.9300   73.5120   62.0250 H   0  0  0  0  0  0  0  0  0  0  0  0
   42.1980   72.0120   63.7610 H   0  0  0  0  0  0  0  0  0  0  0  0
   41.7350   68.5250   60.8310 C   0  0  0  0  0  3  0  0  0  0  0  0
   42.8570   67.8400   60.0670 C   0  0  0  0  0  2  0  0  0  0  0  0
   42.2760   66.5380   59.5480 C   0  0  0  0  0  2  0  0  0  0  0  0
   41.9950   65.6830   60.7830 C   0  0  0  0  0  2  0  0  0  0  0  0
   41.0110   66.3580   61.6880 C   0  0  0  0  0  2  0  0  0  0  0  0
   41.3970   67.7530   62.0790 C   0  0  0  0  0  2  0  0  0  0  0  0
  1 15  1  0  0  0  0
  1  6  1  0  0  0  0
  2  1  2  0  0  0  0
  3  4  2  0  0  0  0
  3  2  1  0  0  0  0
  4  5  1  0  0  0  0
  5 10  1  0  0  0  0
  5  6  2  0  0  0  0
  6 20  1  0  0  0  0
  7  2  1  0  0  0  0
  8  3  1  0  0  0  0
  9  4  1  0  0  0  0
 11 12  1  0  0  0  0
 12 18  1  0  0  0  0
 12 13  2  0  0  0  0
 13 19  1  0  0  0  0
 14 13  1  0  0  0  0
 15 14  2  0  0  0  0
 16 11  2  0  0  0  0
 16 15  1  0  0  0  0
 17 11  1  0  0  0  0
 20 21  1  0  0  0  0
 21 26  1  0  0  0  0
 21 22  2  0  0  0  0
 22 27  1  0  0  0  0
 23 22  1  0  0  0  0
 24 23  2  0  0  0  0
 25 20  2  0  0  0  0
 25 24  1  0  0  0  0
 28 24  1  0  0  0  0
 28 33  1  0  0  0  0
 29 28  1  0  0  0  0
 30 29  1  0  0  0  0
 30 31  1  0  0  0  0
 31 32  1  0  0  0  0
 32 33  1  0  0  0  0
M  END
>  <minimizedAffinity>
-5.64755106

$$$$

 OpenBabel03212521083D

 33 36  0  0  0  0  0  0  0  0999 V2000
   38.7890   75.6590   57.3980 C   0  0  0  0  0  0  0  0  0  0  0  0
   37.5940   76.0930   56.8340 C   0  0  0  0  0  0  0  0  0  0  0  0
   37.2080   75.7060   55.5630 C   0  0  0  0  0  0  0  0  0  0  0  0
   38.0280   74.8650   54.8300 C   0  0  0  0  0  0  0  0  0  0  0  0
   39.2230   74.4260   55.3840 C   0  0  0  0  0  0  0  0  0  0  0  0
   39.6110   74.8130   56.6570 C   0  0  0  0  0  0  0  0  0  0  0  0
   36.9140   76.7590   57.3760 H   0  0  0  0  0  0  0  0  0  0  0  0
   36.2880   76.0230   55.0960 H   0  0  0  0  0  0  0  0  0  0  0  0
   37.8100   74.5060   53.8240 H   0  0  0  0  0  0  0  0  0  0  0  0
   39.8750   73.7650   54.8170 H   0  0  0  0  0  0  0  0  0  0  0  0
   40.2480   77.6350   60.1020 C   0  0  0  0  0  0  0  0  0  0  0  0
   39.8630   76.9480   61.2390 C   0  0  0  0  0  0  0  0  0  0  0  0
   39.0900   75.7860   61.0720 C   0  0  0  0  0  0  0  0  0  0  0  0
   38.7590   75.3950   59.8170 N   0  0  0  0  0  0  0  0  0  0  0  0
   39.1500   76.0890   58.7260 C   0  0  0  0  0  0  0  0  0  0  0  0
   39.8850   77.1920   58.8880 N   0  0  0  0  0  0  0  0  0  0  0  0
   40.8500   78.5520   60.0890 H   0  0  0  0  0  0  0  0  0  0  0  0
   40.1910   77.3640   62.1820 H   0  0  0  0  0  0  0  0  0  0  0  0
   38.8040   75.2720   61.9670 H   0  0  0  0  0  0  0  0  0  0  0  0
   40.8620   74.3320   57.1910 C   0  0  0  0  0  0  0  0  0  0  0  0
   41.9170   74.5340   56.2910 C   0  0  0  0  0  0  0  0  0  0  0  0
   43.2120   74.1340   56.6230 C   0  0  0  0  0  0  0  0  0  0  0  0
   43.3930   73.5580   57.8230 N   0  0  0  0  0  0  0  0  0  0  0  0
   42.3650   73.3680   58.6860 C   0  0  0  0  0  0  0  0  0  0  0  0
   41.1220   73.7510   58.3670 N   0  0  0  0  0  0  0  0  0  0  0  0
   41.8420   74.9870   55.3130 H   0  0  0  0  0  0  0  0  0  0  0  0
   44.0550   74.2770   55.9420 H   0  0  0  0  0  0  0  0  0  0  0  0
   42.6190   72.7250   60.0040 C   0  0  0  0  0  3  0  0  0  0  0  0
   41.5600   73.1230   61.0200 C   0  0  0  0  0  2  0  0  0  0  0  0
   42.0890   72.6780   62.3710 C   0  0  0  0  0  2  0  0  0  0  0  0
   42.1090   71.1510   62.3290 C   0  0  0  0  0  2  0  0  0  0  0  0
   43.0110   70.6580   61.2390 C   0  0  0  0  0  2  0  0  0  0  0  0
   42.7020   71.2260   59.8860 C   0  0  0  0  0  2  0  0  0  0  0  0
  1 15  1  0  0  0  0
  2  7  1  0  0  0  0
  2  1  1  0  0  0  0
  3  2  2  0  0  0  0
  4  5  2  0  0  0  0
  4  3  1  0  0  0  0
  5  6  1  0  0  0  0
  6 20  1  0  0  0  0
  6  1  2  0  0  0  0
  8  3  1  0  0  0  0
  9  4  1  0  0  0  0
 10  5  1  0  0  0  0
 11 12  1  0  0  0  0
 12 18  1  0  0  0  0
 13 12  2  0  0  0  0
 13 19  1  0  0  0  0
 14 13  1  0  0  0  0
 15 16  1  0  0  0  0
 15 14  2  0  0  0  0
 16 11  2  0  0  0  0
 17 11  1  0  0  0  0
 20 25  1  0  0  0  0
 21 22  1  0  0  0  0
 21 20  2  0  0  0  0
 22 23  2  0  0  0  0
 23 24  1  0  0  0  0
 24 28  1  0  0  0  0
 25 24  2  0  0  0  0
 26 21  1  0  0  0  0
 27 22  1  0  0  0  0
 28 29  1  0  0  0  0
 29 30  1  0  0  0  0
 31 30  1  0  0  0  0
 32 31  1  0  0  0  0
 33 28  1  0  0  0  0
 33 32  1  0  0  0  0
M  END
>  <minimizedAffinity>
-5.62515068

$$$$

 OpenBabel03212521083D

 33 36  0  0  0  0  0  0  0  0999 V2000
   38.2830   75.1380   57.1220 C   0  0  0  0  0  0  0  0  0  0  0  0
   37.2570   75.8990   56.5710 C   0  0  0  0  0  0  0  0  0  0  0  0
   36.9880   75.8810   55.2140 C   0  0  0  0  0  0  0  0  0  0  0  0
   37.7560   75.0880   54.3790 C   0  0  0  0  0  0  0  0  0  0  0  0
   38.7840   74.3250   54.9190 C   0  0  0  0  0  0  0  0  0  0  0  0
   39.0540   74.3420   56.2780 C   0  0  0  0  0  0  0  0  0  0  0  0
   36.6240   76.5410   57.1920 H   0  0  0  0  0  0  0  0  0  0  0  0
   36.2000   76.4580   54.7530 H   0  0  0  0  0  0  0  0  0  0  0  0
   37.6210   75.0080   53.3000 H   0  0  0  0  0  0  0  0  0  0  0  0
   39.3940   73.6980   54.2710 H   0  0  0  0  0  0  0  0  0  0  0  0
   39.5180   76.2730   60.3670 C   0  0  0  0  0  0  0  0  0  0  0  0
   39.0180   75.3270   61.2440 C   0  0  0  0  0  0  0  0  0  0  0  0
   38.2440   74.2820   60.7090 C   0  0  0  0  0  0  0  0  0  0  0  0
   38.0240   74.2490   59.3720 N   0  0  0  0  0  0  0  0  0  0  0  0
   38.5270   75.1890   58.5420 C   0  0  0  0  0  0  0  0  0  0  0  0
   39.2610   76.1800   59.0530 N   0  0  0  0  0  0  0  0  0  0  0  0
   40.1330   77.1360   60.6490 H   0  0  0  0  0  0  0  0  0  0  0  0
   39.2640   75.4670   62.2880 H   0  0  0  0  0  0  0  0  0  0  0  0
   37.8680   73.5630   61.4080 H   0  0  0  0  0  0  0  0  0  0  0  0
   40.1310   73.5330   56.7940 C   0  0  0  0  0  0  0  0  0  0  0  0
   41.3630   74.1940   56.6940 C   0  0  0  0  0  0  0  0  0  0  0  0
   42.5320   73.5750   57.1400 C   0  0  0  0  0  0  0  0  0  0  0  0
   42.4190   72.3410   57.6580 N   0  0  0  0  0  0  0  0  0  0  0  0
   41.2220   71.7110   57.7510 C   0  0  0  0  0  0  0  0  0  0  0  0
   40.1010   72.3040   57.3220 N   0  0  0  0  0  0  0  0  0  0  0  0
   41.5250   75.1820   56.2880 H   0  0  0  0  0  0  0  0  0  0  0  0
   43.5070   74.0640   57.0750 H   0  0  0  0  0  0  0  0  0  0  0  0
   41.1520   70.3440   58.3330 C   0  0  0  0  0  3  0  0  0  0  0  0
   41.5130   69.2900   57.2990 C   0  0  0  0  0  2  0  0  0  0  0  0
   41.1050   67.9570   57.9010 C   0  0  0  0  0  2  0  0  0  0  0  0
   42.0290   67.7380   59.0970 C   0  0  0  0  0  2  0  0  0  0  0  0
   41.8620   68.8290   60.1100 C   0  0  0  0  0  2  0  0  0  0  0  0
   42.0270   70.2110   59.5520 C   0  0  0  0  0  2  0  0  0  0  0  0
  1 15  1  0  0  0  0
  2  1  1  0  0  0  0
  2  7  1  0  0  0  0
  3  2  2  0  0  0  0
  4  5  2  0  0  0  0
  4  3  1  0  0  0  0
  5  6  1  0  0  0  0
  6 20  1  0  0  0  0
  6  1  2  0  0  0  0
  8  3  1  0  0  0  0
  9  4  1  0  0  0  0
 10  5  1  0  0  0  0
 11 17  1  0  0  0  0
 11 12  1  0  0  0  0
 12 18  1  0  0  0  0
 13 12  2  0  0  0  0
 13 19  1  0  0  0  0
 14 13  1  0  0  0  0
 15 16  1  0  0  0  0
 15 14  2  0  0  0  0
 16 11  2  0  0  0  0
 20 25  1  0  0  0  0
 21 20  2  0  0  0  0
 21 22  1  0  0  0  0
 22 23  2  0  0  0  0
 23 24  1  0  0  0  0
 24 28  1  0  0  0  0
 25 24  2  0  0  0  0
 26 21  1  0  0  0  0
 27 22  1  0  0  0  0
 28 33  1  0  0  0  0
 29 30  1  0  0  0  0
 29 28  1  0  0  0  0
 30 31  1  0  0  0  0
 31 32  1  0  0  0  0
 33 32  1  0  0  0  0
M  END
>  <minimizedAffinity>
-5.61932278

$$$$

 OpenBabel03212521083D

 33 36  0  0  0  0  0  0  0  0999 V2000
   41.1120   74.0950   59.8390 C   0  0  0  0  0  0  0  0  0  0  0  0
   40.4160   75.2440   59.4770 C   0  0  0  0  0  0  0  0  0  0  0  0
   39.1580   75.5190   59.9820 C   0  0  0  0  0  0  0  0  0  0  0  0
   38.5730   74.6330   60.8710 C   0  0  0  0  0  0  0  0  0  0  0  0
   39.2590   73.4830   61.2380 C   0  0  0  0  0  0  0  0  0  0  0  0
   40.5200   73.2060   60.7320 C   0  0  0  0  0  0  0  0  0  0  0  0
   40.8390   75.9720   58.7770 H   0  0  0  0  0  0  0  0  0  0  0  0
   38.5900   76.4000   59.7230 H   0  0  0  0  0  0  0  0  0  0  0  0
   37.5880   74.7640   61.3210 H   0  0  0  0  0  0  0  0  0  0  0  0
   38.8090   72.7800   61.9360 H   0  0  0  0  0  0  0  0  0  0  0  0
   44.7480   74.0150   59.4950 C   0  0  0  0  0  0  0  0  0  0  0  0
   44.9370   73.4010   58.2700 C   0  0  0  0  0  0  0  0  0  0  0  0
   43.7940   73.0090   57.5510 C   0  0  0  0  0  0  0  0  0  0  0  0
   42.5710   73.2480   58.0850 N   0  0  0  0  0  0  0  0  0  0  0  0
   42.4210   73.8490   59.2860 C   0  0  0  0  0  0  0  0  0  0  0  0
   43.5080   74.2200   59.9660 N   0  0  0  0  0  0  0  0  0  0  0  0
   45.5480   74.3700   60.1560 H   0  0  0  0  0  0  0  0  0  0  0  0
   45.9630   73.2690   57.9560 H   0  0  0  0  0  0  0  0  0  0  0  0
   43.9660   72.5370   56.6060 H   0  0  0  0  0  0  0  0  0  0  0  0
   41.1960   71.9990   61.1430 C   0  0  0  0  0  0  0  0  0  0  0  0
   41.6200   72.0760   62.4760 C   0  0  0  0  0  0  0  0  0  0  0  0
   42.2970   71.0050   63.0620 C   0  0  0  0  0  0  0  0  0  0  0  0
   42.5170   69.9210   62.3000 N   0  0  0  0  0  0  0  0  0  0  0  0
   42.1010   69.8580   61.0110 C   0  0  0  0  0  0  0  0  0  0  0  0
   41.4530   70.8850   60.4480 N   0  0  0  0  0  0  0  0  0  0  0  0
   41.4780   72.9140   63.1430 H   0  0  0  0  0  0  0  0  0  0  0  0
   42.6410   71.0350   64.0990 H   0  0  0  0  0  0  0  0  0  0  0  0
   42.3700   68.6330   60.2100 C   0  0  0  0  0  3  0  0  0  0  0  0
   43.8160   68.1890   60.3580 C   0  0  0  0  0  2  0  0  0  0  0  0
   44.0480   67.1510   59.2750 C   0  0  0  0  0  2  0  0  0  0  0  0
   43.1770   65.9540   59.6510 C   0  0  0  0  0  2  0  0  0  0  0  0
   41.7290   66.3360   59.6910 C   0  0  0  0  0  2  0  0  0  0  0  0
   41.4320   67.5120   60.5730 C   0  0  0  0  0  2  0  0  0  0  0  0
  1  6  1  0  0  0  0
  2  1  2  0  0  0  0
  2  3  1  0  0  0  0
  3  4  2  0  0  0  0
  4  5  1  0  0  0  0
  4  9  1  0  0  0  0
  5 10  1  0  0  0  0
  6 20  1  0  0  0  0
  6  5  2  0  0  0  0
  7  2  1  0  0  0  0
  8  3  1  0  0  0  0
 11 16  1  0  0  0  0
 11 17  1  0  0  0  0
 12 11  2  0  0  0  0
 13 14  2  0  0  0  0
 13 12  1  0  0  0  0
 14 15  1  0  0  0  0
 15  1  1  0  0  0  0
 15 16  2  0  0  0  0
 18 12  1  0  0  0  0
 19 13  1  0  0  0  0
 20 21  1  0  0  0  0
 21 22  2  0  0  0  0
 21 26  1  0  0  0  0
 22 27  1  0  0  0  0
 23 22  1  0  0  0  0
 24 23  2  0  0  0  0
 25 24  1  0  0  0  0
 25 20  2  0  0  0  0
 28 29  1  0  0  0  0
 28 33  1  0  0  0  0
 28 24  1  0  0  0  0
 30 31  1  0  0  0  0
 30 29  1  0  0  0  0
 31 32  1  0  0  0  0
 32 33  1  0  0  0  0
M  END
>  <minimizedAffinity>
-5.61809969

$$$$

 OpenBabel03212521083D

 33 36  0  0  0  0  0  0  0  0999 V2000
   41.6040   72.8760   59.6010 C   0  0  0  0  0  0  0  0  0  0  0  0
   42.1000   71.7510   60.2540 C   0  0  0  0  0  0  0  0  0  0  0  0
   41.6920   71.4160   61.5330 C   0  0  0  0  0  0  0  0  0  0  0  0
   40.7680   72.2140   62.1840 C   0  0  0  0  0  0  0  0  0  0  0  0
   40.2670   73.3390   61.5410 C   0  0  0  0  0  0  0  0  0  0  0  0
   40.6740   73.6760   60.2600 C   0  0  0  0  0  0  0  0  0  0  0  0
   42.8330   71.0910   59.7790 H   0  0  0  0  0  0  0  0  0  0  0  0
   42.0560   70.5510   62.0680 H   0  0  0  0  0  0  0  0  0  0  0  0
   40.3870   72.0320   63.1890 H   0  0  0  0  0  0  0  0  0  0  0  0
   39.5400   73.9740   62.0440 H   0  0  0  0  0  0  0  0  0  0  0  0
   41.7830   72.9590   55.9540 C   0  0  0  0  0  0  0  0  0  0  0  0
   42.8900   73.7520   55.7090 C   0  0  0  0  0  0  0  0  0  0  0  0
   43.5850   74.2660   56.8190 C   0  0  0  0  0  0  0  0  0  0  0  0
   43.1440   73.9650   58.0640 N   0  0  0  0  0  0  0  0  0  0  0  0
   42.0590   73.1860   58.2690 C   0  0  0  0  0  0  0  0  0  0  0  0
   41.4010   72.7000   57.2140 N   0  0  0  0  0  0  0  0  0  0  0  0
   41.1530   72.4960   55.1850 H   0  0  0  0  0  0  0  0  0  0  0  0
   43.1380   73.9180   54.6700 H   0  0  0  0  0  0  0  0  0  0  0  0
   44.4370   74.8770   56.6040 H   0  0  0  0  0  0  0  0  0  0  0  0
   40.1270   74.8550   59.6320 C   0  0  0  0  0  0  0  0  0  0  0  0
   40.6880   76.0260   60.1590 C   0  0  0  0  0  0  0  0  0  0  0  0
   40.2880   77.2750   59.6820 C   0  0  0  0  0  0  0  0  0  0  0  0
   39.3570   77.2970   58.7140 N   0  0  0  0  0  0  0  0  0  0  0  0
   38.8210   76.1580   58.2110 C   0  0  0  0  0  0  0  0  0  0  0  0
   39.2040   74.9600   58.6700 N   0  0  0  0  0  0  0  0  0  0  0  0
   41.4370   76.0800   60.9370 H   0  0  0  0  0  0  0  0  0  0  0  0
   40.7060   78.2060   60.0730 H   0  0  0  0  0  0  0  0  0  0  0  0
   37.7930   76.2380   57.1390 C   0  0  0  0  0  3  0  0  0  0  0  0
   37.9660   77.5000   56.3080 C   0  0  0  0  0  2  0  0  0  0  0  0
   36.7030   77.6300   55.4770 C   0  0  0  0  0  2  0  0  0  0  0  0
   36.7210   76.4530   54.5030 C   0  0  0  0  0  2  0  0  0  0  0  0
   36.7170   75.1490   55.2390 C   0  0  0  0  0  2  0  0  0  0  0  0
   37.8110   75.0180   56.2560 C   0  0  0  0  0  2  0  0  0  0  0  0
  1  2  2  0  0  0  0
  1  6  1  0  0  0  0
  2  3  1  0  0  0  0
  3  8  1  0  0  0  0
  3  4  2  0  0  0  0
  4  9  1  0  0  0  0
  5 10  1  0  0  0  0
  5  4  1  0  0  0  0
  6  5  2  0  0  0  0
  7  2  1  0  0  0  0
 11 16  1  0  0  0  0
 12 11  2  0  0  0  0
 12 13  1  0  0  0  0
 13 14  2  0  0  0  0
 14 15  1  0  0  0  0
 15  1  1  0  0  0  0
 16 15  2  0  0  0  0
 17 11  1  0  0  0  0
 18 12  1  0  0  0  0
 19 13  1  0  0  0  0
 20 21  1  0  0  0  0
 20  6  1  0  0  0  0
 21 26  1  0  0  0  0
 22 27  1  0  0  0  0
 22 21  2  0  0  0  0
 23 22  1  0  0  0  0
 24 25  1  0  0  0  0
 24 23  2  0  0  0  0
 25 20  2  0  0  0  0
 28 24  1  0  0  0  0
 29 28  1  0  0  0  0
 30 29  1  0  0  0  0
 31 32  1  0  0  0  0
 31 30  1  0  0  0  0
 32 33  1  0  0  0  0
 33 28  1  0  0  0  0
M  END
>  <minimizedAffinity>
-5.57745504

$$$$
