
 OpenBabel03212521073D

 33 36  0  0  0  0  0  0  0  0999 V2000
   41.7910   84.1760   61.5730 C   0  0  0  0  0  0  0  0  0  0  0  0
   41.4180   83.9110   62.8870 C   0  0  0  0  0  0  0  0  0  0  0  0
   40.1220   83.5570   63.2150 C   0  0  0  0  0  0  0  0  0  0  0  0
   39.1680   83.4630   62.2170 C   0  0  0  0  0  0  0  0  0  0  0  0
   39.5300   83.7260   60.9020 C   0  0  0  0  0  0  0  0  0  0  0  0
   40.8280   84.0800   60.5710 C   0  0  0  0  0  0  0  0  0  0  0  0
   42.1380   83.9740   63.7090 H   0  0  0  0  0  0  0  0  0  0  0  0
   39.7990   83.3450   64.2240 H   0  0  0  0  0  0  0  0  0  0  0  0
   38.1240   83.1920   62.3780 H   0  0  0  0  0  0  0  0  0  0  0  0
   38.7890   83.6550   60.1090 H   0  0  0  0  0  0  0  0  0  0  0  0
   45.2960   83.8980   60.5790 C   0  0  0  0  0  0  0  0  0  0  0  0
   45.7630   85.1940   60.7030 C   0  0  0  0  0  0  0  0  0  0  0  0
   44.8580   86.1780   61.1350 C   0  0  0  0  0  0  0  0  0  0  0  0
   43.5800   85.8180   61.4090 N   0  0  0  0  0  0  0  0  0  0  0  0
   43.1540   84.5420   61.2770 C   0  0  0  0  0  0  0  0  0  0  0  0
   44.0160   83.6090   60.8670 N   0  0  0  0  0  0  0  0  0  0  0  0
   45.8920   83.0370   60.2540 H   0  0  0  0  0  0  0  0  0  0  0  0
   46.8040   85.3510   60.4540 H   0  0  0  0  0  0  0  0  0  0  0  0
   45.2430   87.1740   61.2230 H   0  0  0  0  0  0  0  0  0  0  0  0
   41.1590   84.3440   59.1910 C   0  0  0  0  0  0  0  0  0  0  0  0
   40.8870   85.6750   58.8440 C   0  0  0  0  0  0  0  0  0  0  0  0
   41.1380   86.1290   57.5480 C   0  0  0  0  0  0  0  0  0  0  0  0
   41.6410   85.2460   56.6700 N   0  0  0  0  0  0  0  0  0  0  0  0
   41.9010   83.9620   57.0170 C   0  0  0  0  0  0  0  0  0  0  0  0
   41.6590   83.5250   58.2600 N   0  0  0  0  0  0  0  0  0  0  0  0
   40.4820   86.4350   59.4970 H   0  0  0  0  0  0  0  0  0  0  0  0
   40.9370   87.1600   57.2470 H   0  0  0  0  0  0  0  0  0  0  0  0
   42.4580   83.0230   56.0060 C   0  0  0  0  0  3  0  0  0  0  0  0
   43.8070   82.4780   56.4520 C   0  0  0  0  0  2  0  0  0  0  0  0
   44.4090   81.8060   55.2320 C   0  0  0  0  0  2  0  0  0  0  0  0
   43.5190   80.5990   54.9380 C   0  0  0  0  0  2  0  0  0  0  0  0
   42.1150   81.0290   54.6430 C   0  0  0  0  0  2  0  0  0  0  0  0
   41.5060   81.8970   55.7030 C   0  0  0  0  0  2  0  0  0  0  0  0
  1  2  1  0  0  0  0
  2  3  2  0  0  0  0
  2  7  1  0  0  0  0
  3  8  1  0  0  0  0
  4  9  1  0  0  0  0
  4  3  1  0  0  0  0
  5  4  2  0  0  0  0
  6  5  1  0  0  0  0
  6  1  2  0  0  0  0
 10  5  1  0  0  0  0
 11 12  2  0  0  0  0
 11 16  1  0  0  0  0
 12 13  1  0  0  0  0
 13 19  1  0  0  0  0
 13 14  2  0  0  0  0
 15 14  1  0  0  0  0
 15  1  1  0  0  0  0
 16 15  2  0  0  0  0
 17 11  1  0  0  0  0
 18 12  1  0  0  0  0
 20  6  1  0  0  0  0
 21 20  1  0  0  0  0
 21 26  1  0  0  0  0
 22 21  2  0  0  0  0
 23 24  2  0  0  0  0
 23 22  1  0  0  0  0
 24 25  1  0  0  0  0
 25 20  2  0  0  0  0
 27 22  1  0  0  0  0
 28 29  1  0  0  0  0
 28 24  1  0  0  0  0
 30 29  1  0  0  0  0
 31 30  1  0  0  0  0
 32 31  1  0  0  0  0
 32 33  1  0  0  0  0
 33 28  1  0  0  0  0
M  END
>  <minimizedAffinity>
-5.45678425

>  <minimizedRMSD>
0.46544531

$$$$
