
 OpenBabel03212520493D

 25 27  0  0  0  0  0  0  0  0999 V2000
   41.7510   83.8400   61.2590 C   0  0  0  0  0  0  0  0  0  0  0  0
   41.2280   84.1450   62.5070 C   0  0  0  0  0  0  0  0  0  0  0  0
   40.7300   83.1260   63.3400 C   0  0  0  0  0  0  0  0  0  0  0  0
   40.7580   81.8450   62.9300 N   0  0  0  0  0  0  0  0  0  0  0  0
   41.2650   81.5670   61.7250 C   0  0  0  0  0  0  0  0  0  0  0  0
   41.7540   82.5360   60.8960 N   0  0  0  0  0  0  0  0  0  0  0  0
   41.2160   85.1790   62.8150 H   0  0  0  0  0  0  0  0  0  0  0  0
   40.3390   83.4360   64.2960 H   0  0  0  0  0  0  0  0  0  0  0  0
   43.7150   86.6200   59.9500 C   0  0  0  0  0  0  0  0  0  0  0  0
   43.1660   86.7710   58.6600 C   0  0  0  0  0  0  0  0  0  0  0  0
   42.1360   85.9270   58.2470 C   0  0  0  0  0  0  0  0  0  0  0  0
   41.7310   84.9960   59.1560 N   0  0  0  0  0  0  0  0  0  0  0  0
   42.2710   84.8750   60.3790 C   0  0  0  0  0  0  0  0  0  0  0  0
   43.2480   85.6700   60.7820 N   0  0  0  0  0  0  0  0  0  0  0  0
   44.7470   87.5510   60.2110 N   0  0  0  0  0  0  0  0  0  0  0  0
   43.4810   87.5050   57.9340 H   0  0  0  0  0  0  0  0  0  0  0  0
   41.7020   86.0230   57.2670 H   0  0  0  0  0  0  0  0  0  0  0  0
   45.7180   87.6450   59.8400 H   0  0  0  0  0  0  0  0  0  0  0  0
   44.4380   88.2710   60.9220 H   0  0  0  0  0  0  0  0  0  0  0  0
   41.3220   80.1800   61.2180 C   0  0  0  0  0  3  0  0  0  0  0  0
   40.6160   80.0870   59.9010 C   0  0  0  0  0  2  0  0  0  0  0  0
   40.3380   78.6980   59.4380 C   0  0  0  0  0  2  0  0  0  0  0  0
   39.9960   77.7270   60.5190 C   0  0  0  0  0  2  0  0  0  0  0  0
   40.9550   77.8340   61.6840 C   0  0  0  0  0  2  0  0  0  0  0  0
   40.7440   79.2430   62.2510 C   0  0  0  0  0  2  0  0  0  0  0  0
  1  2  1  0  0  0  0
  2  7  1  0  0  0  0
  2  3  2  0  0  0  0
  3  8  1  0  0  0  0
  4  3  1  0  0  0  0
  5  4  2  0  0  0  0
  6  1  2  0  0  0  0
  6  5  1  0  0  0  0
  9 15  1  0  0  0  0
  9 14  1  0  0  0  0
 10  9  2  0  0  0  0
 11 10  1  0  0  0  0
 11 12  2  0  0  0  0
 12 13  1  0  0  0  0
 13 14  2  0  0  0  0
 13  1  1  0  0  0  0
 15 19  1  0  0  0  0
 16 10  1  0  0  0  0
 17 11  1  0  0  0  0
 18 15  1  0  0  0  0
 20  5  1  0  0  0  0
 20 25  1  0  0  0  0
 21 20  1  0  0  0  0
 22 21  1  0  0  0  0
 22 23  1  0  0  0  0
 23 24  1  0  0  0  0
 24 25  1  0  0  0  0
M  END
>  <minimizedAffinity>
-5.22169971

>  <minimizedRMSD>
0.705630481

$$$$
