
 OpenBabel03212520453D

 15 16  0  0  0  0  0  0  0  0999 V2000
   38.2510   75.9040   57.4700 C   0  0  0  0  0  0  0  0  0  0  0  0
   37.3190   75.0210   56.8720 C   0  0  0  0  0  0  0  0  0  0  0  0
   36.5190   75.5150   55.8240 C   0  0  0  0  0  0  0  0  0  0  0  0
   36.6890   76.8090   55.4500 N   0  0  0  0  0  0  0  0  0  0  0  0
   37.5900   77.6350   56.0410 C   0  0  0  0  0  0  0  0  0  0  0  0
   38.3610   77.1760   57.0440 N   0  0  0  0  0  0  0  0  0  0  0  0
   37.1950   73.9930   57.1810 H   0  0  0  0  0  0  0  0  0  0  0  0
   35.8020   74.8730   55.3460 H   0  0  0  0  0  0  0  0  0  0  0  0
   37.6700   78.6610   55.6880 H   0  0  0  0  0  0  0  0  0  0  0  0
   39.0800   75.3500   58.5770 C   0  0  0  0  0  3  0  0  0  0  0  0
   38.2660   74.3210   59.2900 C   0  0  0  0  0  2  0  0  0  0  0  0
   38.8320   73.8300   60.5750 C   0  0  0  0  0  2  0  0  0  0  0  0
   39.7030   74.7860   61.3050 C   0  0  0  0  0  2  0  0  0  0  0  0
   39.4540   76.2170   60.9030 C   0  0  0  0  0  2  0  0  0  0  0  0
   39.5910   76.4550   59.4280 C   0  0  0  0  0  2  0  0  0  0  0  0
  1 10  1  0  0  0  0
  2  7  1  0  0  0  0
  2  1  2  0  0  0  0
  3  2  1  0  0  0  0
  4  3  2  0  0  0  0
  4  5  1  0  0  0  0
  5  6  2  0  0  0  0
  6  1  1  0  0  0  0
  8  3  1  0  0  0  0
  9  5  1  0  0  0  0
 10 11  1  0  0  0  0
 10 15  1  0  0  0  0
 11 12  1  0  0  0  0
 12 13  1  0  0  0  0
 14 13  1  0  0  0  0
 15 14  1  0  0  0  0
M  END
>  <minimizedAffinity>
-4.29964304

$$$$

 OpenBabel03212520453D

 15 16  0  0  0  0  0  0  0  0999 V2000
   38.7800   75.8160   58.5860 C   0  0  0  0  0  0  0  0  0  0  0  0
   37.9000   74.8610   58.0200 C   0  0  0  0  0  0  0  0  0  0  0  0
   37.1450   75.2450   56.8950 C   0  0  0  0  0  0  0  0  0  0  0  0
   37.3050   76.5070   56.4220 N   0  0  0  0  0  0  0  0  0  0  0  0
   38.1560   77.4040   56.9850 C   0  0  0  0  0  0  0  0  0  0  0  0
   38.8840   77.0510   58.0600 N   0  0  0  0  0  0  0  0  0  0  0  0
   37.7840   73.8590   58.4070 H   0  0  0  0  0  0  0  0  0  0  0  0
   36.4680   74.5470   56.4390 H   0  0  0  0  0  0  0  0  0  0  0  0
   38.2310   78.3980   56.5510 H   0  0  0  0  0  0  0  0  0  0  0  0
   39.5640   75.3770   59.7750 C   0  0  0  0  0  3  0  0  0  0  0  0
   40.7530   74.6180   59.2880 C   0  0  0  0  0  2  0  0  0  0  0  0
   41.5250   73.8900   60.3310 C   0  0  0  0  0  2  0  0  0  0  0  0
   40.7510   73.4560   61.5210 C   0  0  0  0  0  2  0  0  0  0  0  0
   39.2720   73.3650   61.2470 C   0  0  0  0  0  2  0  0  0  0  0  0
   38.6830   74.6390   60.7170 C   0  0  0  0  0  2  0  0  0  0  0  0
  1 10  1  0  0  0  0
  2  7  1  0  0  0  0
  2  1  2  0  0  0  0
  3  2  1  0  0  0  0
  4  3  2  0  0  0  0
  4  5  1  0  0  0  0
  5  6  2  0  0  0  0
  6  1  1  0  0  0  0
  8  3  1  0  0  0  0
  9  5  1  0  0  0  0
 10 15  1  0  0  0  0
 11 10  1  0  0  0  0
 11 12  1  0  0  0  0
 12 13  1  0  0  0  0
 14 13  1  0  0  0  0
 15 14  1  0  0  0  0
M  END
>  <minimizedAffinity>
-4.28654671

$$$$

 OpenBabel03212520453D

 15 16  0  0  0  0  0  0  0  0999 V2000
   41.4170   72.4680   61.7540 C   0  0  0  0  0  0  0  0  0  0  0  0
   42.4090   72.0310   60.8430 C   0  0  0  0  0  0  0  0  0  0  0  0
   43.1300   70.8640   61.1600 C   0  0  0  0  0  0  0  0  0  0  0  0
   42.8320   70.2280   62.3220 N   0  0  0  0  0  0  0  0  0  0  0  0
   41.8760   70.6690   63.1790 C   0  0  0  0  0  0  0  0  0  0  0  0
   41.1780   71.7830   62.8890 N   0  0  0  0  0  0  0  0  0  0  0  0
   42.6350   72.5480   59.9210 H   0  0  0  0  0  0  0  0  0  0  0  0
   43.8900   70.5030   60.4920 H   0  0  0  0  0  0  0  0  0  0  0  0
   41.6920   70.1070   64.0920 H   0  0  0  0  0  0  0  0  0  0  0  0
   40.6730   73.7050   61.3890 C   0  0  0  0  0  3  0  0  0  0  0  0
   39.2270   73.3550   61.2690 C   0  0  0  0  0  2  0  0  0  0  0  0
   38.3570   74.4040   60.6730 C   0  0  0  0  0  2  0  0  0  0  0  0
   39.0210   75.3280   59.7190 C   0  0  0  0  0  2  0  0  0  0  0  0
   40.2860   74.7480   59.1380 C   0  0  0  0  0  2  0  0  0  0  0  0
   41.2790   74.3190   60.1780 C   0  0  0  0  0  2  0  0  0  0  0  0
  1  6  1  0  0  0  0
  2  3  1  0  0  0  0
  2  1  2  0  0  0  0
  3  4  2  0  0  0  0
  4  5  1  0  0  0  0
  5  9  1  0  0  0  0
  6  5  2  0  0  0  0
  7  2  1  0  0  0  0
  8  3  1  0  0  0  0
 10  1  1  0  0  0  0
 11 10  1  0  0  0  0
 12 11  1  0  0  0  0
 13 12  1  0  0  0  0
 14 13  1  0  0  0  0
 14 15  1  0  0  0  0
 15 10  1  0  0  0  0
M  END
>  <minimizedAffinity>
-4.15771151

$$$$

 OpenBabel03212520453D

 15 16  0  0  0  0  0  0  0  0999 V2000
   37.9440   75.3710   57.8870 C   0  0  0  0  0  0  0  0  0  0  0  0
   38.6430   76.6020   57.8280 C   0  0  0  0  0  0  0  0  0  0  0  0
   38.3940   77.4510   56.7330 C   0  0  0  0  0  0  0  0  0  0  0  0
   37.4990   77.0390   55.7990 N   0  0  0  0  0  0  0  0  0  0  0  0
   36.8420   75.8530   55.8790 C   0  0  0  0  0  0  0  0  0  0  0  0
   37.0710   75.0310   56.9210 N   0  0  0  0  0  0  0  0  0  0  0  0
   39.3530   76.9170   58.5790 H   0  0  0  0  0  0  0  0  0  0  0  0
   38.9050   78.3930   56.6550 H   0  0  0  0  0  0  0  0  0  0  0  0
   36.1390   75.5890   55.0930 H   0  0  0  0  0  0  0  0  0  0  0  0
   38.2320   74.4970   59.0580 C   0  0  0  0  0  3  0  0  0  0  0  0
   39.0180   75.2940   60.0460 C   0  0  0  0  0  2  0  0  0  0  0  0
   39.6100   74.5220   61.1710 C   0  0  0  0  0  2  0  0  0  0  0  0
   39.9240   73.0990   60.8850 C   0  0  0  0  0  2  0  0  0  0  0  0
   40.0730   72.8270   59.4100 C   0  0  0  0  0  2  0  0  0  0  0  0
   38.8780   73.2380   58.6020 C   0  0  0  0  0  2  0  0  0  0  0  0
  1 10  1  0  0  0  0
  2  1  1  0  0  0  0
  2  7  1  0  0  0  0
  3  2  2  0  0  0  0
  4  5  2  0  0  0  0
  4  3  1  0  0  0  0
  5  6  1  0  0  0  0
  6  1  2  0  0  0  0
  8  3  1  0  0  0  0
  9  5  1  0  0  0  0
 10 11  1  0  0  0  0
 11 12  1  0  0  0  0
 13 12  1  0  0  0  0
 14 13  1  0  0  0  0
 15 10  1  0  0  0  0
 15 14  1  0  0  0  0
M  END
>  <minimizedAffinity>
-4.14825201

$$$$

 OpenBabel03212520453D

 15 16  0  0  0  0  0  0  0  0999 V2000
   41.1720   72.8480   61.0120 C   0  0  0  0  0  0  0  0  0  0  0  0
   42.3840   72.3950   60.4370 C   0  0  0  0  0  0  0  0  0  0  0  0
   43.1040   71.3940   61.1170 C   0  0  0  0  0  0  0  0  0  0  0  0
   42.5940   70.9240   62.2830 N   0  0  0  0  0  0  0  0  0  0  0  0
   41.4280   71.3760   62.8130 C   0  0  0  0  0  0  0  0  0  0  0  0
   40.7290   72.3330   62.1740 N   0  0  0  0  0  0  0  0  0  0  0  0
   42.7790   72.7790   59.5070 H   0  0  0  0  0  0  0  0  0  0  0  0
   44.0280   71.0260   60.7090 H   0  0  0  0  0  0  0  0  0  0  0  0
   41.0810   70.9520   63.7520 H   0  0  0  0  0  0  0  0  0  0  0  0
   40.4360   73.9080   60.2680 C   0  0  0  0  0  3  0  0  0  0  0  0
   41.4380   74.8780   59.7370 C   0  0  0  0  0  2  0  0  0  0  0  0
   40.8810   76.1380   59.1750 C   0  0  0  0  0  2  0  0  0  0  0  0
   39.5860   76.5840   59.7480 C   0  0  0  0  0  2  0  0  0  0  0  0
   39.3240   75.9950   61.1110 C   0  0  0  0  0  2  0  0  0  0  0  0
   39.3820   74.4960   61.1360 C   0  0  0  0  0  2  0  0  0  0  0  0
  1  6  1  0  0  0  0
  2  1  2  0  0  0  0
  2  3  1  0  0  0  0
  3  4  2  0  0  0  0
  4  5  1  0  0  0  0
  5  9  1  0  0  0  0
  6  5  2  0  0  0  0
  7  2  1  0  0  0  0
  8  3  1  0  0  0  0
 10  1  1  0  0  0  0
 10 15  1  0  0  0  0
 11 10  1  0  0  0  0
 12 11  1  0  0  0  0
 12 13  1  0  0  0  0
 13 14  1  0  0  0  0
 14 15  1  0  0  0  0
M  END
>  <minimizedAffinity>
-4.07316494

$$$$

 OpenBabel03212520453D

 15 16  0  0  0  0  0  0  0  0999 V2000
   38.5810   76.0250   57.5430 C   0  0  0  0  0  0  0  0  0  0  0  0
   38.3390   77.2300   56.8390 C   0  0  0  0  0  0  0  0  0  0  0  0
   37.2370   77.2730   55.9630 C   0  0  0  0  0  0  0  0  0  0  0  0
   36.4740   76.1560   55.8450 N   0  0  0  0  0  0  0  0  0  0  0  0
   36.7290   75.0130   56.5320 C   0  0  0  0  0  0  0  0  0  0  0  0
   37.7790   74.9570   57.3730 N   0  0  0  0  0  0  0  0  0  0  0  0
   38.9550   78.1110   56.9440 H   0  0  0  0  0  0  0  0  0  0  0  0
   37.0230   78.1700   55.4130 H   0  0  0  0  0  0  0  0  0  0  0  0
   36.0740   74.1570   56.3860 H   0  0  0  0  0  0  0  0  0  0  0  0
   39.7550   76.0130   58.4610 C   0  0  0  0  0  3  0  0  0  0  0  0
   39.9090   77.3850   59.0280 C   0  0  0  0  0  2  0  0  0  0  0  0
   41.1700   77.6350   59.7760 C   0  0  0  0  0  2  0  0  0  0  0  0
   42.3410   76.8240   59.3570 C   0  0  0  0  0  2  0  0  0  0  0  0
   42.1990   76.2840   57.9570 C   0  0  0  0  0  2  0  0  0  0  0  0
   40.9470   75.4840   57.7490 C   0  0  0  0  0  2  0  0  0  0  0  0
  1 10  1  0  0  0  0
  2  7  1  0  0  0  0
  2  1  2  0  0  0  0
  3  2  1  0  0  0  0
  4  3  2  0  0  0  0
  4  5  1  0  0  0  0
  5  6  2  0  0  0  0
  6  1  1  0  0  0  0
  8  3  1  0  0  0  0
  9  5  1  0  0  0  0
 10 11  1  0  0  0  0
 11 12  1  0  0  0  0
 13 12  1  0  0  0  0
 14 13  1  0  0  0  0
 15 14  1  0  0  0  0
 15 10  1  0  0  0  0
M  END
>  <minimizedAffinity>
-4.03828239

$$$$

 OpenBabel03212520453D

 15 16  0  0  0  0  0  0  0  0999 V2000
   40.9490   73.7690   60.7300 C   0  0  0  0  0  0  0  0  0  0  0  0
   39.6550   73.5380   61.2590 C   0  0  0  0  0  0  0  0  0  0  0  0
   38.6590   74.5030   61.0120 C   0  0  0  0  0  0  0  0  0  0  0  0
   38.9990   75.5970   60.2840 N   0  0  0  0  0  0  0  0  0  0  0  0
   40.2480   75.7940   59.7890 C   0  0  0  0  0  0  0  0  0  0  0  0
   41.2100   74.8810   60.0170 N   0  0  0  0  0  0  0  0  0  0  0  0
   39.3990   72.6620   61.8360 H   0  0  0  0  0  0  0  0  0  0  0  0
   37.6660   74.3600   61.3970 H   0  0  0  0  0  0  0  0  0  0  0  0
   40.4470   76.6960   59.2150 H   0  0  0  0  0  0  0  0  0  0  0  0
   41.9780   72.7300   61.0100 C   0  0  0  0  0  3  0  0  0  0  0  0
   41.6170   71.5050   60.2370 C   0  0  0  0  0  2  0  0  0  0  0  0
   42.3880   70.2790   60.5760 C   0  0  0  0  0  2  0  0  0  0  0  0
   42.9080   70.2050   61.9650 C   0  0  0  0  0  2  0  0  0  0  0  0
   42.1520   71.1010   62.9120 C   0  0  0  0  0  2  0  0  0  0  0  0
   42.1170   72.5370   62.4770 C   0  0  0  0  0  2  0  0  0  0  0  0
  1 10  1  0  0  0  0
  1  2  1  0  0  0  0
  2  7  1  0  0  0  0
  3  2  2  0  0  0  0
  3  8  1  0  0  0  0
  4  3  1  0  0  0  0
  5  6  1  0  0  0  0
  5  4  2  0  0  0  0
  6  1  2  0  0  0  0
  9  5  1  0  0  0  0
 10 15  1  0  0  0  0
 11 12  1  0  0  0  0
 11 10  1  0  0  0  0
 12 13  1  0  0  0  0
 13 14  1  0  0  0  0
 15 14  1  0  0  0  0
M  END
>  <minimizedAffinity>
-3.97021818

$$$$

 OpenBabel03212520453D

 15 16  0  0  0  0  0  0  0  0999 V2000
   40.0650   74.3660   59.6210 C   0  0  0  0  0  0  0  0  0  0  0  0
   40.4910   75.6350   60.0850 C   0  0  0  0  0  0  0  0  0  0  0  0
   39.8390   76.7760   59.5780 C   0  0  0  0  0  0  0  0  0  0  0  0
   38.8420   76.5910   58.6750 N   0  0  0  0  0  0  0  0  0  0  0  0
   38.4540   75.3620   58.2470 C   0  0  0  0  0  0  0  0  0  0  0  0
   39.0680   74.2630   58.7220 N   0  0  0  0  0  0  0  0  0  0  0  0
   41.2860   75.7670   60.8040 H   0  0  0  0  0  0  0  0  0  0  0  0
   40.1350   77.7550   59.9080 H   0  0  0  0  0  0  0  0  0  0  0  0
   37.6470   75.2920   57.5210 H   0  0  0  0  0  0  0  0  0  0  0  0
   40.7760   73.1810   60.1760 C   0  0  0  0  0  3  0  0  0  0  0  0
   40.3500   73.0130   61.5970 C   0  0  0  0  0  2  0  0  0  0  0  0
   41.1340   72.0310   62.3930 C   0  0  0  0  0  2  0  0  0  0  0  0
   42.5440   71.8340   61.9680 C   0  0  0  0  0  2  0  0  0  0  0  0
   43.0740   72.9970   61.1700 C   0  0  0  0  0  2  0  0  0  0  0  0
   42.2400   73.3250   59.9660 C   0  0  0  0  0  2  0  0  0  0  0  0
  1  2  1  0  0  0  0
  1 10  1  0  0  0  0
  2  7  1  0  0  0  0
  3  8  1  0  0  0  0
  3  2  2  0  0  0  0
  4  3  1  0  0  0  0
  5  4  2  0  0  0  0
  5  6  1  0  0  0  0
  6  1  2  0  0  0  0
  9  5  1  0  0  0  0
 10 11  1  0  0  0  0
 11 12  1  0  0  0  0
 13 12  1  0  0  0  0
 14 13  1  0  0  0  0
 15 10  1  0  0  0  0
 15 14  1  0  0  0  0
M  END
>  <minimizedAffinity>
-3.9567492

$$$$

 OpenBabel03212520453D

 15 16  0  0  0  0  0  0  0  0999 V2000
   42.0060   69.4770   62.2120 C   0  0  0  0  0  0  0  0  0  0  0  0
   42.4670   69.7390   60.8980 C   0  0  0  0  0  0  0  0  0  0  0  0
   42.7210   71.0770   60.5420 C   0  0  0  0  0  0  0  0  0  0  0  0
   42.5070   72.0360   61.4780 N   0  0  0  0  0  0  0  0  0  0  0  0
   42.0640   71.7580   62.7310 C   0  0  0  0  0  0  0  0  0  0  0  0
   41.8170   70.4840   63.0860 N   0  0  0  0  0  0  0  0  0  0  0  0
   42.6330   68.9640   60.1640 H   0  0  0  0  0  0  0  0  0  0  0  0
   43.0720   71.3120   59.5540 H   0  0  0  0  0  0  0  0  0  0  0  0
   41.9150   72.5800   63.4280 H   0  0  0  0  0  0  0  0  0  0  0  0
   41.7470   68.0510   62.5560 C   0  0  0  0  0  3  0  0  0  0  0  0
   41.6000   67.2890   61.2810 C   0  0  0  0  0  2  0  0  0  0  0  0
   41.0950   65.8970   61.4170 C   0  0  0  0  0  2  0  0  0  0  0  0
   40.2220   65.6380   62.5910 C   0  0  0  0  0  2  0  0  0  0  0  0
   39.5940   66.8960   63.1310 C   0  0  0  0  0  2  0  0  0  0  0  0
   40.5920   67.9580   63.4870 C   0  0  0  0  0  2  0  0  0  0  0  0
  1 10  1  0  0  0  0
  1  6  1  0  0  0  0
  2  1  2  0  0  0  0
  3  2  1  0  0  0  0
  3  4  2  0  0  0  0
  4  5  1  0  0  0  0
  5  6  2  0  0  0  0
  5  9  1  0  0  0  0
  7  2  1  0  0  0  0
  8  3  1  0  0  0  0
 10 15  1  0  0  0  0
 11 12  1  0  0  0  0
 11 10  1  0  0  0  0
 12 13  1  0  0  0  0
 13 14  1  0  0  0  0
 14 15  1  0  0  0  0
M  END
>  <minimizedAffinity>
-3.95203424

$$$$
