
 OpenBabel03212520533D

 22 24  0  0  0  0  0  0  0  0999 V2000
   42.7600   84.5700   60.2200 C   0  0  0  0  0  0  0  0  0  0  0  0
   41.4010   84.2840   59.9910 C   0  0  0  0  0  0  0  0  0  0  0  0
   40.9810   82.9950   60.0330 C   0  0  0  0  0  0  0  0  0  0  0  0
   41.9250   81.9820   60.3040 C   0  0  0  0  0  0  0  0  0  0  0  0
   43.5040   82.9180   60.5120 S   0  0  0  0  0  0  0  0  0  0  0  0
   40.6910   85.0730   59.7850 H   0  0  0  0  0  0  0  0  0  0  0  0
   39.9900   82.6050   59.8830 H   0  0  0  0  0  0  0  0  0  0  0  0
   44.3960   87.6180   61.3690 C   0  0  0  0  0  0  0  0  0  0  0  0
   44.4390   88.4230   60.2140 C   0  0  0  0  0  0  0  0  0  0  0  0
   43.8970   87.9020   59.0310 C   0  0  0  0  0  0  0  0  0  0  0  0
   43.3630   86.6490   59.0760 N   0  0  0  0  0  0  0  0  0  0  0  0
   43.3450   85.9200   60.2060 C   0  0  0  0  0  0  0  0  0  0  0  0
   43.8490   86.3800   61.3450 N   0  0  0  0  0  0  0  0  0  0  0  0
   44.8220   88.0530   62.2590 H   0  0  0  0  0  0  0  0  0  0  0  0
   44.8690   89.4140   60.2060 H   0  0  0  0  0  0  0  0  0  0  0  0
   43.8800   88.4260   58.1080 H   0  0  0  0  0  0  0  0  0  0  0  0
   41.9200   80.5640   60.4340 C   0  0  0  0  0  0  0  0  0  0  0  0
   42.8450   80.1770   61.5700 C   0  0  0  0  0  0  0  0  0  0  0  0
   42.7010   78.6800   61.7410 C   0  0  0  0  0  0  0  0  0  0  0  0
   41.3680   78.3320   62.3840 C   0  0  0  0  0  0  0  0  0  0  0  0
   40.4370   79.4770   62.1490 C   0  0  0  0  0  0  0  0  0  0  0  0
   40.5550   79.9830   60.7370 C   0  0  0  0  0  0  0  0  0  0  0  0
  1  5  1  0  0  0  0
  2  3  1  0  0  0  0
  2  1  2  0  0  0  0
  3  4  2  0  0  0  0
  4 17  1  0  0  0  0
  4  5  1  0  0  0  0
  6  2  1  0  0  0  0
  7  3  1  0  0  0  0
  8 14  1  0  0  0  0
  9  8  2  0  0  0  0
 10 11  2  0  0  0  0
 10  9  1  0  0  0  0
 11 12  1  0  0  0  0
 12  1  1  0  0  0  0
 12 13  2  0  0  0  0
 13  8  1  0  0  0  0
 15  9  1  0  0  0  0
 16 10  1  0  0  0  0
 17 22  1  0  0  0  0
 17 18  1  0  0  0  0
 18 19  1  0  0  0  0
 19 20  1  0  0  0  0
 21 20  1  0  0  0  0
 22 21  1  0  0  0  0
M  END
>  <minimizedAffinity>
-4.20845699

>  <minimizedRMSD>
6.82419395

$$$$
