
 OpenBabel03212521063D

 33 36  0  0  0  0  0  0  0  0999 V2000
   41.8110   84.2490   61.5620 C   0  0  0  0  0  0  0  0  0  0  0  0
   41.4540   83.9440   62.8720 C   0  0  0  0  0  0  0  0  0  0  0  0
   40.1780   83.5200   63.1960 C   0  0  0  0  0  0  0  0  0  0  0  0
   39.2280   83.3930   62.1970 C   0  0  0  0  0  0  0  0  0  0  0  0
   39.5750   83.6960   60.8860 C   0  0  0  0  0  0  0  0  0  0  0  0
   40.8530   84.1210   60.5600 C   0  0  0  0  0  0  0  0  0  0  0  0
   42.1710   84.0290   63.6950 H   0  0  0  0  0  0  0  0  0  0  0  0
   39.8670   83.2740   64.2010 H   0  0  0  0  0  0  0  0  0  0  0  0
   38.2000   83.0670   62.3540 H   0  0  0  0  0  0  0  0  0  0  0  0
   38.8360   83.6010   60.0920 H   0  0  0  0  0  0  0  0  0  0  0  0
   45.3410   84.1550   60.6290 C   0  0  0  0  0  0  0  0  0  0  0  0
   45.7260   85.4810   60.7100 C   0  0  0  0  0  0  0  0  0  0  0  0
   44.7540   86.4220   61.0920 C   0  0  0  0  0  0  0  0  0  0  0  0
   43.4970   85.9930   61.3610 N   0  0  0  0  0  0  0  0  0  0  0  0
   43.1530   84.6890   61.2720 C   0  0  0  0  0  0  0  0  0  0  0  0
   44.0780   83.7980   60.9090 N   0  0  0  0  0  0  0  0  0  0  0  0
   45.9960   83.3210   60.3450 H   0  0  0  0  0  0  0  0  0  0  0  0
   46.7580   85.6940   60.4690 H   0  0  0  0  0  0  0  0  0  0  0  0
   45.0750   87.4420   61.1480 H   0  0  0  0  0  0  0  0  0  0  0  0
   41.1670   84.4250   59.1850 C   0  0  0  0  0  0  0  0  0  0  0  0
   40.7100   85.6990   58.8230 C   0  0  0  0  0  0  0  0  0  0  0  0
   40.9170   86.1800   57.5290 C   0  0  0  0  0  0  0  0  0  0  0  0
   41.5600   85.3760   56.6660 N   0  0  0  0  0  0  0  0  0  0  0  0
   41.9990   84.1450   57.0280 C   0  0  0  0  0  0  0  0  0  0  0  0
   41.8000   83.6840   58.2690 N   0  0  0  0  0  0  0  0  0  0  0  0
   40.1860   86.3940   59.4630 H   0  0  0  0  0  0  0  0  0  0  0  0
   40.5720   87.1680   57.2160 H   0  0  0  0  0  0  0  0  0  0  0  0
   42.7070   83.2940   56.0340 C   0  0  0  0  0  3  0  0  0  0  0  0
   43.8000   84.0790   55.3230 C   0  0  0  0  0  2  0  0  0  0  0  0
   44.2250   83.2270   54.1420 C   0  0  0  0  0  2  0  0  0  0  0  0
   44.8880   81.9850   54.7380 C   0  0  0  0  0  2  0  0  0  0  0  0
   43.9240   81.2250   55.5970 C   0  0  0  0  0  2  0  0  0  0  0  0
   43.2750   82.0510   56.6670 C   0  0  0  0  0  2  0  0  0  0  0  0
  1  2  1  0  0  0  0
  2  3  2  0  0  0  0
  2  7  1  0  0  0  0
  3  8  1  0  0  0  0
  4  9  1  0  0  0  0
  4  3  1  0  0  0  0
  5  4  2  0  0  0  0
  6  5  1  0  0  0  0
  6  1  2  0  0  0  0
 10  5  1  0  0  0  0
 11 12  2  0  0  0  0
 11 16  1  0  0  0  0
 12 13  1  0  0  0  0
 13 19  1  0  0  0  0
 13 14  2  0  0  0  0
 15 14  1  0  0  0  0
 15  1  1  0  0  0  0
 16 15  2  0  0  0  0
 17 11  1  0  0  0  0
 18 12  1  0  0  0  0
 20  6  1  0  0  0  0
 21 20  1  0  0  0  0
 21 26  1  0  0  0  0
 22 21  2  0  0  0  0
 23 24  2  0  0  0  0
 23 22  1  0  0  0  0
 24 25  1  0  0  0  0
 25 20  2  0  0  0  0
 27 22  1  0  0  0  0
 28 33  1  0  0  0  0
 28 24  1  0  0  0  0
 29 28  1  0  0  0  0
 30 31  1  0  0  0  0
 30 29  1  0  0  0  0
 31 32  1  0  0  0  0
 32 33  1  0  0  0  0
M  END
>  <minimizedAffinity>
-5.31304312

>  <minimizedRMSD>
0.23628588

$$$$
