
 OpenBabel03212520053D

 38 42  0  0  0  0  0  0  0  0999 V2000
   40.5460   81.6870   57.1410 C   0  0  0  0  0  0  0  0  0  0  0  0
   41.7320   82.0400   56.4820 C   0  0  0  0  0  0  0  0  0  0  0  0
   42.6470   82.7920   57.1720 C   0  0  0  0  0  0  0  0  0  0  0  0
   42.3890   83.1690   58.4570 N   0  0  0  0  0  0  0  0  0  0  0  0
   41.2320   82.8110   59.0720 C   0  0  0  0  0  0  0  0  0  0  0  0
   40.2990   82.0650   58.4120 N   0  0  0  0  0  0  0  0  0  0  0  0
   39.7370   81.1040   56.7270 H   0  0  0  0  0  0  0  0  0  0  0  0
   41.7250   81.6010   55.5120 H   0  0  0  0  0  0  0  0  0  0  0  0
   39.6770   83.0800   60.9410 C   0  0  0  0  0  0  0  0  0  0  0  0
   40.9820   83.1840   60.4560 C   0  0  0  0  0  0  0  0  0  0  0  0
   42.0240   83.6130   61.2800 C   0  0  0  0  0  0  0  0  0  0  0  0
   41.7940   83.9490   62.6060 C   0  0  0  0  0  0  0  0  0  0  0  0
   42.5220   84.3810   63.6480 N   0  0  0  0  0  0  0  0  0  0  0  0
   41.7540   84.5470   64.7330 C   0  0  0  0  0  0  0  0  0  0  0  0
   40.5210   84.2010   64.3260 N   0  0  0  0  0  0  0  0  0  0  0  0
   40.5080   83.8310   63.0320 C   0  0  0  0  0  0  0  0  0  0  0  0
   39.4280   83.4140   62.2760 C   0  0  0  0  0  0  0  0  0  0  0  0
   38.8440   82.7520   60.3320 H   0  0  0  0  0  0  0  0  0  0  0  0
   43.0360   83.6930   60.8980 H   0  0  0  0  0  0  0  0  0  0  0  0
   43.5650   84.5440   63.5420 H   0  0  0  0  0  0  0  0  0  0  0  0
   42.1130   84.8870   65.6930 H   0  0  0  0  0  0  0  0  0  0  0  0
   38.4500   83.3560   62.7070 H   0  0  0  0  0  0  0  0  0  0  0  0
   42.4870   83.4210   54.2610 Cl  0  0  0  0  0  0  0  0  0  0  0  0
   43.9680   83.5310   55.2230 C   0  0  0  0  0  0  0  0  0  0  0  0
   43.8850   83.2080   56.5550 C   0  0  0  0  0  0  0  0  0  0  0  0
   45.0890   83.3270   57.2370 C   0  0  0  0  0  0  0  0  0  0  0  0
   46.2700   83.7310   56.6520 C   0  0  0  0  0  0  0  0  0  0  0  0
   46.2820   84.0440   55.2980 C   0  0  0  0  0  0  0  0  0  0  0  0
   47.7760   84.5470   54.5560 Cl  0  0  0  0  0  0  0  0  0  0  0  0
   45.1270   83.9410   54.5930 C   0  0  0  0  0  0  0  0  0  0  0  0
   45.1190   83.0930   58.2920 H   0  0  0  0  0  0  0  0  0  0  0  0
   47.1720   83.8030   57.2440 H   0  0  0  0  0  0  0  0  0  0  0  0
   45.0400   84.2500   53.1480 C   0  0  0  0  0  3  0  0  0  0  0  0
   44.2690   85.5090   52.8290 C   0  0  0  0  0  2  0  0  0  0  0  0
   44.3330   85.7130   51.3400 C   0  0  0  0  0  2  0  0  0  0  0  0
   45.3190   84.8550   50.6210 C   0  0  0  0  0  2  0  0  0  0  0  0
   45.1370   83.3790   50.8970 C   0  0  0  0  0  2  0  0  0  0  0  0
   44.5270   83.1560   52.2780 C   0  0  0  0  0  2  0  0  0  0  0  0
  1  6  1  0  0  0  0
  2  1  2  0  0  0  0
  2  3  1  0  0  0  0
  3  4  2  0  0  0  0
  4  5  1  0  0  0  0
  5 10  1  0  0  0  0
  6  5  2  0  0  0  0
  7  1  1  0  0  0  0
  8  2  1  0  0  0  0
  9 17  1  0  0  0  0
 10  9  2  0  0  0  0
 10 11  1  0  0  0  0
 11 12  2  0  0  0  0
 12 16  1  0  0  0  0
 12 13  1  0  0  0  0
 13 14  1  0  0  0  0
 14 21  1  0  0  0  0
 15 14  2  0  0  0  0
 16 15  1  0  0  0  0
 17 22  1  0  0  0  0
 17 16  2  0  0  0  0
 18  9  1  0  0  0  0
 19 11  1  0  0  0  0
 20 13  1  0  0  0  0
 23 24  1  0  0  0  0
 24 25  1  0  0  0  0
 25  3  1  0  0  0  0
 25 26  2  0  0  0  0
 26 31  1  0  0  0  0
 27 26  1  0  0  0  0
 27 32  1  0  0  0  0
 28 27  2  0  0  0  0
 29 28  1  0  0  0  0
 30 24  2  0  0  0  0
 30 28  1  0  0  0  0
 33 30  1  0  0  0  0
 34 33  1  0  0  0  0
 35 34  1  0  0  0  0
 36 37  1  0  0  0  0
 36 35  1  0  0  0  0
 37 38  1  0  0  0  0
 38 33  1  0  0  0  0
M  END
>  <minimizedAffinity>
-4.78233147

>  <minimizedRMSD>
0.937495649

$$$$
