
 OpenBabel03212520273D

 25 27  0  0  0  0  0  0  0  0999 V2000
   42.4260   84.8570   60.9870 C   0  0  0  0  0  0  0  0  0  0  0  0
   43.5040   85.1980   61.8130 C   0  0  0  0  0  0  0  0  0  0  0  0
   44.1340   86.1840   61.0350 C   0  0  0  0  0  0  0  0  0  0  0  0
   43.4650   86.3830   59.8650 N   0  0  0  0  0  0  0  0  0  0  0  0
   42.4240   85.5580   59.8630 N   0  0  0  0  0  0  0  0  0  0  0  0
   43.8140   84.8440   62.7730 H   0  0  0  0  0  0  0  0  0  0  0  0
   45.0380   86.7360   61.3020 H   0  0  0  0  0  0  0  0  0  0  0  0
   40.8390   81.5770   61.8120 C   0  0  0  0  0  0  0  0  0  0  0  0
   41.8240   82.5100   61.4740 C   0  0  0  0  0  0  0  0  0  0  0  0
   41.4380   83.8520   61.3360 C   0  0  0  0  0  0  0  0  0  0  0  0
   40.1440   84.1930   61.5310 N   0  0  0  0  0  0  0  0  0  0  0  0
   39.2190   83.2510   61.8580 C   0  0  0  0  0  0  0  0  0  0  0  0
   39.5660   81.9650   61.9950 N   0  0  0  0  0  0  0  0  0  0  0  0
   41.2600   80.5820   61.8880 H   0  0  0  0  0  0  0  0  0  0  0  0
   42.8720   82.2860   61.3080 H   0  0  0  0  0  0  0  0  0  0  0  0
   38.1870   83.5240   62.0140 H   0  0  0  0  0  0  0  0  0  0  0  0
   43.8360   87.3180   58.8370 C   0  0  0  0  0  0  0  0  0  0  0  0
   43.8550   88.3400   59.2080 H   0  0  0  0  0  0  0  0  0  0  0  0
   43.0610   87.2220   58.0260 H   0  0  0  0  0  0  0  0  0  0  0  0
   45.1510   86.8630   58.2510 C   0  0  0  0  0  3  0  0  0  0  0  0
   45.8130   87.9380   57.4210 C   0  0  0  0  0  2  0  0  0  0  0  0
   47.2620   87.4890   57.2660 C   0  0  0  0  0  2  0  0  0  0  0  0
   47.3430   86.1600   56.5690 C   0  0  0  0  0  2  0  0  0  0  0  0
   46.3920   85.1290   57.0770 C   0  0  0  0  0  2  0  0  0  0  0  0
   44.9980   85.6650   57.3610 C   0  0  0  0  0  2  0  0  0  0  0  0
  1 10  1  0  0  0  0
  1  2  1  0  0  0  0
  2  6  1  0  0  0  0
  3  7  1  0  0  0  0
  3  2  2  0  0  0  0
  4  3  1  0  0  0  0
  5  4  1  0  0  0  0
  5  1  2  0  0  0  0
  8 14  1  0  0  0  0
  8 13  1  0  0  0  0
  9  8  2  0  0  0  0
 10  9  1  0  0  0  0
 10 11  2  0  0  0  0
 11 12  1  0  0  0  0
 12 13  2  0  0  0  0
 12 16  1  0  0  0  0
 15  9  1  0  0  0  0
 17 18  1  0  0  0  0
 17  4  1  0  0  0  0
 19 17  1  0  0  0  0
 20 17  1  0  0  0  0
 21 20  1  0  0  0  0
 22 21  1  0  0  0  0
 23 24  1  0  0  0  0
 23 22  1  0  0  0  0
 24 25  1  0  0  0  0
 25 20  1  0  0  0  0
M  END
>  <minimizedAffinity>
-4.1704812

>  <minimizedRMSD>
0.533250213

$$$$
