
 OpenBabel03212520053D

 38 42  0  0  0  0  0  0  0  0999 V2000
   40.7390   81.7580   57.1910 C   0  0  0  0  0  0  0  0  0  0  0  0
   41.9020   82.2090   56.5490 C   0  0  0  0  0  0  0  0  0  0  0  0
   42.7480   83.0230   57.2570 C   0  0  0  0  0  0  0  0  0  0  0  0
   42.4470   83.3660   58.5420 N   0  0  0  0  0  0  0  0  0  0  0  0
   41.3140   82.9130   59.1410 C   0  0  0  0  0  0  0  0  0  0  0  0
   40.4500   82.1040   58.4620 N   0  0  0  0  0  0  0  0  0  0  0  0
   39.9830   81.1180   56.7620 H   0  0  0  0  0  0  0  0  0  0  0  0
   41.9390   81.7810   55.5760 H   0  0  0  0  0  0  0  0  0  0  0  0
   39.7120   83.0870   60.9800 C   0  0  0  0  0  0  0  0  0  0  0  0
   41.0210   83.2510   60.5250 C   0  0  0  0  0  0  0  0  0  0  0  0
   42.0280   83.7070   61.3770 C   0  0  0  0  0  0  0  0  0  0  0  0
   41.7570   84.0100   62.7040 C   0  0  0  0  0  0  0  0  0  0  0  0
   42.4460   84.4520   63.7690 N   0  0  0  0  0  0  0  0  0  0  0  0
   41.6480   84.5690   64.8390 C   0  0  0  0  0  0  0  0  0  0  0  0
   40.4400   84.1820   64.4000 N   0  0  0  0  0  0  0  0  0  0  0  0
   40.4680   83.8330   63.1000 C   0  0  0  0  0  0  0  0  0  0  0  0
   39.4220   83.3880   62.3150 C   0  0  0  0  0  0  0  0  0  0  0  0
   38.9060   82.7360   60.3480 H   0  0  0  0  0  0  0  0  0  0  0  0
   43.0440   83.8330   61.0200 H   0  0  0  0  0  0  0  0  0  0  0  0
   43.4830   84.6580   63.6880 H   0  0  0  0  0  0  0  0  0  0  0  0
   41.9730   84.9050   65.8130 H   0  0  0  0  0  0  0  0  0  0  0  0
   38.4380   83.2830   62.7230 H   0  0  0  0  0  0  0  0  0  0  0  0
   42.4940   83.9420   54.4310 Cl  0  0  0  0  0  0  0  0  0  0  0  0
   43.9960   84.0010   55.3650 C   0  0  0  0  0  0  0  0  0  0  0  0
   43.9560   83.5400   56.6580 C   0  0  0  0  0  0  0  0  0  0  0  0
   45.1740   83.6280   57.3220 C   0  0  0  0  0  0  0  0  0  0  0  0
   46.3270   84.1290   56.7550 C   0  0  0  0  0  0  0  0  0  0  0  0
   46.2940   84.5780   55.4410 C   0  0  0  0  0  0  0  0  0  0  0  0
   47.7520   85.2040   54.7210 Cl  0  0  0  0  0  0  0  0  0  0  0  0
   45.1250   84.5110   54.7550 C   0  0  0  0  0  0  0  0  0  0  0  0
   45.2380   83.2880   58.3460 H   0  0  0  0  0  0  0  0  0  0  0  0
   47.2400   84.1680   57.3310 H   0  0  0  0  0  0  0  0  0  0  0  0
   44.9910   84.9630   53.3520 C   0  0  0  0  0  3  0  0  0  0  0  0
   45.6850   84.0760   52.3450 C   0  0  0  0  0  2  0  0  0  0  0  0
   45.3960   84.6330   50.9780 C   0  0  0  0  0  2  0  0  0  0  0  0
   44.3280   85.6740   50.9260 C   0  0  0  0  0  2  0  0  0  0  0  0
   44.5740   86.8270   51.8730 C   0  0  0  0  0  2  0  0  0  0  0  0
   45.3860   86.3740   53.0830 C   0  0  0  0  0  2  0  0  0  0  0  0
  1  6  1  0  0  0  0
  2  1  2  0  0  0  0
  2  3  1  0  0  0  0
  3  4  2  0  0  0  0
  4  5  1  0  0  0  0
  5 10  1  0  0  0  0
  6  5  2  0  0  0  0
  7  1  1  0  0  0  0
  8  2  1  0  0  0  0
  9 17  1  0  0  0  0
 10  9  2  0  0  0  0
 10 11  1  0  0  0  0
 11 12  2  0  0  0  0
 12 16  1  0  0  0  0
 12 13  1  0  0  0  0
 13 14  1  0  0  0  0
 14 21  1  0  0  0  0
 15 14  2  0  0  0  0
 16 15  1  0  0  0  0
 17 22  1  0  0  0  0
 17 16  2  0  0  0  0
 18  9  1  0  0  0  0
 19 11  1  0  0  0  0
 20 13  1  0  0  0  0
 23 24  1  0  0  0  0
 24 25  1  0  0  0  0
 25  3  1  0  0  0  0
 25 26  2  0  0  0  0
 26 31  1  0  0  0  0
 27 26  1  0  0  0  0
 27 32  1  0  0  0  0
 28 27  2  0  0  0  0
 29 28  1  0  0  0  0
 30 24  2  0  0  0  0
 30 28  1  0  0  0  0
 33 30  1  0  0  0  0
 34 33  1  0  0  0  0
 35 34  1  0  0  0  0
 36 35  1  0  0  0  0
 36 37  1  0  0  0  0
 37 38  1  0  0  0  0
 38 33  1  0  0  0  0
M  END
>  <minimizedAffinity>
-5.00425196

>  <minimizedRMSD>
0.497284383

$$$$
