
 OpenBabel03212521043D

 25 27  0  0  0  0  0  0  0  0999 V2000
   40.0240   72.6070   58.9600 C   0  0  0  0  0  0  0  0  0  0  0  0
   39.2690   71.6530   58.2570 C   0  0  0  0  0  0  0  0  0  0  0  0
   38.4300   72.0210   57.2140 C   0  0  0  0  0  0  0  0  0  0  0  0
   38.3440   73.3640   56.8680 C   0  0  0  0  0  0  0  0  0  0  0  0
   39.0960   74.2920   57.5720 C   0  0  0  0  0  0  0  0  0  0  0  0
   39.9470   73.9480   58.6250 C   0  0  0  0  0  0  0  0  0  0  0  0
   39.3480   70.6160   58.5400 H   0  0  0  0  0  0  0  0  0  0  0  0
   37.8890   71.2210   56.7320 H   0  0  0  0  0  0  0  0  0  0  0  0
   37.6880   73.6410   56.0540 H   0  0  0  0  0  0  0  0  0  0  0  0
   38.9570   75.3070   57.2230 H   0  0  0  0  0  0  0  0  0  0  0  0
   42.7550   70.9260   60.7140 C   0  0  0  0  0  0  0  0  0  0  0  0
   42.4750   71.2150   62.0680 C   0  0  0  0  0  0  0  0  0  0  0  0
   41.3360   71.9980   62.3790 C   0  0  0  0  0  0  0  0  0  0  0  0
   40.5900   72.4190   61.3410 N   0  0  0  0  0  0  0  0  0  0  0  0
   40.8720   72.1310   60.0330 C   0  0  0  0  0  0  0  0  0  0  0  0
   41.9360   71.3990   59.7670 N   0  0  0  0  0  0  0  0  0  0  0  0
   43.6060   70.3350   60.4250 H   0  0  0  0  0  0  0  0  0  0  0  0
   43.1280   70.8370   62.8290 H   0  0  0  0  0  0  0  0  0  0  0  0
   41.1070   72.2280   63.3870 H   0  0  0  0  0  0  0  0  0  0  0  0
   40.6980   75.0250   59.2930 C   0  0  0  0  0  3  0  0  0  0  0  0
   39.7800   76.1040   59.8430 C   0  0  0  0  0  2  0  0  0  0  0  0
   40.2920   77.4940   59.6370 C   0  0  0  0  0  2  0  0  0  0  0  0
   41.7910   77.6340   59.7660 C   0  0  0  0  0  2  0  0  0  0  0  0
   42.5380   76.5970   58.9900 C   0  0  0  0  0  2  0  0  0  0  0  0
   41.5250   75.7710   58.2240 C   0  0  0  0  0  2  0  0  0  0  0  0
  1 15  1  0  0  0  0
  2  7  1  0  0  0  0
  2  1  2  0  0  0  0
  3  2  1  0  0  0  0
  4  3  2  0  0  0  0
  4  5  1  0  0  0  0
  5  6  2  0  0  0  0
  6  1  1  0  0  0  0
  6 20  1  0  0  0  0
  8  3  1  0  0  0  0
  9  4  1  0  0  0  0
 10  5  1  0  0  0  0
 11 12  1  0  0  0  0
 12 13  2  0  0  0  0
 12 18  1  0  0  0  0
 13 19  1  0  0  0  0
 14 13  1  0  0  0  0
 15 14  2  0  0  0  0
 16 15  1  0  0  0  0
 16 11  2  0  0  0  0
 17 11  1  0  0  0  0
 20 21  1  0  0  0  0
 22 23  1  0  0  0  0
 22 21  1  0  0  0  0
 24 23  1  0  0  0  0
 25 24  1  0  0  0  0
 25 20  1  0  0  0  0
M  END
>  <minimizedAffinity>
-5.08831501

$$$$

 OpenBabel03212521043D

 25 27  0  0  0  0  0  0  0  0999 V2000
   42.2950   66.7540   62.6120 C   0  0  0  0  0  0  0  0  0  0  0  0
   41.5700   65.5690   62.8280 C   0  0  0  0  0  0  0  0  0  0  0  0
   40.2510   65.5960   63.2580 C   0  0  0  0  0  0  0  0  0  0  0  0
   39.6440   66.8270   63.4760 C   0  0  0  0  0  0  0  0  0  0  0  0
   40.3730   67.9870   63.2570 C   0  0  0  0  0  0  0  0  0  0  0  0
   41.7010   67.9870   62.8250 C   0  0  0  0  0  0  0  0  0  0  0  0
   42.0570   64.6230   62.6550 H   0  0  0  0  0  0  0  0  0  0  0  0
   39.7750   64.6380   63.3970 H   0  0  0  0  0  0  0  0  0  0  0  0
   38.6160   66.8380   63.8100 H   0  0  0  0  0  0  0  0  0  0  0  0
   39.8090   68.8890   63.4550 H   0  0  0  0  0  0  0  0  0  0  0  0
   45.1850   66.4100   60.4020 C   0  0  0  0  0  0  0  0  0  0  0  0
   46.2650   66.3770   61.3110 C   0  0  0  0  0  0  0  0  0  0  0  0
   45.9950   66.4770   62.6980 C   0  0  0  0  0  0  0  0  0  0  0  0
   44.7030   66.5990   63.0560 N   0  0  0  0  0  0  0  0  0  0  0  0
   43.6650   66.6280   62.1640 C   0  0  0  0  0  0  0  0  0  0  0  0
   43.9400   66.5340   60.8780 N   0  0  0  0  0  0  0  0  0  0  0  0
   45.3360   66.3380   59.3400 H   0  0  0  0  0  0  0  0  0  0  0  0
   47.2640   66.2780   60.9350 H   0  0  0  0  0  0  0  0  0  0  0  0
   46.7890   66.4540   63.3990 H   0  0  0  0  0  0  0  0  0  0  0  0
   42.3680   69.2850   62.6240 C   0  0  0  0  0  3  0  0  0  0  0  0
   41.7100   70.3940   63.4300 C   0  0  0  0  0  2  0  0  0  0  0  0
   41.5860   71.6860   62.6870 C   0  0  0  0  0  2  0  0  0  0  0  0
   42.7490   71.9970   61.7740 C   0  0  0  0  0  2  0  0  0  0  0  0
   43.1300   70.8400   60.9070 C   0  0  0  0  0  2  0  0  0  0  0  0
   42.1390   69.7230   61.1620 C   0  0  0  0  0  2  0  0  0  0  0  0
  1  6  2  0  0  0  0
  1  2  1  0  0  0  0
  2  3  2  0  0  0  0
  3  8  1  0  0  0  0
  3  4  1  0  0  0  0
  4  9  1  0  0  0  0
  5 10  1  0  0  0  0
  5  4  2  0  0  0  0
  6  5  1  0  0  0  0
  7  2  1  0  0  0  0
 11 16  2  0  0  0  0
 11 12  1  0  0  0  0
 12 13  2  0  0  0  0
 13 14  1  0  0  0  0
 13 19  1  0  0  0  0
 15  1  1  0  0  0  0
 15 14  2  0  0  0  0
 16 15  1  0  0  0  0
 17 11  1  0  0  0  0
 18 12  1  0  0  0  0
 20  6  1  0  0  0  0
 20 21  1  0  0  0  0
 22 21  1  0  0  0  0
 23 22  1  0  0  0  0
 24 25  1  0  0  0  0
 24 23  1  0  0  0  0
 25 20  1  0  0  0  0
M  END
>  <minimizedAffinity>
-5.03638649

$$$$

 OpenBabel03212521043D

 25 27  0  0  0  0  0  0  0  0999 V2000
   40.5330   73.2160   60.8970 C   0  0  0  0  0  0  0  0  0  0  0  0
   39.2300   73.5170   61.3280 C   0  0  0  0  0  0  0  0  0  0  0  0
   38.5650   74.6510   60.8830 C   0  0  0  0  0  0  0  0  0  0  0  0
   39.2120   75.5000   59.9940 C   0  0  0  0  0  0  0  0  0  0  0  0
   40.4980   75.1890   59.5780 C   0  0  0  0  0  0  0  0  0  0  0  0
   41.1890   74.0540   60.0100 C   0  0  0  0  0  0  0  0  0  0  0  0
   38.7430   72.8480   62.0190 H   0  0  0  0  0  0  0  0  0  0  0  0
   37.5670   74.8010   61.2680 H   0  0  0  0  0  0  0  0  0  0  0  0
   38.6860   76.3810   59.6530 H   0  0  0  0  0  0  0  0  0  0  0  0
   40.9100   75.9120   58.8870 H   0  0  0  0  0  0  0  0  0  0  0  0
   41.8830   70.7660   63.2490 C   0  0  0  0  0  0  0  0  0  0  0  0
   42.3260   69.7320   62.3960 C   0  0  0  0  0  0  0  0  0  0  0  0
   42.1560   69.8790   60.9970 C   0  0  0  0  0  0  0  0  0  0  0  0
   41.5720   71.0160   60.5750 N   0  0  0  0  0  0  0  0  0  0  0  0
   41.1480   72.0120   61.4130 C   0  0  0  0  0  0  0  0  0  0  0  0
   41.3170   71.8540   62.7110 N   0  0  0  0  0  0  0  0  0  0  0  0
   41.9890   70.7050   64.3180 H   0  0  0  0  0  0  0  0  0  0  0  0
   42.7800   68.8600   62.8220 H   0  0  0  0  0  0  0  0  0  0  0  0
   42.4800   69.1160   60.3370 H   0  0  0  0  0  0  0  0  0  0  0  0
   42.5500   73.8290   59.4930 C   0  0  0  0  0  3  0  0  0  0  0  0
   43.2600   75.1330   59.1710 C   0  0  0  0  0  2  0  0  0  0  0  0
   44.0530   75.0910   57.9040 C   0  0  0  0  0  2  0  0  0  0  0  0
   44.7340   73.7690   57.6360 C   0  0  0  0  0  2  0  0  0  0  0  0
   43.8180   72.6010   57.8100 C   0  0  0  0  0  2  0  0  0  0  0  0
   42.4350   73.1370   58.1180 C   0  0  0  0  0  2  0  0  0  0  0  0
  1  2  1  0  0  0  0
  1 15  1  0  0  0  0
  2  7  1  0  0  0  0
  3  8  1  0  0  0  0
  3  2  2  0  0  0  0
  4  3  1  0  0  0  0
  5  4  2  0  0  0  0
  5  6  1  0  0  0  0
  6  1  2  0  0  0  0
  9  4  1  0  0  0  0
 10  5  1  0  0  0  0
 11 17  1  0  0  0  0
 12 18  1  0  0  0  0
 12 11  2  0  0  0  0
 13 12  1  0  0  0  0
 14 13  2  0  0  0  0
 14 15  1  0  0  0  0
 15 16  2  0  0  0  0
 16 11  1  0  0  0  0
 19 13  1  0  0  0  0
 20  6  1  0  0  0  0
 21 20  1  0  0  0  0
 22 21  1  0  0  0  0
 23 24  1  0  0  0  0
 23 22  1  0  0  0  0
 24 25  1  0  0  0  0
 25 20  1  0  0  0  0
M  END
>  <minimizedAffinity>
-5.00442076

$$$$

 OpenBabel03212521043D

 25 27  0  0  0  0  0  0  0  0999 V2000
   39.8340   74.9300   58.3880 C   0  0  0  0  0  0  0  0  0  0  0  0
   39.2990   76.1700   57.9990 C   0  0  0  0  0  0  0  0  0  0  0  0
   39.3910   77.2860   58.8180 C   0  0  0  0  0  0  0  0  0  0  0  0
   40.0260   77.1620   60.0480 C   0  0  0  0  0  0  0  0  0  0  0  0
   40.5490   75.9320   60.4170 C   0  0  0  0  0  0  0  0  0  0  0  0
   40.4700   74.7930   59.6110 C   0  0  0  0  0  0  0  0  0  0  0  0
   38.8090   76.2470   57.0420 H   0  0  0  0  0  0  0  0  0  0  0  0
   38.9520   78.1950   58.4370 H   0  0  0  0  0  0  0  0  0  0  0  0
   40.0930   78.0370   60.6790 H   0  0  0  0  0  0  0  0  0  0  0  0
   41.0220   75.9430   61.3900 H   0  0  0  0  0  0  0  0  0  0  0  0
   38.5210   71.9120   56.7990 C   0  0  0  0  0  0  0  0  0  0  0  0
   39.4250   71.7070   55.7330 C   0  0  0  0  0  0  0  0  0  0  0  0
   40.4950   72.6190   55.5590 C   0  0  0  0  0  0  0  0  0  0  0  0
   40.5740   73.6340   56.4400 N   0  0  0  0  0  0  0  0  0  0  0  0
   39.6910   73.8210   57.4690 C   0  0  0  0  0  0  0  0  0  0  0  0
   38.7030   72.9590   57.6120 N   0  0  0  0  0  0  0  0  0  0  0  0
   37.6930   71.2490   56.9740 H   0  0  0  0  0  0  0  0  0  0  0  0
   39.2830   70.8700   55.0800 H   0  0  0  0  0  0  0  0  0  0  0  0
   41.1860   72.4860   54.7670 H   0  0  0  0  0  0  0  0  0  0  0  0
   41.0670   73.5430   60.1120 C   0  0  0  0  0  3  0  0  0  0  0  0
   40.6430   73.2410   61.5400 C   0  0  0  0  0  2  0  0  0  0  0  0
   41.7500   72.7190   62.3990 C   0  0  0  0  0  2  0  0  0  0  0  0
   42.7200   71.8060   61.6850 C   0  0  0  0  0  2  0  0  0  0  0  0
   43.1860   72.3660   60.3800 C   0  0  0  0  0  2  0  0  0  0  0  0
   42.5920   73.7510   60.2290 C   0  0  0  0  0  2  0  0  0  0  0  0
  1  6  1  0  0  0  0
  2  1  2  0  0  0  0
  2  3  1  0  0  0  0
  3  4  2  0  0  0  0
  4  5  1  0  0  0  0
  4  9  1  0  0  0  0
  5 10  1  0  0  0  0
  6 20  1  0  0  0  0
  6  5  2  0  0  0  0
  7  2  1  0  0  0  0
  8  3  1  0  0  0  0
 11 17  1  0  0  0  0
 11 16  1  0  0  0  0
 12 11  2  0  0  0  0
 13 12  1  0  0  0  0
 13 14  2  0  0  0  0
 14 15  1  0  0  0  0
 15 16  2  0  0  0  0
 15  1  1  0  0  0  0
 18 12  1  0  0  0  0
 19 13  1  0  0  0  0
 20 25  1  0  0  0  0
 20 21  1  0  0  0  0
 21 22  1  0  0  0  0
 23 22  1  0  0  0  0
 24 23  1  0  0  0  0
 25 24  1  0  0  0  0
M  END
>  <minimizedAffinity>
-4.91924715

$$$$

 OpenBabel03212521043D

 25 27  0  0  0  0  0  0  0  0999 V2000
   40.5310   75.3040   59.6030 C   0  0  0  0  0  0  0  0  0  0  0  0
   40.4800   76.6000   60.1440 C   0  0  0  0  0  0  0  0  0  0  0  0
   39.8350   77.6350   59.4810 C   0  0  0  0  0  0  0  0  0  0  0  0
   39.2310   77.3720   58.2580 C   0  0  0  0  0  0  0  0  0  0  0  0
   39.2900   76.0870   57.7380 C   0  0  0  0  0  0  0  0  0  0  0  0
   39.9330   75.0280   58.3850 C   0  0  0  0  0  0  0  0  0  0  0  0
   40.9550   76.7870   61.0930 H   0  0  0  0  0  0  0  0  0  0  0  0
   39.8470   78.5960   59.9720 H   0  0  0  0  0  0  0  0  0  0  0  0
   38.7300   78.1840   57.7490 H   0  0  0  0  0  0  0  0  0  0  0  0
   38.7890   75.9890   56.7850 H   0  0  0  0  0  0  0  0  0  0  0  0
   41.1940   72.6880   62.0680 C   0  0  0  0  0  0  0  0  0  0  0  0
   42.5470   72.3680   61.8210 C   0  0  0  0  0  0  0  0  0  0  0  0
   43.2360   73.0580   60.7930 C   0  0  0  0  0  0  0  0  0  0  0  0
   42.5380   73.9860   60.1140 N   0  0  0  0  0  0  0  0  0  0  0  0
   41.2260   74.2880   60.3640 C   0  0  0  0  0  0  0  0  0  0  0  0
   40.6040   73.6340   61.3260 N   0  0  0  0  0  0  0  0  0  0  0  0
   40.6260   72.1940   62.8360 H   0  0  0  0  0  0  0  0  0  0  0  0
   43.0220   71.6120   62.4120 H   0  0  0  0  0  0  0  0  0  0  0  0
   44.2520   72.8340   60.5890 H   0  0  0  0  0  0  0  0  0  0  0  0
   39.9240   73.7070   57.7340 C   0  0  0  0  0  3  0  0  0  0  0  0
   40.6130   73.7350   56.3790 C   0  0  0  0  0  2  0  0  0  0  0  0
   39.9080   72.9380   55.3280 C   0  0  0  0  0  2  0  0  0  0  0  0
   39.2720   71.6630   55.8320 C   0  0  0  0  0  2  0  0  0  0  0  0
   38.4630   71.8700   57.0710 C   0  0  0  0  0  2  0  0  0  0  0  0
   38.4630   73.3520   57.3830 C   0  0  0  0  0  2  0  0  0  0  0  0
  1  2  1  0  0  0  0
  1 15  1  0  0  0  0
  2  7  1  0  0  0  0
  3  8  1  0  0  0  0
  3  2  2  0  0  0  0
  4  3  1  0  0  0  0
  5  4  2  0  0  0  0
  5  6  1  0  0  0  0
  6  1  2  0  0  0  0
  9  4  1  0  0  0  0
 10  5  1  0  0  0  0
 11 17  1  0  0  0  0
 12 11  1  0  0  0  0
 12 18  1  0  0  0  0
 13 12  2  0  0  0  0
 14 15  2  0  0  0  0
 14 13  1  0  0  0  0
 15 16  1  0  0  0  0
 16 11  2  0  0  0  0
 19 13  1  0  0  0  0
 20  6  1  0  0  0  0
 21 20  1  0  0  0  0
 22 23  1  0  0  0  0
 22 21  1  0  0  0  0
 23 24  1  0  0  0  0
 24 25  1  0  0  0  0
 25 20  1  0  0  0  0
M  END
>  <minimizedAffinity>
-4.87829828

$$$$

 OpenBabel03212521043D

 25 27  0  0  0  0  0  0  0  0999 V2000
   41.4220   73.0090   60.7310 C   0  0  0  0  0  0  0  0  0  0  0  0
   41.9620   72.6870   61.9880 C   0  0  0  0  0  0  0  0  0  0  0  0
   42.3950   71.4020   62.2810 C   0  0  0  0  0  0  0  0  0  0  0  0
   42.2870   70.4210   61.3030 C   0  0  0  0  0  0  0  0  0  0  0  0
   41.7520   70.7550   60.0680 C   0  0  0  0  0  0  0  0  0  0  0  0
   41.3090   72.0400   59.7480 C   0  0  0  0  0  0  0  0  0  0  0  0
   42.0370   73.4610   62.7350 H   0  0  0  0  0  0  0  0  0  0  0  0
   42.7950   71.2470   63.2720 H   0  0  0  0  0  0  0  0  0  0  0  0
   42.6280   69.4220   61.5410 H   0  0  0  0  0  0  0  0  0  0  0  0
   41.7140   69.9210   59.3800 H   0  0  0  0  0  0  0  0  0  0  0  0
   41.3640   76.4540   59.5120 C   0  0  0  0  0  0  0  0  0  0  0  0
   40.1970   76.9740   60.1150 C   0  0  0  0  0  0  0  0  0  0  0  0
   39.4220   76.1290   60.9470 C   0  0  0  0  0  0  0  0  0  0  0  0
   39.8620   74.8670   61.1050 N   0  0  0  0  0  0  0  0  0  0  0  0
   40.9960   74.3750   60.5150 C   0  0  0  0  0  0  0  0  0  0  0  0
   41.7020   75.1800   59.7450 N   0  0  0  0  0  0  0  0  0  0  0  0
   41.9870   77.0530   58.8720 H   0  0  0  0  0  0  0  0  0  0  0  0
   39.9230   77.9930   59.9300 H   0  0  0  0  0  0  0  0  0  0  0  0
   38.5430   76.4970   61.4090 H   0  0  0  0  0  0  0  0  0  0  0  0
   40.7640   72.2730   58.3990 C   0  0  0  0  0  3  0  0  0  0  0  0
   39.2540   72.4480   58.4180 C   0  0  0  0  0  2  0  0  0  0  0  0
   38.5540   71.7600   57.2890 C   0  0  0  0  0  2  0  0  0  0  0  0
   39.3060   71.7840   55.9780 C   0  0  0  0  0  2  0  0  0  0  0  0
   40.7390   71.3870   56.1270 C   0  0  0  0  0  2  0  0  0  0  0  0
   40.9630   70.9860   57.5700 C   0  0  0  0  0  2  0  0  0  0  0  0
  1  2  1  0  0  0  0
  2  3  2  0  0  0  0
  2  7  1  0  0  0  0
  3  8  1  0  0  0  0
  4  9  1  0  0  0  0
  4  3  1  0  0  0  0
  5  4  2  0  0  0  0
  6  5  1  0  0  0  0
  6  1  2  0  0  0  0
 10  5  1  0  0  0  0
 11 16  2  0  0  0  0
 11 12  1  0  0  0  0
 12 13  2  0  0  0  0
 13 14  1  0  0  0  0
 13 19  1  0  0  0  0
 15  1  1  0  0  0  0
 15 14  2  0  0  0  0
 16 15  1  0  0  0  0
 17 11  1  0  0  0  0
 18 12  1  0  0  0  0
 20 21  1  0  0  0  0
 20  6  1  0  0  0  0
 22 21  1  0  0  0  0
 23 24  1  0  0  0  0
 23 22  1  0  0  0  0
 24 25  1  0  0  0  0
 25 20  1  0  0  0  0
M  END
>  <minimizedAffinity>
-4.83234692

$$$$

 OpenBabel03212521043D

 25 27  0  0  0  0  0  0  0  0999 V2000
   41.2690   72.0820   61.2700 C   0  0  0  0  0  0  0  0  0  0  0  0
   41.6770   71.8500   62.5950 C   0  0  0  0  0  0  0  0  0  0  0  0
   42.4030   70.7190   62.9400 C   0  0  0  0  0  0  0  0  0  0  0  0
   42.7270   69.8040   61.9470 C   0  0  0  0  0  0  0  0  0  0  0  0
   42.3170   70.0480   60.6440 C   0  0  0  0  0  0  0  0  0  0  0  0
   41.5850   71.1780   60.2710 C   0  0  0  0  0  0  0  0  0  0  0  0
   41.4170   72.5710   63.3530 H   0  0  0  0  0  0  0  0  0  0  0  0
   42.6730   70.6250   63.9810 H   0  0  0  0  0  0  0  0  0  0  0  0
   43.2930   68.9260   62.2250 H   0  0  0  0  0  0  0  0  0  0  0  0
   42.6200   69.2760   59.9490 H   0  0  0  0  0  0  0  0  0  0  0  0
   38.4870   74.4470   61.1000 C   0  0  0  0  0  0  0  0  0  0  0  0
   39.0780   75.5730   60.4870 C   0  0  0  0  0  0  0  0  0  0  0  0
   40.4490   75.5190   60.1310 C   0  0  0  0  0  0  0  0  0  0  0  0
   41.1000   74.3750   60.4090 N   0  0  0  0  0  0  0  0  0  0  0  0
   40.5150   73.2890   61.0040 C   0  0  0  0  0  0  0  0  0  0  0  0
   39.2380   73.3620   61.3260 N   0  0  0  0  0  0  0  0  0  0  0  0
   37.4510   74.4370   61.3900 H   0  0  0  0  0  0  0  0  0  0  0  0
   38.4800   76.4440   60.3050 H   0  0  0  0  0  0  0  0  0  0  0  0
   40.9130   76.3520   59.6700 H   0  0  0  0  0  0  0  0  0  0  0  0
   41.2110   71.3280   58.8540 C   0  0  0  0  0  3  0  0  0  0  0  0
   40.8890   69.9910   58.2050 C   0  0  0  0  0  2  0  0  0  0  0  0
   41.4270   69.8500   56.8170 C   0  0  0  0  0  2  0  0  0  0  0  0
   41.3910   71.1200   55.9990 C   0  0  0  0  0  2  0  0  0  0  0  0
   41.9360   72.2990   56.7380 C   0  0  0  0  0  2  0  0  0  0  0  0
   42.4530   71.8110   58.0760 C   0  0  0  0  0  2  0  0  0  0  0  0
  1  2  1  0  0  0  0
  2  3  2  0  0  0  0
  2  7  1  0  0  0  0
  3  8  1  0  0  0  0
  4  9  1  0  0  0  0
  4  3  1  0  0  0  0
  5  4  2  0  0  0  0
  6  5  1  0  0  0  0
  6  1  2  0  0  0  0
 10  5  1  0  0  0  0
 11 16  1  0  0  0  0
 11 17  1  0  0  0  0
 12 11  2  0  0  0  0
 13 14  2  0  0  0  0
 13 12  1  0  0  0  0
 14 15  1  0  0  0  0
 15  1  1  0  0  0  0
 15 16  2  0  0  0  0
 18 12  1  0  0  0  0
 19 13  1  0  0  0  0
 20  6  1  0  0  0  0
 21 20  1  0  0  0  0
 22 21  1  0  0  0  0
 23 24  1  0  0  0  0
 23 22  1  0  0  0  0
 24 25  1  0  0  0  0
 25 20  1  0  0  0  0
M  END
>  <minimizedAffinity>
-4.74053574

$$$$

 OpenBabel03212521043D

 25 27  0  0  0  0  0  0  0  0999 V2000
   42.5560   73.0750   59.9800 C   0  0  0  0  0  0  0  0  0  0  0  0
   43.1090   72.1750   60.9080 C   0  0  0  0  0  0  0  0  0  0  0  0
   42.4770   71.8980   62.1110 C   0  0  0  0  0  0  0  0  0  0  0  0
   41.2720   72.5300   62.3950 C   0  0  0  0  0  0  0  0  0  0  0  0
   40.7400   73.4160   61.4690 C   0  0  0  0  0  0  0  0  0  0  0  0
   41.3570   73.7120   60.2510 C   0  0  0  0  0  0  0  0  0  0  0  0
   44.0440   71.6950   60.6710 H   0  0  0  0  0  0  0  0  0  0  0  0
   42.9750   71.1950   62.7610 H   0  0  0  0  0  0  0  0  0  0  0  0
   40.7870   72.3080   63.3350 H   0  0  0  0  0  0  0  0  0  0  0  0
   39.8020   73.8510   61.7860 H   0  0  0  0  0  0  0  0  0  0  0  0
   43.7160   72.6980   56.5350 C   0  0  0  0  0  0  0  0  0  0  0  0
   44.6800   73.7240   56.4210 C   0  0  0  0  0  0  0  0  0  0  0  0
   44.9300   74.5550   57.5410 C   0  0  0  0  0  0  0  0  0  0  0  0
   44.2170   74.3010   58.6530 N   0  0  0  0  0  0  0  0  0  0  0  0
   43.2860   73.3030   58.7520 C   0  0  0  0  0  0  0  0  0  0  0  0
   43.0700   72.5410   57.6970 N   0  0  0  0  0  0  0  0  0  0  0  0
   43.4890   72.0400   55.7160 H   0  0  0  0  0  0  0  0  0  0  0  0
   45.2000   73.8530   55.4930 H   0  0  0  0  0  0  0  0  0  0  0  0
   45.6490   75.3310   57.4780 H   0  0  0  0  0  0  0  0  0  0  0  0
   40.6900   74.6660   59.3480 C   0  0  0  0  0  3  0  0  0  0  0  0
   41.0510   76.1060   59.6750 C   0  0  0  0  0  2  0  0  0  0  0  0
   39.8930   77.0500   59.5950 C   0  0  0  0  0  2  0  0  0  0  0  0
   38.9120   76.7450   58.4870 C   0  0  0  0  0  2  0  0  0  0  0  0
   38.5170   75.3040   58.4460 C   0  0  0  0  0  2  0  0  0  0  0  0
   39.1720   74.6080   59.6200 C   0  0  0  0  0  2  0  0  0  0  0  0
  1  6  2  0  0  0  0
  1  2  1  0  0  0  0
  2  3  2  0  0  0  0
  3  4  1  0  0  0  0
  3  8  1  0  0  0  0
  4  9  1  0  0  0  0
  5 10  1  0  0  0  0
  5  4  2  0  0  0  0
  6  5  1  0  0  0  0
  7  2  1  0  0  0  0
 11 16  1  0  0  0  0
 12 11  2  0  0  0  0
 12 13  1  0  0  0  0
 13 14  2  0  0  0  0
 14 15  1  0  0  0  0
 15  1  1  0  0  0  0
 16 15  2  0  0  0  0
 17 11  1  0  0  0  0
 18 12  1  0  0  0  0
 19 13  1  0  0  0  0
 20 25  1  0  0  0  0
 20 21  1  0  0  0  0
 20  6  1  0  0  0  0
 22 21  1  0  0  0  0
 23 22  1  0  0  0  0
 24 23  1  0  0  0  0
 24 25  1  0  0  0  0
M  END
>  <minimizedAffinity>
-4.73381996

$$$$

 OpenBabel03212521043D

 25 27  0  0  0  0  0  0  0  0999 V2000
   39.6390   74.3200   58.3010 C   0  0  0  0  0  0  0  0  0  0  0  0
   39.9760   73.0510   58.8020 C   0  0  0  0  0  0  0  0  0  0  0  0
   39.3830   71.8970   58.3090 C   0  0  0  0  0  0  0  0  0  0  0  0
   38.4370   72.0120   57.2970 C   0  0  0  0  0  0  0  0  0  0  0  0
   38.1160   73.2710   56.8130 C   0  0  0  0  0  0  0  0  0  0  0  0
   38.6980   74.4480   57.2930 C   0  0  0  0  0  0  0  0  0  0  0  0
   40.7110   72.9810   59.5870 H   0  0  0  0  0  0  0  0  0  0  0  0
   39.7040   70.9680   58.7540 H   0  0  0  0  0  0  0  0  0  0  0  0
   37.9810   71.1080   56.9190 H   0  0  0  0  0  0  0  0  0  0  0  0
   37.3720   73.2500   56.0280 H   0  0  0  0  0  0  0  0  0  0  0  0
   42.1870   76.8550   58.9630 C   0  0  0  0  0  0  0  0  0  0  0  0
   41.5880   77.6350   59.9760 C   0  0  0  0  0  0  0  0  0  0  0  0
   40.2930   77.2860   60.4340 C   0  0  0  0  0  0  0  0  0  0  0  0
   39.7160   76.2150   59.8570 N   0  0  0  0  0  0  0  0  0  0  0  0
   40.3080   75.4660   58.8760 C   0  0  0  0  0  0  0  0  0  0  0  0
   41.5140   75.8100   58.4660 N   0  0  0  0  0  0  0  0  0  0  0  0
   43.1670   77.0770   58.5810 H   0  0  0  0  0  0  0  0  0  0  0  0
   42.1220   78.4730   60.3770 H   0  0  0  0  0  0  0  0  0  0  0  0
   39.8230   77.8570   61.1930 H   0  0  0  0  0  0  0  0  0  0  0  0
   38.2780   75.7260   56.6940 C   0  0  0  0  0  3  0  0  0  0  0  0
   36.8510   75.6690   56.1730 C   0  0  0  0  0  2  0  0  0  0  0  0
   36.6620   76.3560   54.8570 C   0  0  0  0  0  2  0  0  0  0  0  0
   37.4860   77.6110   54.6830 C   0  0  0  0  0  2  0  0  0  0  0  0
   38.9190   77.4180   55.0600 C   0  0  0  0  0  2  0  0  0  0  0  0
   39.1140   75.9600   55.4190 C   0  0  0  0  0  2  0  0  0  0  0  0
  1  2  1  0  0  0  0
  1 15  1  0  0  0  0
  2  7  1  0  0  0  0
  3  8  1  0  0  0  0
  3  2  2  0  0  0  0
  4  3  1  0  0  0  0
  5  6  1  0  0  0  0
  5  4  2  0  0  0  0
  6  1  2  0  0  0  0
  9  4  1  0  0  0  0
 10  5  1  0  0  0  0
 11 12  1  0  0  0  0
 12 18  1  0  0  0  0
 12 13  2  0  0  0  0
 13 19  1  0  0  0  0
 14 13  1  0  0  0  0
 15 14  2  0  0  0  0
 16 15  1  0  0  0  0
 16 11  2  0  0  0  0
 17 11  1  0  0  0  0
 20  6  1  0  0  0  0
 21 20  1  0  0  0  0
 22 21  1  0  0  0  0
 23 22  1  0  0  0  0
 23 24  1  0  0  0  0
 24 25  1  0  0  0  0
 25 20  1  0  0  0  0
M  END
>  <minimizedAffinity>
-4.7227602

$$$$
