
 OpenBabel03212520493D

 25 27  0  0  0  0  0  0  0  0999 V2000
   41.5940   83.8790   61.4640 C   0  0  0  0  0  0  0  0  0  0  0  0
   41.3300   84.2990   62.7600 C   0  0  0  0  0  0  0  0  0  0  0  0
   40.8570   83.3880   63.7220 C   0  0  0  0  0  0  0  0  0  0  0  0
   40.6570   82.1000   63.3920 N   0  0  0  0  0  0  0  0  0  0  0  0
   40.9150   81.7110   62.1400 C   0  0  0  0  0  0  0  0  0  0  0  0
   41.3740   82.5720   61.1850 N   0  0  0  0  0  0  0  0  0  0  0  0
   41.4980   85.3360   63.0020 H   0  0  0  0  0  0  0  0  0  0  0  0
   40.6740   83.7850   64.7080 H   0  0  0  0  0  0  0  0  0  0  0  0
   43.6120   86.3590   59.7100 C   0  0  0  0  0  0  0  0  0  0  0  0
   42.9070   86.4880   58.4950 C   0  0  0  0  0  0  0  0  0  0  0  0
   41.7550   85.7320   58.2830 C   0  0  0  0  0  0  0  0  0  0  0  0
   41.3940   84.9030   59.3030 N   0  0  0  0  0  0  0  0  0  0  0  0
   42.0830   84.8000   60.4500 C   0  0  0  0  0  0  0  0  0  0  0  0
   43.1770   85.5130   60.6620 N   0  0  0  0  0  0  0  0  0  0  0  0
   44.7530   87.1920   59.7650 N   0  0  0  0  0  0  0  0  0  0  0  0
   43.1860   87.1410   57.6830 H   0  0  0  0  0  0  0  0  0  0  0  0
   41.2010   85.8130   57.3640 H   0  0  0  0  0  0  0  0  0  0  0  0
   45.6680   87.1640   59.2630 H   0  0  0  0  0  0  0  0  0  0  0  0
   44.6130   87.9820   60.4560 H   0  0  0  0  0  0  0  0  0  0  0  0
   40.7150   80.3090   61.7160 C   0  0  0  0  0  3  0  0  0  0  0  0
   41.8840   79.4750   62.1410 C   0  0  0  0  0  2  0  0  0  0  0  0
   41.9490   78.1250   61.5100 C   0  0  0  0  0  2  0  0  0  0  0  0
   41.4850   78.0640   60.0920 C   0  0  0  0  0  2  0  0  0  0  0  0
   40.1740   78.7950   59.9070 C   0  0  0  0  0  2  0  0  0  0  0  0
   40.4810   80.2640   60.2240 C   0  0  0  0  0  2  0  0  0  0  0  0
  1  2  1  0  0  0  0
  2  7  1  0  0  0  0
  2  3  2  0  0  0  0
  3  8  1  0  0  0  0
  4  3  1  0  0  0  0
  5  4  2  0  0  0  0
  6  1  2  0  0  0  0
  6  5  1  0  0  0  0
  9 15  1  0  0  0  0
  9 14  1  0  0  0  0
 10  9  2  0  0  0  0
 11 10  1  0  0  0  0
 11 12  2  0  0  0  0
 12 13  1  0  0  0  0
 13 14  2  0  0  0  0
 13  1  1  0  0  0  0
 15 19  1  0  0  0  0
 16 10  1  0  0  0  0
 17 11  1  0  0  0  0
 18 15  1  0  0  0  0
 20  5  1  0  0  0  0
 20 21  1  0  0  0  0
 22 21  1  0  0  0  0
 23 22  1  0  0  0  0
 24 23  1  0  0  0  0
 24 25  1  0  0  0  0
 25 20  1  0  0  0  0
M  END
>  <minimizedAffinity>
-5.25095272

>  <minimizedRMSD>
0.601343453

$$$$
