
 OpenBabel03212520493D

 25 27  0  0  0  0  0  0  0  0999 V2000
   41.7750   83.8380   61.2660 C   0  0  0  0  0  0  0  0  0  0  0  0
   41.2640   84.1360   62.5210 C   0  0  0  0  0  0  0  0  0  0  0  0
   40.7680   83.1130   63.3500 C   0  0  0  0  0  0  0  0  0  0  0  0
   40.7880   81.8350   62.9300 N   0  0  0  0  0  0  0  0  0  0  0  0
   41.2830   81.5640   61.7190 C   0  0  0  0  0  0  0  0  0  0  0  0
   41.7700   82.5360   60.8930 N   0  0  0  0  0  0  0  0  0  0  0  0
   41.2590   85.1680   62.8360 H   0  0  0  0  0  0  0  0  0  0  0  0
   40.3860   83.4180   64.3110 H   0  0  0  0  0  0  0  0  0  0  0  0
   43.7240   86.6360   59.9710 C   0  0  0  0  0  0  0  0  0  0  0  0
   43.1850   86.7800   58.6760 C   0  0  0  0  0  0  0  0  0  0  0  0
   42.1660   85.9260   58.2550 C   0  0  0  0  0  0  0  0  0  0  0  0
   41.7630   84.9920   59.1620 N   0  0  0  0  0  0  0  0  0  0  0  0
   42.2930   84.8770   60.3890 C   0  0  0  0  0  0  0  0  0  0  0  0
   43.2590   85.6820   60.7990 N   0  0  0  0  0  0  0  0  0  0  0  0
   44.7440   87.5770   60.2400 N   0  0  0  0  0  0  0  0  0  0  0  0
   43.4980   87.5160   57.9520 H   0  0  0  0  0  0  0  0  0  0  0  0
   41.7390   86.0160   57.2710 H   0  0  0  0  0  0  0  0  0  0  0  0
   45.7170   87.6810   59.8760 H   0  0  0  0  0  0  0  0  0  0  0  0
   44.4220   88.2950   60.9470 H   0  0  0  0  0  0  0  0  0  0  0  0
   41.3310   80.1800   61.2020 C   0  0  0  0  0  3  0  0  0  0  0  0
   40.8020   80.1400   59.8020 C   0  0  0  0  0  2  0  0  0  0  0  0
   40.5110   78.7720   59.2840 C   0  0  0  0  0  2  0  0  0  0  0  0
   39.9750   77.8120   60.2960 C   0  0  0  0  0  2  0  0  0  0  0  0
   40.7770   77.8550   61.5770 C   0  0  0  0  0  2  0  0  0  0  0  0
   40.5720   79.2690   62.1350 C   0  0  0  0  0  2  0  0  0  0  0  0
  1  2  1  0  0  0  0
  2  7  1  0  0  0  0
  2  3  2  0  0  0  0
  3  8  1  0  0  0  0
  4  3  1  0  0  0  0
  5  4  2  0  0  0  0
  6  1  2  0  0  0  0
  6  5  1  0  0  0  0
  9 15  1  0  0  0  0
  9 14  1  0  0  0  0
 10  9  2  0  0  0  0
 11 10  1  0  0  0  0
 11 12  2  0  0  0  0
 12 13  1  0  0  0  0
 13 14  2  0  0  0  0
 13  1  1  0  0  0  0
 15 19  1  0  0  0  0
 16 10  1  0  0  0  0
 17 11  1  0  0  0  0
 18 15  1  0  0  0  0
 20  5  1  0  0  0  0
 20 25  1  0  0  0  0
 21 20  1  0  0  0  0
 22 21  1  0  0  0  0
 22 23  1  0  0  0  0
 23 24  1  0  0  0  0
 24 25  1  0  0  0  0
M  END
>  <minimizedAffinity>
-5.22618484

>  <minimizedRMSD>
0.681056559

$$$$
