
 OpenBabel03212521073D

 33 36  0  0  0  0  0  0  0  0999 V2000
   41.8200   84.2470   61.5720 C   0  0  0  0  0  0  0  0  0  0  0  0
   41.4450   83.9720   62.8840 C   0  0  0  0  0  0  0  0  0  0  0  0
   40.1640   83.5550   63.2000 C   0  0  0  0  0  0  0  0  0  0  0  0
   39.2290   83.4040   62.1910 C   0  0  0  0  0  0  0  0  0  0  0  0
   39.5930   83.6760   60.8790 C   0  0  0  0  0  0  0  0  0  0  0  0
   40.8750   84.0940   60.5600 C   0  0  0  0  0  0  0  0  0  0  0  0
   42.1500   84.0780   63.7140 H   0  0  0  0  0  0  0  0  0  0  0  0
   39.8400   83.3340   64.2060 H   0  0  0  0  0  0  0  0  0  0  0  0
   38.1980   83.0810   62.3420 H   0  0  0  0  0  0  0  0  0  0  0  0
   38.8650   83.5610   60.0780 H   0  0  0  0  0  0  0  0  0  0  0  0
   45.3590   84.1330   60.6770 C   0  0  0  0  0  0  0  0  0  0  0  0
   45.7450   85.4600   60.7430 C   0  0  0  0  0  0  0  0  0  0  0  0
   44.7710   86.4080   61.1020 C   0  0  0  0  0  0  0  0  0  0  0  0
   43.5110   85.9840   61.3640 N   0  0  0  0  0  0  0  0  0  0  0  0
   43.1650   84.6800   61.2900 C   0  0  0  0  0  0  0  0  0  0  0  0
   44.0930   83.7820   60.9490 N   0  0  0  0  0  0  0  0  0  0  0  0
   46.0150   83.2950   60.4120 H   0  0  0  0  0  0  0  0  0  0  0  0
   46.7800   85.6680   60.5110 H   0  0  0  0  0  0  0  0  0  0  0  0
   45.0940   87.4280   61.1470 H   0  0  0  0  0  0  0  0  0  0  0  0
   41.2080   84.3640   59.1820 C   0  0  0  0  0  0  0  0  0  0  0  0
   40.7730   85.6380   58.7890 C   0  0  0  0  0  0  0  0  0  0  0  0
   41.0000   86.0880   57.4880 C   0  0  0  0  0  0  0  0  0  0  0  0
   41.6420   85.2580   56.6490 N   0  0  0  0  0  0  0  0  0  0  0  0
   42.0580   84.0280   57.0410 C   0  0  0  0  0  0  0  0  0  0  0  0
   41.8400   83.5960   58.2890 N   0  0  0  0  0  0  0  0  0  0  0  0
   40.2520   86.3530   59.4100 H   0  0  0  0  0  0  0  0  0  0  0  0
   40.6730   87.0750   57.1510 H   0  0  0  0  0  0  0  0  0  0  0  0
   42.7650   83.1470   56.0720 C   0  0  0  0  0  3  0  0  0  0  0  0
   43.9190   82.4160   56.7400 C   0  0  0  0  0  2  0  0  0  0  0  0
   44.7400   81.8150   55.6140 C   0  0  0  0  0  2  0  0  0  0  0  0
   43.8530   80.7490   54.9720 C   0  0  0  0  0  2  0  0  0  0  0  0
   42.5990   81.3580   54.4230 C   0  0  0  0  0  2  0  0  0  0  0  0
   41.8260   82.1680   55.4190 C   0  0  0  0  0  2  0  0  0  0  0  0
  1  2  1  0  0  0  0
  2  3  2  0  0  0  0
  2  7  1  0  0  0  0
  3  8  1  0  0  0  0
  4  9  1  0  0  0  0
  4  3  1  0  0  0  0
  5  4  2  0  0  0  0
  6  5  1  0  0  0  0
  6  1  2  0  0  0  0
 10  5  1  0  0  0  0
 11 12  2  0  0  0  0
 11 16  1  0  0  0  0
 12 13  1  0  0  0  0
 13 19  1  0  0  0  0
 13 14  2  0  0  0  0
 15 14  1  0  0  0  0
 15  1  1  0  0  0  0
 16 15  2  0  0  0  0
 17 11  1  0  0  0  0
 18 12  1  0  0  0  0
 20  6  1  0  0  0  0
 21 20  1  0  0  0  0
 21 26  1  0  0  0  0
 22 21  2  0  0  0  0
 23 24  2  0  0  0  0
 23 22  1  0  0  0  0
 24 25  1  0  0  0  0
 25 20  2  0  0  0  0
 27 22  1  0  0  0  0
 28 29  1  0  0  0  0
 28 24  1  0  0  0  0
 30 29  1  0  0  0  0
 31 30  1  0  0  0  0
 32 31  1  0  0  0  0
 32 33  1  0  0  0  0
 33 28  1  0  0  0  0
M  END
>  <minimizedAffinity>
-5.4293232

>  <minimizedRMSD>
0.200665057

$$$$
