
 OpenBabel03212521073D

 33 36  0  0  0  0  0  0  0  0999 V2000
   41.8180   84.2430   61.5730 C   0  0  0  0  0  0  0  0  0  0  0  0
   41.4420   83.9690   62.8850 C   0  0  0  0  0  0  0  0  0  0  0  0
   40.1610   83.5530   63.2000 C   0  0  0  0  0  0  0  0  0  0  0  0
   39.2250   83.4050   62.1910 C   0  0  0  0  0  0  0  0  0  0  0  0
   39.5900   83.6760   60.8790 C   0  0  0  0  0  0  0  0  0  0  0  0
   40.8730   84.0930   60.5610 C   0  0  0  0  0  0  0  0  0  0  0  0
   42.1480   84.0730   63.7160 H   0  0  0  0  0  0  0  0  0  0  0  0
   39.8360   83.3310   64.2060 H   0  0  0  0  0  0  0  0  0  0  0  0
   38.1950   83.0830   62.3410 H   0  0  0  0  0  0  0  0  0  0  0  0
   38.8630   83.5630   60.0770 H   0  0  0  0  0  0  0  0  0  0  0  0
   45.3580   84.1250   60.6810 C   0  0  0  0  0  0  0  0  0  0  0  0
   45.7450   85.4510   60.7470 C   0  0  0  0  0  0  0  0  0  0  0  0
   44.7720   86.4010   61.1050 C   0  0  0  0  0  0  0  0  0  0  0  0
   43.5110   85.9790   61.3660 N   0  0  0  0  0  0  0  0  0  0  0  0
   43.1640   84.6750   61.2920 C   0  0  0  0  0  0  0  0  0  0  0  0
   44.0910   83.7760   60.9530 N   0  0  0  0  0  0  0  0  0  0  0  0
   46.0130   83.2860   60.4160 H   0  0  0  0  0  0  0  0  0  0  0  0
   46.7810   85.6580   60.5150 H   0  0  0  0  0  0  0  0  0  0  0  0
   45.0960   87.4210   61.1490 H   0  0  0  0  0  0  0  0  0  0  0  0
   41.2070   84.3640   59.1830 C   0  0  0  0  0  0  0  0  0  0  0  0
   40.7730   85.6380   58.7910 C   0  0  0  0  0  0  0  0  0  0  0  0
   41.0010   86.0880   57.4900 C   0  0  0  0  0  0  0  0  0  0  0  0
   41.6420   85.2580   56.6510 N   0  0  0  0  0  0  0  0  0  0  0  0
   42.0590   84.0290   57.0420 C   0  0  0  0  0  0  0  0  0  0  0  0
   41.8390   83.5950   58.2900 N   0  0  0  0  0  0  0  0  0  0  0  0
   40.2520   86.3530   59.4110 H   0  0  0  0  0  0  0  0  0  0  0  0
   40.6740   87.0760   57.1530 H   0  0  0  0  0  0  0  0  0  0  0  0
   42.7660   83.1480   56.0740 C   0  0  0  0  0  3  0  0  0  0  0  0
   43.9200   82.4170   56.7410 C   0  0  0  0  0  2  0  0  0  0  0  0
   44.7410   81.8160   55.6150 C   0  0  0  0  0  2  0  0  0  0  0  0
   43.8540   80.7500   54.9740 C   0  0  0  0  0  2  0  0  0  0  0  0
   42.6000   81.3580   54.4240 C   0  0  0  0  0  2  0  0  0  0  0  0
   41.8270   82.1690   55.4200 C   0  0  0  0  0  2  0  0  0  0  0  0
  1  2  1  0  0  0  0
  2  3  2  0  0  0  0
  2  7  1  0  0  0  0
  3  8  1  0  0  0  0
  4  9  1  0  0  0  0
  4  3  1  0  0  0  0
  5  4  2  0  0  0  0
  6  5  1  0  0  0  0
  6  1  2  0  0  0  0
 10  5  1  0  0  0  0
 11 12  2  0  0  0  0
 11 16  1  0  0  0  0
 12 13  1  0  0  0  0
 13 19  1  0  0  0  0
 13 14  2  0  0  0  0
 15 14  1  0  0  0  0
 15  1  1  0  0  0  0
 16 15  2  0  0  0  0
 17 11  1  0  0  0  0
 18 12  1  0  0  0  0
 20  6  1  0  0  0  0
 21 20  1  0  0  0  0
 21 26  1  0  0  0  0
 22 21  2  0  0  0  0
 23 24  2  0  0  0  0
 23 22  1  0  0  0  0
 24 25  1  0  0  0  0
 25 20  2  0  0  0  0
 27 22  1  0  0  0  0
 28 29  1  0  0  0  0
 28 24  1  0  0  0  0
 30 29  1  0  0  0  0
 31 30  1  0  0  0  0
 32 31  1  0  0  0  0
 32 33  1  0  0  0  0
 33 28  1  0  0  0  0
M  END
>  <minimizedAffinity>
-5.42686939

>  <minimizedRMSD>
0.131158173

$$$$
