
 OpenBabel03212520053D

 38 42  0  0  0  0  0  0  0  0999 V2000
   40.8590   81.9880   57.0650 C   0  0  0  0  0  0  0  0  0  0  0  0
   41.9680   82.5740   56.4390 C   0  0  0  0  0  0  0  0  0  0  0  0
   42.7330   83.4410   57.1750 C   0  0  0  0  0  0  0  0  0  0  0  0
   42.4050   83.7060   58.4720 N   0  0  0  0  0  0  0  0  0  0  0  0
   41.3250   83.1230   59.0540 C   0  0  0  0  0  0  0  0  0  0  0  0
   40.5420   82.2570   58.3480 N   0  0  0  0  0  0  0  0  0  0  0  0
   40.1670   81.2920   56.6130 H   0  0  0  0  0  0  0  0  0  0  0  0
   42.0440   82.1870   55.4510 H   0  0  0  0  0  0  0  0  0  0  0  0
   39.7080   83.1140   60.8890 C   0  0  0  0  0  0  0  0  0  0  0  0
   41.0050   83.3810   60.4500 C   0  0  0  0  0  0  0  0  0  0  0  0
   41.9780   83.8610   61.3280 C   0  0  0  0  0  0  0  0  0  0  0  0
   41.6830   84.0880   62.6650 C   0  0  0  0  0  0  0  0  0  0  0  0
   42.3380   84.5260   63.7530 N   0  0  0  0  0  0  0  0  0  0  0  0
   41.5310   84.5450   64.8220 C   0  0  0  0  0  0  0  0  0  0  0  0
   40.3510   84.1020   64.3590 N   0  0  0  0  0  0  0  0  0  0  0  0
   40.4070   83.8130   63.0450 C   0  0  0  0  0  0  0  0  0  0  0  0
   39.3940   83.3370   62.2340 C   0  0  0  0  0  0  0  0  0  0  0  0
   38.9280   82.7410   60.2370 H   0  0  0  0  0  0  0  0  0  0  0  0
   42.9850   84.0680   60.9830 H   0  0  0  0  0  0  0  0  0  0  0  0
   43.3610   84.8010   63.6880 H   0  0  0  0  0  0  0  0  0  0  0  0
   41.8300   84.8580   65.8110 H   0  0  0  0  0  0  0  0  0  0  0  0
   38.4180   83.1530   62.6300 H   0  0  0  0  0  0  0  0  0  0  0  0
   42.8610   83.4170   54.1960 Cl  0  0  0  0  0  0  0  0  0  0  0  0
   44.0790   84.1670   55.2370 C   0  0  0  0  0  0  0  0  0  0  0  0
   43.8820   84.0960   56.5950 C   0  0  0  0  0  0  0  0  0  0  0  0
   44.8790   84.7150   57.3380 C   0  0  0  0  0  0  0  0  0  0  0  0
   45.9730   85.3480   56.7860 C   0  0  0  0  0  0  0  0  0  0  0  0
   46.1080   85.3810   55.4040 C   0  0  0  0  0  0  0  0  0  0  0  0
   47.4930   86.1740   54.7060 Cl  0  0  0  0  0  0  0  0  0  0  0  0
   45.1560   84.7900   54.6390 C   0  0  0  0  0  0  0  0  0  0  0  0
   44.8080   84.7090   58.4170 H   0  0  0  0  0  0  0  0  0  0  0  0
   46.7110   85.8100   57.4260 H   0  0  0  0  0  0  0  0  0  0  0  0
   45.2130   84.7720   53.1600 C   0  0  0  0  0  3  0  0  0  0  0  0
   44.1460   85.6050   52.4890 C   0  0  0  0  0  2  0  0  0  0  0  0
   44.3860   85.5330   51.0050 C   0  0  0  0  0  2  0  0  0  0  0  0
   45.6950   84.9480   50.5980 C   0  0  0  0  0  2  0  0  0  0  0  0
   45.9480   83.5810   51.1910 C   0  0  0  0  0  2  0  0  0  0  0  0
   45.2240   83.4250   52.5250 C   0  0  0  0  0  2  0  0  0  0  0  0
  1  6  1  0  0  0  0
  2  1  2  0  0  0  0
  2  3  1  0  0  0  0
  3  4  2  0  0  0  0
  4  5  1  0  0  0  0
  5 10  1  0  0  0  0
  6  5  2  0  0  0  0
  7  1  1  0  0  0  0
  8  2  1  0  0  0  0
  9 17  1  0  0  0  0
 10  9  2  0  0  0  0
 10 11  1  0  0  0  0
 11 12  2  0  0  0  0
 12 16  1  0  0  0  0
 12 13  1  0  0  0  0
 13 14  1  0  0  0  0
 14 21  1  0  0  0  0
 15 14  2  0  0  0  0
 16 15  1  0  0  0  0
 17 22  1  0  0  0  0
 17 16  2  0  0  0  0
 18  9  1  0  0  0  0
 19 11  1  0  0  0  0
 20 13  1  0  0  0  0
 23 24  1  0  0  0  0
 24 25  1  0  0  0  0
 25  3  1  0  0  0  0
 25 26  2  0  0  0  0
 26 31  1  0  0  0  0
 27 26  1  0  0  0  0
 27 32  1  0  0  0  0
 28 27  2  0  0  0  0
 29 28  1  0  0  0  0
 30 24  2  0  0  0  0
 30 28  1  0  0  0  0
 33 30  1  0  0  0  0
 34 33  1  0  0  0  0
 35 34  1  0  0  0  0
 36 35  1  0  0  0  0
 36 37  1  0  0  0  0
 37 38  1  0  0  0  0
 38 33  1  0  0  0  0
M  END
>  <minimizedAffinity>
-4.97381878

>  <minimizedRMSD>
0.669604719

$$$$
