
 OpenBabel03212520143D

 28 30  0  0  1  0  0  0  0  0999 V2000
   41.6080   70.7950   58.7660 Cl  0  0  0  0  0  0  0  0  0  0  0  0
   41.9530   70.5960   60.4800 C   0  0  0  0  0  0  0  0  0  0  0  0
   41.8540   71.6470   61.3700 C   0  0  0  0  0  0  0  0  0  0  0  0
   42.1070   71.3230   62.7000 C   0  0  0  0  0  0  0  0  0  0  0  0
   42.4370   70.0800   63.1910 C   0  0  0  0  0  0  0  0  0  0  0  0
   42.5200   69.0810   62.2530 C   0  0  0  0  0  0  0  0  0  0  0  0
   42.9100   67.4360   62.7600 Cl  0  0  0  0  0  0  0  0  0  0  0  0
   42.2790   69.3350   60.8940 C   0  0  0  0  0  0  0  0  0  0  0  0
   42.0310   72.1430   63.3980 H   0  0  0  0  0  0  0  0  0  0  0  0
   42.6140   69.9310   64.2390 H   0  0  0  0  0  0  0  0  0  0  0  0
   42.3040   73.7980   60.1110 C   0  0  0  0  0  0  0  0  0  0  0  0
   41.5140   72.9530   60.8990 C   0  0  0  0  0  0  0  0  0  0  0  0
   40.2510   73.4010   61.2820 C   0  0  0  0  0  0  0  0  0  0  0  0
   39.8610   74.6340   60.8700 N   0  0  0  0  0  0  0  0  0  0  0  0
   40.6510   75.4250   60.1100 C   0  0  0  0  0  0  0  0  0  0  0  0
   41.8750   75.0040   59.7310 N   0  0  0  0  0  0  0  0  0  0  0  0
   43.2750   73.4040   59.8410 H   0  0  0  0  0  0  0  0  0  0  0  0
   39.5360   72.8530   61.8880 H   0  0  0  0  0  0  0  0  0  0  0  0
   40.0660   76.7500   59.7450 C   0  0  0  0  0  0  0  0  0  0  0  0
   40.8290   77.4140   58.8120 F   0  0  0  0  0  0  0  0  0  0  0  0
   38.8050   76.5690   59.2110 F   0  0  0  0  0  0  0  0  0  0  0  0
   39.9970   77.5860   60.8520 F   0  0  0  0  0  0  0  0  0  0  0  0
   42.4080   68.1930   59.9420 C   0  0  1  0  0  3  0  0  0  0  0  0
   43.8310   67.7170   60.0360 C   0  0  0  0  0  2  0  0  0  0  0  0
   43.9450   66.4230   59.2860 C   0  0  0  0  0  2  0  0  0  0  0  0
   43.1610   65.4420   60.1550 C   0  0  0  0  0  2  0  0  0  0  0  0
   41.7010   65.7690   60.1320 C   0  0  0  0  0  3  0  0  0  0  0  0
   41.3350   67.1960   60.0340 C   0  0  0  0  0  3  0  0  0  0  0  0
  1  2  1  0  0  0  0
  2  8  2  0  0  0  0
  2  3  1  0  0  0  0
  3  4  2  0  0  0  0
  4  5  1  0  0  0  0
  4  9  1  0  0  0  0
  5 10  1  0  0  0  0
  6  7  1  0  0  0  0
  6  5  2  0  0  0  0
  8  6  1  0  0  0  0
 11 12  1  0  0  0  0
 12 13  2  0  0  0  0
 12  3  1  0  0  0  0
 13 18  1  0  0  0  0
 14 13  1  0  0  0  0
 15 14  2  0  0  0  0
 16 15  1  0  0  0  0
 16 11  2  0  0  0  0
 17 11  1  0  0  0  0
 19 15  1  0  0  0  0
 19 22  1  0  0  0  0
 20 19  1  0  0  0  0
 21 19  1  0  0  0  0
 23 28  1  0  0  0  0
 23 24  1  0  0  0  0
 23  8  1  1  0  0  0
 25 24  1  0  0  0  0
 25 26  1  0  0  0  0
 27 26  1  0  0  0  0
 28 27  2  0  0  0  0
M  END
>  <minimizedAffinity>
-6.18894958

$$$$

 OpenBabel03212520143D

 28 30  0  0  1  0  0  0  0  0999 V2000
   42.2660   71.3420   62.2590 Cl  0  0  0  0  0  0  0  0  0  0  0  0
   41.8180   70.5970   60.7290 C   0  0  0  0  0  0  0  0  0  0  0  0
   41.3370   71.3410   59.6690 C   0  0  0  0  0  0  0  0  0  0  0  0
   41.0750   70.6180   58.5090 C   0  0  0  0  0  0  0  0  0  0  0  0
   41.2500   69.2650   58.3310 C   0  0  0  0  0  0  0  0  0  0  0  0
   41.7290   68.5860   59.4230 C   0  0  0  0  0  0  0  0  0  0  0  0
   42.0210   66.8490   59.3130 Cl  0  0  0  0  0  0  0  0  0  0  0  0
   42.0140   69.2490   60.6260 C   0  0  0  0  0  0  0  0  0  0  0  0
   40.6980   71.1970   57.6790 H   0  0  0  0  0  0  0  0  0  0  0  0
   41.0180   68.7980   57.3930 H   0  0  0  0  0  0  0  0  0  0  0  0
   42.0520   73.7640   59.4990 C   0  0  0  0  0  0  0  0  0  0  0  0
   41.1410   72.7490   59.8150 C   0  0  0  0  0  0  0  0  0  0  0  0
   39.8990   73.1160   60.3280 C   0  0  0  0  0  0  0  0  0  0  0  0
   39.6440   74.4390   60.4930 N   0  0  0  0  0  0  0  0  0  0  0  0
   40.5470   75.3940   60.1790 C   0  0  0  0  0  0  0  0  0  0  0  0
   41.7540   75.0530   59.6810 N   0  0  0  0  0  0  0  0  0  0  0  0
   43.0020   73.4280   59.1040 H   0  0  0  0  0  0  0  0  0  0  0  0
   39.1010   72.4390   60.6140 H   0  0  0  0  0  0  0  0  0  0  0  0
   40.1040   76.8000   60.4230 C   0  0  0  0  0  0  0  0  0  0  0  0
   39.4450   76.9350   61.6230 F   0  0  0  0  0  0  0  0  0  0  0  0
   41.2040   77.6340   60.4460 F   0  0  0  0  0  0  0  0  0  0  0  0
   39.2120   77.2180   59.4440 F   0  0  0  0  0  0  0  0  0  0  0  0
   42.5150   68.4280   61.7680 C   0  0  1  0  0  3  0  0  0  0  0  0
   41.4160   67.4630   62.1160 C   0  0  0  0  0  2  0  0  0  0  0  0
   41.9620   66.4600   63.0880 C   0  0  0  0  0  2  0  0  0  0  0  0
   42.9300   65.6390   62.2410 C   0  0  0  0  0  2  0  0  0  0  0  0
   44.1120   66.4650   61.8430 C   0  0  0  0  0  3  0  0  0  0  0  0
   43.8730   67.9000   61.5910 C   0  0  0  0  0  3  0  0  0  0  0  0
  2  1  1  0  0  0  0
  3 12  1  0  0  0  0
  3  2  2  0  0  0  0
  4  3  1  0  0  0  0
  5  4  2  0  0  0  0
  5  6  1  0  0  0  0
  6  8  2  0  0  0  0
  7  6  1  0  0  0  0
  8  2  1  0  0  0  0
  9  4  1  0  0  0  0
 10  5  1  0  0  0  0
 11 16  2  0  0  0  0
 11 12  1  0  0  0  0
 12 13  2  0  0  0  0
 13 14  1  0  0  0  0
 13 18  1  0  0  0  0
 15 19  1  0  0  0  0
 15 14  2  0  0  0  0
 16 15  1  0  0  0  0
 17 11  1  0  0  0  0
 19 21  1  0  0  0  0
 19 20  1  0  0  0  0
 22 19  1  0  0  0  0
 23  8  1  6  0  0  0
 23 24  1  0  0  0  0
 24 25  1  0  0  0  0
 26 25  1  0  0  0  0
 27 26  1  0  0  0  0
 28 23  1  0  0  0  0
 28 27  2  0  0  0  0
M  END
>  <minimizedAffinity>
-6.04939127

$$$$

 OpenBabel03212520143D

 28 30  0  0  1  0  0  0  0  0999 V2000
   39.7620   72.1570   59.5600 Cl  0  0  0  0  0  0  0  0  0  0  0  0
   41.3210   72.9420   59.7830 C   0  0  0  0  0  0  0  0  0  0  0  0
   42.3460   72.3400   60.4870 C   0  0  0  0  0  0  0  0  0  0  0  0
   43.5350   73.0610   60.5340 C   0  0  0  0  0  0  0  0  0  0  0  0
   43.7720   74.2880   59.9560 C   0  0  0  0  0  0  0  0  0  0  0  0
   42.7120   74.8300   59.2740 C   0  0  0  0  0  0  0  0  0  0  0  0
   42.8970   76.3880   58.4660 Cl  0  0  0  0  0  0  0  0  0  0  0  0
   41.4820   74.1600   59.1850 C   0  0  0  0  0  0  0  0  0  0  0  0
   44.3390   72.5930   61.0840 H   0  0  0  0  0  0  0  0  0  0  0  0
   44.7290   74.7650   60.0490 H   0  0  0  0  0  0  0  0  0  0  0  0
   41.8370   70.8180   62.4460 C   0  0  0  0  0  0  0  0  0  0  0  0
   42.1390   71.0670   61.1020 C   0  0  0  0  0  0  0  0  0  0  0  0
   42.2560   69.9770   60.2420 C   0  0  0  0  0  0  0  0  0  0  0  0
   42.0720   68.7350   60.7580 N   0  0  0  0  0  0  0  0  0  0  0  0
   41.7820   68.5310   62.0620 C   0  0  0  0  0  0  0  0  0  0  0  0
   41.6650   69.5770   62.9070 N   0  0  0  0  0  0  0  0  0  0  0  0
   41.7570   71.6970   63.0730 H   0  0  0  0  0  0  0  0  0  0  0  0
   42.4840   70.0220   59.1820 H   0  0  0  0  0  0  0  0  0  0  0  0
   41.6110   67.1020   62.4640 C   0  0  0  0  0  0  0  0  0  0  0  0
   41.1460   66.3250   61.4290 F   0  0  0  0  0  0  0  0  0  0  0  0
   42.8260   66.5870   62.8690 F   0  0  0  0  0  0  0  0  0  0  0  0
   40.6780   66.9800   63.4860 F   0  0  0  0  0  0  0  0  0  0  0  0
   40.3790   74.8320   58.4380 C   0  0  1  0  0  3  0  0  0  0  0  0
   40.0750   76.1050   59.1780 C   0  0  0  0  0  2  0  0  0  0  0  0
   39.1490   76.9290   58.3340 C   0  0  0  0  0  2  0  0  0  0  0  0
   40.0320   77.3710   57.1700 C   0  0  0  0  0  2  0  0  0  0  0  0
   40.3920   76.2020   56.3090 C   0  0  0  0  0  3  0  0  0  0  0  0
   40.5790   74.9030   56.9860 C   0  0  0  0  0  3  0  0  0  0  0  0
  1  2  1  0  0  0  0
  2  3  1  0  0  0  0
  3  4  2  0  0  0  0
  3 12  1  0  0  0  0
  4  9  1  0  0  0  0
  5 10  1  0  0  0  0
  5  4  1  0  0  0  0
  6  5  2  0  0  0  0
  7  6  1  0  0  0  0
  8  6  1  0  0  0  0
  8  2  2  0  0  0  0
 11 16  1  0  0  0  0
 11 17  1  0  0  0  0
 12 11  2  0  0  0  0
 13 14  2  0  0  0  0
 13 12  1  0  0  0  0
 14 15  1  0  0  0  0
 15 19  1  0  0  0  0
 15 16  2  0  0  0  0
 18 13  1  0  0  0  0
 19 21  1  0  0  0  0
 19 22  1  0  0  0  0
 20 19  1  0  0  0  0
 23 24  1  0  0  0  0
 23  8  1  1  0  0  0
 25 24  1  0  0  0  0
 26 25  1  0  0  0  0
 27 28  2  0  0  0  0
 27 26  1  0  0  0  0
 28 23  1  0  0  0  0
M  END
>  <minimizedAffinity>
-5.61213112

$$$$

 OpenBabel03212520143D

 28 30  0  0  1  0  0  0  0  0999 V2000
   42.0090   73.0600   57.2600 Cl  0  0  0  0  0  0  0  0  0  0  0  0
   40.4010   73.5680   57.7590 C   0  0  0  0  0  0  0  0  0  0  0  0
   39.2940   73.3790   56.9530 C   0  0  0  0  0  0  0  0  0  0  0  0
   38.0830   73.7860   57.5060 C   0  0  0  0  0  0  0  0  0  0  0  0
   37.8980   74.3440   58.7500 C   0  0  0  0  0  0  0  0  0  0  0  0
   39.0380   74.5060   59.4970 C   0  0  0  0  0  0  0  0  0  0  0  0
   38.9290   75.1880   61.1220 Cl  0  0  0  0  0  0  0  0  0  0  0  0
   40.2930   74.1190   59.0040 C   0  0  0  0  0  0  0  0  0  0  0  0
   37.2160   73.6390   56.8790 H   0  0  0  0  0  0  0  0  0  0  0  0
   36.9190   74.6260   59.0870 H   0  0  0  0  0  0  0  0  0  0  0  0
   39.5300   73.4830   54.4340 C   0  0  0  0  0  0  0  0  0  0  0  0
   39.4460   72.8020   55.6550 C   0  0  0  0  0  0  0  0  0  0  0  0
   39.5160   71.4100   55.6390 C   0  0  0  0  0  0  0  0  0  0  0  0
   39.6600   70.7940   54.4380 N   0  0  0  0  0  0  0  0  0  0  0  0
   39.7370   71.4830   53.2770 C   0  0  0  0  0  0  0  0  0  0  0  0
   39.6710   72.8300   53.2780 N   0  0  0  0  0  0  0  0  0  0  0  0
   39.4700   74.5610   54.5010 H   0  0  0  0  0  0  0  0  0  0  0  0
   39.4650   70.7590   56.5050 H   0  0  0  0  0  0  0  0  0  0  0  0
   39.8950   70.6480   52.0480 C   0  0  0  0  0  0  0  0  0  0  0  0
   38.8450   70.8080   51.1740 F   0  0  0  0  0  0  0  0  0  0  0  0
   41.0550   71.0090   51.3900 F   0  0  0  0  0  0  0  0  0  0  0  0
   39.9310   69.2960   52.3650 F   0  0  0  0  0  0  0  0  0  0  0  0
   41.4810   74.3480   59.8780 C   0  0  1  0  0  3  0  0  0  0  0  0
   41.9940   72.9890   60.2670 C   0  0  0  0  0  2  0  0  0  0  0  0
   43.3240   73.1630   60.9390 C   0  0  0  0  0  2  0  0  0  0  0  0
   44.2400   73.6000   59.7990 C   0  0  0  0  0  2  0  0  0  0  0  0
   43.8720   74.9700   59.3220 C   0  0  0  0  0  3  0  0  0  0  0  0
   42.4410   75.3300   59.3610 C   0  0  0  0  0  3  0  0  0  0  0  0
  1  2  1  0  0  0  0
  2  8  1  0  0  0  0
  3  4  1  0  0  0  0
  3  2  2  0  0  0  0
  4  5  2  0  0  0  0
  5 10  1  0  0  0  0
  5  6  1  0  0  0  0
  6  7  1  0  0  0  0
  8  6  2  0  0  0  0
  9  4  1  0  0  0  0
 11 17  1  0  0  0  0
 11 12  1  0  0  0  0
 12  3  1  0  0  0  0
 13 12  2  0  0  0  0
 13 18  1  0  0  0  0
 14 13  1  0  0  0  0
 15 16  1  0  0  0  0
 15 14  2  0  0  0  0
 16 11  2  0  0  0  0
 19 22  1  0  0  0  0
 19 15  1  0  0  0  0
 20 19  1  0  0  0  0
 21 19  1  0  0  0  0
 23  8  1  6  0  0  0
 23 24  1  0  0  0  0
 24 25  1  0  0  0  0
 26 25  1  0  0  0  0
 27 28  2  0  0  0  0
 27 26  1  0  0  0  0
 28 23  1  0  0  0  0
M  END
>  <minimizedAffinity>
-5.55360746

$$$$

 OpenBabel03212520143D

 28 30  0  0  1  0  0  0  0  0999 V2000
   41.3990   70.9810   58.4110 Cl  0  0  0  0  0  0  0  0  0  0  0  0
   41.6060   71.3070   60.1280 C   0  0  0  0  0  0  0  0  0  0  0  0
   41.0530   72.4210   60.7300 C   0  0  0  0  0  0  0  0  0  0  0  0
   41.2600   72.5150   62.1030 C   0  0  0  0  0  0  0  0  0  0  0  0
   41.9470   71.6210   62.8910 C   0  0  0  0  0  0  0  0  0  0  0  0
   42.4720   70.5380   62.2290 C   0  0  0  0  0  0  0  0  0  0  0  0
   43.3540   69.3050   63.1330 Cl  0  0  0  0  0  0  0  0  0  0  0  0
   42.3040   70.3780   60.8460 C   0  0  0  0  0  0  0  0  0  0  0  0
   40.8290   73.3850   62.5760 H   0  0  0  0  0  0  0  0  0  0  0  0
   42.0520   71.7830   63.9460 H   0  0  0  0  0  0  0  0  0  0  0  0
   38.9510   73.4060   59.7170 C   0  0  0  0  0  0  0  0  0  0  0  0
   40.3320   73.3730   59.9450 C   0  0  0  0  0  0  0  0  0  0  0  0
   41.1190   74.3640   59.3610 C   0  0  0  0  0  0  0  0  0  0  0  0
   40.5010   75.3030   58.6010 N   0  0  0  0  0  0  0  0  0  0  0  0
   39.1640   75.3040   58.4010 C   0  0  0  0  0  0  0  0  0  0  0  0
   38.3890   74.3520   58.9610 N   0  0  0  0  0  0  0  0  0  0  0  0
   38.3850   72.6160   60.1930 H   0  0  0  0  0  0  0  0  0  0  0  0
   42.1960   74.4610   59.4530 H   0  0  0  0  0  0  0  0  0  0  0  0
   38.6470   76.4100   57.5390 C   0  0  0  0  0  0  0  0  0  0  0  0
   39.4060   76.5820   56.4050 F   0  0  0  0  0  0  0  0  0  0  0  0
   37.3550   76.1240   57.1450 F   0  0  0  0  0  0  0  0  0  0  0  0
   38.6810   77.6240   58.2130 F   0  0  0  0  0  0  0  0  0  0  0  0
   42.9240   69.1800   60.2070 C   0  0  1  0  0  3  0  0  0  0  0  0
   41.7910   68.3340   59.6950 C   0  0  0  0  0  2  0  0  0  0  0  0
   42.3660   67.2490   58.8340 C   0  0  0  0  0  2  0  0  0  0  0  0
   42.8620   68.0020   57.6020 C   0  0  0  0  0  2  0  0  0  0  0  0
   44.0290   68.8710   57.9500 C   0  0  0  0  0  3  0  0  0  0  0  0
   44.0350   69.4790   59.2950 C   0  0  0  0  0  3  0  0  0  0  0  0
  1  2  1  0  0  0  0
  2  3  2  0  0  0  0
  2  8  1  0  0  0  0
  3  4  1  0  0  0  0
  4  9  1  0  0  0  0
  4  5  2  0  0  0  0
  5 10  1  0  0  0  0
  6  5  1  0  0  0  0
  6  7  1  0  0  0  0
  8  6  2  0  0  0  0
 11 12  1  0  0  0  0
 11 17  1  0  0  0  0
 12  3  1  0  0  0  0
 13 18  1  0  0  0  0
 13 12  2  0  0  0  0
 14 13  1  0  0  0  0
 15 14  2  0  0  0  0
 15 16  1  0  0  0  0
 16 11  2  0  0  0  0
 19 22  1  0  0  0  0
 19 15  1  0  0  0  0
 20 19  1  0  0  0  0
 21 19  1  0  0  0  0
 23  8  1  6  0  0  0
 24 23  1  0  0  0  0
 25 24  1  0  0  0  0
 26 27  1  0  0  0  0
 26 25  1  0  0  0  0
 27 28  2  0  0  0  0
 28 23  1  0  0  0  0
M  END
>  <minimizedAffinity>
-5.52174091

$$$$

 OpenBabel03212520143D

 28 30  0  0  1  0  0  0  0  0999 V2000
   40.2580   72.3680   60.2360 Cl  0  0  0  0  0  0  0  0  0  0  0  0
   41.9340   72.3510   59.7020 C   0  0  0  0  0  0  0  0  0  0  0  0
   42.7640   71.2720   59.9380 C   0  0  0  0  0  0  0  0  0  0  0  0
   44.0460   71.3850   59.4100 C   0  0  0  0  0  0  0  0  0  0  0  0
   44.5460   72.4480   58.6920 C   0  0  0  0  0  0  0  0  0  0  0  0
   43.6700   73.4870   58.4950 C   0  0  0  0  0  0  0  0  0  0  0  0
   44.1830   74.8980   57.5680 Cl  0  0  0  0  0  0  0  0  0  0  0  0
   42.3620   73.4430   59.0000 C   0  0  0  0  0  0  0  0  0  0  0  0
   44.6980   70.5430   59.5930 H   0  0  0  0  0  0  0  0  0  0  0  0
   45.5540   72.4410   58.3250 H   0  0  0  0  0  0  0  0  0  0  0  0
   42.1470   70.0520   62.0690 C   0  0  0  0  0  0  0  0  0  0  0  0
   42.2830   70.1490   60.6790 C   0  0  0  0  0  0  0  0  0  0  0  0
   41.9160   69.0510   59.9030 C   0  0  0  0  0  0  0  0  0  0  0  0
   41.4480   67.9490   60.5410 N   0  0  0  0  0  0  0  0  0  0  0  0
   41.3310   67.8880   61.8870 C   0  0  0  0  0  0  0  0  0  0  0  0
   41.6820   68.9430   62.6500 N   0  0  0  0  0  0  0  0  0  0  0  0
   42.4450   70.9300   62.6260 H   0  0  0  0  0  0  0  0  0  0  0  0
   41.9670   68.9890   58.8210 H   0  0  0  0  0  0  0  0  0  0  0  0
   40.8000   66.5990   62.4250 C   0  0  0  0  0  0  0  0  0  0  0  0
   39.6300   66.7730   63.1280 F   0  0  0  0  0  0  0  0  0  0  0  0
   40.5430   65.7320   61.3810 F   0  0  0  0  0  0  0  0  0  0  0  0
   41.7000   66.0210   63.3110 F   0  0  0  0  0  0  0  0  0  0  0  0
   41.4840   74.6240   58.7530 C   0  0  1  0  0  3  0  0  0  0  0  0
   40.3960   74.1620   57.8240 C   0  0  0  0  0  2  0  0  0  0  0  0
   39.3570   75.2410   57.7430 C   0  0  0  0  0  2  0  0  0  0  0  0
   38.7100   75.2110   59.1250 C   0  0  0  0  0  2  0  0  0  0  0  0
   39.6730   75.6870   60.1670 C   0  0  0  0  0  3  0  0  0  0  0  0
   41.0980   75.3620   59.9620 C   0  0  0  0  0  3  0  0  0  0  0  0
  2  3  1  0  0  0  0
  2  1  1  0  0  0  0
  3 12  1  0  0  0  0
  4  9  1  0  0  0  0
  4  3  2  0  0  0  0
  5  4  1  0  0  0  0
  6  5  2  0  0  0  0
  6  8  1  0  0  0  0
  7  6  1  0  0  0  0
  8  2  2  0  0  0  0
 10  5  1  0  0  0  0
 11 17  1  0  0  0  0
 11 16  1  0  0  0  0
 12 11  2  0  0  0  0
 13 14  2  0  0  0  0
 13 12  1  0  0  0  0
 14 15  1  0  0  0  0
 15 19  1  0  0  0  0
 15 16  2  0  0  0  0
 18 13  1  0  0  0  0
 19 20  1  0  0  0  0
 19 22  1  0  0  0  0
 21 19  1  0  0  0  0
 23  8  1  1  0  0  0
 23 28  1  0  0  0  0
 24 23  1  0  0  0  0
 25 24  1  0  0  0  0
 25 26  1  0  0  0  0
 26 27  1  0  0  0  0
 28 27  2  0  0  0  0
M  END
>  <minimizedAffinity>
-5.49359894

$$$$

 OpenBabel03212520143D

 28 30  0  0  1  0  0  0  0  0999 V2000
   39.8630   72.0030   59.4330 Cl  0  0  0  0  0  0  0  0  0  0  0  0
   41.3870   72.8300   59.7300 C   0  0  0  0  0  0  0  0  0  0  0  0
   42.3880   72.2610   60.4940 C   0  0  0  0  0  0  0  0  0  0  0  0
   43.5540   73.0140   60.5960 C   0  0  0  0  0  0  0  0  0  0  0  0
   43.7910   74.2400   60.0180 C   0  0  0  0  0  0  0  0  0  0  0  0
   42.7540   74.7480   59.2750 C   0  0  0  0  0  0  0  0  0  0  0  0
   42.9430   76.3030   58.4610 Cl  0  0  0  0  0  0  0  0  0  0  0  0
   41.5490   74.0460   59.1290 C   0  0  0  0  0  0  0  0  0  0  0  0
   44.3390   72.5720   61.1920 H   0  0  0  0  0  0  0  0  0  0  0  0
   44.7280   74.7430   60.1570 H   0  0  0  0  0  0  0  0  0  0  0  0
   41.7650   70.7460   62.4250 C   0  0  0  0  0  0  0  0  0  0  0  0
   42.1810   70.9890   61.1100 C   0  0  0  0  0  0  0  0  0  0  0  0
   42.4270   69.8930   60.2850 C   0  0  0  0  0  0  0  0  0  0  0  0
   42.2500   68.6520   60.8050 N   0  0  0  0  0  0  0  0  0  0  0  0
   41.8480   68.4540   62.0800 C   0  0  0  0  0  0  0  0  0  0  0  0
   41.6060   69.5050   62.8910 N   0  0  0  0  0  0  0  0  0  0  0  0
   41.5870   71.6300   63.0250 H   0  0  0  0  0  0  0  0  0  0  0  0
   42.7520   69.9340   59.2510 H   0  0  0  0  0  0  0  0  0  0  0  0
   41.7040   67.0240   62.4910 C   0  0  0  0  0  0  0  0  0  0  0  0
   40.7280   66.8540   63.4450 F   0  0  0  0  0  0  0  0  0  0  0  0
   41.3610   66.2600   61.3930 F   0  0  0  0  0  0  0  0  0  0  0  0
   42.8810   66.5460   63.0530 F   0  0  0  0  0  0  0  0  0  0  0  0
   40.4700   74.6820   58.3170 C   0  0  1  0  0  3  0  0  0  0  0  0
   40.2890   73.8220   57.0970 C   0  0  0  0  0  2  0  0  0  0  0  0
   39.0560   74.2810   56.3780 C   0  0  0  0  0  2  0  0  0  0  0  0
   37.9240   73.8550   57.3100 C   0  0  0  0  0  2  0  0  0  0  0  0
   37.9510   74.6600   58.5720 C   0  0  0  0  0  3  0  0  0  0  0  0
   39.2760   75.0660   59.0800 C   0  0  0  0  0  3  0  0  0  0  0  0
  1  2  1  0  0  0  0
  2  3  1  0  0  0  0
  3  4  2  0  0  0  0
  3 12  1  0  0  0  0
  4  9  1  0  0  0  0
  5 10  1  0  0  0  0
  5  4  1  0  0  0  0
  6  5  2  0  0  0  0
  7  6  1  0  0  0  0
  8  6  1  0  0  0  0
  8  2  2  0  0  0  0
 11 16  1  0  0  0  0
 11 17  1  0  0  0  0
 12 11  2  0  0  0  0
 13 14  2  0  0  0  0
 13 12  1  0  0  0  0
 14 15  1  0  0  0  0
 15 19  1  0  0  0  0
 15 16  2  0  0  0  0
 18 13  1  0  0  0  0
 19 22  1  0  0  0  0
 19 20  1  0  0  0  0
 21 19  1  0  0  0  0
 23 28  1  0  0  0  0
 23  8  1  1  0  0  0
 24 23  1  0  0  0  0
 25 24  1  0  0  0  0
 25 26  1  0  0  0  0
 26 27  1  0  0  0  0
 27 28  2  0  0  0  0
M  END
>  <minimizedAffinity>
-5.47844744

$$$$

 OpenBabel03212520143D

 28 30  0  0  1  0  0  0  0  0999 V2000
   40.2480   72.3550   57.6370 Cl  0  0  0  0  0  0  0  0  0  0  0  0
   40.4250   73.8520   58.5440 C   0  0  0  0  0  0  0  0  0  0  0  0
   41.2180   73.9310   59.6730 C   0  0  0  0  0  0  0  0  0  0  0  0
   41.2990   75.1940   60.2510 C   0  0  0  0  0  0  0  0  0  0  0  0
   40.6760   76.3390   59.8090 C   0  0  0  0  0  0  0  0  0  0  0  0
   39.9030   76.1900   58.6850 C   0  0  0  0  0  0  0  0  0  0  0  0
   39.0720   77.5900   58.0030 Cl  0  0  0  0  0  0  0  0  0  0  0  0
   39.7740   74.9460   58.0480 C   0  0  0  0  0  0  0  0  0  0  0  0
   41.9180   75.2590   61.1340 H   0  0  0  0  0  0  0  0  0  0  0  0
   40.8020   77.2700   60.3270 H   0  0  0  0  0  0  0  0  0  0  0  0
   43.1590   72.3120   59.8160 C   0  0  0  0  0  0  0  0  0  0  0  0
   41.8810   72.7640   60.1630 C   0  0  0  0  0  0  0  0  0  0  0  0
   41.1480   72.0210   61.0870 C   0  0  0  0  0  0  0  0  0  0  0  0
   41.7170   70.8990   61.5950 N   0  0  0  0  0  0  0  0  0  0  0  0
   42.9540   70.4900   61.2370 C   0  0  0  0  0  0  0  0  0  0  0  0
   43.6750   71.1990   60.3450 N   0  0  0  0  0  0  0  0  0  0  0  0
   43.6870   72.9230   59.0960 H   0  0  0  0  0  0  0  0  0  0  0  0
   40.1510   72.2540   61.4450 H   0  0  0  0  0  0  0  0  0  0  0  0
   43.4280   69.2330   61.8930 C   0  0  0  0  0  0  0  0  0  0  0  0
   43.7100   69.4190   63.2260 F   0  0  0  0  0  0  0  0  0  0  0  0
   42.4480   68.2640   61.7960 F   0  0  0  0  0  0  0  0  0  0  0  0
   44.6040   68.7790   61.3090 F   0  0  0  0  0  0  0  0  0  0  0  0
   38.8990   74.8730   56.8420 C   0  0  1  0  0  3  0  0  0  0  0  0
   37.4970   75.1490   57.3120 C   0  0  0  0  0  2  0  0  0  0  0  0
   36.6240   75.3280   56.1060 C   0  0  0  0  0  2  0  0  0  0  0  0
   37.0950   76.6590   55.5240 C   0  0  0  0  0  2  0  0  0  0  0  0
   38.4810   76.5310   54.9750 C   0  0  0  0  0  3  0  0  0  0  0  0
   39.3990   75.6130   55.6770 C   0  0  0  0  0  3  0  0  0  0  0  0
  1  2  1  0  0  0  0
  2  3  1  0  0  0  0
  3 12  1  0  0  0  0
  3  4  2  0  0  0  0
  4  9  1  0  0  0  0
  5  4  1  0  0  0  0
  5 10  1  0  0  0  0
  6  5  2  0  0  0  0
  7  6  1  0  0  0  0
  8  2  2  0  0  0  0
  8  6  1  0  0  0  0
 11 12  2  0  0  0  0
 11 16  1  0  0  0  0
 12 13  1  0  0  0  0
 13 18  1  0  0  0  0
 13 14  2  0  0  0  0
 15 14  1  0  0  0  0
 15 19  1  0  0  0  0
 16 15  2  0  0  0  0
 17 11  1  0  0  0  0
 19 20  1  0  0  0  0
 21 19  1  0  0  0  0
 22 19  1  0  0  0  0
 23 24  1  0  0  0  0
 23  8  1  1  0  0  0
 25 24  1  0  0  0  0
 26 25  1  0  0  0  0
 27 26  1  0  0  0  0
 27 28  2  0  0  0  0
 28 23  1  0  0  0  0
M  END
>  <minimizedAffinity>
-5.42509365

$$$$

 OpenBabel03212520143D

 28 30  0  0  1  0  0  0  0  0999 V2000
   41.1330   71.1480   57.8680 Cl  0  0  0  0  0  0  0  0  0  0  0  0
   41.1700   71.7620   59.5160 C   0  0  0  0  0  0  0  0  0  0  0  0
   40.5680   72.9560   59.8630 C   0  0  0  0  0  0  0  0  0  0  0  0
   40.6360   73.2830   61.2140 C   0  0  0  0  0  0  0  0  0  0  0  0
   41.2350   72.5420   62.2070 C   0  0  0  0  0  0  0  0  0  0  0  0
   41.8150   71.3680   61.7940 C   0  0  0  0  0  0  0  0  0  0  0  0
   42.5920   70.3140   62.9770 Cl  0  0  0  0  0  0  0  0  0  0  0  0
   41.7850   70.9740   60.4480 C   0  0  0  0  0  0  0  0  0  0  0  0
   40.1670   74.2170   61.4880 H   0  0  0  0  0  0  0  0  0  0  0  0
   41.2340   72.8810   63.2240 H   0  0  0  0  0  0  0  0  0  0  0  0
   40.5530   74.6710   58.0000 C   0  0  0  0  0  0  0  0  0  0  0  0
   39.9360   73.7550   58.8610 C   0  0  0  0  0  0  0  0  0  0  0  0
   38.5580   73.5770   58.7540 C   0  0  0  0  0  0  0  0  0  0  0  0
   37.8920   74.3040   57.8210 N   0  0  0  0  0  0  0  0  0  0  0  0
   38.5190   75.1820   57.0060 C   0  0  0  0  0  0  0  0  0  0  0  0
   39.8530   75.3640   57.0980 N   0  0  0  0  0  0  0  0  0  0  0  0
   41.6230   74.7740   58.1220 H   0  0  0  0  0  0  0  0  0  0  0  0
   37.9540   72.9030   59.3520 H   0  0  0  0  0  0  0  0  0  0  0  0
   37.6360   75.8990   56.0380 C   0  0  0  0  0  0  0  0  0  0  0  0
   37.2440   77.1310   56.5070 F   0  0  0  0  0  0  0  0  0  0  0  0
   38.3130   76.0920   54.8500 F   0  0  0  0  0  0  0  0  0  0  0  0
   36.4670   75.1840   55.8070 F   0  0  0  0  0  0  0  0  0  0  0  0
   42.4570   69.6910   60.0860 C   0  0  1  0  0  3  0  0  0  0  0  0
   43.9150   69.8650   60.4110 C   0  0  0  0  0  2  0  0  0  0  0  0
   44.5840   68.5280   60.2960 C   0  0  0  0  0  2  0  0  0  0  0  0
   44.0230   67.7490   61.4840 C   0  0  0  0  0  2  0  0  0  0  0  0
   42.5670   67.4650   61.2860 C   0  0  0  0  0  3  0  0  0  0  0  0
   41.7750   68.4860   60.5730 C   0  0  0  0  0  3  0  0  0  0  0  0
  1  2  1  0  0  0  0
  2  3  2  0  0  0  0
  2  8  1  0  0  0  0
  3  4  1  0  0  0  0
  4  9  1  0  0  0  0
  4  5  2  0  0  0  0
  5 10  1  0  0  0  0
  6  5  1  0  0  0  0
  6  7  1  0  0  0  0
  8  6  2  0  0  0  0
 11 17  1  0  0  0  0
 11 12  1  0  0  0  0
 12  3  1  0  0  0  0
 13 12  2  0  0  0  0
 13 18  1  0  0  0  0
 14 13  1  0  0  0  0
 15 16  1  0  0  0  0
 15 14  2  0  0  0  0
 16 11  2  0  0  0  0
 19 20  1  0  0  0  0
 19 15  1  0  0  0  0
 21 19  1  0  0  0  0
 22 19  1  0  0  0  0
 23 24  1  0  0  0  0
 23  8  1  1  0  0  0
 23 28  1  0  0  0  0
 25 24  1  0  0  0  0
 25 26  1  0  0  0  0
 27 26  1  0  0  0  0
 28 27  2  0  0  0  0
M  END
>  <minimizedAffinity>
-5.3641386

$$$$
