
 OpenBabel03212521073D

 33 36  0  0  0  0  0  0  0  0999 V2000
   41.7930   84.1770   61.5720 C   0  0  0  0  0  0  0  0  0  0  0  0
   41.4200   83.9120   62.8860 C   0  0  0  0  0  0  0  0  0  0  0  0
   40.1240   83.5580   63.2150 C   0  0  0  0  0  0  0  0  0  0  0  0
   39.1700   83.4630   62.2170 C   0  0  0  0  0  0  0  0  0  0  0  0
   39.5310   83.7260   60.9020 C   0  0  0  0  0  0  0  0  0  0  0  0
   40.8290   84.0810   60.5710 C   0  0  0  0  0  0  0  0  0  0  0  0
   42.1400   83.9750   63.7090 H   0  0  0  0  0  0  0  0  0  0  0  0
   39.8010   83.3450   64.2240 H   0  0  0  0  0  0  0  0  0  0  0  0
   38.1260   83.1910   62.3780 H   0  0  0  0  0  0  0  0  0  0  0  0
   38.7900   83.6540   60.1090 H   0  0  0  0  0  0  0  0  0  0  0  0
   45.2970   83.9000   60.5780 C   0  0  0  0  0  0  0  0  0  0  0  0
   45.7640   85.1960   60.7010 C   0  0  0  0  0  0  0  0  0  0  0  0
   44.8580   86.1810   61.1340 C   0  0  0  0  0  0  0  0  0  0  0  0
   43.5810   85.8200   61.4080 N   0  0  0  0  0  0  0  0  0  0  0  0
   43.1550   84.5440   61.2760 C   0  0  0  0  0  0  0  0  0  0  0  0
   44.0180   83.6110   60.8660 N   0  0  0  0  0  0  0  0  0  0  0  0
   45.8940   83.0400   60.2530 H   0  0  0  0  0  0  0  0  0  0  0  0
   46.8040   85.3540   60.4520 H   0  0  0  0  0  0  0  0  0  0  0  0
   45.2430   87.1760   61.2220 H   0  0  0  0  0  0  0  0  0  0  0  0
   41.1590   84.3450   59.1910 C   0  0  0  0  0  0  0  0  0  0  0  0
   40.8890   85.6760   58.8430 C   0  0  0  0  0  0  0  0  0  0  0  0
   41.1400   86.1300   57.5480 C   0  0  0  0  0  0  0  0  0  0  0  0
   41.6420   85.2460   56.6700 N   0  0  0  0  0  0  0  0  0  0  0  0
   41.9010   83.9620   57.0170 C   0  0  0  0  0  0  0  0  0  0  0  0
   41.6590   83.5250   58.2590 N   0  0  0  0  0  0  0  0  0  0  0  0
   40.4840   86.4350   59.4970 H   0  0  0  0  0  0  0  0  0  0  0  0
   40.9390   87.1610   57.2460 H   0  0  0  0  0  0  0  0  0  0  0  0
   42.4570   83.0230   56.0050 C   0  0  0  0  0  3  0  0  0  0  0  0
   43.8060   82.4780   56.4490 C   0  0  0  0  0  2  0  0  0  0  0  0
   44.4070   81.8060   55.2300 C   0  0  0  0  0  2  0  0  0  0  0  0
   43.5170   80.5990   54.9370 C   0  0  0  0  0  2  0  0  0  0  0  0
   42.1130   81.0290   54.6430 C   0  0  0  0  0  2  0  0  0  0  0  0
   41.5050   81.8960   55.7040 C   0  0  0  0  0  2  0  0  0  0  0  0
  1  2  1  0  0  0  0
  2  3  2  0  0  0  0
  2  7  1  0  0  0  0
  3  8  1  0  0  0  0
  4  9  1  0  0  0  0
  4  3  1  0  0  0  0
  5  4  2  0  0  0  0
  6  5  1  0  0  0  0
  6  1  2  0  0  0  0
 10  5  1  0  0  0  0
 11 12  2  0  0  0  0
 11 16  1  0  0  0  0
 12 13  1  0  0  0  0
 13 19  1  0  0  0  0
 13 14  2  0  0  0  0
 15 14  1  0  0  0  0
 15  1  1  0  0  0  0
 16 15  2  0  0  0  0
 17 11  1  0  0  0  0
 18 12  1  0  0  0  0
 20  6  1  0  0  0  0
 21 20  1  0  0  0  0
 21 26  1  0  0  0  0
 22 21  2  0  0  0  0
 23 24  2  0  0  0  0
 23 22  1  0  0  0  0
 24 25  1  0  0  0  0
 25 20  2  0  0  0  0
 27 22  1  0  0  0  0
 28 29  1  0  0  0  0
 28 24  1  0  0  0  0
 30 29  1  0  0  0  0
 31 30  1  0  0  0  0
 32 31  1  0  0  0  0
 32 33  1  0  0  0  0
 33 28  1  0  0  0  0
M  END
>  <minimizedAffinity>
-5.45730734

>  <minimizedRMSD>
0.569157183

$$$$
