
 OpenBabel03212520493D

 25 27  0  0  0  0  0  0  0  0999 V2000
   41.8130   83.9420   61.2600 C   0  0  0  0  0  0  0  0  0  0  0  0
   41.2190   84.2490   62.4750 C   0  0  0  0  0  0  0  0  0  0  0  0
   40.7140   83.2270   63.3000 C   0  0  0  0  0  0  0  0  0  0  0  0
   40.8050   81.9420   62.9150 N   0  0  0  0  0  0  0  0  0  0  0  0
   41.3800   81.6620   61.7420 C   0  0  0  0  0  0  0  0  0  0  0  0
   41.8780   82.6330   60.9200 N   0  0  0  0  0  0  0  0  0  0  0  0
   41.1580   85.2870   62.7630 H   0  0  0  0  0  0  0  0  0  0  0  0
   40.2660   83.5400   64.2300 H   0  0  0  0  0  0  0  0  0  0  0  0
   43.7770   86.7390   59.9850 C   0  0  0  0  0  0  0  0  0  0  0  0
   43.2560   86.8790   58.6830 C   0  0  0  0  0  0  0  0  0  0  0  0
   42.2430   86.0230   58.2490 C   0  0  0  0  0  0  0  0  0  0  0  0
   41.8290   85.0910   59.1530 N   0  0  0  0  0  0  0  0  0  0  0  0
   42.3420   84.9790   60.3870 C   0  0  0  0  0  0  0  0  0  0  0  0
   43.3020   85.7860   60.8090 N   0  0  0  0  0  0  0  0  0  0  0  0
   44.7930   87.6810   60.2660 N   0  0  0  0  0  0  0  0  0  0  0  0
   43.5780   87.6140   57.9610 H   0  0  0  0  0  0  0  0  0  0  0  0
   41.8300   86.1110   57.2590 H   0  0  0  0  0  0  0  0  0  0  0  0
   45.7710   87.7840   59.9160 H   0  0  0  0  0  0  0  0  0  0  0  0
   44.4600   88.4000   60.9670 H   0  0  0  0  0  0  0  0  0  0  0  0
   41.5090   80.2690   61.2630 C   0  0  0  0  0  3  0  0  0  0  0  0
   40.5050   79.3970   61.9530 C   0  0  0  0  0  2  0  0  0  0  0  0
   40.7350   77.9340   61.7910 C   0  0  0  0  0  2  0  0  0  0  0  0
   42.1690   77.5150   61.7630 C   0  0  0  0  0  2  0  0  0  0  0  0
   42.9840   78.3980   60.8450 C   0  0  0  0  0  2  0  0  0  0  0  0
   42.9270   79.7950   61.4720 C   0  0  0  0  0  2  0  0  0  0  0  0
  1  2  1  0  0  0  0
  2  7  1  0  0  0  0
  2  3  2  0  0  0  0
  3  8  1  0  0  0  0
  4  3  1  0  0  0  0
  5  4  2  0  0  0  0
  6  1  2  0  0  0  0
  6  5  1  0  0  0  0
  9 15  1  0  0  0  0
  9 14  1  0  0  0  0
 10  9  2  0  0  0  0
 11 10  1  0  0  0  0
 11 12  2  0  0  0  0
 12 13  1  0  0  0  0
 13 14  2  0  0  0  0
 13  1  1  0  0  0  0
 15 19  1  0  0  0  0
 16 10  1  0  0  0  0
 17 11  1  0  0  0  0
 18 15  1  0  0  0  0
 20 25  1  0  0  0  0
 20  5  1  0  0  0  0
 20 21  1  0  0  0  0
 22 21  1  0  0  0  0
 23 22  1  0  0  0  0
 24 25  1  0  0  0  0
 24 23  1  0  0  0  0
M  END
>  <minimizedAffinity>
-5.03394175

>  <minimizedRMSD>
0.667894185

$$$$
