
 OpenBabel03212520053D

 38 42  0  0  0  0  0  0  0  0999 V2000
   40.6410   81.8170   57.0940 C   0  0  0  0  0  0  0  0  0  0  0  0
   41.8240   82.2180   56.4580 C   0  0  0  0  0  0  0  0  0  0  0  0
   42.7100   82.9790   57.1750 C   0  0  0  0  0  0  0  0  0  0  0  0
   42.4270   83.3190   58.4650 N   0  0  0  0  0  0  0  0  0  0  0  0
   41.2730   82.9150   59.0590 C   0  0  0  0  0  0  0  0  0  0  0  0
   40.3690   82.1590   58.3700 N   0  0  0  0  0  0  0  0  0  0  0  0
   39.8530   81.2220   56.6580 H   0  0  0  0  0  0  0  0  0  0  0  0
   41.8400   81.8020   55.4780 H   0  0  0  0  0  0  0  0  0  0  0  0
   39.6930   83.0900   60.9170 C   0  0  0  0  0  0  0  0  0  0  0  0
   40.9980   83.2490   60.4480 C   0  0  0  0  0  0  0  0  0  0  0  0
   42.0170   83.6960   61.2910 C   0  0  0  0  0  0  0  0  0  0  0  0
   41.7630   83.9950   62.6210 C   0  0  0  0  0  0  0  0  0  0  0  0
   42.4660   84.4290   63.6800 N   0  0  0  0  0  0  0  0  0  0  0  0
   41.6820   84.5450   64.7600 C   0  0  0  0  0  0  0  0  0  0  0  0
   40.4660   84.1660   64.3330 N   0  0  0  0  0  0  0  0  0  0  0  0
   40.4770   83.8240   63.0320 C   0  0  0  0  0  0  0  0  0  0  0  0
   39.4200   83.3870   62.2560 C   0  0  0  0  0  0  0  0  0  0  0  0
   38.8780   82.7470   60.2930 H   0  0  0  0  0  0  0  0  0  0  0  0
   43.0290   83.8190   60.9210 H   0  0  0  0  0  0  0  0  0  0  0  0
   43.5040   84.6300   63.5880 H   0  0  0  0  0  0  0  0  0  0  0  0
   42.0200   84.8760   65.7310 H   0  0  0  0  0  0  0  0  0  0  0  0
   38.4410   83.2860   62.6750 H   0  0  0  0  0  0  0  0  0  0  0  0
   42.6230   83.4580   54.2330 Cl  0  0  0  0  0  0  0  0  0  0  0  0
   44.0570   83.7070   55.2400 C   0  0  0  0  0  0  0  0  0  0  0  0
   43.9430   83.4430   56.5820 C   0  0  0  0  0  0  0  0  0  0  0  0
   45.1100   83.6710   57.3000 C   0  0  0  0  0  0  0  0  0  0  0  0
   46.2850   84.1210   56.7370 C   0  0  0  0  0  0  0  0  0  0  0  0
   46.3290   84.3690   55.3710 C   0  0  0  0  0  0  0  0  0  0  0  0
   47.8170   84.9310   54.6580 Cl  0  0  0  0  0  0  0  0  0  0  0  0
   45.2110   84.1600   54.6310 C   0  0  0  0  0  0  0  0  0  0  0  0
   45.1130   83.4890   58.3650 H   0  0  0  0  0  0  0  0  0  0  0  0
   47.1570   84.2780   57.3570 H   0  0  0  0  0  0  0  0  0  0  0  0
   45.1610   84.3940   53.1710 C   0  0  0  0  0  3  0  0  0  0  0  0
   44.2790   85.5490   52.7580 C   0  0  0  0  0  2  0  0  0  0  0  0
   44.3920   85.6920   51.2650 C   0  0  0  0  0  2  0  0  0  0  0  0
   45.4940   84.9100   50.6310 C   0  0  0  0  0  2  0  0  0  0  0  0
   45.4520   83.4390   50.9710 C   0  0  0  0  0  2  0  0  0  0  0  0
   44.8050   83.2130   52.3360 C   0  0  0  0  0  2  0  0  0  0  0  0
  1  6  1  0  0  0  0
  2  1  2  0  0  0  0
  2  3  1  0  0  0  0
  3  4  2  0  0  0  0
  4  5  1  0  0  0  0
  5 10  1  0  0  0  0
  6  5  2  0  0  0  0
  7  1  1  0  0  0  0
  8  2  1  0  0  0  0
  9 17  1  0  0  0  0
 10  9  2  0  0  0  0
 10 11  1  0  0  0  0
 11 12  2  0  0  0  0
 12 16  1  0  0  0  0
 12 13  1  0  0  0  0
 13 14  1  0  0  0  0
 14 21  1  0  0  0  0
 15 14  2  0  0  0  0
 16 15  1  0  0  0  0
 17 22  1  0  0  0  0
 17 16  2  0  0  0  0
 18  9  1  0  0  0  0
 19 11  1  0  0  0  0
 20 13  1  0  0  0  0
 23 24  1  0  0  0  0
 24 25  1  0  0  0  0
 25  3  1  0  0  0  0
 25 26  2  0  0  0  0
 26 31  1  0  0  0  0
 27 26  1  0  0  0  0
 27 32  1  0  0  0  0
 28 27  2  0  0  0  0
 29 28  1  0  0  0  0
 30 24  2  0  0  0  0
 30 28  1  0  0  0  0
 33 30  1  0  0  0  0
 34 33  1  0  0  0  0
 35 34  1  0  0  0  0
 36 37  1  0  0  0  0
 36 35  1  0  0  0  0
 37 38  1  0  0  0  0
 38 33  1  0  0  0  0
M  END
>  <minimizedAffinity>
-4.81724787

>  <minimizedRMSD>
0.577005565

$$$$
