
 OpenBabel03212520133D

 28 30  0  0  1  0  0  0  0  0999 V2000
   40.1910   82.5430   58.4650 Cl  0  0  0  0  0  0  0  0  0  0  0  0
   40.1500   80.8300   58.8660 C   0  0  0  0  0  0  0  0  0  0  0  0
   40.3750   80.3780   60.1520 C   0  0  0  0  0  0  0  0  0  0  0  0
   40.2580   79.0010   60.3230 C   0  0  0  0  0  0  0  0  0  0  0  0
   39.9480   78.0780   59.3510 C   0  0  0  0  0  0  0  0  0  0  0  0
   39.7400   78.5950   58.0970 C   0  0  0  0  0  0  0  0  0  0  0  0
   39.3100   77.5160   56.7670 Cl  0  0  0  0  0  0  0  0  0  0  0  0
   39.8410   79.9720   57.8490 C   0  0  0  0  0  0  0  0  0  0  0  0
   40.4330   78.6440   61.3280 H   0  0  0  0  0  0  0  0  0  0  0  0
   39.8820   77.0330   59.5840 H   0  0  0  0  0  0  0  0  0  0  0  0
   41.9650   81.5520   61.7340 C   0  0  0  0  0  0  0  0  0  0  0  0
   40.6990   81.3050   61.1890 C   0  0  0  0  0  0  0  0  0  0  0  0
   39.6160   82.0260   61.6890 C   0  0  0  0  0  0  0  0  0  0  0  0
   39.8510   82.9260   62.6770 N   0  0  0  0  0  0  0  0  0  0  0  0
   41.0870   83.1390   63.1810 C   0  0  0  0  0  0  0  0  0  0  0  0
   42.1450   82.4490   62.7070 N   0  0  0  0  0  0  0  0  0  0  0  0
   42.7730   80.9670   61.3130 H   0  0  0  0  0  0  0  0  0  0  0  0
   38.5860   81.9380   61.3600 H   0  0  0  0  0  0  0  0  0  0  0  0
   41.1680   84.1650   64.2640 C   0  0  0  0  0  0  0  0  0  0  0  0
   40.9890   85.4410   63.7840 F   0  0  0  0  0  0  0  0  0  0  0  0
   40.1870   83.9220   65.2050 F   0  0  0  0  0  0  0  0  0  0  0  0
   42.4190   84.1520   64.8690 F   0  0  0  0  0  0  0  0  0  0  0  0
   39.6150   80.4430   56.4510 C   0  0  1  0  0  0  0  0  0  0  0  0
   40.6170   79.7250   55.5900 C   0  0  0  0  0  0  0  0  0  0  0  0
   40.2700   79.9780   54.1540 C   0  0  0  0  0  0  0  0  0  0  0  0
   38.9750   79.1920   53.9600 C   0  0  0  0  0  0  0  0  0  0  0  0
   37.8600   79.8170   54.7370 C   0  0  0  0  0  0  0  0  0  0  0  0
   38.2100   80.4460   56.0260 C   0  0  0  0  0  0  0  0  0  0  0  0
  1  2  1  0  0  0  0
  2  3  1  0  0  0  0
  3  4  2  0  0  0  0
  3 12  1  0  0  0  0
  4  9  1  0  0  0  0
  5 10  1  0  0  0  0
  5  4  1  0  0  0  0
  6  5  2  0  0  0  0
  7  6  1  0  0  0  0
  8  6  1  0  0  0  0
  8  2  2  0  0  0  0
 11 16  1  0  0  0  0
 12 13  1  0  0  0  0
 12 11  2  0  0  0  0
 13 14  2  0  0  0  0
 14 15  1  0  0  0  0
 15 19  1  0  0  0  0
 16 15  2  0  0  0  0
 17 11  1  0  0  0  0
 18 13  1  0  0  0  0
 19 22  1  0  0  0  0
 19 21  1  0  0  0  0
 20 19  1  0  0  0  0
 23  8  1  1  0  0  0
 24 23  1  0  0  0  0
 25 24  1  0  0  0  0
 26 25  1  0  0  0  0
 26 27  1  0  0  0  0
 27 28  2  0  0  0  0
 28 23  1  0  0  0  0
M  END
>  <minimizedAffinity>
-6.5265851

>  <minimizedRMSD>
2.55835128

$$$$
