
 OpenBabel03212521033D

 25 27  0  0  0  0  0  0  0  0999 V2000
   41.2750   82.5820   62.7940 C   0  0  0  0  0  0  0  0  0  0  0  0
   40.2130   83.2190   63.4570 C   0  0  0  0  0  0  0  0  0  0  0  0
   40.4350   84.2680   64.3380 C   0  0  0  0  0  0  0  0  0  0  0  0
   41.7410   84.6880   64.5610 C   0  0  0  0  0  0  0  0  0  0  0  0
   42.7780   84.0480   63.8980 C   0  0  0  0  0  0  0  0  0  0  0  0
   42.5810   82.9910   63.0070 C   0  0  0  0  0  0  0  0  0  0  0  0
   39.2060   82.8800   63.2720 H   0  0  0  0  0  0  0  0  0  0  0  0
   39.5590   84.6970   64.8010 H   0  0  0  0  0  0  0  0  0  0  0  0
   41.9050   85.5060   65.2490 H   0  0  0  0  0  0  0  0  0  0  0  0
   43.7520   84.4520   64.1410 H   0  0  0  0  0  0  0  0  0  0  0  0
   40.4480   80.7710   59.7280 C   0  0  0  0  0  0  0  0  0  0  0  0
   40.3130   79.4420   60.1830 C   0  0  0  0  0  0  0  0  0  0  0  0
   40.5120   79.1660   61.5590 C   0  0  0  0  0  0  0  0  0  0  0  0
   40.8210   80.2120   62.3470 N   0  0  0  0  0  0  0  0  0  0  0  0
   40.9480   81.4970   61.8930 C   0  0  0  0  0  0  0  0  0  0  0  0
   40.7590   81.7310   60.6090 N   0  0  0  0  0  0  0  0  0  0  0  0
   40.3080   81.0340   58.6950 H   0  0  0  0  0  0  0  0  0  0  0  0
   40.0650   78.6710   59.4810 H   0  0  0  0  0  0  0  0  0  0  0  0
   40.4160   78.1750   61.9230 H   0  0  0  0  0  0  0  0  0  0  0  0
   43.7630   82.3950   62.3610 C   0  0  0  0  0  0  0  0  0  0  0  0
   44.9740   82.3930   63.2800 C   0  0  0  0  0  0  0  0  0  0  0  0
   46.2530   82.7500   62.5930 C   0  0  0  0  0  0  0  0  0  0  0  0
   46.3710   82.2290   61.1790 C   0  0  0  0  0  0  0  0  0  0  0  0
   45.1510   82.5020   60.3590 C   0  0  0  0  0  0  0  0  0  0  0  0
   44.1970   83.3200   61.2040 C   0  0  0  0  0  0  0  0  0  0  0  0
  1  6  2  0  0  0  0
  1  2  1  0  0  0  0
  2  3  2  0  0  0  0
  3  4  1  0  0  0  0
  3  8  1  0  0  0  0
  4  9  1  0  0  0  0
  5 10  1  0  0  0  0
  5  4  2  0  0  0  0
  6  5  1  0  0  0  0
  7  2  1  0  0  0  0
 11 12  2  0  0  0  0
 11 16  1  0  0  0  0
 12 13  1  0  0  0  0
 13 19  1  0  0  0  0
 13 14  2  0  0  0  0
 15 14  1  0  0  0  0
 15  1  1  0  0  0  0
 16 15  2  0  0  0  0
 17 11  1  0  0  0  0
 18 12  1  0  0  0  0
 20  6  1  0  0  0  0
 20 21  1  0  0  0  0
 22 21  1  0  0  0  0
 23 22  1  0  0  0  0
 24 23  1  0  0  0  0
 24 25  1  0  0  0  0
 25 20  1  0  0  0  0
M  END
>  <minimizedAffinity>
-5.05367517

>  <minimizedRMSD>
5.25898647

$$$$
