
 OpenBabel03212521073D

 34 37  0  0  0  0  0  0  0  0999 V2000
   41.8060   84.2370   61.5720 C   0  0  0  0  0  0  0  0  0  0  0  0
   41.4360   83.9640   62.8870 C   0  0  0  0  0  0  0  0  0  0  0  0
   40.1480   83.5580   63.1990 C   0  0  0  0  0  0  0  0  0  0  0  0
   39.2080   83.4230   62.1740 C   0  0  0  0  0  0  0  0  0  0  0  0
   39.5870   83.6990   60.8690 C   0  0  0  0  0  0  0  0  0  0  0  0
   40.8630   84.0990   60.5690 C   0  0  0  0  0  0  0  0  0  0  0  0
   42.1400   84.0580   63.7120 H   0  0  0  0  0  0  0  0  0  0  0  0
   39.8600   83.3450   64.2290 H   0  0  0  0  0  0  0  0  0  0  0  0
   38.2030   83.1150   62.3580 H   0  0  0  0  0  0  0  0  0  0  0  0
   38.8620   83.5970   60.0580 H   0  0  0  0  0  0  0  0  0  0  0  0
   45.3630   84.0960   60.7370 C   0  0  0  0  0  0  0  0  0  0  0  0
   45.7420   85.4400   60.7830 C   0  0  0  0  0  0  0  0  0  0  0  0
   44.7680   86.4050   61.1050 C   0  0  0  0  0  0  0  0  0  0  0  0
   43.5040   85.9770   61.3530 N   0  0  0  0  0  0  0  0  0  0  0  0
   43.1660   84.6580   61.3000 C   0  0  0  0  0  0  0  0  0  0  0  0
   44.0930   83.7580   60.9960 N   0  0  0  0  0  0  0  0  0  0  0  0
   46.1240   83.3640   60.4880 H   0  0  0  0  0  0  0  0  0  0  0  0
   46.7510   85.7960   60.5860 H   0  0  0  0  0  0  0  0  0  0  0  0
   45.0140   87.4600   61.1520 H   0  0  0  0  0  0  0  0  0  0  0  0
   41.2110   84.3760   59.1820 C   0  0  0  0  0  0  0  0  0  0  0  0
   40.7530   85.6290   58.7780 C   0  0  0  0  0  0  0  0  0  0  0  0
   40.9910   86.0750   57.4780 C   0  0  0  0  0  0  0  0  0  0  0  0
   41.6630   85.2610   56.6600 N   0  0  0  0  0  0  0  0  0  0  0  0
   42.1080   84.0410   57.0550 C   0  0  0  0  0  0  0  0  0  0  0  0
   41.8790   83.6170   58.3030 N   0  0  0  0  0  0  0  0  0  0  0  0
   40.2030   86.3350   59.3910 H   0  0  0  0  0  0  0  0  0  0  0  0
   40.6460   87.0430   57.1370 H   0  0  0  0  0  0  0  0  0  0  0  0
   42.8470   83.1280   56.1820 C   0  0  0  0  0  0  0  0  0  0  0  0
   42.3370   82.9680   54.9050 C   0  0  0  0  0  3  0  0  0  0  0  0
   42.9750   82.1230   54.0130 C   0  0  0  0  0  0  0  0  0  0  0  0
   42.6370   81.9460   53.0000 H   0  0  0  0  0  0  0  0  0  0  0  0
   44.0870   81.4760   54.4320 N   0  0  0  0  0  0  0  0  0  0  0  0
   44.5680   81.6490   55.6890 C   0  0  0  0  0  3  0  0  0  0  0  0
   43.9480   82.4720   56.5560 N   0  0  0  0  0  0  0  0  0  0  0  0
  1  2  1  0  0  0  0
  2  3  2  0  0  0  0
  2  7  1  0  0  0  0
  3  8  1  0  0  0  0
  4  9  1  0  0  0  0
  4  3  1  0  0  0  0
  5  4  2  0  0  0  0
  6  5  1  0  0  0  0
  6  1  2  0  0  0  0
 10  5  1  0  0  0  0
 11 12  2  0  0  0  0
 11 16  1  0  0  0  0
 12 13  1  0  0  0  0
 13 19  1  0  0  0  0
 13 14  2  0  0  0  0
 15 14  1  0  0  0  0
 15  1  1  0  0  0  0
 16 15  2  0  0  0  0
 17 11  1  0  0  0  0
 18 12  1  0  0  0  0
 20  6  1  0  0  0  0
 21 20  1  0  0  0  0
 21 26  1  0  0  0  0
 22 21  2  0  0  0  0
 23 24  2  0  0  0  0
 23 22  1  0  0  0  0
 24 25  1  0  0  0  0
 25 20  2  0  0  0  0
 27 22  1  0  0  0  0
 28 34  1  0  0  0  0
 28 24  1  0  0  0  0
 29 28  2  0  0  0  0
 30 32  2  0  0  0  0
 30 29  1  0  0  0  0
 31 30  1  0  0  0  0
 32 33  1  0  0  0  0
 33 34  2  0  0  0  0
M  END
>  <minimizedAffinity>
-5.36611366

>  <minimizedRMSD>
0.0770410597

$$$$
