
 OpenBabel03212521063D

 34 37  0  0  0  0  0  0  0  0999 V2000
   41.8010   84.2420   61.5540 C   0  0  0  0  0  0  0  0  0  0  0  0
   41.4590   83.9380   62.8700 C   0  0  0  0  0  0  0  0  0  0  0  0
   40.1770   83.5240   63.2000 C   0  0  0  0  0  0  0  0  0  0  0  0
   39.2160   83.4120   62.1930 C   0  0  0  0  0  0  0  0  0  0  0  0
   39.5670   83.7180   60.8860 C   0  0  0  0  0  0  0  0  0  0  0  0
   40.8350   84.1260   60.5690 C   0  0  0  0  0  0  0  0  0  0  0  0
   42.1800   84.0130   63.6820 H   0  0  0  0  0  0  0  0  0  0  0  0
   39.9120   83.2860   64.2310 H   0  0  0  0  0  0  0  0  0  0  0  0
   38.2150   83.0980   62.3910 H   0  0  0  0  0  0  0  0  0  0  0  0
   38.8250   83.6350   60.0890 H   0  0  0  0  0  0  0  0  0  0  0  0
   45.3310   84.1270   60.6120 C   0  0  0  0  0  0  0  0  0  0  0  0
   45.7180   85.4660   60.7090 C   0  0  0  0  0  0  0  0  0  0  0  0
   44.7570   86.4190   61.1010 C   0  0  0  0  0  0  0  0  0  0  0  0
   43.4990   85.9840   61.3660 N   0  0  0  0  0  0  0  0  0  0  0  0
   43.1540   84.6690   61.2630 C   0  0  0  0  0  0  0  0  0  0  0  0
   44.0680   83.7810   60.8920 N   0  0  0  0  0  0  0  0  0  0  0  0
   46.0820   83.4040   60.3100 H   0  0  0  0  0  0  0  0  0  0  0  0
   46.7220   85.8280   60.4990 H   0  0  0  0  0  0  0  0  0  0  0  0
   45.0100   87.4700   61.1900 H   0  0  0  0  0  0  0  0  0  0  0  0
   41.1540   84.4350   59.1810 C   0  0  0  0  0  0  0  0  0  0  0  0
   40.6980   85.7020   58.8200 C   0  0  0  0  0  0  0  0  0  0  0  0
   40.9090   86.1790   57.5260 C   0  0  0  0  0  0  0  0  0  0  0  0
   41.5550   85.3810   56.6720 N   0  0  0  0  0  0  0  0  0  0  0  0
   41.9980   84.1480   57.0260 C   0  0  0  0  0  0  0  0  0  0  0  0
   41.7950   83.6930   58.2680 N   0  0  0  0  0  0  0  0  0  0  0  0
   40.1690   86.3960   59.4640 H   0  0  0  0  0  0  0  0  0  0  0  0
   40.5640   87.1590   57.2190 H   0  0  0  0  0  0  0  0  0  0  0  0
   42.7090   83.2510   56.1130 C   0  0  0  0  0  0  0  0  0  0  0  0
   44.0720   83.1300   56.3250 C   0  0  0  0  0  3  0  0  0  0  0  0
   44.8220   82.3020   55.5060 C   0  0  0  0  0  0  0  0  0  0  0  0
   45.8890   82.1560   55.6080 H   0  0  0  0  0  0  0  0  0  0  0  0
   44.1840   81.6350   54.5180 N   0  0  0  0  0  0  0  0  0  0  0  0
   42.8450   81.7690   54.3310 C   0  0  0  0  0  3  0  0  0  0  0  0
   42.1160   82.5740   55.1260 N   0  0  0  0  0  0  0  0  0  0  0  0
  1  2  1  0  0  0  0
  2  3  2  0  0  0  0
  2  7  1  0  0  0  0
  3  8  1  0  0  0  0
  4  9  1  0  0  0  0
  4  3  1  0  0  0  0
  5  4  2  0  0  0  0
  6  5  1  0  0  0  0
  6  1  2  0  0  0  0
 10  5  1  0  0  0  0
 11 12  2  0  0  0  0
 11 16  1  0  0  0  0
 12 13  1  0  0  0  0
 13 19  1  0  0  0  0
 13 14  2  0  0  0  0
 15 14  1  0  0  0  0
 15  1  1  0  0  0  0
 16 15  2  0  0  0  0
 17 11  1  0  0  0  0
 18 12  1  0  0  0  0
 20  6  1  0  0  0  0
 21 20  1  0  0  0  0
 21 26  1  0  0  0  0
 22 21  2  0  0  0  0
 23 24  2  0  0  0  0
 23 22  1  0  0  0  0
 24 25  1  0  0  0  0
 25 20  2  0  0  0  0
 27 22  1  0  0  0  0
 28 29  1  0  0  0  0
 28 24  1  0  0  0  0
 30 31  1  0  0  0  0
 30 29  2  0  0  0  0
 32 30  1  0  0  0  0
 33 32  2  0  0  0  0
 33 34  1  0  0  0  0
 34 28  2  0  0  0  0
M  END
>  <minimizedAffinity>
-5.35041666

>  <minimizedRMSD>
0.216914639

$$$$
