
 OpenBabel03212520403D

 25 27  0  0  1  0  0  0  0  0999 V2000
   42.7960   85.7430   60.1320 C   0  0  1  0  0  0  0  0  0  0  0  0
   44.1550   86.4350   60.1690 C   0  0  0  0  0  0  0  0  0  0  0  0
   43.5450   85.9130   58.8700 C   0  0  1  0  0  0  0  0  0  0  0  0
   41.9870   86.4240   60.4530 H   0  0  0  0  0  0  0  0  0  0  0  0
   44.2060   87.5260   60.2470 H   0  0  0  0  0  0  0  0  0  0  0  0
   45.0350   85.9070   60.5330 H   0  0  0  0  0  0  0  0  0  0  0  0
   43.1070   86.6810   58.1830 H   0  0  0  0  0  0  0  0  0  0  0  0
   42.8450   84.4710   60.7800 O   0  0  0  0  0  0  0  0  0  0  0  0
   40.0680   83.4970   62.8940 C   0  0  0  0  0  0  0  0  0  0  0  0
   40.5950   83.7580   64.1720 C   0  0  0  0  0  0  0  0  0  0  0  0
   41.9110   84.2690   64.2700 C   0  0  0  0  0  0  0  0  0  0  0  0
   42.5310   84.4540   63.0960 N   0  0  0  0  0  0  0  0  0  0  0  0
   42.0440   84.2110   61.8720 C   0  0  0  0  0  0  0  0  0  0  0  0
   40.8090   83.7320   61.7640 N   0  0  0  0  0  0  0  0  0  0  0  0
   39.0620   83.1060   62.7970 H   0  0  0  0  0  0  0  0  0  0  0  0
   40.0450   83.5860   65.0630 H   0  0  0  0  0  0  0  0  0  0  0  0
   42.3890   84.4960   65.2140 H   0  0  0  0  0  0  0  0  0  0  0  0
   44.0840   84.7800   58.2930 O   0  0  0  0  0  0  0  0  0  0  0  0
   43.3720   83.9950   57.4080 C   0  0  0  0  0  0  0  0  0  0  0  0
   42.8000   82.7450   57.5070 C   0  0  0  0  0  3  0  0  0  0  0  0
   42.1410   82.2240   56.4160 C   0  0  0  0  0  0  0  0  0  0  0  0
   41.7230   81.2450   56.5760 H   0  0  0  0  0  0  0  0  0  0  0  0
   42.0310   82.8760   55.2640 N   0  0  0  0  0  0  0  0  0  0  0  0
   42.5920   84.1020   55.1690 C   0  0  0  0  0  3  0  0  0  0  0  0
   43.2550   84.6620   56.2210 N   0  0  0  0  0  0  0  0  0  0  0  0
  1  2  1  0  0  0  0
  1  4  1  1  0  0  0
  1  8  1  0  0  0  0
  2  5  1  0  0  0  0
  2  6  1  0  0  0  0
  3  7  1  6  0  0  0
  3  1  1  0  0  0  0
  3  2  1  0  0  0  0
  8 13  1  0  0  0  0
  9 10  1  0  0  0  0
 10 11  2  0  0  0  0
 10 16  1  0  0  0  0
 11 17  1  0  0  0  0
 12 11  1  0  0  0  0
 13 12  2  0  0  0  0
 14 13  1  0  0  0  0
 14  9  2  0  0  0  0
 15  9  1  0  0  0  0
 18  3  1  0  0  0  0
 19 20  1  0  0  0  0
 19 18  1  0  0  0  0
 21 22  1  0  0  0  0
 21 20  2  0  0  0  0
 23 21  1  0  0  0  0
 24 23  2  0  0  0  0
 24 25  1  0  0  0  0
 25 19  2  0  0  0  0
M  END
>  <minimizedAffinity>
-3.82326841

>  <minimizedRMSD>
1.13108993

$$$$
