
 OpenBabel03212520183D

 33 35  0  0  0  0  0  0  0  0999 V2000
   43.1090   83.9640   58.6550 Cl  0  0  0  0  0  0  0  0  0  0  0  0
   41.8920   82.7800   58.2620 C   0  0  0  0  0  0  0  0  0  0  0  0
   41.0040   82.2480   59.1940 C   0  0  0  0  0  0  0  0  0  0  0  0
   40.1080   81.3250   58.7170 C   0  0  0  0  0  0  0  0  0  0  0  0
   39.9850   80.8670   57.4290 C   0  0  0  0  0  0  0  0  0  0  0  0
   40.8710   81.4080   56.5330 C   0  0  0  0  0  0  0  0  0  0  0  0
   40.8440   80.9240   54.8390 Cl  0  0  0  0  0  0  0  0  0  0  0  0
   41.8140   82.3560   56.9510 C   0  0  0  0  0  0  0  0  0  0  0  0
   39.4250   80.9280   59.4790 H   0  0  0  0  0  0  0  0  0  0  0  0
   39.2630   80.1480   57.1350 H   0  0  0  0  0  0  0  0  0  0  0  0
   41.9350   82.1590   61.5580 C   0  0  0  0  0  0  0  0  0  0  0  0
   41.0930   82.6930   60.5440 C   0  0  0  0  0  0  0  0  0  0  0  0
   40.2780   83.7440   60.8880 C   0  0  0  0  0  0  0  0  0  0  0  0
   40.3490   84.1860   62.1770 N   0  0  0  0  0  0  0  0  0  0  0  0
   41.1430   83.6750   63.1160 C   0  0  0  0  0  0  0  0  0  0  0  0
   41.9550   82.6380   62.8000 N   0  0  0  0  0  0  0  0  0  0  0  0
   42.5570   81.3330   61.2370 H   0  0  0  0  0  0  0  0  0  0  0  0
   39.5950   84.2350   60.2070 H   0  0  0  0  0  0  0  0  0  0  0  0
   41.0470   84.3200   64.4460 C   0  0  0  0  0  0  0  0  0  0  0  0
   40.7150   85.6500   64.3700 F   0  0  0  0  0  0  0  0  0  0  0  0
   40.0990   83.6670   65.2270 F   0  0  0  0  0  0  0  0  0  0  0  0
   42.2910   84.2960   65.0950 F   0  0  0  0  0  0  0  0  0  0  0  0
   42.6790   82.8610   55.9910 O   0  0  0  0  0  0  0  0  0  0  0  0
   42.4620   84.0690   55.2980 C   0  0  0  0  0  0  0  0  0  0  0  0
   42.6570   84.8800   56.0350 H   0  0  0  0  0  0  0  0  0  0  0  0
   41.3680   84.1120   55.0910 H   0  0  0  0  0  0  0  0  0  0  0  0
   43.2440   84.1750   54.0630 C   0  0  0  0  0  0  0  0  0  0  0  0
   43.1580   83.1490   53.1530 C   0  0  0  0  0  3  0  0  0  0  0  0
   43.8590   83.1670   51.9650 C   0  0  0  0  0  0  0  0  0  0  0  0
   43.8230   82.3730   51.2100 H   0  0  0  0  0  0  0  0  0  0  0  0
   44.6550   84.2460   51.7120 N   0  0  0  0  0  0  0  0  0  0  0  0
   44.7100   85.2390   52.6390 C   0  0  0  0  0  3  0  0  0  0  0  0
   44.0250   85.2400   53.8190 N   0  0  0  0  0  0  0  0  0  0  0  0
  2  1  1  0  0  0  0
  2  3  1  0  0  0  0
  3 12  1  0  0  0  0
  4  3  2  0  0  0  0
  4  9  1  0  0  0  0
  5  4  1  0  0  0  0
  6  8  1  0  0  0  0
  6  5  2  0  0  0  0
  7  6  1  0  0  0  0
  8  2  2  0  0  0  0
 10  5  1  0  0  0  0
 11 16  1  0  0  0  0
 12 13  1  0  0  0  0
 12 11  2  0  0  0  0
 13 14  2  0  0  0  0
 14 15  1  0  0  0  0
 15 19  1  0  0  0  0
 16 15  2  0  0  0  0
 17 11  1  0  0  0  0
 18 13  1  0  0  0  0
 19 22  1  0  0  0  0
 19 21  1  0  0  0  0
 20 19  1  0  0  0  0
 23  8  1  0  0  0  0
 24 23  1  0  0  0  0
 24 25  1  0  0  0  0
 26 24  1  0  0  0  0
 27 24  1  0  0  0  0
 28 27  2  0  0  0  0
 29 28  1  0  0  0  0
 30 29  1  0  0  0  0
 31 29  2  0  0  0  0
 31 32  1  0  0  0  0
 32 33  2  0  0  0  0
 33 27  1  0  0  0  0
M  END
>  <minimizedAffinity>
-5.10704994

>  <minimizedRMSD>
0.510417223

$$$$
