
 OpenBabel03212521063D

 34 37  0  0  0  0  0  0  0  0999 V2000
   41.8070   84.2380   61.5500 C   0  0  0  0  0  0  0  0  0  0  0  0
   41.4720   83.9310   62.8670 C   0  0  0  0  0  0  0  0  0  0  0  0
   40.1950   83.5100   63.2020 C   0  0  0  0  0  0  0  0  0  0  0  0
   39.2290   83.3940   62.2000 C   0  0  0  0  0  0  0  0  0  0  0  0
   39.5730   83.7040   60.8920 C   0  0  0  0  0  0  0  0  0  0  0  0
   40.8370   84.1180   60.5690 C   0  0  0  0  0  0  0  0  0  0  0  0
   42.1970   84.0090   63.6750 H   0  0  0  0  0  0  0  0  0  0  0  0
   39.9350   83.2700   64.2340 H   0  0  0  0  0  0  0  0  0  0  0  0
   38.2310   83.0750   62.4030 H   0  0  0  0  0  0  0  0  0  0  0  0
   38.8270   83.6170   60.0980 H   0  0  0  0  0  0  0  0  0  0  0  0
   45.3270   84.1450   60.5700 C   0  0  0  0  0  0  0  0  0  0  0  0
   45.7140   85.4820   60.6870 C   0  0  0  0  0  0  0  0  0  0  0  0
   44.7560   86.4270   61.1070 C   0  0  0  0  0  0  0  0  0  0  0  0
   43.5010   85.9850   61.3770 N   0  0  0  0  0  0  0  0  0  0  0  0
   43.1560   84.6730   61.2520 C   0  0  0  0  0  0  0  0  0  0  0  0
   44.0680   83.7930   60.8560 N   0  0  0  0  0  0  0  0  0  0  0  0
   46.0760   83.4290   60.2460 H   0  0  0  0  0  0  0  0  0  0  0  0
   46.7150   85.8490   60.4740 H   0  0  0  0  0  0  0  0  0  0  0  0
   45.0080   87.4760   61.2120 H   0  0  0  0  0  0  0  0  0  0  0  0
   41.1480   84.4300   59.1800 C   0  0  0  0  0  0  0  0  0  0  0  0
   40.7660   85.7290   58.8480 C   0  0  0  0  0  0  0  0  0  0  0  0
   40.9810   86.2140   57.5590 C   0  0  0  0  0  0  0  0  0  0  0  0
   41.5590   85.3920   56.6790 N   0  0  0  0  0  0  0  0  0  0  0  0
   41.9300   84.1270   57.0040 C   0  0  0  0  0  0  0  0  0  0  0  0
   41.7220   83.6650   58.2430 N   0  0  0  0  0  0  0  0  0  0  0  0
   40.2940   86.4440   59.5140 H   0  0  0  0  0  0  0  0  0  0  0  0
   40.6940   87.2180   57.2740 H   0  0  0  0  0  0  0  0  0  0  0  0
   42.5650   83.2030   56.0630 C   0  0  0  0  0  0  0  0  0  0  0  0
   42.5620   83.5970   54.7350 C   0  0  0  0  0  3  0  0  0  0  0  0
   43.1410   82.7830   53.7780 C   0  0  0  0  0  0  0  0  0  0  0  0
   43.1780   83.0220   52.7220 H   0  0  0  0  0  0  0  0  0  0  0  0
   43.6950   81.6170   54.1820 N   0  0  0  0  0  0  0  0  0  0  0  0
   43.6860   81.2520   55.4890 C   0  0  0  0  0  3  0  0  0  0  0  0
   43.1230   82.0440   56.4210 N   0  0  0  0  0  0  0  0  0  0  0  0
  1  2  1  0  0  0  0
  2  3  2  0  0  0  0
  2  7  1  0  0  0  0
  3  8  1  0  0  0  0
  4  9  1  0  0  0  0
  4  3  1  0  0  0  0
  5  4  2  0  0  0  0
  6  5  1  0  0  0  0
  6  1  2  0  0  0  0
 10  5  1  0  0  0  0
 11 12  2  0  0  0  0
 11 16  1  0  0  0  0
 12 13  1  0  0  0  0
 13 19  1  0  0  0  0
 13 14  2  0  0  0  0
 15 14  1  0  0  0  0
 15  1  1  0  0  0  0
 16 15  2  0  0  0  0
 17 11  1  0  0  0  0
 18 12  1  0  0  0  0
 20  6  1  0  0  0  0
 21 20  1  0  0  0  0
 21 26  1  0  0  0  0
 22 21  2  0  0  0  0
 23 24  2  0  0  0  0
 23 22  1  0  0  0  0
 24 25  1  0  0  0  0
 25 20  2  0  0  0  0
 27 22  1  0  0  0  0
 28 34  1  0  0  0  0
 28 24  1  0  0  0  0
 29 28  2  0  0  0  0
 30 32  2  0  0  0  0
 30 29  1  0  0  0  0
 31 30  1  0  0  0  0
 32 33  1  0  0  0  0
 33 34  2  0  0  0  0
M  END
>  <minimizedAffinity>
-5.38351154

>  <minimizedRMSD>
0.384148806

$$$$
