
 OpenBabel03212520533D

 23 25  0  0  0  0  0  0  0  0999 V2000
   43.1120   80.9930   60.4620 C   0  0  0  0  0  0  0  0  0  0  0  0
   42.8530   80.7870   59.0940 C   0  0  0  0  0  0  0  0  0  0  0  0
   42.1840   81.7430   58.4070 C   0  0  0  0  0  0  0  0  0  0  0  0
   41.7720   82.9070   59.0840 C   0  0  0  0  0  0  0  0  0  0  0  0
   42.3800   82.6190   60.8110 S   0  0  0  0  0  0  0  0  0  0  0  0
   43.1720   79.8880   58.5830 H   0  0  0  0  0  0  0  0  0  0  0  0
   41.8990   81.7710   57.3930 H   0  0  0  0  0  0  0  0  0  0  0  0
   45.6940   79.6070   62.6390 C   0  0  0  0  0  0  0  0  0  0  0  0
   45.2060   78.2900   62.9120 C   0  0  0  0  0  0  0  0  0  0  0  0
   43.9890   77.9020   62.3390 C   0  0  0  0  0  0  0  0  0  0  0  0
   43.3480   78.8000   61.5590 N   0  0  0  0  0  0  0  0  0  0  0  0
   43.8280   80.0340   61.3170 C   0  0  0  0  0  0  0  0  0  0  0  0
   44.9780   80.4260   61.8480 N   0  0  0  0  0  0  0  0  0  0  0  0
   46.6250   79.9740   63.0480 H   0  0  0  0  0  0  0  0  0  0  0  0
   45.8130   77.6570   63.5560 H   0  0  0  0  0  0  0  0  0  0  0  0
   43.6270   76.9240   62.5410 H   0  0  0  0  0  0  0  0  0  0  0  0
   41.0730   84.1030   58.7440 C   0  0  0  0  0  0  0  0  0  0  0  0
   39.8940   84.3910   59.3910 C   0  0  0  0  0  0  0  0  0  0  0  0
   39.3090   85.5910   58.9660 C   0  0  0  0  0  0  0  0  0  0  0  0
   38.3710   85.9350   59.4000 H   0  0  0  0  0  0  0  0  0  0  0  0
   39.8380   86.3910   58.0210 N   0  0  0  0  0  0  0  0  0  0  0  0
   41.0100   86.0220   57.4370 C   0  0  0  0  0  0  0  0  0  0  0  0
   41.6340   84.8650   57.8040 N   0  0  0  0  0  0  0  0  0  0  0  0
  1  5  1  0  0  0  0
  1 12  1  0  0  0  0
  2  1  2  0  0  0  0
  3  4  2  0  0  0  0
  3  2  1  0  0  0  0
  4  5  1  0  0  0  0
  6  2  1  0  0  0  0
  7  3  1  0  0  0  0
  8  9  1  0  0  0  0
  8 14  1  0  0  0  0
  9 15  1  0  0  0  0
 10 16  1  0  0  0  0
 10  9  2  0  0  0  0
 11 10  1  0  0  0  0
 12 11  2  0  0  0  0
 12 13  1  0  0  0  0
 13  8  2  0  0  0  0
 17  4  1  0  0  0  0
 17 18  1  0  0  0  0
 19 18  2  0  0  0  0
 19 20  1  0  0  0  0
 21 19  1  0  0  0  0
 22 23  1  0  0  0  0
 22 21  2  0  0  0  0
 23 17  2  0  0  0  0
M  END
>  <minimizedAffinity>
-3.3675642

>  <minimizedRMSD>
5.0819068

$$$$
