
 OpenBabel03212520463D

 18 19  0  0  0  0  0  0  0  0999 V2000
   43.6170   86.3560   59.7270 C   0  0  0  0  0  0  0  0  0  0  0  0
   42.9160   86.4800   58.5170 C   0  0  0  0  0  0  0  0  0  0  0  0
   41.7560   85.7300   58.3210 C   0  0  0  0  0  0  0  0  0  0  0  0
   41.3800   84.9110   59.3450 N   0  0  0  0  0  0  0  0  0  0  0  0
   42.0670   84.8130   60.4880 C   0  0  0  0  0  0  0  0  0  0  0  0
   43.1750   85.5230   60.6880 N   0  0  0  0  0  0  0  0  0  0  0  0
   44.7690   87.1790   59.7730 N   0  0  0  0  0  0  0  0  0  0  0  0
   43.1980   87.1160   57.7080 H   0  0  0  0  0  0  0  0  0  0  0  0
   41.2000   85.8100   57.3970 H   0  0  0  0  0  0  0  0  0  0  0  0
   45.4980   86.9200   59.1010 H   0  0  0  0  0  0  0  0  0  0  0  0
   44.9820   88.0000   60.3820 H   0  0  0  0  0  0  0  0  0  0  0  0
   41.5800   83.9070   61.5240 C   0  0  0  0  0  0  0  0  0  0  0  0
   41.0760   84.3710   62.7220 C   0  0  0  0  0  3  0  0  0  0  0  0
   40.6120   83.4940   63.7090 C   0  0  0  0  0  0  0  0  0  0  0  0
   40.2280   83.9250   64.6280 H   0  0  0  0  0  0  0  0  0  0  0  0
   40.6560   82.1650   63.4900 N   0  0  0  0  0  0  0  0  0  0  0  0
   41.1490   81.7230   62.3180 C   0  0  0  0  0  3  0  0  0  0  0  0
   41.6040   82.5730   61.3520 N   0  0  0  0  0  0  0  0  0  0  0  0
  1  7  1  0  0  0  0
  1  6  1  0  0  0  0
  2  1  2  0  0  0  0
  3  2  1  0  0  0  0
  3  4  2  0  0  0  0
  4  5  1  0  0  0  0
  5  6  2  0  0  0  0
  5 12  1  0  0  0  0
  7 11  1  0  0  0  0
  8  2  1  0  0  0  0
  9  3  1  0  0  0  0
 10  7  1  0  0  0  0
 12 13  1  0  0  0  0
 13 14  2  0  0  0  0
 14 15  1  0  0  0  0
 16 14  1  0  0  0  0
 17 16  2  0  0  0  0
 18 12  2  0  0  0  0
 18 17  1  0  0  0  0
M  END
>  <minimizedAffinity>
-4.12895346

>  <minimizedRMSD>
4.78274107

$$$$
