
 OpenBabel03212521073D

 34 37  0  0  0  0  0  0  0  0999 V2000
   41.8090   84.2360   61.5500 C   0  0  0  0  0  0  0  0  0  0  0  0
   41.4750   83.9290   62.8670 C   0  0  0  0  0  0  0  0  0  0  0  0
   40.1980   83.5070   63.2030 C   0  0  0  0  0  0  0  0  0  0  0  0
   39.2320   83.3910   62.2010 C   0  0  0  0  0  0  0  0  0  0  0  0
   39.5750   83.7010   60.8930 C   0  0  0  0  0  0  0  0  0  0  0  0
   40.8390   84.1160   60.5690 C   0  0  0  0  0  0  0  0  0  0  0  0
   42.2000   84.0080   63.6750 H   0  0  0  0  0  0  0  0  0  0  0  0
   39.9390   83.2670   64.2350 H   0  0  0  0  0  0  0  0  0  0  0  0
   38.2340   83.0720   62.4040 H   0  0  0  0  0  0  0  0  0  0  0  0
   38.8290   83.6140   60.0990 H   0  0  0  0  0  0  0  0  0  0  0  0
   45.3290   84.1460   60.5680 C   0  0  0  0  0  0  0  0  0  0  0  0
   45.7150   85.4830   60.6860 C   0  0  0  0  0  0  0  0  0  0  0  0
   44.7570   86.4270   61.1070 C   0  0  0  0  0  0  0  0  0  0  0  0
   43.5020   85.9850   61.3770 N   0  0  0  0  0  0  0  0  0  0  0  0
   43.1580   84.6720   61.2520 C   0  0  0  0  0  0  0  0  0  0  0  0
   44.0700   83.7930   60.8550 N   0  0  0  0  0  0  0  0  0  0  0  0
   46.0770   83.4310   60.2440 H   0  0  0  0  0  0  0  0  0  0  0  0
   46.7160   85.8510   60.4730 H   0  0  0  0  0  0  0  0  0  0  0  0
   45.0090   87.4770   61.2130 H   0  0  0  0  0  0  0  0  0  0  0  0
   41.1490   84.4290   59.1800 C   0  0  0  0  0  0  0  0  0  0  0  0
   40.7670   85.7270   58.8490 C   0  0  0  0  0  0  0  0  0  0  0  0
   40.9820   86.2130   57.5590 C   0  0  0  0  0  0  0  0  0  0  0  0
   41.5590   85.3910   56.6790 N   0  0  0  0  0  0  0  0  0  0  0  0
   41.9300   84.1260   57.0040 C   0  0  0  0  0  0  0  0  0  0  0  0
   41.7230   83.6640   58.2430 N   0  0  0  0  0  0  0  0  0  0  0  0
   40.2950   86.4430   59.5150 H   0  0  0  0  0  0  0  0  0  0  0  0
   40.6940   87.2170   57.2750 H   0  0  0  0  0  0  0  0  0  0  0  0
   42.5650   83.2030   56.0620 C   0  0  0  0  0  0  0  0  0  0  0  0
   42.5610   83.5970   54.7340 C   0  0  0  0  0  3  0  0  0  0  0  0
   43.1400   82.7820   53.7760 C   0  0  0  0  0  0  0  0  0  0  0  0
   43.1750   83.0210   52.7210 H   0  0  0  0  0  0  0  0  0  0  0  0
   43.6950   81.6170   54.1810 N   0  0  0  0  0  0  0  0  0  0  0  0
   43.6870   81.2530   55.4890 C   0  0  0  0  0  3  0  0  0  0  0  0
   43.1240   82.0440   56.4210 N   0  0  0  0  0  0  0  0  0  0  0  0
  1  2  1  0  0  0  0
  2  3  2  0  0  0  0
  2  7  1  0  0  0  0
  3  8  1  0  0  0  0
  4  9  1  0  0  0  0
  4  3  1  0  0  0  0
  5  4  2  0  0  0  0
  6  5  1  0  0  0  0
  6  1  2  0  0  0  0
 10  5  1  0  0  0  0
 11 12  2  0  0  0  0
 11 16  1  0  0  0  0
 12 13  1  0  0  0  0
 13 19  1  0  0  0  0
 13 14  2  0  0  0  0
 15 14  1  0  0  0  0
 15  1  1  0  0  0  0
 16 15  2  0  0  0  0
 17 11  1  0  0  0  0
 18 12  1  0  0  0  0
 20  6  1  0  0  0  0
 21 20  1  0  0  0  0
 21 26  1  0  0  0  0
 22 21  2  0  0  0  0
 23 24  2  0  0  0  0
 23 22  1  0  0  0  0
 24 25  1  0  0  0  0
 25 20  2  0  0  0  0
 27 22  1  0  0  0  0
 28 34  1  0  0  0  0
 28 24  1  0  0  0  0
 29 28  2  0  0  0  0
 30 32  2  0  0  0  0
 30 29  1  0  0  0  0
 31 30  1  0  0  0  0
 32 33  1  0  0  0  0
 33 34  2  0  0  0  0
M  END
>  <minimizedAffinity>
-5.38395548

>  <minimizedRMSD>
0.353778899

$$$$
