
 OpenBabel03212520403D

 25 27  0  0  1  0  0  0  0  0999 V2000
   42.4860   85.5780   59.8270 C   0  0  1  0  0  0  0  0  0  0  0  0
   43.7430   86.4390   59.9090 C   0  0  0  0  0  0  0  0  0  0  0  0
   43.3050   85.7640   58.6110 C   0  0  1  0  0  0  0  0  0  0  0  0
   41.5770   86.1690   60.0420 H   0  0  0  0  0  0  0  0  0  0  0  0
   43.6540   87.5300   59.9130 H   0  0  0  0  0  0  0  0  0  0  0  0
   44.6500   86.0500   60.3700 H   0  0  0  0  0  0  0  0  0  0  0  0
   42.8300   86.4270   57.8430 H   0  0  0  0  0  0  0  0  0  0  0  0
   42.6400   84.3650   60.5650 O   0  0  0  0  0  0  0  0  0  0  0  0
   40.0700   83.5730   62.9930 C   0  0  0  0  0  0  0  0  0  0  0  0
   40.7420   83.8480   64.1990 C   0  0  0  0  0  0  0  0  0  0  0  0
   42.0800   84.3040   64.1390 C   0  0  0  0  0  0  0  0  0  0  0  0
   42.5770   84.4280   62.9010 N   0  0  0  0  0  0  0  0  0  0  0  0
   41.9520   84.1720   61.7440 C   0  0  0  0  0  0  0  0  0  0  0  0
   40.6940   83.7430   61.7840 N   0  0  0  0  0  0  0  0  0  0  0  0
   39.0450   83.2230   63.0170 H   0  0  0  0  0  0  0  0  0  0  0  0
   40.2840   83.7260   65.1490 H   0  0  0  0  0  0  0  0  0  0  0  0
   42.6650   84.5370   65.0190 H   0  0  0  0  0  0  0  0  0  0  0  0
   44.0210   84.6760   58.1540 O   0  0  0  0  0  0  0  0  0  0  0  0
   43.5520   83.8550   57.1490 C   0  0  0  0  0  0  0  0  0  0  0  0
   43.4980   82.4850   57.0000 C   0  0  0  0  0  3  0  0  0  0  0  0
   42.9540   81.9600   55.8490 C   0  0  0  0  0  0  0  0  0  0  0  0
   42.9500   80.8850   55.8110 H   0  0  0  0  0  0  0  0  0  0  0  0
   42.4760   82.7190   54.8680 N   0  0  0  0  0  0  0  0  0  0  0  0
   42.5300   84.0620   55.0180 C   0  0  0  0  0  3  0  0  0  0  0  0
   43.0580   84.6300   56.1390 N   0  0  0  0  0  0  0  0  0  0  0  0
  1  2  1  0  0  0  0
  1  4  1  1  0  0  0
  1  8  1  0  0  0  0
  2  5  1  0  0  0  0
  2  6  1  0  0  0  0
  3  7  1  6  0  0  0
  3  1  1  0  0  0  0
  3  2  1  0  0  0  0
  8 13  1  0  0  0  0
  9 15  1  0  0  0  0
  9 10  1  0  0  0  0
 10 16  1  0  0  0  0
 11 10  2  0  0  0  0
 11 17  1  0  0  0  0
 12 11  1  0  0  0  0
 13 14  1  0  0  0  0
 13 12  2  0  0  0  0
 14  9  2  0  0  0  0
 18  3  1  0  0  0  0
 19 18  1  0  0  0  0
 20 19  1  0  0  0  0
 21 20  2  0  0  0  0
 22 21  1  0  0  0  0
 23 24  2  0  0  0  0
 23 21  1  0  0  0  0
 24 25  1  0  0  0  0
 25 19  2  0  0  0  0
M  END
>  <minimizedAffinity>
-3.76010323

>  <minimizedRMSD>
1.20570278

$$$$
