
 OpenBabel03212520403D

 25 27  0  0  1  0  0  0  0  0999 V2000
   42.5050   85.6610   59.8590 C   0  0  1  0  0  0  0  0  0  0  0  0
   43.8450   86.3890   59.7990 C   0  0  0  0  0  0  0  0  0  0  0  0
   43.1810   85.8060   58.5530 C   0  0  1  0  0  0  0  0  0  0  0  0
   41.6970   86.3310   60.2020 H   0  0  0  0  0  0  0  0  0  0  0  0
   43.8690   87.4830   59.8370 H   0  0  0  0  0  0  0  0  0  0  0  0
   44.7580   85.8970   60.1310 H   0  0  0  0  0  0  0  0  0  0  0  0
   42.6840   86.5390   57.8660 H   0  0  0  0  0  0  0  0  0  0  0  0
   42.6250   84.4140   60.5460 O   0  0  0  0  0  0  0  0  0  0  0  0
   40.0720   83.5640   62.9720 C   0  0  0  0  0  0  0  0  0  0  0  0
   40.7460   83.8250   64.1790 C   0  0  0  0  0  0  0  0  0  0  0  0
   42.0810   84.2920   64.1210 C   0  0  0  0  0  0  0  0  0  0  0  0
   42.5710   84.4390   62.8820 N   0  0  0  0  0  0  0  0  0  0  0  0
   41.9430   84.1970   61.7250 C   0  0  0  0  0  0  0  0  0  0  0  0
   40.6890   83.7580   61.7630 N   0  0  0  0  0  0  0  0  0  0  0  0
   39.0490   83.2070   62.9950 H   0  0  0  0  0  0  0  0  0  0  0  0
   40.2940   83.6840   65.1290 H   0  0  0  0  0  0  0  0  0  0  0  0
   42.6680   84.5150   65.0020 H   0  0  0  0  0  0  0  0  0  0  0  0
   43.7180   84.6690   57.9860 O   0  0  0  0  0  0  0  0  0  0  0  0
   43.0440   83.9320   57.0320 C   0  0  0  0  0  0  0  0  0  0  0  0
   42.2490   82.8090   57.0990 C   0  0  0  0  0  3  0  0  0  0  0  0
   41.7090   82.3030   55.9350 C   0  0  0  0  0  0  0  0  0  0  0  0
   41.1020   81.4270   56.0730 H   0  0  0  0  0  0  0  0  0  0  0  0
   41.9220   82.8540   54.7460 N   0  0  0  0  0  0  0  0  0  0  0  0
   42.7030   83.9570   54.6830 C   0  0  0  0  0  3  0  0  0  0  0  0
   43.2600   84.4950   55.8050 N   0  0  0  0  0  0  0  0  0  0  0  0
  1  4  1  1  0  0  0
  1  8  1  0  0  0  0
  2  5  1  0  0  0  0
  2  1  1  0  0  0  0
  2  6  1  0  0  0  0
  3  7  1  6  0  0  0
  3  2  1  0  0  0  0
  3  1  1  0  0  0  0
  8 13  1  0  0  0  0
  9 15  1  0  0  0  0
  9 10  1  0  0  0  0
 10 16  1  0  0  0  0
 11 10  2  0  0  0  0
 11 17  1  0  0  0  0
 12 11  1  0  0  0  0
 13 14  1  0  0  0  0
 13 12  2  0  0  0  0
 14  9  2  0  0  0  0
 18  3  1  0  0  0  0
 19 20  1  0  0  0  0
 19 18  1  0  0  0  0
 21 22  1  0  0  0  0
 21 20  2  0  0  0  0
 23 21  1  0  0  0  0
 24 23  2  0  0  0  0
 24 25  1  0  0  0  0
 25 19  2  0  0  0  0
M  END
>  <minimizedAffinity>
-3.94585681

>  <minimizedRMSD>
1.18847561

$$$$
