
 OpenBabel03212520183D

 33 35  0  0  0  0  0  0  0  0999 V2000
   43.1090   83.9620   58.6540 Cl  0  0  0  0  0  0  0  0  0  0  0  0
   41.8910   82.7780   58.2600 C   0  0  0  0  0  0  0  0  0  0  0  0
   41.0030   82.2470   59.1930 C   0  0  0  0  0  0  0  0  0  0  0  0
   40.1060   81.3250   58.7160 C   0  0  0  0  0  0  0  0  0  0  0  0
   39.9830   80.8660   57.4280 C   0  0  0  0  0  0  0  0  0  0  0  0
   40.8700   81.4070   56.5320 C   0  0  0  0  0  0  0  0  0  0  0  0
   40.8420   80.9220   54.8380 Cl  0  0  0  0  0  0  0  0  0  0  0  0
   41.8130   82.3540   56.9500 C   0  0  0  0  0  0  0  0  0  0  0  0
   39.4230   80.9290   59.4790 H   0  0  0  0  0  0  0  0  0  0  0  0
   39.2610   80.1480   57.1340 H   0  0  0  0  0  0  0  0  0  0  0  0
   41.9340   82.1580   61.5560 C   0  0  0  0  0  0  0  0  0  0  0  0
   41.0930   82.6920   60.5430 C   0  0  0  0  0  0  0  0  0  0  0  0
   40.2790   83.7440   60.8870 C   0  0  0  0  0  0  0  0  0  0  0  0
   40.3490   84.1860   62.1750 N   0  0  0  0  0  0  0  0  0  0  0  0
   41.1430   83.6750   63.1150 C   0  0  0  0  0  0  0  0  0  0  0  0
   41.9540   82.6370   62.7990 N   0  0  0  0  0  0  0  0  0  0  0  0
   42.5550   81.3310   61.2360 H   0  0  0  0  0  0  0  0  0  0  0  0
   39.5950   84.2350   60.2060 H   0  0  0  0  0  0  0  0  0  0  0  0
   41.0480   84.3190   64.4450 C   0  0  0  0  0  0  0  0  0  0  0  0
   40.7160   85.6500   64.3680 F   0  0  0  0  0  0  0  0  0  0  0  0
   40.0990   83.6680   65.2250 F   0  0  0  0  0  0  0  0  0  0  0  0
   42.2910   84.2950   65.0940 F   0  0  0  0  0  0  0  0  0  0  0  0
   42.6790   82.8580   55.9900 O   0  0  0  0  0  0  0  0  0  0  0  0
   42.4640   84.0680   55.2980 C   0  0  0  0  0  0  0  0  0  0  0  0
   42.6610   84.8780   56.0360 H   0  0  0  0  0  0  0  0  0  0  0  0
   41.3690   84.1140   55.0930 H   0  0  0  0  0  0  0  0  0  0  0  0
   43.2440   84.1740   54.0630 C   0  0  0  0  0  0  0  0  0  0  0  0
   43.1590   83.1460   53.1540 C   0  0  0  0  0  3  0  0  0  0  0  0
   43.8590   83.1640   51.9660 C   0  0  0  0  0  0  0  0  0  0  0  0
   43.8240   82.3690   51.2120 H   0  0  0  0  0  0  0  0  0  0  0  0
   44.6520   84.2440   51.7110 N   0  0  0  0  0  0  0  0  0  0  0  0
   44.7080   85.2380   52.6360 C   0  0  0  0  0  3  0  0  0  0  0  0
   44.0240   85.2400   53.8170 N   0  0  0  0  0  0  0  0  0  0  0  0
  2  1  1  0  0  0  0
  2  3  1  0  0  0  0
  3 12  1  0  0  0  0
  4  3  2  0  0  0  0
  4  9  1  0  0  0  0
  5  4  1  0  0  0  0
  6  8  1  0  0  0  0
  6  5  2  0  0  0  0
  7  6  1  0  0  0  0
  8  2  2  0  0  0  0
 10  5  1  0  0  0  0
 11 16  1  0  0  0  0
 12 13  1  0  0  0  0
 12 11  2  0  0  0  0
 13 14  2  0  0  0  0
 14 15  1  0  0  0  0
 15 19  1  0  0  0  0
 16 15  2  0  0  0  0
 17 11  1  0  0  0  0
 18 13  1  0  0  0  0
 19 22  1  0  0  0  0
 19 21  1  0  0  0  0
 20 19  1  0  0  0  0
 23  8  1  0  0  0  0
 24 23  1  0  0  0  0
 24 25  1  0  0  0  0
 26 24  1  0  0  0  0
 27 24  1  0  0  0  0
 28 27  2  0  0  0  0
 29 28  1  0  0  0  0
 30 29  1  0  0  0  0
 31 29  2  0  0  0  0
 31 32  1  0  0  0  0
 32 33  2  0  0  0  0
 33 27  1  0  0  0  0
M  END
>  <minimizedAffinity>
-5.10767078

>  <minimizedRMSD>
0.460179865

$$$$
