
 OpenBabel03212520463D

 18 19  0  0  0  0  0  0  0  0999 V2000
   40.4600   81.9860   60.8510 C   0  0  0  0  0  0  0  0  0  0  0  0
   40.0410   81.8170   59.5210 C   0  0  0  0  0  0  0  0  0  0  0  0
   40.6470   82.5690   58.5140 C   0  0  0  0  0  0  0  0  0  0  0  0
   41.6260   83.4340   58.9050 N   0  0  0  0  0  0  0  0  0  0  0  0
   42.0070   83.5740   60.1800 C   0  0  0  0  0  0  0  0  0  0  0  0
   41.4370   82.8630   61.1510 N   0  0  0  0  0  0  0  0  0  0  0  0
   39.7520   81.1560   61.7530 N   0  0  0  0  0  0  0  0  0  0  0  0
   39.2760   81.1450   59.2010 H   0  0  0  0  0  0  0  0  0  0  0  0
   40.3400   82.4550   57.4840 H   0  0  0  0  0  0  0  0  0  0  0  0
   38.7550   81.3790   61.8360 H   0  0  0  0  0  0  0  0  0  0  0  0
   40.0900   80.3590   62.3380 H   0  0  0  0  0  0  0  0  0  0  0  0
   43.0660   84.5280   60.4950 C   0  0  0  0  0  0  0  0  0  0  0  0
   43.0360   85.8300   60.0380 C   0  0  0  0  0  3  0  0  0  0  0  0
   44.0570   86.7360   60.3460 C   0  0  0  0  0  0  0  0  0  0  0  0
   43.9710   87.7450   59.9550 H   0  0  0  0  0  0  0  0  0  0  0  0
   45.0950   86.3350   61.1050 N   0  0  0  0  0  0  0  0  0  0  0  0
   45.1150   85.0620   61.5460 C   0  0  0  0  0  3  0  0  0  0  0  0
   44.1220   84.1740   61.2490 N   0  0  0  0  0  0  0  0  0  0  0  0
  1  6  1  0  0  0  0
  1  7  1  0  0  0  0
  2  1  2  0  0  0  0
  3  4  2  0  0  0  0
  3  2  1  0  0  0  0
  4  5  1  0  0  0  0
  5 12  1  0  0  0  0
  5  6  2  0  0  0  0
  7 10  1  0  0  0  0
  7 11  1  0  0  0  0
  8  2  1  0  0  0  0
  9  3  1  0  0  0  0
 12 18  1  0  0  0  0
 13 14  1  0  0  0  0
 13 12  2  0  0  0  0
 14 16  2  0  0  0  0
 15 14  1  0  0  0  0
 16 17  1  0  0  0  0
 18 17  2  0  0  0  0
M  END
>  <minimizedAffinity>
-3.79690695

>  <minimizedRMSD>
5.50121212

$$$$
