
 OpenBabel03212520463D

 18 19  0  0  0  0  0  0  0  0999 V2000
   41.6060   83.5780   58.2730 C   0  0  0  0  0  0  0  0  0  0  0  0
   42.2890   84.7090   57.7960 C   0  0  0  0  0  0  0  0  0  0  0  0
   42.7200   85.6770   58.7030 C   0  0  0  0  0  0  0  0  0  0  0  0
   42.4410   85.4480   60.0170 N   0  0  0  0  0  0  0  0  0  0  0  0
   41.7890   84.3610   60.4450 C   0  0  0  0  0  0  0  0  0  0  0  0
   41.3720   83.4290   59.5910 N   0  0  0  0  0  0  0  0  0  0  0  0
   41.2340   82.6900   57.2340 N   0  0  0  0  0  0  0  0  0  0  0  0
   42.5130   84.9000   56.7710 H   0  0  0  0  0  0  0  0  0  0  0  0
   43.2470   86.5550   58.3570 H   0  0  0  0  0  0  0  0  0  0  0  0
   40.5410   83.0720   56.5830 H   0  0  0  0  0  0  0  0  0  0  0  0
   41.5570   81.7170   57.0350 H   0  0  0  0  0  0  0  0  0  0  0  0
   41.5400   84.2090   61.8750 C   0  0  0  0  0  0  0  0  0  0  0  0
   42.5250   84.4260   62.8150 C   0  0  0  0  0  3  0  0  0  0  0  0
   42.2760   84.2780   64.1840 C   0  0  0  0  0  0  0  0  0  0  0  0
   43.0960   84.4640   64.8710 H   0  0  0  0  0  0  0  0  0  0  0  0
   41.0470   83.9140   64.6000 N   0  0  0  0  0  0  0  0  0  0  0  0
   40.0920   83.7040   63.6740 C   0  0  0  0  0  3  0  0  0  0  0  0
   40.3290   83.8480   62.3380 N   0  0  0  0  0  0  0  0  0  0  0  0
  1  6  1  0  0  0  0
  2  1  2  0  0  0  0
  2  3  1  0  0  0  0
  3  4  2  0  0  0  0
  4  5  1  0  0  0  0
  5 12  1  0  0  0  0
  6  5  2  0  0  0  0
  7  1  1  0  0  0  0
  8  2  1  0  0  0  0
  9  3  1  0  0  0  0
 10  7  1  0  0  0  0
 11  7  1  0  0  0  0
 12 18  2  0  0  0  0
 12 13  1  0  0  0  0
 13 14  2  0  0  0  0
 14 16  1  0  0  0  0
 14 15  1  0  0  0  0
 17 16  2  0  0  0  0
 18 17  1  0  0  0  0
M  END
>  <minimizedAffinity>
-3.93820333

>  <minimizedRMSD>
3.74052024

$$$$
