
 OpenBabel03212521033D

 26 28  0  0  0  0  0  0  0  0999 V2000
   42.3860   84.4970   62.4630 C   0  0  0  0  0  0  0  0  0  0  0  0
   42.3300   84.4890   63.8510 C   0  0  0  0  0  0  0  0  0  0  0  0
   41.1780   84.1330   64.5310 C   0  0  0  0  0  0  0  0  0  0  0  0
   40.0470   83.7740   63.8030 C   0  0  0  0  0  0  0  0  0  0  0  0
   40.1010   83.7800   62.4070 C   0  0  0  0  0  0  0  0  0  0  0  0
   41.2560   84.1370   61.7490 C   0  0  0  0  0  0  0  0  0  0  0  0
   43.2180   84.7710   64.4050 H   0  0  0  0  0  0  0  0  0  0  0  0
   41.2240   84.1550   65.6120 H   0  0  0  0  0  0  0  0  0  0  0  0
   39.1660   83.5020   64.3690 H   0  0  0  0  0  0  0  0  0  0  0  0
   39.1940   83.4930   61.8850 H   0  0  0  0  0  0  0  0  0  0  0  0
   45.6470   84.2570   60.8280 C   0  0  0  0  0  0  0  0  0  0  0  0
   45.9600   85.5860   60.5560 C   0  0  0  0  0  0  0  0  0  0  0  0
   45.0340   86.5840   60.9410 C   0  0  0  0  0  0  0  0  0  0  0  0
   43.8920   86.1890   61.5550 N   0  0  0  0  0  0  0  0  0  0  0  0
   43.6190   84.8780   61.8040 C   0  0  0  0  0  0  0  0  0  0  0  0
   44.4950   83.9450   61.4390 N   0  0  0  0  0  0  0  0  0  0  0  0
   46.4010   83.5550   60.5040 H   0  0  0  0  0  0  0  0  0  0  0  0
   46.8340   85.9950   60.0770 H   0  0  0  0  0  0  0  0  0  0  0  0
   45.1420   87.6460   60.7970 H   0  0  0  0  0  0  0  0  0  0  0  0
   41.2650   84.1310   60.2980 C   0  0  0  0  0  0  0  0  0  0  0  0
   41.3070   82.8290   59.7890 C   0  0  0  0  0  3  0  0  0  0  0  0
   41.3230   82.6010   58.4150 C   0  0  0  0  0  0  0  0  0  0  0  0
   41.3560   81.6070   58.0050 H   0  0  0  0  0  0  0  0  0  0  0  0
   41.2970   83.6770   57.6160 N   0  0  0  0  0  0  0  0  0  0  0  0
   41.2560   84.9450   58.1130 C   0  0  0  0  0  3  0  0  0  0  0  0
   41.2400   85.1680   59.4400 N   0  0  0  0  0  0  0  0  0  0  0  0
  1  2  1  0  0  0  0
  2  7  1  0  0  0  0
  2  3  2  0  0  0  0
  3  8  1  0  0  0  0
  4  9  1  0  0  0  0
  4  3  1  0  0  0  0
  5  4  2  0  0  0  0
  6  5  1  0  0  0  0
  6  1  2  0  0  0  0
 10  5  1  0  0  0  0
 11 16  1  0  0  0  0
 12 11  2  0  0  0  0
 12 13  1  0  0  0  0
 13 14  2  0  0  0  0
 14 15  1  0  0  0  0
 15  1  1  0  0  0  0
 16 15  2  0  0  0  0
 17 11  1  0  0  0  0
 18 12  1  0  0  0  0
 19 13  1  0  0  0  0
 20  6  1  0  0  0  0
 21 20  1  0  0  0  0
 22 21  2  0  0  0  0
 23 22  1  0  0  0  0
 24 25  2  0  0  0  0
 24 22  1  0  0  0  0
 25 26  1  0  0  0  0
 26 20  2  0  0  0  0
M  END
>  <minimizedAffinity>
-4.94922638

>  <minimizedRMSD>
2.27513337

$$$$
