
 OpenBabel03212520183D

 33 35  0  0  0  0  0  0  0  0999 V2000
   43.0970   83.7710   58.5700 Cl  0  0  0  0  0  0  0  0  0  0  0  0
   41.8350   82.6250   58.2080 C   0  0  0  0  0  0  0  0  0  0  0  0
   40.9370   82.1430   59.1570 C   0  0  0  0  0  0  0  0  0  0  0  0
   40.0030   81.2440   58.7050 C   0  0  0  0  0  0  0  0  0  0  0  0
   39.8530   80.7680   57.4270 C   0  0  0  0  0  0  0  0  0  0  0  0
   40.7500   81.2600   56.5130 C   0  0  0  0  0  0  0  0  0  0  0  0
   40.6910   80.7460   54.8290 Cl  0  0  0  0  0  0  0  0  0  0  0  0
   41.7300   82.1800   56.9070 C   0  0  0  0  0  0  0  0  0  0  0  0
   39.3130   80.8870   59.4800 H   0  0  0  0  0  0  0  0  0  0  0  0
   39.1030   80.0710   57.1520 H   0  0  0  0  0  0  0  0  0  0  0  0
   41.9240   82.0980   61.4990 C   0  0  0  0  0  0  0  0  0  0  0  0
   41.0530   82.6090   60.4980 C   0  0  0  0  0  0  0  0  0  0  0  0
   40.2370   83.6580   60.8460 C   0  0  0  0  0  0  0  0  0  0  0  0
   40.3340   84.1190   62.1260 N   0  0  0  0  0  0  0  0  0  0  0  0
   41.1550   83.6300   63.0530 C   0  0  0  0  0  0  0  0  0  0  0  0
   41.9690   82.5960   62.7340 N   0  0  0  0  0  0  0  0  0  0  0  0
   42.5460   81.2730   61.1760 H   0  0  0  0  0  0  0  0  0  0  0  0
   39.5330   84.1320   60.1740 H   0  0  0  0  0  0  0  0  0  0  0  0
   41.0840   84.2930   64.3760 C   0  0  0  0  0  0  0  0  0  0  0  0
   40.7760   85.6290   64.2850 F   0  0  0  0  0  0  0  0  0  0  0  0
   40.1320   83.6690   65.1740 F   0  0  0  0  0  0  0  0  0  0  0  0
   42.3340   84.2550   65.0130 F   0  0  0  0  0  0  0  0  0  0  0  0
   42.6050   82.6350   55.9310 O   0  0  0  0  0  0  0  0  0  0  0  0
   42.3900   83.8010   55.1670 C   0  0  0  0  0  0  0  0  0  0  0  0
   41.7930   84.4810   55.8140 H   0  0  0  0  0  0  0  0  0  0  0  0
   41.7050   83.5030   54.3390 H   0  0  0  0  0  0  0  0  0  0  0  0
   43.6280   84.3900   54.6510 C   0  0  0  0  0  0  0  0  0  0  0  0
   43.8060   84.4310   53.2890 C   0  0  0  0  0  3  0  0  0  0  0  0
   44.9410   84.9680   52.7180 C   0  0  0  0  0  0  0  0  0  0  0  0
   45.1280   85.0250   51.6390 H   0  0  0  0  0  0  0  0  0  0  0  0
   45.9000   85.4650   53.5530 N   0  0  0  0  0  0  0  0  0  0  0  0
   45.6830   85.4030   54.8930 C   0  0  0  0  0  3  0  0  0  0  0  0
   44.5680   84.8770   55.4770 N   0  0  0  0  0  0  0  0  0  0  0  0
  2  1  1  0  0  0  0
  2  3  1  0  0  0  0
  3 12  1  0  0  0  0
  4  3  2  0  0  0  0
  4  9  1  0  0  0  0
  5  4  1  0  0  0  0
  6  8  1  0  0  0  0
  6  5  2  0  0  0  0
  7  6  1  0  0  0  0
  8  2  2  0  0  0  0
 10  5  1  0  0  0  0
 11 16  1  0  0  0  0
 12 13  1  0  0  0  0
 12 11  2  0  0  0  0
 13 14  2  0  0  0  0
 14 15  1  0  0  0  0
 15 19  1  0  0  0  0
 16 15  2  0  0  0  0
 17 11  1  0  0  0  0
 18 13  1  0  0  0  0
 19 22  1  0  0  0  0
 19 21  1  0  0  0  0
 20 19  1  0  0  0  0
 23  8  1  0  0  0  0
 24 25  1  0  0  0  0
 24 23  1  0  0  0  0
 26 24  1  0  0  0  0
 27 24  1  0  0  0  0
 27 33  1  0  0  0  0
 28 27  2  0  0  0  0
 29 28  1  0  0  0  0
 29 31  2  0  0  0  0
 30 29  1  0  0  0  0
 31 32  1  0  0  0  0
 32 33  2  0  0  0  0
M  END
>  <minimizedAffinity>
-5.00434923

>  <minimizedRMSD>
0.543627441

$$$$
