
 OpenBabel03212521073D

 34 37  0  0  0  0  0  0  0  0999 V2000
   41.7980   84.2410   61.5600 C   0  0  0  0  0  0  0  0  0  0  0  0
   41.4480   83.9390   62.8740 C   0  0  0  0  0  0  0  0  0  0  0  0
   40.1640   83.5280   63.1970 C   0  0  0  0  0  0  0  0  0  0  0  0
   39.2080   83.4160   62.1850 C   0  0  0  0  0  0  0  0  0  0  0  0
   39.5670   83.7200   60.8800 C   0  0  0  0  0  0  0  0  0  0  0  0
   40.8380   84.1250   60.5690 C   0  0  0  0  0  0  0  0  0  0  0  0
   42.1650   84.0150   63.6900 H   0  0  0  0  0  0  0  0  0  0  0  0
   39.8920   83.2920   64.2270 H   0  0  0  0  0  0  0  0  0  0  0  0
   38.2060   83.1040   62.3780 H   0  0  0  0  0  0  0  0  0  0  0  0
   38.8300   83.6360   60.0780 H   0  0  0  0  0  0  0  0  0  0  0  0
   45.3400   84.1160   60.6640 C   0  0  0  0  0  0  0  0  0  0  0  0
   45.7220   85.4570   60.7360 C   0  0  0  0  0  0  0  0  0  0  0  0
   44.7540   86.4160   61.0950 C   0  0  0  0  0  0  0  0  0  0  0  0
   43.4940   85.9830   61.3540 N   0  0  0  0  0  0  0  0  0  0  0  0
   43.1530   84.6660   61.2750 C   0  0  0  0  0  0  0  0  0  0  0  0
   44.0750   83.7720   60.9370 N   0  0  0  0  0  0  0  0  0  0  0  0
   46.0960   83.3880   60.3870 H   0  0  0  0  0  0  0  0  0  0  0  0
   46.7280   85.8170   60.5300 H   0  0  0  0  0  0  0  0  0  0  0  0
   45.0030   87.4700   61.1620 H   0  0  0  0  0  0  0  0  0  0  0  0
   41.1650   84.4320   59.1830 C   0  0  0  0  0  0  0  0  0  0  0  0
   40.6950   85.6900   58.8110 C   0  0  0  0  0  0  0  0  0  0  0  0
   40.9110   86.1640   57.5170 C   0  0  0  0  0  0  0  0  0  0  0  0
   41.5760   85.3710   56.6730 N   0  0  0  0  0  0  0  0  0  0  0  0
   42.0330   84.1460   57.0370 C   0  0  0  0  0  0  0  0  0  0  0  0
   41.8240   83.6950   58.2790 N   0  0  0  0  0  0  0  0  0  0  0  0
   40.1510   86.3810   59.4470 H   0  0  0  0  0  0  0  0  0  0  0  0
   40.5560   87.1370   57.2020 H   0  0  0  0  0  0  0  0  0  0  0  0
   42.7640   83.2550   56.1350 C   0  0  0  0  0  0  0  0  0  0  0  0
   43.9490   83.7550   55.6220 C   0  0  0  0  0  3  0  0  0  0  0  0
   44.7040   82.9770   54.7590 C   0  0  0  0  0  0  0  0  0  0  0  0
   45.6390   83.2980   54.3180 H   0  0  0  0  0  0  0  0  0  0  0  0
   44.2480   81.7420   54.4490 N   0  0  0  0  0  0  0  0  0  0  0  0
   43.0830   81.2750   54.9660 C   0  0  0  0  0  3  0  0  0  0  0  0
   42.3490   82.0290   55.8040 N   0  0  0  0  0  0  0  0  0  0  0  0
  1  2  1  0  0  0  0
  2  3  2  0  0  0  0
  2  7  1  0  0  0  0
  3  8  1  0  0  0  0
  4  9  1  0  0  0  0
  4  3  1  0  0  0  0
  5  4  2  0  0  0  0
  6  5  1  0  0  0  0
  6  1  2  0  0  0  0
 10  5  1  0  0  0  0
 11 12  2  0  0  0  0
 11 16  1  0  0  0  0
 12 13  1  0  0  0  0
 13 19  1  0  0  0  0
 13 14  2  0  0  0  0
 15 14  1  0  0  0  0
 15  1  1  0  0  0  0
 16 15  2  0  0  0  0
 17 11  1  0  0  0  0
 18 12  1  0  0  0  0
 20  6  1  0  0  0  0
 21 20  1  0  0  0  0
 21 26  1  0  0  0  0
 22 21  2  0  0  0  0
 23 24  2  0  0  0  0
 23 22  1  0  0  0  0
 24 25  1  0  0  0  0
 25 20  2  0  0  0  0
 27 22  1  0  0  0  0
 28 24  1  0  0  0  0
 29 28  2  0  0  0  0
 30 29  1  0  0  0  0
 31 30  1  0  0  0  0
 32 30  2  0  0  0  0
 32 33  1  0  0  0  0
 33 34  2  0  0  0  0
 34 28  1  0  0  0  0
M  END
>  <minimizedAffinity>
-5.29995298

>  <minimizedRMSD>
0.180461317

$$$$
