
 OpenBabel03212520183D

 33 35  0  0  0  0  0  0  0  0999 V2000
   43.1090   83.9160   58.6740 Cl  0  0  0  0  0  0  0  0  0  0  0  0
   41.8810   82.7420   58.2850 C   0  0  0  0  0  0  0  0  0  0  0  0
   40.9870   82.2240   59.2190 C   0  0  0  0  0  0  0  0  0  0  0  0
   40.0820   81.3080   58.7470 C   0  0  0  0  0  0  0  0  0  0  0  0
   39.9570   80.8420   57.4620 C   0  0  0  0  0  0  0  0  0  0  0  0
   40.8500   81.3690   56.5640 C   0  0  0  0  0  0  0  0  0  0  0  0
   40.8210   80.8740   54.8730 Cl  0  0  0  0  0  0  0  0  0  0  0  0
   41.8010   82.3100   56.9780 C   0  0  0  0  0  0  0  0  0  0  0  0
   39.3940   80.9230   59.5110 H   0  0  0  0  0  0  0  0  0  0  0  0
   39.2280   80.1290   57.1710 H   0  0  0  0  0  0  0  0  0  0  0  0
   41.9230   82.1510   61.5820 C   0  0  0  0  0  0  0  0  0  0  0  0
   41.0780   82.6780   60.5670 C   0  0  0  0  0  0  0  0  0  0  0  0
   40.2620   83.7290   60.9070 C   0  0  0  0  0  0  0  0  0  0  0  0
   40.3350   84.1780   62.1930 N   0  0  0  0  0  0  0  0  0  0  0  0
   41.1320   83.6740   63.1330 C   0  0  0  0  0  0  0  0  0  0  0  0
   41.9450   82.6370   62.8210 N   0  0  0  0  0  0  0  0  0  0  0  0
   42.5460   81.3240   61.2640 H   0  0  0  0  0  0  0  0  0  0  0  0
   39.5760   84.2150   60.2250 H   0  0  0  0  0  0  0  0  0  0  0  0
   41.0380   84.3260   64.4600 C   0  0  0  0  0  0  0  0  0  0  0  0
   40.7080   85.6570   64.3760 F   0  0  0  0  0  0  0  0  0  0  0  0
   40.0880   83.6800   65.2440 F   0  0  0  0  0  0  0  0  0  0  0  0
   42.2820   84.3030   65.1080 F   0  0  0  0  0  0  0  0  0  0  0  0
   42.6730   82.8000   56.0160 O   0  0  0  0  0  0  0  0  0  0  0  0
   42.4640   84.0010   55.3070 C   0  0  0  0  0  0  0  0  0  0  0  0
   42.8950   84.8070   55.9430 H   0  0  0  0  0  0  0  0  0  0  0  0
   41.3630   84.1740   55.3150 H   0  0  0  0  0  0  0  0  0  0  0  0
   42.9910   83.9640   53.9400 C   0  0  0  0  0  0  0  0  0  0  0  0
   44.1980   84.5700   53.6950 C   0  0  0  0  0  3  0  0  0  0  0  0
   44.7670   84.5820   52.4390 C   0  0  0  0  0  0  0  0  0  0  0  0
   45.7270   85.0520   52.1930 H   0  0  0  0  0  0  0  0  0  0  0  0
   44.0880   83.9670   51.4270 N   0  0  0  0  0  0  0  0  0  0  0  0
   42.8960   83.3800   51.7130 C   0  0  0  0  0  3  0  0  0  0  0  0
   42.3170   83.3560   52.9490 N   0  0  0  0  0  0  0  0  0  0  0  0
  2  1  1  0  0  0  0
  2  3  1  0  0  0  0
  3 12  1  0  0  0  0
  4  3  2  0  0  0  0
  4  9  1  0  0  0  0
  5  4  1  0  0  0  0
  6  8  1  0  0  0  0
  6  5  2  0  0  0  0
  7  6  1  0  0  0  0
  8  2  2  0  0  0  0
 10  5  1  0  0  0  0
 11 16  1  0  0  0  0
 12 13  1  0  0  0  0
 12 11  2  0  0  0  0
 13 14  2  0  0  0  0
 14 15  1  0  0  0  0
 15 19  1  0  0  0  0
 16 15  2  0  0  0  0
 17 11  1  0  0  0  0
 18 13  1  0  0  0  0
 19 22  1  0  0  0  0
 19 21  1  0  0  0  0
 20 19  1  0  0  0  0
 23  8  1  0  0  0  0
 24 26  1  0  0  0  0
 24 25  1  0  0  0  0
 24 23  1  0  0  0  0
 27 24  1  0  0  0  0
 28 27  1  0  0  0  0
 29 28  2  0  0  0  0
 30 29  1  0  0  0  0
 31 32  2  0  0  0  0
 31 29  1  0  0  0  0
 32 33  1  0  0  0  0
 33 27  2  0  0  0  0
M  END
>  <minimizedAffinity>
-4.97939634

>  <minimizedRMSD>
0.780801713

$$$$
