
 OpenBabel03212520403D

 25 27  0  0  1  0  0  0  0  0999 V2000
   42.4730   85.6300   59.8470 C   0  0  1  0  0  0  0  0  0  0  0  0
   43.8010   86.3820   59.8170 C   0  0  0  0  0  0  0  0  0  0  0  0
   43.1790   85.7820   58.5570 C   0  0  1  0  0  0  0  0  0  0  0  0
   41.6440   86.2880   60.1650 H   0  0  0  0  0  0  0  0  0  0  0  0
   43.8050   87.4760   59.8500 H   0  0  0  0  0  0  0  0  0  0  0  0
   44.7140   85.9080   60.1740 H   0  0  0  0  0  0  0  0  0  0  0  0
   42.6870   86.5020   57.8550 H   0  0  0  0  0  0  0  0  0  0  0  0
   42.5970   84.3890   60.5420 O   0  0  0  0  0  0  0  0  0  0  0  0
   40.0670   83.5610   62.9990 C   0  0  0  0  0  0  0  0  0  0  0  0
   40.7530   83.8320   64.1970 C   0  0  0  0  0  0  0  0  0  0  0  0
   42.0870   84.2980   64.1230 C   0  0  0  0  0  0  0  0  0  0  0  0
   42.5660   84.4350   62.8790 N   0  0  0  0  0  0  0  0  0  0  0  0
   41.9260   84.1820   61.7290 C   0  0  0  0  0  0  0  0  0  0  0  0
   40.6730   83.7440   61.7830 N   0  0  0  0  0  0  0  0  0  0  0  0
   39.0440   83.2040   63.0350 H   0  0  0  0  0  0  0  0  0  0  0  0
   40.3090   83.7000   65.1530 H   0  0  0  0  0  0  0  0  0  0  0  0
   42.6820   84.5290   64.9960 H   0  0  0  0  0  0  0  0  0  0  0  0
   43.7510   84.6520   58.0090 O   0  0  0  0  0  0  0  0  0  0  0  0
   43.1760   83.9740   56.9530 C   0  0  0  0  0  0  0  0  0  0  0  0
   42.3590   82.8670   56.8770 C   0  0  0  0  0  3  0  0  0  0  0  0
   41.9450   82.4260   55.6400 C   0  0  0  0  0  0  0  0  0  0  0  0
   41.3110   81.5570   55.6680 H   0  0  0  0  0  0  0  0  0  0  0  0
   42.2990   83.0230   54.5080 N   0  0  0  0  0  0  0  0  0  0  0  0
   43.1010   84.1110   54.5840 C   0  0  0  0  0  3  0  0  0  0  0  0
   43.5370   84.5850   55.7860 N   0  0  0  0  0  0  0  0  0  0  0  0
  1  4  1  1  0  0  0
  1  8  1  0  0  0  0
  2  1  1  0  0  0  0
  2  5  1  0  0  0  0
  2  6  1  0  0  0  0
  3  7  1  6  0  0  0
  3  2  1  0  0  0  0
  3  1  1  0  0  0  0
  8 13  1  0  0  0  0
  9 15  1  0  0  0  0
  9 10  1  0  0  0  0
 10 16  1  0  0  0  0
 11 10  2  0  0  0  0
 11 17  1  0  0  0  0
 12 11  1  0  0  0  0
 13 14  1  0  0  0  0
 13 12  2  0  0  0  0
 14  9  2  0  0  0  0
 18  3  1  0  0  0  0
 19 18  1  0  0  0  0
 20 19  1  0  0  0  0
 21 22  1  0  0  0  0
 21 20  2  0  0  0  0
 23 24  2  0  0  0  0
 23 21  1  0  0  0  0
 24 25  1  0  0  0  0
 25 19  2  0  0  0  0
M  END
>  <minimizedAffinity>
-3.8809886

>  <minimizedRMSD>
1.17012966

$$$$
