
 OpenBabel03212520463D

 18 19  0  0  0  0  0  0  0  0999 V2000
   40.0210   83.2570   61.2020 C   0  0  0  0  0  0  0  0  0  0  0  0
   39.9640   82.3800   60.1070 C   0  0  0  0  0  0  0  0  0  0  0  0
   40.8740   82.5360   59.0610 C   0  0  0  0  0  0  0  0  0  0  0  0
   41.7730   83.5530   59.1820 N   0  0  0  0  0  0  0  0  0  0  0  0
   41.8060   84.3730   60.2380 C   0  0  0  0  0  0  0  0  0  0  0  0
   40.9440   84.2370   61.2430 N   0  0  0  0  0  0  0  0  0  0  0  0
   39.0350   82.9710   62.1780 N   0  0  0  0  0  0  0  0  0  0  0  0
   39.2650   81.5800   59.9980 H   0  0  0  0  0  0  0  0  0  0  0  0
   40.8470   81.8720   58.2080 H   0  0  0  0  0  0  0  0  0  0  0  0
   38.0720   83.1230   61.8600 H   0  0  0  0  0  0  0  0  0  0  0  0
   39.1420   82.6320   63.1600 H   0  0  0  0  0  0  0  0  0  0  0  0
   42.8110   85.4330   60.2720 C   0  0  0  0  0  0  0  0  0  0  0  0
   43.0820   86.2180   59.1710 C   0  0  0  0  0  3  0  0  0  0  0  0
   44.0470   87.2310   59.2150 C   0  0  0  0  0  0  0  0  0  0  0  0
   44.2110   87.8110   58.3130 H   0  0  0  0  0  0  0  0  0  0  0  0
   44.7280   87.4490   60.3570 N   0  0  0  0  0  0  0  0  0  0  0  0
   44.4560   86.6770   61.4260 C   0  0  0  0  0  3  0  0  0  0  0  0
   43.5160   85.6880   61.3880 N   0  0  0  0  0  0  0  0  0  0  0  0
  1  6  1  0  0  0  0
  1  7  1  0  0  0  0
  2  1  2  0  0  0  0
  3  4  2  0  0  0  0
  3  2  1  0  0  0  0
  4  5  1  0  0  0  0
  5 12  1  0  0  0  0
  5  6  2  0  0  0  0
  7 11  1  0  0  0  0
  8  2  1  0  0  0  0
  9  3  1  0  0  0  0
 10  7  1  0  0  0  0
 12 18  1  0  0  0  0
 13 14  1  0  0  0  0
 13 12  2  0  0  0  0
 14 16  2  0  0  0  0
 15 14  1  0  0  0  0
 16 17  1  0  0  0  0
 18 17  2  0  0  0  0
M  END
>  <minimizedAffinity>
-4.02383804

>  <minimizedRMSD>
5.66657734

$$$$
