
 OpenBabel03212520183D

 33 35  0  0  0  0  0  0  0  0999 V2000
   43.1080   83.7100   58.6340 Cl  0  0  0  0  0  0  0  0  0  0  0  0
   41.8330   82.5820   58.2570 C   0  0  0  0  0  0  0  0  0  0  0  0
   40.9170   82.1130   59.1950 C   0  0  0  0  0  0  0  0  0  0  0  0
   39.9760   81.2290   58.7320 C   0  0  0  0  0  0  0  0  0  0  0  0
   39.8330   80.7550   57.4520 C   0  0  0  0  0  0  0  0  0  0  0  0
   40.7480   81.2340   56.5490 C   0  0  0  0  0  0  0  0  0  0  0  0
   40.7000   80.7210   54.8640 Cl  0  0  0  0  0  0  0  0  0  0  0  0
   41.7370   82.1390   56.9540 C   0  0  0  0  0  0  0  0  0  0  0  0
   39.2710   80.8820   59.4990 H   0  0  0  0  0  0  0  0  0  0  0  0
   39.0760   80.0690   57.1680 H   0  0  0  0  0  0  0  0  0  0  0  0
   41.8250   82.0110   61.5670 C   0  0  0  0  0  0  0  0  0  0  0  0
   41.0260   82.5780   60.5380 C   0  0  0  0  0  0  0  0  0  0  0  0
   40.2770   83.6840   60.8560 C   0  0  0  0  0  0  0  0  0  0  0  0
   40.3670   84.1450   62.1370 N   0  0  0  0  0  0  0  0  0  0  0  0
   41.1210   83.6030   63.0910 C   0  0  0  0  0  0  0  0  0  0  0  0
   41.8670   82.5110   62.8010 N   0  0  0  0  0  0  0  0  0  0  0  0
   42.3960   81.1410   61.2670 H   0  0  0  0  0  0  0  0  0  0  0  0
   39.6300   84.2050   60.1610 H   0  0  0  0  0  0  0  0  0  0  0  0
   41.0580   84.2770   64.4090 C   0  0  0  0  0  0  0  0  0  0  0  0
   40.7530   85.6130   64.3080 F   0  0  0  0  0  0  0  0  0  0  0  0
   40.1070   83.6630   65.2150 F   0  0  0  0  0  0  0  0  0  0  0  0
   42.3100   84.2400   65.0410 F   0  0  0  0  0  0  0  0  0  0  0  0
   42.6290   82.5820   55.9880 O   0  0  0  0  0  0  0  0  0  0  0  0
   42.4160   83.7220   55.1870 C   0  0  0  0  0  0  0  0  0  0  0  0
   41.8320   84.4300   55.8170 H   0  0  0  0  0  0  0  0  0  0  0  0
   41.7210   83.4030   54.3770 H   0  0  0  0  0  0  0  0  0  0  0  0
   43.6540   84.2830   54.6400 C   0  0  0  0  0  0  0  0  0  0  0  0
   44.6930   84.5260   55.5050 C   0  0  0  0  0  3  0  0  0  0  0  0
   45.8930   85.0510   55.0740 C   0  0  0  0  0  0  0  0  0  0  0  0
   46.7500   85.2620   55.7260 H   0  0  0  0  0  0  0  0  0  0  0  0
   46.0260   85.3310   53.7450 N   0  0  0  0  0  0  0  0  0  0  0  0
   44.9730   85.0760   52.9240 C   0  0  0  0  0  3  0  0  0  0  0  0
   43.7780   84.5550   53.3300 N   0  0  0  0  0  0  0  0  0  0  0  0
  2  1  1  0  0  0  0
  2  3  1  0  0  0  0
  3 12  1  0  0  0  0
  4  3  2  0  0  0  0
  4  9  1  0  0  0  0
  5  4  1  0  0  0  0
  6  8  1  0  0  0  0
  6  5  2  0  0  0  0
  7  6  1  0  0  0  0
  8  2  2  0  0  0  0
 10  5  1  0  0  0  0
 11 16  1  0  0  0  0
 12 13  1  0  0  0  0
 12 11  2  0  0  0  0
 13 14  2  0  0  0  0
 14 15  1  0  0  0  0
 15 19  1  0  0  0  0
 16 15  2  0  0  0  0
 17 11  1  0  0  0  0
 18 13  1  0  0  0  0
 19 22  1  0  0  0  0
 19 21  1  0  0  0  0
 20 19  1  0  0  0  0
 23  8  1  0  0  0  0
 24 25  1  0  0  0  0
 24 23  1  0  0  0  0
 26 24  1  0  0  0  0
 27 24  1  0  0  0  0
 27 28  1  0  0  0  0
 29 28  2  0  0  0  0
 29 30  1  0  0  0  0
 31 29  1  0  0  0  0
 32 33  1  0  0  0  0
 32 31  2  0  0  0  0
 33 27  2  0  0  0  0
M  END
>  <minimizedAffinity>
-4.89049149

>  <minimizedRMSD>
0.480243593

$$$$
