
 OpenBabel03212520443D

 16 17  0  0  0  0  0  0  0  0999 V2000
   40.1560   82.0010   61.1560 C   0  0  0  0  0  0  0  0  0  0  0  0
   40.3250   82.6860   59.9460 C   0  0  0  0  0  0  0  0  0  0  0  0
   39.6970   83.9430   59.7940 C   0  0  0  0  0  0  0  0  0  0  0  0
   38.9570   84.4110   60.8470 N   0  0  0  0  0  0  0  0  0  0  0  0
   38.8220   83.7160   61.9910 C   0  0  0  0  0  0  0  0  0  0  0  0
   39.4200   82.5130   62.1480 N   0  0  0  0  0  0  0  0  0  0  0  0
   40.9220   82.2910   59.1160 H   0  0  0  0  0  0  0  0  0  0  0  0
   39.7830   84.5280   58.8890 H   0  0  0  0  0  0  0  0  0  0  0  0
   38.2440   84.0700   62.8340 H   0  0  0  0  0  0  0  0  0  0  0  0
   40.8090   80.7030   61.3030 C   0  0  0  0  0  0  0  0  0  0  0  0
   42.1560   80.6560   61.6040 C   0  0  0  0  0  3  0  0  0  0  0  0
   42.8650   79.4680   61.7630 C   0  0  0  0  0  0  0  0  0  0  0  0
   43.9170   79.4680   61.9970 H   0  0  0  0  0  0  0  0  0  0  0  0
   42.1190   78.3500   61.5970 N   0  0  0  0  0  0  0  0  0  0  0  0
   40.8050   78.3750   61.3040 C   0  0  0  0  0  3  0  0  0  0  0  0
   40.1490   79.5610   61.1570 N   0  0  0  0  0  0  0  0  0  0  0  0
  1 10  1  0  0  0  0
  1  6  1  0  0  0  0
  2  1  2  0  0  0  0
  3  2  1  0  0  0  0
  3  4  2  0  0  0  0
  4  5  1  0  0  0  0
  5  6  2  0  0  0  0
  5  9  1  0  0  0  0
  7  2  1  0  0  0  0
  8  3  1  0  0  0  0
 10 11  1  0  0  0  0
 11 12  2  0  0  0  0
 12 13  1  0  0  0  0
 14 12  1  0  0  0  0
 15 14  2  0  0  0  0
 16 10  2  0  0  0  0
 16 15  1  0  0  0  0
M  END
>  <minimizedAffinity>
-4.27712822

>  <minimizedRMSD>
0.586822093

$$$$
