
 OpenBabel03212521033D

 26 28  0  0  0  0  0  0  0  0999 V2000
   42.3580   84.4400   62.3340 C   0  0  0  0  0  0  0  0  0  0  0  0
   42.3050   84.8940   63.6460 C   0  0  0  0  0  0  0  0  0  0  0  0
   41.3480   84.4370   64.5370 C   0  0  0  0  0  0  0  0  0  0  0  0
   40.4160   83.4970   64.1050 C   0  0  0  0  0  0  0  0  0  0  0  0
   40.4670   83.0380   62.7860 C   0  0  0  0  0  0  0  0  0  0  0  0
   41.4260   83.5050   61.9160 C   0  0  0  0  0  0  0  0  0  0  0  0
   43.0360   85.6250   63.9690 H   0  0  0  0  0  0  0  0  0  0  0  0
   41.3810   84.8450   65.5390 H   0  0  0  0  0  0  0  0  0  0  0  0
   39.6850   83.1640   64.8290 H   0  0  0  0  0  0  0  0  0  0  0  0
   39.7200   82.3070   62.4980 H   0  0  0  0  0  0  0  0  0  0  0  0
   45.6050   84.9550   60.7370 C   0  0  0  0  0  0  0  0  0  0  0  0
   45.3290   85.9170   59.7690 C   0  0  0  0  0  0  0  0  0  0  0  0
   44.0030   86.4000   59.6630 C   0  0  0  0  0  0  0  0  0  0  0  0
   43.0740   85.8950   60.5110 N   0  0  0  0  0  0  0  0  0  0  0  0
   43.3810   84.9530   61.4460 C   0  0  0  0  0  0  0  0  0  0  0  0
   44.6290   84.5050   61.5400 N   0  0  0  0  0  0  0  0  0  0  0  0
   46.6370   84.6370   60.7560 H   0  0  0  0  0  0  0  0  0  0  0  0
   45.9950   86.3750   59.0560 H   0  0  0  0  0  0  0  0  0  0  0  0
   43.6460   87.1390   58.9670 H   0  0  0  0  0  0  0  0  0  0  0  0
   41.4400   83.0010   60.5550 C   0  0  0  0  0  0  0  0  0  0  0  0
   42.2320   81.8530   60.4390 C   0  0  0  0  0  3  0  0  0  0  0  0
   42.3790   81.2100   59.2120 C   0  0  0  0  0  0  0  0  0  0  0  0
   42.9820   80.3270   59.1030 H   0  0  0  0  0  0  0  0  0  0  0  0
   41.7340   81.7400   58.1640 N   0  0  0  0  0  0  0  0  0  0  0  0
   40.9640   82.8590   58.2770 C   0  0  0  0  0  3  0  0  0  0  0  0
   40.8210   83.4820   59.4610 N   0  0  0  0  0  0  0  0  0  0  0  0
  1  2  1  0  0  0  0
  2  7  1  0  0  0  0
  2  3  2  0  0  0  0
  3  8  1  0  0  0  0
  4  3  1  0  0  0  0
  4  9  1  0  0  0  0
  5  4  2  0  0  0  0
  6  1  2  0  0  0  0
  6  5  1  0  0  0  0
 10  5  1  0  0  0  0
 11 17  1  0  0  0  0
 11 16  1  0  0  0  0
 12 11  2  0  0  0  0
 13 12  1  0  0  0  0
 13 14  2  0  0  0  0
 14 15  1  0  0  0  0
 15 16  2  0  0  0  0
 15  1  1  0  0  0  0
 18 12  1  0  0  0  0
 19 13  1  0  0  0  0
 20  6  1  0  0  0  0
 21 20  1  0  0  0  0
 22 21  2  0  0  0  0
 23 22  1  0  0  0  0
 24 25  2  0  0  0  0
 24 22  1  0  0  0  0
 25 26  1  0  0  0  0
 26 20  2  0  0  0  0
M  END
>  <minimizedAffinity>
-4.62087345

>  <minimizedRMSD>
2.33530259

$$$$
