
 OpenBabel03212520183D

 33 35  0  0  0  0  0  0  0  0999 V2000
   42.9800   83.9290   58.6600 Cl  0  0  0  0  0  0  0  0  0  0  0  0
   41.7840   82.7120   58.3070 C   0  0  0  0  0  0  0  0  0  0  0  0
   40.9270   82.1730   59.2630 C   0  0  0  0  0  0  0  0  0  0  0  0
   40.0430   81.2240   58.8170 C   0  0  0  0  0  0  0  0  0  0  0  0
   39.9050   80.7450   57.5380 C   0  0  0  0  0  0  0  0  0  0  0  0
   40.7620   81.2930   56.6170 C   0  0  0  0  0  0  0  0  0  0  0  0
   40.7130   80.7840   54.9310 Cl  0  0  0  0  0  0  0  0  0  0  0  0
   41.6900   82.2670   57.0040 C   0  0  0  0  0  0  0  0  0  0  0  0
   39.3840   80.8230   59.5980 H   0  0  0  0  0  0  0  0  0  0  0  0
   39.1950   80.0060   57.2680 H   0  0  0  0  0  0  0  0  0  0  0  0
   41.9050   82.1410   61.6090 C   0  0  0  0  0  0  0  0  0  0  0  0
   41.0310   82.6400   60.6050 C   0  0  0  0  0  0  0  0  0  0  0  0
   40.1980   83.6760   60.9510 C   0  0  0  0  0  0  0  0  0  0  0  0
   40.2830   84.1370   62.2320 N   0  0  0  0  0  0  0  0  0  0  0  0
   41.1080   83.6590   63.1620 C   0  0  0  0  0  0  0  0  0  0  0  0
   41.9380   82.6370   62.8440 N   0  0  0  0  0  0  0  0  0  0  0  0
   42.5400   81.3240   61.2870 H   0  0  0  0  0  0  0  0  0  0  0  0
   39.4900   84.1410   60.2770 H   0  0  0  0  0  0  0  0  0  0  0  0
   41.0230   84.3200   64.4850 C   0  0  0  0  0  0  0  0  0  0  0  0
   40.6880   85.6490   64.3950 F   0  0  0  0  0  0  0  0  0  0  0  0
   40.0820   83.6760   65.2820 F   0  0  0  0  0  0  0  0  0  0  0  0
   42.2720   84.3050   65.1230 F   0  0  0  0  0  0  0  0  0  0  0  0
   42.5250   82.7780   56.0210 O   0  0  0  0  0  0  0  0  0  0  0  0
   42.3340   84.0310   55.4020 C   0  0  0  0  0  0  0  0  0  0  0  0
   42.7020   84.7880   56.1310 H   0  0  0  0  0  0  0  0  0  0  0  0
   41.2310   84.1820   55.3500 H   0  0  0  0  0  0  0  0  0  0  0  0
   42.9500   84.1200   54.0760 C   0  0  0  0  0  0  0  0  0  0  0  0
   42.4960   83.2730   53.0940 C   0  0  0  0  0  3  0  0  0  0  0  0
   43.0200   83.2900   51.8180 C   0  0  0  0  0  0  0  0  0  0  0  0
   42.6920   82.6350   51.0010 H   0  0  0  0  0  0  0  0  0  0  0  0
   44.0160   84.1830   51.5500 N   0  0  0  0  0  0  0  0  0  0  0  0
   44.4350   85.0030   52.5500 C   0  0  0  0  0  3  0  0  0  0  0  0
   43.9300   85.0020   53.8180 N   0  0  0  0  0  0  0  0  0  0  0  0
  2  1  1  0  0  0  0
  2  3  1  0  0  0  0
  3 12  1  0  0  0  0
  4  3  2  0  0  0  0
  4  9  1  0  0  0  0
  5  4  1  0  0  0  0
  6  8  1  0  0  0  0
  6  5  2  0  0  0  0
  7  6  1  0  0  0  0
  8  2  2  0  0  0  0
 10  5  1  0  0  0  0
 11 16  1  0  0  0  0
 12 13  1  0  0  0  0
 12 11  2  0  0  0  0
 13 14  2  0  0  0  0
 14 15  1  0  0  0  0
 15 19  1  0  0  0  0
 16 15  2  0  0  0  0
 17 11  1  0  0  0  0
 18 13  1  0  0  0  0
 19 22  1  0  0  0  0
 19 21  1  0  0  0  0
 20 19  1  0  0  0  0
 23  8  1  0  0  0  0
 24 23  1  0  0  0  0
 24 25  1  0  0  0  0
 26 24  1  0  0  0  0
 27 24  1  0  0  0  0
 28 27  2  0  0  0  0
 29 28  1  0  0  0  0
 30 29  1  0  0  0  0
 31 29  2  0  0  0  0
 31 32  1  0  0  0  0
 32 33  2  0  0  0  0
 33 27  1  0  0  0  0
M  END
>  <minimizedAffinity>
-5.20930052

>  <minimizedRMSD>
0.675371766

$$$$
