
 OpenBabel03212521063D

 34 37  0  0  0  0  0  0  0  0999 V2000
   41.8070   84.2410   61.5630 C   0  0  0  0  0  0  0  0  0  0  0  0
   41.4610   83.9260   62.8750 C   0  0  0  0  0  0  0  0  0  0  0  0
   40.1790   83.5090   63.1970 C   0  0  0  0  0  0  0  0  0  0  0  0
   39.2200   83.4070   62.1860 C   0  0  0  0  0  0  0  0  0  0  0  0
   39.5760   83.7250   60.8840 C   0  0  0  0  0  0  0  0  0  0  0  0
   40.8450   84.1350   60.5730 C   0  0  0  0  0  0  0  0  0  0  0  0
   42.1800   83.9930   63.6900 H   0  0  0  0  0  0  0  0  0  0  0  0
   39.9090   83.2630   64.2250 H   0  0  0  0  0  0  0  0  0  0  0  0
   38.2180   83.0920   62.3780 H   0  0  0  0  0  0  0  0  0  0  0  0
   38.8360   83.6490   60.0830 H   0  0  0  0  0  0  0  0  0  0  0  0
   45.3530   84.1270   60.6800 C   0  0  0  0  0  0  0  0  0  0  0  0
   45.7280   85.4700   60.7420 C   0  0  0  0  0  0  0  0  0  0  0  0
   44.7540   86.4270   61.0910 C   0  0  0  0  0  0  0  0  0  0  0  0
   43.4950   85.9910   61.3490 N   0  0  0  0  0  0  0  0  0  0  0  0
   43.1620   84.6710   61.2800 C   0  0  0  0  0  0  0  0  0  0  0  0
   44.0880   83.7790   60.9510 N   0  0  0  0  0  0  0  0  0  0  0  0
   46.1140   83.4010   60.4110 H   0  0  0  0  0  0  0  0  0  0  0  0
   46.7330   85.8340   60.5370 H   0  0  0  0  0  0  0  0  0  0  0  0
   44.9980   87.4830   61.1510 H   0  0  0  0  0  0  0  0  0  0  0  0
   41.1690   84.4560   59.1900 C   0  0  0  0  0  0  0  0  0  0  0  0
   40.6530   85.6970   58.8170 C   0  0  0  0  0  0  0  0  0  0  0  0
   40.8590   86.1810   57.5260 C   0  0  0  0  0  0  0  0  0  0  0  0
   41.5580   85.4150   56.6840 N   0  0  0  0  0  0  0  0  0  0  0  0
   42.0590   84.2070   57.0490 C   0  0  0  0  0  0  0  0  0  0  0  0
   41.8600   83.7460   58.2890 N   0  0  0  0  0  0  0  0  0  0  0  0
   40.0800   86.3650   59.4510 H   0  0  0  0  0  0  0  0  0  0  0  0
   40.4700   87.1410   57.2100 H   0  0  0  0  0  0  0  0  0  0  0  0
   42.8290   83.3460   56.1500 C   0  0  0  0  0  0  0  0  0  0  0  0
   43.2570   82.1430   56.6860 C   0  0  0  0  0  3  0  0  0  0  0  0
   43.9910   81.2670   55.9040 C   0  0  0  0  0  0  0  0  0  0  0  0
   44.3600   80.3100   56.2500 H   0  0  0  0  0  0  0  0  0  0  0  0
   44.2650   81.6270   54.6290 N   0  0  0  0  0  0  0  0  0  0  0  0
   43.8350   82.8130   54.1270 C   0  0  0  0  0  3  0  0  0  0  0  0
   43.1210   83.6640   54.8860 N   0  0  0  0  0  0  0  0  0  0  0  0
  1  2  1  0  0  0  0
  2  3  2  0  0  0  0
  2  7  1  0  0  0  0
  3  8  1  0  0  0  0
  4  9  1  0  0  0  0
  4  3  1  0  0  0  0
  5  4  2  0  0  0  0
  6  5  1  0  0  0  0
  6  1  2  0  0  0  0
 10  5  1  0  0  0  0
 11 12  2  0  0  0  0
 11 16  1  0  0  0  0
 12 13  1  0  0  0  0
 13 19  1  0  0  0  0
 13 14  2  0  0  0  0
 15 14  1  0  0  0  0
 15  1  1  0  0  0  0
 16 15  2  0  0  0  0
 17 11  1  0  0  0  0
 18 12  1  0  0  0  0
 20  6  1  0  0  0  0
 21 20  1  0  0  0  0
 21 26  1  0  0  0  0
 22 21  2  0  0  0  0
 23 24  2  0  0  0  0
 23 22  1  0  0  0  0
 24 25  1  0  0  0  0
 25 20  2  0  0  0  0
 27 22  1  0  0  0  0
 28 29  1  0  0  0  0
 28 24  1  0  0  0  0
 30 31  1  0  0  0  0
 30 29  2  0  0  0  0
 32 30  1  0  0  0  0
 33 32  2  0  0  0  0
 33 34  1  0  0  0  0
 34 28  2  0  0  0  0
M  END
>  <minimizedAffinity>
-5.28926325

>  <minimizedRMSD>
0.20227842

$$$$
