
 OpenBabel03212520483D

 26 28  0  0  0  0  0  0  0  0999 V2000
   41.5910   83.9540   61.4680 C   0  0  0  0  0  0  0  0  0  0  0  0
   41.3450   84.3680   62.7630 C   0  0  0  0  0  0  0  0  0  0  0  0
   40.8700   83.4670   63.7310 C   0  0  0  0  0  0  0  0  0  0  0  0
   40.6490   82.1830   63.4050 N   0  0  0  0  0  0  0  0  0  0  0  0
   40.8930   81.7970   62.1420 C   0  0  0  0  0  0  0  0  0  0  0  0
   41.3520   82.6670   61.2070 N   0  0  0  0  0  0  0  0  0  0  0  0
   41.5270   85.4070   63.0160 H   0  0  0  0  0  0  0  0  0  0  0  0
   40.6860   83.8290   64.7420 H   0  0  0  0  0  0  0  0  0  0  0  0
   43.6550   86.4210   59.7350 C   0  0  0  0  0  0  0  0  0  0  0  0
   42.9700   86.5660   58.5280 C   0  0  0  0  0  0  0  0  0  0  0  0
   41.8000   85.8220   58.3000 C   0  0  0  0  0  0  0  0  0  0  0  0
   41.4040   84.9830   59.3100 N   0  0  0  0  0  0  0  0  0  0  0  0
   42.0840   84.8710   60.4490 C   0  0  0  0  0  0  0  0  0  0  0  0
   43.1870   85.5750   60.6590 N   0  0  0  0  0  0  0  0  0  0  0  0
   44.8060   87.2370   59.8030 N   0  0  0  0  0  0  0  0  0  0  0  0
   43.2600   87.2180   57.7210 H   0  0  0  0  0  0  0  0  0  0  0  0
   41.2410   85.9090   57.3720 H   0  0  0  0  0  0  0  0  0  0  0  0
   45.5090   87.2820   59.0130 H   0  0  0  0  0  0  0  0  0  0  0  0
   44.8380   87.7590   60.7210 H   0  0  0  0  0  0  0  0  0  0  0  0
   40.6770   80.4190   61.7130 C   0  0  0  0  0  0  0  0  0  0  0  0
   40.5110   80.0880   60.3850 C   0  0  0  0  0  0  0  0  0  0  0  0
   40.3020   78.8010   59.9200 C   0  0  0  0  0  0  0  0  0  0  0  0
   40.1750   78.5770   58.8670 H   0  0  0  0  0  0  0  0  0  0  0  0
   40.2640   77.8400   60.8300 N   0  0  0  0  0  0  0  0  0  0  0  0
   40.4210   78.1110   62.1350 C   0  0  0  0  0  0  0  0  0  0  0  0
   40.6260   79.3800   62.5970 N   0  0  0  0  0  0  0  0  0  0  0  0
  1  2  1  0  0  0  0
  2  7  1  0  0  0  0
  2  3  2  0  0  0  0
  3  8  1  0  0  0  0
  4  3  1  0  0  0  0
  5  4  2  0  0  0  0
  6  1  2  0  0  0  0
  6  5  1  0  0  0  0
  9 15  1  0  0  0  0
  9 14  1  0  0  0  0
 10  9  2  0  0  0  0
 11 10  1  0  0  0  0
 11 12  2  0  0  0  0
 12 13  1  0  0  0  0
 13 14  2  0  0  0  0
 13  1  1  0  0  0  0
 15 19  1  0  0  0  0
 16 10  1  0  0  0  0
 17 11  1  0  0  0  0
 18 15  1  0  0  0  0
 20  5  1  0  0  0  0
 20 26  1  0  0  0  0
 21 20  2  0  0  0  0
 22 21  1  0  0  0  0
 22 24  2  0  0  0  0
 23 22  1  0  0  0  0
 24 25  1  0  0  0  0
 25 26  2  0  0  0  0
M  END
>  <minimizedAffinity>
-5.45807171

>  <minimizedRMSD>
0.586816132

$$$$
