
 OpenBabel03212520403D

 25 27  0  0  1  0  0  0  0  0999 V2000
   42.3850   85.4360   59.7960 C   0  0  1  0  0  0  0  0  0  0  0  0
   43.4880   86.4680   59.5810 C   0  0  0  0  0  0  0  0  0  0  0  0
   43.0920   85.4660   58.4980 C   0  0  1  0  0  0  0  0  0  0  0  0
   41.4070   85.9200   59.9640 H   0  0  0  0  0  0  0  0  0  0  0  0
   43.2230   87.5070   59.3640 H   0  0  0  0  0  0  0  0  0  0  0  0
   44.4720   86.3280   60.0280 H   0  0  0  0  0  0  0  0  0  0  0  0
   42.4730   85.8650   57.6550 H   0  0  0  0  0  0  0  0  0  0  0  0
   42.7760   84.4520   60.7540 O   0  0  0  0  0  0  0  0  0  0  0  0
   40.0310   83.5370   62.9350 C   0  0  0  0  0  0  0  0  0  0  0  0
   40.5940   83.7880   64.2000 C   0  0  0  0  0  0  0  0  0  0  0  0
   41.9220   84.2710   64.2660 C   0  0  0  0  0  0  0  0  0  0  0  0
   42.5170   84.4430   63.0770 N   0  0  0  0  0  0  0  0  0  0  0  0
   41.9960   84.2100   61.8650 C   0  0  0  0  0  0  0  0  0  0  0  0
   40.7500   83.7560   61.7880 N   0  0  0  0  0  0  0  0  0  0  0  0
   39.0150   83.1680   62.8620 H   0  0  0  0  0  0  0  0  0  0  0  0
   40.0610   83.6280   65.1040 H   0  0  0  0  0  0  0  0  0  0  0  0
   42.4270   84.4880   65.1980 H   0  0  0  0  0  0  0  0  0  0  0  0
   43.9480   84.4210   58.2160 O   0  0  0  0  0  0  0  0  0  0  0  0
   43.7240   83.5470   57.1710 C   0  0  0  0  0  0  0  0  0  0  0  0
   44.1720   83.5040   55.8680 C   0  0  0  0  0  3  0  0  0  0  0  0
   43.7550   82.4750   55.0540 C   0  0  0  0  0  0  0  0  0  0  0  0
   44.1480   82.5130   54.0530 H   0  0  0  0  0  0  0  0  0  0  0  0
   42.9360   81.5150   55.4690 N   0  0  0  0  0  0  0  0  0  0  0  0
   42.4980   81.5590   56.7480 C   0  0  0  0  0  3  0  0  0  0  0  0
   42.8820   82.5570   57.5940 N   0  0  0  0  0  0  0  0  0  0  0  0
  1  4  1  1  0  0  0
  1  8  1  0  0  0  0
  2  1  1  0  0  0  0
  2  6  1  0  0  0  0
  3  7  1  6  0  0  0
  3  2  1  0  0  0  0
  3  1  1  0  0  0  0
  5  2  1  0  0  0  0
  8 13  1  0  0  0  0
  9 10  1  0  0  0  0
 10 11  2  0  0  0  0
 10 16  1  0  0  0  0
 11 17  1  0  0  0  0
 12 11  1  0  0  0  0
 13 12  2  0  0  0  0
 14 13  1  0  0  0  0
 14  9  2  0  0  0  0
 15  9  1  0  0  0  0
 18  3  1  0  0  0  0
 19 25  1  0  0  0  0
 19 18  1  0  0  0  0
 20 19  2  0  0  0  0
 21 23  2  0  0  0  0
 21 20  1  0  0  0  0
 22 21  1  0  0  0  0
 23 24  1  0  0  0  0
 24 25  2  0  0  0  0
M  END
>  <minimizedAffinity>
-3.46494293

>  <minimizedRMSD>
0.614975631

$$$$
