
 OpenBabel03212521073D

 34 37  0  0  0  0  0  0  0  0999 V2000
   41.8050   84.2340   61.5670 C   0  0  0  0  0  0  0  0  0  0  0  0
   41.4660   83.9580   62.8890 C   0  0  0  0  0  0  0  0  0  0  0  0
   40.1880   83.5420   63.2300 C   0  0  0  0  0  0  0  0  0  0  0  0
   39.2260   83.4020   62.2270 C   0  0  0  0  0  0  0  0  0  0  0  0
   39.5740   83.6820   60.9130 C   0  0  0  0  0  0  0  0  0  0  0  0
   40.8400   84.0910   60.5850 C   0  0  0  0  0  0  0  0  0  0  0  0
   42.1880   84.0550   63.6980 H   0  0  0  0  0  0  0  0  0  0  0  0
   39.9250   83.3260   64.2660 H   0  0  0  0  0  0  0  0  0  0  0  0
   38.2280   83.0860   62.4330 H   0  0  0  0  0  0  0  0  0  0  0  0
   38.8320   83.5760   60.1190 H   0  0  0  0  0  0  0  0  0  0  0  0
   45.3180   84.1320   60.5590 C   0  0  0  0  0  0  0  0  0  0  0  0
   45.7130   85.4650   60.6890 C   0  0  0  0  0  0  0  0  0  0  0  0
   44.7650   86.4100   61.1270 C   0  0  0  0  0  0  0  0  0  0  0  0
   43.5090   85.9730   61.4010 N   0  0  0  0  0  0  0  0  0  0  0  0
   43.1550   84.6640   61.2640 C   0  0  0  0  0  0  0  0  0  0  0  0
   44.0580   83.7830   60.8510 N   0  0  0  0  0  0  0  0  0  0  0  0
   46.0590   83.4150   60.2220 H   0  0  0  0  0  0  0  0  0  0  0  0
   46.7150   85.8280   60.4730 H   0  0  0  0  0  0  0  0  0  0  0  0
   45.0240   87.4570   61.2420 H   0  0  0  0  0  0  0  0  0  0  0  0
   41.1550   84.3710   59.1910 C   0  0  0  0  0  0  0  0  0  0  0  0
   40.8600   85.6910   58.8540 C   0  0  0  0  0  0  0  0  0  0  0  0
   41.0940   86.1510   57.5580 C   0  0  0  0  0  0  0  0  0  0  0  0
   41.6030   85.2850   56.6780 N   0  0  0  0  0  0  0  0  0  0  0  0
   41.8880   84.0000   57.0080 C   0  0  0  0  0  0  0  0  0  0  0  0
   41.6640   83.5610   58.2530 N   0  0  0  0  0  0  0  0  0  0  0  0
   40.4480   86.4420   59.5190 H   0  0  0  0  0  0  0  0  0  0  0  0
   40.8740   87.1710   57.2690 H   0  0  0  0  0  0  0  0  0  0  0  0
   42.4460   83.0270   56.0670 C   0  0  0  0  0  0  0  0  0  0  0  0
   43.8010   83.1470   55.8070 C   0  0  0  0  0  3  0  0  0  0  0  0
   44.4100   82.2680   54.9280 C   0  0  0  0  0  0  0  0  0  0  0  0
   45.4620   82.2970   54.6740 H   0  0  0  0  0  0  0  0  0  0  0  0
   43.6470   81.3130   54.3480 N   0  0  0  0  0  0  0  0  0  0  0  0
   42.3200   81.2160   54.6200 C   0  0  0  0  0  3  0  0  0  0  0  0
   41.7270   82.0700   55.4750 N   0  0  0  0  0  0  0  0  0  0  0  0
  1  2  1  0  0  0  0
  2  3  2  0  0  0  0
  2  7  1  0  0  0  0
  3  8  1  0  0  0  0
  4  9  1  0  0  0  0
  4  3  1  0  0  0  0
  5  4  2  0  0  0  0
  6  5  1  0  0  0  0
  6  1  2  0  0  0  0
 10  5  1  0  0  0  0
 11 12  2  0  0  0  0
 11 16  1  0  0  0  0
 12 13  1  0  0  0  0
 13 19  1  0  0  0  0
 13 14  2  0  0  0  0
 15 14  1  0  0  0  0
 15  1  1  0  0  0  0
 16 15  2  0  0  0  0
 17 11  1  0  0  0  0
 18 12  1  0  0  0  0
 20  6  1  0  0  0  0
 21 20  1  0  0  0  0
 21 26  1  0  0  0  0
 22 21  2  0  0  0  0
 23 24  2  0  0  0  0
 23 22  1  0  0  0  0
 24 25  1  0  0  0  0
 25 20  2  0  0  0  0
 27 22  1  0  0  0  0
 28 24  1  0  0  0  0
 29 28  1  0  0  0  0
 30 29  2  0  0  0  0
 31 30  1  0  0  0  0
 32 33  2  0  0  0  0
 32 30  1  0  0  0  0
 33 34  1  0  0  0  0
 34 28  2  0  0  0  0
M  END
>  <minimizedAffinity>
-5.40793228

>  <minimizedRMSD>
0.403127462

$$$$
