
 OpenBabel03212520183D

 33 35  0  0  0  0  0  0  0  0999 V2000
   43.2330   83.7650   58.6170 Cl  0  0  0  0  0  0  0  0  0  0  0  0
   41.9340   82.6770   58.2060 C   0  0  0  0  0  0  0  0  0  0  0  0
   40.9910   82.2220   59.1250 C   0  0  0  0  0  0  0  0  0  0  0  0
   40.0330   81.3700   58.6360 C   0  0  0  0  0  0  0  0  0  0  0  0
   39.8980   80.9140   57.3480 C   0  0  0  0  0  0  0  0  0  0  0  0
   40.8400   81.3790   56.4660 C   0  0  0  0  0  0  0  0  0  0  0  0
   40.8060   80.8870   54.7740 Cl  0  0  0  0  0  0  0  0  0  0  0  0
   41.8460   82.2520   56.8970 C   0  0  0  0  0  0  0  0  0  0  0  0
   39.3080   81.0330   59.3870 H   0  0  0  0  0  0  0  0  0  0  0  0
   39.1270   80.2530   57.0440 H   0  0  0  0  0  0  0  0  0  0  0  0
   41.9240   82.1220   61.4860 C   0  0  0  0  0  0  0  0  0  0  0  0
   41.0900   82.6680   60.4740 C   0  0  0  0  0  0  0  0  0  0  0  0
   40.2940   83.7330   60.8180 C   0  0  0  0  0  0  0  0  0  0  0  0
   40.3740   84.1750   62.1060 N   0  0  0  0  0  0  0  0  0  0  0  0
   41.1610   83.6530   63.0440 C   0  0  0  0  0  0  0  0  0  0  0  0
   41.9550   82.6020   62.7280 N   0  0  0  0  0  0  0  0  0  0  0  0
   42.5320   81.2840   61.1660 H   0  0  0  0  0  0  0  0  0  0  0  0
   39.6170   84.2350   60.1380 H   0  0  0  0  0  0  0  0  0  0  0  0
   41.0790   84.3000   64.3740 C   0  0  0  0  0  0  0  0  0  0  0  0
   40.7650   85.6350   64.2970 F   0  0  0  0  0  0  0  0  0  0  0  0
   40.1250   83.6620   65.1590 F   0  0  0  0  0  0  0  0  0  0  0  0
   42.3250   84.2600   65.0180 F   0  0  0  0  0  0  0  0  0  0  0  0
   42.7660   82.6820   55.9510 O   0  0  0  0  0  0  0  0  0  0  0  0
   42.6200   83.8620   55.1940 C   0  0  0  0  0  0  0  0  0  0  0  0
   42.0410   84.5640   55.8370 H   0  0  0  0  0  0  0  0  0  0  0  0
   41.9390   83.6040   54.3510 H   0  0  0  0  0  0  0  0  0  0  0  0
   43.8940   84.3990   54.7080 C   0  0  0  0  0  0  0  0  0  0  0  0
   45.0260   84.1470   55.4450 C   0  0  0  0  0  3  0  0  0  0  0  0
   46.2650   84.6130   55.0600 C   0  0  0  0  0  0  0  0  0  0  0  0
   47.1950   84.4380   55.6140 H   0  0  0  0  0  0  0  0  0  0  0  0
   46.3420   85.3450   53.9110 N   0  0  0  0  0  0  0  0  0  0  0  0
   45.1980   85.5700   53.2130 C   0  0  0  0  0  3  0  0  0  0  0  0
   43.9620   85.1180   53.5750 N   0  0  0  0  0  0  0  0  0  0  0  0
  2  1  1  0  0  0  0
  2  3  1  0  0  0  0
  3 12  1  0  0  0  0
  4  3  2  0  0  0  0
  4  9  1  0  0  0  0
  5  4  1  0  0  0  0
  6  8  1  0  0  0  0
  6  5  2  0  0  0  0
  7  6  1  0  0  0  0
  8  2  2  0  0  0  0
 10  5  1  0  0  0  0
 11 16  1  0  0  0  0
 12 13  1  0  0  0  0
 12 11  2  0  0  0  0
 13 14  2  0  0  0  0
 14 15  1  0  0  0  0
 15 19  1  0  0  0  0
 16 15  2  0  0  0  0
 17 11  1  0  0  0  0
 18 13  1  0  0  0  0
 19 22  1  0  0  0  0
 19 21  1  0  0  0  0
 20 19  1  0  0  0  0
 23  8  1  0  0  0  0
 24 25  1  0  0  0  0
 24 23  1  0  0  0  0
 26 24  1  0  0  0  0
 27 24  1  0  0  0  0
 27 28  1  0  0  0  0
 29 28  2  0  0  0  0
 29 30  1  0  0  0  0
 31 29  1  0  0  0  0
 32 33  1  0  0  0  0
 32 31  2  0  0  0  0
 33 27  2  0  0  0  0
M  END
>  <minimizedAffinity>
-5.00481319

>  <minimizedRMSD>
0.571434438

$$$$
