
 OpenBabel03212521073D

 34 37  0  0  0  0  0  0  0  0999 V2000
   41.8020   84.2370   61.5570 C   0  0  0  0  0  0  0  0  0  0  0  0
   41.4610   83.9560   62.8780 C   0  0  0  0  0  0  0  0  0  0  0  0
   40.1810   83.5420   63.2150 C   0  0  0  0  0  0  0  0  0  0  0  0
   39.2210   83.4070   62.2100 C   0  0  0  0  0  0  0  0  0  0  0  0
   39.5710   83.6910   60.8980 C   0  0  0  0  0  0  0  0  0  0  0  0
   40.8370   84.0990   60.5730 C   0  0  0  0  0  0  0  0  0  0  0  0
   42.1820   84.0490   63.6880 H   0  0  0  0  0  0  0  0  0  0  0  0
   39.9170   83.3220   64.2500 H   0  0  0  0  0  0  0  0  0  0  0  0
   38.2210   83.0920   62.4140 H   0  0  0  0  0  0  0  0  0  0  0  0
   38.8290   83.5890   60.1020 H   0  0  0  0  0  0  0  0  0  0  0  0
   45.3220   84.1280   60.5760 C   0  0  0  0  0  0  0  0  0  0  0  0
   45.7130   85.4640   60.6900 C   0  0  0  0  0  0  0  0  0  0  0  0
   44.7590   86.4130   61.1070 C   0  0  0  0  0  0  0  0  0  0  0  0
   43.5030   85.9780   61.3780 N   0  0  0  0  0  0  0  0  0  0  0  0
   43.1530   84.6660   61.2580 C   0  0  0  0  0  0  0  0  0  0  0  0
   44.0610   83.7810   60.8640 N   0  0  0  0  0  0  0  0  0  0  0  0
   46.0670   83.4080   60.2550 H   0  0  0  0  0  0  0  0  0  0  0  0
   46.7160   85.8260   60.4750 H   0  0  0  0  0  0  0  0  0  0  0  0
   45.0160   87.4620   61.2080 H   0  0  0  0  0  0  0  0  0  0  0  0
   41.1550   84.3840   59.1800 C   0  0  0  0  0  0  0  0  0  0  0  0
   40.8030   85.6860   58.8300 C   0  0  0  0  0  0  0  0  0  0  0  0
   41.0300   86.1480   57.5340 C   0  0  0  0  0  0  0  0  0  0  0  0
   41.5880   85.3000   56.6660 N   0  0  0  0  0  0  0  0  0  0  0  0
   41.9290   84.0320   57.0090 C   0  0  0  0  0  0  0  0  0  0  0  0
   41.7110   83.5920   58.2540 N   0  0  0  0  0  0  0  0  0  0  0  0
   40.3490   86.4220   59.4850 H   0  0  0  0  0  0  0  0  0  0  0  0
   40.7660   87.1550   57.2350 H   0  0  0  0  0  0  0  0  0  0  0  0
   42.5420   83.0800   56.0810 C   0  0  0  0  0  0  0  0  0  0  0  0
   43.2550   82.0440   56.6610 C   0  0  0  0  0  3  0  0  0  0  0  0
   43.8660   81.0980   55.8560 C   0  0  0  0  0  0  0  0  0  0  0  0
   44.4390   80.2610   56.2350 H   0  0  0  0  0  0  0  0  0  0  0  0
   43.7430   81.2260   54.5150 N   0  0  0  0  0  0  0  0  0  0  0  0
   43.0400   82.2510   53.9700 C   0  0  0  0  0  3  0  0  0  0  0  0
   42.4440   83.1700   54.7520 N   0  0  0  0  0  0  0  0  0  0  0  0
  1  2  1  0  0  0  0
  2  3  2  0  0  0  0
  2  7  1  0  0  0  0
  3  8  1  0  0  0  0
  4  9  1  0  0  0  0
  4  3  1  0  0  0  0
  5  4  2  0  0  0  0
  6  5  1  0  0  0  0
  6  1  2  0  0  0  0
 10  5  1  0  0  0  0
 11 12  2  0  0  0  0
 11 16  1  0  0  0  0
 12 13  1  0  0  0  0
 13 19  1  0  0  0  0
 13 14  2  0  0  0  0
 15 14  1  0  0  0  0
 15  1  1  0  0  0  0
 16 15  2  0  0  0  0
 17 11  1  0  0  0  0
 18 12  1  0  0  0  0
 20  6  1  0  0  0  0
 21 20  1  0  0  0  0
 21 26  1  0  0  0  0
 22 21  2  0  0  0  0
 23 24  2  0  0  0  0
 23 22  1  0  0  0  0
 24 25  1  0  0  0  0
 25 20  2  0  0  0  0
 27 22  1  0  0  0  0
 28 29  1  0  0  0  0
 28 24  1  0  0  0  0
 30 31  1  0  0  0  0
 30 29  2  0  0  0  0
 32 30  1  0  0  0  0
 33 32  2  0  0  0  0
 33 34  1  0  0  0  0
 34 28  2  0  0  0  0
M  END
>  <minimizedAffinity>
-5.35118008

>  <minimizedRMSD>
0.31532678

$$$$
