
 OpenBabel03212520463D

 18 19  0  0  0  0  0  0  0  0999 V2000
   40.4150   82.1970   60.8820 C   0  0  0  0  0  0  0  0  0  0  0  0
   40.0610   81.8680   59.5630 C   0  0  0  0  0  0  0  0  0  0  0  0
   40.6930   82.5220   58.5060 C   0  0  0  0  0  0  0  0  0  0  0  0
   41.6290   83.4560   58.8380 N   0  0  0  0  0  0  0  0  0  0  0  0
   41.9470   83.7480   60.1040 C   0  0  0  0  0  0  0  0  0  0  0  0
   41.3530   83.1320   61.1240 N   0  0  0  0  0  0  0  0  0  0  0  0
   39.6880   81.4490   61.8410 N   0  0  0  0  0  0  0  0  0  0  0  0
   39.3300   81.1410   59.2890 H   0  0  0  0  0  0  0  0  0  0  0  0
   40.4360   82.2850   57.4830 H   0  0  0  0  0  0  0  0  0  0  0  0
   38.6830   81.6490   61.8560 H   0  0  0  0  0  0  0  0  0  0  0  0
   40.0200   80.7340   62.5250 H   0  0  0  0  0  0  0  0  0  0  0  0
   42.9660   84.7640   60.3550 C   0  0  0  0  0  0  0  0  0  0  0  0
   42.9930   85.9560   59.6620 C   0  0  0  0  0  3  0  0  0  0  0  0
   43.9740   86.9240   59.9090 C   0  0  0  0  0  0  0  0  0  0  0  0
   43.9370   87.8400   59.3270 H   0  0  0  0  0  0  0  0  0  0  0  0
   44.9140   86.6920   60.8460 N   0  0  0  0  0  0  0  0  0  0  0  0
   44.8780   85.5250   61.5180 C   0  0  0  0  0  3  0  0  0  0  0  0
   43.9240   84.5770   61.2790 N   0  0  0  0  0  0  0  0  0  0  0  0
  1  6  1  0  0  0  0
  1  7  1  0  0  0  0
  2  1  2  0  0  0  0
  3  4  2  0  0  0  0
  3  2  1  0  0  0  0
  4  5  1  0  0  0  0
  5 12  1  0  0  0  0
  5  6  2  0  0  0  0
  7 10  1  0  0  0  0
  7 11  1  0  0  0  0
  8  2  1  0  0  0  0
  9  3  1  0  0  0  0
 12 18  1  0  0  0  0
 13 14  1  0  0  0  0
 13 12  2  0  0  0  0
 14 16  2  0  0  0  0
 15 14  1  0  0  0  0
 16 17  1  0  0  0  0
 18 17  2  0  0  0  0
M  END
>  <minimizedAffinity>
-3.76850677

>  <minimizedRMSD>
5.53801489

$$$$
