
 OpenBabel03212521063D

 34 37  0  0  0  0  0  0  0  0999 V2000
   41.7970   84.2400   61.5570 C   0  0  0  0  0  0  0  0  0  0  0  0
   41.4560   83.9560   62.8770 C   0  0  0  0  0  0  0  0  0  0  0  0
   40.1760   83.5420   63.2130 C   0  0  0  0  0  0  0  0  0  0  0  0
   39.2160   83.4110   62.2070 C   0  0  0  0  0  0  0  0  0  0  0  0
   39.5660   83.6990   60.8960 C   0  0  0  0  0  0  0  0  0  0  0  0
   40.8330   84.1060   60.5730 C   0  0  0  0  0  0  0  0  0  0  0  0
   42.1770   84.0460   63.6880 H   0  0  0  0  0  0  0  0  0  0  0  0
   39.9110   83.3190   64.2470 H   0  0  0  0  0  0  0  0  0  0  0  0
   38.2160   83.0960   62.4100 H   0  0  0  0  0  0  0  0  0  0  0  0
   38.8250   83.6000   60.1000 H   0  0  0  0  0  0  0  0  0  0  0  0
   45.3180   84.1310   60.5780 C   0  0  0  0  0  0  0  0  0  0  0  0
   45.7110   85.4660   60.6940 C   0  0  0  0  0  0  0  0  0  0  0  0
   44.7570   86.4160   61.1130 C   0  0  0  0  0  0  0  0  0  0  0  0
   43.5000   85.9800   61.3820 N   0  0  0  0  0  0  0  0  0  0  0  0
   43.1490   84.6690   61.2590 C   0  0  0  0  0  0  0  0  0  0  0  0
   44.0570   83.7840   60.8650 N   0  0  0  0  0  0  0  0  0  0  0  0
   46.0630   83.4110   60.2550 H   0  0  0  0  0  0  0  0  0  0  0  0
   46.7140   85.8290   60.4810 H   0  0  0  0  0  0  0  0  0  0  0  0
   45.0140   87.4640   61.2170 H   0  0  0  0  0  0  0  0  0  0  0  0
   41.1520   84.3950   59.1810 C   0  0  0  0  0  0  0  0  0  0  0  0
   40.8100   85.7020   58.8370 C   0  0  0  0  0  0  0  0  0  0  0  0
   41.0390   86.1680   57.5430 C   0  0  0  0  0  0  0  0  0  0  0  0
   41.5890   85.3190   56.6700 N   0  0  0  0  0  0  0  0  0  0  0  0
   41.9200   84.0470   57.0070 C   0  0  0  0  0  0  0  0  0  0  0  0
   41.7000   83.6040   58.2500 N   0  0  0  0  0  0  0  0  0  0  0  0
   40.3620   86.4380   59.4960 H   0  0  0  0  0  0  0  0  0  0  0  0
   40.7820   87.1780   57.2490 H   0  0  0  0  0  0  0  0  0  0  0  0
   42.5240   83.0950   56.0740 C   0  0  0  0  0  0  0  0  0  0  0  0
   43.8990   83.1800   55.9290 C   0  0  0  0  0  3  0  0  0  0  0  0
   44.5520   82.3170   55.0650 C   0  0  0  0  0  0  0  0  0  0  0  0
   45.6220   82.3210   54.9000 H   0  0  0  0  0  0  0  0  0  0  0  0
   43.8100   81.4110   54.3870 N   0  0  0  0  0  0  0  0  0  0  0  0
   42.4640   81.3470   54.5460 C   0  0  0  0  0  3  0  0  0  0  0  0
   41.8280   82.1860   55.3860 N   0  0  0  0  0  0  0  0  0  0  0  0
  1  2  1  0  0  0  0
  2  3  2  0  0  0  0
  2  7  1  0  0  0  0
  3  8  1  0  0  0  0
  4  9  1  0  0  0  0
  4  3  1  0  0  0  0
  5  4  2  0  0  0  0
  6  5  1  0  0  0  0
  6  1  2  0  0  0  0
 10  5  1  0  0  0  0
 11 12  2  0  0  0  0
 11 16  1  0  0  0  0
 12 13  1  0  0  0  0
 13 19  1  0  0  0  0
 13 14  2  0  0  0  0
 15 14  1  0  0  0  0
 15  1  1  0  0  0  0
 16 15  2  0  0  0  0
 17 11  1  0  0  0  0
 18 12  1  0  0  0  0
 20  6  1  0  0  0  0
 21 20  1  0  0  0  0
 21 26  1  0  0  0  0
 22 21  2  0  0  0  0
 23 24  2  0  0  0  0
 23 22  1  0  0  0  0
 24 25  1  0  0  0  0
 25 20  2  0  0  0  0
 27 22  1  0  0  0  0
 28 24  1  0  0  0  0
 29 28  1  0  0  0  0
 30 29  2  0  0  0  0
 31 30  1  0  0  0  0
 32 33  2  0  0  0  0
 32 30  1  0  0  0  0
 33 34  1  0  0  0  0
 34 28  2  0  0  0  0
M  END
>  <minimizedAffinity>
-5.39004898

>  <minimizedRMSD>
0.336501092

$$$$
