
 OpenBabel03212520463D

 18 19  0  0  0  0  0  0  0  0999 V2000
   42.1820   81.9910   61.6390 C   0  0  0  0  0  0  0  0  0  0  0  0
   40.8790   81.6170   62.0090 C   0  0  0  0  0  0  0  0  0  0  0  0
   39.7940   82.3200   61.4840 C   0  0  0  0  0  0  0  0  0  0  0  0
   40.0860   83.3430   60.6310 N   0  0  0  0  0  0  0  0  0  0  0  0
   41.3370   83.6760   60.2950 C   0  0  0  0  0  0  0  0  0  0  0  0
   42.3820   83.0140   60.7880 N   0  0  0  0  0  0  0  0  0  0  0  0
   43.1720   81.1850   62.2530 N   0  0  0  0  0  0  0  0  0  0  0  0
   40.6370   80.8200   62.6760 H   0  0  0  0  0  0  0  0  0  0  0  0
   38.7830   82.0500   61.7560 H   0  0  0  0  0  0  0  0  0  0  0  0
   43.2250   81.2860   63.2720 H   0  0  0  0  0  0  0  0  0  0  0  0
   43.8460   80.5110   61.8270 H   0  0  0  0  0  0  0  0  0  0  0  0
   41.5430   84.7880   59.3720 C   0  0  0  0  0  0  0  0  0  0  0  0
   42.7170   85.5110   59.3480 C   0  0  0  0  0  3  0  0  0  0  0  0
   42.9050   86.5750   58.4590 C   0  0  0  0  0  0  0  0  0  0  0  0
   43.8520   87.1010   58.4930 H   0  0  0  0  0  0  0  0  0  0  0  0
   41.9180   86.9050   57.6030 N   0  0  0  0  0  0  0  0  0  0  0  0
   40.7750   86.1940   57.6330 C   0  0  0  0  0  3  0  0  0  0  0  0
   40.5870   85.1550   58.4990 N   0  0  0  0  0  0  0  0  0  0  0  0
  1  2  1  0  0  0  0
  1  7  1  0  0  0  0
  2  8  1  0  0  0  0
  3  9  1  0  0  0  0
  3  2  2  0  0  0  0
  4  3  1  0  0  0  0
  5  4  2  0  0  0  0
  5  6  1  0  0  0  0
  6  1  2  0  0  0  0
  7 10  1  0  0  0  0
 11  7  1  0  0  0  0
 12  5  1  0  0  0  0
 13 12  1  0  0  0  0
 14 15  1  0  0  0  0
 14 13  2  0  0  0  0
 16 17  2  0  0  0  0
 16 14  1  0  0  0  0
 17 18  1  0  0  0  0
 18 12  2  0  0  0  0
M  END
>  <minimizedAffinity>
-3.93753719

>  <minimizedRMSD>
5.5923624

$$$$
