
 OpenBabel03212520443D

 16 17  0  0  0  0  0  0  0  0999 V2000
   40.0750   81.9150   61.0620 C   0  0  0  0  0  0  0  0  0  0  0  0
   40.2380   82.6570   59.8850 C   0  0  0  0  0  0  0  0  0  0  0  0
   39.6620   83.9460   59.8220 C   0  0  0  0  0  0  0  0  0  0  0  0
   38.9770   84.3880   60.9230 N   0  0  0  0  0  0  0  0  0  0  0  0
   38.8480   83.6380   62.0310 C   0  0  0  0  0  0  0  0  0  0  0  0
   39.3940   82.4030   62.1040 N   0  0  0  0  0  0  0  0  0  0  0  0
   40.7900   82.2820   59.0160 H   0  0  0  0  0  0  0  0  0  0  0  0
   39.7470   84.5750   58.9470 H   0  0  0  0  0  0  0  0  0  0  0  0
   38.3120   83.9700   62.9110 H   0  0  0  0  0  0  0  0  0  0  0  0
   40.6740   80.5840   61.1180 C   0  0  0  0  0  0  0  0  0  0  0  0
   41.8720   80.4100   61.7830 C   0  0  0  0  0  3  0  0  0  0  0  0
   42.5180   79.1810   61.8890 C   0  0  0  0  0  0  0  0  0  0  0  0
   43.4530   79.0790   62.4170 H   0  0  0  0  0  0  0  0  0  0  0  0
   41.8700   78.1580   61.2800 N   0  0  0  0  0  0  0  0  0  0  0  0
   40.7020   78.3080   60.6280 C   0  0  0  0  0  3  0  0  0  0  0  0
   40.1020   79.5310   60.5470 N   0  0  0  0  0  0  0  0  0  0  0  0
  1 10  1  0  0  0  0
  1  6  1  0  0  0  0
  2  1  2  0  0  0  0
  3  2  1  0  0  0  0
  3  4  2  0  0  0  0
  4  5  1  0  0  0  0
  5  6  2  0  0  0  0
  5  9  1  0  0  0  0
  7  2  1  0  0  0  0
  8  3  1  0  0  0  0
 10 11  1  0  0  0  0
 11 12  2  0  0  0  0
 12 13  1  0  0  0  0
 14 12  1  0  0  0  0
 15 14  2  0  0  0  0
 16 15  1  0  0  0  0
 16 10  2  0  0  0  0
M  END
>  <minimizedAffinity>
-4.27645063

>  <minimizedRMSD>
0.399112642

$$$$
