
 OpenBabel03212521043D

 26 28  0  0  0  0  0  0  0  0999 V2000
   39.7490   72.9660   59.1140 C   0  0  0  0  0  0  0  0  0  0  0  0
   39.4050   71.8900   58.3050 C   0  0  0  0  0  0  0  0  0  0  0  0
   38.4380   72.0010   57.3190 C   0  0  0  0  0  0  0  0  0  0  0  0
   37.7970   73.2230   57.1360 C   0  0  0  0  0  0  0  0  0  0  0  0
   38.1410   74.3060   57.9480 C   0  0  0  0  0  0  0  0  0  0  0  0
   39.1040   74.1760   58.9230 C   0  0  0  0  0  0  0  0  0  0  0  0
   39.9130   70.9460   58.4580 H   0  0  0  0  0  0  0  0  0  0  0  0
   38.2340   71.1130   56.7350 H   0  0  0  0  0  0  0  0  0  0  0  0
   37.0480   73.2710   56.3560 H   0  0  0  0  0  0  0  0  0  0  0  0
   37.6120   75.2360   57.7670 H   0  0  0  0  0  0  0  0  0  0  0  0
   41.3360   72.2420   62.3260 C   0  0  0  0  0  0  0  0  0  0  0  0
   42.6860   72.4580   62.0650 C   0  0  0  0  0  0  0  0  0  0  0  0
   43.0600   72.8610   60.7610 C   0  0  0  0  0  0  0  0  0  0  0  0
   42.0790   73.0130   59.8380 N   0  0  0  0  0  0  0  0  0  0  0  0
   40.7670   72.7920   60.1300 C   0  0  0  0  0  0  0  0  0  0  0  0
   40.4240   72.4140   61.3580 N   0  0  0  0  0  0  0  0  0  0  0  0
   41.1300   71.9370   63.3420 H   0  0  0  0  0  0  0  0  0  0  0  0
   43.5310   72.3640   62.7270 H   0  0  0  0  0  0  0  0  0  0  0  0
   44.0590   73.0630   60.4170 H   0  0  0  0  0  0  0  0  0  0  0  0
   39.4290   75.3280   59.7440 C   0  0  0  0  0  0  0  0  0  0  0  0
   40.2090   76.2560   59.0470 C   0  0  0  0  0  3  0  0  0  0  0  0
   40.6290   77.4340   59.6570 C   0  0  0  0  0  0  0  0  0  0  0  0
   41.2290   78.1600   59.1360 H   0  0  0  0  0  0  0  0  0  0  0  0
   40.2540   77.6330   60.9280 N   0  0  0  0  0  0  0  0  0  0  0  0
   39.4940   76.7280   61.6070 C   0  0  0  0  0  3  0  0  0  0  0  0
   39.0870   75.5880   61.0200 N   0  0  0  0  0  0  0  0  0  0  0  0
  1 15  1  0  0  0  0
  2  7  1  0  0  0  0
  2  1  2  0  0  0  0
  3  2  1  0  0  0  0
  4  3  2  0  0  0  0
  4  5  1  0  0  0  0
  5  6  2  0  0  0  0
  6  1  1  0  0  0  0
  6 20  1  0  0  0  0
  8  3  1  0  0  0  0
  9  4  1  0  0  0  0
 10  5  1  0  0  0  0
 11 17  1  0  0  0  0
 12 11  1  0  0  0  0
 12 18  1  0  0  0  0
 13 12  2  0  0  0  0
 14 15  2  0  0  0  0
 14 13  1  0  0  0  0
 15 16  1  0  0  0  0
 16 11  2  0  0  0  0
 19 13  1  0  0  0  0
 20 26  1  0  0  0  0
 21 22  1  0  0  0  0
 21 20  2  0  0  0  0
 22 24  2  0  0  0  0
 23 22  1  0  0  0  0
 24 25  1  0  0  0  0
 26 25  2  0  0  0  0
M  END
>  <minimizedAffinity>
-5.05137157

$$$$

 OpenBabel03212521043D

 26 28  0  0  0  0  0  0  0  0999 V2000
   39.7100   74.2240   58.4300 C   0  0  0  0  0  0  0  0  0  0  0  0
   38.7400   74.3780   57.4470 C   0  0  0  0  0  0  0  0  0  0  0  0
   38.0920   73.2900   56.8880 C   0  0  0  0  0  0  0  0  0  0  0  0
   38.4220   72.0090   57.3230 C   0  0  0  0  0  0  0  0  0  0  0  0
   39.3970   71.8510   58.3110 C   0  0  0  0  0  0  0  0  0  0  0  0
   40.0300   72.9460   58.8550 C   0  0  0  0  0  0  0  0  0  0  0  0
   38.4940   75.3800   57.1190 H   0  0  0  0  0  0  0  0  0  0  0  0
   37.3510   73.5020   56.1280 H   0  0  0  0  0  0  0  0  0  0  0  0
   37.8940   71.1840   56.8620 H   0  0  0  0  0  0  0  0  0  0  0  0
   39.6190   70.8350   58.6160 H   0  0  0  0  0  0  0  0  0  0  0  0
   40.2960   77.2250   60.4340 C   0  0  0  0  0  0  0  0  0  0  0  0
   41.5670   77.6270   60.0320 C   0  0  0  0  0  0  0  0  0  0  0  0
   42.2360   76.8540   59.0540 C   0  0  0  0  0  0  0  0  0  0  0  0
   41.6000   75.7620   58.5630 N   0  0  0  0  0  0  0  0  0  0  0  0
   40.3560   75.3990   58.9810 C   0  0  0  0  0  0  0  0  0  0  0  0
   39.7330   76.1310   59.9010 N   0  0  0  0  0  0  0  0  0  0  0  0
   39.8510   77.8640   61.1830 H   0  0  0  0  0  0  0  0  0  0  0  0
   42.1490   78.4720   60.3610 H   0  0  0  0  0  0  0  0  0  0  0  0
   43.2150   77.0440   58.6490 H   0  0  0  0  0  0  0  0  0  0  0  0
   41.0370   72.7340   59.8790 C   0  0  0  0  0  0  0  0  0  0  0  0
   40.4790   72.7430   61.1610 C   0  0  0  0  0  3  0  0  0  0  0  0
   41.2770   72.5570   62.2860 C   0  0  0  0  0  0  0  0  0  0  0  0
   40.8660   72.5600   63.2810 H   0  0  0  0  0  0  0  0  0  0  0  0
   42.5890   72.3710   62.0830 N   0  0  0  0  0  0  0  0  0  0  0  0
   43.1320   72.3630   60.8330 C   0  0  0  0  0  3  0  0  0  0  0  0
   42.3620   72.5430   59.7440 N   0  0  0  0  0  0  0  0  0  0  0  0
  1  6  1  0  0  0  0
  1 15  1  0  0  0  0
  2  1  2  0  0  0  0
  3  4  2  0  0  0  0
  3  2  1  0  0  0  0
  4  5  1  0  0  0  0
  5 10  1  0  0  0  0
  5  6  2  0  0  0  0
  6 20  1  0  0  0  0
  7  2  1  0  0  0  0
  8  3  1  0  0  0  0
  9  4  1  0  0  0  0
 11 17  1  0  0  0  0
 12 18  1  0  0  0  0
 12 11  1  0  0  0  0
 13 12  2  0  0  0  0
 14 15  2  0  0  0  0
 14 13  1  0  0  0  0
 15 16  1  0  0  0  0
 16 11  2  0  0  0  0
 19 13  1  0  0  0  0
 20 21  1  0  0  0  0
 21 22  2  0  0  0  0
 22 23  1  0  0  0  0
 24 22  1  0  0  0  0
 25 24  2  0  0  0  0
 26 20  2  0  0  0  0
 26 25  1  0  0  0  0
M  END
>  <minimizedAffinity>
-4.88651276

$$$$

 OpenBabel03212521043D

 26 28  0  0  0  0  0  0  0  0999 V2000
   39.9430   73.0410   58.8320 C   0  0  0  0  0  0  0  0  0  0  0  0
   39.2010   71.9990   58.2910 C   0  0  0  0  0  0  0  0  0  0  0  0
   38.3050   72.2060   57.2540 C   0  0  0  0  0  0  0  0  0  0  0  0
   38.1470   73.4910   56.7440 C   0  0  0  0  0  0  0  0  0  0  0  0
   38.8920   74.5400   57.2870 C   0  0  0  0  0  0  0  0  0  0  0  0
   39.7770   74.3150   58.3170 C   0  0  0  0  0  0  0  0  0  0  0  0
   39.3350   71.0040   58.6980 H   0  0  0  0  0  0  0  0  0  0  0  0
   37.7690   71.3370   56.8940 H   0  0  0  0  0  0  0  0  0  0  0  0
   37.4380   73.6130   55.9350 H   0  0  0  0  0  0  0  0  0  0  0  0
   38.7330   75.5230   56.8560 H   0  0  0  0  0  0  0  0  0  0  0  0
   42.9960   72.1250   60.6220 C   0  0  0  0  0  0  0  0  0  0  0  0
   42.6240   72.2430   61.9590 C   0  0  0  0  0  0  0  0  0  0  0  0
   41.2990   72.6440   62.2510 C   0  0  0  0  0  0  0  0  0  0  0  0
   40.4650   72.8920   61.2120 N   0  0  0  0  0  0  0  0  0  0  0  0
   40.8650   72.7660   59.9160 C   0  0  0  0  0  0  0  0  0  0  0  0
   42.1130   72.3890   59.6480 N   0  0  0  0  0  0  0  0  0  0  0  0
   44.0210   71.8160   60.4790 H   0  0  0  0  0  0  0  0  0  0  0  0
   43.2100   72.0700   62.8460 H   0  0  0  0  0  0  0  0  0  0  0  0
   40.8730   72.7760   63.2310 H   0  0  0  0  0  0  0  0  0  0  0  0
   40.5300   75.4350   58.8500 C   0  0  0  0  0  0  0  0  0  0  0  0
   39.7550   76.2130   59.7160 C   0  0  0  0  0  3  0  0  0  0  0  0
   40.2920   77.3380   60.3360 C   0  0  0  0  0  0  0  0  0  0  0  0
   39.7100   77.9480   61.0060 H   0  0  0  0  0  0  0  0  0  0  0  0
   41.5700   77.6350   60.0650 N   0  0  0  0  0  0  0  0  0  0  0  0
   42.3250   76.8770   59.2210 C   0  0  0  0  0  3  0  0  0  0  0  0
   41.8090   75.7890   58.6210 N   0  0  0  0  0  0  0  0  0  0  0  0
  1 15  1  0  0  0  0
  2  7  1  0  0  0  0
  2  1  2  0  0  0  0
  3  2  1  0  0  0  0
  4  3  2  0  0  0  0
  4  5  1  0  0  0  0
  5  6  2  0  0  0  0
  6  1  1  0  0  0  0
  6 20  1  0  0  0  0
  8  3  1  0  0  0  0
  9  4  1  0  0  0  0
 10  5  1  0  0  0  0
 11 12  1  0  0  0  0
 12 13  2  0  0  0  0
 12 18  1  0  0  0  0
 13 19  1  0  0  0  0
 14 13  1  0  0  0  0
 15 14  2  0  0  0  0
 16 15  1  0  0  0  0
 16 11  2  0  0  0  0
 17 11  1  0  0  0  0
 20 21  1  0  0  0  0
 21 22  2  0  0  0  0
 22 23  1  0  0  0  0
 24 22  1  0  0  0  0
 25 24  2  0  0  0  0
 26 20  2  0  0  0  0
 26 25  1  0  0  0  0
M  END
>  <minimizedAffinity>
-4.8705225

$$$$

 OpenBabel03212521043D

 26 28  0  0  0  0  0  0  0  0999 V2000
   41.2920   74.5700   59.8960 C   0  0  0  0  0  0  0  0  0  0  0  0
   40.6690   75.7930   59.6800 C   0  0  0  0  0  0  0  0  0  0  0  0
   39.4530   76.1040   60.2670 C   0  0  0  0  0  0  0  0  0  0  0  0
   38.8410   75.1650   61.0930 C   0  0  0  0  0  0  0  0  0  0  0  0
   39.4660   73.9340   61.3110 C   0  0  0  0  0  0  0  0  0  0  0  0
   40.6740   73.6440   60.7190 C   0  0  0  0  0  0  0  0  0  0  0  0
   41.1570   76.5130   59.0350 H   0  0  0  0  0  0  0  0  0  0  0  0
   39.0410   77.0790   60.0440 H   0  0  0  0  0  0  0  0  0  0  0  0
   37.8930   75.4440   61.5320 H   0  0  0  0  0  0  0  0  0  0  0  0
   38.9490   73.2370   61.9620 H   0  0  0  0  0  0  0  0  0  0  0  0
   43.7650   73.7760   57.3250 C   0  0  0  0  0  0  0  0  0  0  0  0
   44.9660   73.7830   58.0300 C   0  0  0  0  0  0  0  0  0  0  0  0
   44.9250   74.0650   59.4160 C   0  0  0  0  0  0  0  0  0  0  0  0
   43.7170   74.3140   59.9790 N   0  0  0  0  0  0  0  0  0  0  0  0
   42.5630   74.2980   59.2560 C   0  0  0  0  0  0  0  0  0  0  0  0
   42.6090   74.0320   57.9530 N   0  0  0  0  0  0  0  0  0  0  0  0
   43.8770   73.5530   56.2730 H   0  0  0  0  0  0  0  0  0  0  0  0
   45.9650   73.5990   57.6740 H   0  0  0  0  0  0  0  0  0  0  0  0
   45.7670   74.1040   60.0850 H   0  0  0  0  0  0  0  0  0  0  0  0
   41.2850   72.3520   60.9740 C   0  0  0  0  0  0  0  0  0  0  0  0
   41.7040   72.2320   62.3020 C   0  0  0  0  0  3  0  0  0  0  0  0
   42.3170   71.0670   62.7530 C   0  0  0  0  0  0  0  0  0  0  0  0
   42.6460   70.9560   63.7730 H   0  0  0  0  0  0  0  0  0  0  0  0
   42.4840   70.0790   61.8630 N   0  0  0  0  0  0  0  0  0  0  0  0
   42.0750   70.1970   60.5680 C   0  0  0  0  0  3  0  0  0  0  0  0
   41.4830   71.3220   60.1300 N   0  0  0  0  0  0  0  0  0  0  0  0
  1  6  1  0  0  0  0
  2  1  2  0  0  0  0
  2  3  1  0  0  0  0
  3  4  2  0  0  0  0
  4  5  1  0  0  0  0
  4  9  1  0  0  0  0
  5 10  1  0  0  0  0
  6 20  1  0  0  0  0
  6  5  2  0  0  0  0
  7  2  1  0  0  0  0
  8  3  1  0  0  0  0
 11 16  2  0  0  0  0
 11 12  1  0  0  0  0
 12 13  2  0  0  0  0
 13 14  1  0  0  0  0
 13 19  1  0  0  0  0
 15  1  1  0  0  0  0
 15 14  2  0  0  0  0
 16 15  1  0  0  0  0
 17 11  1  0  0  0  0
 18 12  1  0  0  0  0
 20 21  1  0  0  0  0
 21 22  2  0  0  0  0
 22 23  1  0  0  0  0
 24 22  1  0  0  0  0
 25 24  2  0  0  0  0
 26 25  1  0  0  0  0
 26 20  2  0  0  0  0
M  END
>  <minimizedAffinity>
-4.74746418

$$$$

 OpenBabel03212521043D

 26 28  0  0  0  0  0  0  0  0999 V2000
   41.3550   71.7480   60.0000 C   0  0  0  0  0  0  0  0  0  0  0  0
   41.8760   70.5100   60.3580 C   0  0  0  0  0  0  0  0  0  0  0  0
   42.4370   70.2890   61.6050 C   0  0  0  0  0  0  0  0  0  0  0  0
   42.4790   71.3360   62.5220 C   0  0  0  0  0  0  0  0  0  0  0  0
   41.9560   72.5810   62.1650 C   0  0  0  0  0  0  0  0  0  0  0  0
   41.4020   72.7810   60.9210 C   0  0  0  0  0  0  0  0  0  0  0  0
   41.8360   69.7060   59.6340 H   0  0  0  0  0  0  0  0  0  0  0  0
   42.8180   69.2950   61.7980 H   0  0  0  0  0  0  0  0  0  0  0  0
   42.9240   71.1250   63.4850 H   0  0  0  0  0  0  0  0  0  0  0  0
   42.0130   73.3640   62.9140 H   0  0  0  0  0  0  0  0  0  0  0  0
   41.0720   72.3810   56.4120 C   0  0  0  0  0  0  0  0  0  0  0  0
   39.7050   72.2540   56.1770 C   0  0  0  0  0  0  0  0  0  0  0  0
   38.8640   71.9460   57.2720 C   0  0  0  0  0  0  0  0  0  0  0  0
   39.4380   71.7910   58.4900 N   0  0  0  0  0  0  0  0  0  0  0  0
   40.7800   71.9220   58.6820 C   0  0  0  0  0  0  0  0  0  0  0  0
   41.5650   72.2120   57.6470 N   0  0  0  0  0  0  0  0  0  0  0  0
   41.6480   72.6170   55.5280 H   0  0  0  0  0  0  0  0  0  0  0  0
   39.1610   72.3580   55.2530 H   0  0  0  0  0  0  0  0  0  0  0  0
   37.7960   71.8190   57.2410 H   0  0  0  0  0  0  0  0  0  0  0  0
   40.8720   74.0920   60.5930 C   0  0  0  0  0  0  0  0  0  0  0  0
   39.6340   74.3150   61.2040 C   0  0  0  0  0  3  0  0  0  0  0  0
   38.9540   75.5150   61.0170 C   0  0  0  0  0  0  0  0  0  0  0  0
   38.0000   75.7050   61.4790 H   0  0  0  0  0  0  0  0  0  0  0  0
   39.5360   76.4330   60.2330 N   0  0  0  0  0  0  0  0  0  0  0  0
   40.7430   76.2150   59.6390 C   0  0  0  0  0  3  0  0  0  0  0  0
   41.4020   75.0560   59.8180 N   0  0  0  0  0  0  0  0  0  0  0  0
  1  2  2  0  0  0  0
  1  6  1  0  0  0  0
  2  3  1  0  0  0  0
  3  8  1  0  0  0  0
  3  4  2  0  0  0  0
  4  9  1  0  0  0  0
  5  4  1  0  0  0  0
  5 10  1  0  0  0  0
  6  5  2  0  0  0  0
  7  2  1  0  0  0  0
 11 16  1  0  0  0  0
 12 11  2  0  0  0  0
 12 13  1  0  0  0  0
 13 14  2  0  0  0  0
 14 15  1  0  0  0  0
 15  1  1  0  0  0  0
 16 15  2  0  0  0  0
 17 11  1  0  0  0  0
 18 12  1  0  0  0  0
 19 13  1  0  0  0  0
 20  6  1  0  0  0  0
 20 21  1  0  0  0  0
 22 21  2  0  0  0  0
 22 23  1  0  0  0  0
 24 22  1  0  0  0  0
 25 26  1  0  0  0  0
 25 24  2  0  0  0  0
 26 20  2  0  0  0  0
M  END
>  <minimizedAffinity>
-4.7317605

$$$$

 OpenBabel03212521043D

 26 28  0  0  0  0  0  0  0  0999 V2000
   41.3370   72.6830   61.0160 C   0  0  0  0  0  0  0  0  0  0  0  0
   41.7960   72.4010   62.2970 C   0  0  0  0  0  0  0  0  0  0  0  0
   42.3340   71.1660   62.6220 C   0  0  0  0  0  0  0  0  0  0  0  0
   42.4160   70.1850   61.6380 C   0  0  0  0  0  0  0  0  0  0  0  0
   41.9550   70.4660   60.3500 C   0  0  0  0  0  0  0  0  0  0  0  0
   41.4230   71.6990   60.0460 C   0  0  0  0  0  0  0  0  0  0  0  0
   41.7260   73.1740   63.0520 H   0  0  0  0  0  0  0  0  0  0  0  0
   42.6670   71.0340   63.6430 H   0  0  0  0  0  0  0  0  0  0  0  0
   42.8430   69.2340   61.9300 H   0  0  0  0  0  0  0  0  0  0  0  0
   42.0400   69.6690   59.6190 H   0  0  0  0  0  0  0  0  0  0  0  0
   40.9870   76.0750   59.7020 C   0  0  0  0  0  0  0  0  0  0  0  0
   39.7460   76.4750   60.1880 C   0  0  0  0  0  0  0  0  0  0  0  0
   39.0140   75.5620   60.9840 C   0  0  0  0  0  0  0  0  0  0  0  0
   39.5640   74.3470   61.2270 N   0  0  0  0  0  0  0  0  0  0  0  0
   40.7830   73.9910   60.7330 C   0  0  0  0  0  0  0  0  0  0  0  0
   41.4650   74.8550   59.9860 N   0  0  0  0  0  0  0  0  0  0  0  0
   41.4850   76.8250   59.1030 H   0  0  0  0  0  0  0  0  0  0  0  0
   39.2290   77.4100   60.0500 H   0  0  0  0  0  0  0  0  0  0  0  0
   38.0470   75.7320   61.4260 H   0  0  0  0  0  0  0  0  0  0  0  0
   40.9560   71.9460   58.6940 C   0  0  0  0  0  0  0  0  0  0  0  0
   39.5840   71.7040   58.5700 C   0  0  0  0  0  3  0  0  0  0  0  0
   38.9380   71.8830   57.3500 C   0  0  0  0  0  0  0  0  0  0  0  0
   37.8830   71.7020   57.2350 H   0  0  0  0  0  0  0  0  0  0  0  0
   39.6850   72.2920   56.3160 N   0  0  0  0  0  0  0  0  0  0  0  0
   41.0220   72.5270   56.4380 C   0  0  0  0  0  3  0  0  0  0  0  0
   41.6490   72.3550   57.6160 N   0  0  0  0  0  0  0  0  0  0  0  0
  1  2  1  0  0  0  0
  2  3  2  0  0  0  0
  2  7  1  0  0  0  0
  3  8  1  0  0  0  0
  4  9  1  0  0  0  0
  4  3  1  0  0  0  0
  5  4  2  0  0  0  0
  6  5  1  0  0  0  0
  6  1  2  0  0  0  0
 10  5  1  0  0  0  0
 11 16  2  0  0  0  0
 11 12  1  0  0  0  0
 12 13  2  0  0  0  0
 13 14  1  0  0  0  0
 13 19  1  0  0  0  0
 15  1  1  0  0  0  0
 15 14  2  0  0  0  0
 16 15  1  0  0  0  0
 17 11  1  0  0  0  0
 18 12  1  0  0  0  0
 20  6  1  0  0  0  0
 21 20  1  0  0  0  0
 22 21  2  0  0  0  0
 23 22  1  0  0  0  0
 24 25  2  0  0  0  0
 24 22  1  0  0  0  0
 25 26  1  0  0  0  0
 26 20  2  0  0  0  0
M  END
>  <minimizedAffinity>
-4.71114349

$$$$

 OpenBabel03212521043D

 26 28  0  0  0  0  0  0  0  0999 V2000
   41.3390   72.6050   61.0780 C   0  0  0  0  0  0  0  0  0  0  0  0
   41.9070   72.3930   62.3290 C   0  0  0  0  0  0  0  0  0  0  0  0
   42.5130   71.1930   62.6600 C   0  0  0  0  0  0  0  0  0  0  0  0
   42.5520   70.1720   61.7130 C   0  0  0  0  0  0  0  0  0  0  0  0
   41.9820   70.3820   60.4550 C   0  0  0  0  0  0  0  0  0  0  0  0
   41.3840   71.5830   60.1460 C   0  0  0  0  0  0  0  0  0  0  0  0
   41.8690   73.1970   63.0550 H   0  0  0  0  0  0  0  0  0  0  0  0
   42.9290   71.1160   63.6550 H   0  0  0  0  0  0  0  0  0  0  0  0
   43.0340   69.2490   62.0090 H   0  0  0  0  0  0  0  0  0  0  0  0
   42.0380   69.5570   59.7540 H   0  0  0  0  0  0  0  0  0  0  0  0
   38.8950   75.3220   61.0100 C   0  0  0  0  0  0  0  0  0  0  0  0
   39.5300   76.2960   60.2440 C   0  0  0  0  0  0  0  0  0  0  0  0
   40.8220   76.0150   59.7410 C   0  0  0  0  0  0  0  0  0  0  0  0
   41.3700   74.8100   60.0350 N   0  0  0  0  0  0  0  0  0  0  0  0
   40.7180   73.8810   60.7870 C   0  0  0  0  0  0  0  0  0  0  0  0
   39.5040   74.1520   61.2570 N   0  0  0  0  0  0  0  0  0  0  0  0
   37.9130   75.6090   61.3580 H   0  0  0  0  0  0  0  0  0  0  0  0
   39.1790   77.2740   59.9610 H   0  0  0  0  0  0  0  0  0  0  0  0
   41.4290   76.6680   59.1380 H   0  0  0  0  0  0  0  0  0  0  0  0
   40.8040   71.7560   58.8260 C   0  0  0  0  0  0  0  0  0  0  0  0
   41.7880   71.9120   57.8460 C   0  0  0  0  0  3  0  0  0  0  0  0
   41.4410   72.0910   56.5100 C   0  0  0  0  0  0  0  0  0  0  0  0
   42.1840   72.2120   55.7410 H   0  0  0  0  0  0  0  0  0  0  0  0
   40.1330   72.1070   56.2150 N   0  0  0  0  0  0  0  0  0  0  0  0
   39.1750   71.9550   57.1710 C   0  0  0  0  0  3  0  0  0  0  0  0
   39.5080   71.7820   58.4630 N   0  0  0  0  0  0  0  0  0  0  0  0
  1  2  1  0  0  0  0
  2  3  2  0  0  0  0
  2  7  1  0  0  0  0
  3  8  1  0  0  0  0
  4  9  1  0  0  0  0
  4  3  1  0  0  0  0
  5  4  2  0  0  0  0
  6  5  1  0  0  0  0
  6  1  2  0  0  0  0
 10  5  1  0  0  0  0
 11 16  1  0  0  0  0
 11 17  1  0  0  0  0
 12 11  2  0  0  0  0
 13 14  2  0  0  0  0
 13 12  1  0  0  0  0
 14 15  1  0  0  0  0
 15  1  1  0  0  0  0
 15 16  2  0  0  0  0
 18 12  1  0  0  0  0
 19 13  1  0  0  0  0
 20  6  1  0  0  0  0
 21 20  2  0  0  0  0
 22 21  1  0  0  0  0
 23 22  1  0  0  0  0
 24 22  2  0  0  0  0
 24 25  1  0  0  0  0
 25 26  2  0  0  0  0
 26 20  1  0  0  0  0
M  END
>  <minimizedAffinity>
-4.70758677

$$$$

 OpenBabel03212521043D

 26 28  0  0  0  0  0  0  0  0999 V2000
   39.6140   73.3000   58.5940 C   0  0  0  0  0  0  0  0  0  0  0  0
   40.2280   72.5930   59.6210 C   0  0  0  0  0  0  0  0  0  0  0  0
   39.9760   72.8790   60.9530 C   0  0  0  0  0  0  0  0  0  0  0  0
   39.0850   73.9020   61.2680 C   0  0  0  0  0  0  0  0  0  0  0  0
   38.4670   74.6140   60.2370 C   0  0  0  0  0  0  0  0  0  0  0  0
   38.7310   74.3150   58.9190 C   0  0  0  0  0  0  0  0  0  0  0  0
   40.9180   71.8000   59.3610 H   0  0  0  0  0  0  0  0  0  0  0  0
   40.4970   72.2790   61.6870 H   0  0  0  0  0  0  0  0  0  0  0  0
   38.9150   74.0960   62.3180 H   0  0  0  0  0  0  0  0  0  0  0  0
   37.7830   75.4010   60.5330 H   0  0  0  0  0  0  0  0  0  0  0  0
   39.5240   71.6040   55.3570 C   0  0  0  0  0  0  0  0  0  0  0  0
   40.4750   72.2960   54.6130 C   0  0  0  0  0  0  0  0  0  0  0  0
   41.1620   73.3660   55.2340 C   0  0  0  0  0  0  0  0  0  0  0  0
   40.8530   73.6570   56.5220 N   0  0  0  0  0  0  0  0  0  0  0  0
   39.9150   72.9570   57.2190 C   0  0  0  0  0  0  0  0  0  0  0  0
   39.2740   71.9520   56.6280 N   0  0  0  0  0  0  0  0  0  0  0  0
   39.0430   70.8020   54.8150 H   0  0  0  0  0  0  0  0  0  0  0  0
   40.7870   72.1410   53.5940 H   0  0  0  0  0  0  0  0  0  0  0  0
   41.9180   73.9860   54.7850 H   0  0  0  0  0  0  0  0  0  0  0  0
   38.0660   75.0810   57.8810 C   0  0  0  0  0  0  0  0  0  0  0  0
   38.5780   76.3790   57.7900 C   0  0  0  0  0  3  0  0  0  0  0  0
   38.0760   77.2780   56.8530 C   0  0  0  0  0  0  0  0  0  0  0  0
   38.4580   78.2810   56.7680 H   0  0  0  0  0  0  0  0  0  0  0  0
   37.0910   76.8450   56.0560 N   0  0  0  0  0  0  0  0  0  0  0  0
   36.5920   75.5800   56.1450 C   0  0  0  0  0  3  0  0  0  0  0  0
   37.0760   74.7080   57.0500 N   0  0  0  0  0  0  0  0  0  0  0  0
  1  6  2  0  0  0  0
  1  2  1  0  0  0  0
  2  3  2  0  0  0  0
  3  4  1  0  0  0  0
  3  8  1  0  0  0  0
  4  9  1  0  0  0  0
  5 10  1  0  0  0  0
  5  4  2  0  0  0  0
  6  5  1  0  0  0  0
  7  2  1  0  0  0  0
 11 16  1  0  0  0  0
 12 13  1  0  0  0  0
 12 11  2  0  0  0  0
 13 14  2  0  0  0  0
 14 15  1  0  0  0  0
 15  1  1  0  0  0  0
 16 15  2  0  0  0  0
 17 11  1  0  0  0  0
 18 12  1  0  0  0  0
 19 13  1  0  0  0  0
 20  6  1  0  0  0  0
 21 20  1  0  0  0  0
 22 21  2  0  0  0  0
 23 22  1  0  0  0  0
 24 25  2  0  0  0  0
 24 22  1  0  0  0  0
 25 26  1  0  0  0  0
 26 20  2  0  0  0  0
M  END
>  <minimizedAffinity>
-4.70240116

$$$$

 OpenBabel03212521043D

 26 28  0  0  0  0  0  0  0  0999 V2000
   40.5090   73.3510   60.5000 C   0  0  0  0  0  0  0  0  0  0  0  0
   39.2380   73.4800   61.0470 C   0  0  0  0  0  0  0  0  0  0  0  0
   38.6310   74.7170   61.1950 C   0  0  0  0  0  0  0  0  0  0  0  0
   39.3150   75.8580   60.7850 C   0  0  0  0  0  0  0  0  0  0  0  0
   40.5930   75.7310   60.2350 C   0  0  0  0  0  0  0  0  0  0  0  0
   41.1790   74.4930   60.0960 C   0  0  0  0  0  0  0  0  0  0  0  0
   38.7180   72.5830   61.3610 H   0  0  0  0  0  0  0  0  0  0  0  0
   37.6410   74.7240   61.6300 H   0  0  0  0  0  0  0  0  0  0  0  0
   38.8090   76.8050   60.9170 H   0  0  0  0  0  0  0  0  0  0  0  0
   41.0840   76.6490   59.9320 H   0  0  0  0  0  0  0  0  0  0  0  0
   42.2550   70.2490   61.3300 C   0  0  0  0  0  0  0  0  0  0  0  0
   42.2080   69.5330   60.1370 C   0  0  0  0  0  0  0  0  0  0  0  0
   41.5640   70.1270   59.0250 C   0  0  0  0  0  0  0  0  0  0  0  0
   41.0280   71.3620   59.1860 N   0  0  0  0  0  0  0  0  0  0  0  0
   41.0940   72.0320   60.3700 C   0  0  0  0  0  0  0  0  0  0  0  0
   41.7010   71.4680   61.4100 N   0  0  0  0  0  0  0  0  0  0  0  0
   42.7620   69.7310   62.1310 H   0  0  0  0  0  0  0  0  0  0  0  0
   42.6010   68.5550   59.9140 H   0  0  0  0  0  0  0  0  0  0  0  0
   41.4520   69.6940   58.0460 H   0  0  0  0  0  0  0  0  0  0  0  0
   42.5080   74.4090   59.5200 C   0  0  0  0  0  0  0  0  0  0  0  0
   42.4990   74.7040   58.1540 C   0  0  0  0  0  3  0  0  0  0  0  0
   43.6760   74.6800   57.4120 C   0  0  0  0  0  0  0  0  0  0  0  0
   43.6880   74.9050   56.3590 H   0  0  0  0  0  0  0  0  0  0  0  0
   44.8040   74.3630   58.0630 N   0  0  0  0  0  0  0  0  0  0  0  0
   44.8120   74.0750   59.3950 C   0  0  0  0  0  3  0  0  0  0  0  0
   43.6750   74.0980   60.1140 N   0  0  0  0  0  0  0  0  0  0  0  0
  1  2  1  0  0  0  0
  2  3  2  0  0  0  0
  2  7  1  0  0  0  0
  3  8  1  0  0  0  0
  4  9  1  0  0  0  0
  4  3  1  0  0  0  0
  5  4  2  0  0  0  0
  6  5  1  0  0  0  0
  6  1  2  0  0  0  0
 10  5  1  0  0  0  0
 11 16  1  0  0  0  0
 11 17  1  0  0  0  0
 12 11  2  0  0  0  0
 13 14  2  0  0  0  0
 13 12  1  0  0  0  0
 14 15  1  0  0  0  0
 15  1  1  0  0  0  0
 15 16  2  0  0  0  0
 18 12  1  0  0  0  0
 19 13  1  0  0  0  0
 20  6  1  0  0  0  0
 20 26  1  0  0  0  0
 21 20  2  0  0  0  0
 22 24  2  0  0  0  0
 22 21  1  0  0  0  0
 23 22  1  0  0  0  0
 24 25  1  0  0  0  0
 25 26  2  0  0  0  0
M  END
>  <minimizedAffinity>
-4.65373659

$$$$
