
 OpenBabel03212520403D

 25 27  0  0  1  0  0  0  0  0999 V2000
   42.3780   85.4190   59.8000 C   0  0  1  0  0  0  0  0  0  0  0  0
   43.4590   86.4690   59.5590 C   0  0  0  0  0  0  0  0  0  0  0  0
   43.0860   85.4310   58.5030 C   0  0  1  0  0  0  0  0  0  0  0  0
   41.3890   85.8870   59.9550 H   0  0  0  0  0  0  0  0  0  0  0  0
   43.1730   87.4960   59.3150 H   0  0  0  0  0  0  0  0  0  0  0  0
   44.4450   86.3610   60.0110 H   0  0  0  0  0  0  0  0  0  0  0  0
   42.4600   85.7950   57.6490 H   0  0  0  0  0  0  0  0  0  0  0  0
   42.7880   84.4690   60.7840 O   0  0  0  0  0  0  0  0  0  0  0  0
   40.0280   83.5350   62.9370 C   0  0  0  0  0  0  0  0  0  0  0  0
   40.5770   83.7890   64.2080 C   0  0  0  0  0  0  0  0  0  0  0  0
   41.9010   84.2810   64.2870 C   0  0  0  0  0  0  0  0  0  0  0  0
   42.5070   84.4570   63.1050 N   0  0  0  0  0  0  0  0  0  0  0  0
   41.9990   84.2210   61.8880 C   0  0  0  0  0  0  0  0  0  0  0  0
   40.7560   83.7590   61.7980 N   0  0  0  0  0  0  0  0  0  0  0  0
   39.0150   83.1580   62.8550 H   0  0  0  0  0  0  0  0  0  0  0  0
   40.0370   83.6250   65.1070 H   0  0  0  0  0  0  0  0  0  0  0  0
   42.3950   84.5010   65.2240 H   0  0  0  0  0  0  0  0  0  0  0  0
   43.9650   84.3970   58.2490 O   0  0  0  0  0  0  0  0  0  0  0  0
   43.8990   83.6410   57.0960 C   0  0  0  0  0  0  0  0  0  0  0  0
   44.8250   82.8810   56.4150 C   0  0  0  0  0  3  0  0  0  0  0  0
   44.4390   82.2320   55.2630 C   0  0  0  0  0  0  0  0  0  0  0  0
   45.2200   81.6600   54.7930 H   0  0  0  0  0  0  0  0  0  0  0  0
   43.2070   82.3070   54.7750 N   0  0  0  0  0  0  0  0  0  0  0  0
   42.2990   83.0540   55.4450 C   0  0  0  0  0  3  0  0  0  0  0  0
   42.6330   83.7150   56.5890 N   0  0  0  0  0  0  0  0  0  0  0  0
  1  4  1  1  0  0  0
  1  8  1  0  0  0  0
  2  1  1  0  0  0  0
  2  6  1  0  0  0  0
  3  7  1  6  0  0  0
  3  2  1  0  0  0  0
  3  1  1  0  0  0  0
  5  2  1  0  0  0  0
  8 13  1  0  0  0  0
  9 10  1  0  0  0  0
 10 11  2  0  0  0  0
 10 16  1  0  0  0  0
 11 17  1  0  0  0  0
 12 11  1  0  0  0  0
 13 12  2  0  0  0  0
 14 13  1  0  0  0  0
 14  9  2  0  0  0  0
 15  9  1  0  0  0  0
 18  3  1  0  0  0  0
 19 18  1  0  0  0  0
 20 19  2  0  0  0  0
 21 20  1  0  0  0  0
 22 21  1  0  0  0  0
 23 21  2  0  0  0  0
 23 24  1  0  0  0  0
 24 25  2  0  0  0  0
 25 19  1  0  0  0  0
M  END
>  <minimizedAffinity>
-3.52604151

>  <minimizedRMSD>
0.321819633

$$$$
