
 OpenBabel03212521083D

 34 37  0  0  0  0  0  0  0  0999 V2000
   40.1600   75.0920   58.2970 C   0  0  0  0  0  0  0  0  0  0  0  0
   39.1800   75.9970   57.8970 C   0  0  0  0  0  0  0  0  0  0  0  0
   39.1050   77.2640   58.4540 C   0  0  0  0  0  0  0  0  0  0  0  0
   40.0300   77.6350   59.4330 C   0  0  0  0  0  0  0  0  0  0  0  0
   41.0010   76.7250   59.8240 C   0  0  0  0  0  0  0  0  0  0  0  0
   41.0680   75.4750   59.2680 C   0  0  0  0  0  0  0  0  0  0  0  0
   38.4420   75.7440   57.1380 H   0  0  0  0  0  0  0  0  0  0  0  0
   38.3360   77.9710   58.1400 H   0  0  0  0  0  0  0  0  0  0  0  0
   40.0170   78.5970   59.8950 H   0  0  0  0  0  0  0  0  0  0  0  0
   41.7310   77.0020   60.5880 H   0  0  0  0  0  0  0  0  0  0  0  0
   39.3960   71.5860   57.5950 C   0  0  0  0  0  0  0  0  0  0  0  0
   40.2520   71.2920   56.5310 C   0  0  0  0  0  0  0  0  0  0  0  0
   41.1020   72.3080   56.0480 C   0  0  0  0  0  0  0  0  0  0  0  0
   41.0420   73.5260   56.6460 N   0  0  0  0  0  0  0  0  0  0  0  0
   40.1950   73.7800   57.6830 C   0  0  0  0  0  0  0  0  0  0  0  0
   39.4010   72.8140   58.1290 N   0  0  0  0  0  0  0  0  0  0  0  0
   38.7490   70.7940   57.9560 H   0  0  0  0  0  0  0  0  0  0  0  0
   40.3090   70.3220   56.0430 H   0  0  0  0  0  0  0  0  0  0  0  0
   41.7830   72.1280   55.2240 H   0  0  0  0  0  0  0  0  0  0  0  0
   42.1080   74.5570   59.7130 C   0  0  0  0  0  0  0  0  0  0  0  0
   43.3750   74.9890   59.3240 C   0  0  0  0  0  0  0  0  0  0  0  0
   44.5030   74.2400   59.6580 C   0  0  0  0  0  0  0  0  0  0  0  0
   44.3130   73.1150   60.3520 N   0  0  0  0  0  0  0  0  0  0  0  0
   43.0790   72.6960   60.7300 C   0  0  0  0  0  0  0  0  0  0  0  0
   41.9990   73.4170   60.4090 N   0  0  0  0  0  0  0  0  0  0  0  0
   43.5960   75.8900   58.7610 H   0  0  0  0  0  0  0  0  0  0  0  0
   45.4990   74.5520   59.3680 H   0  0  0  0  0  0  0  0  0  0  0  0
   42.8390   71.4690   61.4910 C   0  0  0  0  0  0  0  0  0  0  0  0
   41.9940   71.5900   62.5810 C   0  0  0  0  0  3  0  0  0  0  0  0
   41.7120   70.4780   63.3560 C   0  0  0  0  0  0  0  0  0  0  0  0
   41.0610   70.4930   64.2210 H   0  0  0  0  0  0  0  0  0  0  0  0
   42.2820   69.3010   63.0140 N   0  0  0  0  0  0  0  0  0  0  0  0
   43.1090   69.2070   61.9410 C   0  0  0  0  0  3  0  0  0  0  0  0
   43.3830   70.2880   61.1880 N   0  0  0  0  0  0  0  0  0  0  0  0
  1  6  1  0  0  0  0
  2  1  2  0  0  0  0
  2  3  1  0  0  0  0
  3  4  2  0  0  0  0
  4  5  1  0  0  0  0
  4  9  1  0  0  0  0
  5 10  1  0  0  0  0
  6 20  1  0  0  0  0
  6  5  2  0  0  0  0
  7  2  1  0  0  0  0
  8  3  1  0  0  0  0
 11 17  1  0  0  0  0
 11 16  1  0  0  0  0
 12 11  2  0  0  0  0
 13 12  1  0  0  0  0
 13 14  2  0  0  0  0
 14 15  1  0  0  0  0
 15 16  2  0  0  0  0
 15  1  1  0  0  0  0
 18 12  1  0  0  0  0
 19 13  1  0  0  0  0
 20 25  1  0  0  0  0
 21 22  1  0  0  0  0
 21 20  2  0  0  0  0
 22 23  2  0  0  0  0
 23 24  1  0  0  0  0
 24 28  1  0  0  0  0
 25 24  2  0  0  0  0
 26 21  1  0  0  0  0
 27 22  1  0  0  0  0
 28 29  1  0  0  0  0
 29 30  2  0  0  0  0
 30 31  1  0  0  0  0
 32 30  1  0  0  0  0
 33 32  2  0  0  0  0
 34 28  2  0  0  0  0
 34 33  1  0  0  0  0
M  END
>  <minimizedAffinity>
-5.90844488

$$$$

 OpenBabel03212521083D

 34 37  0  0  0  0  0  0  0  0999 V2000
   42.2710   72.6810   60.2830 C   0  0  0  0  0  0  0  0  0  0  0  0
   42.9350   71.6420   60.9310 C   0  0  0  0  0  0  0  0  0  0  0  0
   42.4400   71.0980   62.1060 C   0  0  0  0  0  0  0  0  0  0  0  0
   41.2560   71.6050   62.6470 C   0  0  0  0  0  0  0  0  0  0  0  0
   40.6040   72.6410   61.9950 C   0  0  0  0  0  0  0  0  0  0  0  0
   41.0990   73.1720   60.8330 C   0  0  0  0  0  0  0  0  0  0  0  0
   43.8600   71.2220   60.5400 H   0  0  0  0  0  0  0  0  0  0  0  0
   42.9620   70.2850   62.6110 H   0  0  0  0  0  0  0  0  0  0  0  0
   40.8320   71.2230   63.5490 H   0  0  0  0  0  0  0  0  0  0  0  0
   39.6770   73.0460   62.4070 H   0  0  0  0  0  0  0  0  0  0  0  0
   43.0810   73.0670   56.7390 C   0  0  0  0  0  0  0  0  0  0  0  0
   43.8810   74.2110   56.7300 C   0  0  0  0  0  0  0  0  0  0  0  0
   44.1470   74.8580   57.9530 C   0  0  0  0  0  0  0  0  0  0  0  0
   43.6070   74.3330   59.0830 N   0  0  0  0  0  0  0  0  0  0  0  0
   42.8290   73.2140   59.0570 C   0  0  0  0  0  0  0  0  0  0  0  0
   42.5870   72.6130   57.8980 N   0  0  0  0  0  0  0  0  0  0  0  0
   42.8850   72.5790   55.7900 H   0  0  0  0  0  0  0  0  0  0  0  0
   44.3190   74.6430   55.8330 H   0  0  0  0  0  0  0  0  0  0  0  0
   44.7620   75.7510   57.9960 H   0  0  0  0  0  0  0  0  0  0  0  0
   40.3760   74.2580   60.1860 C   0  0  0  0  0  0  0  0  0  0  0  0
   40.3670   75.4090   60.9730 C   0  0  0  0  0  0  0  0  0  0  0  0
   39.7210   76.5600   60.5220 C   0  0  0  0  0  0  0  0  0  0  0  0
   39.1270   76.5060   59.3270 N   0  0  0  0  0  0  0  0  0  0  0  0
   39.1360   75.3840   58.5630 C   0  0  0  0  0  0  0  0  0  0  0  0
   39.7570   74.2820   58.9980 N   0  0  0  0  0  0  0  0  0  0  0  0
   40.8290   75.5180   61.9480 H   0  0  0  0  0  0  0  0  0  0  0  0
   39.6990   77.4680   61.1120 H   0  0  0  0  0  0  0  0  0  0  0  0
   38.4940   75.2940   57.2510 C   0  0  0  0  0  0  0  0  0  0  0  0
   39.2070   74.6200   56.2740 C   0  0  0  0  0  3  0  0  0  0  0  0
   38.6730   74.4870   55.0040 C   0  0  0  0  0  0  0  0  0  0  0  0
   39.1700   73.9750   54.1900 H   0  0  0  0  0  0  0  0  0  0  0  0
   37.4580   75.0300   54.7630 N   0  0  0  0  0  0  0  0  0  0  0  0
   36.7770   75.6860   55.7370 C   0  0  0  0  0  3  0  0  0  0  0  0
   37.2960   75.8160   56.9720 N   0  0  0  0  0  0  0  0  0  0  0  0
  1  6  2  0  0  0  0
  1  2  1  0  0  0  0
  2  3  2  0  0  0  0
  3  8  1  0  0  0  0
  3  4  1  0  0  0  0
  4  9  1  0  0  0  0
  5 10  1  0  0  0  0
  5  4  2  0  0  0  0
  6  5  1  0  0  0  0
  7  2  1  0  0  0  0
 11 16  1  0  0  0  0
 12 11  2  0  0  0  0
 12 13  1  0  0  0  0
 13 19  1  0  0  0  0
 13 14  2  0  0  0  0
 15 14  1  0  0  0  0
 15  1  1  0  0  0  0
 16 15  2  0  0  0  0
 17 11  1  0  0  0  0
 18 12  1  0  0  0  0
 20  6  1  0  0  0  0
 20 21  1  0  0  0  0
 21 26  1  0  0  0  0
 22 21  2  0  0  0  0
 22 27  1  0  0  0  0
 23 22  1  0  0  0  0
 24 25  1  0  0  0  0
 24 23  2  0  0  0  0
 25 20  2  0  0  0  0
 28 24  1  0  0  0  0
 29 28  2  0  0  0  0
 30 29  1  0  0  0  0
 31 30  1  0  0  0  0
 32 30  2  0  0  0  0
 32 33  1  0  0  0  0
 33 34  2  0  0  0  0
 34 28  1  0  0  0  0
M  END
>  <minimizedAffinity>
-5.75212002

$$$$

 OpenBabel03212521083D

 34 37  0  0  0  0  0  0  0  0999 V2000
   41.0780   74.4790   59.9420 C   0  0  0  0  0  0  0  0  0  0  0  0
   40.5620   75.7280   60.2790 C   0  0  0  0  0  0  0  0  0  0  0  0
   39.3300   75.8500   60.9030 C   0  0  0  0  0  0  0  0  0  0  0  0
   38.5970   74.6980   61.1970 C   0  0  0  0  0  0  0  0  0  0  0  0
   39.1200   73.4590   60.8560 C   0  0  0  0  0  0  0  0  0  0  0  0
   40.3380   73.3480   60.2400 C   0  0  0  0  0  0  0  0  0  0  0  0
   41.1030   76.6490   60.0660 H   0  0  0  0  0  0  0  0  0  0  0  0
   38.9280   76.8290   61.1660 H   0  0  0  0  0  0  0  0  0  0  0  0
   37.6440   74.7340   61.6770 H   0  0  0  0  0  0  0  0  0  0  0  0
   38.5580   72.5500   61.0810 H   0  0  0  0  0  0  0  0  0  0  0  0
   43.6390   74.5480   57.3350 C   0  0  0  0  0  0  0  0  0  0  0  0
   44.8090   74.2720   58.0460 C   0  0  0  0  0  0  0  0  0  0  0  0
   44.7190   74.0600   59.4360 C   0  0  0  0  0  0  0  0  0  0  0  0
   43.4930   74.1360   60.0150 N   0  0  0  0  0  0  0  0  0  0  0  0
   42.3700   74.4070   59.2910 C   0  0  0  0  0  0  0  0  0  0  0  0
   42.4690   74.6050   57.9820 N   0  0  0  0  0  0  0  0  0  0  0  0
   43.7240   74.7090   56.2650 H   0  0  0  0  0  0  0  0  0  0  0  0
   45.7970   74.2090   57.5960 H   0  0  0  0  0  0  0  0  0  0  0  0
   45.5990   73.8430   60.0320 H   0  0  0  0  0  0  0  0  0  0  0  0
   40.8440   72.0230   59.9030 C   0  0  0  0  0  0  0  0  0  0  0  0
   40.4330   71.6250   58.6330 C   0  0  0  0  0  0  0  0  0  0  0  0
   40.8180   70.3820   58.1300 C   0  0  0  0  0  0  0  0  0  0  0  0
   41.5820   69.6120   58.9090 N   0  0  0  0  0  0  0  0  0  0  0  0
   41.9810   70.0020   60.1460 C   0  0  0  0  0  0  0  0  0  0  0  0
   41.6100   71.1950   60.6250 N   0  0  0  0  0  0  0  0  0  0  0  0
   39.8150   72.2020   57.9520 H   0  0  0  0  0  0  0  0  0  0  0  0
   40.5130   70.0480   57.1470 H   0  0  0  0  0  0  0  0  0  0  0  0
   42.8170   69.1800   61.0230 C   0  0  0  0  0  0  0  0  0  0  0  0
   42.8420   69.5520   62.3560 C   0  0  0  0  0  3  0  0  0  0  0  0
   43.6080   68.8290   63.2550 C   0  0  0  0  0  0  0  0  0  0  0  0
   43.6770   69.0560   64.3110 H   0  0  0  0  0  0  0  0  0  0  0  0
   44.3120   67.7720   62.7880 N   0  0  0  0  0  0  0  0  0  0  0  0
   44.2720   67.4280   61.4750 C   0  0  0  0  0  3  0  0  0  0  0  0
   43.5280   68.1310   60.6010 N   0  0  0  0  0  0  0  0  0  0  0  0
  1  6  2  0  0  0  0
  1  2  1  0  0  0  0
  2  3  2  0  0  0  0
  3  8  1  0  0  0  0
  3  4  1  0  0  0  0
  4  9  1  0  0  0  0
  5 10  1  0  0  0  0
  5  4  2  0  0  0  0
  6  5  1  0  0  0  0
  7  2  1  0  0  0  0
 11 16  2  0  0  0  0
 11 12  1  0  0  0  0
 12 13  2  0  0  0  0
 13 14  1  0  0  0  0
 13 19  1  0  0  0  0
 15  1  1  0  0  0  0
 15 14  2  0  0  0  0
 16 15  1  0  0  0  0
 17 11  1  0  0  0  0
 18 12  1  0  0  0  0
 20  6  1  0  0  0  0
 20 25  1  0  0  0  0
 21 20  2  0  0  0  0
 22 21  1  0  0  0  0
 22 23  2  0  0  0  0
 23 24  1  0  0  0  0
 24 25  2  0  0  0  0
 24 28  1  0  0  0  0
 26 21  1  0  0  0  0
 27 22  1  0  0  0  0
 28 29  1  0  0  0  0
 29 30  2  0  0  0  0
 30 31  1  0  0  0  0
 32 30  1  0  0  0  0
 33 32  2  0  0  0  0
 34 28  2  0  0  0  0
 34 33  1  0  0  0  0
M  END
>  <minimizedAffinity>
-5.68680096

$$$$

 OpenBabel03212521083D

 34 37  0  0  0  0  0  0  0  0999 V2000
   40.4360   74.9330   57.6290 C   0  0  0  0  0  0  0  0  0  0  0  0
   39.6510   75.2780   56.5320 C   0  0  0  0  0  0  0  0  0  0  0  0
   40.0270   74.9320   55.2440 C   0  0  0  0  0  0  0  0  0  0  0  0
   41.2150   74.2250   55.0470 C   0  0  0  0  0  0  0  0  0  0  0  0
   41.9910   73.8870   56.1470 C   0  0  0  0  0  0  0  0  0  0  0  0
   41.6120   74.2330   57.4170 C   0  0  0  0  0  0  0  0  0  0  0  0
   38.7190   75.8290   56.6460 H   0  0  0  0  0  0  0  0  0  0  0  0
   39.4110   75.2040   54.3870 H   0  0  0  0  0  0  0  0  0  0  0  0
   41.5520   73.9330   54.0770 H   0  0  0  0  0  0  0  0  0  0  0  0
   42.9220   73.3330   56.0070 H   0  0  0  0  0  0  0  0  0  0  0  0
   40.0280   76.8660   60.7050 C   0  0  0  0  0  0  0  0  0  0  0  0
   39.1760   76.0590   61.4640 C   0  0  0  0  0  0  0  0  0  0  0  0
   38.7370   74.8380   60.9140 C   0  0  0  0  0  0  0  0  0  0  0  0
   39.1660   74.5080   59.6700 N   0  0  0  0  0  0  0  0  0  0  0  0
   39.9980   75.3180   58.9550 C   0  0  0  0  0  0  0  0  0  0  0  0
   40.4050   76.4660   59.4840 N   0  0  0  0  0  0  0  0  0  0  0  0
   40.3590   77.8030   61.1410 H   0  0  0  0  0  0  0  0  0  0  0  0
   38.8240   76.3120   62.4610 H   0  0  0  0  0  0  0  0  0  0  0  0
   38.0740   74.1790   61.4650 H   0  0  0  0  0  0  0  0  0  0  0  0
   42.4600   73.8530   58.5380 C   0  0  0  0  0  0  0  0  0  0  0  0
   43.5700   74.6890   58.6480 C   0  0  0  0  0  0  0  0  0  0  0  0
   44.5030   74.4850   59.6640 C   0  0  0  0  0  0  0  0  0  0  0  0
   44.2850   73.4720   60.5070 N   0  0  0  0  0  0  0  0  0  0  0  0
   43.2040   72.6580   60.3980 C   0  0  0  0  0  0  0  0  0  0  0  0
   42.3100   72.8580   59.4220 N   0  0  0  0  0  0  0  0  0  0  0  0
   43.8040   75.5270   57.9980 H   0  0  0  0  0  0  0  0  0  0  0  0
   45.3740   75.1190   59.7720 H   0  0  0  0  0  0  0  0  0  0  0  0
   42.9380   71.5410   61.3050 C   0  0  0  0  0  0  0  0  0  0  0  0
   42.0060   71.7810   62.3010 C   0  0  0  0  0  3  0  0  0  0  0  0
   41.6940   70.7780   63.2030 C   0  0  0  0  0  0  0  0  0  0  0  0
   40.9760   70.8890   64.0060 H   0  0  0  0  0  0  0  0  0  0  0  0
   42.3210   69.5860   63.0740 N   0  0  0  0  0  0  0  0  0  0  0  0
   43.2310   69.3750   62.0890 C   0  0  0  0  0  3  0  0  0  0  0  0
   43.5350   70.3500   61.2130 N   0  0  0  0  0  0  0  0  0  0  0  0
  1 15  1  0  0  0  0
  2  7  1  0  0  0  0
  2  1  2  0  0  0  0
  3  2  1  0  0  0  0
  4  3  2  0  0  0  0
  4  5  1  0  0  0  0
  5  6  2  0  0  0  0
  6  1  1  0  0  0  0
  6 20  1  0  0  0  0
  8  3  1  0  0  0  0
  9  4  1  0  0  0  0
 10  5  1  0  0  0  0
 11 17  1  0  0  0  0
 11 12  1  0  0  0  0
 12 18  1  0  0  0  0
 13 12  2  0  0  0  0
 13 19  1  0  0  0  0
 14 13  1  0  0  0  0
 15 16  1  0  0  0  0
 15 14  2  0  0  0  0
 16 11  2  0  0  0  0
 20 21  2  0  0  0  0
 20 25  1  0  0  0  0
 21 22  1  0  0  0  0
 22 27  1  0  0  0  0
 22 23  2  0  0  0  0
 24 23  1  0  0  0  0
 24 28  1  0  0  0  0
 25 24  2  0  0  0  0
 26 21  1  0  0  0  0
 28 29  1  0  0  0  0
 29 30  2  0  0  0  0
 30 31  1  0  0  0  0
 32 30  1  0  0  0  0
 33 32  2  0  0  0  0
 34 28  2  0  0  0  0
 34 33  1  0  0  0  0
M  END
>  <minimizedAffinity>
-5.68352652

$$$$

 OpenBabel03212521083D

 34 37  0  0  0  0  0  0  0  0999 V2000
   38.1720   75.3050   56.9590 C   0  0  0  0  0  0  0  0  0  0  0  0
   37.2070   76.1790   56.4660 C   0  0  0  0  0  0  0  0  0  0  0  0
   36.8990   76.2180   55.1150 C   0  0  0  0  0  0  0  0  0  0  0  0
   37.5710   75.3660   54.2370 C   0  0  0  0  0  0  0  0  0  0  0  0
   38.5320   74.5000   54.7390 C   0  0  0  0  0  0  0  0  0  0  0  0
   38.8310   74.4670   56.0750 C   0  0  0  0  0  0  0  0  0  0  0  0
   36.6620   76.8580   57.1190 H   0  0  0  0  0  0  0  0  0  0  0  0
   36.1420   76.9030   54.7310 H   0  0  0  0  0  0  0  0  0  0  0  0
   37.3740   75.3550   53.1880 H   0  0  0  0  0  0  0  0  0  0  0  0
   39.0660   73.8280   54.0630 H   0  0  0  0  0  0  0  0  0  0  0  0
   39.4610   76.3250   60.2250 C   0  0  0  0  0  0  0  0  0  0  0  0
   39.0020   75.3100   61.0670 C   0  0  0  0  0  0  0  0  0  0  0  0
   38.2420   74.2630   60.5090 C   0  0  0  0  0  0  0  0  0  0  0  0
   37.9940   74.2970   59.1750 N   0  0  0  0  0  0  0  0  0  0  0  0
   38.4570   75.3030   58.3800 C   0  0  0  0  0  0  0  0  0  0  0  0
   39.1720   76.2830   58.9180 N   0  0  0  0  0  0  0  0  0  0  0  0
   40.0460   77.1250   60.6680 H   0  0  0  0  0  0  0  0  0  0  0  0
   39.1930   75.2710   62.1370 H   0  0  0  0  0  0  0  0  0  0  0  0
   37.8630   73.4530   61.1230 H   0  0  0  0  0  0  0  0  0  0  0  0
   39.8470   73.5390   56.5520 C   0  0  0  0  0  0  0  0  0  0  0  0
   39.5820   72.2330   56.1420 C   0  0  0  0  0  0  0  0  0  0  0  0
   40.4450   71.1980   56.5020 C   0  0  0  0  0  0  0  0  0  0  0  0
   41.5130   71.5140   57.2400 N   0  0  0  0  0  0  0  0  0  0  0  0
   41.7680   72.7860   57.6380 C   0  0  0  0  0  0  0  0  0  0  0  0
   40.9390   73.7770   57.2910 N   0  0  0  0  0  0  0  0  0  0  0  0
   38.7360   71.9120   55.5440 H   0  0  0  0  0  0  0  0  0  0  0  0
   40.2630   70.1750   56.1980 H   0  0  0  0  0  0  0  0  0  0  0  0
   42.9290   73.1620   58.4470 C   0  0  0  0  0  0  0  0  0  0  0  0
   44.1160   73.3350   57.7560 C   0  0  0  0  0  3  0  0  0  0  0  0
   45.2640   73.6920   58.4430 C   0  0  0  0  0  0  0  0  0  0  0  0
   46.2270   73.8460   57.9740 H   0  0  0  0  0  0  0  0  0  0  0  0
   45.1780   73.8610   59.7830 N   0  0  0  0  0  0  0  0  0  0  0  0
   44.0020   73.6860   60.4380 C   0  0  0  0  0  3  0  0  0  0  0  0
   42.8870   73.3380   59.7700 N   0  0  0  0  0  0  0  0  0  0  0  0
  1 15  1  0  0  0  0
  2  1  1  0  0  0  0
  2  7  1  0  0  0  0
  3  2  2  0  0  0  0
  4  5  2  0  0  0  0
  4  3  1  0  0  0  0
  5  6  1  0  0  0  0
  6 20  1  0  0  0  0
  6  1  2  0  0  0  0
  8  3  1  0  0  0  0
  9  4  1  0  0  0  0
 10  5  1  0  0  0  0
 11 17  1  0  0  0  0
 11 12  1  0  0  0  0
 12 18  1  0  0  0  0
 13 12  2  0  0  0  0
 13 19  1  0  0  0  0
 14 13  1  0  0  0  0
 15 16  1  0  0  0  0
 15 14  2  0  0  0  0
 16 11  2  0  0  0  0
 20 25  1  0  0  0  0
 21 22  1  0  0  0  0
 21 20  2  0  0  0  0
 22 23  2  0  0  0  0
 23 24  1  0  0  0  0
 24 28  1  0  0  0  0
 25 24  2  0  0  0  0
 26 21  1  0  0  0  0
 27 22  1  0  0  0  0
 28 34  1  0  0  0  0
 29 30  1  0  0  0  0
 29 28  2  0  0  0  0
 30 32  2  0  0  0  0
 31 30  1  0  0  0  0
 32 33  1  0  0  0  0
 34 33  2  0  0  0  0
M  END
>  <minimizedAffinity>
-5.59112453

$$$$

 OpenBabel03212521083D

 34 37  0  0  0  0  0  0  0  0999 V2000
   41.9020   71.7470   59.9290 C   0  0  0  0  0  0  0  0  0  0  0  0
   42.1350   70.6690   60.7790 C   0  0  0  0  0  0  0  0  0  0  0  0
   42.0200   70.8030   62.1540 C   0  0  0  0  0  0  0  0  0  0  0  0
   41.6660   72.0420   62.6920 C   0  0  0  0  0  0  0  0  0  0  0  0
   41.4380   73.1100   61.8350 C   0  0  0  0  0  0  0  0  0  0  0  0
   41.5530   72.9690   60.4780 C   0  0  0  0  0  0  0  0  0  0  0  0
   42.4120   69.6880   60.3970 H   0  0  0  0  0  0  0  0  0  0  0  0
   42.2020   69.9570   62.8180 H   0  0  0  0  0  0  0  0  0  0  0  0
   41.5640   72.2010   63.7420 H   0  0  0  0  0  0  0  0  0  0  0  0
   41.1600   74.0850   62.2430 H   0  0  0  0  0  0  0  0  0  0  0  0
   41.0690   70.9500   56.4590 C   0  0  0  0  0  0  0  0  0  0  0  0
   42.2740   71.1840   55.7930 C   0  0  0  0  0  0  0  0  0  0  0  0
   43.3850   71.6200   56.5410 C   0  0  0  0  0  0  0  0  0  0  0  0
   43.2260   71.7910   57.8790 N   0  0  0  0  0  0  0  0  0  0  0  0
   42.0350   71.5540   58.4990 C   0  0  0  0  0  0  0  0  0  0  0  0
   40.9960   71.1430   57.7820 N   0  0  0  0  0  0  0  0  0  0  0  0
   40.2220   70.6140   55.8700 H   0  0  0  0  0  0  0  0  0  0  0  0
   42.4150   71.0510   54.7230 H   0  0  0  0  0  0  0  0  0  0  0  0
   44.3410   71.8150   56.0680 H   0  0  0  0  0  0  0  0  0  0  0  0
   41.3020   74.1210   59.6220 C   0  0  0  0  0  0  0  0  0  0  0  0
   42.4050   74.9720   59.5720 C   0  0  0  0  0  0  0  0  0  0  0  0
   42.3570   76.1340   58.8010 C   0  0  0  0  0  0  0  0  0  0  0  0
   41.2300   76.3830   58.1300 N   0  0  0  0  0  0  0  0  0  0  0  0
   40.1580   75.5530   58.1800 C   0  0  0  0  0  0  0  0  0  0  0  0
   40.2070   74.4380   58.9200 N   0  0  0  0  0  0  0  0  0  0  0  0
   43.3460   74.8280   60.0910 H   0  0  0  0  0  0  0  0  0  0  0  0
   43.1990   76.8130   58.7450 H   0  0  0  0  0  0  0  0  0  0  0  0
   38.9100   75.7980   57.4560 C   0  0  0  0  0  0  0  0  0  0  0  0
   38.7800   77.0530   56.8850 C   0  0  0  0  0  3  0  0  0  0  0  0
   37.6300   77.3690   56.1810 C   0  0  0  0  0  0  0  0  0  0  0  0
   37.4570   78.3270   55.7060 H   0  0  0  0  0  0  0  0  0  0  0  0
   36.6660   76.4270   56.0770 N   0  0  0  0  0  0  0  0  0  0  0  0
   36.8160   75.2040   56.6460 C   0  0  0  0  0  3  0  0  0  0  0  0
   37.9330   74.8960   57.3310 N   0  0  0  0  0  0  0  0  0  0  0  0
  1  6  2  0  0  0  0
  1  2  1  0  0  0  0
  2  3  2  0  0  0  0
  3  4  1  0  0  0  0
  3  8  1  0  0  0  0
  4  9  1  0  0  0  0
  5 10  1  0  0  0  0
  5  4  2  0  0  0  0
  6  5  1  0  0  0  0
  7  2  1  0  0  0  0
 11 16  1  0  0  0  0
 12 11  2  0  0  0  0
 12 13  1  0  0  0  0
 13 14  2  0  0  0  0
 14 15  1  0  0  0  0
 15  1  1  0  0  0  0
 16 15  2  0  0  0  0
 17 11  1  0  0  0  0
 18 12  1  0  0  0  0
 19 13  1  0  0  0  0
 20  6  1  0  0  0  0
 21 20  1  0  0  0  0
 21 26  1  0  0  0  0
 22 21  2  0  0  0  0
 23 24  2  0  0  0  0
 23 22  1  0  0  0  0
 24 25  1  0  0  0  0
 25 20  2  0  0  0  0
 27 22  1  0  0  0  0
 28 24  1  0  0  0  0
 29 28  2  0  0  0  0
 30 29  1  0  0  0  0
 31 30  1  0  0  0  0
 32 30  2  0  0  0  0
 32 33  1  0  0  0  0
 33 34  2  0  0  0  0
 34 28  1  0  0  0  0
M  END
>  <minimizedAffinity>
-5.48654079

$$$$

 OpenBabel03212521083D

 34 37  0  0  0  0  0  0  0  0999 V2000
   42.1610   68.4900   61.1080 C   0  0  0  0  0  0  0  0  0  0  0  0
   42.5000   67.5770   62.1040 C   0  0  0  0  0  0  0  0  0  0  0  0
   42.4300   66.2110   61.8770 C   0  0  0  0  0  0  0  0  0  0  0  0
   42.0100   65.7470   60.6290 C   0  0  0  0  0  0  0  0  0  0  0  0
   41.6730   66.6650   59.6450 C   0  0  0  0  0  0  0  0  0  0  0  0
   41.7460   68.0130   59.8770 C   0  0  0  0  0  0  0  0  0  0  0  0
   42.8310   67.9000   63.0890 H   0  0  0  0  0  0  0  0  0  0  0  0
   42.6960   65.4980   62.6590 H   0  0  0  0  0  0  0  0  0  0  0  0
   41.9380   64.7060   60.4010 H   0  0  0  0  0  0  0  0  0  0  0  0
   41.3440   66.3160   58.6640 H   0  0  0  0  0  0  0  0  0  0  0  0
   41.4920   71.7610   62.5960 C   0  0  0  0  0  0  0  0  0  0  0  0
   42.4130   72.5870   61.9490 C   0  0  0  0  0  0  0  0  0  0  0  0
   43.2740   72.0160   60.9900 C   0  0  0  0  0  0  0  0  0  0  0  0
   43.1630   70.6850   60.7460 N   0  0  0  0  0  0  0  0  0  0  0  0
   42.2520   69.9070   61.3960 C   0  0  0  0  0  0  0  0  0  0  0  0
   41.4460   70.4570   62.2960 N   0  0  0  0  0  0  0  0  0  0  0  0
   40.8350   72.2150   63.3310 H   0  0  0  0  0  0  0  0  0  0  0  0
   42.5130   73.6540   62.1350 H   0  0  0  0  0  0  0  0  0  0  0  0
   44.0070   72.6170   60.4620 H   0  0  0  0  0  0  0  0  0  0  0  0
   41.3820   68.9360   58.8100 C   0  0  0  0  0  0  0  0  0  0  0  0
   41.9930   68.5930   57.6050 C   0  0  0  0  0  0  0  0  0  0  0  0
   41.7660   69.3610   56.4620 C   0  0  0  0  0  0  0  0  0  0  0  0
   40.9540   70.4150   56.5790 N   0  0  0  0  0  0  0  0  0  0  0  0
   40.3620   70.7470   57.7530 C   0  0  0  0  0  0  0  0  0  0  0  0
   40.5800   70.0080   58.8470 N   0  0  0  0  0  0  0  0  0  0  0  0
   42.6600   67.7530   57.4440 H   0  0  0  0  0  0  0  0  0  0  0  0
   42.2280   69.1180   55.5130 H   0  0  0  0  0  0  0  0  0  0  0  0
   39.4670   71.8950   57.9120 C   0  0  0  0  0  0  0  0  0  0  0  0
   39.6570   72.6550   59.0540 C   0  0  0  0  0  3  0  0  0  0  0  0
   38.8540   73.7600   59.2830 C   0  0  0  0  0  0  0  0  0  0  0  0
   38.9420   74.4010   60.1500 H   0  0  0  0  0  0  0  0  0  0  0  0
   37.9040   74.0580   58.3680 N   0  0  0  0  0  0  0  0  0  0  0  0
   37.7370   73.2980   57.2560 C   0  0  0  0  0  3  0  0  0  0  0  0
   38.5160   72.2230   57.0330 N   0  0  0  0  0  0  0  0  0  0  0  0
  1 15  1  0  0  0  0
  1  2  1  0  0  0  0
  2  7  1  0  0  0  0
  3  2  2  0  0  0  0
  3  8  1  0  0  0  0
  4  3  1  0  0  0  0
  5  6  1  0  0  0  0
  5  4  2  0  0  0  0
  6  1  2  0  0  0  0
  9  4  1  0  0  0  0
 10  5  1  0  0  0  0
 11 17  1  0  0  0  0
 12 18  1  0  0  0  0
 12 11  2  0  0  0  0
 13 12  1  0  0  0  0
 14 13  2  0  0  0  0
 14 15  1  0  0  0  0
 15 16  2  0  0  0  0
 16 11  1  0  0  0  0
 19 13  1  0  0  0  0
 20 25  1  0  0  0  0
 20  6  1  0  0  0  0
 21 20  2  0  0  0  0
 22 23  2  0  0  0  0
 22 21  1  0  0  0  0
 23 24  1  0  0  0  0
 24 28  1  0  0  0  0
 24 25  2  0  0  0  0
 26 21  1  0  0  0  0
 27 22  1  0  0  0  0
 28 29  1  0  0  0  0
 29 30  2  0  0  0  0
 30 31  1  0  0  0  0
 32 30  1  0  0  0  0
 33 32  2  0  0  0  0
 34 33  1  0  0  0  0
 34 28  2  0  0  0  0
M  END
>  <minimizedAffinity>
-5.46856403

$$$$

 OpenBabel03212521083D

 34 37  0  0  0  0  0  0  0  0999 V2000
   41.4790   75.2050   59.7340 C   0  0  0  0  0  0  0  0  0  0  0  0
   41.0430   76.5210   59.6030 C   0  0  0  0  0  0  0  0  0  0  0  0
   39.9470   76.9860   60.3130 C   0  0  0  0  0  0  0  0  0  0  0  0
   39.2710   76.1170   61.1720 C   0  0  0  0  0  0  0  0  0  0  0  0
   39.7130   74.8080   61.2930 C   0  0  0  0  0  0  0  0  0  0  0  0
   40.7970   74.3560   60.5890 C   0  0  0  0  0  0  0  0  0  0  0  0
   41.5440   77.2270   58.9440 H   0  0  0  0  0  0  0  0  0  0  0  0
   39.6070   78.0170   60.2080 H   0  0  0  0  0  0  0  0  0  0  0  0
   38.4210   76.4230   61.7410 H   0  0  0  0  0  0  0  0  0  0  0  0
   39.1940   74.1180   61.9620 H   0  0  0  0  0  0  0  0  0  0  0  0
   44.8940   74.1950   58.9080 C   0  0  0  0  0  0  0  0  0  0  0  0
   44.8170   73.9440   57.5370 C   0  0  0  0  0  0  0  0  0  0  0  0
   43.5790   74.1220   56.8870 C   0  0  0  0  0  0  0  0  0  0  0  0
   42.5210   74.5310   57.6330 N   0  0  0  0  0  0  0  0  0  0  0  0
   42.6310   74.7680   58.9700 C   0  0  0  0  0  0  0  0  0  0  0  0
   43.8020   74.5970   59.5700 N   0  0  0  0  0  0  0  0  0  0  0  0
   45.8540   74.0540   59.3950 H   0  0  0  0  0  0  0  0  0  0  0  0
   45.6560   73.6150   56.9280 H   0  0  0  0  0  0  0  0  0  0  0  0
   43.4690   73.9380   55.8240 H   0  0  0  0  0  0  0  0  0  0  0  0
   41.2230   72.9720   60.7530 C   0  0  0  0  0  0  0  0  0  0  0  0
   41.7100   72.7340   62.0370 C   0  0  0  0  0  0  0  0  0  0  0  0
   42.1660   71.4640   62.3890 C   0  0  0  0  0  0  0  0  0  0  0  0
   42.1140   70.5100   61.4550 N   0  0  0  0  0  0  0  0  0  0  0  0
   41.6400   70.7440   60.2050 C   0  0  0  0  0  0  0  0  0  0  0  0
   41.2020   71.9640   59.8720 N   0  0  0  0  0  0  0  0  0  0  0  0
   41.7780   73.4630   62.8380 H   0  0  0  0  0  0  0  0  0  0  0  0
   42.5500   71.2520   63.3780 H   0  0  0  0  0  0  0  0  0  0  0  0
   41.5700   69.7200   59.1620 C   0  0  0  0  0  0  0  0  0  0  0  0
   41.7620   70.1650   57.8650 C   0  0  0  0  0  3  0  0  0  0  0  0
   41.7130   69.2630   56.8160 C   0  0  0  0  0  0  0  0  0  0  0  0
   41.8530   69.5340   55.7780 H   0  0  0  0  0  0  0  0  0  0  0  0
   41.4760   67.9630   57.1040 N   0  0  0  0  0  0  0  0  0  0  0  0
   41.2900   67.5500   58.3840 C   0  0  0  0  0  3  0  0  0  0  0  0
   41.3380   68.4270   59.4040 N   0  0  0  0  0  0  0  0  0  0  0  0
  1  6  1  0  0  0  0
  2  1  2  0  0  0  0
  2  3  1  0  0  0  0
  3  4  2  0  0  0  0
  4  5  1  0  0  0  0
  4  9  1  0  0  0  0
  5 10  1  0  0  0  0
  6 20  1  0  0  0  0
  6  5  2  0  0  0  0
  7  2  1  0  0  0  0
  8  3  1  0  0  0  0
 11 17  1  0  0  0  0
 11 16  1  0  0  0  0
 12 11  2  0  0  0  0
 13 12  1  0  0  0  0
 13 14  2  0  0  0  0
 14 15  1  0  0  0  0
 15 16  2  0  0  0  0
 15  1  1  0  0  0  0
 18 12  1  0  0  0  0
 19 13  1  0  0  0  0
 20 21  1  0  0  0  0
 21 22  2  0  0  0  0
 21 26  1  0  0  0  0
 22 27  1  0  0  0  0
 23 22  1  0  0  0  0
 24 23  2  0  0  0  0
 25 24  1  0  0  0  0
 25 20  2  0  0  0  0
 28 34  1  0  0  0  0
 28 24  1  0  0  0  0
 29 28  2  0  0  0  0
 30 32  2  0  0  0  0
 30 29  1  0  0  0  0
 31 30  1  0  0  0  0
 32 33  1  0  0  0  0
 33 34  2  0  0  0  0
M  END
>  <minimizedAffinity>
-5.46370697

$$$$

 OpenBabel03212521083D

 34 37  0  0  0  0  0  0  0  0999 V2000
   42.2680   74.2970   59.0830 C   0  0  0  0  0  0  0  0  0  0  0  0
   43.4720   74.4770   59.7590 C   0  0  0  0  0  0  0  0  0  0  0  0
   44.6870   74.3650   59.1020 C   0  0  0  0  0  0  0  0  0  0  0  0
   44.6990   74.0630   57.7380 C   0  0  0  0  0  0  0  0  0  0  0  0
   43.4940   73.8840   57.0750 C   0  0  0  0  0  0  0  0  0  0  0  0
   42.2980   73.9980   57.7310 C   0  0  0  0  0  0  0  0  0  0  0  0
   43.5030   74.7130   60.8210 H   0  0  0  0  0  0  0  0  0  0  0  0
   45.6290   74.5060   59.6330 H   0  0  0  0  0  0  0  0  0  0  0  0
   45.6060   73.9640   57.1830 H   0  0  0  0  0  0  0  0  0  0  0  0
   43.4890   73.6480   56.0080 H   0  0  0  0  0  0  0  0  0  0  0  0
   39.2850   73.4190   61.0050 C   0  0  0  0  0  0  0  0  0  0  0  0
   38.6730   74.6580   61.2060 C   0  0  0  0  0  0  0  0  0  0  0  0
   39.2910   75.8090   60.6760 C   0  0  0  0  0  0  0  0  0  0  0  0
   40.4540   75.6510   59.9950 N   0  0  0  0  0  0  0  0  0  0  0  0
   41.0250   74.4270   59.8170 C   0  0  0  0  0  0  0  0  0  0  0  0
   40.4330   73.3510   60.3200 N   0  0  0  0  0  0  0  0  0  0  0  0
   38.7970   72.5420   61.4180 H   0  0  0  0  0  0  0  0  0  0  0  0
   37.7420   74.7990   61.7500 H   0  0  0  0  0  0  0  0  0  0  0  0
   38.8540   76.7930   60.8070 H   0  0  0  0  0  0  0  0  0  0  0  0
   41.0600   73.8010   56.9890 C   0  0  0  0  0  0  0  0  0  0  0  0
   40.8290   72.4530   56.7240 C   0  0  0  0  0  0  0  0  0  0  0  0
   39.6900   72.0620   56.0210 C   0  0  0  0  0  0  0  0  0  0  0  0
   38.8510   73.0230   55.6240 N   0  0  0  0  0  0  0  0  0  0  0  0
   39.0780   74.3360   55.8830 C   0  0  0  0  0  0  0  0  0  0  0  0
   40.1710   74.7070   56.5590 N   0  0  0  0  0  0  0  0  0  0  0  0
   41.4680   71.6270   57.0180 H   0  0  0  0  0  0  0  0  0  0  0  0
   39.4860   71.0220   55.8010 H   0  0  0  0  0  0  0  0  0  0  0  0
   38.1770   75.4100   55.4610 C   0  0  0  0  0  0  0  0  0  0  0  0
   37.5420   75.2240   54.2460 C   0  0  0  0  0  3  0  0  0  0  0  0
   36.6720   76.1910   53.7710 C   0  0  0  0  0  0  0  0  0  0  0  0
   36.1390   76.1170   52.8330 H   0  0  0  0  0  0  0  0  0  0  0  0
   36.4760   77.2970   54.5260 N   0  0  0  0  0  0  0  0  0  0  0  0
   37.1110   77.4570   55.7150 C   0  0  0  0  0  3  0  0  0  0  0  0
   37.9560   76.5170   56.1760 N   0  0  0  0  0  0  0  0  0  0  0  0
  1  2  1  0  0  0  0
  1 15  1  0  0  0  0
  2  7  1  0  0  0  0
  3  8  1  0  0  0  0
  3  2  2  0  0  0  0
  4  3  1  0  0  0  0
  5  6  1  0  0  0  0
  5  4  2  0  0  0  0
  6  1  2  0  0  0  0
  9  4  1  0  0  0  0
 10  5  1  0  0  0  0
 11 12  1  0  0  0  0
 11 17  1  0  0  0  0
 12 18  1  0  0  0  0
 13 19  1  0  0  0  0
 13 12  2  0  0  0  0
 14 13  1  0  0  0  0
 15 14  2  0  0  0  0
 15 16  1  0  0  0  0
 16 11  2  0  0  0  0
 20  6  1  0  0  0  0
 21 20  1  0  0  0  0
 21 26  1  0  0  0  0
 22 21  2  0  0  0  0
 23 24  2  0  0  0  0
 23 22  1  0  0  0  0
 24 25  1  0  0  0  0
 25 20  2  0  0  0  0
 27 22  1  0  0  0  0
 28 24  1  0  0  0  0
 28 34  1  0  0  0  0
 29 28  2  0  0  0  0
 30 29  1  0  0  0  0
 30 32  2  0  0  0  0
 31 30  1  0  0  0  0
 32 33  1  0  0  0  0
 33 34  2  0  0  0  0
M  END
>  <minimizedAffinity>
-5.42002439

$$$$
