
 OpenBabel03212520443D

 16 17  0  0  0  0  0  0  0  0999 V2000
   40.2480   82.0580   61.2760 C   0  0  0  0  0  0  0  0  0  0  0  0
   40.4000   82.7150   60.0480 C   0  0  0  0  0  0  0  0  0  0  0  0
   39.7080   83.9310   59.8490 C   0  0  0  0  0  0  0  0  0  0  0  0
   38.9270   84.3900   60.8760 N   0  0  0  0  0  0  0  0  0  0  0  0
   38.8120   83.7230   62.0380 C   0  0  0  0  0  0  0  0  0  0  0  0
   39.4700   82.5600   62.2410 N   0  0  0  0  0  0  0  0  0  0  0  0
   41.0300   82.3280   59.2390 H   0  0  0  0  0  0  0  0  0  0  0  0
   39.7770   84.4920   58.9270 H   0  0  0  0  0  0  0  0  0  0  0  0
   38.2020   84.0700   62.8620 H   0  0  0  0  0  0  0  0  0  0  0  0
   40.9680   80.8030   61.4720 C   0  0  0  0  0  0  0  0  0  0  0  0
   40.2620   79.6160   61.4850 C   0  0  0  0  0  3  0  0  0  0  0  0
   40.8610   78.3710   61.6660 C   0  0  0  0  0  0  0  0  0  0  0  0
   40.2800   77.4620   61.6700 H   0  0  0  0  0  0  0  0  0  0  0  0
   42.2050   78.4190   61.8280 N   0  0  0  0  0  0  0  0  0  0  0  0
   42.9090   79.5660   61.8180 C   0  0  0  0  0  3  0  0  0  0  0  0
   42.2840   80.7650   61.6380 N   0  0  0  0  0  0  0  0  0  0  0  0
  1 10  1  0  0  0  0
  1  6  1  0  0  0  0
  2  1  2  0  0  0  0
  3  2  1  0  0  0  0
  3  4  2  0  0  0  0
  4  5  1  0  0  0  0
  5  6  2  0  0  0  0
  5  9  1  0  0  0  0
  7  2  1  0  0  0  0
  8  3  1  0  0  0  0
 10 11  2  0  0  0  0
 10 16  1  0  0  0  0
 11 12  1  0  0  0  0
 12 13  1  0  0  0  0
 12 14  2  0  0  0  0
 15 14  1  0  0  0  0
 16 15  2  0  0  0  0
M  END
>  <minimizedAffinity>
-4.24270916

>  <minimizedRMSD>
0.799706042

$$$$
