
 OpenBabel03212520463D

 18 19  0  0  0  0  0  0  0  0999 V2000
   41.6670   83.9520   60.6810 C   0  0  0  0  0  0  0  0  0  0  0  0
   40.4900   84.6940   60.8750 C   0  0  0  0  0  0  0  0  0  0  0  0
   39.3120   84.0270   61.2140 C   0  0  0  0  0  0  0  0  0  0  0  0
   39.3920   82.6720   61.3340 N   0  0  0  0  0  0  0  0  0  0  0  0
   40.5270   81.9900   61.1440 C   0  0  0  0  0  0  0  0  0  0  0  0
   41.6590   82.6130   60.8200 N   0  0  0  0  0  0  0  0  0  0  0  0
   42.7730   84.7680   60.3420 N   0  0  0  0  0  0  0  0  0  0  0  0
   40.4130   85.7540   60.7840 H   0  0  0  0  0  0  0  0  0  0  0  0
   38.3950   84.5780   61.3690 H   0  0  0  0  0  0  0  0  0  0  0  0
   42.6890   85.2360   59.4340 H   0  0  0  0  0  0  0  0  0  0  0  0
   43.6500   84.9630   60.8740 H   0  0  0  0  0  0  0  0  0  0  0  0
   40.5080   80.5380   61.2980 C   0  0  0  0  0  0  0  0  0  0  0  0
   40.4030   79.6900   60.2150 C   0  0  0  0  0  3  0  0  0  0  0  0
   40.3850   78.3000   60.3720 C   0  0  0  0  0  0  0  0  0  0  0  0
   40.3000   77.6910   59.4790 H   0  0  0  0  0  0  0  0  0  0  0  0
   40.4740   77.7710   61.6090 N   0  0  0  0  0  0  0  0  0  0  0  0
   40.5760   78.6070   62.6600 C   0  0  0  0  0  3  0  0  0  0  0  0
   40.5940   79.9640   62.5110 N   0  0  0  0  0  0  0  0  0  0  0  0
  1  6  2  0  0  0  0
  1  2  1  0  0  0  0
  2  3  2  0  0  0  0
  3  4  1  0  0  0  0
  3  9  1  0  0  0  0
  5 12  1  0  0  0  0
  5  4  2  0  0  0  0
  6  5  1  0  0  0  0
  7  1  1  0  0  0  0
  7 11  1  0  0  0  0
  8  2  1  0  0  0  0
 10  7  1  0  0  0  0
 12 18  1  0  0  0  0
 13 14  1  0  0  0  0
 13 12  2  0  0  0  0
 14 16  2  0  0  0  0
 15 14  1  0  0  0  0
 16 17  1  0  0  0  0
 18 17  2  0  0  0  0
M  END
>  <minimizedAffinity>
-3.97217393

>  <minimizedRMSD>
5.13684797

$$$$
