
 OpenBabel03212520213D

 34 36  0  0  0  0  0  0  0  0999 V2000
   38.9690   73.3200   60.5670 Cl  0  0  0  0  0  0  0  0  0  0  0  0
   40.3240   74.2240   59.9060 C   0  0  0  0  0  0  0  0  0  0  0  0
   41.6570   73.8740   60.1200 C   0  0  0  0  0  0  0  0  0  0  0  0
   42.5990   74.6880   59.5310 C   0  0  0  0  0  0  0  0  0  0  0  0
   42.3650   75.8000   58.7620 C   0  0  0  0  0  0  0  0  0  0  0  0
   41.0500   76.1160   58.5720 C   0  0  0  0  0  0  0  0  0  0  0  0
   40.5920   77.5160   57.6080 Cl  0  0  0  0  0  0  0  0  0  0  0  0
   40.0410   75.3400   59.1360 C   0  0  0  0  0  0  0  0  0  0  0  0
   43.6270   74.3750   59.7270 H   0  0  0  0  0  0  0  0  0  0  0  0
   43.1740   76.3790   58.3410 H   0  0  0  0  0  0  0  0  0  0  0  0
   42.0570   72.6650   62.3200 C   0  0  0  0  0  0  0  0  0  0  0  0
   41.9410   72.7270   60.9130 C   0  0  0  0  0  0  0  0  0  0  0  0
   42.1200   71.5380   60.2050 C   0  0  0  0  0  0  0  0  0  0  0  0
   42.3930   70.4240   60.9500 N   0  0  0  0  0  0  0  0  0  0  0  0
   42.4960   70.3960   62.2720 C   0  0  0  0  0  0  0  0  0  0  0  0
   42.3250   71.5410   62.9800 N   0  0  0  0  0  0  0  0  0  0  0  0
   41.9090   73.6130   62.8190 H   0  0  0  0  0  0  0  0  0  0  0  0
   42.0510   71.4820   59.1260 H   0  0  0  0  0  0  0  0  0  0  0  0
   42.7990   69.0680   62.8560 C   0  0  0  0  0  0  0  0  0  0  0  0
   43.9580   69.0600   63.5970 F   0  0  0  0  0  0  0  0  0  0  0  0
   41.7580   68.6560   63.6740 F   0  0  0  0  0  0  0  0  0  0  0  0
   43.0040   68.1150   61.8280 F   0  0  0  0  0  0  0  0  0  0  0  0
   38.7160   75.6890   58.9230 O   0  0  0  0  0  0  0  0  0  0  0  0
   37.9410   75.2130   57.8590 C   0  0  0  0  0  0  0  0  0  0  0  0
   37.1650   74.5620   58.2620 H   0  0  0  0  0  0  0  0  0  0  0  0
   38.5140   74.6200   57.1270 H   0  0  0  0  0  0  0  0  0  0  0  0
   37.4280   76.3420   57.1770 O   0  0  0  0  0  0  0  0  0  0  0  0
   37.0380   76.3740   55.8800 C   0  0  0  0  0  0  0  0  0  0  0  0
   36.7980   77.6200   55.3510 C   0  0  0  0  0  3  0  0  0  0  0  0
   36.3970   77.8260   54.0580 C   0  0  0  0  0  0  0  0  0  0  0  0
   36.1920   78.7650   53.5810 H   0  0  0  0  0  0  0  0  0  0  0  0
   36.2280   76.7500   53.2540 N   0  0  0  0  0  0  0  0  0  0  0  0
   36.4600   75.5210   53.7540 C   0  0  0  0  0  3  0  0  0  0  0  0
   36.8510   75.3380   55.0220 N   0  0  0  0  0  0  0  0  0  0  0  0
  2  3  1  0  0  0  0
  2  1  1  0  0  0  0
  3 12  1  0  0  0  0
  4  9  1  0  0  0  0
  4  3  2  0  0  0  0
  5  4  1  0  0  0  0
  6  5  2  0  0  0  0
  6  8  1  0  0  0  0
  7  6  1  0  0  0  0
  8  2  2  0  0  0  0
 10  5  1  0  0  0  0
 11 17  1  0  0  0  0
 11 16  1  0  0  0  0
 12 11  2  0  0  0  0
 13 12  1  0  0  0  0
 13 14  2  0  0  0  0
 14 15  1  0  0  0  0
 15 19  1  0  0  0  0
 15 16  2  0  0  0  0
 18 13  1  0  0  0  0
 19 20  1  0  0  0  0
 19 21  1  0  0  0  0
 22 19  1  0  0  0  0
 23  8  1  0  0  0  0
 24 25  1  0  0  0  0
 24 23  1  0  0  0  0
 26 24  1  0  0  0  0
 27 24  1  0  0  0  0
 28 27  1  0  0  0  0
 29 28  1  0  0  0  0
 30 29  2  0  0  0  0
 31 30  1  0  0  0  0
 32 33  2  0  0  0  0
 32 30  1  0  0  0  0
 33 34  1  0  0  0  0
 34 28  2  0  0  0  0
M  END
>  <minimizedAffinity>
-6.29267979

$$$$

 OpenBabel03212520213D

 34 36  0  0  0  0  0  0  0  0999 V2000
   39.6320   72.9730   61.5740 Cl  0  0  0  0  0  0  0  0  0  0  0  0
   41.1540   73.4080   60.8080 C   0  0  0  0  0  0  0  0  0  0  0  0
   42.2690   72.5700   60.7870 C   0  0  0  0  0  0  0  0  0  0  0  0
   43.3840   73.0610   60.1450 C   0  0  0  0  0  0  0  0  0  0  0  0
   43.5110   74.2800   59.5280 C   0  0  0  0  0  0  0  0  0  0  0  0
   42.4020   75.0760   59.5650 C   0  0  0  0  0  0  0  0  0  0  0  0
   42.4120   76.6690   58.8150 Cl  0  0  0  0  0  0  0  0  0  0  0  0
   41.2380   74.6480   60.1960 C   0  0  0  0  0  0  0  0  0  0  0  0
   44.2300   72.3730   60.1560 H   0  0  0  0  0  0  0  0  0  0  0  0
   44.4320   74.5800   59.0470 H   0  0  0  0  0  0  0  0  0  0  0  0
   42.2270   71.0230   62.8030 C   0  0  0  0  0  0  0  0  0  0  0  0
   42.1760   71.2980   61.4180 C   0  0  0  0  0  0  0  0  0  0  0  0
   42.0160   70.2130   60.5570 C   0  0  0  0  0  0  0  0  0  0  0  0
   41.9240   68.9800   61.1450 N   0  0  0  0  0  0  0  0  0  0  0  0
   41.9750   68.7520   62.4500 C   0  0  0  0  0  0  0  0  0  0  0  0
   42.1310   69.7940   63.3050 N   0  0  0  0  0  0  0  0  0  0  0  0
   42.3530   71.8980   63.4250 H   0  0  0  0  0  0  0  0  0  0  0  0
   41.9650   70.3200   59.4810 H   0  0  0  0  0  0  0  0  0  0  0  0
   41.8540   67.3300   62.8500 C   0  0  0  0  0  0  0  0  0  0  0  0
   41.8360   66.4710   61.7750 F   0  0  0  0  0  0  0  0  0  0  0  0
   42.9090   66.9720   63.6740 F   0  0  0  0  0  0  0  0  0  0  0  0
   40.6270   67.1120   63.5240 F   0  0  0  0  0  0  0  0  0  0  0  0
   40.1290   75.4810   60.2160 O   0  0  0  0  0  0  0  0  0  0  0  0
   39.0720   75.4010   59.3010 C   0  0  0  0  0  0  0  0  0  0  0  0
   38.1650   75.1390   59.8450 H   0  0  0  0  0  0  0  0  0  0  0  0
   39.2190   74.6330   58.5240 H   0  0  0  0  0  0  0  0  0  0  0  0
   38.9900   76.6530   58.6470 O   0  0  0  0  0  0  0  0  0  0  0  0
   38.4810   76.8670   57.4090 C   0  0  0  0  0  0  0  0  0  0  0  0
   39.1840   77.7360   56.6090 C   0  0  0  0  0  3  0  0  0  0  0  0
   38.8060   78.0610   55.3330 C   0  0  0  0  0  0  0  0  0  0  0  0
   39.3030   78.7280   54.6550 H   0  0  0  0  0  0  0  0  0  0  0  0
   37.6810   77.4990   54.8300 N   0  0  0  0  0  0  0  0  0  0  0  0
   36.9800   76.6450   55.5990 C   0  0  0  0  0  3  0  0  0  0  0  0
   37.3650   76.3390   56.8450 N   0  0  0  0  0  0  0  0  0  0  0  0
  2  1  1  0  0  0  0
  3  2  1  0  0  0  0
  3 12  1  0  0  0  0
  4  9  1  0  0  0  0
  4  3  2  0  0  0  0
  5  6  2  0  0  0  0
  5  4  1  0  0  0  0
  6  8  1  0  0  0  0
  7  6  1  0  0  0  0
  8 23  1  0  0  0  0
  8  2  2  0  0  0  0
 10  5  1  0  0  0  0
 11 16  1  0  0  0  0
 11 17  1  0  0  0  0
 12 11  2  0  0  0  0
 13 14  2  0  0  0  0
 13 12  1  0  0  0  0
 14 15  1  0  0  0  0
 15 19  1  0  0  0  0
 15 16  2  0  0  0  0
 18 13  1  0  0  0  0
 19 22  1  0  0  0  0
 19 21  1  0  0  0  0
 20 19  1  0  0  0  0
 24 25  1  0  0  0  0
 24 23  1  0  0  0  0
 26 24  1  0  0  0  0
 27 24  1  0  0  0  0
 28 27  1  0  0  0  0
 29 28  2  0  0  0  0
 30 29  1  0  0  0  0
 31 30  1  0  0  0  0
 32 30  2  0  0  0  0
 32 33  1  0  0  0  0
 33 34  2  0  0  0  0
 34 28  1  0  0  0  0
M  END
>  <minimizedAffinity>
-6.21271992

$$$$

 OpenBabel03212520213D

 34 36  0  0  0  0  0  0  0  0999 V2000
   39.3400   73.0950   60.0790 Cl  0  0  0  0  0  0  0  0  0  0  0  0
   40.9400   73.7590   59.7780 C   0  0  0  0  0  0  0  0  0  0  0  0
   42.0720   72.9710   59.5730 C   0  0  0  0  0  0  0  0  0  0  0  0
   43.2490   73.6480   59.3500 C   0  0  0  0  0  0  0  0  0  0  0  0
   43.4250   75.0080   59.3100 C   0  0  0  0  0  0  0  0  0  0  0  0
   42.2980   75.7520   59.5140 C   0  0  0  0  0  0  0  0  0  0  0  0
   42.3650   77.5120   59.4920 Cl  0  0  0  0  0  0  0  0  0  0  0  0
   41.0710   75.1380   59.7450 C   0  0  0  0  0  0  0  0  0  0  0  0
   44.1070   72.9910   59.1960 H   0  0  0  0  0  0  0  0  0  0  0  0
   44.3940   75.4510   59.1280 H   0  0  0  0  0  0  0  0  0  0  0  0
   41.5630   70.7050   58.5410 C   0  0  0  0  0  0  0  0  0  0  0  0
   41.9300   71.5550   59.6070 C   0  0  0  0  0  0  0  0  0  0  0  0
   42.1880   70.9570   60.8400 C   0  0  0  0  0  0  0  0  0  0  0  0
   42.0580   69.5960   60.8940 N   0  0  0  0  0  0  0  0  0  0  0  0
   41.7110   68.8220   59.8740 C   0  0  0  0  0  0  0  0  0  0  0  0
   41.4550   69.3840   58.6660 N   0  0  0  0  0  0  0  0  0  0  0  0
   41.3730   71.2190   57.6080 H   0  0  0  0  0  0  0  0  0  0  0  0
   42.4770   71.5230   61.7170 H   0  0  0  0  0  0  0  0  0  0  0  0
   41.6350   67.3730   60.1760 C   0  0  0  0  0  0  0  0  0  0  0  0
   40.7800   67.0860   61.2140 F   0  0  0  0  0  0  0  0  0  0  0  0
   41.2110   66.6720   59.0570 F   0  0  0  0  0  0  0  0  0  0  0  0
   42.9020   66.8910   60.5890 F   0  0  0  0  0  0  0  0  0  0  0  0
   39.9460   75.9230   59.9500 O   0  0  0  0  0  0  0  0  0  0  0  0
   39.2980   76.6430   58.9390 C   0  0  0  0  0  0  0  0  0  0  0  0
   40.0330   76.9050   58.1770 H   0  0  0  0  0  0  0  0  0  0  0  0
   38.8450   77.5850   59.2900 H   0  0  0  0  0  0  0  0  0  0  0  0
   38.2500   75.8270   58.4500 O   0  0  0  0  0  0  0  0  0  0  0  0
   37.9190   75.6610   57.1460 C   0  0  0  0  0  0  0  0  0  0  0  0
   38.7530   74.8530   56.4090 C   0  0  0  0  0  3  0  0  0  0  0  0
   38.5600   74.5830   55.0810 C   0  0  0  0  0  0  0  0  0  0  0  0
   39.1670   73.9660   54.4460 H   0  0  0  0  0  0  0  0  0  0  0  0
   37.4940   75.1380   54.4560 N   0  0  0  0  0  0  0  0  0  0  0  0
   36.6660   75.9310   55.1620 C   0  0  0  0  0  3  0  0  0  0  0  0
   36.8700   76.1840   56.4610 N   0  0  0  0  0  0  0  0  0  0  0  0
  2  1  1  0  0  0  0
  3 12  1  0  0  0  0
  3  2  2  0  0  0  0
  4  3  1  0  0  0  0
  5  4  2  0  0  0  0
  5  6  1  0  0  0  0
  6  8  2  0  0  0  0
  7  6  1  0  0  0  0
  8  2  1  0  0  0  0
  8 23  1  0  0  0  0
  9  4  1  0  0  0  0
 10  5  1  0  0  0  0
 11 16  2  0  0  0  0
 11 12  1  0  0  0  0
 12 13  2  0  0  0  0
 13 14  1  0  0  0  0
 13 18  1  0  0  0  0
 15 19  1  0  0  0  0
 15 14  2  0  0  0  0
 16 15  1  0  0  0  0
 17 11  1  0  0  0  0
 19 22  1  0  0  0  0
 19 20  1  0  0  0  0
 21 19  1  0  0  0  0
 24 26  1  0  0  0  0
 24 23  1  0  0  0  0
 25 24  1  0  0  0  0
 27 24  1  0  0  0  0
 28 27  1  0  0  0  0
 29 28  2  0  0  0  0
 30 29  1  0  0  0  0
 31 30  1  0  0  0  0
 32 30  2  0  0  0  0
 32 33  1  0  0  0  0
 33 34  2  0  0  0  0
 34 28  1  0  0  0  0
M  END
>  <minimizedAffinity>
-5.97545195

$$$$

 OpenBabel03212520213D

 34 36  0  0  0  0  0  0  0  0999 V2000
   43.0630   72.1190   58.6940 Cl  0  0  0  0  0  0  0  0  0  0  0  0
   42.4320   71.8460   60.3120 C   0  0  0  0  0  0  0  0  0  0  0  0
   41.3770   72.5770   60.8570 C   0  0  0  0  0  0  0  0  0  0  0  0
   41.0030   72.2380   62.1380 C   0  0  0  0  0  0  0  0  0  0  0  0
   41.5570   71.2640   62.9300 C   0  0  0  0  0  0  0  0  0  0  0  0
   42.5880   70.5660   62.3670 C   0  0  0  0  0  0  0  0  0  0  0  0
   43.3990   69.2840   63.2600 Cl  0  0  0  0  0  0  0  0  0  0  0  0
   43.0210   70.8510   61.0760 C   0  0  0  0  0  0  0  0  0  0  0  0
   40.1760   72.8370   62.5230 H   0  0  0  0  0  0  0  0  0  0  0  0
   41.1940   71.0700   63.9290 H   0  0  0  0  0  0  0  0  0  0  0  0
   41.1950   74.9410   59.9420 C   0  0  0  0  0  0  0  0  0  0  0  0
   40.7770   73.5970   60.0680 C   0  0  0  0  0  0  0  0  0  0  0  0
   39.6500   73.2100   59.3420 C   0  0  0  0  0  0  0  0  0  0  0  0
   39.0590   74.1770   58.5760 N   0  0  0  0  0  0  0  0  0  0  0  0
   39.4750   75.4320   58.4770 C   0  0  0  0  0  0  0  0  0  0  0  0
   40.5690   75.8310   59.1750 N   0  0  0  0  0  0  0  0  0  0  0  0
   42.0720   75.1890   60.5250 H   0  0  0  0  0  0  0  0  0  0  0  0
   39.2520   72.2030   59.3720 H   0  0  0  0  0  0  0  0  0  0  0  0
   38.6710   76.2980   57.5830 C   0  0  0  0  0  0  0  0  0  0  0  0
   37.3840   75.8420   57.4110 F   0  0  0  0  0  0  0  0  0  0  0  0
   38.6100   77.5870   58.0920 F   0  0  0  0  0  0  0  0  0  0  0  0
   39.2370   76.3240   56.2850 F   0  0  0  0  0  0  0  0  0  0  0  0
   44.0710   70.1250   60.5350 O   0  0  0  0  0  0  0  0  0  0  0  0
   43.9170   69.1390   59.5520 C   0  0  0  0  0  0  0  0  0  0  0  0
   44.7710   68.4640   59.6040 H   0  0  0  0  0  0  0  0  0  0  0  0
   43.8820   69.5410   58.5260 H   0  0  0  0  0  0  0  0  0  0  0  0
   42.6790   68.4960   59.7940 O   0  0  0  0  0  0  0  0  0  0  0  0
   42.4940   67.4080   60.5810 C   0  0  0  0  0  0  0  0  0  0  0  0
   41.2300   67.2450   61.0980 C   0  0  0  0  0  3  0  0  0  0  0  0
   40.8770   66.2000   61.9100 C   0  0  0  0  0  0  0  0  0  0  0  0
   39.9150   66.0100   62.3470 H   0  0  0  0  0  0  0  0  0  0  0  0
   41.8180   65.2780   62.2230 N   0  0  0  0  0  0  0  0  0  0  0  0
   43.0610   65.4210   61.7260 C   0  0  0  0  0  3  0  0  0  0  0  0
   43.3880   66.4490   60.9330 N   0  0  0  0  0  0  0  0  0  0  0  0
  1  2  1  0  0  0  0
  2  3  2  0  0  0  0
  2  8  1  0  0  0  0
  3  4  1  0  0  0  0
  4  9  1  0  0  0  0
  4  5  2  0  0  0  0
  5 10  1  0  0  0  0
  6  5  1  0  0  0  0
  6  7  1  0  0  0  0
  8  6  2  0  0  0  0
 11 12  1  0  0  0  0
 11 17  1  0  0  0  0
 12  3  1  0  0  0  0
 13 18  1  0  0  0  0
 13 12  2  0  0  0  0
 14 13  1  0  0  0  0
 15 14  2  0  0  0  0
 15 16  1  0  0  0  0
 16 11  2  0  0  0  0
 19 21  1  0  0  0  0
 19 15  1  0  0  0  0
 20 19  1  0  0  0  0
 22 19  1  0  0  0  0
 23  8  1  0  0  0  0
 24 25  1  0  0  0  0
 24 27  1  0  0  0  0
 24 23  1  0  0  0  0
 26 24  1  0  0  0  0
 27 28  1  0  0  0  0
 28 34  2  0  0  0  0
 28 29  1  0  0  0  0
 29 30  2  0  0  0  0
 30 32  1  0  0  0  0
 30 31  1  0  0  0  0
 33 32  2  0  0  0  0
 34 33  1  0  0  0  0
M  END
>  <minimizedAffinity>
-5.95236301

$$$$

 OpenBabel03212520213D

 34 36  0  0  0  0  0  0  0  0999 V2000
   40.6160   72.9440   57.0870 Cl  0  0  0  0  0  0  0  0  0  0  0  0
   40.1880   73.3930   58.7320 C   0  0  0  0  0  0  0  0  0  0  0  0
   39.2230   74.3530   59.0390 C   0  0  0  0  0  0  0  0  0  0  0  0
   39.0070   74.5870   60.3780 C   0  0  0  0  0  0  0  0  0  0  0  0
   39.6380   73.9810   61.4360 C   0  0  0  0  0  0  0  0  0  0  0  0
   40.5770   73.0460   61.1020 C   0  0  0  0  0  0  0  0  0  0  0  0
   41.4690   72.1830   62.3500 Cl  0  0  0  0  0  0  0  0  0  0  0  0
   40.8490   72.7550   59.7690 C   0  0  0  0  0  0  0  0  0  0  0  0
   38.2460   75.3460   60.5700 H   0  0  0  0  0  0  0  0  0  0  0  0
   39.4000   74.2330   62.4590 H   0  0  0  0  0  0  0  0  0  0  0  0
   37.4030   74.5510   57.2760 C   0  0  0  0  0  0  0  0  0  0  0  0
   38.5480   75.0040   57.9700 C   0  0  0  0  0  0  0  0  0  0  0  0
   39.0890   76.2270   57.5750 C   0  0  0  0  0  0  0  0  0  0  0  0
   38.4530   76.8700   56.5480 N   0  0  0  0  0  0  0  0  0  0  0  0
   37.3780   76.4190   55.9150 C   0  0  0  0  0  0  0  0  0  0  0  0
   36.8360   75.2310   56.2830 N   0  0  0  0  0  0  0  0  0  0  0  0
   37.0240   73.5980   57.6210 H   0  0  0  0  0  0  0  0  0  0  0  0
   39.9640   76.6600   58.0440 H   0  0  0  0  0  0  0  0  0  0  0  0
   36.8680   77.2930   54.8330 C   0  0  0  0  0  0  0  0  0  0  0  0
   37.8460   78.0810   54.2740 F   0  0  0  0  0  0  0  0  0  0  0  0
   36.2990   76.5270   53.8270 F   0  0  0  0  0  0  0  0  0  0  0  0
   35.9050   78.1980   55.3460 F   0  0  0  0  0  0  0  0  0  0  0  0
   41.8090   71.8010   59.4640 O   0  0  0  0  0  0  0  0  0  0  0  0
   41.5350   70.4360   59.3060 C   0  0  0  0  0  0  0  0  0  0  0  0
   41.7250   70.1660   58.2670 H   0  0  0  0  0  0  0  0  0  0  0  0
   40.4890   70.1690   59.5260 H   0  0  0  0  0  0  0  0  0  0  0  0
   42.3530   69.7370   60.2250 O   0  0  0  0  0  0  0  0  0  0  0  0
   41.9920   68.6320   60.9230 C   0  0  0  0  0  0  0  0  0  0  0  0
   42.2490   68.6600   62.2740 C   0  0  0  0  0  3  0  0  0  0  0  0
   41.9480   67.6270   63.1200 C   0  0  0  0  0  0  0  0  0  0  0  0
   42.1190   67.5800   64.1780 H   0  0  0  0  0  0  0  0  0  0  0  0
   41.3660   66.5180   62.6050 N   0  0  0  0  0  0  0  0  0  0  0  0
   41.1050   66.4730   61.2850 C   0  0  0  0  0  3  0  0  0  0  0  0
   41.4080   67.4940   60.4720 N   0  0  0  0  0  0  0  0  0  0  0  0
  1  2  1  0  0  0  0
  2  3  2  0  0  0  0
  2  8  1  0  0  0  0
  3  4  1  0  0  0  0
  4  9  1  0  0  0  0
  4  5  2  0  0  0  0
  5 10  1  0  0  0  0
  6  5  1  0  0  0  0
  6  7  1  0  0  0  0
  8  6  2  0  0  0  0
 11 17  1  0  0  0  0
 11 12  1  0  0  0  0
 12  3  1  0  0  0  0
 13 12  2  0  0  0  0
 13 18  1  0  0  0  0
 14 13  1  0  0  0  0
 15 16  1  0  0  0  0
 15 14  2  0  0  0  0
 16 11  2  0  0  0  0
 19 22  1  0  0  0  0
 19 15  1  0  0  0  0
 20 19  1  0  0  0  0
 21 19  1  0  0  0  0
 23  8  1  0  0  0  0
 24 23  1  0  0  0  0
 24 26  1  0  0  0  0
 24 27  1  0  0  0  0
 25 24  1  0  0  0  0
 27 28  1  0  0  0  0
 28 29  1  0  0  0  0
 29 30  2  0  0  0  0
 30 31  1  0  0  0  0
 32 30  1  0  0  0  0
 33 32  2  0  0  0  0
 34 28  2  0  0  0  0
 34 33  1  0  0  0  0
M  END
>  <minimizedAffinity>
-5.78643608

$$$$

 OpenBabel03212520213D

 34 36  0  0  0  0  0  0  0  0999 V2000
   39.7640   72.4050   57.3200 Cl  0  0  0  0  0  0  0  0  0  0  0  0
   39.8410   73.2340   58.8680 C   0  0  0  0  0  0  0  0  0  0  0  0
   39.2650   74.4840   59.0990 C   0  0  0  0  0  0  0  0  0  0  0  0
   39.4160   74.9950   60.3690 C   0  0  0  0  0  0  0  0  0  0  0  0
   40.0690   74.4080   61.4230 C   0  0  0  0  0  0  0  0  0  0  0  0
   40.6220   73.1860   61.1650 C   0  0  0  0  0  0  0  0  0  0  0  0
   41.4930   72.3090   62.4190 Cl  0  0  0  0  0  0  0  0  0  0  0  0
   40.5100   72.6050   59.9050 C   0  0  0  0  0  0  0  0  0  0  0  0
   38.9500   75.9730   60.5020 H   0  0  0  0  0  0  0  0  0  0  0  0
   40.1360   74.8900   62.3880 H   0  0  0  0  0  0  0  0  0  0  0  0
   37.2880   74.8260   57.5400 C   0  0  0  0  0  0  0  0  0  0  0  0
   38.5790   75.1240   58.0300 C   0  0  0  0  0  0  0  0  0  0  0  0
   39.2730   76.1620   57.4080 C   0  0  0  0  0  0  0  0  0  0  0  0
   38.6290   76.7910   56.3780 N   0  0  0  0  0  0  0  0  0  0  0  0
   37.4150   76.4890   55.9390 C   0  0  0  0  0  0  0  0  0  0  0  0
   36.7220   75.4830   56.5290 N   0  0  0  0  0  0  0  0  0  0  0  0
   36.7930   74.0140   58.0560 H   0  0  0  0  0  0  0  0  0  0  0  0
   40.2670   76.4660   57.7110 H   0  0  0  0  0  0  0  0  0  0  0  0
   36.9280   77.3120   54.8070 C   0  0  0  0  0  0  0  0  0  0  0  0
   37.9030   78.1240   54.2760 F   0  0  0  0  0  0  0  0  0  0  0  0
   36.4420   76.4970   53.7950 F   0  0  0  0  0  0  0  0  0  0  0  0
   35.9050   78.1900   55.2430 F   0  0  0  0  0  0  0  0  0  0  0  0
   41.0840   71.3630   59.6760 O   0  0  0  0  0  0  0  0  0  0  0  0
   42.4160   71.1750   59.2850 C   0  0  0  0  0  0  0  0  0  0  0  0
   43.0380   71.8830   59.8310 H   0  0  0  0  0  0  0  0  0  0  0  0
   42.5880   71.3520   58.2100 H   0  0  0  0  0  0  0  0  0  0  0  0
   42.7410   69.8230   59.5470 O   0  0  0  0  0  0  0  0  0  0  0  0
   42.7060   69.2230   60.7620 C   0  0  0  0  0  0  0  0  0  0  0  0
   41.8280   68.1720   60.8910 C   0  0  0  0  0  3  0  0  0  0  0  0
   41.6700   67.4600   62.0500 C   0  0  0  0  0  0  0  0  0  0  0  0
   41.0080   66.6340   62.2220 H   0  0  0  0  0  0  0  0  0  0  0  0
   42.4160   67.8040   63.1270 N   0  0  0  0  0  0  0  0  0  0  0  0
   43.2820   68.8290   63.0190 C   0  0  0  0  0  3  0  0  0  0  0  0
   43.4230   69.5150   61.8770 N   0  0  0  0  0  0  0  0  0  0  0  0
  1  2  1  0  0  0  0
  2  3  2  0  0  0  0
  2  8  1  0  0  0  0
  3  4  1  0  0  0  0
  4  9  1  0  0  0  0
  4  5  2  0  0  0  0
  5 10  1  0  0  0  0
  6  5  1  0  0  0  0
  6  7  1  0  0  0  0
  8  6  2  0  0  0  0
 11 12  1  0  0  0  0
 11 17  1  0  0  0  0
 12  3  1  0  0  0  0
 13 18  1  0  0  0  0
 13 12  2  0  0  0  0
 14 13  1  0  0  0  0
 15 14  2  0  0  0  0
 15 16  1  0  0  0  0
 16 11  2  0  0  0  0
 19 22  1  0  0  0  0
 19 15  1  0  0  0  0
 20 19  1  0  0  0  0
 21 19  1  0  0  0  0
 23  8  1  0  0  0  0
 24 27  1  0  0  0  0
 24 23  1  0  0  0  0
 24 25  1  0  0  0  0
 26 24  1  0  0  0  0
 27 28  1  0  0  0  0
 28 29  2  0  0  0  0
 28 34  1  0  0  0  0
 29 30  1  0  0  0  0
 30 31  1  0  0  0  0
 30 32  2  0  0  0  0
 33 32  1  0  0  0  0
 34 33  2  0  0  0  0
M  END
>  <minimizedAffinity>
-5.7517848

$$$$

 OpenBabel03212520213D

 34 36  0  0  0  0  0  0  0  0999 V2000
   41.4100   71.3300   60.6310 Cl  0  0  0  0  0  0  0  0  0  0  0  0
   41.3320   71.2000   58.8790 C   0  0  0  0  0  0  0  0  0  0  0  0
   41.2360   72.3030   58.0320 C   0  0  0  0  0  0  0  0  0  0  0  0
   41.1850   72.0290   56.6840 C   0  0  0  0  0  0  0  0  0  0  0  0
   41.2180   70.7920   56.0910 C   0  0  0  0  0  0  0  0  0  0  0  0
   41.3130   69.7320   56.9480 C   0  0  0  0  0  0  0  0  0  0  0  0
   41.3660   68.0820   56.3350 Cl  0  0  0  0  0  0  0  0  0  0  0  0
   41.3690   69.9310   58.3240 C   0  0  0  0  0  0  0  0  0  0  0  0
   41.1080   72.9220   56.0610 H   0  0  0  0  0  0  0  0  0  0  0  0
   41.1720   70.6750   55.0170 H   0  0  0  0  0  0  0  0  0  0  0  0
   42.2980   74.4090   58.9780 C   0  0  0  0  0  0  0  0  0  0  0  0
   41.1980   73.6030   58.6090 C   0  0  0  0  0  0  0  0  0  0  0  0
   39.9240   74.1260   58.8270 C   0  0  0  0  0  0  0  0  0  0  0  0
   39.8660   75.3750   59.3810 N   0  0  0  0  0  0  0  0  0  0  0  0
   40.9180   76.1090   59.7180 C   0  0  0  0  0  0  0  0  0  0  0  0
   42.1670   75.6200   59.5150 N   0  0  0  0  0  0  0  0  0  0  0  0
   43.2630   73.9570   58.7890 H   0  0  0  0  0  0  0  0  0  0  0  0
   39.0180   73.5860   58.5780 H   0  0  0  0  0  0  0  0  0  0  0  0
   40.6050   77.4340   60.3040 C   0  0  0  0  0  0  0  0  0  0  0  0
   40.0190   77.3470   61.5450 F   0  0  0  0  0  0  0  0  0  0  0  0
   41.7600   78.1920   60.4210 F   0  0  0  0  0  0  0  0  0  0  0  0
   39.6660   78.1200   59.4930 F   0  0  0  0  0  0  0  0  0  0  0  0
   41.4650   68.8340   59.1660 O   0  0  0  0  0  0  0  0  0  0  0  0
   42.6760   68.3080   59.6350 C   0  0  0  0  0  0  0  0  0  0  0  0
   43.2100   69.0960   60.1660 H   0  0  0  0  0  0  0  0  0  0  0  0
   43.3400   67.9490   58.8320 H   0  0  0  0  0  0  0  0  0  0  0  0
   42.3600   67.1960   60.4510 O   0  0  0  0  0  0  0  0  0  0  0  0
   41.5570   67.2190   61.5430 C   0  0  0  0  0  0  0  0  0  0  0  0
   40.6830   66.1660   61.6720 C   0  0  0  0  0  3  0  0  0  0  0  0
   39.8050   66.0370   62.7150 C   0  0  0  0  0  0  0  0  0  0  0  0
   39.0980   65.2470   62.8790 H   0  0  0  0  0  0  0  0  0  0  0  0
   39.7940   66.9950   63.6720 N   0  0  0  0  0  0  0  0  0  0  0  0
   40.6440   68.0340   63.5630 C   0  0  0  0  0  3  0  0  0  0  0  0
   41.4960   68.1430   62.5360 N   0  0  0  0  0  0  0  0  0  0  0  0
  2  1  1  0  0  0  0
  3 12  1  0  0  0  0
  3  2  2  0  0  0  0
  4  3  1  0  0  0  0
  5  4  2  0  0  0  0
  5  6  1  0  0  0  0
  6  8  2  0  0  0  0
  7  6  1  0  0  0  0
  8  2  1  0  0  0  0
  8 23  1  0  0  0  0
  9  4  1  0  0  0  0
 10  5  1  0  0  0  0
 11 16  1  0  0  0  0
 12 13  1  0  0  0  0
 12 11  2  0  0  0  0
 13 14  2  0  0  0  0
 14 15  1  0  0  0  0
 15 19  1  0  0  0  0
 16 15  2  0  0  0  0
 17 11  1  0  0  0  0
 18 13  1  0  0  0  0
 19 21  1  0  0  0  0
 19 20  1  0  0  0  0
 22 19  1  0  0  0  0
 23 24  1  0  0  0  0
 24 25  1  0  0  0  0
 24 27  1  0  0  0  0
 26 24  1  0  0  0  0
 27 28  1  0  0  0  0
 28 29  2  0  0  0  0
 28 34  1  0  0  0  0
 29 30  1  0  0  0  0
 30 31  1  0  0  0  0
 30 32  2  0  0  0  0
 33 32  1  0  0  0  0
 34 33  2  0  0  0  0
M  END
>  <minimizedAffinity>
-5.72738314

$$$$

 OpenBabel03212520213D

 34 36  0  0  0  0  0  0  0  0999 V2000
   41.6100   72.0400   57.4200 Cl  0  0  0  0  0  0  0  0  0  0  0  0
   41.0050   72.6120   58.9690 C   0  0  0  0  0  0  0  0  0  0  0  0
   39.9960   73.5670   59.0930 C   0  0  0  0  0  0  0  0  0  0  0  0
   39.6370   73.9060   60.3780 C   0  0  0  0  0  0  0  0  0  0  0  0
   40.1650   73.4060   61.5420 C   0  0  0  0  0  0  0  0  0  0  0  0
   41.1510   72.4730   61.3860 C   0  0  0  0  0  0  0  0  0  0  0  0
   41.9240   71.7400   62.7880 Cl  0  0  0  0  0  0  0  0  0  0  0  0
   41.5660   72.0800   60.1180 C   0  0  0  0  0  0  0  0  0  0  0  0
   38.8460   74.6570   60.4250 H   0  0  0  0  0  0  0  0  0  0  0  0
   39.8170   73.7360   62.5110 H   0  0  0  0  0  0  0  0  0  0  0  0
   39.9140   75.1870   57.1360 C   0  0  0  0  0  0  0  0  0  0  0  0
   39.4240   74.1100   57.9080 C   0  0  0  0  0  0  0  0  0  0  0  0
   38.2480   73.4970   57.4750 C   0  0  0  0  0  0  0  0  0  0  0  0
   37.6830   74.0050   56.3370 N   0  0  0  0  0  0  0  0  0  0  0  0
   38.1660   75.0190   55.6320 C   0  0  0  0  0  0  0  0  0  0  0  0
   39.3090   75.6290   56.0360 N   0  0  0  0  0  0  0  0  0  0  0  0
   40.8260   75.6260   57.5150 H   0  0  0  0  0  0  0  0  0  0  0  0
   37.7940   72.6650   57.9980 H   0  0  0  0  0  0  0  0  0  0  0  0
   37.3770   75.3900   54.4340 C   0  0  0  0  0  0  0  0  0  0  0  0
   36.0420   75.0830   54.5550 F   0  0  0  0  0  0  0  0  0  0  0  0
   37.4890   76.7510   54.1890 F   0  0  0  0  0  0  0  0  0  0  0  0
   37.8280   74.6640   53.3030 F   0  0  0  0  0  0  0  0  0  0  0  0
   42.5700   71.1310   59.9950 O   0  0  0  0  0  0  0  0  0  0  0  0
   42.3360   69.7640   59.7960 C   0  0  0  0  0  0  0  0  0  0  0  0
   43.0980   69.3790   59.1180 H   0  0  0  0  0  0  0  0  0  0  0  0
   41.3560   69.5470   59.3410 H   0  0  0  0  0  0  0  0  0  0  0  0
   42.3550   69.1470   61.0700 O   0  0  0  0  0  0  0  0  0  0  0  0
   42.3110   67.8120   61.3030 C   0  0  0  0  0  0  0  0  0  0  0  0
   42.4590   67.0010   60.2030 C   0  0  0  0  0  3  0  0  0  0  0  0
   42.4390   65.6340   60.2660 C   0  0  0  0  0  0  0  0  0  0  0  0
   42.5460   64.9420   59.4530 H   0  0  0  0  0  0  0  0  0  0  0  0
   42.2640   65.0450   61.4730 N   0  0  0  0  0  0  0  0  0  0  0  0
   42.1180   65.8230   62.5620 C   0  0  0  0  0  3  0  0  0  0  0  0
   42.1410   67.1600   62.4810 N   0  0  0  0  0  0  0  0  0  0  0  0
  1  2  1  0  0  0  0
  2  3  2  0  0  0  0
  2  8  1  0  0  0  0
  3  4  1  0  0  0  0
  4  9  1  0  0  0  0
  4  5  2  0  0  0  0
  5 10  1  0  0  0  0
  6  5  1  0  0  0  0
  6  7  1  0  0  0  0
  8  6  2  0  0  0  0
 11 17  1  0  0  0  0
 11 12  1  0  0  0  0
 12  3  1  0  0  0  0
 13 12  2  0  0  0  0
 13 18  1  0  0  0  0
 14 13  1  0  0  0  0
 15 16  1  0  0  0  0
 15 14  2  0  0  0  0
 16 11  2  0  0  0  0
 19 20  1  0  0  0  0
 19 15  1  0  0  0  0
 21 19  1  0  0  0  0
 22 19  1  0  0  0  0
 23  8  1  0  0  0  0
 24 23  1  0  0  0  0
 24 27  1  0  0  0  0
 25 24  1  0  0  0  0
 26 24  1  0  0  0  0
 27 28  1  0  0  0  0
 28 34  1  0  0  0  0
 29 30  1  0  0  0  0
 29 28  2  0  0  0  0
 30 32  2  0  0  0  0
 31 30  1  0  0  0  0
 32 33  1  0  0  0  0
 34 33  2  0  0  0  0
M  END
>  <minimizedAffinity>
-5.49016428

$$$$

 OpenBabel03212520213D

 34 36  0  0  0  0  0  0  0  0999 V2000
   41.7860   74.6500   57.1670 Cl  0  0  0  0  0  0  0  0  0  0  0  0
   40.9420   74.3540   58.6810 C   0  0  0  0  0  0  0  0  0  0  0  0
   40.5820   73.0800   59.1220 C   0  0  0  0  0  0  0  0  0  0  0  0
   39.9250   73.0210   60.3310 C   0  0  0  0  0  0  0  0  0  0  0  0
   39.5900   74.0760   61.1410 C   0  0  0  0  0  0  0  0  0  0  0  0
   39.9570   75.3090   60.6820 C   0  0  0  0  0  0  0  0  0  0  0  0
   39.5960   76.7600   61.6120 Cl  0  0  0  0  0  0  0  0  0  0  0  0
   40.6240   75.4480   59.4680 C   0  0  0  0  0  0  0  0  0  0  0  0
   39.6630   72.0060   60.6340 H   0  0  0  0  0  0  0  0  0  0  0  0
   39.0710   73.9310   62.0780 H   0  0  0  0  0  0  0  0  0  0  0  0
   40.2550   71.5320   57.1330 C   0  0  0  0  0  0  0  0  0  0  0  0
   40.9120   71.9600   58.3090 C   0  0  0  0  0  0  0  0  0  0  0  0
   42.0090   71.2130   58.7340 C   0  0  0  0  0  0  0  0  0  0  0  0
   42.3430   70.1320   57.9640 N   0  0  0  0  0  0  0  0  0  0  0  0
   41.7060   69.7540   56.8640 C   0  0  0  0  0  0  0  0  0  0  0  0
   40.6360   70.4660   56.4330 N   0  0  0  0  0  0  0  0  0  0  0  0
   39.4110   72.1460   56.8480 H   0  0  0  0  0  0  0  0  0  0  0  0
   42.5790   71.4600   59.6210 H   0  0  0  0  0  0  0  0  0  0  0  0
   42.2530   68.5470   56.1990 C   0  0  0  0  0  0  0  0  0  0  0  0
   43.0650   67.8030   57.0230 F   0  0  0  0  0  0  0  0  0  0  0  0
   41.2210   67.7340   55.7570 F   0  0  0  0  0  0  0  0  0  0  0  0
   43.0710   68.9180   55.1030 F   0  0  0  0  0  0  0  0  0  0  0  0
   40.9810   76.7150   59.0300 O   0  0  0  0  0  0  0  0  0  0  0  0
   40.1880   77.5070   58.1900 C   0  0  0  0  0  0  0  0  0  0  0  0
   40.6000   77.4600   57.1830 H   0  0  0  0  0  0  0  0  0  0  0  0
   40.1620   78.5690   58.4820 H   0  0  0  0  0  0  0  0  0  0  0  0
   38.8650   77.0120   58.2780 O   0  0  0  0  0  0  0  0  0  0  0  0
   38.1010   76.6070   57.2340 C   0  0  0  0  0  0  0  0  0  0  0  0
   37.6150   75.3230   57.3050 C   0  0  0  0  0  3  0  0  0  0  0  0
   36.8290   74.7600   56.3350 C   0  0  0  0  0  0  0  0  0  0  0  0
   36.4170   73.7690   56.3230 H   0  0  0  0  0  0  0  0  0  0  0  0
   36.5110   75.5030   55.2480 N   0  0  0  0  0  0  0  0  0  0  0  0
   36.9770   76.7630   55.1630 C   0  0  0  0  0  3  0  0  0  0  0  0
   37.7450   77.2980   56.1210 N   0  0  0  0  0  0  0  0  0  0  0  0
  1  2  1  0  0  0  0
  2  3  2  0  0  0  0
  2  8  1  0  0  0  0
  3  4  1  0  0  0  0
  4  9  1  0  0  0  0
  4  5  2  0  0  0  0
  5 10  1  0  0  0  0
  6  5  1  0  0  0  0
  6  7  1  0  0  0  0
  8  6  2  0  0  0  0
 11 12  1  0  0  0  0
 12 13  2  0  0  0  0
 12  3  1  0  0  0  0
 13 18  1  0  0  0  0
 14 13  1  0  0  0  0
 15 14  2  0  0  0  0
 16 15  1  0  0  0  0
 16 11  2  0  0  0  0
 17 11  1  0  0  0  0
 19 15  1  0  0  0  0
 19 20  1  0  0  0  0
 21 19  1  0  0  0  0
 22 19  1  0  0  0  0
 23  8  1  0  0  0  0
 24 27  1  0  0  0  0
 24 26  1  0  0  0  0
 24 23  1  0  0  0  0
 25 24  1  0  0  0  0
 28 29  1  0  0  0  0
 28 27  1  0  0  0  0
 30 29  2  0  0  0  0
 31 30  1  0  0  0  0
 32 30  1  0  0  0  0
 33 32  2  0  0  0  0
 33 34  1  0  0  0  0
 34 28  2  0  0  0  0
M  END
>  <minimizedAffinity>
-5.48933363

$$$$
