
 OpenBabel03212521063D

 34 37  0  0  0  0  0  0  0  0999 V2000
   41.8060   84.2390   61.5560 C   0  0  0  0  0  0  0  0  0  0  0  0
   41.4710   83.9240   62.8700 C   0  0  0  0  0  0  0  0  0  0  0  0
   40.1930   83.5020   63.2020 C   0  0  0  0  0  0  0  0  0  0  0  0
   39.2270   83.3950   62.1990 C   0  0  0  0  0  0  0  0  0  0  0  0
   39.5720   83.7130   60.8930 C   0  0  0  0  0  0  0  0  0  0  0  0
   40.8370   84.1280   60.5730 C   0  0  0  0  0  0  0  0  0  0  0  0
   42.1960   83.9950   63.6790 H   0  0  0  0  0  0  0  0  0  0  0  0
   39.9330   83.2560   64.2330 H   0  0  0  0  0  0  0  0  0  0  0  0
   38.2290   83.0760   62.3990 H   0  0  0  0  0  0  0  0  0  0  0  0
   38.8260   83.6330   60.0990 H   0  0  0  0  0  0  0  0  0  0  0  0
   45.3350   84.1450   60.6040 C   0  0  0  0  0  0  0  0  0  0  0  0
   45.7150   85.4850   60.7030 C   0  0  0  0  0  0  0  0  0  0  0  0
   44.7510   86.4320   61.1010 C   0  0  0  0  0  0  0  0  0  0  0  0
   43.4960   85.9910   61.3680 N   0  0  0  0  0  0  0  0  0  0  0  0
   43.1570   84.6750   61.2620 C   0  0  0  0  0  0  0  0  0  0  0  0
   44.0740   83.7920   60.8860 N   0  0  0  0  0  0  0  0  0  0  0  0
   46.0880   83.4260   60.2970 H   0  0  0  0  0  0  0  0  0  0  0  0
   46.7170   85.8520   60.4920 H   0  0  0  0  0  0  0  0  0  0  0  0
   44.9990   87.4840   61.1910 H   0  0  0  0  0  0  0  0  0  0  0  0
   41.1490   84.4500   59.1870 C   0  0  0  0  0  0  0  0  0  0  0  0
   40.6940   85.7210   58.8410 C   0  0  0  0  0  0  0  0  0  0  0  0
   40.8990   86.2100   57.5510 C   0  0  0  0  0  0  0  0  0  0  0  0
   41.5370   85.4190   56.6850 N   0  0  0  0  0  0  0  0  0  0  0  0
   41.9790   84.1810   57.0240 C   0  0  0  0  0  0  0  0  0  0  0  0
   41.7810   83.7150   58.2630 N   0  0  0  0  0  0  0  0  0  0  0  0
   40.1710   86.4110   59.4940 H   0  0  0  0  0  0  0  0  0  0  0  0
   40.5560   87.1940   57.2550 H   0  0  0  0  0  0  0  0  0  0  0  0
   42.6810   83.2910   56.0990 C   0  0  0  0  0  0  0  0  0  0  0  0
   42.5620   83.6010   54.7540 C   0  0  0  0  0  3  0  0  0  0  0  0
   43.1950   82.8110   53.8100 C   0  0  0  0  0  0  0  0  0  0  0  0
   43.1480   82.9890   52.7430 H   0  0  0  0  0  0  0  0  0  0  0  0
   43.9150   81.7520   54.2440 N   0  0  0  0  0  0  0  0  0  0  0  0
   44.0170   81.4680   55.5670 C   0  0  0  0  0  3  0  0  0  0  0  0
   43.4030   82.2350   56.4850 N   0  0  0  0  0  0  0  0  0  0  0  0
  1  2  1  0  0  0  0
  2  3  2  0  0  0  0
  2  7  1  0  0  0  0
  3  8  1  0  0  0  0
  4  9  1  0  0  0  0
  4  3  1  0  0  0  0
  5  4  2  0  0  0  0
  6  5  1  0  0  0  0
  6  1  2  0  0  0  0
 10  5  1  0  0  0  0
 11 12  2  0  0  0  0
 11 16  1  0  0  0  0
 12 13  1  0  0  0  0
 13 19  1  0  0  0  0
 13 14  2  0  0  0  0
 15 14  1  0  0  0  0
 15  1  1  0  0  0  0
 16 15  2  0  0  0  0
 17 11  1  0  0  0  0
 18 12  1  0  0  0  0
 20  6  1  0  0  0  0
 21 20  1  0  0  0  0
 21 26  1  0  0  0  0
 22 21  2  0  0  0  0
 23 24  2  0  0  0  0
 23 22  1  0  0  0  0
 24 25  1  0  0  0  0
 25 20  2  0  0  0  0
 27 22  1  0  0  0  0
 28 34  1  0  0  0  0
 28 24  1  0  0  0  0
 29 28  2  0  0  0  0
 30 32  2  0  0  0  0
 30 29  1  0  0  0  0
 31 30  1  0  0  0  0
 32 33  1  0  0  0  0
 33 34  2  0  0  0  0
M  END
>  <minimizedAffinity>
-5.38156557

>  <minimizedRMSD>
0.470652908

$$$$
