
 OpenBabel03212520433D

 16 17  0  0  0  0  0  0  0  0999 V2000
   39.8210   81.8780   61.1530 C   0  0  0  0  0  0  0  0  0  0  0  0
   40.0980   82.5130   59.9360 C   0  0  0  0  0  0  0  0  0  0  0  0
   39.7070   83.8610   59.7800 C   0  0  0  0  0  0  0  0  0  0  0  0
   39.0770   84.4640   60.8360 N   0  0  0  0  0  0  0  0  0  0  0  0
   38.8320   83.8120   61.9870 C   0  0  0  0  0  0  0  0  0  0  0  0
   39.2020   82.5220   62.1480 N   0  0  0  0  0  0  0  0  0  0  0  0
   40.6030   82.0090   59.1040 H   0  0  0  0  0  0  0  0  0  0  0  0
   39.8880   84.4150   58.8690 H   0  0  0  0  0  0  0  0  0  0  0  0
   38.3370   84.2710   62.8330 H   0  0  0  0  0  0  0  0  0  0  0  0
   40.2290   80.4840   61.3050 C   0  0  0  0  0  0  0  0  0  0  0  0
   40.4630   79.7230   60.1760 C   0  0  0  0  0  3  0  0  0  0  0  0
   40.8550   78.3880   60.2200 C   0  0  0  0  0  0  0  0  0  0  0  0
   41.0290   77.8210   59.3180 H   0  0  0  0  0  0  0  0  0  0  0  0
   40.9900   77.8880   61.4730 N   0  0  0  0  0  0  0  0  0  0  0  0
   40.7670   78.6150   62.5840 C   0  0  0  0  0  3  0  0  0  0  0  0
   40.3850   79.9210   62.4970 N   0  0  0  0  0  0  0  0  0  0  0  0
  1 10  1  0  0  0  0
  1  6  1  0  0  0  0
  2  1  2  0  0  0  0
  3  2  1  0  0  0  0
  3  4  2  0  0  0  0
  4  5  1  0  0  0  0
  5  6  2  0  0  0  0
  5  9  1  0  0  0  0
  7  2  1  0  0  0  0
  8  3  1  0  0  0  0
 10 16  1  0  0  0  0
 11 12  1  0  0  0  0
 11 10  2  0  0  0  0
 12 14  2  0  0  0  0
 13 12  1  0  0  0  0
 14 15  1  0  0  0  0
 16 15  2  0  0  0  0
M  END
>  <minimizedAffinity>
-4.67097902

>  <minimizedRMSD>
1.09626639

$$$$
