
 OpenBabel03212520183D

 33 35  0  0  0  0  0  0  0  0999 V2000
   42.9810   83.9280   58.6590 Cl  0  0  0  0  0  0  0  0  0  0  0  0
   41.7830   82.7110   58.3050 C   0  0  0  0  0  0  0  0  0  0  0  0
   40.9260   82.1730   59.2620 C   0  0  0  0  0  0  0  0  0  0  0  0
   40.0420   81.2240   58.8160 C   0  0  0  0  0  0  0  0  0  0  0  0
   39.9040   80.7450   57.5370 C   0  0  0  0  0  0  0  0  0  0  0  0
   40.7600   81.2930   56.6160 C   0  0  0  0  0  0  0  0  0  0  0  0
   40.7110   80.7840   54.9300 Cl  0  0  0  0  0  0  0  0  0  0  0  0
   41.6890   82.2670   57.0030 C   0  0  0  0  0  0  0  0  0  0  0  0
   39.3820   80.8230   59.5970 H   0  0  0  0  0  0  0  0  0  0  0  0
   39.1930   80.0070   57.2670 H   0  0  0  0  0  0  0  0  0  0  0  0
   41.9060   82.1410   61.6070 C   0  0  0  0  0  0  0  0  0  0  0  0
   41.0310   82.6400   60.6040 C   0  0  0  0  0  0  0  0  0  0  0  0
   40.1980   83.6760   60.9500 C   0  0  0  0  0  0  0  0  0  0  0  0
   40.2830   84.1370   62.2310 N   0  0  0  0  0  0  0  0  0  0  0  0
   41.1080   83.6590   63.1610 C   0  0  0  0  0  0  0  0  0  0  0  0
   41.9390   82.6380   62.8430 N   0  0  0  0  0  0  0  0  0  0  0  0
   42.5410   81.3250   61.2850 H   0  0  0  0  0  0  0  0  0  0  0  0
   39.4890   84.1400   60.2770 H   0  0  0  0  0  0  0  0  0  0  0  0
   41.0240   84.3200   64.4840 C   0  0  0  0  0  0  0  0  0  0  0  0
   40.6890   85.6490   64.3940 F   0  0  0  0  0  0  0  0  0  0  0  0
   40.0830   83.6760   65.2800 F   0  0  0  0  0  0  0  0  0  0  0  0
   42.2730   84.3050   65.1220 F   0  0  0  0  0  0  0  0  0  0  0  0
   42.5250   82.7770   56.0190 O   0  0  0  0  0  0  0  0  0  0  0  0
   42.3360   84.0310   55.4030 C   0  0  0  0  0  0  0  0  0  0  0  0
   42.7070   84.7860   56.1320 H   0  0  0  0  0  0  0  0  0  0  0  0
   41.2330   84.1850   55.3520 H   0  0  0  0  0  0  0  0  0  0  0  0
   42.9500   84.1210   54.0760 C   0  0  0  0  0  0  0  0  0  0  0  0
   42.4970   83.2730   53.0940 C   0  0  0  0  0  3  0  0  0  0  0  0
   43.0190   83.2900   51.8180 C   0  0  0  0  0  0  0  0  0  0  0  0
   42.6900   82.6340   51.0020 H   0  0  0  0  0  0  0  0  0  0  0  0
   44.0130   84.1840   51.5490 N   0  0  0  0  0  0  0  0  0  0  0  0
   44.4310   85.0050   52.5480 C   0  0  0  0  0  3  0  0  0  0  0  0
   43.9290   85.0030   53.8170 N   0  0  0  0  0  0  0  0  0  0  0  0
  2  1  1  0  0  0  0
  2  3  1  0  0  0  0
  3 12  1  0  0  0  0
  4  3  2  0  0  0  0
  4  9  1  0  0  0  0
  5  4  1  0  0  0  0
  6  8  1  0  0  0  0
  6  5  2  0  0  0  0
  7  6  1  0  0  0  0
  8  2  2  0  0  0  0
 10  5  1  0  0  0  0
 11 16  1  0  0  0  0
 12 13  1  0  0  0  0
 12 11  2  0  0  0  0
 13 14  2  0  0  0  0
 14 15  1  0  0  0  0
 15 19  1  0  0  0  0
 16 15  2  0  0  0  0
 17 11  1  0  0  0  0
 18 13  1  0  0  0  0
 19 22  1  0  0  0  0
 19 21  1  0  0  0  0
 20 19  1  0  0  0  0
 23  8  1  0  0  0  0
 24 23  1  0  0  0  0
 24 25  1  0  0  0  0
 26 24  1  0  0  0  0
 27 24  1  0  0  0  0
 28 27  2  0  0  0  0
 29 28  1  0  0  0  0
 30 29  1  0  0  0  0
 31 29  2  0  0  0  0
 31 32  1  0  0  0  0
 32 33  2  0  0  0  0
 33 27  1  0  0  0  0
M  END
>  <minimizedAffinity>
-5.21060705

>  <minimizedRMSD>
0.738352478

$$$$
