
 OpenBabel03212520443D

 16 17  0  0  0  0  0  0  0  0999 V2000
   40.1320   81.9600   61.0810 C   0  0  0  0  0  0  0  0  0  0  0  0
   40.2850   82.6900   59.8960 C   0  0  0  0  0  0  0  0  0  0  0  0
   39.6710   83.9590   59.8070 C   0  0  0  0  0  0  0  0  0  0  0  0
   38.9600   84.3960   60.8920 N   0  0  0  0  0  0  0  0  0  0  0  0
   38.8400   83.6580   62.0110 C   0  0  0  0  0  0  0  0  0  0  0  0
   39.4240   82.4420   62.1080 N   0  0  0  0  0  0  0  0  0  0  0  0
   40.8590   82.3190   59.0390 H   0  0  0  0  0  0  0  0  0  0  0  0
   39.7470   84.5780   58.9230 H   0  0  0  0  0  0  0  0  0  0  0  0
   38.2840   83.9860   62.8790 H   0  0  0  0  0  0  0  0  0  0  0  0
   40.7700   80.6490   61.1640 C   0  0  0  0  0  0  0  0  0  0  0  0
   40.1800   79.5710   60.5350 C   0  0  0  0  0  3  0  0  0  0  0  0
   40.7140   78.2830   60.5580 C   0  0  0  0  0  0  0  0  0  0  0  0
   40.2270   77.4630   60.0560 H   0  0  0  0  0  0  0  0  0  0  0  0
   41.8700   78.1750   61.2540 N   0  0  0  0  0  0  0  0  0  0  0  0
   42.4610   79.2140   61.8730 C   0  0  0  0  0  3  0  0  0  0  0  0
   41.9050   80.4590   61.8260 N   0  0  0  0  0  0  0  0  0  0  0  0
  1 10  1  0  0  0  0
  1  6  1  0  0  0  0
  2  1  2  0  0  0  0
  3  2  1  0  0  0  0
  3  4  2  0  0  0  0
  4  5  1  0  0  0  0
  5  6  2  0  0  0  0
  5  9  1  0  0  0  0
  7  2  1  0  0  0  0
  8  3  1  0  0  0  0
 10 16  1  0  0  0  0
 11 12  1  0  0  0  0
 11 10  2  0  0  0  0
 12 14  2  0  0  0  0
 13 12  1  0  0  0  0
 14 15  1  0  0  0  0
 16 15  2  0  0  0  0
M  END
>  <minimizedAffinity>
-4.20257759

>  <minimizedRMSD>
0.432043046

$$$$
