
 OpenBabel03212520463D

 18 19  0  0  0  0  0  0  0  0999 V2000
   37.9370   75.0240   54.4520 C   0  0  0  0  0  0  0  0  0  0  0  0
   37.0320   76.0400   54.1030 C   0  0  0  0  0  0  0  0  0  0  0  0
   36.5460   76.8900   55.0970 C   0  0  0  0  0  0  0  0  0  0  0  0
   36.9960   76.6660   56.3640 N   0  0  0  0  0  0  0  0  0  0  0  0
   37.8600   75.6910   56.6680 C   0  0  0  0  0  0  0  0  0  0  0  0
   38.3320   74.8720   55.7300 N   0  0  0  0  0  0  0  0  0  0  0  0
   38.3370   74.2470   53.3370 N   0  0  0  0  0  0  0  0  0  0  0  0
   36.6720   76.2260   53.1160 H   0  0  0  0  0  0  0  0  0  0  0  0
   35.8490   77.6790   54.8500 H   0  0  0  0  0  0  0  0  0  0  0  0
   37.5820   73.6960   52.9160 H   0  0  0  0  0  0  0  0  0  0  0  0
   39.2740   74.1550   52.8860 H   0  0  0  0  0  0  0  0  0  0  0  0
   38.2810   75.5350   58.0570 C   0  0  0  0  0  0  0  0  0  0  0  0
   39.0630   76.4760   58.6930 C   0  0  0  0  0  3  0  0  0  0  0  0
   39.4620   76.3170   60.0250 C   0  0  0  0  0  0  0  0  0  0  0  0
   40.0770   77.0960   60.4650 H   0  0  0  0  0  0  0  0  0  0  0  0
   39.0770   75.2210   60.7070 N   0  0  0  0  0  0  0  0  0  0  0  0
   38.3130   74.3080   60.0770 C   0  0  0  0  0  3  0  0  0  0  0  0
   37.9220   74.4570   58.7790 N   0  0  0  0  0  0  0  0  0  0  0  0
  1  6  1  0  0  0  0
  2  1  2  0  0  0  0
  2  3  1  0  0  0  0
  3  4  2  0  0  0  0
  4  5  1  0  0  0  0
  5 12  1  0  0  0  0
  6  5  2  0  0  0  0
  7  1  1  0  0  0  0
  8  2  1  0  0  0  0
  9  3  1  0  0  0  0
 10  7  1  0  0  0  0
 11  7  1  0  0  0  0
 12 13  2  0  0  0  0
 12 18  1  0  0  0  0
 13 14  1  0  0  0  0
 14 15  1  0  0  0  0
 14 16  2  0  0  0  0
 17 16  1  0  0  0  0
 18 17  2  0  0  0  0
M  END
>  <minimizedAffinity>
-4.61494255

$$$$

 OpenBabel03212520463D

 18 19  0  0  0  0  0  0  0  0999 V2000
   38.9310   74.6800   60.3930 C   0  0  0  0  0  0  0  0  0  0  0  0
   39.7290   75.7060   60.9280 C   0  0  0  0  0  0  0  0  0  0  0  0
   39.9150   76.8770   60.1930 C   0  0  0  0  0  0  0  0  0  0  0  0
   39.2940   76.9420   58.9820 N   0  0  0  0  0  0  0  0  0  0  0  0
   38.5380   75.9500   58.4970 C   0  0  0  0  0  0  0  0  0  0  0  0
   38.3520   74.8270   59.1870 N   0  0  0  0  0  0  0  0  0  0  0  0
   38.8390   73.5600   61.2540 N   0  0  0  0  0  0  0  0  0  0  0  0
   40.2210   75.6680   61.8740 H   0  0  0  0  0  0  0  0  0  0  0  0
   40.5250   77.6790   60.5850 H   0  0  0  0  0  0  0  0  0  0  0  0
   39.7250   73.0620   61.3930 H   0  0  0  0  0  0  0  0  0  0  0  0
   38.0140   73.1710   61.7630 H   0  0  0  0  0  0  0  0  0  0  0  0
   37.9150   76.1180   57.1870 C   0  0  0  0  0  0  0  0  0  0  0  0
   37.1620   75.1210   56.6030 C   0  0  0  0  0  3  0  0  0  0  0  0
   36.5700   75.2920   55.3470 C   0  0  0  0  0  0  0  0  0  0  0  0
   35.9900   74.4670   54.9460 H   0  0  0  0  0  0  0  0  0  0  0  0
   36.7350   76.4550   54.6880 N   0  0  0  0  0  0  0  0  0  0  0  0
   37.4710   77.4230   55.2670 C   0  0  0  0  0  3  0  0  0  0  0  0
   38.0510   77.2620   56.4910 N   0  0  0  0  0  0  0  0  0  0  0  0
  1  2  1  0  0  0  0
  1  7  1  0  0  0  0
  2  8  1  0  0  0  0
  3  9  1  0  0  0  0
  3  2  2  0  0  0  0
  4  3  1  0  0  0  0
  5  4  2  0  0  0  0
  5  6  1  0  0  0  0
  6  1  2  0  0  0  0
  7 10  1  0  0  0  0
  7 11  1  0  0  0  0
 12  5  1  0  0  0  0
 13 12  1  0  0  0  0
 14 13  2  0  0  0  0
 15 14  1  0  0  0  0
 16 17  2  0  0  0  0
 16 14  1  0  0  0  0
 17 18  1  0  0  0  0
 18 12  2  0  0  0  0
M  END
>  <minimizedAffinity>
-4.48290539

$$$$

 OpenBabel03212520463D

 18 19  0  0  0  0  0  0  0  0999 V2000
   39.7400   74.9110   61.0590 C   0  0  0  0  0  0  0  0  0  0  0  0
   40.4610   75.5360   60.0280 C   0  0  0  0  0  0  0  0  0  0  0  0
   41.6330   74.9420   59.5600 C   0  0  0  0  0  0  0  0  0  0  0  0
   42.0020   73.7710   60.1520 N   0  0  0  0  0  0  0  0  0  0  0  0
   41.2950   73.1970   61.1320 C   0  0  0  0  0  0  0  0  0  0  0  0
   40.1740   73.7520   61.5890 N   0  0  0  0  0  0  0  0  0  0  0  0
   38.5780   75.6330   61.4230 N   0  0  0  0  0  0  0  0  0  0  0  0
   40.1850   76.4520   59.5570 H   0  0  0  0  0  0  0  0  0  0  0  0
   42.2040   75.4060   58.7680 H   0  0  0  0  0  0  0  0  0  0  0  0
   38.7660   76.5470   61.8470 H   0  0  0  0  0  0  0  0  0  0  0  0
   37.5700   75.3770   61.3240 H   0  0  0  0  0  0  0  0  0  0  0  0
   41.7750   71.9400   61.7000 C   0  0  0  0  0  0  0  0  0  0  0  0
   42.7130   71.1600   61.0570 C   0  0  0  0  0  3  0  0  0  0  0  0
   43.1660   69.9560   61.6100 C   0  0  0  0  0  0  0  0  0  0  0  0
   43.9060   69.3910   61.0510 H   0  0  0  0  0  0  0  0  0  0  0  0
   42.6790   69.5460   62.7960 N   0  0  0  0  0  0  0  0  0  0  0  0
   41.7630   70.3150   63.4160 C   0  0  0  0  0  3  0  0  0  0  0  0
   41.3170   71.4880   62.8820 N   0  0  0  0  0  0  0  0  0  0  0  0
  1  7  1  0  0  0  0
  1  6  1  0  0  0  0
  2  1  2  0  0  0  0
  3  2  1  0  0  0  0
  3  4  2  0  0  0  0
  4  5  1  0  0  0  0
  5  6  2  0  0  0  0
  5 12  1  0  0  0  0
  7 10  1  0  0  0  0
  8  2  1  0  0  0  0
  9  3  1  0  0  0  0
 11  7  1  0  0  0  0
 12 18  1  0  0  0  0
 13 14  1  0  0  0  0
 13 12  2  0  0  0  0
 14 16  2  0  0  0  0
 15 14  1  0  0  0  0
 16 17  1  0  0  0  0
 18 17  2  0  0  0  0
M  END
>  <minimizedAffinity>
-4.41497612

$$$$

 OpenBabel03212520463D

 18 19  0  0  0  0  0  0  0  0999 V2000
   39.2350   75.4860   60.7160 C   0  0  0  0  0  0  0  0  0  0  0  0
   39.5780   74.1650   61.0470 C   0  0  0  0  0  0  0  0  0  0  0  0
   39.4660   73.1690   60.0770 C   0  0  0  0  0  0  0  0  0  0  0  0
   39.0200   73.5610   58.8500 N   0  0  0  0  0  0  0  0  0  0  0  0
   38.7010   74.8280   58.5620 C   0  0  0  0  0  0  0  0  0  0  0  0
   38.8040   75.7880   59.4770 N   0  0  0  0  0  0  0  0  0  0  0  0
   39.4030   76.3780   61.8040 N   0  0  0  0  0  0  0  0  0  0  0  0
   39.9280   73.8440   62.0030 H   0  0  0  0  0  0  0  0  0  0  0  0
   39.7240   72.1450   60.3100 H   0  0  0  0  0  0  0  0  0  0  0  0
   38.7680   76.2060   62.5900 H   0  0  0  0  0  0  0  0  0  0  0  0
   40.0680   77.1740   61.9220 H   0  0  0  0  0  0  0  0  0  0  0  0
   38.2330   75.1450   57.2150 C   0  0  0  0  0  0  0  0  0  0  0  0
   38.6680   74.4470   56.1080 C   0  0  0  0  0  3  0  0  0  0  0  0
   38.2140   74.7590   54.8210 C   0  0  0  0  0  0  0  0  0  0  0  0
   38.5970   74.1700   53.9940 H   0  0  0  0  0  0  0  0  0  0  0  0
   37.3330   75.7640   54.6540 N   0  0  0  0  0  0  0  0  0  0  0  0
   36.9140   76.4390   55.7420 C   0  0  0  0  0  3  0  0  0  0  0  0
   37.3540   76.1400   56.9980 N   0  0  0  0  0  0  0  0  0  0  0  0
  1  2  1  0  0  0  0
  1  7  1  0  0  0  0
  2  8  1  0  0  0  0
  3  9  1  0  0  0  0
  3  2  2  0  0  0  0
  4  3  1  0  0  0  0
  5  4  2  0  0  0  0
  5  6  1  0  0  0  0
  6  1  2  0  0  0  0
  7 11  1  0  0  0  0
  7 10  1  0  0  0  0
 12  5  1  0  0  0  0
 13 12  2  0  0  0  0
 14 13  1  0  0  0  0
 15 14  1  0  0  0  0
 16 14  2  0  0  0  0
 16 17  1  0  0  0  0
 17 18  2  0  0  0  0
 18 12  1  0  0  0  0
M  END
>  <minimizedAffinity>
-4.33721447

$$$$

 OpenBabel03212520463D

 18 19  0  0  0  0  0  0  0  0999 V2000
   41.0780   73.9520   60.0720 C   0  0  0  0  0  0  0  0  0  0  0  0
   40.3680   73.4270   61.1640 C   0  0  0  0  0  0  0  0  0  0  0  0
   38.9810   73.5730   61.2100 C   0  0  0  0  0  0  0  0  0  0  0  0
   38.4030   74.2300   60.1650 N   0  0  0  0  0  0  0  0  0  0  0  0
   39.1040   74.7200   59.1360 C   0  0  0  0  0  0  0  0  0  0  0  0
   40.4280   74.5880   59.0790 N   0  0  0  0  0  0  0  0  0  0  0  0
   42.4720   73.7250   60.1710 N   0  0  0  0  0  0  0  0  0  0  0  0
   40.8070   72.9110   61.9890 H   0  0  0  0  0  0  0  0  0  0  0  0
   38.4150   73.1770   62.0410 H   0  0  0  0  0  0  0  0  0  0  0  0
   42.9250   74.2160   60.9480 H   0  0  0  0  0  0  0  0  0  0  0  0
   43.0990   73.1370   59.5780 H   0  0  0  0  0  0  0  0  0  0  0  0
   38.3890   75.4080   58.0650 C   0  0  0  0  0  0  0  0  0  0  0  0
   38.6790   76.7100   57.7130 C   0  0  0  0  0  3  0  0  0  0  0  0
   37.9870   77.3610   56.6850 C   0  0  0  0  0  0  0  0  0  0  0  0
   38.2660   78.3860   56.4600 H   0  0  0  0  0  0  0  0  0  0  0  0
   37.0160   76.7070   56.0200 N   0  0  0  0  0  0  0  0  0  0  0  0
   36.7410   75.4360   56.3710 C   0  0  0  0  0  3  0  0  0  0  0  0
   37.4110   74.7960   57.3720 N   0  0  0  0  0  0  0  0  0  0  0  0
  1  7  1  0  0  0  0
  1  2  1  0  0  0  0
  2  3  2  0  0  0  0
  2  8  1  0  0  0  0
  3  9  1  0  0  0  0
  4  3  1  0  0  0  0
  5  4  2  0  0  0  0
  6  5  1  0  0  0  0
  6  1  2  0  0  0  0
  7 10  1  0  0  0  0
 11  7  1  0  0  0  0
 12  5  1  0  0  0  0
 13 12  1  0  0  0  0
 14 13  2  0  0  0  0
 15 14  1  0  0  0  0
 16 17  2  0  0  0  0
 16 14  1  0  0  0  0
 17 18  1  0  0  0  0
 18 12  2  0  0  0  0
M  END
>  <minimizedAffinity>
-4.27949429

$$$$

 OpenBabel03212520463D

 18 19  0  0  0  0  0  0  0  0999 V2000
   37.5990   74.4810   57.4280 C   0  0  0  0  0  0  0  0  0  0  0  0
   37.7180   75.8620   57.2000 C   0  0  0  0  0  0  0  0  0  0  0  0
   38.6840   76.5870   57.8970 C   0  0  0  0  0  0  0  0  0  0  0  0
   39.4610   75.8850   58.7700 N   0  0  0  0  0  0  0  0  0  0  0  0
   39.3280   74.5690   58.9670 C   0  0  0  0  0  0  0  0  0  0  0  0
   38.4100   73.8640   58.3080 N   0  0  0  0  0  0  0  0  0  0  0  0
   36.5770   73.8890   56.6480 N   0  0  0  0  0  0  0  0  0  0  0  0
   37.1170   76.4240   56.5200 H   0  0  0  0  0  0  0  0  0  0  0  0
   38.7930   77.6510   57.7370 H   0  0  0  0  0  0  0  0  0  0  0  0
   35.6310   74.2040   56.8850 H   0  0  0  0  0  0  0  0  0  0  0  0
   36.6430   73.1870   55.8770 H   0  0  0  0  0  0  0  0  0  0  0  0
   40.2110   73.9090   59.9240 C   0  0  0  0  0  0  0  0  0  0  0  0
   39.7230   73.2400   61.0270 C   0  0  0  0  0  3  0  0  0  0  0  0
   40.5780   72.6120   61.9400 C   0  0  0  0  0  0  0  0  0  0  0  0
   40.1270   72.1030   62.7860 H   0  0  0  0  0  0  0  0  0  0  0  0
   41.9090   72.6580   61.7420 N   0  0  0  0  0  0  0  0  0  0  0  0
   42.3760   73.3130   60.6610 C   0  0  0  0  0  3  0  0  0  0  0  0
   41.5470   73.9280   59.7690 N   0  0  0  0  0  0  0  0  0  0  0  0
  1  6  1  0  0  0  0
  2  1  2  0  0  0  0
  2  3  1  0  0  0  0
  3  4  2  0  0  0  0
  4  5  1  0  0  0  0
  5 12  1  0  0  0  0
  6  5  2  0  0  0  0
  7 10  1  0  0  0  0
  7  1  1  0  0  0  0
  8  2  1  0  0  0  0
  9  3  1  0  0  0  0
 11  7  1  0  0  0  0
 12 13  1  0  0  0  0
 13 14  2  0  0  0  0
 14 15  1  0  0  0  0
 16 14  1  0  0  0  0
 17 16  2  0  0  0  0
 18 12  2  0  0  0  0
 18 17  1  0  0  0  0
M  END
>  <minimizedAffinity>
-4.2762804

$$$$

 OpenBabel03212520463D

 18 19  0  0  0  0  0  0  0  0999 V2000
   38.0780   73.9690   57.9100 C   0  0  0  0  0  0  0  0  0  0  0  0
   38.0240   75.3690   57.8130 C   0  0  0  0  0  0  0  0  0  0  0  0
   38.8740   76.1400   58.6070 C   0  0  0  0  0  0  0  0  0  0  0  0
   39.7140   75.4610   59.4390 N   0  0  0  0  0  0  0  0  0  0  0  0
   39.7450   74.1250   59.5100 C   0  0  0  0  0  0  0  0  0  0  0  0
   38.9400   73.3770   58.7590 N   0  0  0  0  0  0  0  0  0  0  0  0
   37.1580   73.3300   57.0440 N   0  0  0  0  0  0  0  0  0  0  0  0
   37.3720   75.9130   57.1670 H   0  0  0  0  0  0  0  0  0  0  0  0
   38.8490   77.2190   58.5490 H   0  0  0  0  0  0  0  0  0  0  0  0
   36.1740   73.5000   57.2760 H   0  0  0  0  0  0  0  0  0  0  0  0
   37.3300   72.7180   56.2150 H   0  0  0  0  0  0  0  0  0  0  0  0
   40.6830   73.4940   60.4340 C   0  0  0  0  0  0  0  0  0  0  0  0
   42.0480   73.5750   60.2570 C   0  0  0  0  0  3  0  0  0  0  0  0
   42.9390   72.9650   61.1480 C   0  0  0  0  0  0  0  0  0  0  0  0
   44.0010   73.0690   60.9500 H   0  0  0  0  0  0  0  0  0  0  0  0
   42.4580   72.2810   62.2040 N   0  0  0  0  0  0  0  0  0  0  0  0
   41.1230   72.2080   62.3680 C   0  0  0  0  0  3  0  0  0  0  0  0
   40.2500   72.8000   61.5030 N   0  0  0  0  0  0  0  0  0  0  0  0
  1  6  1  0  0  0  0
  2  1  2  0  0  0  0
  2  3  1  0  0  0  0
  3  4  2  0  0  0  0
  4  5  1  0  0  0  0
  5 12  1  0  0  0  0
  6  5  2  0  0  0  0
  7 10  1  0  0  0  0
  7  1  1  0  0  0  0
  8  2  1  0  0  0  0
  9  3  1  0  0  0  0
 11  7  1  0  0  0  0
 12 18  1  0  0  0  0
 13 12  2  0  0  0  0
 13 14  1  0  0  0  0
 14 16  2  0  0  0  0
 15 14  1  0  0  0  0
 16 17  1  0  0  0  0
 18 17  2  0  0  0  0
M  END
>  <minimizedAffinity>
-4.27533007

$$$$

 OpenBabel03212520463D

 18 19  0  0  0  0  0  0  0  0999 V2000
   38.5100   74.7680   58.2550 C   0  0  0  0  0  0  0  0  0  0  0  0
   38.3970   76.1540   58.0570 C   0  0  0  0  0  0  0  0  0  0  0  0
   39.4740   76.9790   58.3860 C   0  0  0  0  0  0  0  0  0  0  0  0
   40.5820   76.3630   58.8870 N   0  0  0  0  0  0  0  0  0  0  0  0
   40.6620   75.0400   59.0650 C   0  0  0  0  0  0  0  0  0  0  0  0
   39.6430   74.2410   58.7560 N   0  0  0  0  0  0  0  0  0  0  0  0
   37.3380   74.0690   57.8760 N   0  0  0  0  0  0  0  0  0  0  0  0
   37.5370   76.6480   57.6660 H   0  0  0  0  0  0  0  0  0  0  0  0
   39.4090   78.0480   58.2410 H   0  0  0  0  0  0  0  0  0  0  0  0
   36.5170   74.2800   58.4520 H   0  0  0  0  0  0  0  0  0  0  0  0
   37.1880   73.3810   57.1050 H   0  0  0  0  0  0  0  0  0  0  0  0
   41.8950   74.4790   59.6090 C   0  0  0  0  0  0  0  0  0  0  0  0
   43.1380   74.9410   59.2290 C   0  0  0  0  0  3  0  0  0  0  0  0
   44.3140   74.3950   59.7560 C   0  0  0  0  0  0  0  0  0  0  0  0
   45.2590   74.8060   59.4140 H   0  0  0  0  0  0  0  0  0  0  0  0
   44.2370   73.3960   60.6550 N   0  0  0  0  0  0  0  0  0  0  0  0
   43.0190   72.9520   61.0200 C   0  0  0  0  0  3  0  0  0  0  0  0
   41.8690   73.4790   60.5100 N   0  0  0  0  0  0  0  0  0  0  0  0
  1  6  1  0  0  0  0
  2  1  2  0  0  0  0
  2  3  1  0  0  0  0
  3  4  2  0  0  0  0
  4  5  1  0  0  0  0
  5 12  1  0  0  0  0
  6  5  2  0  0  0  0
  7  1  1  0  0  0  0
  7 10  1  0  0  0  0
  8  2  1  0  0  0  0
  9  3  1  0  0  0  0
 11  7  1  0  0  0  0
 12 18  1  0  0  0  0
 13 12  2  0  0  0  0
 13 14  1  0  0  0  0
 14 16  2  0  0  0  0
 15 14  1  0  0  0  0
 16 17  1  0  0  0  0
 18 17  2  0  0  0  0
M  END
>  <minimizedAffinity>
-4.10903931

$$$$

 OpenBabel03212520463D

 18 19  0  0  0  0  0  0  0  0999 V2000
   41.3090   76.1480   59.2720 C   0  0  0  0  0  0  0  0  0  0  0  0
   40.1540   76.7420   59.8060 C   0  0  0  0  0  0  0  0  0  0  0  0
   39.4010   76.0420   60.7480 C   0  0  0  0  0  0  0  0  0  0  0  0
   39.8520   74.8010   61.0900 N   0  0  0  0  0  0  0  0  0  0  0  0
   40.9570   74.2590   60.5660 C   0  0  0  0  0  0  0  0  0  0  0  0
   41.6860   74.9160   59.6650 N   0  0  0  0  0  0  0  0  0  0  0  0
   41.9620   76.9810   58.3310 N   0  0  0  0  0  0  0  0  0  0  0  0
   39.7890   77.7110   59.5480 H   0  0  0  0  0  0  0  0  0  0  0  0
   38.5080   76.4800   61.1720 H   0  0  0  0  0  0  0  0  0  0  0  0
   41.4230   77.1540   57.4770 H   0  0  0  0  0  0  0  0  0  0  0  0
   42.8990   77.4390   58.3790 H   0  0  0  0  0  0  0  0  0  0  0  0
   41.3560   72.9230   60.9980 C   0  0  0  0  0  0  0  0  0  0  0  0
   41.5150   72.6040   62.3310 C   0  0  0  0  0  3  0  0  0  0  0  0
   41.8990   71.3210   62.7360 C   0  0  0  0  0  0  0  0  0  0  0  0
   42.0050   71.1380   63.8000 H   0  0  0  0  0  0  0  0  0  0  0  0
   42.1200   70.3710   61.8070 N   0  0  0  0  0  0  0  0  0  0  0  0
   41.9620   70.6920   60.5080 C   0  0  0  0  0  3  0  0  0  0  0  0
   41.5890   71.9420   60.1080 N   0  0  0  0  0  0  0  0  0  0  0  0
  1  6  2  0  0  0  0
  1  2  1  0  0  0  0
  2  3  2  0  0  0  0
  3  4  1  0  0  0  0
  3  9  1  0  0  0  0
  5 12  1  0  0  0  0
  5  4  2  0  0  0  0
  6  5  1  0  0  0  0
  7 11  1  0  0  0  0
  7  1  1  0  0  0  0
  8  2  1  0  0  0  0
 10  7  1  0  0  0  0
 12 13  1  0  0  0  0
 13 14  2  0  0  0  0
 14 15  1  0  0  0  0
 16 14  1  0  0  0  0
 17 16  2  0  0  0  0
 18 17  1  0  0  0  0
 18 12  2  0  0  0  0
M  END
>  <minimizedAffinity>
-4.07215786

$$$$
