
 OpenBabel03212521033D

 26 28  0  0  0  0  0  0  0  0999 V2000
   41.8240   84.2340   61.5850 C   0  0  0  0  0  0  0  0  0  0  0  0
   41.4380   83.9690   62.8940 C   0  0  0  0  0  0  0  0  0  0  0  0
   40.1520   83.5610   63.2050 C   0  0  0  0  0  0  0  0  0  0  0  0
   39.2230   83.4120   62.1790 C   0  0  0  0  0  0  0  0  0  0  0  0
   39.6080   83.6760   60.8630 C   0  0  0  0  0  0  0  0  0  0  0  0
   40.8910   84.0820   60.5730 C   0  0  0  0  0  0  0  0  0  0  0  0
   42.1720   84.0900   63.6820 H   0  0  0  0  0  0  0  0  0  0  0  0
   39.9390   83.3770   64.2500 H   0  0  0  0  0  0  0  0  0  0  0  0
   38.2290   83.0910   62.4620 H   0  0  0  0  0  0  0  0  0  0  0  0
   38.8490   83.5460   60.1000 H   0  0  0  0  0  0  0  0  0  0  0  0
   45.3900   84.1070   60.7930 C   0  0  0  0  0  0  0  0  0  0  0  0
   45.7630   85.4490   60.8090 C   0  0  0  0  0  0  0  0  0  0  0  0
   44.7710   86.4150   61.0990 C   0  0  0  0  0  0  0  0  0  0  0  0
   43.5110   85.9800   61.3430 N   0  0  0  0  0  0  0  0  0  0  0  0
   43.1830   84.6580   61.3180 C   0  0  0  0  0  0  0  0  0  0  0  0
   44.1210   83.7550   61.0450 N   0  0  0  0  0  0  0  0  0  0  0  0
   46.2000   83.4300   60.5640 H   0  0  0  0  0  0  0  0  0  0  0  0
   46.7300   85.8880   60.6290 H   0  0  0  0  0  0  0  0  0  0  0  0
   44.9130   87.4810   61.1470 H   0  0  0  0  0  0  0  0  0  0  0  0
   41.2470   84.3470   59.1910 C   0  0  0  0  0  0  0  0  0  0  0  0
   40.7730   85.5920   58.7660 C   0  0  0  0  0  3  0  0  0  0  0  0
   41.0090   86.0370   57.4680 C   0  0  0  0  0  0  0  0  0  0  0  0
   40.6520   86.9920   57.1230 H   0  0  0  0  0  0  0  0  0  0  0  0
   41.7010   85.2250   56.6580 N   0  0  0  0  0  0  0  0  0  0  0  0
   42.1620   84.0120   57.0730 C   0  0  0  0  0  3  0  0  0  0  0  0
   41.9370   83.5780   58.3270 N   0  0  0  0  0  0  0  0  0  0  0  0
  1  2  1  0  0  0  0
  2  3  2  0  0  0  0
  2  7  1  0  0  0  0
  3  8  1  0  0  0  0
  4  9  1  0  0  0  0
  4  3  1  0  0  0  0
  5  4  2  0  0  0  0
  6  5  1  0  0  0  0
  6  1  2  0  0  0  0
 10  5  1  0  0  0  0
 11 12  2  0  0  0  0
 11 16  1  0  0  0  0
 12 13  1  0  0  0  0
 13 19  1  0  0  0  0
 13 14  2  0  0  0  0
 15 14  1  0  0  0  0
 15  1  1  0  0  0  0
 16 15  2  0  0  0  0
 17 11  1  0  0  0  0
 18 12  1  0  0  0  0
 20  6  1  0  0  0  0
 21 20  1  0  0  0  0
 22 21  2  0  0  0  0
 23 22  1  0  0  0  0
 24 25  2  0  0  0  0
 24 22  1  0  0  0  0
 25 26  1  0  0  0  0
 26 20  2  0  0  0  0
M  END
>  <minimizedAffinity>
-5.20546818

>  <minimizedRMSD>
2.66865325

$$$$
