
 OpenBabel03212521033D

 26 28  0  0  0  0  0  0  0  0999 V2000
   41.8240   84.2330   61.5850 C   0  0  0  0  0  0  0  0  0  0  0  0
   41.4390   83.9690   62.8940 C   0  0  0  0  0  0  0  0  0  0  0  0
   40.1530   83.5600   63.2060 C   0  0  0  0  0  0  0  0  0  0  0  0
   39.2240   83.4110   62.1800 C   0  0  0  0  0  0  0  0  0  0  0  0
   39.6090   83.6760   60.8630 C   0  0  0  0  0  0  0  0  0  0  0  0
   40.8920   84.0820   60.5730 C   0  0  0  0  0  0  0  0  0  0  0  0
   42.1730   84.0890   63.6820 H   0  0  0  0  0  0  0  0  0  0  0  0
   39.9400   83.3770   64.2510 H   0  0  0  0  0  0  0  0  0  0  0  0
   38.2300   83.0900   62.4620 H   0  0  0  0  0  0  0  0  0  0  0  0
   38.8490   83.5460   60.1000 H   0  0  0  0  0  0  0  0  0  0  0  0
   45.3900   84.1070   60.7920 C   0  0  0  0  0  0  0  0  0  0  0  0
   45.7630   85.4490   60.8090 C   0  0  0  0  0  0  0  0  0  0  0  0
   44.7720   86.4150   61.0990 C   0  0  0  0  0  0  0  0  0  0  0  0
   43.5120   85.9800   61.3440 N   0  0  0  0  0  0  0  0  0  0  0  0
   43.1840   84.6580   61.3180 C   0  0  0  0  0  0  0  0  0  0  0  0
   44.1210   83.7550   61.0440 N   0  0  0  0  0  0  0  0  0  0  0  0
   46.2010   83.4300   60.5620 H   0  0  0  0  0  0  0  0  0  0  0  0
   46.7300   85.8880   60.6280 H   0  0  0  0  0  0  0  0  0  0  0  0
   44.9140   87.4810   61.1470 H   0  0  0  0  0  0  0  0  0  0  0  0
   41.2470   84.3470   59.1910 C   0  0  0  0  0  0  0  0  0  0  0  0
   40.7730   85.5910   58.7660 C   0  0  0  0  0  3  0  0  0  0  0  0
   41.0080   86.0380   57.4680 C   0  0  0  0  0  0  0  0  0  0  0  0
   40.6510   86.9930   57.1230 H   0  0  0  0  0  0  0  0  0  0  0  0
   41.7010   85.2260   56.6590 N   0  0  0  0  0  0  0  0  0  0  0  0
   42.1630   84.0130   57.0730 C   0  0  0  0  0  3  0  0  0  0  0  0
   41.9370   83.5790   58.3270 N   0  0  0  0  0  0  0  0  0  0  0  0
  1  2  1  0  0  0  0
  2  3  2  0  0  0  0
  2  7  1  0  0  0  0
  3  8  1  0  0  0  0
  4  9  1  0  0  0  0
  4  3  1  0  0  0  0
  5  4  2  0  0  0  0
  6  5  1  0  0  0  0
  6  1  2  0  0  0  0
 10  5  1  0  0  0  0
 11 12  2  0  0  0  0
 11 16  1  0  0  0  0
 12 13  1  0  0  0  0
 13 19  1  0  0  0  0
 13 14  2  0  0  0  0
 15 14  1  0  0  0  0
 15  1  1  0  0  0  0
 16 15  2  0  0  0  0
 17 11  1  0  0  0  0
 18 12  1  0  0  0  0
 20  6  1  0  0  0  0
 21 20  1  0  0  0  0
 22 21  2  0  0  0  0
 23 22  1  0  0  0  0
 24 25  2  0  0  0  0
 24 22  1  0  0  0  0
 25 26  1  0  0  0  0
 26 20  2  0  0  0  0
M  END
>  <minimizedAffinity>
-5.20579195

>  <minimizedRMSD>
2.65712714

$$$$
