
 OpenBabel03212520463D

 18 19  0  0  0  0  0  0  0  0999 V2000
   40.0200   83.2770   61.1980 C   0  0  0  0  0  0  0  0  0  0  0  0
   39.9630   82.3790   60.1200 C   0  0  0  0  0  0  0  0  0  0  0  0
   40.8710   82.5180   59.0690 C   0  0  0  0  0  0  0  0  0  0  0  0
   41.7670   83.5410   59.1700 N   0  0  0  0  0  0  0  0  0  0  0  0
   41.7990   84.3810   60.2100 C   0  0  0  0  0  0  0  0  0  0  0  0
   40.9390   84.2610   61.2190 N   0  0  0  0  0  0  0  0  0  0  0  0
   39.0360   83.0070   62.1810 N   0  0  0  0  0  0  0  0  0  0  0  0
   39.2670   81.5760   60.0280 H   0  0  0  0  0  0  0  0  0  0  0  0
   40.8460   81.8380   58.2290 H   0  0  0  0  0  0  0  0  0  0  0  0
   38.0730   83.1490   61.8620 H   0  0  0  0  0  0  0  0  0  0  0  0
   39.1460   82.6870   63.1690 H   0  0  0  0  0  0  0  0  0  0  0  0
   42.8000   85.4440   60.2230 C   0  0  0  0  0  0  0  0  0  0  0  0
   43.6020   85.6790   61.3190 C   0  0  0  0  0  3  0  0  0  0  0  0
   44.5590   86.7010   61.3220 C   0  0  0  0  0  0  0  0  0  0  0  0
   45.1560   86.8310   62.2170 H   0  0  0  0  0  0  0  0  0  0  0  0
   44.7030   87.4770   60.2300 N   0  0  0  0  0  0  0  0  0  0  0  0
   43.9140   87.2400   59.1640 C   0  0  0  0  0  3  0  0  0  0  0  0
   42.9800   86.2440   59.1570 N   0  0  0  0  0  0  0  0  0  0  0  0
  1  6  1  0  0  0  0
  1  7  1  0  0  0  0
  2  1  2  0  0  0  0
  3  4  2  0  0  0  0
  3  2  1  0  0  0  0
  4  5  1  0  0  0  0
  5 12  1  0  0  0  0
  5  6  2  0  0  0  0
  7 11  1  0  0  0  0
  8  2  1  0  0  0  0
  9  3  1  0  0  0  0
 10  7  1  0  0  0  0
 12 13  1  0  0  0  0
 13 14  2  0  0  0  0
 14 15  1  0  0  0  0
 16 14  1  0  0  0  0
 17 16  2  0  0  0  0
 18 17  1  0  0  0  0
 18 12  2  0  0  0  0
M  END
>  <minimizedAffinity>
-4.02366686

>  <minimizedRMSD>
5.70730639

$$$$
