
 OpenBabel03212520463D

 18 19  0  0  0  0  0  0  0  0999 V2000
   43.0740   85.3630   58.0640 C   0  0  0  0  0  0  0  0  0  0  0  0
   44.0630   86.2570   58.5060 C   0  0  0  0  0  0  0  0  0  0  0  0
   44.2050   86.4930   59.8740 C   0  0  0  0  0  0  0  0  0  0  0  0
   43.3530   85.8230   60.7000 N   0  0  0  0  0  0  0  0  0  0  0  0
   42.4200   84.9760   60.2510 C   0  0  0  0  0  0  0  0  0  0  0  0
   42.2730   84.7410   58.9490 N   0  0  0  0  0  0  0  0  0  0  0  0
   43.0550   85.2310   56.6540 N   0  0  0  0  0  0  0  0  0  0  0  0
   44.7360   86.7890   57.8720 H   0  0  0  0  0  0  0  0  0  0  0  0
   44.9590   87.1770   60.2370 H   0  0  0  0  0  0  0  0  0  0  0  0
   42.7810   86.0830   56.1550 H   0  0  0  0  0  0  0  0  0  0  0  0
   43.2760   84.4040   56.0550 H   0  0  0  0  0  0  0  0  0  0  0  0
   41.5560   84.3060   61.2190 C   0  0  0  0  0  0  0  0  0  0  0  0
   40.2080   84.1230   60.9910 C   0  0  0  0  0  3  0  0  0  0  0  0
   39.3890   83.4800   61.9260 C   0  0  0  0  0  0  0  0  0  0  0  0
   38.3370   83.3700   61.6830 H   0  0  0  0  0  0  0  0  0  0  0  0
   39.9230   83.0280   63.0770 N   0  0  0  0  0  0  0  0  0  0  0  0
   41.2400   83.2110   63.2900 C   0  0  0  0  0  3  0  0  0  0  0  0
   42.0430   83.8380   62.3820 N   0  0  0  0  0  0  0  0  0  0  0  0
  1  2  2  0  0  0  0
  1  6  1  0  0  0  0
  2  3  1  0  0  0  0
  3  9  1  0  0  0  0
  3  4  2  0  0  0  0
  5  4  1  0  0  0  0
  5 12  1  0  0  0  0
  6  5  2  0  0  0  0
  7  1  1  0  0  0  0
  8  2  1  0  0  0  0
 10  7  1  0  0  0  0
 11  7  1  0  0  0  0
 12 18  1  0  0  0  0
 13 12  2  0  0  0  0
 13 14  1  0  0  0  0
 14 16  2  0  0  0  0
 15 14  1  0  0  0  0
 16 17  1  0  0  0  0
 18 17  2  0  0  0  0
M  END
>  <minimizedAffinity>
-4.05403471

>  <minimizedRMSD>
4.83189583

$$$$
