
 OpenBabel03212520403D

 25 27  0  0  1  0  0  0  0  0999 V2000
   42.3890   85.4250   59.8010 C   0  0  1  0  0  0  0  0  0  0  0  0
   43.4810   86.4710   59.5930 C   0  0  0  0  0  0  0  0  0  0  0  0
   43.1100   85.4580   58.5120 C   0  0  1  0  0  0  0  0  0  0  0  0
   41.4020   85.8970   59.9570 H   0  0  0  0  0  0  0  0  0  0  0  0
   43.2040   87.5050   59.3670 H   0  0  0  0  0  0  0  0  0  0  0  0
   44.4610   86.3460   60.0510 H   0  0  0  0  0  0  0  0  0  0  0  0
   42.4940   85.8440   57.6590 H   0  0  0  0  0  0  0  0  0  0  0  0
   42.7830   84.4520   60.7700 O   0  0  0  0  0  0  0  0  0  0  0  0
   40.0280   83.5370   62.9390 C   0  0  0  0  0  0  0  0  0  0  0  0
   40.5840   83.7920   64.2060 C   0  0  0  0  0  0  0  0  0  0  0  0
   41.9110   84.2790   64.2770 C   0  0  0  0  0  0  0  0  0  0  0  0
   42.5120   84.4480   63.0920 N   0  0  0  0  0  0  0  0  0  0  0  0
   41.9980   84.2110   61.8780 C   0  0  0  0  0  0  0  0  0  0  0  0
   40.7520   83.7540   61.7950 N   0  0  0  0  0  0  0  0  0  0  0  0
   39.0140   83.1640   62.8620 H   0  0  0  0  0  0  0  0  0  0  0  0
   40.0470   83.6340   65.1080 H   0  0  0  0  0  0  0  0  0  0  0  0
   42.4100   84.4990   65.2110 H   0  0  0  0  0  0  0  0  0  0  0  0
   43.9830   84.4220   58.2450 O   0  0  0  0  0  0  0  0  0  0  0  0
   44.1150   83.8770   56.9840 C   0  0  0  0  0  0  0  0  0  0  0  0
   43.6610   82.7090   56.4110 C   0  0  0  0  0  3  0  0  0  0  0  0
   43.9710   82.4460   55.0950 C   0  0  0  0  0  0  0  0  0  0  0  0
   43.5800   81.5150   54.7230 H   0  0  0  0  0  0  0  0  0  0  0  0
   44.6920   83.2740   54.3470 N   0  0  0  0  0  0  0  0  0  0  0  0
   45.1370   84.4210   54.9120 C   0  0  0  0  0  3  0  0  0  0  0  0
   44.8570   84.7250   56.2110 N   0  0  0  0  0  0  0  0  0  0  0  0
  1  4  1  1  0  0  0
  1  8  1  0  0  0  0
  2  1  1  0  0  0  0
  2  6  1  0  0  0  0
  3  7  1  6  0  0  0
  3  2  1  0  0  0  0
  3  1  1  0  0  0  0
  5  2  1  0  0  0  0
  8 13  1  0  0  0  0
  9 10  1  0  0  0  0
 10 11  2  0  0  0  0
 10 16  1  0  0  0  0
 11 17  1  0  0  0  0
 12 11  1  0  0  0  0
 13 12  2  0  0  0  0
 14 13  1  0  0  0  0
 14  9  2  0  0  0  0
 15  9  1  0  0  0  0
 18  3  1  0  0  0  0
 19 18  1  0  0  0  0
 20 19  1  0  0  0  0
 21 20  2  0  0  0  0
 22 21  1  0  0  0  0
 23 24  2  0  0  0  0
 23 21  1  0  0  0  0
 24 25  1  0  0  0  0
 25 19  2  0  0  0  0
M  END
>  <minimizedAffinity>
-3.4640379

>  <minimizedRMSD>
0.236567974

$$$$
