
 OpenBabel03212521063D

 34 37  0  0  0  0  0  0  0  0999 V2000
   41.8040   84.2440   61.5540 C   0  0  0  0  0  0  0  0  0  0  0  0
   41.4580   83.9480   62.8700 C   0  0  0  0  0  0  0  0  0  0  0  0
   40.1760   83.5330   63.1980 C   0  0  0  0  0  0  0  0  0  0  0  0
   39.2190   83.4120   62.1880 C   0  0  0  0  0  0  0  0  0  0  0  0
   39.5750   83.7110   60.8810 C   0  0  0  0  0  0  0  0  0  0  0  0
   40.8430   84.1200   60.5660 C   0  0  0  0  0  0  0  0  0  0  0  0
   42.1760   84.0310   63.6850 H   0  0  0  0  0  0  0  0  0  0  0  0
   39.9070   83.3020   64.2290 H   0  0  0  0  0  0  0  0  0  0  0  0
   38.2180   83.0970   62.3850 H   0  0  0  0  0  0  0  0  0  0  0  0
   38.8360   83.6200   60.0810 H   0  0  0  0  0  0  0  0  0  0  0  0
   45.3370   84.1330   60.6220 C   0  0  0  0  0  0  0  0  0  0  0  0
   45.7220   85.4730   60.7160 C   0  0  0  0  0  0  0  0  0  0  0  0
   44.7580   86.4250   61.1040 C   0  0  0  0  0  0  0  0  0  0  0  0
   43.5000   85.9890   61.3660 N   0  0  0  0  0  0  0  0  0  0  0  0
   43.1570   84.6740   61.2650 C   0  0  0  0  0  0  0  0  0  0  0  0
   44.0740   83.7860   60.8990 N   0  0  0  0  0  0  0  0  0  0  0  0
   46.0900   83.4110   60.3230 H   0  0  0  0  0  0  0  0  0  0  0  0
   46.7260   85.8360   60.5080 H   0  0  0  0  0  0  0  0  0  0  0  0
   45.0090   87.4770   61.1900 H   0  0  0  0  0  0  0  0  0  0  0  0
   41.1670   84.4210   59.1770 C   0  0  0  0  0  0  0  0  0  0  0  0
   40.7180   85.6880   58.8090 C   0  0  0  0  0  0  0  0  0  0  0  0
   40.9340   86.1580   57.5140 C   0  0  0  0  0  0  0  0  0  0  0  0
   41.5780   85.3520   56.6650 N   0  0  0  0  0  0  0  0  0  0  0  0
   42.0130   84.1180   57.0260 C   0  0  0  0  0  0  0  0  0  0  0  0
   41.8050   83.6710   58.2690 N   0  0  0  0  0  0  0  0  0  0  0  0
   40.1910   86.3890   59.4490 H   0  0  0  0  0  0  0  0  0  0  0  0
   40.5960   87.1380   57.2010 H   0  0  0  0  0  0  0  0  0  0  0  0
   42.7210   83.2130   56.1180 C   0  0  0  0  0  0  0  0  0  0  0  0
   43.8480   82.5960   56.6370 C   0  0  0  0  0  3  0  0  0  0  0  0
   44.5760   81.7250   55.8460 C   0  0  0  0  0  0  0  0  0  0  0  0
   45.4650   81.2050   56.1810 H   0  0  0  0  0  0  0  0  0  0  0  0
   44.1540   81.5070   54.5810 N   0  0  0  0  0  0  0  0  0  0  0  0
   43.0460   82.1230   54.0940 C   0  0  0  0  0  3  0  0  0  0  0  0
   42.3370   82.9710   54.8630 N   0  0  0  0  0  0  0  0  0  0  0  0
  1  2  1  0  0  0  0
  2  3  2  0  0  0  0
  2  7  1  0  0  0  0
  3  8  1  0  0  0  0
  4  9  1  0  0  0  0
  4  3  1  0  0  0  0
  5  4  2  0  0  0  0
  6  5  1  0  0  0  0
  6  1  2  0  0  0  0
 10  5  1  0  0  0  0
 11 12  2  0  0  0  0
 11 16  1  0  0  0  0
 12 13  1  0  0  0  0
 13 19  1  0  0  0  0
 13 14  2  0  0  0  0
 15 14  1  0  0  0  0
 15  1  1  0  0  0  0
 16 15  2  0  0  0  0
 17 11  1  0  0  0  0
 18 12  1  0  0  0  0
 20  6  1  0  0  0  0
 21 20  1  0  0  0  0
 21 26  1  0  0  0  0
 22 21  2  0  0  0  0
 23 24  2  0  0  0  0
 23 22  1  0  0  0  0
 24 25  1  0  0  0  0
 25 20  2  0  0  0  0
 27 22  1  0  0  0  0
 28 29  1  0  0  0  0
 28 24  1  0  0  0  0
 30 31  1  0  0  0  0
 30 29  2  0  0  0  0
 32 30  1  0  0  0  0
 33 32  2  0  0  0  0
 33 34  1  0  0  0  0
 34 28  2  0  0  0  0
M  END
>  <minimizedAffinity>
-5.33691072

>  <minimizedRMSD>
0.197493419

$$$$
