
 OpenBabel03212520403D

 25 27  0  0  1  0  0  0  0  0999 V2000
   42.3340   85.4650   59.7720 C   0  0  1  0  0  0  0  0  0  0  0  0
   43.4960   85.9720   58.9210 C   0  0  0  0  0  0  0  0  0  0  0  0
   42.4070   85.0640   58.3510 C   0  0  1  0  0  0  0  0  0  0  0  0
   41.7060   86.2980   60.1350 H   0  0  0  0  0  0  0  0  0  0  0  0
   43.4820   86.9990   58.5430 H   0  0  0  0  0  0  0  0  0  0  0  0
   44.4860   85.5300   59.0190 H   0  0  0  0  0  0  0  0  0  0  0  0
   41.6390   85.5570   57.7020 H   0  0  0  0  0  0  0  0  0  0  0  0
   42.7830   84.5350   60.7590 O   0  0  0  0  0  0  0  0  0  0  0  0
   40.0360   83.5490   62.9060 C   0  0  0  0  0  0  0  0  0  0  0  0
   40.6010   83.7510   64.1790 C   0  0  0  0  0  0  0  0  0  0  0  0
   41.9300   84.2270   64.2620 C   0  0  0  0  0  0  0  0  0  0  0  0
   42.5260   84.4410   63.0800 N   0  0  0  0  0  0  0  0  0  0  0  0
   42.0030   84.2540   61.8610 C   0  0  0  0  0  0  0  0  0  0  0  0
   40.7550   83.8080   61.7670 N   0  0  0  0  0  0  0  0  0  0  0  0
   39.0190   83.1860   62.8210 H   0  0  0  0  0  0  0  0  0  0  0  0
   40.0680   83.5600   65.0770 H   0  0  0  0  0  0  0  0  0  0  0  0
   42.4360   84.4080   65.2010 H   0  0  0  0  0  0  0  0  0  0  0  0
   42.7180   83.7470   58.0780 O   0  0  0  0  0  0  0  0  0  0  0  0
   41.7480   82.8040   57.8010 C   0  0  0  0  0  0  0  0  0  0  0  0
   40.7830   82.1930   58.5720 C   0  0  0  0  0  3  0  0  0  0  0  0
   39.9460   81.2700   57.9840 C   0  0  0  0  0  0  0  0  0  0  0  0
   39.2220   80.8390   58.6540 H   0  0  0  0  0  0  0  0  0  0  0  0
   40.0270   80.9410   56.7000 N   0  0  0  0  0  0  0  0  0  0  0  0
   40.9740   81.5430   55.9460 C   0  0  0  0  0  3  0  0  0  0  0  0
   41.8270   82.4620   56.4810 N   0  0  0  0  0  0  0  0  0  0  0  0
  1  4  1  1  0  0  0
  1  8  1  0  0  0  0
  2  6  1  0  0  0  0
  2  1  1  0  0  0  0
  3  7  1  6  0  0  0
  3  2  1  0  0  0  0
  3  1  1  0  0  0  0
  5  2  1  0  0  0  0
  8 13  1  0  0  0  0
  9 10  1  0  0  0  0
 10 11  2  0  0  0  0
 10 16  1  0  0  0  0
 11 17  1  0  0  0  0
 12 11  1  0  0  0  0
 13 12  2  0  0  0  0
 14 13  1  0  0  0  0
 14  9  2  0  0  0  0
 15  9  1  0  0  0  0
 18  3  1  0  0  0  0
 19 18  1  0  0  0  0
 19 20  1  0  0  0  0
 21 20  2  0  0  0  0
 21 22  1  0  0  0  0
 23 21  1  0  0  0  0
 24 25  1  0  0  0  0
 24 23  2  0  0  0  0
 25 19  2  0  0  0  0
M  END
>  <minimizedAffinity>
-4.1187129

>  <minimizedRMSD>
2.65397501

$$$$
