
 OpenBabel03212521033D

 26 28  0  0  0  0  0  0  0  0999 V2000
   41.8230   84.2340   61.5860 C   0  0  0  0  0  0  0  0  0  0  0  0
   41.4380   83.9700   62.8950 C   0  0  0  0  0  0  0  0  0  0  0  0
   40.1510   83.5610   63.2060 C   0  0  0  0  0  0  0  0  0  0  0  0
   39.2230   83.4120   62.1800 C   0  0  0  0  0  0  0  0  0  0  0  0
   39.6080   83.6760   60.8630 C   0  0  0  0  0  0  0  0  0  0  0  0
   40.8910   84.0820   60.5740 C   0  0  0  0  0  0  0  0  0  0  0  0
   42.1710   84.0900   63.6830 H   0  0  0  0  0  0  0  0  0  0  0  0
   39.9380   83.3780   64.2510 H   0  0  0  0  0  0  0  0  0  0  0  0
   38.2280   83.0920   62.4620 H   0  0  0  0  0  0  0  0  0  0  0  0
   38.8480   83.5460   60.1000 H   0  0  0  0  0  0  0  0  0  0  0  0
   45.3890   84.1070   60.7940 C   0  0  0  0  0  0  0  0  0  0  0  0
   45.7630   85.4480   60.8100 C   0  0  0  0  0  0  0  0  0  0  0  0
   44.7710   86.4150   61.0990 C   0  0  0  0  0  0  0  0  0  0  0  0
   43.5110   85.9800   61.3440 N   0  0  0  0  0  0  0  0  0  0  0  0
   43.1830   84.6580   61.3190 C   0  0  0  0  0  0  0  0  0  0  0  0
   44.1200   83.7540   61.0460 N   0  0  0  0  0  0  0  0  0  0  0  0
   46.2000   83.4290   60.5650 H   0  0  0  0  0  0  0  0  0  0  0  0
   46.7300   85.8870   60.6300 H   0  0  0  0  0  0  0  0  0  0  0  0
   44.9130   87.4810   61.1470 H   0  0  0  0  0  0  0  0  0  0  0  0
   41.2460   84.3460   59.1920 C   0  0  0  0  0  0  0  0  0  0  0  0
   40.7740   85.5910   58.7660 C   0  0  0  0  0  3  0  0  0  0  0  0
   41.0090   86.0370   57.4680 C   0  0  0  0  0  0  0  0  0  0  0  0
   40.6540   86.9920   57.1230 H   0  0  0  0  0  0  0  0  0  0  0  0
   41.7020   85.2240   56.6590 N   0  0  0  0  0  0  0  0  0  0  0  0
   42.1620   84.0110   57.0740 C   0  0  0  0  0  3  0  0  0  0  0  0
   41.9360   83.5770   58.3280 N   0  0  0  0  0  0  0  0  0  0  0  0
  1  2  1  0  0  0  0
  2  3  2  0  0  0  0
  2  7  1  0  0  0  0
  3  8  1  0  0  0  0
  4  9  1  0  0  0  0
  4  3  1  0  0  0  0
  5  4  2  0  0  0  0
  6  5  1  0  0  0  0
  6  1  2  0  0  0  0
 10  5  1  0  0  0  0
 11 12  2  0  0  0  0
 11 16  1  0  0  0  0
 12 13  1  0  0  0  0
 13 19  1  0  0  0  0
 13 14  2  0  0  0  0
 15 14  1  0  0  0  0
 15  1  1  0  0  0  0
 16 15  2  0  0  0  0
 17 11  1  0  0  0  0
 18 12  1  0  0  0  0
 20  6  1  0  0  0  0
 21 20  1  0  0  0  0
 22 21  2  0  0  0  0
 23 22  1  0  0  0  0
 24 25  2  0  0  0  0
 24 22  1  0  0  0  0
 25 26  1  0  0  0  0
 26 20  2  0  0  0  0
M  END
>  <minimizedAffinity>
-5.2049818

>  <minimizedRMSD>
2.68915415

$$$$
