
 OpenBabel03212521063D

 34 37  0  0  0  0  0  0  0  0999 V2000
   41.7950   84.2440   61.5610 C   0  0  0  0  0  0  0  0  0  0  0  0
   41.4530   83.9350   62.8750 C   0  0  0  0  0  0  0  0  0  0  0  0
   40.1710   83.5210   63.2030 C   0  0  0  0  0  0  0  0  0  0  0  0
   39.2090   83.4160   62.1960 C   0  0  0  0  0  0  0  0  0  0  0  0
   39.5610   83.7270   60.8910 C   0  0  0  0  0  0  0  0  0  0  0  0
   40.8300   84.1350   60.5750 C   0  0  0  0  0  0  0  0  0  0  0  0
   42.1740   84.0060   63.6870 H   0  0  0  0  0  0  0  0  0  0  0  0
   39.9050   83.2800   64.2330 H   0  0  0  0  0  0  0  0  0  0  0  0
   38.2080   83.1020   62.3930 H   0  0  0  0  0  0  0  0  0  0  0  0
   38.8190   83.6480   60.0930 H   0  0  0  0  0  0  0  0  0  0  0  0
   45.3310   84.1250   60.6410 C   0  0  0  0  0  0  0  0  0  0  0  0
   45.7150   85.4660   60.7210 C   0  0  0  0  0  0  0  0  0  0  0  0
   44.7490   86.4220   61.0950 C   0  0  0  0  0  0  0  0  0  0  0  0
   43.4900   85.9880   61.3580 N   0  0  0  0  0  0  0  0  0  0  0  0
   43.1490   84.6710   61.2710 C   0  0  0  0  0  0  0  0  0  0  0  0
   44.0680   83.7800   60.9190 N   0  0  0  0  0  0  0  0  0  0  0  0
   46.0860   83.4000   60.3530 H   0  0  0  0  0  0  0  0  0  0  0  0
   46.7190   85.8270   60.5120 H   0  0  0  0  0  0  0  0  0  0  0  0
   44.9990   87.4750   61.1700 H   0  0  0  0  0  0  0  0  0  0  0  0
   41.1490   84.4490   59.1880 C   0  0  0  0  0  0  0  0  0  0  0  0
   40.6830   85.7130   58.8290 C   0  0  0  0  0  0  0  0  0  0  0  0
   40.8930   86.1950   57.5370 C   0  0  0  0  0  0  0  0  0  0  0  0
   41.5480   85.4040   56.6830 N   0  0  0  0  0  0  0  0  0  0  0  0
   42.0000   84.1740   57.0350 C   0  0  0  0  0  0  0  0  0  0  0  0
   41.7980   83.7150   58.2750 N   0  0  0  0  0  0  0  0  0  0  0  0
   40.1470   86.4020   59.4730 H   0  0  0  0  0  0  0  0  0  0  0  0
   40.5420   87.1720   57.2310 H   0  0  0  0  0  0  0  0  0  0  0  0
   42.7200   83.2850   56.1210 C   0  0  0  0  0  0  0  0  0  0  0  0
   42.5180   81.9280   56.3140 C   0  0  0  0  0  3  0  0  0  0  0  0
   43.1600   81.0170   55.4930 C   0  0  0  0  0  0  0  0  0  0  0  0
   43.0530   79.9430   55.5820 H   0  0  0  0  0  0  0  0  0  0  0  0
   43.9720   81.4940   54.5230 N   0  0  0  0  0  0  0  0  0  0  0  0
   44.1550   82.8280   54.3540 C   0  0  0  0  0  3  0  0  0  0  0  0
   43.5300   83.7150   55.1500 N   0  0  0  0  0  0  0  0  0  0  0  0
  1  2  1  0  0  0  0
  2  3  2  0  0  0  0
  2  7  1  0  0  0  0
  3  8  1  0  0  0  0
  4  9  1  0  0  0  0
  4  3  1  0  0  0  0
  5  4  2  0  0  0  0
  6  5  1  0  0  0  0
  6  1  2  0  0  0  0
 10  5  1  0  0  0  0
 11 12  2  0  0  0  0
 11 16  1  0  0  0  0
 12 13  1  0  0  0  0
 13 19  1  0  0  0  0
 13 14  2  0  0  0  0
 15 14  1  0  0  0  0
 15  1  1  0  0  0  0
 16 15  2  0  0  0  0
 17 11  1  0  0  0  0
 18 12  1  0  0  0  0
 20  6  1  0  0  0  0
 21 20  1  0  0  0  0
 21 26  1  0  0  0  0
 22 21  2  0  0  0  0
 23 24  2  0  0  0  0
 23 22  1  0  0  0  0
 24 25  1  0  0  0  0
 25 20  2  0  0  0  0
 27 22  1  0  0  0  0
 28 29  1  0  0  0  0
 28 24  1  0  0  0  0
 30 31  1  0  0  0  0
 30 29  2  0  0  0  0
 32 30  1  0  0  0  0
 33 32  2  0  0  0  0
 33 34  1  0  0  0  0
 34 28  2  0  0  0  0
M  END
>  <minimizedAffinity>
-5.30106163

>  <minimizedRMSD>
0.222713754

$$$$
