
 OpenBabel03212520183D

 33 35  0  0  0  0  0  0  0  0999 V2000
   43.0170   83.8350   58.6110 Cl  0  0  0  0  0  0  0  0  0  0  0  0
   41.7930   82.6420   58.2680 C   0  0  0  0  0  0  0  0  0  0  0  0
   40.9240   82.1320   59.2280 C   0  0  0  0  0  0  0  0  0  0  0  0
   40.0180   81.1990   58.7900 C   0  0  0  0  0  0  0  0  0  0  0  0
   39.8710   80.7110   57.5160 C   0  0  0  0  0  0  0  0  0  0  0  0
   40.7400   81.2310   56.5900 C   0  0  0  0  0  0  0  0  0  0  0  0
   40.6810   80.7080   54.9090 Cl  0  0  0  0  0  0  0  0  0  0  0  0
   41.6900   82.1880   56.9690 C   0  0  0  0  0  0  0  0  0  0  0  0
   39.3500   80.8200   59.5740 H   0  0  0  0  0  0  0  0  0  0  0  0
   39.1440   79.9870   57.2520 H   0  0  0  0  0  0  0  0  0  0  0  0
   41.9220   82.1200   61.5660 C   0  0  0  0  0  0  0  0  0  0  0  0
   41.0380   82.6090   60.5660 C   0  0  0  0  0  0  0  0  0  0  0  0
   40.2050   83.6440   60.9110 C   0  0  0  0  0  0  0  0  0  0  0  0
   40.2990   84.1150   62.1880 N   0  0  0  0  0  0  0  0  0  0  0  0
   41.1330   83.6460   63.1150 C   0  0  0  0  0  0  0  0  0  0  0  0
   41.9640   82.6250   62.7970 N   0  0  0  0  0  0  0  0  0  0  0  0
   42.5570   81.3030   61.2450 H   0  0  0  0  0  0  0  0  0  0  0  0
   39.4890   84.1020   60.2410 H   0  0  0  0  0  0  0  0  0  0  0  0
   41.0570   84.3160   64.4340 C   0  0  0  0  0  0  0  0  0  0  0  0
   40.7470   85.6510   64.3350 F   0  0  0  0  0  0  0  0  0  0  0  0
   40.1020   83.6950   65.2320 F   0  0  0  0  0  0  0  0  0  0  0  0
   42.3040   84.2820   65.0750 F   0  0  0  0  0  0  0  0  0  0  0  0
   42.5380   82.6710   55.9810 O   0  0  0  0  0  0  0  0  0  0  0  0
   42.3360   83.8900   55.3030 C   0  0  0  0  0  0  0  0  0  0  0  0
   42.8910   84.6580   55.8880 H   0  0  0  0  0  0  0  0  0  0  0  0
   41.2580   84.1400   55.4340 H   0  0  0  0  0  0  0  0  0  0  0  0
   42.7030   83.8300   53.8850 C   0  0  0  0  0  0  0  0  0  0  0  0
   43.8650   84.4470   53.4910 C   0  0  0  0  0  3  0  0  0  0  0  0
   44.2860   84.4390   52.1780 C   0  0  0  0  0  0  0  0  0  0  0  0
   45.2040   84.9170   51.8150 H   0  0  0  0  0  0  0  0  0  0  0  0
   43.5060   83.7940   51.2630 N   0  0  0  0  0  0  0  0  0  0  0  0
   42.3630   83.1960   51.6960 C   0  0  0  0  0  3  0  0  0  0  0  0
   41.9300   83.1920   52.9910 N   0  0  0  0  0  0  0  0  0  0  0  0
  2  1  1  0  0  0  0
  2  3  1  0  0  0  0
  3 12  1  0  0  0  0
  4  3  2  0  0  0  0
  4  9  1  0  0  0  0
  5  4  1  0  0  0  0
  6  8  1  0  0  0  0
  6  5  2  0  0  0  0
  7  6  1  0  0  0  0
  8  2  2  0  0  0  0
 10  5  1  0  0  0  0
 11 16  1  0  0  0  0
 12 13  1  0  0  0  0
 12 11  2  0  0  0  0
 13 14  2  0  0  0  0
 14 15  1  0  0  0  0
 15 19  1  0  0  0  0
 16 15  2  0  0  0  0
 17 11  1  0  0  0  0
 18 13  1  0  0  0  0
 19 22  1  0  0  0  0
 19 21  1  0  0  0  0
 20 19  1  0  0  0  0
 23  8  1  0  0  0  0
 24 26  1  0  0  0  0
 24 25  1  0  0  0  0
 24 23  1  0  0  0  0
 27 24  1  0  0  0  0
 28 27  1  0  0  0  0
 29 28  2  0  0  0  0
 30 29  1  0  0  0  0
 31 32  2  0  0  0  0
 31 29  1  0  0  0  0
 32 33  1  0  0  0  0
 33 27  2  0  0  0  0
M  END
>  <minimizedAffinity>
-5.12150288

>  <minimizedRMSD>
1.10352767

$$$$
