
 OpenBabel03212520403D

 25 27  0  0  1  0  0  0  0  0999 V2000
   41.8050   85.4050   59.4830 C   0  0  1  0  0  0  0  0  0  0  0  0
   42.7990   85.9960   58.4880 C   0  0  0  0  0  0  0  0  0  0  0  0
   41.7920   84.9210   58.0870 C   0  0  1  0  0  0  0  0  0  0  0  0
   41.1100   86.1750   59.8640 H   0  0  0  0  0  0  0  0  0  0  0  0
   42.6120   86.9850   58.0570 H   0  0  0  0  0  0  0  0  0  0  0  0
   43.8450   85.6920   58.5050 H   0  0  0  0  0  0  0  0  0  0  0  0
   40.9050   85.2670   57.4970 H   0  0  0  0  0  0  0  0  0  0  0  0
   42.4670   84.6100   60.4670 O   0  0  0  0  0  0  0  0  0  0  0  0
   40.0320   83.5620   62.9360 C   0  0  0  0  0  0  0  0  0  0  0  0
   40.7560   83.7470   64.1280 C   0  0  0  0  0  0  0  0  0  0  0  0
   42.0820   84.2330   64.0450 C   0  0  0  0  0  0  0  0  0  0  0  0
   42.5170   84.4720   62.8000 N   0  0  0  0  0  0  0  0  0  0  0  0
   41.8400   84.3030   61.6560 C   0  0  0  0  0  0  0  0  0  0  0  0
   40.5930   83.8470   61.7180 N   0  0  0  0  0  0  0  0  0  0  0  0
   39.0140   83.1910   62.9780 H   0  0  0  0  0  0  0  0  0  0  0  0
   40.3470   83.5350   65.0850 H   0  0  0  0  0  0  0  0  0  0  0  0
   42.7060   84.4010   64.9130 H   0  0  0  0  0  0  0  0  0  0  0  0
   42.2470   83.6390   57.8550 O   0  0  0  0  0  0  0  0  0  0  0  0
   41.3920   82.5590   57.7630 C   0  0  0  0  0  0  0  0  0  0  0  0
   40.6820   81.8370   58.6980 C   0  0  0  0  0  3  0  0  0  0  0  0
   39.8960   80.7880   58.2760 C   0  0  0  0  0  0  0  0  0  0  0  0
   39.3750   80.2770   59.0660 H   0  0  0  0  0  0  0  0  0  0  0  0
   39.7910   80.4370   56.9990 N   0  0  0  0  0  0  0  0  0  0  0  0
   40.4880   81.1460   56.0830 C   0  0  0  0  0  3  0  0  0  0  0  0
   41.2800   82.1940   56.4510 N   0  0  0  0  0  0  0  0  0  0  0  0
  1  4  1  1  0  0  0
  1  8  1  0  0  0  0
  2  6  1  0  0  0  0
  2  1  1  0  0  0  0
  3  7  1  6  0  0  0
  3  2  1  0  0  0  0
  3  1  1  0  0  0  0
  5  2  1  0  0  0  0
  8 13  1  0  0  0  0
  9 15  1  0  0  0  0
  9 10  1  0  0  0  0
 10 16  1  0  0  0  0
 11 10  2  0  0  0  0
 11 17  1  0  0  0  0
 12 11  1  0  0  0  0
 13 14  1  0  0  0  0
 13 12  2  0  0  0  0
 14  9  2  0  0  0  0
 18  3  1  0  0  0  0
 19 18  1  0  0  0  0
 19 20  1  0  0  0  0
 21 20  2  0  0  0  0
 21 22  1  0  0  0  0
 23 21  1  0  0  0  0
 24 25  1  0  0  0  0
 24 23  2  0  0  0  0
 25 19  2  0  0  0  0
M  END
>  <minimizedAffinity>
-4.14599943

>  <minimizedRMSD>
2.97737598

$$$$
