
 OpenBabel03212520383D

 24 26  0  0  1  0  0  0  0  0999 V2000
   42.9630   85.4480   60.1410 C   0  0  1  0  0  0  0  0  0  0  0  0
   43.6980   86.6690   59.6280 C   0  0  0  0  0  0  0  0  0  0  0  0
   44.0480   85.2820   59.1430 C   0  0  2  0  0  0  0  0  0  0  0  0
   41.9010   85.4570   59.8910 H   0  0  0  0  0  0  0  0  0  0  0  0
   43.2010   87.3180   58.8760 H   0  0  0  0  0  0  0  0  0  0  0  0
   44.3280   87.2230   60.3190 H   0  0  0  0  0  0  0  0  0  0  0  0
   45.0210   84.8860   59.5060 H   0  0  0  0  0  0  0  0  0  0  0  0
   43.7360   84.9540   57.7330 C   0  0  0  0  0  0  0  0  0  0  0  0
   42.4340   84.7250   57.3050 C   0  0  0  0  0  0  0  0  0  0  0  0
   42.1280   84.4180   55.9930 C   0  0  0  0  0  0  0  0  0  0  0  0
   41.1320   84.2370   55.6380 H   0  0  0  0  0  0  0  0  0  0  0  0
   43.1700   84.3530   55.1420 N   0  0  0  0  0  0  0  0  0  0  0  0
   44.4500   84.5700   55.5270 C   0  0  0  0  0  0  0  0  0  0  0  0
   44.7110   84.8640   56.7990 N   0  0  0  0  0  0  0  0  0  0  0  0
   43.2670   85.1260   61.4840 O   0  0  0  0  0  0  0  0  0  0  0  0
   40.7950   82.8170   62.7610 C   0  0  0  0  0  0  0  0  0  0  0  0
   40.5970   83.3100   64.0490 C   0  0  0  0  0  0  0  0  0  0  0  0
   41.3260   84.4440   64.4650 C   0  0  0  0  0  0  0  0  0  0  0  0
   42.1660   84.9570   63.5580 N   0  0  0  0  0  0  0  0  0  0  0  0
   42.3610   84.4850   62.3110 C   0  0  0  0  0  0  0  0  0  0  0  0
   41.6750   83.4100   61.9090 N   0  0  0  0  0  0  0  0  0  0  0  0
   40.2270   81.9620   62.4880 H   0  0  0  0  0  0  0  0  0  0  0  0
   39.9100   82.8730   64.7620 H   0  0  0  0  0  0  0  0  0  0  0  0
   41.2480   84.9010   65.4330 H   0  0  0  0  0  0  0  0  0  0  0  0
  1  4  1  6  0  0  0
  1 15  1  0  0  0  0
  2  1  1  0  0  0  0
  2  6  1  0  0  0  0
  3  7  1  1  0  0  0
  3  2  1  0  0  0  0
  3  1  1  0  0  0  0
  5  2  1  0  0  0  0
  8  3  1  0  0  0  0
  9  8  1  0  0  0  0
 10  9  2  0  0  0  0
 11 10  1  0  0  0  0
 12 13  2  0  0  0  0
 12 10  1  0  0  0  0
 13 14  1  0  0  0  0
 14  8  2  0  0  0  0
 15 20  1  0  0  0  0
 16 17  1  0  0  0  0
 17 18  2  0  0  0  0
 17 23  1  0  0  0  0
 18 24  1  0  0  0  0
 19 18  1  0  0  0  0
 20 19  2  0  0  0  0
 21 20  1  0  0  0  0
 21 16  2  0  0  0  0
 22 16  1  0  0  0  0
M  END
>  <minimizedAffinity>
-3.9161675

>  <minimizedRMSD>
1.50101066

$$$$
