
 OpenBabel03212520403D

 25 27  0  0  1  0  0  0  0  0999 V2000
   42.3090   85.5010   59.7570 C   0  0  1  0  0  0  0  0  0  0  0  0
   43.5430   86.3920   59.6430 C   0  0  0  0  0  0  0  0  0  0  0  0
   42.9890   85.6160   58.4500 C   0  0  1  0  0  0  0  0  0  0  0  0
   41.4120   86.0880   60.0270 H   0  0  0  0  0  0  0  0  0  0  0  0
   43.4240   87.4780   59.5800 H   0  0  0  0  0  0  0  0  0  0  0  0
   44.5040   86.0560   60.0290 H   0  0  0  0  0  0  0  0  0  0  0  0
   42.4170   86.2110   57.6930 H   0  0  0  0  0  0  0  0  0  0  0  0
   42.5740   84.3490   60.5570 O   0  0  0  0  0  0  0  0  0  0  0  0
   40.0570   83.5550   63.0390 C   0  0  0  0  0  0  0  0  0  0  0  0
   40.7500   83.8410   64.2300 C   0  0  0  0  0  0  0  0  0  0  0  0
   42.0840   84.3050   64.1420 C   0  0  0  0  0  0  0  0  0  0  0  0
   42.5560   84.4250   62.8930 N   0  0  0  0  0  0  0  0  0  0  0  0
   41.9100   84.1580   61.7500 C   0  0  0  0  0  0  0  0  0  0  0  0
   40.6560   83.7220   61.8170 N   0  0  0  0  0  0  0  0  0  0  0  0
   39.0350   83.1990   63.0850 H   0  0  0  0  0  0  0  0  0  0  0  0
   40.3120   83.7220   65.1890 H   0  0  0  0  0  0  0  0  0  0  0  0
   42.6850   84.5460   65.0080 H   0  0  0  0  0  0  0  0  0  0  0  0
   43.6830   84.5130   57.9960 O   0  0  0  0  0  0  0  0  0  0  0  0
   43.4560   83.9600   56.7510 C   0  0  0  0  0  0  0  0  0  0  0  0
   42.4830   84.1610   55.7950 C   0  0  0  0  0  3  0  0  0  0  0  0
   42.5360   83.4350   54.6260 C   0  0  0  0  0  0  0  0  0  0  0  0
   41.7410   83.6510   53.9330 H   0  0  0  0  0  0  0  0  0  0  0  0
   43.4880   82.5450   54.3760 N   0  0  0  0  0  0  0  0  0  0  0  0
   44.4410   82.3490   55.3150 C   0  0  0  0  0  3  0  0  0  0  0  0
   44.4330   83.0430   56.4880 N   0  0  0  0  0  0  0  0  0  0  0  0
  1  4  1  1  0  0  0
  1  8  1  0  0  0  0
  2  1  1  0  0  0  0
  2  6  1  0  0  0  0
  3  7  1  6  0  0  0
  3  2  1  0  0  0  0
  3  1  1  0  0  0  0
  5  2  1  0  0  0  0
  8 13  1  0  0  0  0
  9 15  1  0  0  0  0
  9 10  1  0  0  0  0
 10 16  1  0  0  0  0
 11 10  2  0  0  0  0
 11 17  1  0  0  0  0
 12 11  1  0  0  0  0
 13 14  1  0  0  0  0
 13 12  2  0  0  0  0
 14  9  2  0  0  0  0
 18  3  1  0  0  0  0
 19 18  1  0  0  0  0
 20 19  2  0  0  0  0
 21 20  1  0  0  0  0
 22 21  1  0  0  0  0
 23 21  2  0  0  0  0
 23 24  1  0  0  0  0
 24 25  2  0  0  0  0
 25 19  1  0  0  0  0
M  END
>  <minimizedAffinity>
-3.59966493

>  <minimizedRMSD>
0.76267755

$$$$
