
 OpenBabel03212520283D

 32 34  0  0  0  0  0  0  0  0999 V2000
   41.8490   70.9070   61.7190 C   0  0  0  0  0  0  0  0  0  0  0  0
   41.8030   71.9240   62.6750 C   0  0  0  0  0  0  0  0  0  0  0  0
   41.2660   72.9810   61.9440 C   0  0  0  0  0  0  0  0  0  0  0  0
   41.0200   72.5930   60.6490 N   0  0  0  0  0  0  0  0  0  0  0  0
   41.3870   71.3200   60.5440 N   0  0  0  0  0  0  0  0  0  0  0  0
   42.0960   71.9240   63.7040 H   0  0  0  0  0  0  0  0  0  0  0  0
   41.0830   73.9690   62.3880 H   0  0  0  0  0  0  0  0  0  0  0  0
   43.7080   68.0690   63.2840 C   0  0  0  0  0  0  0  0  0  0  0  0
   43.2260   69.3390   63.0110 C   0  0  0  0  0  0  0  0  0  0  0  0
   42.3410   69.5770   61.9890 C   0  0  0  0  0  0  0  0  0  0  0  0
   41.9490   68.5260   61.2490 N   0  0  0  0  0  0  0  0  0  0  0  0
   42.4240   67.2750   61.5190 C   0  0  0  0  0  0  0  0  0  0  0  0
   43.2900   67.0560   62.5220 N   0  0  0  0  0  0  0  0  0  0  0  0
   44.4050   67.9690   64.1090 H   0  0  0  0  0  0  0  0  0  0  0  0
   43.5330   70.1870   63.5960 H   0  0  0  0  0  0  0  0  0  0  0  0
   42.1160   66.4050   60.9280 H   0  0  0  0  0  0  0  0  0  0  0  0
   40.4660   73.4360   59.6290 C   0  0  0  0  0  0  0  0  0  0  0  0
   39.3850   73.2140   59.5260 H   0  0  0  0  0  0  0  0  0  0  0  0
   40.9140   73.1140   58.6580 H   0  0  0  0  0  0  0  0  0  0  0  0
   40.7340   74.7650   59.8610 O   0  0  0  0  0  0  0  0  0  0  0  0
   39.6720   76.5990   61.3580 O   0  0  0  0  0  0  0  0  0  0  0  0
   39.3990   75.7360   60.1280 P   0  0  2  0  0  0  0  0  0  0  0  0
   38.0730   74.7780   60.4650 O   0  0  0  0  0  0  0  0  0  0  0  0
   37.2870   75.2570   60.8310 H   0  0  0  0  0  0  0  0  0  0  0  0
   39.0780   76.7150   58.8170 O   0  0  0  0  0  0  0  0  0  0  0  0
   38.3370   76.4620   57.6990 C   0  0  0  0  0  0  0  0  0  0  0  0
   38.0640   77.2530   56.5900 C   0  0  0  0  0  3  0  0  0  0  0  0
   37.2760   76.7740   55.5660 C   0  0  0  0  0  0  0  0  0  0  0  0
   37.1110   77.4680   54.7260 H   0  0  0  0  0  0  0  0  0  0  0  0
   36.7560   75.5340   55.6190 N   0  0  0  0  0  0  0  0  0  0  0  0
   37.0210   74.7550   56.7060 C   0  0  0  0  0  3  0  0  0  0  0  0
   37.7890   75.2110   57.7100 N   0  0  0  0  0  0  0  0  0  0  0  0
  1 10  1  0  0  0  0
  1  2  1  0  0  0  0
  2  6  1  0  0  0  0
  3  7  1  0  0  0  0
  3  2  2  0  0  0  0
  4  3  1  0  0  0  0
  5  4  1  0  0  0  0
  5  1  2  0  0  0  0
  8 14  1  0  0  0  0
  9  8  1  0  0  0  0
  9 15  1  0  0  0  0
 10  9  2  0  0  0  0
 11 12  2  0  0  0  0
 11 10  1  0  0  0  0
 12 13  1  0  0  0  0
 13  8  2  0  0  0  0
 16 12  1  0  0  0  0
 17 20  1  0  0  0  0
 17  4  1  0  0  0  0
 18 17  1  0  0  0  0
 19 17  1  0  0  0  0
 20 22  1  0  0  0  0
 22 23  1  0  0  0  0
 22 21  2  1  0  0  0
 23 24  1  0  0  0  0
 25 22  1  0  0  0  0
 26 32  1  0  0  0  0
 26 25  1  0  0  0  0
 27 26  2  0  0  0  0
 28 30  2  0  0  0  0
 28 27  1  0  0  0  0
 29 28  1  0  0  0  0
 30 31  1  0  0  0  0
 31 32  2  0  0  0  0
M  END
>  <minimizedAffinity>
-5.69036913

$$$$

 OpenBabel03212520283D

 32 34  0  0  0  0  0  0  0  0999 V2000
   42.0670   69.5860   61.8010 C   0  0  0  0  0  0  0  0  0  0  0  0
   42.4100   70.4090   62.8760 C   0  0  0  0  0  0  0  0  0  0  0  0
   42.5070   71.6560   62.2630 C   0  0  0  0  0  0  0  0  0  0  0  0
   42.2370   71.5540   60.9210 N   0  0  0  0  0  0  0  0  0  0  0  0
   41.9710   70.2760   60.6700 N   0  0  0  0  0  0  0  0  0  0  0  0
   42.5660   70.1750   63.9080 H   0  0  0  0  0  0  0  0  0  0  0  0
   42.7680   72.5650   62.8210 H   0  0  0  0  0  0  0  0  0  0  0  0
   41.5560   65.9940   60.9060 C   0  0  0  0  0  0  0  0  0  0  0  0
   41.7660   67.3610   60.8100 C   0  0  0  0  0  0  0  0  0  0  0  0
   41.8470   68.1650   61.9190 C   0  0  0  0  0  0  0  0  0  0  0  0
   41.7170   67.5790   63.1220 N   0  0  0  0  0  0  0  0  0  0  0  0
   41.5110   66.2330   63.2160 C   0  0  0  0  0  0  0  0  0  0  0  0
   41.4330   65.4580   62.1220 N   0  0  0  0  0  0  0  0  0  0  0  0
   41.5030   65.4340   59.9790 H   0  0  0  0  0  0  0  0  0  0  0  0
   41.8710   67.8410   59.8530 H   0  0  0  0  0  0  0  0  0  0  0  0
   41.4020   65.7350   64.1860 H   0  0  0  0  0  0  0  0  0  0  0  0
   42.2470   72.6490   59.9940 C   0  0  0  0  0  0  0  0  0  0  0  0
   41.8880   72.2900   59.0090 H   0  0  0  0  0  0  0  0  0  0  0  0
   43.3160   72.9240   59.8220 H   0  0  0  0  0  0  0  0  0  0  0  0
   41.5470   73.7320   60.4720 O   0  0  0  0  0  0  0  0  0  0  0  0
   39.2330   73.1440   61.4850 O   0  0  0  0  0  0  0  0  0  0  0  0
   39.8940   73.6930   60.2230 P   0  0  2  0  0  0  0  0  0  0  0  0
   39.5460   72.6450   58.9700 O   0  0  0  0  0  0  0  0  0  0  0  0
   38.5900   72.3990   58.8770 H   0  0  0  0  0  0  0  0  0  0  0  0
   39.2870   75.2080   59.8850 O   0  0  0  0  0  0  0  0  0  0  0  0
   38.7090   75.6830   58.7430 C   0  0  0  0  0  0  0  0  0  0  0  0
   38.8790   76.8860   58.0700 C   0  0  0  0  0  3  0  0  0  0  0  0
   38.1740   77.1470   56.9150 C   0  0  0  0  0  0  0  0  0  0  0  0
   38.3710   78.1250   56.4460 H   0  0  0  0  0  0  0  0  0  0  0  0
   37.3090   76.2450   56.4170 N   0  0  0  0  0  0  0  0  0  0  0  0
   37.1390   75.0630   57.0750 C   0  0  0  0  0  3  0  0  0  0  0  0
   37.8210   74.7970   58.2020 N   0  0  0  0  0  0  0  0  0  0  0  0
  1 10  1  0  0  0  0
  1  2  1  0  0  0  0
  2  6  1  0  0  0  0
  3  7  1  0  0  0  0
  3  2  2  0  0  0  0
  4  3  1  0  0  0  0
  5  4  1  0  0  0  0
  5  1  2  0  0  0  0
  8 13  1  0  0  0  0
  9  8  2  0  0  0  0
  9 10  1  0  0  0  0
 10 11  2  0  0  0  0
 11 12  1  0  0  0  0
 12 16  1  0  0  0  0
 13 12  2  0  0  0  0
 14  8  1  0  0  0  0
 15  9  1  0  0  0  0
 17 20  1  0  0  0  0
 17  4  1  0  0  0  0
 18 17  1  0  0  0  0
 19 17  1  0  0  0  0
 22 20  1  0  0  0  0
 22 21  2  1  0  0  0
 23 22  1  0  0  0  0
 24 23  1  0  0  0  0
 25 22  1  0  0  0  0
 26 25  1  0  0  0  0
 27 26  2  0  0  0  0
 28 27  1  0  0  0  0
 29 28  1  0  0  0  0
 30 28  2  0  0  0  0
 30 31  1  0  0  0  0
 31 32  2  0  0  0  0
 32 26  1  0  0  0  0
M  END
>  <minimizedAffinity>
-5.58696413

$$$$

 OpenBabel03212520283D

 32 34  0  0  0  0  0  0  0  0999 V2000
   42.0990   69.3270   61.4500 C   0  0  0  0  0  0  0  0  0  0  0  0
   42.7010   69.8140   60.2880 C   0  0  0  0  0  0  0  0  0  0  0  0
   42.5360   71.1880   60.4330 C   0  0  0  0  0  0  0  0  0  0  0  0
   41.8800   71.4730   61.6050 N   0  0  0  0  0  0  0  0  0  0  0  0
   41.6270   70.3130   62.2040 N   0  0  0  0  0  0  0  0  0  0  0  0
   43.1720   69.2940   59.4790 H   0  0  0  0  0  0  0  0  0  0  0  0
   42.9000   71.9050   59.6840 H   0  0  0  0  0  0  0  0  0  0  0  0
   41.1390   66.1420   63.1540 C   0  0  0  0  0  0  0  0  0  0  0  0
   41.2390   67.4850   62.8260 C   0  0  0  0  0  0  0  0  0  0  0  0
   42.0070   67.9250   61.7770 C   0  0  0  0  0  0  0  0  0  0  0  0
   42.6700   66.9990   61.0630 N   0  0  0  0  0  0  0  0  0  0  0  0
   42.5710   65.6760   61.3850 C   0  0  0  0  0  0  0  0  0  0  0  0
   41.8170   65.2600   62.4150 N   0  0  0  0  0  0  0  0  0  0  0  0
   40.5120   65.8820   63.9980 H   0  0  0  0  0  0  0  0  0  0  0  0
   40.7130   68.2350   63.3910 H   0  0  0  0  0  0  0  0  0  0  0  0
   43.1030   64.9050   60.8160 H   0  0  0  0  0  0  0  0  0  0  0  0
   41.5500   72.7910   62.0650 C   0  0  0  0  0  0  0  0  0  0  0  0
   42.2400   73.5190   61.5960 H   0  0  0  0  0  0  0  0  0  0  0  0
   41.7950   72.8300   63.1540 H   0  0  0  0  0  0  0  0  0  0  0  0
   40.2210   73.0860   61.8640 O   0  0  0  0  0  0  0  0  0  0  0  0
   41.2420   74.8930   60.3080 O   0  0  0  0  0  0  0  0  0  0  0  0
   39.9090   74.2960   60.7530 P   0  0  2  0  0  0  0  0  0  0  0  0
   39.0280   75.5110   61.4860 O   0  0  0  0  0  0  0  0  0  0  0  0
   38.9650   76.3570   60.9740 H   0  0  0  0  0  0  0  0  0  0  0  0
   39.0840   73.7150   59.4260 O   0  0  0  0  0  0  0  0  0  0  0  0
   38.4130   74.3910   58.4490 C   0  0  0  0  0  0  0  0  0  0  0  0
   37.4980   73.9510   57.5020 C   0  0  0  0  0  3  0  0  0  0  0  0
   36.9430   74.8350   56.6010 C   0  0  0  0  0  0  0  0  0  0  0  0
   36.2260   74.4010   55.8860 H   0  0  0  0  0  0  0  0  0  0  0  0
   37.2750   76.1380   56.6210 N   0  0  0  0  0  0  0  0  0  0  0  0
   38.1740   76.5740   57.5490 C   0  0  0  0  0  3  0  0  0  0  0  0
   38.7210   75.7220   58.4320 N   0  0  0  0  0  0  0  0  0  0  0  0
  1 10  1  0  0  0  0
  1  5  2  0  0  0  0
  2  3  2  0  0  0  0
  2  1  1  0  0  0  0
  3  4  1  0  0  0  0
  4 17  1  0  0  0  0
  4  5  1  0  0  0  0
  6  2  1  0  0  0  0
  7  3  1  0  0  0  0
  8 14  1  0  0  0  0
  9  8  1  0  0  0  0
  9 15  1  0  0  0  0
 10  9  2  0  0  0  0
 11 12  2  0  0  0  0
 11 10  1  0  0  0  0
 12 13  1  0  0  0  0
 13  8  2  0  0  0  0
 16 12  1  0  0  0  0
 17 19  1  0  0  0  0
 18 17  1  0  0  0  0
 20 17  1  0  0  0  0
 22 21  2  6  0  0  0
 22 23  1  0  0  0  0
 22 20  1  0  0  0  0
 24 23  1  0  0  0  0
 25 22  1  0  0  0  0
 26 25  1  0  0  0  0
 27 26  2  0  0  0  0
 28 30  2  0  0  0  0
 28 27  1  0  0  0  0
 29 28  1  0  0  0  0
 30 31  1  0  0  0  0
 31 32  2  0  0  0  0
 32 26  1  0  0  0  0
M  END
>  <minimizedAffinity>
-5.52823734

$$$$

 OpenBabel03212520283D

 32 34  0  0  0  0  0  0  0  0999 V2000
   41.8320   72.2510   59.6650 C   0  0  0  0  0  0  0  0  0  0  0  0
   42.3830   73.5160   59.4440 C   0  0  0  0  0  0  0  0  0  0  0  0
   41.8910   73.8260   58.1790 C   0  0  0  0  0  0  0  0  0  0  0  0
   41.1070   72.8030   57.7040 N   0  0  0  0  0  0  0  0  0  0  0  0
   41.0920   71.8550   58.6360 N   0  0  0  0  0  0  0  0  0  0  0  0
   43.0180   74.1150   60.0630 H   0  0  0  0  0  0  0  0  0  0  0  0
   42.1260   74.7720   57.6730 H   0  0  0  0  0  0  0  0  0  0  0  0
   43.2100   69.7300   62.0540 C   0  0  0  0  0  0  0  0  0  0  0  0
   42.9860   70.4780   60.9090 C   0  0  0  0  0  0  0  0  0  0  0  0
   42.0520   71.4820   60.8660 C   0  0  0  0  0  0  0  0  0  0  0  0
   41.3480   71.7240   61.9860 N   0  0  0  0  0  0  0  0  0  0  0  0
   41.5690   70.9870   63.1130 C   0  0  0  0  0  0  0  0  0  0  0  0
   42.4870   70.0070   63.1410 N   0  0  0  0  0  0  0  0  0  0  0  0
   43.9670   68.9550   62.0010 H   0  0  0  0  0  0  0  0  0  0  0  0
   43.5430   70.2930   60.0080 H   0  0  0  0  0  0  0  0  0  0  0  0
   41.0070   71.1680   64.0360 H   0  0  0  0  0  0  0  0  0  0  0  0
   40.4440   72.7970   56.4320 C   0  0  0  0  0  0  0  0  0  0  0  0
   40.1240   71.7620   56.1980 H   0  0  0  0  0  0  0  0  0  0  0  0
   41.2140   73.0360   55.6590 H   0  0  0  0  0  0  0  0  0  0  0  0
   39.4190   73.7130   56.3840 O   0  0  0  0  0  0  0  0  0  0  0  0
   37.8660   71.7840   57.1560 O   0  0  0  0  0  0  0  0  0  0  0  0
   38.0390   73.2990   57.2330 P   0  0  2  0  0  0  0  0  0  0  0  0
   36.7080   74.0000   56.5080 O   0  0  0  0  0  0  0  0  0  0  0  0
   35.8300   73.6560   56.8130 H   0  0  0  0  0  0  0  0  0  0  0  0
   38.1340   73.7720   58.8290 O   0  0  0  0  0  0  0  0  0  0  0  0
   38.7050   74.8840   59.3780 C   0  0  0  0  0  0  0  0  0  0  0  0
   39.1950   75.1190   60.6550 C   0  0  0  0  0  3  0  0  0  0  0  0
   39.7350   76.3440   60.9840 C   0  0  0  0  0  0  0  0  0  0  0  0
   40.1010   76.4420   62.0190 H   0  0  0  0  0  0  0  0  0  0  0  0
   39.7980   77.3350   60.0760 N   0  0  0  0  0  0  0  0  0  0  0  0
   39.3170   77.1090   58.8210 C   0  0  0  0  0  3  0  0  0  0  0  0
   38.7890   75.9190   58.4890 N   0  0  0  0  0  0  0  0  0  0  0  0
  1 10  1  0  0  0  0
  2  1  1  0  0  0  0
  2  6  1  0  0  0  0
  3  2  2  0  0  0  0
  4  3  1  0  0  0  0
  4  5  1  0  0  0  0
  5  1  2  0  0  0  0
  7  3  1  0  0  0  0
  8 13  1  0  0  0  0
  9  8  2  0  0  0  0
 10  9  1  0  0  0  0
 10 11  2  0  0  0  0
 11 12  1  0  0  0  0
 12 13  2  0  0  0  0
 12 16  1  0  0  0  0
 14  8  1  0  0  0  0
 15  9  1  0  0  0  0
 17  4  1  0  0  0  0
 18 17  1  0  0  0  0
 19 17  1  0  0  0  0
 20 17  1  0  0  0  0
 20 22  1  0  0  0  0
 22 21  2  6  0  0  0
 22 25  1  0  0  0  0
 23 24  1  0  0  0  0
 23 22  1  0  0  0  0
 25 26  1  0  0  0  0
 26 27  1  0  0  0  0
 27 28  2  0  0  0  0
 28 29  1  0  0  0  0
 30 28  1  0  0  0  0
 31 30  2  0  0  0  0
 32 31  1  0  0  0  0
 32 26  2  0  0  0  0
M  END
>  <minimizedAffinity>
-5.30666733

$$$$

 OpenBabel03212520283D

 32 34  0  0  0  0  0  0  0  0999 V2000
   41.5170   68.7300   59.5510 C   0  0  0  0  0  0  0  0  0  0  0  0
   41.3050   68.7290   58.1700 C   0  0  0  0  0  0  0  0  0  0  0  0
   41.0350   70.0720   57.9200 C   0  0  0  0  0  0  0  0  0  0  0  0
   41.0880   70.7980   59.0850 N   0  0  0  0  0  0  0  0  0  0  0  0
   41.3850   69.9480   60.0640 N   0  0  0  0  0  0  0  0  0  0  0  0
   41.3340   67.9260   57.4630 H   0  0  0  0  0  0  0  0  0  0  0  0
   40.8160   70.4490   56.9120 H   0  0  0  0  0  0  0  0  0  0  0  0
   42.6530   65.2780   60.4200 C   0  0  0  0  0  0  0  0  0  0  0  0
   42.3400   66.4230   59.7050 C   0  0  0  0  0  0  0  0  0  0  0  0
   41.8360   67.5470   60.3120 C   0  0  0  0  0  0  0  0  0  0  0  0
   41.6530   67.5040   61.6430 N   0  0  0  0  0  0  0  0  0  0  0  0
   41.9620   66.3760   62.3470 C   0  0  0  0  0  0  0  0  0  0  0  0
   42.4540   65.2840   61.7400 N   0  0  0  0  0  0  0  0  0  0  0  0
   43.0450   64.4360   59.8620 H   0  0  0  0  0  0  0  0  0  0  0  0
   42.4820   66.4680   58.6400 H   0  0  0  0  0  0  0  0  0  0  0  0
   41.8210   66.3200   63.4320 H   0  0  0  0  0  0  0  0  0  0  0  0
   40.8610   72.2110   59.1850 C   0  0  0  0  0  0  0  0  0  0  0  0
   40.8510   72.6470   58.1670 H   0  0  0  0  0  0  0  0  0  0  0  0
   41.7620   72.6540   59.6740 H   0  0  0  0  0  0  0  0  0  0  0  0
   39.7310   72.4980   59.9160 O   0  0  0  0  0  0  0  0  0  0  0  0
   40.2070   74.7050   61.1920 O   0  0  0  0  0  0  0  0  0  0  0  0
   39.3600   74.1210   60.0650 P   0  0  2  0  0  0  0  0  0  0  0  0
   37.7550   74.2870   60.4980 O   0  0  0  0  0  0  0  0  0  0  0  0
   37.4910   75.1920   60.8050 H   0  0  0  0  0  0  0  0  0  0  0  0
   39.6580   74.9530   58.6510 O   0  0  0  0  0  0  0  0  0  0  0  0
   38.7860   75.5650   57.7980 C   0  0  0  0  0  0  0  0  0  0  0  0
   38.7990   76.8390   57.2440 C   0  0  0  0  0  3  0  0  0  0  0  0
   37.7920   77.2420   56.3930 C   0  0  0  0  0  0  0  0  0  0  0  0
   37.8820   78.2680   56.0000 H   0  0  0  0  0  0  0  0  0  0  0  0
   36.7800   76.4120   56.0820 N   0  0  0  0  0  0  0  0  0  0  0  0
   36.7640   75.1610   56.6230 C   0  0  0  0  0  3  0  0  0  0  0  0
   37.7400   74.7570   57.4540 N   0  0  0  0  0  0  0  0  0  0  0  0
  1  5  2  0  0  0  0
  1 10  1  0  0  0  0
  2  1  1  0  0  0  0
  3  2  2  0  0  0  0
  3  4  1  0  0  0  0
  4 17  1  0  0  0  0
  4  5  1  0  0  0  0
  6  2  1  0  0  0  0
  7  3  1  0  0  0  0
  8 13  1  0  0  0  0
  9 10  1  0  0  0  0
  9  8  2  0  0  0  0
 10 11  2  0  0  0  0
 11 12  1  0  0  0  0
 12 16  1  0  0  0  0
 13 12  2  0  0  0  0
 14  8  1  0  0  0  0
 15  9  1  0  0  0  0
 17 19  1  0  0  0  0
 17 20  1  0  0  0  0
 18 17  1  0  0  0  0
 20 22  1  0  0  0  0
 22 23  1  0  0  0  0
 22 21  2  1  0  0  0
 23 24  1  0  0  0  0
 25 22  1  0  0  0  0
 26 25  1  0  0  0  0
 27 26  2  0  0  0  0
 28 27  1  0  0  0  0
 29 28  1  0  0  0  0
 30 28  2  0  0  0  0
 30 31  1  0  0  0  0
 31 32  2  0  0  0  0
 32 26  1  0  0  0  0
M  END
>  <minimizedAffinity>
-5.25213051

$$$$

 OpenBabel03212520283D

 32 34  0  0  0  0  0  0  0  0999 V2000
   38.3950   75.8940   57.8930 C   0  0  0  0  0  0  0  0  0  0  0  0
   39.1590   76.9090   58.4750 C   0  0  0  0  0  0  0  0  0  0  0  0
   39.4200   76.3840   59.7380 C   0  0  0  0  0  0  0  0  0  0  0  0
   38.8400   75.1460   59.8730 N   0  0  0  0  0  0  0  0  0  0  0  0
   38.2210   74.8760   58.7270 N   0  0  0  0  0  0  0  0  0  0  0  0
   39.4780   77.8520   58.0800 H   0  0  0  0  0  0  0  0  0  0  0  0
   40.0130   76.9250   60.4870 H   0  0  0  0  0  0  0  0  0  0  0  0
   37.7600   75.1170   54.2940 C   0  0  0  0  0  0  0  0  0  0  0  0
   38.2580   75.0680   55.5860 C   0  0  0  0  0  0  0  0  0  0  0  0
   37.8650   75.9600   56.5530 C   0  0  0  0  0  0  0  0  0  0  0  0
   36.9680   76.8980   56.2040 N   0  0  0  0  0  0  0  0  0  0  0  0
   36.4770   76.9450   54.9310 C   0  0  0  0  0  0  0  0  0  0  0  0
   36.8700   76.0660   53.9960 N   0  0  0  0  0  0  0  0  0  0  0  0
   38.1240   74.3750   53.5930 H   0  0  0  0  0  0  0  0  0  0  0  0
   38.9770   74.3220   55.8760 H   0  0  0  0  0  0  0  0  0  0  0  0
   35.7440   77.7010   54.6260 H   0  0  0  0  0  0  0  0  0  0  0  0
   38.9130   74.3270   61.0480 C   0  0  0  0  0  0  0  0  0  0  0  0
   38.5020   73.3250   60.8140 H   0  0  0  0  0  0  0  0  0  0  0  0
   38.2020   74.7570   61.7940 H   0  0  0  0  0  0  0  0  0  0  0  0
   40.1860   74.2910   61.5690 O   0  0  0  0  0  0  0  0  0  0  0  0
   40.8310   72.0260   62.6560 O   0  0  0  0  0  0  0  0  0  0  0  0
   41.0040   72.8440   61.3800 P   0  0  2  0  0  0  0  0  0  0  0  0
   42.6350   73.1480   61.1880 O   0  0  0  0  0  0  0  0  0  0  0  0
   43.2250   72.3560   61.2690 H   0  0  0  0  0  0  0  0  0  0  0  0
   40.4280   71.9780   60.0760 O   0  0  0  0  0  0  0  0  0  0  0  0
   40.6280   72.1740   58.7400 C   0  0  0  0  0  0  0  0  0  0  0  0
   40.2260   71.4270   57.6410 C   0  0  0  0  0  3  0  0  0  0  0  0
   40.5510   71.8290   56.3640 C   0  0  0  0  0  0  0  0  0  0  0  0
   40.1910   71.1780   55.5510 H   0  0  0  0  0  0  0  0  0  0  0  0
   41.2640   72.9520   56.1560 N   0  0  0  0  0  0  0  0  0  0  0  0
   41.6610   73.6880   57.2330 C   0  0  0  0  0  3  0  0  0  0  0  0
   41.3490   73.3050   58.4820 N   0  0  0  0  0  0  0  0  0  0  0  0
  1  2  1  0  0  0  0
  1  5  2  0  0  0  0
  2  3  2  0  0  0  0
  3  4  1  0  0  0  0
  3  7  1  0  0  0  0
  4 17  1  0  0  0  0
  5  4  1  0  0  0  0
  6  2  1  0  0  0  0
  8  9  1  0  0  0  0
  9 15  1  0  0  0  0
  9 10  2  0  0  0  0
 10  1  1  0  0  0  0
 11 10  1  0  0  0  0
 12 11  2  0  0  0  0
 13  8  2  0  0  0  0
 13 12  1  0  0  0  0
 14  8  1  0  0  0  0
 16 12  1  0  0  0  0
 17 20  1  0  0  0  0
 17 19  1  0  0  0  0
 18 17  1  0  0  0  0
 22 20  1  0  0  0  0
 22 21  2  1  0  0  0
 23 24  1  0  0  0  0
 23 22  1  0  0  0  0
 25 22  1  0  0  0  0
 26 25  1  0  0  0  0
 27 26  2  0  0  0  0
 28 27  1  0  0  0  0
 29 28  1  0  0  0  0
 30 28  2  0  0  0  0
 30 31  1  0  0  0  0
 31 32  2  0  0  0  0
 32 26  1  0  0  0  0
M  END
>  <minimizedAffinity>
-5.17029858

$$$$

 OpenBabel03212520283D

 32 34  0  0  0  0  0  0  0  0999 V2000
   38.9750   75.1440   59.1740 C   0  0  0  0  0  0  0  0  0  0  0  0
   39.4340   76.0580   60.1260 C   0  0  0  0  0  0  0  0  0  0  0  0
   40.0370   75.2190   61.0600 C   0  0  0  0  0  0  0  0  0  0  0  0
   39.9290   73.9080   60.6690 N   0  0  0  0  0  0  0  0  0  0  0  0
   39.2750   73.8960   59.5110 N   0  0  0  0  0  0  0  0  0  0  0  0
   39.3590   77.1250   60.1580 H   0  0  0  0  0  0  0  0  0  0  0  0
   40.5190   75.6040   61.9690 H   0  0  0  0  0  0  0  0  0  0  0  0
   36.7390   74.9940   56.1830 C   0  0  0  0  0  0  0  0  0  0  0  0
   37.4310   74.6450   57.3320 C   0  0  0  0  0  0  0  0  0  0  0  0
   38.2630   75.5250   57.9780 C   0  0  0  0  0  0  0  0  0  0  0  0
   38.3880   76.7570   57.4550 N   0  0  0  0  0  0  0  0  0  0  0  0
   37.7060   77.1010   56.3240 C   0  0  0  0  0  0  0  0  0  0  0  0
   36.8960   76.2300   55.7020 N   0  0  0  0  0  0  0  0  0  0  0  0
   36.1040   74.2380   55.7360 H   0  0  0  0  0  0  0  0  0  0  0  0
   37.3380   73.6620   57.7590 H   0  0  0  0  0  0  0  0  0  0  0  0
   37.7950   78.1000   55.8820 H   0  0  0  0  0  0  0  0  0  0  0  0
   40.4430   72.7860   61.4000 C   0  0  0  0  0  0  0  0  0  0  0  0
   40.3310   71.8720   60.7830 H   0  0  0  0  0  0  0  0  0  0  0  0
   39.7640   72.6230   62.2720 H   0  0  0  0  0  0  0  0  0  0  0  0
   41.7310   73.0020   61.8320 O   0  0  0  0  0  0  0  0  0  0  0  0
   44.0520   73.6100   60.8460 O   0  0  0  0  0  0  0  0  0  0  0  0
   42.9370   72.5720   60.7560 P   0  0  2  0  0  0  0  0  0  0  0  0
   42.3320   72.6100   59.2000 O   0  0  0  0  0  0  0  0  0  0  0  0
   43.0130   72.5670   58.4800 H   0  0  0  0  0  0  0  0  0  0  0  0
   43.5510   71.0590   61.0930 O   0  0  0  0  0  0  0  0  0  0  0  0
   43.0780   69.8270   60.7460 C   0  0  0  0  0  0  0  0  0  0  0  0
   43.4570   68.5570   61.1590 C   0  0  0  0  0  3  0  0  0  0  0  0
   42.8230   67.4390   60.6610 C   0  0  0  0  0  0  0  0  0  0  0  0
   43.1870   66.4720   61.0440 H   0  0  0  0  0  0  0  0  0  0  0  0
   41.8250   67.5560   59.7660 N   0  0  0  0  0  0  0  0  0  0  0  0
   41.4500   68.8010   59.3570 C   0  0  0  0  0  3  0  0  0  0  0  0
   42.0610   69.8970   59.8360 N   0  0  0  0  0  0  0  0  0  0  0  0
  1  5  2  0  0  0  0
  1  2  1  0  0  0  0
  2  6  1  0  0  0  0
  2  3  2  0  0  0  0
  3  7  1  0  0  0  0
  4  3  1  0  0  0  0
  4 17  1  0  0  0  0
  5  4  1  0  0  0  0
  8  9  1  0  0  0  0
  9 15  1  0  0  0  0
  9 10  2  0  0  0  0
 10  1  1  0  0  0  0
 11 10  1  0  0  0  0
 12 11  2  0  0  0  0
 13  8  2  0  0  0  0
 13 12  1  0  0  0  0
 14  8  1  0  0  0  0
 16 12  1  0  0  0  0
 17 20  1  0  0  0  0
 17 19  1  0  0  0  0
 18 17  1  0  0  0  0
 22 21  2  1  0  0  0
 22 25  1  0  0  0  0
 22 20  1  0  0  0  0
 23 22  1  0  0  0  0
 24 23  1  0  0  0  0
 26 25  1  0  0  0  0
 26 27  1  0  0  0  0
 28 29  1  0  0  0  0
 28 27  2  0  0  0  0
 30 28  1  0  0  0  0
 31 30  2  0  0  0  0
 31 32  1  0  0  0  0
 32 26  2  0  0  0  0
M  END
>  <minimizedAffinity>
-5.13207436

$$$$

 OpenBabel03212520283D

 32 34  0  0  0  0  0  0  0  0999 V2000
   41.9560   72.6430   60.8880 C   0  0  0  0  0  0  0  0  0  0  0  0
   42.9660   73.2080   60.1050 C   0  0  0  0  0  0  0  0  0  0  0  0
   42.3370   74.3450   59.6030 C   0  0  0  0  0  0  0  0  0  0  0  0
   41.0480   74.4260   60.0680 N   0  0  0  0  0  0  0  0  0  0  0  0
   40.8460   73.3710   60.8520 N   0  0  0  0  0  0  0  0  0  0  0  0
   43.9670   72.8790   59.9200 H   0  0  0  0  0  0  0  0  0  0  0  0
   42.8470   75.0480   58.9310 H   0  0  0  0  0  0  0  0  0  0  0  0
   43.1950   69.2880   61.9700 C   0  0  0  0  0  0  0  0  0  0  0  0
   43.0300   70.4680   61.2620 C   0  0  0  0  0  0  0  0  0  0  0  0
   42.1140   71.4200   61.6370 C   0  0  0  0  0  0  0  0  0  0  0  0
   41.3700   71.1700   62.7280 N   0  0  0  0  0  0  0  0  0  0  0  0
   41.5340   70.0070   63.4240 C   0  0  0  0  0  0  0  0  0  0  0  0
   42.4330   69.0850   63.0460 N   0  0  0  0  0  0  0  0  0  0  0  0
   43.9400   68.5910   61.6040 H   0  0  0  0  0  0  0  0  0  0  0  0
   43.6190   70.6790   60.3880 H   0  0  0  0  0  0  0  0  0  0  0  0
   40.9380   69.7840   64.3160 H   0  0  0  0  0  0  0  0  0  0  0  0
   40.1220   75.4740   59.7470 C   0  0  0  0  0  0  0  0  0  0  0  0
   40.5230   76.0610   58.8970 H   0  0  0  0  0  0  0  0  0  0  0  0
   40.1200   76.1860   60.6070 H   0  0  0  0  0  0  0  0  0  0  0  0
   38.8540   74.9870   59.5280 O   0  0  0  0  0  0  0  0  0  0  0  0
   37.9990   73.1630   57.8940 O   0  0  0  0  0  0  0  0  0  0  0  0
   38.4890   74.6070   57.9400 P   0  0  2  0  0  0  0  0  0  0  0  0
   39.8750   74.7030   57.0130 O   0  0  0  0  0  0  0  0  0  0  0  0
   39.8070   74.3050   56.1080 H   0  0  0  0  0  0  0  0  0  0  0  0
   37.3170   75.6170   57.3190 O   0  0  0  0  0  0  0  0  0  0  0  0
   37.1100   76.0290   56.0350 C   0  0  0  0  0  0  0  0  0  0  0  0
   36.6180   77.2260   55.5310 C   0  0  0  0  0  3  0  0  0  0  0  0
   36.4950   77.4160   54.1720 C   0  0  0  0  0  0  0  0  0  0  0  0
   36.0970   78.3950   53.8600 H   0  0  0  0  0  0  0  0  0  0  0  0
   36.8490   76.4490   53.3070 N   0  0  0  0  0  0  0  0  0  0  0  0
   37.3320   75.2720   53.7970 C   0  0  0  0  0  3  0  0  0  0  0  0
   37.4560   75.0760   55.1200 N   0  0  0  0  0  0  0  0  0  0  0  0
  1 10  1  0  0  0  0
  2  1  1  0  0  0  0
  3  4  1  0  0  0  0
  3  2  2  0  0  0  0
  4  5  1  0  0  0  0
  5  1  2  0  0  0  0
  6  2  1  0  0  0  0
  7  3  1  0  0  0  0
  8 13  1  0  0  0  0
  9 10  1  0  0  0  0
  9  8  2  0  0  0  0
 10 11  2  0  0  0  0
 11 12  1  0  0  0  0
 12 16  1  0  0  0  0
 13 12  2  0  0  0  0
 14  8  1  0  0  0  0
 15  9  1  0  0  0  0
 17  4  1  0  0  0  0
 17 19  1  0  0  0  0
 18 17  1  0  0  0  0
 20 17  1  0  0  0  0
 22 21  2  6  0  0  0
 22 20  1  0  0  0  0
 23 22  1  0  0  0  0
 24 23  1  0  0  0  0
 25 22  1  0  0  0  0
 26 25  1  0  0  0  0
 27 26  1  0  0  0  0
 28 27  2  0  0  0  0
 29 28  1  0  0  0  0
 30 31  2  0  0  0  0
 30 28  1  0  0  0  0
 31 32  1  0  0  0  0
 32 26  2  0  0  0  0
M  END
>  <minimizedAffinity>
-5.09527636

$$$$

 OpenBabel03212520283D

 32 34  0  0  0  0  0  0  0  0999 V2000
   41.5120   73.9580   60.3020 C   0  0  0  0  0  0  0  0  0  0  0  0
   42.3920   74.6070   59.4330 C   0  0  0  0  0  0  0  0  0  0  0  0
   41.6210   75.6780   58.9910 C   0  0  0  0  0  0  0  0  0  0  0  0
   40.3760   75.6460   59.5700 N   0  0  0  0  0  0  0  0  0  0  0  0
   40.3420   74.5820   60.3670 N   0  0  0  0  0  0  0  0  0  0  0  0
   43.3990   74.3680   59.1570 H   0  0  0  0  0  0  0  0  0  0  0  0
   42.0020   76.4200   58.2760 H   0  0  0  0  0  0  0  0  0  0  0  0
   41.4970   71.2720   62.9000 C   0  0  0  0  0  0  0  0  0  0  0  0
   41.1890   72.4200   62.1870 C   0  0  0  0  0  0  0  0  0  0  0  0
   41.8470   72.7590   61.0320 C   0  0  0  0  0  0  0  0  0  0  0  0
   42.8160   71.9310   60.6040 N   0  0  0  0  0  0  0  0  0  0  0  0
   43.1190   70.8010   61.3060 C   0  0  0  0  0  0  0  0  0  0  0  0
   42.4670   70.4820   62.4350 N   0  0  0  0  0  0  0  0  0  0  0  0
   40.9290   71.0800   63.8030 H   0  0  0  0  0  0  0  0  0  0  0  0
   40.4160   73.0890   62.5210 H   0  0  0  0  0  0  0  0  0  0  0  0
   43.9050   70.1130   60.9740 H   0  0  0  0  0  0  0  0  0  0  0  0
   39.3340   76.6030   59.3350 C   0  0  0  0  0  0  0  0  0  0  0  0
   39.6560   77.5890   59.7250 H   0  0  0  0  0  0  0  0  0  0  0  0
   38.4700   76.3130   59.9790 H   0  0  0  0  0  0  0  0  0  0  0  0
   38.9550   76.6330   58.0130 O   0  0  0  0  0  0  0  0  0  0  0  0
   36.8110   75.9030   56.7480 O   0  0  0  0  0  0  0  0  0  0  0  0
   38.0170   75.3470   57.5000 P   0  0  2  0  0  0  0  0  0  0  0  0
   37.4450   74.5110   58.8290 O   0  0  0  0  0  0  0  0  0  0  0  0
   36.7240   73.8590   58.6400 H   0  0  0  0  0  0  0  0  0  0  0  0
   38.8730   74.3190   56.5050 O   0  0  0  0  0  0  0  0  0  0  0  0
   39.7190   73.2970   56.8250 C   0  0  0  0  0  0  0  0  0  0  0  0
   41.0070   73.0120   56.3900 C   0  0  0  0  0  3  0  0  0  0  0  0
   41.6760   71.9030   56.8620 C   0  0  0  0  0  0  0  0  0  0  0  0
   42.6930   71.7530   56.4640 H   0  0  0  0  0  0  0  0  0  0  0  0
   41.0960   71.0760   57.7510 N   0  0  0  0  0  0  0  0  0  0  0  0
   39.8320   71.3520   58.1800 C   0  0  0  0  0  3  0  0  0  0  0  0
   39.1710   72.4310   57.7280 N   0  0  0  0  0  0  0  0  0  0  0  0
  1  5  2  0  0  0  0
  1 10  1  0  0  0  0
  2  1  1  0  0  0  0
  3  2  2  0  0  0  0
  3  4  1  0  0  0  0
  4  5  1  0  0  0  0
  6  2  1  0  0  0  0
  7  3  1  0  0  0  0
  8 14  1  0  0  0  0
  9 15  1  0  0  0  0
  9  8  2  0  0  0  0
 10  9  1  0  0  0  0
 11 10  2  0  0  0  0
 11 12  1  0  0  0  0
 12 13  2  0  0  0  0
 13  8  1  0  0  0  0
 16 12  1  0  0  0  0
 17  4  1  0  0  0  0
 17 18  1  0  0  0  0
 17 19  1  0  0  0  0
 20 17  1  0  0  0  0
 22 21  2  6  0  0  0
 22 20  1  0  0  0  0
 22 23  1  0  0  0  0
 24 23  1  0  0  0  0
 25 26  1  0  0  0  0
 25 22  1  0  0  0  0
 26 32  1  0  0  0  0
 27 26  2  0  0  0  0
 27 28  1  0  0  0  0
 28 30  2  0  0  0  0
 29 28  1  0  0  0  0
 30 31  1  0  0  0  0
 32 31  2  0  0  0  0
M  END
>  <minimizedAffinity>
-5.07658386

$$$$
