
 OpenBabel03212521063D

 34 37  0  0  0  0  0  0  0  0999 V2000
   41.8010   84.2380   61.5510 C   0  0  0  0  0  0  0  0  0  0  0  0
   41.4670   83.9370   62.8690 C   0  0  0  0  0  0  0  0  0  0  0  0
   40.1890   83.5190   63.2070 C   0  0  0  0  0  0  0  0  0  0  0  0
   39.2220   83.4030   62.2060 C   0  0  0  0  0  0  0  0  0  0  0  0
   39.5650   83.7070   60.8960 C   0  0  0  0  0  0  0  0  0  0  0  0
   40.8300   84.1180   60.5710 C   0  0  0  0  0  0  0  0  0  0  0  0
   42.1920   84.0160   63.6770 H   0  0  0  0  0  0  0  0  0  0  0  0
   39.9290   83.2840   64.2400 H   0  0  0  0  0  0  0  0  0  0  0  0
   38.2230   83.0860   62.4100 H   0  0  0  0  0  0  0  0  0  0  0  0
   38.8190   83.6190   60.1030 H   0  0  0  0  0  0  0  0  0  0  0  0
   45.3160   84.1380   60.5520 C   0  0  0  0  0  0  0  0  0  0  0  0
   45.7100   85.4720   60.6810 C   0  0  0  0  0  0  0  0  0  0  0  0
   44.7590   86.4170   61.1150 C   0  0  0  0  0  0  0  0  0  0  0  0
   43.5030   85.9790   61.3860 N   0  0  0  0  0  0  0  0  0  0  0  0
   43.1510   84.6690   61.2510 C   0  0  0  0  0  0  0  0  0  0  0  0
   44.0560   83.7890   60.8420 N   0  0  0  0  0  0  0  0  0  0  0  0
   46.0590   83.4210   60.2180 H   0  0  0  0  0  0  0  0  0  0  0  0
   46.7120   85.8360   60.4660 H   0  0  0  0  0  0  0  0  0  0  0  0
   45.0170   87.4640   61.2290 H   0  0  0  0  0  0  0  0  0  0  0  0
   41.1410   84.4250   59.1810 C   0  0  0  0  0  0  0  0  0  0  0  0
   40.7970   85.7360   58.8560 C   0  0  0  0  0  0  0  0  0  0  0  0
   41.0190   86.2190   57.5660 C   0  0  0  0  0  0  0  0  0  0  0  0
   41.5640   85.3810   56.6800 N   0  0  0  0  0  0  0  0  0  0  0  0
   41.8970   84.1050   56.9980 C   0  0  0  0  0  0  0  0  0  0  0  0
   41.6840   83.6450   58.2370 N   0  0  0  0  0  0  0  0  0  0  0  0
   40.3540   86.4640   59.5270 H   0  0  0  0  0  0  0  0  0  0  0  0
   40.7610   87.2320   57.2870 H   0  0  0  0  0  0  0  0  0  0  0  0
   42.4950   83.1640   56.0490 C   0  0  0  0  0  0  0  0  0  0  0  0
   42.5940   83.6070   54.7400 C   0  0  0  0  0  3  0  0  0  0  0  0
   43.1470   82.7820   53.7770 C   0  0  0  0  0  0  0  0  0  0  0  0
   43.2580   83.0560   52.7360 H   0  0  0  0  0  0  0  0  0  0  0  0
   43.5760   81.5560   54.1580 N   0  0  0  0  0  0  0  0  0  0  0  0
   43.4680   81.1440   55.4470 C   0  0  0  0  0  3  0  0  0  0  0  0
   42.9300   81.9460   56.3840 N   0  0  0  0  0  0  0  0  0  0  0  0
  1  2  1  0  0  0  0
  2  3  2  0  0  0  0
  2  7  1  0  0  0  0
  3  8  1  0  0  0  0
  4  9  1  0  0  0  0
  4  3  1  0  0  0  0
  5  4  2  0  0  0  0
  6  5  1  0  0  0  0
  6  1  2  0  0  0  0
 10  5  1  0  0  0  0
 11 12  2  0  0  0  0
 11 16  1  0  0  0  0
 12 13  1  0  0  0  0
 13 19  1  0  0  0  0
 13 14  2  0  0  0  0
 15 14  1  0  0  0  0
 15  1  1  0  0  0  0
 16 15  2  0  0  0  0
 17 11  1  0  0  0  0
 18 12  1  0  0  0  0
 20  6  1  0  0  0  0
 21 20  1  0  0  0  0
 21 26  1  0  0  0  0
 22 21  2  0  0  0  0
 23 24  2  0  0  0  0
 23 22  1  0  0  0  0
 24 25  1  0  0  0  0
 25 20  2  0  0  0  0
 27 22  1  0  0  0  0
 28 34  1  0  0  0  0
 28 24  1  0  0  0  0
 29 28  2  0  0  0  0
 30 32  2  0  0  0  0
 30 29  1  0  0  0  0
 31 30  1  0  0  0  0
 32 33  1  0  0  0  0
 33 34  2  0  0  0  0
M  END
>  <minimizedAffinity>
-5.38804579

>  <minimizedRMSD>
0.363958329

$$$$
