
 OpenBabel03212520453D

 16 17  0  0  0  0  0  0  0  0999 V2000
   38.4180   75.3050   58.5250 C   0  0  0  0  0  0  0  0  0  0  0  0
   39.1850   76.3650   59.0240 C   0  0  0  0  0  0  0  0  0  0  0  0
   39.5470   76.3450   60.3900 C   0  0  0  0  0  0  0  0  0  0  0  0
   39.1190   75.2830   61.1420 N   0  0  0  0  0  0  0  0  0  0  0  0
   38.3820   74.2870   60.6170 C   0  0  0  0  0  0  0  0  0  0  0  0
   38.0310   74.2960   59.3120 N   0  0  0  0  0  0  0  0  0  0  0  0
   39.5160   77.2050   58.4030 H   0  0  0  0  0  0  0  0  0  0  0  0
   40.1370   77.1280   60.8440 H   0  0  0  0  0  0  0  0  0  0  0  0
   38.0360   73.4400   61.1950 H   0  0  0  0  0  0  0  0  0  0  0  0
   38.0490   75.3350   57.1120 C   0  0  0  0  0  0  0  0  0  0  0  0
   38.8040   74.6210   56.2030 C   0  0  0  0  0  3  0  0  0  0  0  0
   38.5310   74.5890   54.8380 C   0  0  0  0  0  0  0  0  0  0  0  0
   39.1430   74.0210   54.1530 H   0  0  0  0  0  0  0  0  0  0  0  0
   37.4530   75.3230   54.4690 N   0  0  0  0  0  0  0  0  0  0  0  0
   36.7050   76.0240   55.3410 C   0  0  0  0  0  3  0  0  0  0  0  0
   37.0070   76.0280   56.6710 N   0  0  0  0  0  0  0  0  0  0  0  0
  1  2  2  0  0  0  0
  1  6  1  0  0  0  0
  2  3  1  0  0  0  0
  3  8  1  0  0  0  0
  3  4  2  0  0  0  0
  5  4  1  0  0  0  0
  5  9  1  0  0  0  0
  6  5  2  0  0  0  0
  7  2  1  0  0  0  0
 10  1  1  0  0  0  0
 11 10  2  0  0  0  0
 12 11  1  0  0  0  0
 13 12  1  0  0  0  0
 14 12  2  0  0  0  0
 14 15  1  0  0  0  0
 15 16  2  0  0  0  0
 16 10  1  0  0  0  0
M  END
>  <minimizedAffinity>
-4.09288502

$$$$

 OpenBabel03212520453D

 16 17  0  0  0  0  0  0  0  0999 V2000
   38.0610   75.3300   57.1020 C   0  0  0  0  0  0  0  0  0  0  0  0
   38.8280   74.5690   56.2100 C   0  0  0  0  0  0  0  0  0  0  0  0
   38.4930   74.6070   54.8380 C   0  0  0  0  0  0  0  0  0  0  0  0
   37.4330   75.3900   54.4670 N   0  0  0  0  0  0  0  0  0  0  0  0
   36.7250   76.1030   55.3610 C   0  0  0  0  0  0  0  0  0  0  0  0
   37.0360   76.0760   56.6760 N   0  0  0  0  0  0  0  0  0  0  0  0
   39.6730   73.9490   56.5310 H   0  0  0  0  0  0  0  0  0  0  0  0
   39.0400   74.0460   54.0940 H   0  0  0  0  0  0  0  0  0  0  0  0
   35.8850   76.7280   55.0870 H   0  0  0  0  0  0  0  0  0  0  0  0
   38.4150   75.2850   58.5180 C   0  0  0  0  0  0  0  0  0  0  0  0
   39.1720   76.3070   59.0570 C   0  0  0  0  0  3  0  0  0  0  0  0
   39.5580   76.3510   60.3940 C   0  0  0  0  0  0  0  0  0  0  0  0
   40.1500   77.1650   60.7840 H   0  0  0  0  0  0  0  0  0  0  0  0
   39.1270   75.2990   61.1330 N   0  0  0  0  0  0  0  0  0  0  0  0
   38.3890   74.2950   60.6250 C   0  0  0  0  0  3  0  0  0  0  0  0
   38.0320   74.2900   59.3080 N   0  0  0  0  0  0  0  0  0  0  0  0
  1 10  1  0  0  0  0
  2  7  1  0  0  0  0
  2  1  2  0  0  0  0
  3  2  1  0  0  0  0
  4  3  2  0  0  0  0
  4  5  1  0  0  0  0
  5  6  2  0  0  0  0
  6  1  1  0  0  0  0
  8  3  1  0  0  0  0
  9  5  1  0  0  0  0
 10 11  2  0  0  0  0
 10 16  1  0  0  0  0
 11 12  1  0  0  0  0
 12 13  1  0  0  0  0
 12 14  2  0  0  0  0
 15 14  1  0  0  0  0
 16 15  2  0  0  0  0
M  END
>  <minimizedAffinity>
-4.09067917

$$$$

 OpenBabel03212520453D

 16 17  0  0  0  0  0  0  0  0999 V2000
   38.6560   75.8670   58.6170 C   0  0  0  0  0  0  0  0  0  0  0  0
   39.4310   76.6850   59.4490 C   0  0  0  0  0  0  0  0  0  0  0  0
   39.7760   76.2000   60.7310 C   0  0  0  0  0  0  0  0  0  0  0  0
   39.3270   74.9540   61.0790 N   0  0  0  0  0  0  0  0  0  0  0  0
   38.5840   74.2050   60.2440 C   0  0  0  0  0  0  0  0  0  0  0  0
   38.2480   74.6570   59.0150 N   0  0  0  0  0  0  0  0  0  0  0  0
   39.7780   77.6800   59.1490 H   0  0  0  0  0  0  0  0  0  0  0  0
   40.3710   76.7760   61.4260 H   0  0  0  0  0  0  0  0  0  0  0  0
   38.2210   73.2180   60.5000 H   0  0  0  0  0  0  0  0  0  0  0  0
   38.3030   76.3760   57.2940 C   0  0  0  0  0  0  0  0  0  0  0  0
   39.2350   77.1070   56.5840 C   0  0  0  0  0  3  0  0  0  0  0  0
   38.9910   77.6330   55.3170 C   0  0  0  0  0  0  0  0  0  0  0  0
   39.7420   78.2010   54.7890 H   0  0  0  0  0  0  0  0  0  0  0  0
   37.7540   77.3680   54.8330 N   0  0  0  0  0  0  0  0  0  0  0  0
   36.8330   76.6580   55.5120 C   0  0  0  0  0  3  0  0  0  0  0  0
   37.1130   76.1590   56.7510 N   0  0  0  0  0  0  0  0  0  0  0  0
  1  6  2  0  0  0  0
  1  2  1  0  0  0  0
  2  3  2  0  0  0  0
  3  4  1  0  0  0  0
  3  8  1  0  0  0  0
  5  9  1  0  0  0  0
  5  4  2  0  0  0  0
  6  5  1  0  0  0  0
  7  2  1  0  0  0  0
 10  1  1  0  0  0  0
 11 10  2  0  0  0  0
 12 11  1  0  0  0  0
 13 12  1  0  0  0  0
 14 12  2  0  0  0  0
 14 15  1  0  0  0  0
 15 16  2  0  0  0  0
 16 10  1  0  0  0  0
M  END
>  <minimizedAffinity>
-4.05377913

$$$$

 OpenBabel03212520453D

 16 17  0  0  0  0  0  0  0  0999 V2000
   38.3560   75.5030   58.0530 C   0  0  0  0  0  0  0  0  0  0  0  0
   38.6680   76.8270   57.7190 C   0  0  0  0  0  0  0  0  0  0  0  0
   37.9560   77.4370   56.6610 C   0  0  0  0  0  0  0  0  0  0  0  0
   37.0020   76.6880   56.0260 N   0  0  0  0  0  0  0  0  0  0  0  0
   36.7380   75.4180   56.3830 C   0  0  0  0  0  0  0  0  0  0  0  0
   37.4120   74.8240   57.3930 N   0  0  0  0  0  0  0  0  0  0  0  0
   39.4380   77.4070   58.2410 H   0  0  0  0  0  0  0  0  0  0  0  0
   38.1440   78.4540   56.3490 H   0  0  0  0  0  0  0  0  0  0  0  0
   35.9870   74.8100   55.8940 H   0  0  0  0  0  0  0  0  0  0  0  0
   39.0980   74.8820   59.1470 C   0  0  0  0  0  0  0  0  0  0  0  0
   38.4020   74.2440   60.1550 C   0  0  0  0  0  3  0  0  0  0  0  0
   39.0210   73.6240   61.2380 C   0  0  0  0  0  0  0  0  0  0  0  0
   38.4470   73.1340   62.0100 H   0  0  0  0  0  0  0  0  0  0  0  0
   40.3740   73.6970   61.2230 N   0  0  0  0  0  0  0  0  0  0  0  0
   41.0680   74.3140   60.2490 C   0  0  0  0  0  3  0  0  0  0  0  0
   40.4230   74.9090   59.2040 N   0  0  0  0  0  0  0  0  0  0  0  0
  1 10  1  0  0  0  0
  2  1  1  0  0  0  0
  2  7  1  0  0  0  0
  3  2  2  0  0  0  0
  4  5  2  0  0  0  0
  4  3  1  0  0  0  0
  5  6  1  0  0  0  0
  6  1  2  0  0  0  0
  8  3  1  0  0  0  0
  9  5  1  0  0  0  0
 10 16  2  0  0  0  0
 10 11  1  0  0  0  0
 11 12  2  0  0  0  0
 12 13  1  0  0  0  0
 14 12  1  0  0  0  0
 15 14  2  0  0  0  0
 16 15  1  0  0  0  0
M  END
>  <minimizedAffinity>
-4.04261541

$$$$

 OpenBabel03212520453D

 16 17  0  0  0  0  0  0  0  0999 V2000
   41.3380   72.2680   61.5780 C   0  0  0  0  0  0  0  0  0  0  0  0
   42.3690   71.7540   60.7800 C   0  0  0  0  0  0  0  0  0  0  0  0
   43.1210   70.6660   61.2760 C   0  0  0  0  0  0  0  0  0  0  0  0
   42.7920   70.1810   62.5140 N   0  0  0  0  0  0  0  0  0  0  0  0
   41.7920   70.7080   63.2440 C   0  0  0  0  0  0  0  0  0  0  0  0
   41.0650   71.7490   62.7790 N   0  0  0  0  0  0  0  0  0  0  0  0
   42.6150   72.1600   59.7920 H   0  0  0  0  0  0  0  0  0  0  0  0
   43.9310   70.2190   60.7170 H   0  0  0  0  0  0  0  0  0  0  0  0
   41.5160   70.3390   64.2230 H   0  0  0  0  0  0  0  0  0  0  0  0
   40.5670   73.3930   61.0560 C   0  0  0  0  0  0  0  0  0  0  0  0
   39.2080   73.4490   61.2990 C   0  0  0  0  0  3  0  0  0  0  0  0
   38.3910   74.4800   60.8430 C   0  0  0  0  0  0  0  0  0  0  0  0
   37.3310   74.4930   61.0490 H   0  0  0  0  0  0  0  0  0  0  0  0
   39.0420   75.4340   60.1350 N   0  0  0  0  0  0  0  0  0  0  0  0
   40.3650   75.3970   59.8890 C   0  0  0  0  0  3  0  0  0  0  0  0
   41.1300   74.3680   60.3540 N   0  0  0  0  0  0  0  0  0  0  0  0
  1  6  1  0  0  0  0
  2  3  1  0  0  0  0
  2  1  2  0  0  0  0
  3  4  2  0  0  0  0
  4  5  1  0  0  0  0
  5  9  1  0  0  0  0
  6  5  2  0  0  0  0
  7  2  1  0  0  0  0
  8  3  1  0  0  0  0
 10 11  1  0  0  0  0
 10  1  1  0  0  0  0
 12 13  1  0  0  0  0
 12 11  2  0  0  0  0
 14 12  1  0  0  0  0
 15 14  2  0  0  0  0
 15 16  1  0  0  0  0
 16 10  2  0  0  0  0
M  END
>  <minimizedAffinity>
-3.91992569

$$$$

 OpenBabel03212520453D

 16 17  0  0  0  0  0  0  0  0999 V2000
   42.0290   69.3690   62.2370 C   0  0  0  0  0  0  0  0  0  0  0  0
   42.8890   69.7290   61.1910 C   0  0  0  0  0  0  0  0  0  0  0  0
   43.1510   71.1020   60.9830 C   0  0  0  0  0  0  0  0  0  0  0  0
   42.5420   71.9970   61.8220 N   0  0  0  0  0  0  0  0  0  0  0  0
   41.7230   71.6020   62.8140 C   0  0  0  0  0  0  0  0  0  0  0  0
   41.4650   70.2920   63.0230 N   0  0  0  0  0  0  0  0  0  0  0  0
   43.3640   68.9950   60.5310 H   0  0  0  0  0  0  0  0  0  0  0  0
   43.8030   71.4540   60.1960 H   0  0  0  0  0  0  0  0  0  0  0  0
   41.2340   72.2940   63.4880 H   0  0  0  0  0  0  0  0  0  0  0  0
   41.7640   67.9480   62.4440 C   0  0  0  0  0  0  0  0  0  0  0  0
   42.6620   67.0170   61.9590 C   0  0  0  0  0  3  0  0  0  0  0  0
   42.4950   65.6420   62.1080 C   0  0  0  0  0  0  0  0  0  0  0  0
   43.2160   64.9410   61.7160 H   0  0  0  0  0  0  0  0  0  0  0  0
   41.3690   65.2870   62.7730 N   0  0  0  0  0  0  0  0  0  0  0  0
   40.4830   66.1800   63.2520 C   0  0  0  0  0  3  0  0  0  0  0  0
   40.6850   67.5190   63.0860 N   0  0  0  0  0  0  0  0  0  0  0  0
  1 10  1  0  0  0  0
  1  6  1  0  0  0  0
  2  1  2  0  0  0  0
  3  2  1  0  0  0  0
  3  4  2  0  0  0  0
  4  5  1  0  0  0  0
  5  6  2  0  0  0  0
  5  9  1  0  0  0  0
  7  2  1  0  0  0  0
  8  3  1  0  0  0  0
 10 16  1  0  0  0  0
 11 12  1  0  0  0  0
 11 10  2  0  0  0  0
 12 14  2  0  0  0  0
 13 12  1  0  0  0  0
 14 15  1  0  0  0  0
 16 15  2  0  0  0  0
M  END
>  <minimizedAffinity>
-3.80922914

$$$$

 OpenBabel03212520453D

 16 17  0  0  0  0  0  0  0  0999 V2000
   40.9150   73.7880   60.5180 C   0  0  0  0  0  0  0  0  0  0  0  0
   40.3550   73.0180   61.5460 C   0  0  0  0  0  0  0  0  0  0  0  0
   41.2180   72.2330   62.3420 C   0  0  0  0  0  0  0  0  0  0  0  0
   42.5570   72.2750   62.0540 N   0  0  0  0  0  0  0  0  0  0  0  0
   43.0490   73.0300   61.0560 C   0  0  0  0  0  0  0  0  0  0  0  0
   42.2320   73.7860   60.2880 N   0  0  0  0  0  0  0  0  0  0  0  0
   39.2790   73.0000   61.7560 H   0  0  0  0  0  0  0  0  0  0  0  0
   40.8570   71.6140   63.1510 H   0  0  0  0  0  0  0  0  0  0  0  0
   44.1030   73.0780   60.8150 H   0  0  0  0  0  0  0  0  0  0  0  0
   40.0140   74.5960   59.7010 C   0  0  0  0  0  0  0  0  0  0  0  0
   40.2310   75.9560   59.6030 C   0  0  0  0  0  3  0  0  0  0  0  0
   39.4270   76.8070   58.8490 C   0  0  0  0  0  0  0  0  0  0  0  0
   39.6240   77.8670   58.7930 H   0  0  0  0  0  0  0  0  0  0  0  0
   38.4040   76.1880   58.2120 N   0  0  0  0  0  0  0  0  0  0  0  0
   38.1770   74.8630   58.2960 C   0  0  0  0  0  3  0  0  0  0  0  0
   38.9900   74.0640   59.0460 N   0  0  0  0  0  0  0  0  0  0  0  0
  1  2  1  0  0  0  0
  2  7  1  0  0  0  0
  2  3  2  0  0  0  0
  3  8  1  0  0  0  0
  4  3  1  0  0  0  0
  5  4  2  0  0  0  0
  6  1  2  0  0  0  0
  6  5  1  0  0  0  0
  9  5  1  0  0  0  0
 10  1  1  0  0  0  0
 11 10  1  0  0  0  0
 12 11  2  0  0  0  0
 13 12  1  0  0  0  0
 14 15  2  0  0  0  0
 14 12  1  0  0  0  0
 15 16  1  0  0  0  0
 16 10  2  0  0  0  0
M  END
>  <minimizedAffinity>
-3.79137444

$$$$

 OpenBabel03212520453D

 16 17  0  0  0  0  0  0  0  0999 V2000
   39.8920   74.2620   59.8630 C   0  0  0  0  0  0  0  0  0  0  0  0
   40.1450   75.6340   59.7390 C   0  0  0  0  0  0  0  0  0  0  0  0
   39.2900   76.4010   58.9160 C   0  0  0  0  0  0  0  0  0  0  0  0
   38.2630   75.7480   58.2880 N   0  0  0  0  0  0  0  0  0  0  0  0
   38.0590   74.4270   58.4380 C   0  0  0  0  0  0  0  0  0  0  0  0
   38.8700   73.6830   59.2240 N   0  0  0  0  0  0  0  0  0  0  0  0
   40.9750   76.1350   60.2510 H   0  0  0  0  0  0  0  0  0  0  0  0
   39.4250   77.4640   58.7730 H   0  0  0  0  0  0  0  0  0  0  0  0
   37.2530   73.8940   57.9520 H   0  0  0  0  0  0  0  0  0  0  0  0
   40.7810   73.4780   60.7160 C   0  0  0  0  0  0  0  0  0  0  0  0
   42.1430   73.5190   60.4890 C   0  0  0  0  0  3  0  0  0  0  0  0
   43.0680   72.8070   61.2480 C   0  0  0  0  0  0  0  0  0  0  0  0
   44.1260   72.8600   61.0430 H   0  0  0  0  0  0  0  0  0  0  0  0
   42.5190   72.0620   62.2380 N   0  0  0  0  0  0  0  0  0  0  0  0
   41.1950   72.0100   62.4750 C   0  0  0  0  0  3  0  0  0  0  0  0
   40.3220   72.7240   61.7070 N   0  0  0  0  0  0  0  0  0  0  0  0
  1 10  1  0  0  0  0
  2  1  1  0  0  0  0
  2  7  1  0  0  0  0
  3  2  2  0  0  0  0
  4  5  2  0  0  0  0
  4  3  1  0  0  0  0
  5  6  1  0  0  0  0
  6  1  2  0  0  0  0
  8  3  1  0  0  0  0
  9  5  1  0  0  0  0
 10 16  1  0  0  0  0
 11 10  2  0  0  0  0
 11 12  1  0  0  0  0
 12 14  2  0  0  0  0
 13 12  1  0  0  0  0
 14 15  1  0  0  0  0
 16 15  2  0  0  0  0
M  END
>  <minimizedAffinity>
-3.77708578

$$$$

 OpenBabel03212520453D

 16 17  0  0  0  0  0  0  0  0999 V2000
   41.0620   74.0180   60.4720 C   0  0  0  0  0  0  0  0  0  0  0  0
   42.4000   73.9110   60.0720 C   0  0  0  0  0  0  0  0  0  0  0  0
   43.2660   73.0980   60.8370 C   0  0  0  0  0  0  0  0  0  0  0  0
   42.7360   72.4630   61.9290 N   0  0  0  0  0  0  0  0  0  0  0  0
   41.4430   72.5970   62.2750 C   0  0  0  0  0  0  0  0  0  0  0  0
   40.6060   73.3720   61.5500 N   0  0  0  0  0  0  0  0  0  0  0  0
   42.8010   74.4300   59.1930 H   0  0  0  0  0  0  0  0  0  0  0  0
   44.3090   72.9690   60.5880 H   0  0  0  0  0  0  0  0  0  0  0  0
   41.0070   72.1030   63.1330 H   0  0  0  0  0  0  0  0  0  0  0  0
   40.1750   74.8610   59.6750 C   0  0  0  0  0  0  0  0  0  0  0  0
   40.3330   76.2330   59.7160 C   0  0  0  0  0  3  0  0  0  0  0  0
   39.5370   77.1170   58.9920 C   0  0  0  0  0  0  0  0  0  0  0  0
   39.6860   78.1840   59.0460 H   0  0  0  0  0  0  0  0  0  0  0  0
   38.5850   76.5170   58.2360 N   0  0  0  0  0  0  0  0  0  0  0  0
   38.4170   75.1830   58.1840 C   0  0  0  0  0  3  0  0  0  0  0  0
   39.2200   74.3510   58.9090 N   0  0  0  0  0  0  0  0  0  0  0  0
  1  6  1  0  0  0  0
  2  1  2  0  0  0  0
  2  3  1  0  0  0  0
  3  4  2  0  0  0  0
  4  5  1  0  0  0  0
  5  9  1  0  0  0  0
  6  5  2  0  0  0  0
  7  2  1  0  0  0  0
  8  3  1  0  0  0  0
 10 11  1  0  0  0  0
 10  1  1  0  0  0  0
 12 13  1  0  0  0  0
 12 11  2  0  0  0  0
 14 12  1  0  0  0  0
 15 14  2  0  0  0  0
 15 16  1  0  0  0  0
 16 10  2  0  0  0  0
M  END
>  <minimizedAffinity>
-3.76129222

$$$$
