
 OpenBabel03212520443D

 16 17  0  0  0  0  0  0  0  0999 V2000
   40.1560   82.0020   61.1560 C   0  0  0  0  0  0  0  0  0  0  0  0
   40.3250   82.6880   59.9460 C   0  0  0  0  0  0  0  0  0  0  0  0
   39.6960   83.9440   59.7950 C   0  0  0  0  0  0  0  0  0  0  0  0
   38.9560   84.4120   60.8480 N   0  0  0  0  0  0  0  0  0  0  0  0
   38.8220   83.7160   61.9910 C   0  0  0  0  0  0  0  0  0  0  0  0
   39.4200   82.5140   62.1480 N   0  0  0  0  0  0  0  0  0  0  0  0
   40.9220   82.2920   59.1170 H   0  0  0  0  0  0  0  0  0  0  0  0
   39.7830   84.5290   58.8900 H   0  0  0  0  0  0  0  0  0  0  0  0
   38.2430   84.0700   62.8340 H   0  0  0  0  0  0  0  0  0  0  0  0
   40.8090   80.7040   61.3030 C   0  0  0  0  0  0  0  0  0  0  0  0
   42.1570   80.6580   61.6030 C   0  0  0  0  0  3  0  0  0  0  0  0
   42.8660   79.4700   61.7630 C   0  0  0  0  0  0  0  0  0  0  0  0
   43.9190   79.4690   61.9970 H   0  0  0  0  0  0  0  0  0  0  0  0
   42.1200   78.3510   61.5970 N   0  0  0  0  0  0  0  0  0  0  0  0
   40.8070   78.3760   61.3050 C   0  0  0  0  0  3  0  0  0  0  0  0
   40.1490   79.5630   61.1570 N   0  0  0  0  0  0  0  0  0  0  0  0
  1 10  1  0  0  0  0
  1  6  1  0  0  0  0
  2  1  2  0  0  0  0
  3  2  1  0  0  0  0
  3  4  2  0  0  0  0
  4  5  1  0  0  0  0
  5  6  2  0  0  0  0
  5  9  1  0  0  0  0
  7  2  1  0  0  0  0
  8  3  1  0  0  0  0
 10 11  1  0  0  0  0
 11 12  2  0  0  0  0
 12 13  1  0  0  0  0
 14 12  1  0  0  0  0
 15 14  2  0  0  0  0
 16 10  2  0  0  0  0
 16 15  1  0  0  0  0
M  END
>  <minimizedAffinity>
-4.27679777

>  <minimizedRMSD>
0.638407886

$$$$
