
 OpenBabel03212520183D

 33 35  0  0  0  0  0  0  0  0999 V2000
   43.0990   83.7730   58.5820 Cl  0  0  0  0  0  0  0  0  0  0  0  0
   41.8370   82.6270   58.2200 C   0  0  0  0  0  0  0  0  0  0  0  0
   40.9380   82.1450   59.1700 C   0  0  0  0  0  0  0  0  0  0  0  0
   40.0050   81.2470   58.7180 C   0  0  0  0  0  0  0  0  0  0  0  0
   39.8550   80.7680   57.4400 C   0  0  0  0  0  0  0  0  0  0  0  0
   40.7530   81.2590   56.5270 C   0  0  0  0  0  0  0  0  0  0  0  0
   40.6950   80.7430   54.8430 Cl  0  0  0  0  0  0  0  0  0  0  0  0
   41.7330   82.1800   56.9200 C   0  0  0  0  0  0  0  0  0  0  0  0
   39.3150   80.8900   59.4930 H   0  0  0  0  0  0  0  0  0  0  0  0
   39.1060   80.0710   57.1660 H   0  0  0  0  0  0  0  0  0  0  0  0
   41.9300   82.1090   61.5100 C   0  0  0  0  0  0  0  0  0  0  0  0
   41.0540   82.6130   60.5100 C   0  0  0  0  0  0  0  0  0  0  0  0
   40.2310   83.6560   60.8580 C   0  0  0  0  0  0  0  0  0  0  0  0
   40.3270   84.1190   62.1380 N   0  0  0  0  0  0  0  0  0  0  0  0
   41.1530   83.6370   63.0640 C   0  0  0  0  0  0  0  0  0  0  0  0
   41.9740   82.6080   62.7440 N   0  0  0  0  0  0  0  0  0  0  0  0
   42.5570   81.2880   61.1860 H   0  0  0  0  0  0  0  0  0  0  0  0
   39.5220   84.1250   60.1880 H   0  0  0  0  0  0  0  0  0  0  0  0
   41.0810   84.3000   64.3870 C   0  0  0  0  0  0  0  0  0  0  0  0
   40.7740   85.6360   64.2950 F   0  0  0  0  0  0  0  0  0  0  0  0
   40.1260   83.6770   65.1830 F   0  0  0  0  0  0  0  0  0  0  0  0
   42.3290   84.2600   65.0260 F   0  0  0  0  0  0  0  0  0  0  0  0
   42.6080   82.6340   55.9430 O   0  0  0  0  0  0  0  0  0  0  0  0
   42.3910   83.7960   55.1750 C   0  0  0  0  0  0  0  0  0  0  0  0
   41.7910   84.4780   55.8190 H   0  0  0  0  0  0  0  0  0  0  0  0
   41.7090   83.4940   54.3470 H   0  0  0  0  0  0  0  0  0  0  0  0
   43.6280   84.3880   54.6590 C   0  0  0  0  0  0  0  0  0  0  0  0
   43.8060   84.4310   53.2980 C   0  0  0  0  0  3  0  0  0  0  0  0
   44.9410   84.9700   52.7270 C   0  0  0  0  0  0  0  0  0  0  0  0
   45.1280   85.0270   51.6490 H   0  0  0  0  0  0  0  0  0  0  0  0
   45.8990   85.4670   53.5620 N   0  0  0  0  0  0  0  0  0  0  0  0
   45.6830   85.4040   54.9020 C   0  0  0  0  0  3  0  0  0  0  0  0
   44.5670   84.8750   55.4870 N   0  0  0  0  0  0  0  0  0  0  0  0
  2  1  1  0  0  0  0
  2  3  1  0  0  0  0
  3 12  1  0  0  0  0
  4  3  2  0  0  0  0
  4  9  1  0  0  0  0
  5  4  1  0  0  0  0
  6  8  1  0  0  0  0
  6  5  2  0  0  0  0
  7  6  1  0  0  0  0
  8  2  2  0  0  0  0
 10  5  1  0  0  0  0
 11 16  1  0  0  0  0
 12 13  1  0  0  0  0
 12 11  2  0  0  0  0
 13 14  2  0  0  0  0
 14 15  1  0  0  0  0
 15 19  1  0  0  0  0
 16 15  2  0  0  0  0
 17 11  1  0  0  0  0
 18 13  1  0  0  0  0
 19 22  1  0  0  0  0
 19 21  1  0  0  0  0
 20 19  1  0  0  0  0
 23  8  1  0  0  0  0
 24 25  1  0  0  0  0
 24 23  1  0  0  0  0
 26 24  1  0  0  0  0
 27 24  1  0  0  0  0
 27 33  1  0  0  0  0
 28 27  2  0  0  0  0
 29 28  1  0  0  0  0
 29 31  2  0  0  0  0
 30 29  1  0  0  0  0
 31 32  1  0  0  0  0
 32 33  2  0  0  0  0
M  END
>  <minimizedAffinity>
-5.00485659

>  <minimizedRMSD>
0.595494568

$$$$
