
 OpenBabel03212521033D

 26 28  0  0  0  0  0  0  0  0999 V2000
   42.3860   84.4550   62.2300 C   0  0  0  0  0  0  0  0  0  0  0  0
   42.2910   84.3410   63.6120 C   0  0  0  0  0  0  0  0  0  0  0  0
   41.1140   83.9540   64.2310 C   0  0  0  0  0  0  0  0  0  0  0  0
   39.9990   83.6730   63.4470 C   0  0  0  0  0  0  0  0  0  0  0  0
   40.0910   83.7880   62.0580 C   0  0  0  0  0  0  0  0  0  0  0  0
   41.2700   84.1740   61.4610 C   0  0  0  0  0  0  0  0  0  0  0  0
   43.1680   84.5620   64.2090 H   0  0  0  0  0  0  0  0  0  0  0  0
   41.1300   83.8910   65.3110 H   0  0  0  0  0  0  0  0  0  0  0  0
   39.0980   83.3740   63.9660 H   0  0  0  0  0  0  0  0  0  0  0  0
   39.1950   83.5590   61.4910 H   0  0  0  0  0  0  0  0  0  0  0  0
   45.7160   84.2860   60.7340 C   0  0  0  0  0  0  0  0  0  0  0  0
   46.0290   85.6250   60.5110 C   0  0  0  0  0  0  0  0  0  0  0  0
   45.0780   86.6040   60.8820 C   0  0  0  0  0  0  0  0  0  0  0  0
   43.9140   86.1840   61.4340 N   0  0  0  0  0  0  0  0  0  0  0  0
   43.6430   84.8640   61.6370 C   0  0  0  0  0  0  0  0  0  0  0  0
   44.5420   83.9480   61.2860 N   0  0  0  0  0  0  0  0  0  0  0  0
   46.4910   83.5990   60.4250 H   0  0  0  0  0  0  0  0  0  0  0  0
   46.9200   86.0530   60.0820 H   0  0  0  0  0  0  0  0  0  0  0  0
   45.1830   87.6700   60.7700 H   0  0  0  0  0  0  0  0  0  0  0  0
   41.3200   84.2800   60.0140 C   0  0  0  0  0  0  0  0  0  0  0  0
   41.4860   83.0300   59.4110 C   0  0  0  0  0  3  0  0  0  0  0  0
   41.5580   82.9110   58.0250 C   0  0  0  0  0  0  0  0  0  0  0  0
   41.6860   81.9580   57.5430 H   0  0  0  0  0  0  0  0  0  0  0  0
   41.4630   84.0390   57.3090 N   0  0  0  0  0  0  0  0  0  0  0  0
   41.3000   85.2580   57.8970 C   0  0  0  0  0  3  0  0  0  0  0  0
   41.2300   85.3750   59.2360 N   0  0  0  0  0  0  0  0  0  0  0  0
  1  2  1  0  0  0  0
  2  7  1  0  0  0  0
  2  3  2  0  0  0  0
  3  8  1  0  0  0  0
  4  9  1  0  0  0  0
  4  3  1  0  0  0  0
  5  4  2  0  0  0  0
  6  5  1  0  0  0  0
  6  1  2  0  0  0  0
 10  5  1  0  0  0  0
 11 16  1  0  0  0  0
 12 11  2  0  0  0  0
 12 13  1  0  0  0  0
 13 14  2  0  0  0  0
 14 15  1  0  0  0  0
 15  1  1  0  0  0  0
 16 15  2  0  0  0  0
 17 11  1  0  0  0  0
 18 12  1  0  0  0  0
 19 13  1  0  0  0  0
 20  6  1  0  0  0  0
 21 20  1  0  0  0  0
 22 21  2  0  0  0  0
 23 22  1  0  0  0  0
 24 25  2  0  0  0  0
 24 22  1  0  0  0  0
 25 26  1  0  0  0  0
 26 20  2  0  0  0  0
M  END
>  <minimizedAffinity>
-4.90046787

>  <minimizedRMSD>
2.34446311

$$$$
