
 OpenBabel03212520413D

 25 27  0  0  1  0  0  0  0  0999 V2000
   39.5240   75.4190   59.8200 C   0  0  1  0  0  0  0  0  0  0  0  0
   39.0150   75.7320   61.2240 C   0  0  0  0  0  0  0  0  0  0  0  0
   40.1600   74.7520   60.9750 C   0  0  1  0  0  0  0  0  0  0  0  0
   39.9420   76.3180   59.3320 H   0  0  0  0  0  0  0  0  0  0  0  0
   39.3080   76.6670   61.7110 H   0  0  0  0  0  0  0  0  0  0  0  0
   38.0830   75.2990   61.5840 H   0  0  0  0  0  0  0  0  0  0  0  0
   41.1920   75.1260   61.2010 H   0  0  0  0  0  0  0  0  0  0  0  0
   38.5540   74.6870   59.0690 O   0  0  0  0  0  0  0  0  0  0  0  0
   36.6710   75.1430   56.0070 C   0  0  0  0  0  0  0  0  0  0  0  0
   37.0270   76.4590   55.6620 C   0  0  0  0  0  0  0  0  0  0  0  0
   37.9180   77.1620   56.5080 C   0  0  0  0  0  0  0  0  0  0  0  0
   38.3380   76.4750   57.5780 N   0  0  0  0  0  0  0  0  0  0  0  0
   38.0100   75.2220   57.9200 C   0  0  0  0  0  0  0  0  0  0  0  0
   37.1740   74.5490   57.1360 N   0  0  0  0  0  0  0  0  0  0  0  0
   35.9910   74.5870   55.3730 H   0  0  0  0  0  0  0  0  0  0  0  0
   36.6540   76.9450   54.7950 H   0  0  0  0  0  0  0  0  0  0  0  0
   38.2410   78.1770   56.3140 H   0  0  0  0  0  0  0  0  0  0  0  0
   39.9260   73.4020   61.1380 O   0  0  0  0  0  0  0  0  0  0  0  0
   40.9480   72.4960   61.3370 C   0  0  0  0  0  0  0  0  0  0  0  0
   41.9800   72.0510   60.5390 C   0  0  0  0  0  3  0  0  0  0  0  0
   42.8580   71.1170   61.0440 C   0  0  0  0  0  0  0  0  0  0  0  0
   43.6340   70.8220   60.3600 H   0  0  0  0  0  0  0  0  0  0  0  0
   42.7550   70.6220   62.2720 N   0  0  0  0  0  0  0  0  0  0  0  0
   41.7410   71.0600   63.0530 C   0  0  0  0  0  3  0  0  0  0  0  0
   40.8460   71.9840   62.6000 N   0  0  0  0  0  0  0  0  0  0  0  0
  1  4  1  6  0  0  0
  1  3  1  0  0  0  0
  1  2  1  0  0  0  0
  2  6  1  0  0  0  0
  2  5  1  0  0  0  0
  3 18  1  0  0  0  0
  3  7  1  1  0  0  0
  3  2  1  0  0  0  0
  8  1  1  0  0  0  0
  9 14  1  0  0  0  0
 10  9  2  0  0  0  0
 10 11  1  0  0  0  0
 11 12  2  0  0  0  0
 12 13  1  0  0  0  0
 13  8  1  0  0  0  0
 14 13  2  0  0  0  0
 15  9  1  0  0  0  0
 16 10  1  0  0  0  0
 17 11  1  0  0  0  0
 18 19  1  0  0  0  0
 19 25  1  0  0  0  0
 20 21  1  0  0  0  0
 20 19  2  0  0  0  0
 21 23  2  0  0  0  0
 22 21  1  0  0  0  0
 23 24  1  0  0  0  0
 25 24  2  0  0  0  0
M  END
>  <minimizedAffinity>
-4.8010273

$$$$

 OpenBabel03212520413D

 25 27  0  0  1  0  0  0  0  0999 V2000
   42.4710   71.6340   61.2740 C   0  0  1  0  0  0  0  0  0  0  0  0
   42.1270   71.3550   62.7340 C   0  0  0  0  0  0  0  0  0  0  0  0
   42.7070   70.2800   61.8170 C   0  0  1  0  0  0  0  0  0  0  0  0
   43.2650   72.3990   61.1850 H   0  0  0  0  0  0  0  0  0  0  0  0
   42.8020   71.6970   63.5250 H   0  0  0  0  0  0  0  0  0  0  0  0
   41.0920   71.2160   63.0410 H   0  0  0  0  0  0  0  0  0  0  0  0
   43.7900   70.0340   61.9630 H   0  0  0  0  0  0  0  0  0  0  0  0
   41.2930   71.8540   60.4970 O   0  0  0  0  0  0  0  0  0  0  0  0
   40.5080   75.3690   60.0980 C   0  0  0  0  0  0  0  0  0  0  0  0
   39.2260   75.4280   60.6750 C   0  0  0  0  0  0  0  0  0  0  0  0
   38.6610   74.2380   61.1900 C   0  0  0  0  0  0  0  0  0  0  0  0
   39.4340   73.1500   61.0700 N   0  0  0  0  0  0  0  0  0  0  0  0
   40.6550   73.0770   60.5250 C   0  0  0  0  0  0  0  0  0  0  0  0
   41.2000   74.1870   60.0370 N   0  0  0  0  0  0  0  0  0  0  0  0
   40.9590   76.2690   59.6980 H   0  0  0  0  0  0  0  0  0  0  0  0
   38.6670   76.3290   60.7360 H   0  0  0  0  0  0  0  0  0  0  0  0
   37.6810   74.1990   61.6480 H   0  0  0  0  0  0  0  0  0  0  0  0
   41.8800   69.2670   61.3770 O   0  0  0  0  0  0  0  0  0  0  0  0
   42.1160   67.9400   61.6800 C   0  0  0  0  0  0  0  0  0  0  0  0
   43.2640   67.1800   61.7490 C   0  0  0  0  0  3  0  0  0  0  0  0
   43.1620   65.8490   62.0880 C   0  0  0  0  0  0  0  0  0  0  0  0
   44.1030   65.3270   62.1200 H   0  0  0  0  0  0  0  0  0  0  0  0
   42.0020   65.2600   62.3530 N   0  0  0  0  0  0  0  0  0  0  0  0
   40.8770   66.0080   62.2850 C   0  0  0  0  0  3  0  0  0  0  0  0
   40.9250   67.3300   61.9530 N   0  0  0  0  0  0  0  0  0  0  0  0
  1  4  1  6  0  0  0
  1  3  1  0  0  0  0
  1  2  1  0  0  0  0
  2  6  1  0  0  0  0
  2  5  1  0  0  0  0
  3  7  1  1  0  0  0
  3  2  1  0  0  0  0
  8 13  1  0  0  0  0
  8  1  1  0  0  0  0
  9 10  1  0  0  0  0
 10 16  1  0  0  0  0
 10 11  2  0  0  0  0
 11 17  1  0  0  0  0
 12 11  1  0  0  0  0
 13 12  2  0  0  0  0
 14  9  2  0  0  0  0
 14 13  1  0  0  0  0
 15  9  1  0  0  0  0
 18 19  1  0  0  0  0
 18  3  1  0  0  0  0
 19 20  2  0  0  0  0
 19 25  1  0  0  0  0
 20 21  1  0  0  0  0
 21 22  1  0  0  0  0
 21 23  2  0  0  0  0
 24 23  1  0  0  0  0
 25 24  2  0  0  0  0
M  END
>  <minimizedAffinity>
-4.71155977

$$$$

 OpenBabel03212520413D

 25 27  0  0  1  0  0  0  0  0999 V2000
   41.7140   71.1970   60.4990 C   0  0  1  0  0  0  0  0  0  0  0  0
   43.2000   70.9920   60.7780 C   0  0  0  0  0  0  0  0  0  0  0  0
   42.1890   69.8530   60.8910 C   0  0  1  0  0  0  0  0  0  0  0  0
   41.5380   71.4950   59.4500 H   0  0  0  0  0  0  0  0  0  0  0  0
   43.9020   70.9030   59.9430 H   0  0  0  0  0  0  0  0  0  0  0  0
   43.6400   71.3380   61.7130 H   0  0  0  0  0  0  0  0  0  0  0  0
   42.1840   69.1100   60.0530 H   0  0  0  0  0  0  0  0  0  0  0  0
   41.1070   72.0160   61.4980 O   0  0  0  0  0  0  0  0  0  0  0  0
   38.5030   74.4880   61.0110 C   0  0  0  0  0  0  0  0  0  0  0  0
   39.2170   75.5090   60.3570 C   0  0  0  0  0  0  0  0  0  0  0  0
   40.5950   75.3140   60.1010 C   0  0  0  0  0  0  0  0  0  0  0  0
   41.0840   74.1400   60.5220 N   0  0  0  0  0  0  0  0  0  0  0  0
   40.4190   73.1580   61.1440 C   0  0  0  0  0  0  0  0  0  0  0  0
   39.1240   73.3260   61.3910 N   0  0  0  0  0  0  0  0  0  0  0  0
   37.4470   74.6180   61.2160 H   0  0  0  0  0  0  0  0  0  0  0  0
   38.7630   76.4180   60.0510 H   0  0  0  0  0  0  0  0  0  0  0  0
   41.2140   76.0500   59.6040 H   0  0  0  0  0  0  0  0  0  0  0  0
   41.8400   69.3980   62.1460 O   0  0  0  0  0  0  0  0  0  0  0  0
   41.5990   68.0630   62.4040 C   0  0  0  0  0  0  0  0  0  0  0  0
   41.0620   67.3950   63.4840 C   0  0  0  0  0  3  0  0  0  0  0  0
   40.9520   66.0230   63.4310 C   0  0  0  0  0  0  0  0  0  0  0  0
   40.5240   65.5780   64.3130 H   0  0  0  0  0  0  0  0  0  0  0  0
   41.3420   65.3090   62.3820 N   0  0  0  0  0  0  0  0  0  0  0  0
   41.8680   65.9670   61.3230 C   0  0  0  0  0  3  0  0  0  0  0  0
   41.9980   67.3240   61.3270 N   0  0  0  0  0  0  0  0  0  0  0  0
  1  4  1  6  0  0  0
  1  2  1  0  0  0  0
  1  3  1  0  0  0  0
  1  8  1  0  0  0  0
  2  3  1  0  0  0  0
  2  6  1  0  0  0  0
  3  7  1  6  0  0  0
  3 18  1  0  0  0  0
  5  2  1  0  0  0  0
  9 15  1  0  0  0  0
  9 14  1  0  0  0  0
 10  9  2  0  0  0  0
 11 10  1  0  0  0  0
 11 12  2  0  0  0  0
 12 13  1  0  0  0  0
 13 14  2  0  0  0  0
 13  8  1  0  0  0  0
 16 10  1  0  0  0  0
 17 11  1  0  0  0  0
 18 19  1  0  0  0  0
 19 20  1  0  0  0  0
 21 20  2  0  0  0  0
 21 22  1  0  0  0  0
 23 21  1  0  0  0  0
 24 25  1  0  0  0  0
 24 23  2  0  0  0  0
 25 19  2  0  0  0  0
M  END
>  <minimizedAffinity>
-4.59076977

$$$$

 OpenBabel03212520413D

 25 27  0  0  1  0  0  0  0  0999 V2000
   39.4310   75.4960   60.3630 C   0  0  1  0  0  0  0  0  0  0  0  0
   40.3610   76.7000   60.4870 C   0  0  0  0  0  0  0  0  0  0  0  0
   39.2240   76.6530   59.4670 C   0  0  1  0  0  0  0  0  0  0  0  0
   38.8520   75.3360   61.2900 H   0  0  0  0  0  0  0  0  0  0  0  0
   40.2160   77.4150   61.3030 H   0  0  0  0  0  0  0  0  0  0  0  0
   41.3710   76.6630   60.0820 H   0  0  0  0  0  0  0  0  0  0  0  0
   38.3130   77.2560   59.7110 H   0  0  0  0  0  0  0  0  0  0  0  0
   40.1240   74.3590   59.8470 O   0  0  0  0  0  0  0  0  0  0  0  0
   41.0710   72.0120   62.4400 C   0  0  0  0  0  0  0  0  0  0  0  0
   42.4680   71.9710   62.2720 C   0  0  0  0  0  0  0  0  0  0  0  0
   43.0510   72.7640   61.2560 C   0  0  0  0  0  0  0  0  0  0  0  0
   42.1810   73.4900   60.5410 N   0  0  0  0  0  0  0  0  0  0  0  0
   40.8500   73.5410   60.6880 C   0  0  0  0  0  0  0  0  0  0  0  0
   40.2880   72.8030   61.6390 N   0  0  0  0  0  0  0  0  0  0  0  0
   40.6060   71.4130   63.2140 H   0  0  0  0  0  0  0  0  0  0  0  0
   43.0990   71.3690   62.8780 H   0  0  0  0  0  0  0  0  0  0  0  0
   44.1150   72.7880   61.0620 H   0  0  0  0  0  0  0  0  0  0  0  0
   39.5370   76.4870   58.1330 O   0  0  0  0  0  0  0  0  0  0  0  0
   38.6000   76.6450   57.1320 C   0  0  0  0  0  0  0  0  0  0  0  0
   38.3780   77.6350   56.1980 C   0  0  0  0  0  3  0  0  0  0  0  0
   37.3320   77.4920   55.3130 C   0  0  0  0  0  0  0  0  0  0  0  0
   37.2260   78.3060   54.6170 H   0  0  0  0  0  0  0  0  0  0  0  0
   36.5230   76.4400   55.3180 N   0  0  0  0  0  0  0  0  0  0  0  0
   36.7430   75.4700   56.2350 C   0  0  0  0  0  3  0  0  0  0  0  0
   37.7650   75.5640   57.1330 N   0  0  0  0  0  0  0  0  0  0  0  0
  1  2  1  0  0  0  0
  1  4  1  1  0  0  0
  2  5  1  0  0  0  0
  3  7  1  1  0  0  0
  3  1  1  0  0  0  0
  3  2  1  0  0  0  0
  6  2  1  0  0  0  0
  8  1  1  0  0  0  0
  8 13  1  0  0  0  0
  9 15  1  0  0  0  0
 10  9  1  0  0  0  0
 10 16  1  0  0  0  0
 11 10  2  0  0  0  0
 12 13  2  0  0  0  0
 12 11  1  0  0  0  0
 13 14  1  0  0  0  0
 14  9  2  0  0  0  0
 17 11  1  0  0  0  0
 18  3  1  0  0  0  0
 19 25  1  0  0  0  0
 19 18  1  0  0  0  0
 20 19  2  0  0  0  0
 21 23  2  0  0  0  0
 21 20  1  0  0  0  0
 22 21  1  0  0  0  0
 23 24  1  0  0  0  0
 24 25  2  0  0  0  0
M  END
>  <minimizedAffinity>
-4.55169487

$$$$

 OpenBabel03212520413D

 25 27  0  0  1  0  0  0  0  0999 V2000
   41.5590   71.3780   62.6770 C   0  0  1  0  0  0  0  0  0  0  0  0
   42.3000   72.6950   62.4620 C   0  0  0  0  0  0  0  0  0  0  0  0
   40.9480   72.4080   61.8120 C   0  0  1  0  0  0  0  0  0  0  0  0
   41.2860   71.2370   63.7390 H   0  0  0  0  0  0  0  0  0  0  0  0
   42.2810   73.4610   63.2430 H   0  0  0  0  0  0  0  0  0  0  0  0
   43.1550   72.7450   61.7890 H   0  0  0  0  0  0  0  0  0  0  0  0
   40.0600   72.9150   62.2700 H   0  0  0  0  0  0  0  0  0  0  0  0
   42.2430   70.2910   62.0520 O   0  0  0  0  0  0  0  0  0  0  0  0
   41.2130   66.9270   61.1870 C   0  0  0  0  0  0  0  0  0  0  0  0
   40.6270   66.5040   62.3940 C   0  0  0  0  0  0  0  0  0  0  0  0
   40.6040   67.4020   63.4870 C   0  0  0  0  0  0  0  0  0  0  0  0
   41.1610   68.5970   63.2440 N   0  0  0  0  0  0  0  0  0  0  0  0
   41.7220   69.0160   62.1020 C   0  0  0  0  0  0  0  0  0  0  0  0
   41.7500   68.1830   61.0670 N   0  0  0  0  0  0  0  0  0  0  0  0
   41.2400   66.2540   60.3380 H   0  0  0  0  0  0  0  0  0  0  0  0
   40.2030   65.5380   62.5160 H   0  0  0  0  0  0  0  0  0  0  0  0
   40.1730   67.1540   64.4480 H   0  0  0  0  0  0  0  0  0  0  0  0
   40.9040   72.1550   60.4560 O   0  0  0  0  0  0  0  0  0  0  0  0
   39.9200   72.6780   59.6410 C   0  0  0  0  0  0  0  0  0  0  0  0
   39.4440   72.3260   58.3960 C   0  0  0  0  0  3  0  0  0  0  0  0
   38.4260   73.0680   57.8380 C   0  0  0  0  0  0  0  0  0  0  0  0
   38.1120   72.7290   56.8660 H   0  0  0  0  0  0  0  0  0  0  0  0
   37.8790   74.1130   58.4470 N   0  0  0  0  0  0  0  0  0  0  0  0
   38.3480   74.4560   59.6690 C   0  0  0  0  0  3  0  0  0  0  0  0
   39.3530   73.7540   60.2640 N   0  0  0  0  0  0  0  0  0  0  0  0
  1  4  1  1  0  0  0
  2  1  1  0  0  0  0
  2  5  1  0  0  0  0
  3  7  1  1  0  0  0
  3  2  1  0  0  0  0
  3  1  1  0  0  0  0
  6  2  1  0  0  0  0
  8 13  1  0  0  0  0
  8  1  1  0  0  0  0
  9 10  1  0  0  0  0
 10 16  1  0  0  0  0
 10 11  2  0  0  0  0
 11 17  1  0  0  0  0
 12 11  1  0  0  0  0
 13 12  2  0  0  0  0
 14  9  2  0  0  0  0
 14 13  1  0  0  0  0
 15  9  1  0  0  0  0
 18  3  1  0  0  0  0
 19 25  1  0  0  0  0
 19 18  1  0  0  0  0
 20 19  2  0  0  0  0
 21 20  1  0  0  0  0
 21 23  2  0  0  0  0
 22 21  1  0  0  0  0
 23 24  1  0  0  0  0
 24 25  2  0  0  0  0
M  END
>  <minimizedAffinity>
-4.5109973

$$$$

 OpenBabel03212520413D

 25 27  0  0  1  0  0  0  0  0999 V2000
   42.1900   72.1400   61.2460 C   0  0  1  0  0  0  0  0  0  0  0  0
   41.6600   71.9050   62.6580 C   0  0  0  0  0  0  0  0  0  0  0  0
   40.8060   72.5470   61.5660 C   0  0  1  0  0  0  0  0  0  0  0  0
   42.4420   71.1880   60.7460 H   0  0  0  0  0  0  0  0  0  0  0  0
   41.3440   70.9010   62.9580 H   0  0  0  0  0  0  0  0  0  0  0  0
   41.9610   72.5570   63.4770 H   0  0  0  0  0  0  0  0  0  0  0  0
   40.0230   71.8940   61.1010 H   0  0  0  0  0  0  0  0  0  0  0  0
   43.2030   73.1470   61.2340 O   0  0  0  0  0  0  0  0  0  0  0  0
   45.3110   73.4290   58.3000 C   0  0  0  0  0  0  0  0  0  0  0  0
   44.7380   74.5440   57.6610 C   0  0  0  0  0  0  0  0  0  0  0  0
   43.6260   75.1740   58.2670 C   0  0  0  0  0  0  0  0  0  0  0  0
   43.2280   74.6230   59.4220 N   0  0  0  0  0  0  0  0  0  0  0  0
   43.7610   73.5630   60.0440 C   0  0  0  0  0  0  0  0  0  0  0  0
   44.8060   72.9600   59.4860 N   0  0  0  0  0  0  0  0  0  0  0  0
   46.1630   72.9320   57.8530 H   0  0  0  0  0  0  0  0  0  0  0  0
   45.1070   74.9280   56.7430 H   0  0  0  0  0  0  0  0  0  0  0  0
   43.1290   76.0350   57.8400 H   0  0  0  0  0  0  0  0  0  0  0  0
   40.5420   73.9000   61.6400 O   0  0  0  0  0  0  0  0  0  0  0  0
   39.8880   74.5780   60.6310 C   0  0  0  0  0  0  0  0  0  0  0  0
   39.9380   75.8830   60.1880 C   0  0  0  0  0  3  0  0  0  0  0  0
   39.1400   76.2580   59.1290 C   0  0  0  0  0  0  0  0  0  0  0  0
   39.2380   77.2910   58.8450 H   0  0  0  0  0  0  0  0  0  0  0  0
   38.3190   75.4160   58.5130 N   0  0  0  0  0  0  0  0  0  0  0  0
   38.2720   74.1360   58.9500 C   0  0  0  0  0  3  0  0  0  0  0  0
   39.0420   73.7160   59.9930 N   0  0  0  0  0  0  0  0  0  0  0  0
  1  4  1  6  0  0  0
  1  3  1  0  0  0  0
  1  2  1  0  0  0  0
  2  5  1  0  0  0  0
  2  6  1  0  0  0  0
  3  7  1  6  0  0  0
  3 18  1  0  0  0  0
  3  2  1  0  0  0  0
  8  1  1  0  0  0  0
  9 14  1  0  0  0  0
 10 11  1  0  0  0  0
 10  9  2  0  0  0  0
 11 12  2  0  0  0  0
 12 13  1  0  0  0  0
 13  8  1  0  0  0  0
 14 13  2  0  0  0  0
 15  9  1  0  0  0  0
 16 10  1  0  0  0  0
 17 11  1  0  0  0  0
 19 18  1  0  0  0  0
 20 19  1  0  0  0  0
 21 20  2  0  0  0  0
 22 21  1  0  0  0  0
 23 24  2  0  0  0  0
 23 21  1  0  0  0  0
 24 25  1  0  0  0  0
 25 19  2  0  0  0  0
M  END
>  <minimizedAffinity>
-4.49936056

$$$$

 OpenBabel03212520413D

 25 27  0  0  1  0  0  0  0  0999 V2000
   41.9620   71.8900   62.7120 C   0  0  1  0  0  0  0  0  0  0  0  0
   42.6160   72.2580   61.3830 C   0  0  0  0  0  0  0  0  0  0  0  0
   41.3890   72.9950   61.9160 C   0  0  1  0  0  0  0  0  0  0  0  0
   42.6530   72.0470   63.5590 H   0  0  0  0  0  0  0  0  0  0  0  0
   43.5390   72.8470   61.3790 H   0  0  0  0  0  0  0  0  0  0  0  0
   42.4600   71.6410   60.4990 H   0  0  0  0  0  0  0  0  0  0  0  0
   41.5700   74.0090   62.3550 H   0  0  0  0  0  0  0  0  0  0  0  0
   41.3320   70.6100   62.6400 O   0  0  0  0  0  0  0  0  0  0  0  0
   42.7110   67.4720   61.4670 C   0  0  0  0  0  0  0  0  0  0  0  0
   43.6970   67.2280   62.4410 C   0  0  0  0  0  0  0  0  0  0  0  0
   43.8620   68.1660   63.4870 C   0  0  0  0  0  0  0  0  0  0  0  0
   43.0330   69.2170   63.4350 N   0  0  0  0  0  0  0  0  0  0  0  0
   42.0890   69.4640   62.5170 C   0  0  0  0  0  0  0  0  0  0  0  0
   41.9220   68.5910   61.5280 N   0  0  0  0  0  0  0  0  0  0  0  0
   42.5690   66.7650   60.6580 H   0  0  0  0  0  0  0  0  0  0  0  0
   44.3220   66.3700   62.4190 H   0  0  0  0  0  0  0  0  0  0  0  0
   44.5960   68.0520   64.2730 H   0  0  0  0  0  0  0  0  0  0  0  0
   40.1680   72.7750   61.3090 O   0  0  0  0  0  0  0  0  0  0  0  0
   39.6040   73.6860   60.4390 C   0  0  0  0  0  0  0  0  0  0  0  0
   38.7900   73.5530   59.3340 C   0  0  0  0  0  3  0  0  0  0  0  0
   38.3880   74.6870   58.6630 C   0  0  0  0  0  0  0  0  0  0  0  0
   37.7550   74.4970   57.8130 H   0  0  0  0  0  0  0  0  0  0  0  0
   38.7500   75.9090   59.0320 N   0  0  0  0  0  0  0  0  0  0  0  0
   39.5490   76.0370   60.1170 C   0  0  0  0  0  3  0  0  0  0  0  0
   39.9740   74.9470   60.8150 N   0  0  0  0  0  0  0  0  0  0  0  0
  1  4  1  1  0  0  0
  2  3  1  0  0  0  0
  2  1  1  0  0  0  0
  3  7  1  1  0  0  0
  3  1  1  0  0  0  0
  5  2  1  0  0  0  0
  6  2  1  0  0  0  0
  8  1  1  0  0  0  0
  9 14  2  0  0  0  0
  9 10  1  0  0  0  0
 10 11  2  0  0  0  0
 11 17  1  0  0  0  0
 12 11  1  0  0  0  0
 13  8  1  0  0  0  0
 13 12  2  0  0  0  0
 14 13  1  0  0  0  0
 15  9  1  0  0  0  0
 16 10  1  0  0  0  0
 18  3  1  0  0  0  0
 19 25  1  0  0  0  0
 19 18  1  0  0  0  0
 20 19  2  0  0  0  0
 21 23  2  0  0  0  0
 21 20  1  0  0  0  0
 22 21  1  0  0  0  0
 23 24  1  0  0  0  0
 24 25  2  0  0  0  0
M  END
>  <minimizedAffinity>
-4.31260443

$$$$

 OpenBabel03212520413D

 25 27  0  0  1  0  0  0  0  0999 V2000
   42.7820   74.3100   58.5790 C   0  0  1  0  0  0  0  0  0  0  0  0
   44.2650   74.6340   58.4200 C   0  0  0  0  0  0  0  0  0  0  0  0
   43.7810   73.3830   59.1500 C   0  0  1  0  0  0  0  0  0  0  0  0
   42.2970   74.1500   57.6000 H   0  0  0  0  0  0  0  0  0  0  0  0
   44.7610   74.4450   57.4630 H   0  0  0  0  0  0  0  0  0  0  0  0
   44.7330   75.4000   59.0370 H   0  0  0  0  0  0  0  0  0  0  0  0
   43.8720   72.4160   58.5930 H   0  0  0  0  0  0  0  0  0  0  0  0
   42.1410   75.2360   59.4570 O   0  0  0  0  0  0  0  0  0  0  0  0
   38.9520   75.5160   61.1540 C   0  0  0  0  0  0  0  0  0  0  0  0
   38.3580   74.2860   60.8190 C   0  0  0  0  0  0  0  0  0  0  0  0
   39.0820   73.3830   60.0060 C   0  0  0  0  0  0  0  0  0  0  0  0
   40.2950   73.8130   59.6320 N   0  0  0  0  0  0  0  0  0  0  0  0
   40.8760   74.9790   59.9430 C   0  0  0  0  0  0  0  0  0  0  0  0
   40.2080   75.8370   60.7060 N   0  0  0  0  0  0  0  0  0  0  0  0
   38.4140   76.2210   61.7770 H   0  0  0  0  0  0  0  0  0  0  0  0
   37.3880   74.0100   61.1520 H   0  0  0  0  0  0  0  0  0  0  0  0
   38.6960   72.4180   59.7040 H   0  0  0  0  0  0  0  0  0  0  0  0
   43.8900   73.3350   60.5260 O   0  0  0  0  0  0  0  0  0  0  0  0
   43.1930   72.4180   61.2870 C   0  0  0  0  0  0  0  0  0  0  0  0
   42.2920   72.5450   62.3230 C   0  0  0  0  0  3  0  0  0  0  0  0
   41.7610   71.4060   62.8870 C   0  0  0  0  0  0  0  0  0  0  0  0
   41.0670   71.5910   63.6880 H   0  0  0  0  0  0  0  0  0  0  0  0
   42.0780   70.1840   62.4770 N   0  0  0  0  0  0  0  0  0  0  0  0
   42.9620   70.0620   61.4600 C   0  0  0  0  0  3  0  0  0  0  0  0
   43.5160   71.1580   60.8690 N   0  0  0  0  0  0  0  0  0  0  0  0
  1  4  1  6  0  0  0
  1  3  1  0  0  0  0
  1  8  1  0  0  0  0
  2  1  1  0  0  0  0
  2  6  1  0  0  0  0
  2  3  1  0  0  0  0
  3  7  1  6  0  0  0
  3 18  1  0  0  0  0
  5  2  1  0  0  0  0
  8 13  1  0  0  0  0
  9 15  1  0  0  0  0
 10 16  1  0  0  0  0
 10  9  1  0  0  0  0
 11 10  2  0  0  0  0
 12 13  2  0  0  0  0
 12 11  1  0  0  0  0
 13 14  1  0  0  0  0
 14  9  2  0  0  0  0
 17 11  1  0  0  0  0
 18 19  1  0  0  0  0
 19 20  1  0  0  0  0
 20 21  2  0  0  0  0
 21 22  1  0  0  0  0
 23 21  1  0  0  0  0
 24 23  2  0  0  0  0
 25 19  2  0  0  0  0
 25 24  1  0  0  0  0
M  END
>  <minimizedAffinity>
-4.29636049

$$$$

 OpenBabel03212520413D

 25 27  0  0  1  0  0  0  0  0999 V2000
   40.5620   77.0390   58.5090 C   0  0  1  0  0  0  0  0  0  0  0  0
   41.2530   77.6350   59.7320 C   0  0  0  0  0  0  0  0  0  0  0  0
   41.3260   76.1450   59.4030 C   0  0  1  0  0  0  0  0  0  0  0  0
   40.9720   77.4540   57.5710 H   0  0  0  0  0  0  0  0  0  0  0  0
   42.1950   78.1790   59.6110 H   0  0  0  0  0  0  0  0  0  0  0  0
   40.6770   77.9040   60.6160 H   0  0  0  0  0  0  0  0  0  0  0  0
   42.2890   75.7810   58.9630 H   0  0  0  0  0  0  0  0  0  0  0  0
   39.1410   77.0780   58.6470 O   0  0  0  0  0  0  0  0  0  0  0  0
   37.1460   74.6720   56.8140 C   0  0  0  0  0  0  0  0  0  0  0  0
   36.7060   75.4540   55.7300 C   0  0  0  0  0  0  0  0  0  0  0  0
   37.1140   76.8070   55.6620 C   0  0  0  0  0  0  0  0  0  0  0  0
   37.9010   77.2080   56.6700 N   0  0  0  0  0  0  0  0  0  0  0  0
   38.3300   76.4780   57.7080 C   0  0  0  0  0  0  0  0  0  0  0  0
   37.9550   75.2050   57.7850 N   0  0  0  0  0  0  0  0  0  0  0  0
   36.8450   73.6340   56.8840 H   0  0  0  0  0  0  0  0  0  0  0  0
   36.0800   75.0690   54.9640 H   0  0  0  0  0  0  0  0  0  0  0  0
   36.8200   77.4740   54.8630 H   0  0  0  0  0  0  0  0  0  0  0  0
   40.6080   75.2590   60.1800 O   0  0  0  0  0  0  0  0  0  0  0  0
   40.9200   73.9150   60.2440 C   0  0  0  0  0  0  0  0  0  0  0  0
   41.3720   73.1010   61.2600 C   0  0  0  0  0  3  0  0  0  0  0  0
   41.5930   71.7670   60.9970 C   0  0  0  0  0  0  0  0  0  0  0  0
   41.9440   71.2010   61.8410 H   0  0  0  0  0  0  0  0  0  0  0  0
   41.3900   71.2260   59.8010 N   0  0  0  0  0  0  0  0  0  0  0  0
   40.9470   72.0280   58.8060 C   0  0  0  0  0  3  0  0  0  0  0  0
   40.7130   73.3540   59.0160 N   0  0  0  0  0  0  0  0  0  0  0  0
  1  4  1  6  0  0  0
  1  8  1  0  0  0  0
  1  3  1  0  0  0  0
  1  2  1  0  0  0  0
  2  6  1  0  0  0  0
  3  7  1  6  0  0  0
  3  2  1  0  0  0  0
  3 18  1  0  0  0  0
  5  2  1  0  0  0  0
  9 15  1  0  0  0  0
  9 14  1  0  0  0  0
 10  9  2  0  0  0  0
 11 10  1  0  0  0  0
 11 12  2  0  0  0  0
 12 13  1  0  0  0  0
 13 14  2  0  0  0  0
 13  8  1  0  0  0  0
 16 10  1  0  0  0  0
 17 11  1  0  0  0  0
 18 19  1  0  0  0  0
 19 20  1  0  0  0  0
 21 20  2  0  0  0  0
 21 22  1  0  0  0  0
 23 21  1  0  0  0  0
 24 25  1  0  0  0  0
 24 23  2  0  0  0  0
 25 19  2  0  0  0  0
M  END
>  <minimizedAffinity>
-4.28089428

$$$$
