
 OpenBabel03212520503D

 26 28  0  0  0  0  0  0  0  0999 V2000
   42.0710   74.5890   59.5370 C   0  0  0  0  0  0  0  0  0  0  0  0
   43.3380   75.0790   59.2820 C   0  0  0  0  0  0  0  0  0  0  0  0
   44.4790   74.4160   59.7640 C   0  0  0  0  0  0  0  0  0  0  0  0
   44.3500   73.2890   60.4850 N   0  0  0  0  0  0  0  0  0  0  0  0
   43.1110   72.8270   60.7240 C   0  0  0  0  0  0  0  0  0  0  0  0
   42.0090   73.4670   60.2580 N   0  0  0  0  0  0  0  0  0  0  0  0
   43.4310   75.9890   58.7000 H   0  0  0  0  0  0  0  0  0  0  0  0
   45.4610   74.8320   59.5450 H   0  0  0  0  0  0  0  0  0  0  0  0
   38.6220   75.1960   58.4960 C   0  0  0  0  0  0  0  0  0  0  0  0
   38.6690   76.5430   58.1320 C   0  0  0  0  0  0  0  0  0  0  0  0
   39.8790   77.2510   58.2410 C   0  0  0  0  0  0  0  0  0  0  0  0
   40.9570   76.5460   58.7090 N   0  0  0  0  0  0  0  0  0  0  0  0
   40.8750   75.2600   59.0470 C   0  0  0  0  0  0  0  0  0  0  0  0
   39.7310   74.5980   58.9430 N   0  0  0  0  0  0  0  0  0  0  0  0
   37.3370   74.6370   58.3270 N   0  0  0  0  0  0  0  0  0  0  0  0
   37.8370   77.1180   57.7610 H   0  0  0  0  0  0  0  0  0  0  0  0
   39.9520   78.3000   57.9670 H   0  0  0  0  0  0  0  0  0  0  0  0
   36.4640   75.1190   58.6830 H   0  0  0  0  0  0  0  0  0  0  0  0
   37.3970   73.7140   57.8170 H   0  0  0  0  0  0  0  0  0  0  0  0
   42.8910   71.6100   61.4970 C   0  0  0  0  0  0  0  0  0  0  0  0
   42.0300   71.5780   62.5750 C   0  0  0  0  0  3  0  0  0  0  0  0
   41.7830   70.4550   63.3450 C   0  0  0  0  0  0  0  0  0  0  0  0
   41.0990   70.4660   64.1860 H   0  0  0  0  0  0  0  0  0  0  0  0
   42.4260   69.3480   63.0060 N   0  0  0  0  0  0  0  0  0  0  0  0
   43.2740   69.3280   61.9650 C   0  0  0  0  0  3  0  0  0  0  0  0
   43.5210   70.4350   61.2040 N   0  0  0  0  0  0  0  0  0  0  0  0
  1  6  1  0  0  0  0
  2  1  2  0  0  0  0
  2  3  1  0  0  0  0
  3  4  2  0  0  0  0
  4  5  1  0  0  0  0
  5 20  1  0  0  0  0
  6  5  2  0  0  0  0
  7  2  1  0  0  0  0
  8  3  1  0  0  0  0
  9 14  1  0  0  0  0
 10 11  1  0  0  0  0
 10  9  2  0  0  0  0
 11 12  2  0  0  0  0
 12 13  1  0  0  0  0
 13  1  1  0  0  0  0
 14 13  2  0  0  0  0
 15  9  1  0  0  0  0
 15 18  1  0  0  0  0
 16 10  1  0  0  0  0
 17 11  1  0  0  0  0
 19 15  1  0  0  0  0
 20 21  1  0  0  0  0
 21 22  2  0  0  0  0
 22 23  1  0  0  0  0
 24 22  1  0  0  0  0
 25 24  2  0  0  0  0
 26 20  2  0  0  0  0
 26 25  1  0  0  0  0
M  END
>  <minimizedAffinity>
-5.57471275

$$$$

 OpenBabel03212520503D

 26 28  0  0  0  0  0  0  0  0999 V2000
   39.0470   75.6080   58.1890 C   0  0  0  0  0  0  0  0  0  0  0  0
   39.1470   76.7880   58.9010 C   0  0  0  0  0  0  0  0  0  0  0  0
   39.7910   76.8250   60.1500 C   0  0  0  0  0  0  0  0  0  0  0  0
   40.3200   75.7040   60.6690 N   0  0  0  0  0  0  0  0  0  0  0  0
   40.2140   74.5660   59.9630 C   0  0  0  0  0  0  0  0  0  0  0  0
   39.5930   74.5300   58.7570 N   0  0  0  0  0  0  0  0  0  0  0  0
   38.7160   77.6870   58.4740 H   0  0  0  0  0  0  0  0  0  0  0  0
   39.8490   77.7720   60.6840 H   0  0  0  0  0  0  0  0  0  0  0  0
   38.2570   74.6830   54.7440 C   0  0  0  0  0  0  0  0  0  0  0  0
   37.1250   75.4600   54.4940 C   0  0  0  0  0  0  0  0  0  0  0  0
   36.6270   76.3050   55.5010 C   0  0  0  0  0  0  0  0  0  0  0  0
   37.3080   76.3040   56.6900 N   0  0  0  0  0  0  0  0  0  0  0  0
   38.3860   75.5480   56.8930 C   0  0  0  0  0  0  0  0  0  0  0  0
   38.8520   74.7530   55.9400 N   0  0  0  0  0  0  0  0  0  0  0  0
   38.6250   73.8930   53.6320 N   0  0  0  0  0  0  0  0  0  0  0  0
   36.5730   75.4790   53.5690 H   0  0  0  0  0  0  0  0  0  0  0  0
   35.7480   76.9250   55.3410 H   0  0  0  0  0  0  0  0  0  0  0  0
   37.9190   73.3110   53.1000 H   0  0  0  0  0  0  0  0  0  0  0  0
   39.6590   73.9810   53.4400 H   0  0  0  0  0  0  0  0  0  0  0  0
   40.7640   73.3090   60.4600 C   0  0  0  0  0  0  0  0  0  0  0  0
   40.9070   73.0610   61.8100 C   0  0  0  0  0  3  0  0  0  0  0  0
   41.4230   71.8910   62.3390 C   0  0  0  0  0  0  0  0  0  0  0  0
   41.5210   71.7290   63.4060 H   0  0  0  0  0  0  0  0  0  0  0  0
   41.7960   70.9610   61.4730 N   0  0  0  0  0  0  0  0  0  0  0  0
   41.6770   71.1550   60.1500 C   0  0  0  0  0  3  0  0  0  0  0  0
   41.1700   72.3090   59.6240 N   0  0  0  0  0  0  0  0  0  0  0  0
  1  6  2  0  0  0  0
  1  2  1  0  0  0  0
  2  3  2  0  0  0  0
  3  4  1  0  0  0  0
  3  8  1  0  0  0  0
  5 20  1  0  0  0  0
  5  4  2  0  0  0  0
  6  5  1  0  0  0  0
  7  2  1  0  0  0  0
  9 14  1  0  0  0  0
 10  9  2  0  0  0  0
 10 11  1  0  0  0  0
 11 12  2  0  0  0  0
 12 13  1  0  0  0  0
 13  1  1  0  0  0  0
 14 13  2  0  0  0  0
 15  9  1  0  0  0  0
 16 10  1  0  0  0  0
 17 11  1  0  0  0  0
 18 15  1  0  0  0  0
 19 15  1  0  0  0  0
 20 21  1  0  0  0  0
 21 22  2  0  0  0  0
 22 23  1  0  0  0  0
 24 22  1  0  0  0  0
 25 24  2  0  0  0  0
 26 25  1  0  0  0  0
 26 20  2  0  0  0  0
M  END
>  <minimizedAffinity>
-5.40797043

$$$$

 OpenBabel03212520503D

 26 28  0  0  0  0  0  0  0  0999 V2000
   42.3640   73.4500   59.9070 C   0  0  0  0  0  0  0  0  0  0  0  0
   43.4740   73.4830   59.0860 C   0  0  0  0  0  0  0  0  0  0  0  0
   44.3380   72.3790   58.9940 C   0  0  0  0  0  0  0  0  0  0  0  0
   44.0910   71.2690   59.7100 N   0  0  0  0  0  0  0  0  0  0  0  0
   43.0070   71.2530   60.5030 C   0  0  0  0  0  0  0  0  0  0  0  0
   42.1730   72.3190   60.5920 N   0  0  0  0  0  0  0  0  0  0  0  0
   43.6640   74.3840   58.5130 H   0  0  0  0  0  0  0  0  0  0  0  0
   45.2040   72.4420   58.3370 H   0  0  0  0  0  0  0  0  0  0  0  0
   39.5360   75.5360   60.9070 C   0  0  0  0  0  0  0  0  0  0  0  0
   39.7880   76.7130   60.1990 C   0  0  0  0  0  0  0  0  0  0  0  0
   40.9240   76.7990   59.3770 C   0  0  0  0  0  0  0  0  0  0  0  0
   41.7270   75.6880   59.3270 N   0  0  0  0  0  0  0  0  0  0  0  0
   41.4550   74.5820   60.0180 C   0  0  0  0  0  0  0  0  0  0  0  0
   40.3820   74.5070   60.7920 N   0  0  0  0  0  0  0  0  0  0  0  0
   38.3590   75.6160   61.6840 N   0  0  0  0  0  0  0  0  0  0  0  0
   39.1730   77.5970   60.2200 H   0  0  0  0  0  0  0  0  0  0  0  0
   41.1510   77.6980   58.8100 H   0  0  0  0  0  0  0  0  0  0  0  0
   38.1560   76.4440   62.3100 H   0  0  0  0  0  0  0  0  0  0  0  0
   37.7590   74.7590   61.5370 H   0  0  0  0  0  0  0  0  0  0  0  0
   42.6740   70.0840   61.3090 C   0  0  0  0  0  0  0  0  0  0  0  0
   42.4240   70.1800   62.6630 C   0  0  0  0  0  3  0  0  0  0  0  0
   42.1050   69.1080   63.4770 C   0  0  0  0  0  0  0  0  0  0  0  0
   41.9140   69.2200   64.5380 H   0  0  0  0  0  0  0  0  0  0  0  0
   42.0390   67.9190   62.8960 N   0  0  0  0  0  0  0  0  0  0  0  0
   42.2740   67.7740   61.5820 C   0  0  0  0  0  3  0  0  0  0  0  0
   42.5900   68.8300   60.7760 N   0  0  0  0  0  0  0  0  0  0  0  0
  1 13  1  0  0  0  0
  1  6  1  0  0  0  0
  2  1  2  0  0  0  0
  3  2  1  0  0  0  0
  3  4  2  0  0  0  0
  4  5  1  0  0  0  0
  5  6  2  0  0  0  0
  5 20  1  0  0  0  0
  7  2  1  0  0  0  0
  8  3  1  0  0  0  0
  9 15  1  0  0  0  0
 10 16  1  0  0  0  0
 10  9  2  0  0  0  0
 11 10  1  0  0  0  0
 12 11  2  0  0  0  0
 12 13  1  0  0  0  0
 13 14  2  0  0  0  0
 14  9  1  0  0  0  0
 15 18  1  0  0  0  0
 17 11  1  0  0  0  0
 19 15  1  0  0  0  0
 20 21  1  0  0  0  0
 21 22  2  0  0  0  0
 22 23  1  0  0  0  0
 24 22  1  0  0  0  0
 25 24  2  0  0  0  0
 26 20  2  0  0  0  0
 26 25  1  0  0  0  0
M  END
>  <minimizedAffinity>
-5.27436304

$$$$

 OpenBabel03212520503D

 26 28  0  0  0  0  0  0  0  0999 V2000
   39.6240   75.5960   56.9380 C   0  0  0  0  0  0  0  0  0  0  0  0
   38.8970   76.5240   57.6570 C   0  0  0  0  0  0  0  0  0  0  0  0
   39.2200   76.8180   58.9930 C   0  0  0  0  0  0  0  0  0  0  0  0
   40.2490   76.1930   59.5900 N   0  0  0  0  0  0  0  0  0  0  0  0
   40.9460   75.2940   58.8760 C   0  0  0  0  0  0  0  0  0  0  0  0
   40.6340   75.0100   57.5870 N   0  0  0  0  0  0  0  0  0  0  0  0
   38.0680   77.0220   57.1660 H   0  0  0  0  0  0  0  0  0  0  0  0
   38.6230   77.5540   59.5290 H   0  0  0  0  0  0  0  0  0  0  0  0
   37.7420   75.0330   53.8580 C   0  0  0  0  0  0  0  0  0  0  0  0
   38.7560   74.6770   52.9670 C   0  0  0  0  0  0  0  0  0  0  0  0
   40.0880   74.6280   53.4140 C   0  0  0  0  0  0  0  0  0  0  0  0
   40.3000   74.9410   54.7320 N   0  0  0  0  0  0  0  0  0  0  0  0
   39.3070   75.2770   55.5530 C   0  0  0  0  0  0  0  0  0  0  0  0
   38.0530   75.3220   55.1260 N   0  0  0  0  0  0  0  0  0  0  0  0
   36.4670   75.0350   53.2500 N   0  0  0  0  0  0  0  0  0  0  0  0
   38.6140   74.4260   51.9290 H   0  0  0  0  0  0  0  0  0  0  0  0
   40.9020   74.3550   52.7490 H   0  0  0  0  0  0  0  0  0  0  0  0
   36.2890   75.5090   52.3210 H   0  0  0  0  0  0  0  0  0  0  0  0
   35.7700   74.5140   53.8490 H   0  0  0  0  0  0  0  0  0  0  0  0
   42.0760   74.5760   59.4560 C   0  0  0  0  0  0  0  0  0  0  0  0
   43.3810   74.9000   59.1450 C   0  0  0  0  0  3  0  0  0  0  0  0
   44.4910   74.2550   59.6620 C   0  0  0  0  0  0  0  0  0  0  0  0
   45.5030   74.5360   59.3950 H   0  0  0  0  0  0  0  0  0  0  0  0
   44.2610   73.2640   60.5100 N   0  0  0  0  0  0  0  0  0  0  0  0
   43.0100   72.9110   60.8450 C   0  0  0  0  0  3  0  0  0  0  0  0
   41.9120   73.5450   60.3350 N   0  0  0  0  0  0  0  0  0  0  0  0
  1  6  2  0  0  0  0
  1  2  1  0  0  0  0
  2  3  2  0  0  0  0
  3  8  1  0  0  0  0
  3  4  1  0  0  0  0
  5 20  1  0  0  0  0
  5  4  2  0  0  0  0
  6  5  1  0  0  0  0
  7  2  1  0  0  0  0
  9 14  1  0  0  0  0
 10 11  1  0  0  0  0
 10  9  2  0  0  0  0
 11 12  2  0  0  0  0
 12 13  1  0  0  0  0
 13  1  1  0  0  0  0
 14 13  2  0  0  0  0
 15 19  1  0  0  0  0
 15  9  1  0  0  0  0
 16 10  1  0  0  0  0
 17 11  1  0  0  0  0
 18 15  1  0  0  0  0
 20 26  1  0  0  0  0
 21 20  2  0  0  0  0
 21 22  1  0  0  0  0
 22 24  2  0  0  0  0
 23 22  1  0  0  0  0
 24 25  1  0  0  0  0
 26 25  2  0  0  0  0
M  END
>  <minimizedAffinity>
-5.22707415

$$$$

 OpenBabel03212520503D

 26 28  0  0  0  0  0  0  0  0999 V2000
   40.2860   72.8590   59.6410 C   0  0  0  0  0  0  0  0  0  0  0  0
   40.4190   73.4280   60.8930 C   0  0  0  0  0  0  0  0  0  0  0  0
   39.8420   74.6760   61.1830 C   0  0  0  0  0  0  0  0  0  0  0  0
   39.1510   75.3350   60.2390 N   0  0  0  0  0  0  0  0  0  0  0  0
   39.0310   74.7670   59.0270 C   0  0  0  0  0  0  0  0  0  0  0  0
   39.5880   73.5620   58.7460 N   0  0  0  0  0  0  0  0  0  0  0  0
   40.9800   72.8880   61.6480 H   0  0  0  0  0  0  0  0  0  0  0  0
   39.9690   75.0940   62.1810 H   0  0  0  0  0  0  0  0  0  0  0  0
   41.1260   69.7850   57.8520 C   0  0  0  0  0  0  0  0  0  0  0  0
   41.9910   69.1610   58.7520 C   0  0  0  0  0  0  0  0  0  0  0  0
   42.2920   69.7870   59.9750 C   0  0  0  0  0  0  0  0  0  0  0  0
   41.6960   71.0000   60.2020 N   0  0  0  0  0  0  0  0  0  0  0  0
   40.8750   71.5660   59.3180 C   0  0  0  0  0  0  0  0  0  0  0  0
   40.5950   70.9720   58.1670 N   0  0  0  0  0  0  0  0  0  0  0  0
   40.9320   69.0270   56.6770 N   0  0  0  0  0  0  0  0  0  0  0  0
   42.4710   68.2090   58.5980 H   0  0  0  0  0  0  0  0  0  0  0  0
   42.9600   69.3300   60.6990 H   0  0  0  0  0  0  0  0  0  0  0  0
   41.7410   68.6070   56.1400 H   0  0  0  0  0  0  0  0  0  0  0  0
   39.9040   68.9580   56.4450 H   0  0  0  0  0  0  0  0  0  0  0  0
   38.2950   75.4220   57.9510 C   0  0  0  0  0  0  0  0  0  0  0  0
   38.5580   76.7230   57.5760 C   0  0  0  0  0  3  0  0  0  0  0  0
   37.8920   77.3950   56.5650 C   0  0  0  0  0  0  0  0  0  0  0  0
   38.1250   78.4190   56.2960 H   0  0  0  0  0  0  0  0  0  0  0  0
   36.9440   76.7240   55.9300 N   0  0  0  0  0  0  0  0  0  0  0  0
   36.6510   75.4550   56.2580 C   0  0  0  0  0  3  0  0  0  0  0  0
   37.3050   74.7900   57.2550 N   0  0  0  0  0  0  0  0  0  0  0  0
  1  2  1  0  0  0  0
  2  3  2  0  0  0  0
  2  7  1  0  0  0  0
  3  8  1  0  0  0  0
  4  3  1  0  0  0  0
  5  4  2  0  0  0  0
  6  5  1  0  0  0  0
  6  1  2  0  0  0  0
  9 14  2  0  0  0  0
  9 10  1  0  0  0  0
 10 11  2  0  0  0  0
 11 12  1  0  0  0  0
 11 17  1  0  0  0  0
 13  1  1  0  0  0  0
 13 12  2  0  0  0  0
 14 13  1  0  0  0  0
 15  9  1  0  0  0  0
 16 10  1  0  0  0  0
 18 15  1  0  0  0  0
 19 15  1  0  0  0  0
 20  5  1  0  0  0  0
 21 20  1  0  0  0  0
 22 21  2  0  0  0  0
 23 22  1  0  0  0  0
 24 25  2  0  0  0  0
 24 22  1  0  0  0  0
 25 26  1  0  0  0  0
 26 20  2  0  0  0  0
M  END
>  <minimizedAffinity>
-5.09663296

$$$$

 OpenBabel03212520503D

 26 28  0  0  0  0  0  0  0  0999 V2000
   38.4690   74.6120   55.0330 C   0  0  0  0  0  0  0  0  0  0  0  0
   37.6160   75.5870   54.5540 C   0  0  0  0  0  0  0  0  0  0  0  0
   37.0490   76.5390   55.4190 C   0  0  0  0  0  0  0  0  0  0  0  0
   37.3330   76.5100   56.7320 N   0  0  0  0  0  0  0  0  0  0  0  0
   38.1640   75.5550   57.1800 C   0  0  0  0  0  0  0  0  0  0  0  0
   38.7120   74.6360   56.3460 N   0  0  0  0  0  0  0  0  0  0  0  0
   37.3930   75.6010   53.4930 H   0  0  0  0  0  0  0  0  0  0  0  0
   36.3800   77.2920   55.0060 H   0  0  0  0  0  0  0  0  0  0  0  0
   39.9860   71.5080   53.8430 C   0  0  0  0  0  0  0  0  0  0  0  0
   40.1780   71.7880   52.4890 C   0  0  0  0  0  0  0  0  0  0  0  0
   39.7900   73.0380   51.9760 C   0  0  0  0  0  0  0  0  0  0  0  0
   39.2360   73.9180   52.8690 N   0  0  0  0  0  0  0  0  0  0  0  0
   39.0680   73.6160   54.1550 C   0  0  0  0  0  0  0  0  0  0  0  0
   39.4350   72.4360   54.6340 N   0  0  0  0  0  0  0  0  0  0  0  0
   40.4280   70.2130   54.1940 N   0  0  0  0  0  0  0  0  0  0  0  0
   40.6120   71.1140   51.7680 H   0  0  0  0  0  0  0  0  0  0  0  0
   39.9260   73.2900   50.9270 H   0  0  0  0  0  0  0  0  0  0  0  0
   40.1670   69.3590   53.6270 H   0  0  0  0  0  0  0  0  0  0  0  0
   41.0250   70.2480   55.0640 H   0  0  0  0  0  0  0  0  0  0  0  0
   38.5200   75.4600   58.5920 C   0  0  0  0  0  0  0  0  0  0  0  0
   38.1660   74.3700   59.3600 C   0  0  0  0  0  3  0  0  0  0  0  0
   38.4730   74.2260   60.7020 C   0  0  0  0  0  0  0  0  0  0  0  0
   38.1790   73.3550   61.2760 H   0  0  0  0  0  0  0  0  0  0  0  0
   39.1550   75.2120   61.2650 N   0  0  0  0  0  0  0  0  0  0  0  0
   39.5230   76.2940   60.5590 C   0  0  0  0  0  3  0  0  0  0  0  0
   39.2200   76.4400   59.2350 N   0  0  0  0  0  0  0  0  0  0  0  0
  1  6  1  0  0  0  0
  2  1  2  0  0  0  0
  2  3  1  0  0  0  0
  3  4  2  0  0  0  0
  4  5  1  0  0  0  0
  5 20  1  0  0  0  0
  6  5  2  0  0  0  0
  7  2  1  0  0  0  0
  8  3  1  0  0  0  0
  9 15  1  0  0  0  0
  9 14  1  0  0  0  0
 10  9  2  0  0  0  0
 11 10  1  0  0  0  0
 11 12  2  0  0  0  0
 12 13  1  0  0  0  0
 13 14  2  0  0  0  0
 13  1  1  0  0  0  0
 15 19  1  0  0  0  0
 16 10  1  0  0  0  0
 17 11  1  0  0  0  0
 18 15  1  0  0  0  0
 20 26  2  0  0  0  0
 20 21  1  0  0  0  0
 21 22  2  0  0  0  0
 22 24  1  0  0  0  0
 22 23  1  0  0  0  0
 25 24  2  0  0  0  0
 26 25  1  0  0  0  0
M  END
>  <minimizedAffinity>
-5.01607084

$$$$

 OpenBabel03212520503D

 26 28  0  0  0  0  0  0  0  0999 V2000
   41.3700   72.9980   60.9260 C   0  0  0  0  0  0  0  0  0  0  0  0
   41.8320   72.6400   62.1780 C   0  0  0  0  0  0  0  0  0  0  0  0
   42.2730   71.3310   62.4380 C   0  0  0  0  0  0  0  0  0  0  0  0
   42.2490   70.4060   61.4630 N   0  0  0  0  0  0  0  0  0  0  0  0
   41.7970   70.7710   60.2520 C   0  0  0  0  0  0  0  0  0  0  0  0
   41.3720   72.0350   60.0010 N   0  0  0  0  0  0  0  0  0  0  0  0
   41.8470   73.3940   62.9570 H   0  0  0  0  0  0  0  0  0  0  0  0
   42.6290   71.0840   63.4370 H   0  0  0  0  0  0  0  0  0  0  0  0
   41.1710   76.3590   59.5060 C   0  0  0  0  0  0  0  0  0  0  0  0
   40.0190   76.8560   60.1170 C   0  0  0  0  0  0  0  0  0  0  0  0
   39.3050   76.0470   61.0170 C   0  0  0  0  0  0  0  0  0  0  0  0
   39.8060   74.7900   61.2370 N   0  0  0  0  0  0  0  0  0  0  0  0
   40.9090   74.3480   60.6350 C   0  0  0  0  0  0  0  0  0  0  0  0
   41.5790   75.1160   59.7860 N   0  0  0  0  0  0  0  0  0  0  0  0
   41.7660   77.2950   58.6320 N   0  0  0  0  0  0  0  0  0  0  0  0
   39.6060   77.8390   59.9610 H   0  0  0  0  0  0  0  0  0  0  0  0
   38.4040   76.4020   61.5110 H   0  0  0  0  0  0  0  0  0  0  0  0
   41.2010   77.8310   57.9150 H   0  0  0  0  0  0  0  0  0  0  0  0
   42.8040   77.3620   58.8110 H   0  0  0  0  0  0  0  0  0  0  0  0
   41.7420   69.8230   59.1450 C   0  0  0  0  0  0  0  0  0  0  0  0
   42.2310   70.1370   57.8930 C   0  0  0  0  0  3  0  0  0  0  0  0
   42.2050   69.2800   56.8070 C   0  0  0  0  0  0  0  0  0  0  0  0
   42.5990   69.5590   55.8360 H   0  0  0  0  0  0  0  0  0  0  0  0
   41.6710   68.0840   57.0050 N   0  0  0  0  0  0  0  0  0  0  0  0
   41.1820   67.7320   58.2050 C   0  0  0  0  0  3  0  0  0  0  0  0
   41.2050   68.5750   59.2790 N   0  0  0  0  0  0  0  0  0  0  0  0
  1  2  1  0  0  0  0
  2  3  2  0  0  0  0
  2  7  1  0  0  0  0
  3  8  1  0  0  0  0
  4  3  1  0  0  0  0
  5  4  2  0  0  0  0
  6  5  1  0  0  0  0
  6  1  2  0  0  0  0
  9 14  2  0  0  0  0
  9 10  1  0  0  0  0
 10 11  2  0  0  0  0
 11 12  1  0  0  0  0
 11 17  1  0  0  0  0
 13  1  1  0  0  0  0
 13 12  2  0  0  0  0
 14 13  1  0  0  0  0
 15 19  1  0  0  0  0
 15  9  1  0  0  0  0
 16 10  1  0  0  0  0
 18 15  1  0  0  0  0
 20 26  1  0  0  0  0
 20  5  1  0  0  0  0
 21 20  2  0  0  0  0
 22 24  2  0  0  0  0
 22 21  1  0  0  0  0
 23 22  1  0  0  0  0
 24 25  1  0  0  0  0
 25 26  2  0  0  0  0
M  END
>  <minimizedAffinity>
-4.94088936

$$$$

 OpenBabel03212520503D

 26 28  0  0  0  0  0  0  0  0999 V2000
   39.2550   75.2720   58.1350 C   0  0  0  0  0  0  0  0  0  0  0  0
   38.7530   75.7540   59.3290 C   0  0  0  0  0  0  0  0  0  0  0  0
   39.4780   75.6190   60.5250 C   0  0  0  0  0  0  0  0  0  0  0  0
   40.6780   75.0140   60.5210 N   0  0  0  0  0  0  0  0  0  0  0  0
   41.1510   74.5520   59.3520 C   0  0  0  0  0  0  0  0  0  0  0  0
   40.4520   74.6820   58.1970 N   0  0  0  0  0  0  0  0  0  0  0  0
   37.7830   76.2400   59.3210 H   0  0  0  0  0  0  0  0  0  0  0  0
   39.0500   76.0100   61.4470 H   0  0  0  0  0  0  0  0  0  0  0  0
   38.2200   74.8030   54.6630 C   0  0  0  0  0  0  0  0  0  0  0  0
   37.1290   75.6690   54.5740 C   0  0  0  0  0  0  0  0  0  0  0  0
   36.7410   76.4170   55.6990 C   0  0  0  0  0  0  0  0  0  0  0  0
   37.4850   76.2380   56.8360 N   0  0  0  0  0  0  0  0  0  0  0  0
   38.5210   75.4020   56.8850 C   0  0  0  0  0  0  0  0  0  0  0  0
   38.8820   74.6990   55.8200 N   0  0  0  0  0  0  0  0  0  0  0  0
   38.4750   74.1300   53.4480 N   0  0  0  0  0  0  0  0  0  0  0  0
   36.5290   75.8280   53.6930 H   0  0  0  0  0  0  0  0  0  0  0  0
   35.8970   77.1000   55.6650 H   0  0  0  0  0  0  0  0  0  0  0  0
   37.7060   73.6560   52.8980 H   0  0  0  0  0  0  0  0  0  0  0  0
   39.5010   74.1810   53.2040 H   0  0  0  0  0  0  0  0  0  0  0  0
   42.4460   73.8850   59.2680 C   0  0  0  0  0  0  0  0  0  0  0  0
   42.5810   72.5280   59.4770 C   0  0  0  0  0  3  0  0  0  0  0  0
   43.7810   71.8420   59.4120 C   0  0  0  0  0  0  0  0  0  0  0  0
   43.8510   70.7740   59.5830 H   0  0  0  0  0  0  0  0  0  0  0  0
   44.8590   72.5570   59.1270 N   0  0  0  0  0  0  0  0  0  0  0  0
   44.7800   73.8800   58.9150 C   0  0  0  0  0  3  0  0  0  0  0  0
   43.5970   74.5600   58.9800 N   0  0  0  0  0  0  0  0  0  0  0  0
  1  6  2  0  0  0  0
  1  2  1  0  0  0  0
  2  3  2  0  0  0  0
  3  8  1  0  0  0  0
  4  3  1  0  0  0  0
  5  4  2  0  0  0  0
  6  5  1  0  0  0  0
  7  2  1  0  0  0  0
  9 14  1  0  0  0  0
 10  9  2  0  0  0  0
 10 11  1  0  0  0  0
 11 12  2  0  0  0  0
 12 13  1  0  0  0  0
 13  1  1  0  0  0  0
 14 13  2  0  0  0  0
 15  9  1  0  0  0  0
 16 10  1  0  0  0  0
 17 11  1  0  0  0  0
 18 15  1  0  0  0  0
 19 15  1  0  0  0  0
 20  5  1  0  0  0  0
 20 21  1  0  0  0  0
 22 21  2  0  0  0  0
 22 23  1  0  0  0  0
 24 22  1  0  0  0  0
 25 26  1  0  0  0  0
 25 24  2  0  0  0  0
 26 20  2  0  0  0  0
M  END
>  <minimizedAffinity>
-4.93616009

$$$$

 OpenBabel03212520503D

 26 28  0  0  0  0  0  0  0  0999 V2000
   42.7070   74.0650   59.5690 C   0  0  0  0  0  0  0  0  0  0  0  0
   43.8680   74.3490   58.8770 C   0  0  0  0  0  0  0  0  0  0  0  0
   44.8890   73.3900   58.7550 C   0  0  0  0  0  0  0  0  0  0  0  0
   44.7460   72.1780   59.3150 N   0  0  0  0  0  0  0  0  0  0  0  0
   43.6100   71.9180   59.9840 C   0  0  0  0  0  0  0  0  0  0  0  0
   42.6250   72.8430   60.1020 N   0  0  0  0  0  0  0  0  0  0  0  0
   43.9750   75.3310   58.4290 H   0  0  0  0  0  0  0  0  0  0  0  0
   45.7910   73.6500   58.2030 H   0  0  0  0  0  0  0  0  0  0  0  0
   39.6500   75.7160   60.6990 C   0  0  0  0  0  0  0  0  0  0  0  0
   39.6620   76.8860   59.9390 C   0  0  0  0  0  0  0  0  0  0  0  0
   40.7150   77.1170   59.0360 C   0  0  0  0  0  0  0  0  0  0  0  0
   41.6810   76.1470   58.9650 N   0  0  0  0  0  0  0  0  0  0  0  0
   41.6370   75.0420   59.7080 C   0  0  0  0  0  0  0  0  0  0  0  0
   40.6420   74.8290   60.5580 N   0  0  0  0  0  0  0  0  0  0  0  0
   38.5280   75.6400   61.5540 N   0  0  0  0  0  0  0  0  0  0  0  0
   38.9160   77.6610   59.9750 H   0  0  0  0  0  0  0  0  0  0  0  0
   40.7560   78.0160   58.4270 H   0  0  0  0  0  0  0  0  0  0  0  0
   38.2350   76.4510   62.1670 H   0  0  0  0  0  0  0  0  0  0  0  0
   38.0660   74.6930   61.4770 H   0  0  0  0  0  0  0  0  0  0  0  0
   43.3820   70.6240   60.6190 C   0  0  0  0  0  0  0  0  0  0  0  0
   43.5730   69.4380   59.9410 C   0  0  0  0  0  3  0  0  0  0  0  0
   43.3710   68.1830   60.4900 C   0  0  0  0  0  0  0  0  0  0  0  0
   43.5310   67.2700   59.9280 H   0  0  0  0  0  0  0  0  0  0  0  0
   42.9690   68.1440   61.7510 N   0  0  0  0  0  0  0  0  0  0  0  0
   42.7690   69.2710   62.4530 C   0  0  0  0  0  3  0  0  0  0  0  0
   42.9660   70.5110   61.9140 N   0  0  0  0  0  0  0  0  0  0  0  0
  1 13  1  0  0  0  0
  1  6  1  0  0  0  0
  2  1  2  0  0  0  0
  3  2  1  0  0  0  0
  3  4  2  0  0  0  0
  4  5  1  0  0  0  0
  5  6  2  0  0  0  0
  5 20  1  0  0  0  0
  7  2  1  0  0  0  0
  8  3  1  0  0  0  0
  9 15  1  0  0  0  0
 10 16  1  0  0  0  0
 10  9  2  0  0  0  0
 11 10  1  0  0  0  0
 12 11  2  0  0  0  0
 12 13  1  0  0  0  0
 13 14  2  0  0  0  0
 14  9  1  0  0  0  0
 15 18  1  0  0  0  0
 17 11  1  0  0  0  0
 19 15  1  0  0  0  0
 20 26  1  0  0  0  0
 21 22  1  0  0  0  0
 21 20  2  0  0  0  0
 22 24  2  0  0  0  0
 23 22  1  0  0  0  0
 24 25  1  0  0  0  0
 26 25  2  0  0  0  0
M  END
>  <minimizedAffinity>
-4.92677736

$$$$
