
 OpenBabel03212520183D

 33 35  0  0  0  0  0  0  0  0999 V2000
   42.9790   83.9310   58.6570 Cl  0  0  0  0  0  0  0  0  0  0  0  0
   41.7830   82.7130   58.3050 C   0  0  0  0  0  0  0  0  0  0  0  0
   40.9270   82.1740   59.2620 C   0  0  0  0  0  0  0  0  0  0  0  0
   40.0430   81.2240   58.8160 C   0  0  0  0  0  0  0  0  0  0  0  0
   39.9050   80.7440   57.5370 C   0  0  0  0  0  0  0  0  0  0  0  0
   40.7610   81.2930   56.6160 C   0  0  0  0  0  0  0  0  0  0  0  0
   40.7120   80.7830   54.9300 Cl  0  0  0  0  0  0  0  0  0  0  0  0
   41.6890   82.2680   57.0020 C   0  0  0  0  0  0  0  0  0  0  0  0
   39.3850   80.8230   59.5980 H   0  0  0  0  0  0  0  0  0  0  0  0
   39.1950   80.0050   57.2680 H   0  0  0  0  0  0  0  0  0  0  0  0
   41.9100   82.1460   61.6060 C   0  0  0  0  0  0  0  0  0  0  0  0
   41.0320   82.6410   60.6030 C   0  0  0  0  0  0  0  0  0  0  0  0
   40.1950   83.6740   60.9500 C   0  0  0  0  0  0  0  0  0  0  0  0
   40.2800   84.1350   62.2310 N   0  0  0  0  0  0  0  0  0  0  0  0
   41.1080   83.6610   63.1600 C   0  0  0  0  0  0  0  0  0  0  0  0
   41.9420   82.6430   62.8410 N   0  0  0  0  0  0  0  0  0  0  0  0
   42.5480   81.3330   61.2830 H   0  0  0  0  0  0  0  0  0  0  0  0
   39.4830   84.1360   60.2780 H   0  0  0  0  0  0  0  0  0  0  0  0
   41.0230   84.3210   64.4830 C   0  0  0  0  0  0  0  0  0  0  0  0
   40.6920   85.6510   64.3930 F   0  0  0  0  0  0  0  0  0  0  0  0
   40.0790   83.6800   65.2780 F   0  0  0  0  0  0  0  0  0  0  0  0
   42.2710   84.3030   65.1240 F   0  0  0  0  0  0  0  0  0  0  0  0
   42.5240   82.7790   56.0180 O   0  0  0  0  0  0  0  0  0  0  0  0
   42.3300   84.0300   55.3980 C   0  0  0  0  0  0  0  0  0  0  0  0
   42.6960   84.7890   56.1250 H   0  0  0  0  0  0  0  0  0  0  0  0
   41.2270   84.1790   55.3440 H   0  0  0  0  0  0  0  0  0  0  0  0
   42.9470   84.1190   54.0710 C   0  0  0  0  0  0  0  0  0  0  0  0
   42.4930   83.2720   53.0900 C   0  0  0  0  0  3  0  0  0  0  0  0
   43.0170   83.2880   51.8140 C   0  0  0  0  0  0  0  0  0  0  0  0
   42.6880   82.6330   50.9970 H   0  0  0  0  0  0  0  0  0  0  0  0
   44.0140   84.1800   51.5460 N   0  0  0  0  0  0  0  0  0  0  0  0
   44.4330   84.9990   52.5470 C   0  0  0  0  0  3  0  0  0  0  0  0
   43.9280   85.0000   53.8140 N   0  0  0  0  0  0  0  0  0  0  0  0
  2  1  1  0  0  0  0
  2  3  1  0  0  0  0
  3 12  1  0  0  0  0
  4  3  2  0  0  0  0
  4  9  1  0  0  0  0
  5  4  1  0  0  0  0
  6  8  1  0  0  0  0
  6  5  2  0  0  0  0
  7  6  1  0  0  0  0
  8  2  2  0  0  0  0
 10  5  1  0  0  0  0
 11 16  1  0  0  0  0
 12 13  1  0  0  0  0
 12 11  2  0  0  0  0
 13 14  2  0  0  0  0
 14 15  1  0  0  0  0
 15 19  1  0  0  0  0
 16 15  2  0  0  0  0
 17 11  1  0  0  0  0
 18 13  1  0  0  0  0
 19 22  1  0  0  0  0
 19 21  1  0  0  0  0
 20 19  1  0  0  0  0
 23  8  1  0  0  0  0
 24 23  1  0  0  0  0
 24 25  1  0  0  0  0
 26 24  1  0  0  0  0
 27 24  1  0  0  0  0
 28 27  2  0  0  0  0
 29 28  1  0  0  0  0
 30 29  1  0  0  0  0
 31 29  2  0  0  0  0
 31 32  1  0  0  0  0
 32 33  2  0  0  0  0
 33 27  1  0  0  0  0
M  END
>  <minimizedAffinity>
-5.20997334

>  <minimizedRMSD>
0.694274187

$$$$
