
 OpenBabel03212520183D

 33 35  0  0  0  0  0  0  0  0999 V2000
   42.9820   83.9280   58.6590 Cl  0  0  0  0  0  0  0  0  0  0  0  0
   41.7840   82.7110   58.3050 C   0  0  0  0  0  0  0  0  0  0  0  0
   40.9270   82.1730   59.2620 C   0  0  0  0  0  0  0  0  0  0  0  0
   40.0420   81.2240   58.8160 C   0  0  0  0  0  0  0  0  0  0  0  0
   39.9050   80.7450   57.5370 C   0  0  0  0  0  0  0  0  0  0  0  0
   40.7620   81.2930   56.6160 C   0  0  0  0  0  0  0  0  0  0  0  0
   40.7130   80.7830   54.9300 Cl  0  0  0  0  0  0  0  0  0  0  0  0
   41.6910   82.2670   57.0030 C   0  0  0  0  0  0  0  0  0  0  0  0
   39.3830   80.8230   59.5970 H   0  0  0  0  0  0  0  0  0  0  0  0
   39.1940   80.0070   57.2670 H   0  0  0  0  0  0  0  0  0  0  0  0
   41.9060   82.1410   61.6070 C   0  0  0  0  0  0  0  0  0  0  0  0
   41.0320   82.6400   60.6040 C   0  0  0  0  0  0  0  0  0  0  0  0
   40.1990   83.6760   60.9490 C   0  0  0  0  0  0  0  0  0  0  0  0
   40.2840   84.1370   62.2310 N   0  0  0  0  0  0  0  0  0  0  0  0
   41.1090   83.6590   63.1610 C   0  0  0  0  0  0  0  0  0  0  0  0
   41.9390   82.6370   62.8430 N   0  0  0  0  0  0  0  0  0  0  0  0
   42.5410   81.3240   61.2860 H   0  0  0  0  0  0  0  0  0  0  0  0
   39.4900   84.1410   60.2760 H   0  0  0  0  0  0  0  0  0  0  0  0
   41.0240   84.3200   64.4840 C   0  0  0  0  0  0  0  0  0  0  0  0
   40.6900   85.6490   64.3930 F   0  0  0  0  0  0  0  0  0  0  0  0
   40.0830   83.6770   65.2800 F   0  0  0  0  0  0  0  0  0  0  0  0
   42.2730   84.3040   65.1220 F   0  0  0  0  0  0  0  0  0  0  0  0
   42.5260   82.7770   56.0190 O   0  0  0  0  0  0  0  0  0  0  0  0
   42.3370   84.0310   55.4030 C   0  0  0  0  0  0  0  0  0  0  0  0
   42.7080   84.7860   56.1320 H   0  0  0  0  0  0  0  0  0  0  0  0
   41.2340   84.1850   55.3520 H   0  0  0  0  0  0  0  0  0  0  0  0
   42.9510   84.1200   54.0750 C   0  0  0  0  0  0  0  0  0  0  0  0
   42.4970   83.2730   53.0940 C   0  0  0  0  0  3  0  0  0  0  0  0
   43.0190   83.2900   51.8180 C   0  0  0  0  0  0  0  0  0  0  0  0
   42.6910   82.6340   51.0020 H   0  0  0  0  0  0  0  0  0  0  0  0
   44.0130   84.1850   51.5470 N   0  0  0  0  0  0  0  0  0  0  0  0
   44.4320   85.0050   52.5480 C   0  0  0  0  0  3  0  0  0  0  0  0
   43.9290   85.0040   53.8170 N   0  0  0  0  0  0  0  0  0  0  0  0
  2  1  1  0  0  0  0
  2  3  1  0  0  0  0
  3 12  1  0  0  0  0
  4  3  2  0  0  0  0
  4  9  1  0  0  0  0
  5  4  1  0  0  0  0
  6  8  1  0  0  0  0
  6  5  2  0  0  0  0
  7  6  1  0  0  0  0
  8  2  2  0  0  0  0
 10  5  1  0  0  0  0
 11 16  1  0  0  0  0
 12 13  1  0  0  0  0
 12 11  2  0  0  0  0
 13 14  2  0  0  0  0
 14 15  1  0  0  0  0
 15 19  1  0  0  0  0
 16 15  2  0  0  0  0
 17 11  1  0  0  0  0
 18 13  1  0  0  0  0
 19 22  1  0  0  0  0
 19 21  1  0  0  0  0
 20 19  1  0  0  0  0
 23  8  1  0  0  0  0
 24 23  1  0  0  0  0
 24 25  1  0  0  0  0
 26 24  1  0  0  0  0
 27 24  1  0  0  0  0
 28 27  2  0  0  0  0
 29 28  1  0  0  0  0
 30 29  1  0  0  0  0
 31 29  2  0  0  0  0
 31 32  1  0  0  0  0
 32 33  2  0  0  0  0
 33 27  1  0  0  0  0
M  END
>  <minimizedAffinity>
-5.20865726

>  <minimizedRMSD>
0.823129177

$$$$
