
 OpenBabel03212520183D

 33 35  0  0  0  0  0  0  0  0999 V2000
   43.0970   83.7720   58.5720 Cl  0  0  0  0  0  0  0  0  0  0  0  0
   41.8350   82.6250   58.2100 C   0  0  0  0  0  0  0  0  0  0  0  0
   40.9370   82.1430   59.1600 C   0  0  0  0  0  0  0  0  0  0  0  0
   40.0040   81.2450   58.7070 C   0  0  0  0  0  0  0  0  0  0  0  0
   39.8530   80.7680   57.4290 C   0  0  0  0  0  0  0  0  0  0  0  0
   40.7510   81.2600   56.5160 C   0  0  0  0  0  0  0  0  0  0  0  0
   40.6910   80.7450   54.8320 Cl  0  0  0  0  0  0  0  0  0  0  0  0
   41.7300   82.1800   56.9090 C   0  0  0  0  0  0  0  0  0  0  0  0
   39.3140   80.8870   59.4830 H   0  0  0  0  0  0  0  0  0  0  0  0
   39.1030   80.0700   57.1550 H   0  0  0  0  0  0  0  0  0  0  0  0
   41.9260   82.1010   61.5010 C   0  0  0  0  0  0  0  0  0  0  0  0
   41.0540   82.6100   60.5000 C   0  0  0  0  0  0  0  0  0  0  0  0
   40.2350   83.6570   60.8480 C   0  0  0  0  0  0  0  0  0  0  0  0
   40.3320   84.1180   62.1290 N   0  0  0  0  0  0  0  0  0  0  0  0
   41.1550   83.6310   63.0550 C   0  0  0  0  0  0  0  0  0  0  0  0
   41.9710   82.5990   62.7350 N   0  0  0  0  0  0  0  0  0  0  0  0
   42.5500   81.2770   61.1770 H   0  0  0  0  0  0  0  0  0  0  0  0
   39.5290   84.1290   60.1780 H   0  0  0  0  0  0  0  0  0  0  0  0
   41.0840   84.2950   64.3780 C   0  0  0  0  0  0  0  0  0  0  0  0
   40.7760   85.6300   64.2870 F   0  0  0  0  0  0  0  0  0  0  0  0
   40.1310   83.6710   65.1750 F   0  0  0  0  0  0  0  0  0  0  0  0
   42.3330   84.2550   65.0150 F   0  0  0  0  0  0  0  0  0  0  0  0
   42.6050   82.6350   55.9330 O   0  0  0  0  0  0  0  0  0  0  0  0
   42.3900   83.8010   55.1690 C   0  0  0  0  0  0  0  0  0  0  0  0
   41.7940   84.4820   55.8170 H   0  0  0  0  0  0  0  0  0  0  0  0
   41.7050   83.5040   54.3420 H   0  0  0  0  0  0  0  0  0  0  0  0
   43.6280   84.3900   54.6530 C   0  0  0  0  0  0  0  0  0  0  0  0
   43.8070   84.4320   53.2910 C   0  0  0  0  0  3  0  0  0  0  0  0
   44.9420   84.9670   52.7200 C   0  0  0  0  0  0  0  0  0  0  0  0
   45.1280   85.0230   51.6410 H   0  0  0  0  0  0  0  0  0  0  0  0
   45.9000   85.4650   53.5540 N   0  0  0  0  0  0  0  0  0  0  0  0
   45.6840   85.4030   54.8940 C   0  0  0  0  0  3  0  0  0  0  0  0
   44.5680   84.8780   55.4790 N   0  0  0  0  0  0  0  0  0  0  0  0
  2  1  1  0  0  0  0
  2  3  1  0  0  0  0
  3 12  1  0  0  0  0
  4  3  2  0  0  0  0
  4  9  1  0  0  0  0
  5  4  1  0  0  0  0
  6  8  1  0  0  0  0
  6  5  2  0  0  0  0
  7  6  1  0  0  0  0
  8  2  2  0  0  0  0
 10  5  1  0  0  0  0
 11 16  1  0  0  0  0
 12 13  1  0  0  0  0
 12 11  2  0  0  0  0
 13 14  2  0  0  0  0
 14 15  1  0  0  0  0
 15 19  1  0  0  0  0
 16 15  2  0  0  0  0
 17 11  1  0  0  0  0
 18 13  1  0  0  0  0
 19 22  1  0  0  0  0
 19 21  1  0  0  0  0
 20 19  1  0  0  0  0
 23  8  1  0  0  0  0
 24 25  1  0  0  0  0
 24 23  1  0  0  0  0
 26 24  1  0  0  0  0
 27 24  1  0  0  0  0
 27 33  1  0  0  0  0
 28 27  2  0  0  0  0
 29 28  1  0  0  0  0
 29 31  2  0  0  0  0
 30 29  1  0  0  0  0
 31 32  1  0  0  0  0
 32 33  2  0  0  0  0
M  END
>  <minimizedAffinity>
-5.0041666

>  <minimizedRMSD>
0.653303981

$$$$
