
 OpenBabel03212520183D

 33 35  0  0  0  0  0  0  0  0999 V2000
   43.2320   83.7650   58.6150 Cl  0  0  0  0  0  0  0  0  0  0  0  0
   41.9340   82.6780   58.2040 C   0  0  0  0  0  0  0  0  0  0  0  0
   40.9910   82.2230   59.1220 C   0  0  0  0  0  0  0  0  0  0  0  0
   40.0330   81.3700   58.6340 C   0  0  0  0  0  0  0  0  0  0  0  0
   39.8980   80.9150   57.3460 C   0  0  0  0  0  0  0  0  0  0  0  0
   40.8400   81.3790   56.4630 C   0  0  0  0  0  0  0  0  0  0  0  0
   40.8060   80.8880   54.7720 Cl  0  0  0  0  0  0  0  0  0  0  0  0
   41.8460   82.2530   56.8950 C   0  0  0  0  0  0  0  0  0  0  0  0
   39.3080   81.0330   59.3850 H   0  0  0  0  0  0  0  0  0  0  0  0
   39.1280   80.2530   57.0420 H   0  0  0  0  0  0  0  0  0  0  0  0
   41.9240   82.1210   61.4840 C   0  0  0  0  0  0  0  0  0  0  0  0
   41.0900   82.6680   60.4720 C   0  0  0  0  0  0  0  0  0  0  0  0
   40.2940   83.7330   60.8160 C   0  0  0  0  0  0  0  0  0  0  0  0
   40.3750   84.1750   62.1040 N   0  0  0  0  0  0  0  0  0  0  0  0
   41.1620   83.6520   63.0430 C   0  0  0  0  0  0  0  0  0  0  0  0
   41.9550   82.6010   62.7260 N   0  0  0  0  0  0  0  0  0  0  0  0
   42.5310   81.2830   61.1640 H   0  0  0  0  0  0  0  0  0  0  0  0
   39.6170   84.2350   60.1360 H   0  0  0  0  0  0  0  0  0  0  0  0
   41.0800   84.2990   64.3720 C   0  0  0  0  0  0  0  0  0  0  0  0
   40.7650   85.6340   64.2950 F   0  0  0  0  0  0  0  0  0  0  0  0
   40.1250   83.6620   65.1570 F   0  0  0  0  0  0  0  0  0  0  0  0
   42.3250   84.2590   65.0170 F   0  0  0  0  0  0  0  0  0  0  0  0
   42.7660   82.6820   55.9480 O   0  0  0  0  0  0  0  0  0  0  0  0
   42.6200   83.8640   55.1930 C   0  0  0  0  0  0  0  0  0  0  0  0
   42.0420   84.5650   55.8350 H   0  0  0  0  0  0  0  0  0  0  0  0
   41.9390   83.6060   54.3490 H   0  0  0  0  0  0  0  0  0  0  0  0
   43.8940   84.4000   54.7070 C   0  0  0  0  0  0  0  0  0  0  0  0
   45.0250   84.1480   55.4440 C   0  0  0  0  0  3  0  0  0  0  0  0
   46.2650   84.6150   55.0600 C   0  0  0  0  0  0  0  0  0  0  0  0
   47.1940   84.4400   55.6140 H   0  0  0  0  0  0  0  0  0  0  0  0
   46.3420   85.3450   53.9110 N   0  0  0  0  0  0  0  0  0  0  0  0
   45.1980   85.5710   53.2110 C   0  0  0  0  0  3  0  0  0  0  0  0
   43.9630   85.1190   53.5740 N   0  0  0  0  0  0  0  0  0  0  0  0
  2  1  1  0  0  0  0
  2  3  1  0  0  0  0
  3 12  1  0  0  0  0
  4  3  2  0  0  0  0
  4  9  1  0  0  0  0
  5  4  1  0  0  0  0
  6  8  1  0  0  0  0
  6  5  2  0  0  0  0
  7  6  1  0  0  0  0
  8  2  2  0  0  0  0
 10  5  1  0  0  0  0
 11 16  1  0  0  0  0
 12 13  1  0  0  0  0
 12 11  2  0  0  0  0
 13 14  2  0  0  0  0
 14 15  1  0  0  0  0
 15 19  1  0  0  0  0
 16 15  2  0  0  0  0
 17 11  1  0  0  0  0
 18 13  1  0  0  0  0
 19 22  1  0  0  0  0
 19 21  1  0  0  0  0
 20 19  1  0  0  0  0
 23  8  1  0  0  0  0
 24 25  1  0  0  0  0
 24 23  1  0  0  0  0
 26 24  1  0  0  0  0
 27 24  1  0  0  0  0
 27 28  1  0  0  0  0
 29 28  2  0  0  0  0
 29 30  1  0  0  0  0
 31 29  1  0  0  0  0
 32 33  1  0  0  0  0
 32 31  2  0  0  0  0
 33 27  2  0  0  0  0
M  END
>  <minimizedAffinity>
-5.00506353

>  <minimizedRMSD>
0.601718485

$$$$
