
 OpenBabel03212520183D

 33 35  0  0  0  0  0  0  0  0999 V2000
   43.0180   83.8370   58.6110 Cl  0  0  0  0  0  0  0  0  0  0  0  0
   41.7940   82.6440   58.2670 C   0  0  0  0  0  0  0  0  0  0  0  0
   40.9240   82.1340   59.2280 C   0  0  0  0  0  0  0  0  0  0  0  0
   40.0190   81.2010   58.7900 C   0  0  0  0  0  0  0  0  0  0  0  0
   39.8710   80.7130   57.5150 C   0  0  0  0  0  0  0  0  0  0  0  0
   40.7400   81.2330   56.5900 C   0  0  0  0  0  0  0  0  0  0  0  0
   40.6810   80.7100   54.9080 Cl  0  0  0  0  0  0  0  0  0  0  0  0
   41.6910   82.1900   56.9690 C   0  0  0  0  0  0  0  0  0  0  0  0
   39.3500   80.8220   59.5740 H   0  0  0  0  0  0  0  0  0  0  0  0
   39.1440   79.9890   57.2510 H   0  0  0  0  0  0  0  0  0  0  0  0
   41.9230   82.1210   61.5650 C   0  0  0  0  0  0  0  0  0  0  0  0
   41.0390   82.6100   60.5660 C   0  0  0  0  0  0  0  0  0  0  0  0
   40.2050   83.6450   60.9120 C   0  0  0  0  0  0  0  0  0  0  0  0
   40.2990   84.1160   62.1890 N   0  0  0  0  0  0  0  0  0  0  0  0
   41.1330   83.6470   63.1150 C   0  0  0  0  0  0  0  0  0  0  0  0
   41.9650   82.6270   62.7970 N   0  0  0  0  0  0  0  0  0  0  0  0
   42.5590   81.3050   61.2440 H   0  0  0  0  0  0  0  0  0  0  0  0
   39.4880   84.1030   60.2410 H   0  0  0  0  0  0  0  0  0  0  0  0
   41.0570   84.3170   64.4340 C   0  0  0  0  0  0  0  0  0  0  0  0
   40.7480   85.6510   64.3360 F   0  0  0  0  0  0  0  0  0  0  0  0
   40.1030   83.6950   65.2310 F   0  0  0  0  0  0  0  0  0  0  0  0
   42.3040   84.2820   65.0760 F   0  0  0  0  0  0  0  0  0  0  0  0
   42.5380   82.6730   55.9810 O   0  0  0  0  0  0  0  0  0  0  0  0
   42.3360   83.8920   55.3020 C   0  0  0  0  0  0  0  0  0  0  0  0
   42.8900   84.6600   55.8870 H   0  0  0  0  0  0  0  0  0  0  0  0
   41.2580   84.1410   55.4330 H   0  0  0  0  0  0  0  0  0  0  0  0
   42.7030   83.8310   53.8850 C   0  0  0  0  0  0  0  0  0  0  0  0
   43.8660   84.4470   53.4910 C   0  0  0  0  0  3  0  0  0  0  0  0
   44.2870   84.4380   52.1780 C   0  0  0  0  0  0  0  0  0  0  0  0
   45.2060   84.9140   51.8150 H   0  0  0  0  0  0  0  0  0  0  0  0
   43.5070   83.7940   51.2630 N   0  0  0  0  0  0  0  0  0  0  0  0
   42.3640   83.1970   51.6950 C   0  0  0  0  0  3  0  0  0  0  0  0
   41.9300   83.1930   52.9900 N   0  0  0  0  0  0  0  0  0  0  0  0
  2  1  1  0  0  0  0
  2  3  1  0  0  0  0
  3 12  1  0  0  0  0
  4  3  2  0  0  0  0
  4  9  1  0  0  0  0
  5  4  1  0  0  0  0
  6  8  1  0  0  0  0
  6  5  2  0  0  0  0
  7  6  1  0  0  0  0
  8  2  2  0  0  0  0
 10  5  1  0  0  0  0
 11 16  1  0  0  0  0
 12 13  1  0  0  0  0
 12 11  2  0  0  0  0
 13 14  2  0  0  0  0
 14 15  1  0  0  0  0
 15 19  1  0  0  0  0
 16 15  2  0  0  0  0
 17 11  1  0  0  0  0
 18 13  1  0  0  0  0
 19 22  1  0  0  0  0
 19 21  1  0  0  0  0
 20 19  1  0  0  0  0
 23  8  1  0  0  0  0
 24 26  1  0  0  0  0
 24 25  1  0  0  0  0
 24 23  1  0  0  0  0
 27 24  1  0  0  0  0
 28 27  1  0  0  0  0
 29 28  2  0  0  0  0
 30 29  1  0  0  0  0
 31 32  2  0  0  0  0
 31 29  1  0  0  0  0
 32 33  1  0  0  0  0
 33 27  2  0  0  0  0
M  END
>  <minimizedAffinity>
-5.1207571

>  <minimizedRMSD>
1.0260601

$$$$
