
 OpenBabel03212520403D

 25 27  0  0  1  0  0  0  0  0999 V2000
   42.2980   85.3700   59.7670 C   0  0  1  0  0  0  0  0  0  0  0  0
   43.3110   85.4390   58.6290 C   0  0  0  0  0  0  0  0  0  0  0  0
   42.0220   84.6270   58.5200 C   0  0  1  0  0  0  0  0  0  0  0  0
   41.8700   86.3650   59.9880 H   0  0  0  0  0  0  0  0  0  0  0  0
   43.3500   86.3280   57.9900 H   0  0  0  0  0  0  0  0  0  0  0  0
   44.2370   84.8670   58.6760 H   0  0  0  0  0  0  0  0  0  0  0  0
   41.2050   85.0740   57.8980 H   0  0  0  0  0  0  0  0  0  0  0  0
   42.8200   84.6470   60.8820 O   0  0  0  0  0  0  0  0  0  0  0  0
   40.0400   83.5160   62.9120 C   0  0  0  0  0  0  0  0  0  0  0  0
   40.5360   83.7540   64.2070 C   0  0  0  0  0  0  0  0  0  0  0  0
   41.8320   84.3030   64.3460 C   0  0  0  0  0  0  0  0  0  0  0  0
   42.4660   84.5460   63.1900 N   0  0  0  0  0  0  0  0  0  0  0  0
   42.0090   84.3260   61.9500 C   0  0  0  0  0  0  0  0  0  0  0  0
   40.7930   83.8110   61.8050 N   0  0  0  0  0  0  0  0  0  0  0  0
   39.0490   83.0960   62.7850 H   0  0  0  0  0  0  0  0  0  0  0  0
   39.9760   83.5360   65.0830 H   0  0  0  0  0  0  0  0  0  0  0  0
   42.2850   84.5150   65.3050 H   0  0  0  0  0  0  0  0  0  0  0  0
   42.1000   83.2500   58.5700 O   0  0  0  0  0  0  0  0  0  0  0  0
   41.3560   82.4400   57.7360 C   0  0  0  0  0  0  0  0  0  0  0  0
   40.2300   81.6690   57.9310 C   0  0  0  0  0  3  0  0  0  0  0  0
   39.7170   80.9580   56.8680 C   0  0  0  0  0  0  0  0  0  0  0  0
   38.8380   80.3830   57.1020 H   0  0  0  0  0  0  0  0  0  0  0  0
   40.2600   80.9810   55.6570 N   0  0  0  0  0  0  0  0  0  0  0  0
   41.3660   81.7390   55.4680 C   0  0  0  0  0  3  0  0  0  0  0  0
   41.9110   82.4600   56.4880 N   0  0  0  0  0  0  0  0  0  0  0  0
  1  4  1  1  0  0  0
  1  8  1  0  0  0  0
  2  6  1  0  0  0  0
  2  1  1  0  0  0  0
  3  7  1  6  0  0  0
  3 18  1  0  0  0  0
  3  2  1  0  0  0  0
  3  1  1  0  0  0  0
  5  2  1  0  0  0  0
  8 13  1  0  0  0  0
  9 10  1  0  0  0  0
 10 11  2  0  0  0  0
 10 16  1  0  0  0  0
 11 17  1  0  0  0  0
 12 11  1  0  0  0  0
 13 12  2  0  0  0  0
 14 13  1  0  0  0  0
 14  9  2  0  0  0  0
 15  9  1  0  0  0  0
 19 20  1  0  0  0  0
 19 18  1  0  0  0  0
 21 22  1  0  0  0  0
 21 20  2  0  0  0  0
 23 21  1  0  0  0  0
 24 23  2  0  0  0  0
 24 25  1  0  0  0  0
 25 19  2  0  0  0  0
M  END
>  <minimizedAffinity>
-4.28761435

>  <minimizedRMSD>
2.62040949

$$$$
