
 OpenBabel03212520403D

 25 27  0  0  1  0  0  0  0  0999 V2000
   42.2450   85.4300   59.7500 C   0  0  1  0  0  0  0  0  0  0  0  0
   43.3480   85.8790   58.7960 C   0  0  0  0  0  0  0  0  0  0  0  0
   42.2650   84.8870   58.3760 C   0  0  1  0  0  0  0  0  0  0  0  0
   41.6070   86.2790   60.0570 H   0  0  0  0  0  0  0  0  0  0  0  0
   43.2830   86.8600   58.3150 H   0  0  0  0  0  0  0  0  0  0  0  0
   44.3570   85.4780   58.8890 H   0  0  0  0  0  0  0  0  0  0  0  0
   41.4520   85.2880   57.7190 H   0  0  0  0  0  0  0  0  0  0  0  0
   42.7690   84.6220   60.8040 O   0  0  0  0  0  0  0  0  0  0  0  0
   40.0370   83.5640   62.9350 C   0  0  0  0  0  0  0  0  0  0  0  0
   40.5970   83.7570   64.2110 C   0  0  0  0  0  0  0  0  0  0  0  0
   41.9200   84.2520   64.3020 C   0  0  0  0  0  0  0  0  0  0  0  0
   42.5120   84.4910   63.1240 N   0  0  0  0  0  0  0  0  0  0  0  0
   41.9930   84.3130   61.9020 C   0  0  0  0  0  0  0  0  0  0  0  0
   40.7520   83.8500   61.8010 N   0  0  0  0  0  0  0  0  0  0  0  0
   39.0250   83.1860   62.8450 H   0  0  0  0  0  0  0  0  0  0  0  0
   40.0680   83.5450   65.1070 H   0  0  0  0  0  0  0  0  0  0  0  0
   42.4220   84.4270   65.2440 H   0  0  0  0  0  0  0  0  0  0  0  0
   42.6060   83.5580   58.2240 O   0  0  0  0  0  0  0  0  0  0  0  0
   41.6930   82.6050   57.8190 C   0  0  0  0  0  0  0  0  0  0  0  0
   41.3110   82.1350   56.5810 C   0  0  0  0  0  3  0  0  0  0  0  0
   40.3460   81.1530   56.5080 C   0  0  0  0  0  0  0  0  0  0  0  0
   40.1050   80.8410   55.5070 H   0  0  0  0  0  0  0  0  0  0  0  0
   39.7650   80.6370   57.5860 N   0  0  0  0  0  0  0  0  0  0  0  0
   40.1420   81.1010   58.7990 C   0  0  0  0  0  3  0  0  0  0  0  0
   41.0910   82.0710   58.9230 N   0  0  0  0  0  0  0  0  0  0  0  0
  1  4  1  1  0  0  0
  1  8  1  0  0  0  0
  2  6  1  0  0  0  0
  2  1  1  0  0  0  0
  3  7  1  6  0  0  0
  3  2  1  0  0  0  0
  3  1  1  0  0  0  0
  5  2  1  0  0  0  0
  8 13  1  0  0  0  0
  9 10  1  0  0  0  0
 10 11  2  0  0  0  0
 10 16  1  0  0  0  0
 11 17  1  0  0  0  0
 12 11  1  0  0  0  0
 13 12  2  0  0  0  0
 14 13  1  0  0  0  0
 14  9  2  0  0  0  0
 15  9  1  0  0  0  0
 18  3  1  0  0  0  0
 19 18  1  0  0  0  0
 19 25  1  0  0  0  0
 20 19  2  0  0  0  0
 21 20  1  0  0  0  0
 21 23  2  0  0  0  0
 22 21  1  0  0  0  0
 23 24  1  0  0  0  0
 24 25  2  0  0  0  0
M  END
>  <minimizedAffinity>
-4.15040255

>  <minimizedRMSD>
2.56010175

$$$$
