
 OpenBabel03212520463D

 18 19  0  0  0  0  0  0  0  0999 V2000
   41.9990   83.9850   57.3330 C   0  0  0  0  0  0  0  0  0  0  0  0
   41.6950   84.2460   58.6790 C   0  0  0  0  0  0  0  0  0  0  0  0
   40.8140   83.4010   59.3550 C   0  0  0  0  0  0  0  0  0  0  0  0
   40.3010   82.3590   58.6410 N   0  0  0  0  0  0  0  0  0  0  0  0
   40.6090   82.1340   57.3590 C   0  0  0  0  0  0  0  0  0  0  0  0
   41.4470   82.9320   56.7010 N   0  0  0  0  0  0  0  0  0  0  0  0
   42.9040   84.9290   56.7880 N   0  0  0  0  0  0  0  0  0  0  0  0
   42.0880   85.0580   59.2490 H   0  0  0  0  0  0  0  0  0  0  0  0
   40.5660   83.5840   60.3910 H   0  0  0  0  0  0  0  0  0  0  0  0
   42.5290   85.8810   56.7200 H   0  0  0  0  0  0  0  0  0  0  0  0
   43.8840   84.8010   56.4520 H   0  0  0  0  0  0  0  0  0  0  0  0
   40.0050   80.9880   56.6830 C   0  0  0  0  0  0  0  0  0  0  0  0
   39.4100   79.9600   57.3820 C   0  0  0  0  0  3  0  0  0  0  0  0
   38.8330   78.8650   56.7260 C   0  0  0  0  0  0  0  0  0  0  0  0
   38.3820   78.0910   57.3370 H   0  0  0  0  0  0  0  0  0  0  0  0
   38.8590   78.8110   55.3800 N   0  0  0  0  0  0  0  0  0  0  0  0
   39.4440   79.8200   54.7070 C   0  0  0  0  0  3  0  0  0  0  0  0
   40.0070   80.8890   55.3420 N   0  0  0  0  0  0  0  0  0  0  0  0
  1  2  1  0  0  0  0
  2  8  1  0  0  0  0
  2  3  2  0  0  0  0
  3  9  1  0  0  0  0
  4  3  1  0  0  0  0
  5  4  2  0  0  0  0
  6  1  2  0  0  0  0
  6  5  1  0  0  0  0
  7  1  1  0  0  0  0
 10  7  1  0  0  0  0
 11  7  1  0  0  0  0
 12  5  1  0  0  0  0
 12 13  1  0  0  0  0
 14 15  1  0  0  0  0
 14 13  2  0  0  0  0
 16 14  1  0  0  0  0
 17 18  1  0  0  0  0
 17 16  2  0  0  0  0
 18 12  2  0  0  0  0
M  END
>  <minimizedAffinity>
-3.02821088

>  <minimizedRMSD>
7.4302597

$$$$
