
 OpenBabel03212520403D

 25 27  0  0  1  0  0  0  0  0999 V2000
   41.9010   85.2810   59.5440 C   0  0  1  0  0  0  0  0  0  0  0  0
   42.8180   85.4540   58.3360 C   0  0  0  0  0  0  0  0  0  0  0  0
   41.5750   84.5670   58.2920 C   0  0  1  0  0  0  0  0  0  0  0  0
   41.4320   86.2380   59.8350 H   0  0  0  0  0  0  0  0  0  0  0  0
   42.7530   86.3650   57.7330 H   0  0  0  0  0  0  0  0  0  0  0  0
   43.7770   84.9400   58.2920 H   0  0  0  0  0  0  0  0  0  0  0  0
   40.6870   84.9830   57.7510 H   0  0  0  0  0  0  0  0  0  0  0  0
   42.5500   84.5530   60.5870 O   0  0  0  0  0  0  0  0  0  0  0  0
   40.0440   83.5520   63.0040 C   0  0  0  0  0  0  0  0  0  0  0  0
   40.7260   83.7800   64.2130 C   0  0  0  0  0  0  0  0  0  0  0  0
   42.0490   84.2790   64.1590 C   0  0  0  0  0  0  0  0  0  0  0  0
   42.5220   84.4860   62.9230 N   0  0  0  0  0  0  0  0  0  0  0  0
   41.8870   84.2750   61.7630 C   0  0  0  0  0  0  0  0  0  0  0  0
   40.6430   83.8070   61.7970 N   0  0  0  0  0  0  0  0  0  0  0  0
   39.0300   83.1700   63.0230 H   0  0  0  0  0  0  0  0  0  0  0  0
   40.2880   83.5920   65.1610 H   0  0  0  0  0  0  0  0  0  0  0  0
   42.6410   84.4800   65.0420 H   0  0  0  0  0  0  0  0  0  0  0  0
   41.7390   83.1960   58.2810 O   0  0  0  0  0  0  0  0  0  0  0  0
   41.3340   82.4140   57.2180 C   0  0  0  0  0  0  0  0  0  0  0  0
   41.8280   82.2290   55.9450 C   0  0  0  0  0  3  0  0  0  0  0  0
   41.1790   81.3560   55.0990 C   0  0  0  0  0  0  0  0  0  0  0  0
   41.6270   81.2680   54.1250 H   0  0  0  0  0  0  0  0  0  0  0  0
   40.0910   80.6820   55.4560 N   0  0  0  0  0  0  0  0  0  0  0  0
   39.6080   80.8670   56.7060 C   0  0  0  0  0  3  0  0  0  0  0  0
   40.2150   81.7190   57.5810 N   0  0  0  0  0  0  0  0  0  0  0  0
  1  4  1  1  0  0  0
  1  8  1  0  0  0  0
  2  1  1  0  0  0  0
  3  7  1  6  0  0  0
  3  2  1  0  0  0  0
  3  1  1  0  0  0  0
  5  2  1  0  0  0  0
  6  2  1  0  0  0  0
  8 13  1  0  0  0  0
  9 15  1  0  0  0  0
  9 10  1  0  0  0  0
 10 16  1  0  0  0  0
 11 10  2  0  0  0  0
 11 17  1  0  0  0  0
 12 11  1  0  0  0  0
 13 14  1  0  0  0  0
 13 12  2  0  0  0  0
 14  9  2  0  0  0  0
 18  3  1  0  0  0  0
 19 25  1  0  0  0  0
 19 18  1  0  0  0  0
 20 19  2  0  0  0  0
 21 23  2  0  0  0  0
 21 20  1  0  0  0  0
 22 21  1  0  0  0  0
 23 24  1  0  0  0  0
 24 25  2  0  0  0  0
M  END
>  <minimizedAffinity>
-4.20464945

>  <minimizedRMSD>
2.43957448

$$$$
