
 OpenBabel03212521033D

 26 28  0  0  0  0  0  0  0  0999 V2000
   42.3860   84.4970   62.4640 C   0  0  0  0  0  0  0  0  0  0  0  0
   42.3310   84.4900   63.8520 C   0  0  0  0  0  0  0  0  0  0  0  0
   41.1780   84.1330   64.5320 C   0  0  0  0  0  0  0  0  0  0  0  0
   40.0470   83.7740   63.8040 C   0  0  0  0  0  0  0  0  0  0  0  0
   40.1010   83.7800   62.4080 C   0  0  0  0  0  0  0  0  0  0  0  0
   41.2560   84.1370   61.7500 C   0  0  0  0  0  0  0  0  0  0  0  0
   43.2180   84.7720   64.4050 H   0  0  0  0  0  0  0  0  0  0  0  0
   41.2240   84.1560   65.6130 H   0  0  0  0  0  0  0  0  0  0  0  0
   39.1660   83.5020   64.3700 H   0  0  0  0  0  0  0  0  0  0  0  0
   39.1940   83.4930   61.8860 H   0  0  0  0  0  0  0  0  0  0  0  0
   45.6470   84.2570   60.8290 C   0  0  0  0  0  0  0  0  0  0  0  0
   45.9600   85.5860   60.5560 C   0  0  0  0  0  0  0  0  0  0  0  0
   45.0340   86.5840   60.9410 C   0  0  0  0  0  0  0  0  0  0  0  0
   43.8910   86.1890   61.5540 N   0  0  0  0  0  0  0  0  0  0  0  0
   43.6200   84.8780   61.8050 C   0  0  0  0  0  0  0  0  0  0  0  0
   44.4950   83.9450   61.4410 N   0  0  0  0  0  0  0  0  0  0  0  0
   46.4020   83.5550   60.5060 H   0  0  0  0  0  0  0  0  0  0  0  0
   46.8340   85.9950   60.0770 H   0  0  0  0  0  0  0  0  0  0  0  0
   45.1410   87.6460   60.7950 H   0  0  0  0  0  0  0  0  0  0  0  0
   41.2650   84.1300   60.2980 C   0  0  0  0  0  0  0  0  0  0  0  0
   41.3090   82.8280   59.7900 C   0  0  0  0  0  3  0  0  0  0  0  0
   41.3240   82.6000   58.4160 C   0  0  0  0  0  0  0  0  0  0  0  0
   41.3580   81.6060   58.0060 H   0  0  0  0  0  0  0  0  0  0  0  0
   41.2960   83.6760   57.6170 N   0  0  0  0  0  0  0  0  0  0  0  0
   41.2530   84.9440   58.1140 C   0  0  0  0  0  3  0  0  0  0  0  0
   41.2390   85.1680   59.4400 N   0  0  0  0  0  0  0  0  0  0  0  0
  1  2  1  0  0  0  0
  2  7  1  0  0  0  0
  2  3  2  0  0  0  0
  3  8  1  0  0  0  0
  4  9  1  0  0  0  0
  4  3  1  0  0  0  0
  5  4  2  0  0  0  0
  6  5  1  0  0  0  0
  6  1  2  0  0  0  0
 10  5  1  0  0  0  0
 11 16  1  0  0  0  0
 12 11  2  0  0  0  0
 12 13  1  0  0  0  0
 13 14  2  0  0  0  0
 14 15  1  0  0  0  0
 15  1  1  0  0  0  0
 16 15  2  0  0  0  0
 17 11  1  0  0  0  0
 18 12  1  0  0  0  0
 19 13  1  0  0  0  0
 20  6  1  0  0  0  0
 21 20  1  0  0  0  0
 22 21  2  0  0  0  0
 23 22  1  0  0  0  0
 24 25  2  0  0  0  0
 24 22  1  0  0  0  0
 25 26  1  0  0  0  0
 26 20  2  0  0  0  0
M  END
>  <minimizedAffinity>
-4.94881725

>  <minimizedRMSD>
2.29111671

$$$$
