
 OpenBabel03212519593D

 16 17  0  0  0  0  0  0  0  0999 V2000
   39.8150   83.4460   62.5790 C   0  0  0  0  0  0  0  0  0  0  0  0
   40.8800   82.8920   63.3320 C   0  0  0  0  0  0  0  0  0  0  0  0
   42.1760   83.1170   62.8570 C   0  0  0  0  0  0  0  0  0  0  0  0
   42.3440   83.8480   61.7080 N   0  0  0  0  0  0  0  0  0  0  0  0
   41.2960   84.3510   61.0320 C   0  0  0  0  0  0  0  0  0  0  0  0
   40.0260   84.1550   61.4600 N   0  0  0  0  0  0  0  0  0  0  0  0
   38.7990   83.2750   62.9450 H   0  0  0  0  0  0  0  0  0  0  0  0
   40.6750   82.3250   64.2320 H   0  0  0  0  0  0  0  0  0  0  0  0
   42.9900   82.7000   63.4230 H   0  0  0  0  0  0  0  0  0  0  0  0
   41.5470   85.1210   59.8130 C   0  0  0  0  0  0  0  0  0  0  0  0
   42.7700   85.6720   59.5450 C   0  0  0  0  0  3  0  0  0  0  0  0
   42.9090   86.3820   58.3690 C   0  0  0  0  0  0  0  0  0  0  0  0
   43.8880   86.8030   58.1880 H   0  0  0  0  0  0  0  0  0  0  0  0
   41.8750   86.5220   57.5220 N   0  0  0  0  0  0  0  0  0  0  0  0
   40.6830   85.9700   57.8100 C   0  0  0  0  0  3  0  0  0  0  0  0
   40.5160   85.2690   58.9540 N   0  0  0  0  0  0  0  0  0  0  0  0
  1  7  1  0  0  0  0
  1  2  1  0  0  0  0
  2  8  1  0  0  0  0
  3  2  2  0  0  0  0
  3  9  1  0  0  0  0
  4  3  1  0  0  0  0
  5  6  1  0  0  0  0
  5  4  2  0  0  0  0
  6  1  2  0  0  0  0
 10  5  1  0  0  0  0
 11 10  1  0  0  0  0
 12 11  2  0  0  0  0
 13 12  1  0  0  0  0
 14 15  2  0  0  0  0
 14 12  1  0  0  0  0
 15 16  1  0  0  0  0
 16 10  2  0  0  0  0
M  END
>  <minimizedAffinity>
-4.22410202

>  <minimizedRMSD>
5.70358896

$$$$
