
 OpenBabel03212519593D

 16 17  0  0  0  0  0  0  0  0999 V2000
   42.6550   85.2360   58.0820 C   0  0  0  0  0  0  0  0  0  0  0  0
   43.7560   86.1030   58.2920 C   0  0  0  0  0  0  0  0  0  0  0  0
   44.1140   86.3610   59.6190 C   0  0  0  0  0  0  0  0  0  0  0  0
   43.3930   85.7720   60.6280 N   0  0  0  0  0  0  0  0  0  0  0  0
   42.3560   84.9570   60.3700 C   0  0  0  0  0  0  0  0  0  0  0  0
   41.9780   84.6820   59.0990 N   0  0  0  0  0  0  0  0  0  0  0  0
   42.3700   85.0290   57.0470 H   0  0  0  0  0  0  0  0  0  0  0  0
   44.2810   86.5340   57.4480 H   0  0  0  0  0  0  0  0  0  0  0  0
   44.9490   87.0180   59.7870 H   0  0  0  0  0  0  0  0  0  0  0  0
   41.6310   84.3620   61.4930 C   0  0  0  0  0  0  0  0  0  0  0  0
   42.1980   84.2300   62.7320 C   0  0  0  0  0  3  0  0  0  0  0  0
   41.4330   83.6560   63.7280 C   0  0  0  0  0  0  0  0  0  0  0  0
   41.9110   83.5670   64.6930 H   0  0  0  0  0  0  0  0  0  0  0  0
   40.1770   83.2440   63.4830 N   0  0  0  0  0  0  0  0  0  0  0  0
   39.6440   83.3860   62.2570 C   0  0  0  0  0  3  0  0  0  0  0  0
   40.3680   83.9440   61.2610 N   0  0  0  0  0  0  0  0  0  0  0  0
  1  2  2  0  0  0  0
  1  6  1  0  0  0  0
  2  3  1  0  0  0  0
  3  9  1  0  0  0  0
  3  4  2  0  0  0  0
  5  4  1  0  0  0  0
  5 10  1  0  0  0  0
  6  5  2  0  0  0  0
  7  1  1  0  0  0  0
  8  2  1  0  0  0  0
 10 11  1  0  0  0  0
 11 12  2  0  0  0  0
 12 13  1  0  0  0  0
 14 12  1  0  0  0  0
 15 14  2  0  0  0  0
 16 10  2  0  0  0  0
 16 15  1  0  0  0  0
M  END
>  <minimizedAffinity>
-3.72450757

>  <minimizedRMSD>
4.56351995

$$$$
