
 OpenBabel03212519593D

 16 17  0  0  0  0  0  0  0  0999 V2000
   38.6140   74.2090   60.2080 C   0  0  0  0  0  0  0  0  0  0  0  0
   39.4800   75.1330   60.8420 C   0  0  0  0  0  0  0  0  0  0  0  0
   39.7280   76.3330   60.1680 C   0  0  0  0  0  0  0  0  0  0  0  0
   39.1290   76.5470   58.9510 N   0  0  0  0  0  0  0  0  0  0  0  0
   38.3150   75.6330   58.3960 C   0  0  0  0  0  0  0  0  0  0  0  0
   38.0500   74.4590   59.0170 N   0  0  0  0  0  0  0  0  0  0  0  0
   38.4150   73.2690   60.7300 H   0  0  0  0  0  0  0  0  0  0  0  0
   39.9190   74.8990   61.8040 H   0  0  0  0  0  0  0  0  0  0  0  0
   40.3850   77.0410   60.6420 H   0  0  0  0  0  0  0  0  0  0  0  0
   37.7100   75.9260   57.0960 C   0  0  0  0  0  0  0  0  0  0  0  0
   37.1840   74.9400   56.3050 C   0  0  0  0  0  3  0  0  0  0  0  0
   36.6340   75.3150   55.0950 C   0  0  0  0  0  0  0  0  0  0  0  0
   36.2290   74.5130   54.4960 H   0  0  0  0  0  0  0  0  0  0  0  0
   36.6200   76.6040   54.7140 N   0  0  0  0  0  0  0  0  0  0  0  0
   37.1430   77.5530   55.5100 C   0  0  0  0  0  3  0  0  0  0  0  0
   37.6880   77.2170   56.7010 N   0  0  0  0  0  0  0  0  0  0  0  0
  1  7  1  0  0  0  0
  1  2  1  0  0  0  0
  2  8  1  0  0  0  0
  3  9  1  0  0  0  0
  3  2  2  0  0  0  0
  4  3  1  0  0  0  0
  5  4  2  0  0  0  0
  5  6  1  0  0  0  0
  6  1  2  0  0  0  0
 10  5  1  0  0  0  0
 11 10  2  0  0  0  0
 12 11  1  0  0  0  0
 13 12  1  0  0  0  0
 14 12  2  0  0  0  0
 14 15  1  0  0  0  0
 15 16  2  0  0  0  0
 16 10  1  0  0  0  0
M  END
>  <minimizedAffinity>
-4.13321638

$$$$

 OpenBabel03212519593D

 16 17  0  0  0  0  0  0  0  0999 V2000
   39.4620   76.3950   59.9490 C   0  0  0  0  0  0  0  0  0  0  0  0
   39.1190   75.2590   60.7230 C   0  0  0  0  0  0  0  0  0  0  0  0
   38.3390   74.2800   60.0990 C   0  0  0  0  0  0  0  0  0  0  0  0
   37.9550   74.4690   58.7950 N   0  0  0  0  0  0  0  0  0  0  0  0
   38.3090   75.5680   58.1070 C   0  0  0  0  0  0  0  0  0  0  0  0
   39.0640   76.5390   58.6770 N   0  0  0  0  0  0  0  0  0  0  0  0
   40.0730   77.1640   60.4300 H   0  0  0  0  0  0  0  0  0  0  0  0
   39.4580   75.1740   61.7490 H   0  0  0  0  0  0  0  0  0  0  0  0
   38.0750   73.4140   60.6800 H   0  0  0  0  0  0  0  0  0  0  0  0
   37.8650   75.7060   56.7200 C   0  0  0  0  0  0  0  0  0  0  0  0
   38.2740   74.8420   55.7400 C   0  0  0  0  0  3  0  0  0  0  0  0
   37.8000   75.0540   54.4610 C   0  0  0  0  0  0  0  0  0  0  0  0
   38.1430   74.3550   53.7130 H   0  0  0  0  0  0  0  0  0  0  0  0
   36.9660   76.0750   54.1950 N   0  0  0  0  0  0  0  0  0  0  0  0
   36.5790   76.9080   55.1760 C   0  0  0  0  0  3  0  0  0  0  0  0
   37.0260   76.7260   56.4400 N   0  0  0  0  0  0  0  0  0  0  0  0
  1  7  1  0  0  0  0
  1  2  1  0  0  0  0
  2  8  1  0  0  0  0
  3  9  1  0  0  0  0
  3  2  2  0  0  0  0
  4  3  1  0  0  0  0
  5  6  1  0  0  0  0
  5  4  2  0  0  0  0
  6  1  2  0  0  0  0
 10  5  1  0  0  0  0
 11 10  2  0  0  0  0
 12 11  1  0  0  0  0
 13 12  1  0  0  0  0
 14 12  2  0  0  0  0
 14 15  1  0  0  0  0
 15 16  2  0  0  0  0
 16 10  1  0  0  0  0
M  END
>  <minimizedAffinity>
-4.13027048

$$$$

 OpenBabel03212519593D

 16 17  0  0  0  0  0  0  0  0999 V2000
   41.0850   74.1650   60.2050 C   0  0  0  0  0  0  0  0  0  0  0  0
   40.3800   73.5660   61.2790 C   0  0  0  0  0  0  0  0  0  0  0  0
   38.9840   73.6390   61.2400 C   0  0  0  0  0  0  0  0  0  0  0  0
   38.3830   74.2750   60.1830 N   0  0  0  0  0  0  0  0  0  0  0  0
   39.1010   74.8270   59.1900 C   0  0  0  0  0  0  0  0  0  0  0  0
   40.4550   74.7780   59.1920 N   0  0  0  0  0  0  0  0  0  0  0  0
   42.1770   74.1120   60.2290 H   0  0  0  0  0  0  0  0  0  0  0  0
   40.9210   73.0790   62.0820 H   0  0  0  0  0  0  0  0  0  0  0  0
   38.4420   73.1860   62.0510 H   0  0  0  0  0  0  0  0  0  0  0  0
   38.3950   75.4910   58.0930 C   0  0  0  0  0  0  0  0  0  0  0  0
   38.6810   76.7770   57.7230 C   0  0  0  0  0  3  0  0  0  0  0  0
   37.9610   77.3170   56.6750 C   0  0  0  0  0  0  0  0  0  0  0  0
   38.2110   78.3330   56.4100 H   0  0  0  0  0  0  0  0  0  0  0  0
   37.0140   76.5980   56.0470 N   0  0  0  0  0  0  0  0  0  0  0  0
   36.7530   75.3370   56.4310 C   0  0  0  0  0  3  0  0  0  0  0  0
   37.4420   74.7800   57.4530 N   0  0  0  0  0  0  0  0  0  0  0  0
  1  7  1  0  0  0  0
  1  2  1  0  0  0  0
  2  8  1  0  0  0  0
  3  2  2  0  0  0  0
  3  9  1  0  0  0  0
  4  3  1  0  0  0  0
  5  6  1  0  0  0  0
  5  4  2  0  0  0  0
  6  1  2  0  0  0  0
 10  5  1  0  0  0  0
 11 10  1  0  0  0  0
 12 11  2  0  0  0  0
 13 12  1  0  0  0  0
 14 15  2  0  0  0  0
 14 12  1  0  0  0  0
 15 16  1  0  0  0  0
 16 10  2  0  0  0  0
M  END
>  <minimizedAffinity>
-4.09651184

$$$$

 OpenBabel03212519593D

 16 17  0  0  0  0  0  0  0  0999 V2000
   38.4010   74.6060   54.9770 C   0  0  0  0  0  0  0  0  0  0  0  0
   37.3840   75.4640   54.4900 C   0  0  0  0  0  0  0  0  0  0  0  0
   36.7560   76.2950   55.4230 C   0  0  0  0  0  0  0  0  0  0  0  0
   37.1520   76.2360   56.7360 N   0  0  0  0  0  0  0  0  0  0  0  0
   38.1240   75.4010   57.1440 C   0  0  0  0  0  0  0  0  0  0  0  0
   38.7550   74.5810   56.2700 N   0  0  0  0  0  0  0  0  0  0  0  0
   38.8960   73.9530   54.2520 H   0  0  0  0  0  0  0  0  0  0  0  0
   37.1220   75.4590   53.4390 H   0  0  0  0  0  0  0  0  0  0  0  0
   35.9830   76.9500   55.0620 H   0  0  0  0  0  0  0  0  0  0  0  0
   38.4960   75.3890   58.5580 C   0  0  0  0  0  0  0  0  0  0  0  0
   39.2210   76.4040   59.1250 C   0  0  0  0  0  3  0  0  0  0  0  0
   39.5230   76.3020   60.4680 C   0  0  0  0  0  0  0  0  0  0  0  0
   40.0960   77.1190   60.8820 H   0  0  0  0  0  0  0  0  0  0  0  0
   39.1170   75.2420   61.1880 N   0  0  0  0  0  0  0  0  0  0  0  0
   38.4070   74.2590   60.6070 C   0  0  0  0  0  3  0  0  0  0  0  0
   38.0940   74.3300   59.2930 N   0  0  0  0  0  0  0  0  0  0  0  0
  1  6  1  0  0  0  0
  2  1  2  0  0  0  0
  2  3  1  0  0  0  0
  3  4  2  0  0  0  0
  4  5  1  0  0  0  0
  5 10  1  0  0  0  0
  6  5  2  0  0  0  0
  7  1  1  0  0  0  0
  8  2  1  0  0  0  0
  9  3  1  0  0  0  0
 10 11  2  0  0  0  0
 10 16  1  0  0  0  0
 11 12  1  0  0  0  0
 12 13  1  0  0  0  0
 12 14  2  0  0  0  0
 15 14  1  0  0  0  0
 16 15  2  0  0  0  0
M  END
>  <minimizedAffinity>
-4.07860518

$$$$

 OpenBabel03212519593D

 16 17  0  0  0  0  0  0  0  0999 V2000
   38.3760   74.6140   54.9370 C   0  0  0  0  0  0  0  0  0  0  0  0
   37.3570   75.4750   54.4610 C   0  0  0  0  0  0  0  0  0  0  0  0
   36.7220   76.2870   55.4050 C   0  0  0  0  0  0  0  0  0  0  0  0
   37.1130   76.2080   56.7180 N   0  0  0  0  0  0  0  0  0  0  0  0
   38.0870   75.3720   57.1150 C   0  0  0  0  0  0  0  0  0  0  0  0
   38.7260   74.5690   56.2310 N   0  0  0  0  0  0  0  0  0  0  0  0
   38.8770   73.9760   54.2030 H   0  0  0  0  0  0  0  0  0  0  0  0
   37.0990   75.4860   53.4080 H   0  0  0  0  0  0  0  0  0  0  0  0
   35.9460   76.9440   55.0510 H   0  0  0  0  0  0  0  0  0  0  0  0
   38.4540   75.3380   58.5310 C   0  0  0  0  0  0  0  0  0  0  0  0
   38.1160   74.2880   59.3410 C   0  0  0  0  0  3  0  0  0  0  0  0
   38.5080   74.3470   60.6640 C   0  0  0  0  0  0  0  0  0  0  0  0
   38.2240   73.5020   61.2740 H   0  0  0  0  0  0  0  0  0  0  0  0
   39.1960   75.4020   61.1330 N   0  0  0  0  0  0  0  0  0  0  0  0
   39.5160   76.4210   60.3150 C   0  0  0  0  0  3  0  0  0  0  0  0
   39.1470   76.3910   59.0140 N   0  0  0  0  0  0  0  0  0  0  0  0
  1  6  1  0  0  0  0
  2  1  2  0  0  0  0
  2  3  1  0  0  0  0
  3  4  2  0  0  0  0
  4  5  1  0  0  0  0
  5 10  1  0  0  0  0
  6  5  2  0  0  0  0
  7  1  1  0  0  0  0
  8  2  1  0  0  0  0
  9  3  1  0  0  0  0
 10 16  2  0  0  0  0
 10 11  1  0  0  0  0
 11 12  2  0  0  0  0
 12 14  1  0  0  0  0
 12 13  1  0  0  0  0
 15 14  2  0  0  0  0
 16 15  1  0  0  0  0
M  END
>  <minimizedAffinity>
-4.03887796

$$$$

 OpenBabel03212519593D

 16 17  0  0  0  0  0  0  0  0999 V2000
   40.5280   75.3540   59.9980 C   0  0  0  0  0  0  0  0  0  0  0  0
   39.1420   75.4720   60.2680 C   0  0  0  0  0  0  0  0  0  0  0  0
   38.5490   74.4390   61.0010 C   0  0  0  0  0  0  0  0  0  0  0  0
   39.3280   73.3860   61.4130 N   0  0  0  0  0  0  0  0  0  0  0  0
   40.6400   73.3250   61.1280 C   0  0  0  0  0  0  0  0  0  0  0  0
   41.2500   74.3060   60.4200 N   0  0  0  0  0  0  0  0  0  0  0  0
   40.9980   76.1580   59.4260 H   0  0  0  0  0  0  0  0  0  0  0  0
   38.5870   76.3320   59.9120 H   0  0  0  0  0  0  0  0  0  0  0  0
   37.4970   74.5210   61.2100 H   0  0  0  0  0  0  0  0  0  0  0  0
   41.4100   72.1730   61.5970 C   0  0  0  0  0  0  0  0  0  0  0  0
   42.4160   71.6230   60.8490 C   0  0  0  0  0  3  0  0  0  0  0  0
   43.0860   70.5370   61.3780 C   0  0  0  0  0  0  0  0  0  0  0  0
   43.8730   70.1280   60.7610 H   0  0  0  0  0  0  0  0  0  0  0  0
   42.7570   70.0440   62.5840 N   0  0  0  0  0  0  0  0  0  0  0  0
   41.7650   70.6040   63.2980 C   0  0  0  0  0  3  0  0  0  0  0  0
   41.0910   71.6690   62.8080 N   0  0  0  0  0  0  0  0  0  0  0  0
  1  2  2  0  0  0  0
  1  6  1  0  0  0  0
  2  3  1  0  0  0  0
  3  9  1  0  0  0  0
  3  4  2  0  0  0  0
  5  4  1  0  0  0  0
  5 10  1  0  0  0  0
  6  5  2  0  0  0  0
  7  1  1  0  0  0  0
  8  2  1  0  0  0  0
 10 16  1  0  0  0  0
 11 12  1  0  0  0  0
 11 10  2  0  0  0  0
 12 14  2  0  0  0  0
 13 12  1  0  0  0  0
 14 15  1  0  0  0  0
 16 15  2  0  0  0  0
M  END
>  <minimizedAffinity>
-3.96226382

$$$$

 OpenBabel03212519593D

 16 17  0  0  0  0  0  0  0  0999 V2000
   42.3570   70.1680   60.9710 C   0  0  0  0  0  0  0  0  0  0  0  0
   42.4160   69.7840   62.3330 C   0  0  0  0  0  0  0  0  0  0  0  0
   41.7890   70.6270   63.2570 C   0  0  0  0  0  0  0  0  0  0  0  0
   41.1630   71.7600   62.8020 N   0  0  0  0  0  0  0  0  0  0  0  0
   41.1390   72.0770   61.4960 C   0  0  0  0  0  0  0  0  0  0  0  0
   41.7340   71.2860   60.5710 N   0  0  0  0  0  0  0  0  0  0  0  0
   42.8450   69.5130   60.2440 H   0  0  0  0  0  0  0  0  0  0  0  0
   42.9280   68.8740   62.6220 H   0  0  0  0  0  0  0  0  0  0  0  0
   41.8290   70.3420   64.2930 H   0  0  0  0  0  0  0  0  0  0  0  0
   40.4530   73.3010   61.0800 C   0  0  0  0  0  0  0  0  0  0  0  0
   41.0990   74.2940   60.3950 C   0  0  0  0  0  3  0  0  0  0  0  0
   40.3670   75.4120   60.0450 C   0  0  0  0  0  0  0  0  0  0  0  0
   40.9080   76.1760   59.5060 H   0  0  0  0  0  0  0  0  0  0  0  0
   39.0660   75.5130   60.3700 N   0  0  0  0  0  0  0  0  0  0  0  0
   38.4560   74.5220   61.0430 C   0  0  0  0  0  3  0  0  0  0  0  0
   39.1460   73.4150   61.3980 N   0  0  0  0  0  0  0  0  0  0  0  0
  1  2  1  0  0  0  0
  2  8  1  0  0  0  0
  2  3  2  0  0  0  0
  3  9  1  0  0  0  0
  4  3  1  0  0  0  0
  5  4  2  0  0  0  0
  6  1  2  0  0  0  0
  6  5  1  0  0  0  0
  7  1  1  0  0  0  0
 10 16  1  0  0  0  0
 10  5  1  0  0  0  0
 11 10  2  0  0  0  0
 12 14  2  0  0  0  0
 12 11  1  0  0  0  0
 13 12  1  0  0  0  0
 14 15  1  0  0  0  0
 15 16  2  0  0  0  0
M  END
>  <minimizedAffinity>
-3.93816924

$$$$

 OpenBabel03212519593D

 16 17  0  0  0  0  0  0  0  0999 V2000
   43.2010   70.9310   60.8550 C   0  0  0  0  0  0  0  0  0  0  0  0
   42.6840   71.9620   61.6790 C   0  0  0  0  0  0  0  0  0  0  0  0
   41.8590   71.5720   62.7380 C   0  0  0  0  0  0  0  0  0  0  0  0
   41.5990   70.2360   62.9200 N   0  0  0  0  0  0  0  0  0  0  0  0
   42.1160   69.3000   62.1070 C   0  0  0  0  0  0  0  0  0  0  0  0
   42.9200   69.6370   61.0700 N   0  0  0  0  0  0  0  0  0  0  0  0
   43.8470   71.2290   60.0250 H   0  0  0  0  0  0  0  0  0  0  0  0
   42.9310   72.9970   61.4770 H   0  0  0  0  0  0  0  0  0  0  0  0
   41.4630   72.3480   63.3690 H   0  0  0  0  0  0  0  0  0  0  0  0
   41.7980   67.8940   62.3580 C   0  0  0  0  0  0  0  0  0  0  0  0
   40.5650   67.5000   62.8030 C   0  0  0  0  0  3  0  0  0  0  0  0
   40.3600   66.1500   63.0100 C   0  0  0  0  0  0  0  0  0  0  0  0
   39.3770   65.8750   63.3620 H   0  0  0  0  0  0  0  0  0  0  0  0
   41.3410   65.2600   62.7810 N   0  0  0  0  0  0  0  0  0  0  0  0
   42.5430   65.6740   62.3440 C   0  0  0  0  0  3  0  0  0  0  0  0
   42.7750   66.9900   62.1310 N   0  0  0  0  0  0  0  0  0  0  0  0
  1  6  2  0  0  0  0
  1  2  1  0  0  0  0
  2  3  2  0  0  0  0
  3  4  1  0  0  0  0
  3  9  1  0  0  0  0
  5 10  1  0  0  0  0
  5  4  2  0  0  0  0
  6  5  1  0  0  0  0
  7  1  1  0  0  0  0
  8  2  1  0  0  0  0
 10 11  1  0  0  0  0
 11 12  2  0  0  0  0
 12 13  1  0  0  0  0
 14 12  1  0  0  0  0
 15 14  2  0  0  0  0
 16 15  1  0  0  0  0
 16 10  2  0  0  0  0
M  END
>  <minimizedAffinity>
-3.79768896

$$$$

 OpenBabel03212519593D

 16 17  0  0  0  0  0  0  0  0999 V2000
   41.3420   66.5750   61.0130 C   0  0  0  0  0  0  0  0  0  0  0  0
   41.0610   65.9980   62.2770 C   0  0  0  0  0  0  0  0  0  0  0  0
   41.1560   66.8380   63.3910 C   0  0  0  0  0  0  0  0  0  0  0  0
   41.5100   68.1510   63.2040 N   0  0  0  0  0  0  0  0  0  0  0  0
   41.7660   68.6460   61.9810 C   0  0  0  0  0  0  0  0  0  0  0  0
   41.6850   67.8640   60.8770 N   0  0  0  0  0  0  0  0  0  0  0  0
   41.2690   65.9250   60.1370 H   0  0  0  0  0  0  0  0  0  0  0  0
   40.7870   64.9530   62.3510 H   0  0  0  0  0  0  0  0  0  0  0  0
   40.9450   66.4070   64.3540 H   0  0  0  0  0  0  0  0  0  0  0  0
   42.1390   70.0550   61.8540 C   0  0  0  0  0  0  0  0  0  0  0  0
   41.7880   70.9830   62.7970 C   0  0  0  0  0  3  0  0  0  0  0  0
   42.1860   72.2890   62.5890 C   0  0  0  0  0  0  0  0  0  0  0  0
   41.8920   72.9950   63.3510 H   0  0  0  0  0  0  0  0  0  0  0  0
   42.8930   72.6290   61.4960 N   0  0  0  0  0  0  0  0  0  0  0  0
   43.2240   71.6970   60.5860 C   0  0  0  0  0  3  0  0  0  0  0  0
   42.8490   70.4090   60.7620 N   0  0  0  0  0  0  0  0  0  0  0  0
  1  2  1  0  0  0  0
  2  8  1  0  0  0  0
  2  3  2  0  0  0  0
  3  9  1  0  0  0  0
  4  3  1  0  0  0  0
  5  4  2  0  0  0  0
  6  1  2  0  0  0  0
  6  5  1  0  0  0  0
  7  1  1  0  0  0  0
 10  5  1  0  0  0  0
 10 11  1  0  0  0  0
 12 11  2  0  0  0  0
 12 13  1  0  0  0  0
 14 12  1  0  0  0  0
 15 16  1  0  0  0  0
 15 14  2  0  0  0  0
 16 10  2  0  0  0  0
M  END
>  <minimizedAffinity>
-3.59067893

$$$$
