
 OpenBabel03212519593D

 16 17  0  0  0  0  0  0  0  0999 V2000
   39.9330   83.6780   59.6110 C   0  0  0  0  0  0  0  0  0  0  0  0
   39.3490   84.4450   60.6490 C   0  0  0  0  0  0  0  0  0  0  0  0
   39.0750   83.7810   61.8490 C   0  0  0  0  0  0  0  0  0  0  0  0
   39.3810   82.4470   61.9550 N   0  0  0  0  0  0  0  0  0  0  0  0
   39.9350   81.7680   60.9360 C   0  0  0  0  0  0  0  0  0  0  0  0
   40.2150   82.3750   59.7580 N   0  0  0  0  0  0  0  0  0  0  0  0
   40.1500   84.1910   58.6700 H   0  0  0  0  0  0  0  0  0  0  0  0
   39.1330   85.4960   60.4970 H   0  0  0  0  0  0  0  0  0  0  0  0
   38.6310   84.3560   62.6430 H   0  0  0  0  0  0  0  0  0  0  0  0
   40.2360   80.3470   61.1160 C   0  0  0  0  0  0  0  0  0  0  0  0
   40.3740   79.4970   60.0530 C   0  0  0  0  0  3  0  0  0  0  0  0
   40.6590   78.1730   60.3240 C   0  0  0  0  0  0  0  0  0  0  0  0
   40.7610   77.5300   59.4620 H   0  0  0  0  0  0  0  0  0  0  0  0
   40.7920   77.7420   61.5910 N   0  0  0  0  0  0  0  0  0  0  0  0
   40.6510   78.5990   62.6170 C   0  0  0  0  0  3  0  0  0  0  0  0
   40.3730   79.9020   62.3830 N   0  0  0  0  0  0  0  0  0  0  0  0
  1  6  2  0  0  0  0
  1  2  1  0  0  0  0
  2  3  2  0  0  0  0
  3  4  1  0  0  0  0
  3  9  1  0  0  0  0
  5 10  1  0  0  0  0
  5  4  2  0  0  0  0
  6  5  1  0  0  0  0
  7  1  1  0  0  0  0
  8  2  1  0  0  0  0
 10 16  1  0  0  0  0
 11 12  1  0  0  0  0
 11 10  2  0  0  0  0
 12 14  2  0  0  0  0
 13 12  1  0  0  0  0
 14 15  1  0  0  0  0
 16 15  2  0  0  0  0
M  END
>  <minimizedAffinity>
-4.40551996

>  <minimizedRMSD>
5.30776405

$$$$
