
 OpenBabel03212519593D

 16 17  0  0  0  0  0  0  0  0999 V2000
   42.0090   83.1730   61.1030 C   0  0  0  0  0  0  0  0  0  0  0  0
   41.4900   84.4500   60.7740 C   0  0  0  0  0  0  0  0  0  0  0  0
   40.5370   84.5020   59.7530 C   0  0  0  0  0  0  0  0  0  0  0  0
   40.1620   83.3350   59.1350 N   0  0  0  0  0  0  0  0  0  0  0  0
   40.6870   82.1490   59.4880 C   0  0  0  0  0  0  0  0  0  0  0  0
   41.6130   82.0580   60.4720 N   0  0  0  0  0  0  0  0  0  0  0  0
   42.7540   83.1250   61.9020 H   0  0  0  0  0  0  0  0  0  0  0  0
   41.8320   85.3310   61.3040 H   0  0  0  0  0  0  0  0  0  0  0  0
   40.1380   85.4680   59.4970 H   0  0  0  0  0  0  0  0  0  0  0  0
   40.2430   80.9440   58.7870 C   0  0  0  0  0  0  0  0  0  0  0  0
   40.3640   79.6990   59.3430 C   0  0  0  0  0  3  0  0  0  0  0  0
   39.9150   78.6220   58.6030 C   0  0  0  0  0  0  0  0  0  0  0  0
   40.0260   77.6550   59.0710 H   0  0  0  0  0  0  0  0  0  0  0  0
   39.3810   78.7990   57.3820 N   0  0  0  0  0  0  0  0  0  0  0  0
   39.2730   80.0330   56.8610 C   0  0  0  0  0  3  0  0  0  0  0  0
   39.7040   81.1080   57.5600 N   0  0  0  0  0  0  0  0  0  0  0  0
  1  7  1  0  0  0  0
  2  1  1  0  0  0  0
  2  8  1  0  0  0  0
  3  2  2  0  0  0  0
  4  5  2  0  0  0  0
  4  3  1  0  0  0  0
  5  6  1  0  0  0  0
  6  1  2  0  0  0  0
  9  3  1  0  0  0  0
 10 11  1  0  0  0  0
 10  5  1  0  0  0  0
 12 13  1  0  0  0  0
 12 11  2  0  0  0  0
 14 12  1  0  0  0  0
 15 14  2  0  0  0  0
 15 16  1  0  0  0  0
 16 10  2  0  0  0  0
M  END
>  <minimizedAffinity>
-2.79310346

>  <minimizedRMSD>
6.20526457

$$$$
