
 OpenBabel03212519593D

 16 17  0  0  0  0  0  0  0  0999 V2000
   43.9840   84.0210   58.1980 C   0  0  0  0  0  0  0  0  0  0  0  0
   44.1250   85.4080   57.9440 C   0  0  0  0  0  0  0  0  0  0  0  0
   43.3100   86.2730   58.6800 C   0  0  0  0  0  0  0  0  0  0  0  0
   42.4330   85.7420   59.5930 N   0  0  0  0  0  0  0  0  0  0  0  0
   42.3400   84.4160   59.7940 C   0  0  0  0  0  0  0  0  0  0  0  0
   43.1130   83.5460   59.1000 N   0  0  0  0  0  0  0  0  0  0  0  0
   44.6190   83.3390   57.6260 H   0  0  0  0  0  0  0  0  0  0  0  0
   44.8390   85.7580   57.2080 H   0  0  0  0  0  0  0  0  0  0  0  0
   43.4110   87.3270   58.4930 H   0  0  0  0  0  0  0  0  0  0  0  0
   41.3830   83.9170   60.7820 C   0  0  0  0  0  0  0  0  0  0  0  0
   41.7730   83.1320   61.8330 C   0  0  0  0  0  3  0  0  0  0  0  0
   40.7960   82.7110   62.7140 C   0  0  0  0  0  0  0  0  0  0  0  0
   41.1370   82.0920   63.5310 H   0  0  0  0  0  0  0  0  0  0  0  0
   39.5100   83.0620   62.5370 N   0  0  0  0  0  0  0  0  0  0  0  0
   39.1550   83.8350   61.4960 C   0  0  0  0  0  3  0  0  0  0  0  0
   40.0890   84.2630   60.6170 N   0  0  0  0  0  0  0  0  0  0  0  0
  1  6  1  0  0  0  0
  2  1  2  0  0  0  0
  2  3  1  0  0  0  0
  3  4  2  0  0  0  0
  4  5  1  0  0  0  0
  5 10  1  0  0  0  0
  6  5  2  0  0  0  0
  7  1  1  0  0  0  0
  8  2  1  0  0  0  0
  9  3  1  0  0  0  0
 10 11  1  0  0  0  0
 11 12  2  0  0  0  0
 12 13  1  0  0  0  0
 14 12  1  0  0  0  0
 15 14  2  0  0  0  0
 16 10  2  0  0  0  0
 16 15  1  0  0  0  0
M  END
>  <minimizedAffinity>
-3.48298907

>  <minimizedRMSD>
4.56562233

$$$$
