
 OpenBabel03212519593D

 16 17  0  0  0  0  0  0  0  0999 V2000
   41.6640   85.7910   58.2790 C   0  0  0  0  0  0  0  0  0  0  0  0
   41.7320   84.9600   57.1340 C   0  0  0  0  0  0  0  0  0  0  0  0
   41.5880   83.5840   57.3410 C   0  0  0  0  0  0  0  0  0  0  0  0
   41.3920   83.1220   58.6180 N   0  0  0  0  0  0  0  0  0  0  0  0
   41.3360   83.9580   59.6700 C   0  0  0  0  0  0  0  0  0  0  0  0
   41.4710   85.2960   59.5100 N   0  0  0  0  0  0  0  0  0  0  0  0
   41.7750   86.8680   58.1250 H   0  0  0  0  0  0  0  0  0  0  0  0
   41.8890   85.3930   56.1530 H   0  0  0  0  0  0  0  0  0  0  0  0
   41.6390   82.9460   56.4760 H   0  0  0  0  0  0  0  0  0  0  0  0
   41.1240   83.3970   61.0050 C   0  0  0  0  0  0  0  0  0  0  0  0
   41.3420   82.0730   61.2760 C   0  0  0  0  0  3  0  0  0  0  0  0
   41.1150   81.6400   62.5680 C   0  0  0  0  0  0  0  0  0  0  0  0
   41.2970   80.5890   62.7470 H   0  0  0  0  0  0  0  0  0  0  0  0
   40.6940   82.4920   63.5180 N   0  0  0  0  0  0  0  0  0  0  0  0
   40.4880   83.7870   63.2240 C   0  0  0  0  0  3  0  0  0  0  0  0
   40.7020   84.2430   61.9690 N   0  0  0  0  0  0  0  0  0  0  0  0
  1  6  1  0  0  0  0
  2  3  1  0  0  0  0
  2  1  2  0  0  0  0
  3  4  2  0  0  0  0
  4  5  1  0  0  0  0
  5 10  1  0  0  0  0
  6  5  2  0  0  0  0
  7  1  1  0  0  0  0
  8  2  1  0  0  0  0
  9  3  1  0  0  0  0
 10 11  2  0  0  0  0
 10 16  1  0  0  0  0
 11 12  1  0  0  0  0
 12 13  1  0  0  0  0
 12 14  2  0  0  0  0
 15 14  1  0  0  0  0
 16 15  2  0  0  0  0
M  END
>  <minimizedAffinity>
-3.68226528

>  <minimizedRMSD>
4.177176

$$$$
