
 OpenBabel03212520353D

 34 37  0  0  0  0  0  0  0  0999 V2000
   41.7880   80.3560   61.5030 C   0  0  0  0  0  0  0  0  0  0  0  0
   43.1560   80.0470   61.6870 C   0  0  0  0  0  0  0  0  0  0  0  0
   44.0660   80.9260   62.1780 C   0  0  0  0  0  0  0  0  0  0  0  0
   43.6620   82.2080   62.5290 C   0  0  0  0  0  0  0  0  0  0  0  0
   42.3270   82.5340   62.3570 C   0  0  0  0  0  0  0  0  0  0  0  0
   41.8030   83.7610   62.6780 C   0  0  0  0  0  0  0  0  0  0  0  0
   40.4710   84.0580   62.5030 C   0  0  0  0  0  0  0  0  0  0  0  0
   39.5850   83.1300   61.9900 C   0  0  0  0  0  0  0  0  0  0  0  0
   40.0980   81.8860   61.6600 C   0  0  0  0  0  0  0  0  0  0  0  0
   41.4100   81.6280   61.8510 C   0  0  0  0  0  0  0  0  0  0  0  0
   43.6580   79.1130   61.4880 H   0  0  0  0  0  0  0  0  0  0  0  0
   45.1080   80.7720   62.3460 H   0  0  0  0  0  0  0  0  0  0  0  0
   44.2740   83.0020   62.9300 H   0  0  0  0  0  0  0  0  0  0  0  0
   42.5170   84.4940   63.0840 H   0  0  0  0  0  0  0  0  0  0  0  0
   40.2050   85.0740   62.8050 H   0  0  0  0  0  0  0  0  0  0  0  0
   38.5740   83.4630   61.8930 H   0  0  0  0  0  0  0  0  0  0  0  0
   39.3270   81.3070   61.2180 H   0  0  0  0  0  0  0  0  0  0  0  0
   40.5500   78.1050   61.7120 C   0  0  0  0  0  0  0  0  0  0  0  0
   40.9860   79.2430   61.0330 C   0  0  0  0  0  0  0  0  0  0  0  0
   40.6520   79.3880   59.6320 C   0  0  0  0  0  0  0  0  0  0  0  0
   39.9240   78.3970   59.0470 N   0  0  0  0  0  0  0  0  0  0  0  0
   39.5230   77.2900   59.7930 C   0  0  0  0  0  0  0  0  0  0  0  0
   39.8370   77.1580   61.1110 N   0  0  0  0  0  0  0  0  0  0  0  0
   40.8270   77.9050   62.7100 H   0  0  0  0  0  0  0  0  0  0  0  0
   40.8540   80.1500   58.9290 H   0  0  0  0  0  0  0  0  0  0  0  0
   38.7670   76.1820   59.1930 C   0  0  0  0  0  0  0  0  0  0  0  0
   38.6060   75.1170   59.8120 O   0  0  0  0  0  0  0  0  0  0  0  0
   38.1900   76.3160   57.8530 C   0  0  0  0  0  0  0  0  0  0  0  0
   38.8060   75.6350   56.8230 C   0  0  0  0  0  3  0  0  0  0  0  0
   38.1840   75.8270   55.5930 C   0  0  0  0  0  0  0  0  0  0  0  0
   38.6050   75.3230   54.7170 H   0  0  0  0  0  0  0  0  0  0  0  0
   37.0970   76.5780   55.3460 N   0  0  0  0  0  0  0  0  0  0  0  0
   36.5520   77.2110   56.3970 C   0  0  0  0  0  3  0  0  0  0  0  0
   37.1000   77.0710   57.6160 N   0  0  0  0  0  0  0  0  0  0  0  0
  1  2  2  0  0  0  0
  1 10  1  0  0  0  0
  2  3  1  0  0  0  0
  3 12  1  0  0  0  0
  3  4  2  0  0  0  0
  4 13  1  0  0  0  0
  5  4  1  0  0  0  0
  5  6  1  0  0  0  0
  6 14  1  0  0  0  0
  7  6  2  0  0  0  0
  7 15  1  0  0  0  0
  8  7  1  0  0  0  0
  9 10  1  0  0  0  0
  9  8  2  0  0  0  0
 10  5  2  0  0  0  0
 11  2  1  0  0  0  0
 16  8  1  0  0  0  0
 17  9  1  0  0  0  0
 18 24  1  0  0  0  0
 19  1  1  0  0  0  0
 19 18  2  0  0  0  0
 20 19  1  0  0  0  0
 21 20  2  0  0  0  0
 21 22  1  0  0  0  0
 22 23  2  0  0  0  0
 23 18  1  0  0  0  0
 25 20  1  0  0  0  0
 26 22  1  0  0  0  0
 26 27  2  0  0  0  0
 28 26  1  0  0  0  0
 29 28  2  0  0  0  0
 30 29  1  0  0  0  0
 31 30  1  0  0  0  0
 32 30  2  0  0  0  0
 32 33  1  0  0  0  0
 33 34  2  0  0  0  0
 34 28  1  0  0  0  0
M  END
>  <minimizedAffinity>
-6.39709902

>  <minimizedRMSD>
8.71720886

$$$$
