
 OpenBabel03212520353D

 34 37  0  0  0  0  0  0  0  0999 V2000
   42.4670   81.6350   60.2400 C   0  0  0  0  0  0  0  0  0  0  0  0
   42.9720   80.5380   60.9770 C   0  0  0  0  0  0  0  0  0  0  0  0
   43.7710   80.6680   62.0650 C   0  0  0  0  0  0  0  0  0  0  0  0
   44.1310   81.9350   62.5060 C   0  0  0  0  0  0  0  0  0  0  0  0
   43.6490   83.0250   61.8010 C   0  0  0  0  0  0  0  0  0  0  0  0
   43.9220   84.3250   62.1430 C   0  0  0  0  0  0  0  0  0  0  0  0
   43.4260   85.3910   61.4280 C   0  0  0  0  0  0  0  0  0  0  0  0
   42.6220   85.2060   60.3190 C   0  0  0  0  0  0  0  0  0  0  0  0
   42.3370   83.8990   59.9590 C   0  0  0  0  0  0  0  0  0  0  0  0
   42.8370   82.8770   60.6890 C   0  0  0  0  0  0  0  0  0  0  0  0
   42.7990   79.4870   60.8050 H   0  0  0  0  0  0  0  0  0  0  0  0
   44.1900   79.8970   62.6720 H   0  0  0  0  0  0  0  0  0  0  0  0
   44.7550   82.1830   63.3520 H   0  0  0  0  0  0  0  0  0  0  0  0
   44.5640   84.4620   63.0260 H   0  0  0  0  0  0  0  0  0  0  0  0
   43.7290   86.3640   61.8230 H   0  0  0  0  0  0  0  0  0  0  0  0
   42.2910   86.1010   59.8350 H   0  0  0  0  0  0  0  0  0  0  0  0
   41.7750   83.9090   59.0610 H   0  0  0  0  0  0  0  0  0  0  0  0
   40.1830   81.3200   59.0870 C   0  0  0  0  0  0  0  0  0  0  0  0
   41.5750   81.2630   59.1580 C   0  0  0  0  0  0  0  0  0  0  0  0
   42.3090   80.7340   58.0290 C   0  0  0  0  0  0  0  0  0  0  0  0
   41.5950   80.3160   56.9480 N   0  0  0  0  0  0  0  0  0  0  0  0
   40.2050   80.4050   56.9500 C   0  0  0  0  0  0  0  0  0  0  0  0
   39.5180   80.9050   58.0140 N   0  0  0  0  0  0  0  0  0  0  0  0
   39.5890   81.6220   59.9050 H   0  0  0  0  0  0  0  0  0  0  0  0
   43.3430   80.6070   57.8490 H   0  0  0  0  0  0  0  0  0  0  0  0
   39.3930   79.9320   55.8200 C   0  0  0  0  0  0  0  0  0  0  0  0
   39.3890   80.5490   54.7420 O   0  0  0  0  0  0  0  0  0  0  0  0
   38.5760   78.7230   55.9470 C   0  0  0  0  0  0  0  0  0  0  0  0
   39.0610   77.5620   55.3810 C   0  0  0  0  0  3  0  0  0  0  0  0
   38.2130   76.4740   55.5560 C   0  0  0  0  0  0  0  0  0  0  0  0
   38.5180   75.5090   55.1400 H   0  0  0  0  0  0  0  0  0  0  0  0
   37.0300   76.4650   56.1940 N   0  0  0  0  0  0  0  0  0  0  0  0
   36.6220   77.6310   56.7200 C   0  0  0  0  0  3  0  0  0  0  0  0
   37.3910   78.7260   56.5900 N   0  0  0  0  0  0  0  0  0  0  0  0
  1 10  2  0  0  0  0
  1  2  1  0  0  0  0
  2  3  2  0  0  0  0
  3  4  1  0  0  0  0
  3 12  1  0  0  0  0
  4 13  1  0  0  0  0
  5  6  1  0  0  0  0
  5  4  2  0  0  0  0
  6 14  1  0  0  0  0
  7 15  1  0  0  0  0
  7  6  2  0  0  0  0
  8  7  1  0  0  0  0
  9  8  2  0  0  0  0
  9 10  1  0  0  0  0
 10  5  1  0  0  0  0
 11  2  1  0  0  0  0
 16  8  1  0  0  0  0
 17  9  1  0  0  0  0
 18 19  1  0  0  0  0
 18 24  1  0  0  0  0
 19  1  1  0  0  0  0
 20 19  2  0  0  0  0
 21 22  2  0  0  0  0
 21 20  1  0  0  0  0
 22 23  1  0  0  0  0
 23 18  2  0  0  0  0
 25 20  1  0  0  0  0
 26 28  1  0  0  0  0
 26 22  1  0  0  0  0
 27 26  2  0  0  0  0
 28 34  1  0  0  0  0
 29 30  1  0  0  0  0
 29 28  2  0  0  0  0
 30 32  2  0  0  0  0
 31 30  1  0  0  0  0
 32 33  1  0  0  0  0
 34 33  2  0  0  0  0
M  END
>  <minimizedAffinity>
-4.8994813

>  <minimizedRMSD>
8.43077278

$$$$
