
 OpenBabel03212520353D

 34 37  0  0  0  0  0  0  0  0999 V2000
   42.2510   81.8420   61.7260 C   0  0  0  0  0  0  0  0  0  0  0  0
   42.8580   82.5030   62.8190 C   0  0  0  0  0  0  0  0  0  0  0  0
   42.7780   83.8410   63.0290 C   0  0  0  0  0  0  0  0  0  0  0  0
   42.0660   84.6330   62.1380 C   0  0  0  0  0  0  0  0  0  0  0  0
   41.4620   84.0100   61.0590 C   0  0  0  0  0  0  0  0  0  0  0  0
   40.7220   84.6790   60.1170 C   0  0  0  0  0  0  0  0  0  0  0  0
   40.1270   84.0340   59.0570 C   0  0  0  0  0  0  0  0  0  0  0  0
   40.2470   82.6680   58.8820 C   0  0  0  0  0  0  0  0  0  0  0  0
   40.9910   81.9770   59.8240 C   0  0  0  0  0  0  0  0  0  0  0  0
   41.5560   82.6430   60.8550 C   0  0  0  0  0  0  0  0  0  0  0  0
   43.4380   82.0680   63.6200 H   0  0  0  0  0  0  0  0  0  0  0  0
   43.2040   84.4110   63.8230 H   0  0  0  0  0  0  0  0  0  0  0  0
   41.9190   85.7020   62.1820 H   0  0  0  0  0  0  0  0  0  0  0  0
   40.6340   85.7660   60.2640 H   0  0  0  0  0  0  0  0  0  0  0  0
   39.5700   84.7010   58.3940 H   0  0  0  0  0  0  0  0  0  0  0  0
   39.7480   82.2680   58.0260 H   0  0  0  0  0  0  0  0  0  0  0  0
   41.0550   80.9610   59.5280 H   0  0  0  0  0  0  0  0  0  0  0  0
   41.4860   79.4030   62.0620 C   0  0  0  0  0  0  0  0  0  0  0  0
   42.4080   80.4000   61.7410 C   0  0  0  0  0  0  0  0  0  0  0  0
   43.7580   80.0140   61.3920 C   0  0  0  0  0  0  0  0  0  0  0  0
   44.0590   78.6860   61.3950 N   0  0  0  0  0  0  0  0  0  0  0  0
   43.0830   77.7480   61.7250 C   0  0  0  0  0  0  0  0  0  0  0  0
   41.8130   78.1150   62.0510 N   0  0  0  0  0  0  0  0  0  0  0  0
   40.5120   79.6260   62.4000 H   0  0  0  0  0  0  0  0  0  0  0  0
   44.6060   80.5750   61.1060 H   0  0  0  0  0  0  0  0  0  0  0  0
   43.3730   76.3080   61.7750 C   0  0  0  0  0  0  0  0  0  0  0  0
   42.6320   75.4930   61.2030 O   0  0  0  0  0  0  0  0  0  0  0  0
   44.5450   75.8120   62.5020 C   0  0  0  0  0  0  0  0  0  0  0  0
   45.5780   75.2790   61.7580 C   0  0  0  0  0  3  0  0  0  0  0  0
   46.6400   74.8380   62.5410 C   0  0  0  0  0  0  0  0  0  0  0  0
   47.5060   74.3990   62.0350 H   0  0  0  0  0  0  0  0  0  0  0  0
   46.7340   74.8860   63.8800 N   0  0  0  0  0  0  0  0  0  0  0  0
   45.6900   75.4190   64.5370 C   0  0  0  0  0  3  0  0  0  0  0  0
   44.6280   75.8670   63.8460 N   0  0  0  0  0  0  0  0  0  0  0  0
  1 19  1  0  0  0  0
  1  2  1  0  0  0  0
  2  3  2  0  0  0  0
  2 11  1  0  0  0  0
  3 12  1  0  0  0  0
  4 13  1  0  0  0  0
  4  3  1  0  0  0  0
  5  4  2  0  0  0  0
  6 14  1  0  0  0  0
  6  5  1  0  0  0  0
  7  6  2  0  0  0  0
  8  7  1  0  0  0  0
  8  9  2  0  0  0  0
  9 10  1  0  0  0  0
 10  5  1  0  0  0  0
 10  1  2  0  0  0  0
 15  7  1  0  0  0  0
 16  8  1  0  0  0  0
 17  9  1  0  0  0  0
 18 24  1  0  0  0  0
 19 18  2  0  0  0  0
 20 21  2  0  0  0  0
 20 19  1  0  0  0  0
 21 22  1  0  0  0  0
 22 26  1  0  0  0  0
 22 23  2  0  0  0  0
 23 18  1  0  0  0  0
 25 20  1  0  0  0  0
 26 28  1  0  0  0  0
 27 26  2  0  0  0  0
 28 34  1  0  0  0  0
 29 28  2  0  0  0  0
 29 30  1  0  0  0  0
 30 32  2  0  0  0  0
 31 30  1  0  0  0  0
 32 33  1  0  0  0  0
 34 33  2  0  0  0  0
M  END
>  <minimizedAffinity>
-4.82612276

>  <minimizedRMSD>
8.06904125

$$$$
