
 OpenBabel03212520353D

 34 37  0  0  0  0  0  0  0  0999 V2000
   42.6900   82.0850   61.3010 C   0  0  0  0  0  0  0  0  0  0  0  0
   43.4830   82.7640   62.2560 C   0  0  0  0  0  0  0  0  0  0  0  0
   43.5240   84.1150   62.3750 C   0  0  0  0  0  0  0  0  0  0  0  0
   42.7540   84.9030   61.5290 C   0  0  0  0  0  0  0  0  0  0  0  0
   41.9690   84.2610   60.5860 C   0  0  0  0  0  0  0  0  0  0  0  0
   41.1560   84.9250   59.7020 C   0  0  0  0  0  0  0  0  0  0  0  0
   40.3810   84.2620   58.7780 C   0  0  0  0  0  0  0  0  0  0  0  0
   40.3820   82.8830   58.6900 C   0  0  0  0  0  0  0  0  0  0  0  0
   41.1980   82.1970   59.5740 C   0  0  0  0  0  0  0  0  0  0  0  0
   41.9410   82.8810   60.4720 C   0  0  0  0  0  0  0  0  0  0  0  0
   44.1340   82.3370   63.0030 H   0  0  0  0  0  0  0  0  0  0  0  0
   44.0910   84.7000   63.0640 H   0  0  0  0  0  0  0  0  0  0  0  0
   42.6880   85.9810   61.5140 H   0  0  0  0  0  0  0  0  0  0  0  0
   41.1640   86.0230   59.7790 H   0  0  0  0  0  0  0  0  0  0  0  0
   39.7870   84.9270   58.1460 H   0  0  0  0  0  0  0  0  0  0  0  0
   39.7460   82.4690   57.9370 H   0  0  0  0  0  0  0  0  0  0  0  0
   41.1510   81.1620   59.3470 H   0  0  0  0  0  0  0  0  0  0  0  0
   41.8310   79.7430   61.9490 C   0  0  0  0  0  0  0  0  0  0  0  0
   42.7490   80.6390   61.4020 C   0  0  0  0  0  0  0  0  0  0  0  0
   43.9870   80.1230   60.8590 C   0  0  0  0  0  0  0  0  0  0  0  0
   44.1930   78.7790   60.9140 N   0  0  0  0  0  0  0  0  0  0  0  0
   43.2270   77.9460   61.4770 C   0  0  0  0  0  0  0  0  0  0  0  0
   42.0620   78.4350   61.9840 N   0  0  0  0  0  0  0  0  0  0  0  0
   40.9480   80.0640   62.4290 H   0  0  0  0  0  0  0  0  0  0  0  0
   44.8090   80.5950   60.3920 H   0  0  0  0  0  0  0  0  0  0  0  0
   43.4230   76.4930   61.5880 C   0  0  0  0  0  0  0  0  0  0  0  0
   42.6280   75.7050   61.0510 O   0  0  0  0  0  0  0  0  0  0  0  0
   44.5620   75.9530   62.3350 C   0  0  0  0  0  0  0  0  0  0  0  0
   44.4390   75.8650   63.7070 C   0  0  0  0  0  3  0  0  0  0  0  0
   45.5720   75.3420   64.3220 C   0  0  0  0  0  0  0  0  0  0  0  0
   45.5640   75.2350   65.4120 H   0  0  0  0  0  0  0  0  0  0  0  0
   46.7060   74.9380   63.7240 N   0  0  0  0  0  0  0  0  0  0  0  0
   46.7510   75.0540   62.3860 C   0  0  0  0  0  3  0  0  0  0  0  0
   45.6940   75.5530   61.7240 N   0  0  0  0  0  0  0  0  0  0  0  0
  1 19  1  0  0  0  0
  1  2  1  0  0  0  0
  2  3  2  0  0  0  0
  2 11  1  0  0  0  0
  3 12  1  0  0  0  0
  4  3  1  0  0  0  0
  5  4  2  0  0  0  0
  6 14  1  0  0  0  0
  6  5  1  0  0  0  0
  7  6  2  0  0  0  0
  8  7  1  0  0  0  0
  8  9  2  0  0  0  0
  9 10  1  0  0  0  0
 10  5  1  0  0  0  0
 10  1  2  0  0  0  0
 13  4  1  0  0  0  0
 15  7  1  0  0  0  0
 16  8  1  0  0  0  0
 17  9  1  0  0  0  0
 18 23  1  0  0  0  0
 18 24  1  0  0  0  0
 19 18  2  0  0  0  0
 20 21  2  0  0  0  0
 20 19  1  0  0  0  0
 21 22  1  0  0  0  0
 22 26  1  0  0  0  0
 22 23  2  0  0  0  0
 25 20  1  0  0  0  0
 26 28  1  0  0  0  0
 27 26  2  0  0  0  0
 28 29  1  0  0  0  0
 29 30  2  0  0  0  0
 30 31  1  0  0  0  0
 32 30  1  0  0  0  0
 33 32  2  0  0  0  0
 34 28  2  0  0  0  0
 34 33  1  0  0  0  0
M  END
>  <minimizedAffinity>
-4.54478931

>  <minimizedRMSD>
7.96078444

$$$$
