
 OpenBabel03212520523D

 18 19  0  0  0  0  0  0  0  0999 V2000
   41.3960   84.0940   62.5930 C   0  0  0  0  0  0  0  0  0  0  0  0
   40.0900   83.7110   62.9930 C   0  0  0  0  0  0  0  0  0  0  0  0
   39.1470   83.4080   61.9920 C   0  0  0  0  0  0  0  0  0  0  0  0
   39.5660   83.5060   60.7070 N   0  0  0  0  0  0  0  0  0  0  0  0
   40.8110   83.8730   60.3580 C   0  0  0  0  0  0  0  0  0  0  0  0
   41.7220   84.1650   61.2830 N   0  0  0  0  0  0  0  0  0  0  0  0
   42.1660   84.3400   63.3090 H   0  0  0  0  0  0  0  0  0  0  0  0
   39.8470   83.6600   64.0250 H   0  0  0  0  0  0  0  0  0  0  0  0
   38.1400   83.1110   62.2530 H   0  0  0  0  0  0  0  0  0  0  0  0
   41.2270   83.9640   58.9460 C   0  0  0  0  0  0  0  0  0  0  0  0
   41.4330   82.8450   58.1100 C   0  0  0  0  0  0  0  0  0  0  0  0
   41.8180   83.0630   56.8280 C   0  0  0  0  0  0  0  0  0  0  0  0
   41.9950   84.3940   56.3900 C   0  0  0  0  0  0  0  0  0  0  0  0
   41.5920   85.4040   57.8810 S   0  0  0  0  0  0  0  0  0  0  0  0
   41.2900   81.8460   58.4790 H   0  0  0  0  0  0  0  0  0  0  0  0
   42.0130   82.3120   56.0760 H   0  0  0  0  0  0  0  0  0  0  0  0
   42.3620   84.9160   55.2080 O   0  0  0  0  0  0  0  0  0  0  0  0
   43.2820   85.0430   54.8490 H   0  0  0  0  0  0  0  0  0  0  0  0
  1  2  1  0  0  0  0
  1  7  1  0  0  0  0
  2  8  1  0  0  0  0
  3  9  1  0  0  0  0
  3  2  2  0  0  0  0
  4  3  1  0  0  0  0
  5  4  2  0  0  0  0
  5  6  1  0  0  0  0
  6  1  2  0  0  0  0
 10  5  1  0  0  0  0
 11 15  1  0  0  0  0
 11 10  2  0  0  0  0
 12 11  1  0  0  0  0
 13 12  2  0  0  0  0
 13 14  1  0  0  0  0
 14 10  1  0  0  0  0
 16 12  1  0  0  0  0
 17 13  1  0  0  0  0
 18 17  1  0  0  0  0
M  END
>  <minimizedAffinity>
-3.90560555

>  <minimizedRMSD>
0.277025878

$$$$
