
 OpenBabel03212521043D

 29 31  0  0  0  0  0  0  0  0999 V2000
   41.8190   84.2300   61.5740 C   0  0  0  0  0  0  0  0  0  0  0  0
   41.4470   83.9670   62.8850 C   0  0  0  0  0  0  0  0  0  0  0  0
   40.1500   83.5600   63.2030 C   0  0  0  0  0  0  0  0  0  0  0  0
   39.2230   83.4210   62.1760 C   0  0  0  0  0  0  0  0  0  0  0  0
   39.6060   83.6880   60.8600 C   0  0  0  0  0  0  0  0  0  0  0  0
   40.8830   84.0850   60.5670 C   0  0  0  0  0  0  0  0  0  0  0  0
   42.1780   84.0780   63.6870 H   0  0  0  0  0  0  0  0  0  0  0  0
   39.8400   83.3500   64.2180 H   0  0  0  0  0  0  0  0  0  0  0  0
   38.1910   83.1070   62.3500 H   0  0  0  0  0  0  0  0  0  0  0  0
   38.8760   83.5760   60.0630 H   0  0  0  0  0  0  0  0  0  0  0  0
   45.3800   84.1190   60.7500 C   0  0  0  0  0  0  0  0  0  0  0  0
   45.7490   85.4600   60.7870 C   0  0  0  0  0  0  0  0  0  0  0  0
   44.7680   86.4180   61.0970 C   0  0  0  0  0  0  0  0  0  0  0  0
   43.5100   85.9770   61.3450 N   0  0  0  0  0  0  0  0  0  0  0  0
   43.1840   84.6510   61.3000 C   0  0  0  0  0  0  0  0  0  0  0  0
   44.1110   83.7540   61.0070 N   0  0  0  0  0  0  0  0  0  0  0  0
   46.1520   83.4020   60.5090 H   0  0  0  0  0  0  0  0  0  0  0  0
   46.7500   85.8370   60.5920 H   0  0  0  0  0  0  0  0  0  0  0  0
   45.0320   87.4540   61.1300 H   0  0  0  0  0  0  0  0  0  0  0  0
   41.2310   84.3500   59.1890 C   0  0  0  0  0  0  0  0  0  0  0  0
   40.7740   85.6070   58.7720 C   0  0  0  0  0  0  0  0  0  0  0  0
   41.0120   86.0470   57.4720 C   0  0  0  0  0  0  0  0  0  0  0  0
   41.6850   85.2260   56.6530 N   0  0  0  0  0  0  0  0  0  0  0  0
   42.1290   84.0040   57.0600 C   0  0  0  0  0  0  0  0  0  0  0  0
   41.9020   83.5780   58.3090 N   0  0  0  0  0  0  0  0  0  0  0  0
   40.2280   86.3140   59.3800 H   0  0  0  0  0  0  0  0  0  0  0  0
   40.6750   87.0120   57.1110 H   0  0  0  0  0  0  0  0  0  0  0  0
   42.8250   83.1700   56.1940 O   0  0  0  0  0  0  0  0  0  0  0  0
   43.7160   83.3900   55.7970 H   0  0  0  0  0  0  0  0  0  0  0  0
  1  2  1  0  0  0  0
  2  3  2  0  0  0  0
  2  7  1  0  0  0  0
  3  8  1  0  0  0  0
  4  9  1  0  0  0  0
  4  3  1  0  0  0  0
  5  4  2  0  0  0  0
  6  5  1  0  0  0  0
  6  1  2  0  0  0  0
 10  5  1  0  0  0  0
 11 12  2  0  0  0  0
 11 16  1  0  0  0  0
 12 13  1  0  0  0  0
 13 19  1  0  0  0  0
 13 14  2  0  0  0  0
 15 14  1  0  0  0  0
 15  1  1  0  0  0  0
 16 15  2  0  0  0  0
 17 11  1  0  0  0  0
 18 12  1  0  0  0  0
 20  6  1  0  0  0  0
 21 20  1  0  0  0  0
 21 26  1  0  0  0  0
 22 21  2  0  0  0  0
 23 24  2  0  0  0  0
 23 22  1  0  0  0  0
 24 25  1  0  0  0  0
 25 20  2  0  0  0  0
 27 22  1  0  0  0  0
 28 24  1  0  0  0  0
 29 28  1  0  0  0  0
M  END
>  <minimizedAffinity>
-5.29526186

>  <minimizedRMSD>
0.0355170369

$$$$
