
 OpenBabel03212520533D

 18 19  0  0  0  0  0  0  0  0999 V2000
   39.8480   77.5500   59.3820 C   0  0  0  0  0  0  0  0  0  0  0  0
   39.8160   76.5430   60.3810 C   0  0  0  0  0  0  0  0  0  0  0  0
   39.1400   75.3410   60.0960 C   0  0  0  0  0  0  0  0  0  0  0  0
   38.5650   75.2380   58.8720 N   0  0  0  0  0  0  0  0  0  0  0  0
   38.6110   76.2110   57.9460 C   0  0  0  0  0  0  0  0  0  0  0  0
   39.2430   77.3570   58.1900 N   0  0  0  0  0  0  0  0  0  0  0  0
   40.3490   78.4950   59.5370 H   0  0  0  0  0  0  0  0  0  0  0  0
   40.2950   76.7070   61.3140 H   0  0  0  0  0  0  0  0  0  0  0  0
   39.0910   74.5460   60.8280 H   0  0  0  0  0  0  0  0  0  0  0  0
   37.9740   76.0570   56.6250 C   0  0  0  0  0  0  0  0  0  0  0  0
   37.2860   77.0910   55.9550 C   0  0  0  0  0  0  0  0  0  0  0  0
   36.7400   76.8200   54.7430 C   0  0  0  0  0  0  0  0  0  0  0  0
   36.8850   75.5200   54.2100 C   0  0  0  0  0  0  0  0  0  0  0  0
   37.8530   74.6220   55.4990 S   0  0  0  0  0  0  0  0  0  0  0  0
   37.1950   78.0680   56.3930 H   0  0  0  0  0  0  0  0  0  0  0  0
   36.1880   77.5040   54.1160 H   0  0  0  0  0  0  0  0  0  0  0  0
   36.4670   74.9620   53.0620 O   0  0  0  0  0  0  0  0  0  0  0  0
   35.5740   74.5700   52.8570 H   0  0  0  0  0  0  0  0  0  0  0  0
  1  7  1  0  0  0  0
  1  2  1  0  0  0  0
  2  8  1  0  0  0  0
  3  2  2  0  0  0  0
  3  9  1  0  0  0  0
  4  3  1  0  0  0  0
  5  6  1  0  0  0  0
  5  4  2  0  0  0  0
  6  1  2  0  0  0  0
 10  5  1  0  0  0  0
 11 15  1  0  0  0  0
 11 10  2  0  0  0  0
 12 11  1  0  0  0  0
 13 12  2  0  0  0  0
 13 14  1  0  0  0  0
 14 10  1  0  0  0  0
 16 12  1  0  0  0  0
 17 13  1  0  0  0  0
 18 17  1  0  0  0  0
M  END
>  <minimizedAffinity>
-4.37372446

$$$$

 OpenBabel03212520533D

 18 19  0  0  0  0  0  0  0  0999 V2000
   37.7670   75.0680   54.3750 C   0  0  0  0  0  0  0  0  0  0  0  0
   36.8750   76.0980   53.9770 C   0  0  0  0  0  0  0  0  0  0  0  0
   36.4890   77.0550   54.9360 C   0  0  0  0  0  0  0  0  0  0  0  0
   37.0060   76.9160   56.1810 N   0  0  0  0  0  0  0  0  0  0  0  0
   37.8480   75.9280   56.5290 C   0  0  0  0  0  0  0  0  0  0  0  0
   38.2300   75.0110   55.6440 N   0  0  0  0  0  0  0  0  0  0  0  0
   38.1020   74.3040   53.6900 H   0  0  0  0  0  0  0  0  0  0  0  0
   36.5190   76.1320   52.9770 H   0  0  0  0  0  0  0  0  0  0  0  0
   35.8120   77.8570   54.6750 H   0  0  0  0  0  0  0  0  0  0  0  0
   38.3900   75.8150   57.8960 C   0  0  0  0  0  0  0  0  0  0  0  0
   39.1130   76.8390   58.5450 C   0  0  0  0  0  0  0  0  0  0  0  0
   39.5620   76.6100   59.8050 C   0  0  0  0  0  0  0  0  0  0  0  0
   39.2860   75.3620   60.4060 C   0  0  0  0  0  0  0  0  0  0  0  0
   38.3330   74.4530   59.1140 S   0  0  0  0  0  0  0  0  0  0  0  0
   39.3050   77.7760   58.0560 H   0  0  0  0  0  0  0  0  0  0  0  0
   40.1250   77.2930   60.4240 H   0  0  0  0  0  0  0  0  0  0  0  0
   39.5900   74.8520   61.6110 O   0  0  0  0  0  0  0  0  0  0  0  0
   40.4360   74.4120   61.8980 H   0  0  0  0  0  0  0  0  0  0  0  0
  1  6  1  0  0  0  0
  2  1  2  0  0  0  0
  2  3  1  0  0  0  0
  3  4  2  0  0  0  0
  4  5  1  0  0  0  0
  5 10  1  0  0  0  0
  6  5  2  0  0  0  0
  7  1  1  0  0  0  0
  8  2  1  0  0  0  0
  9  3  1  0  0  0  0
 10 11  2  0  0  0  0
 10 14  1  0  0  0  0
 11 12  1  0  0  0  0
 12 13  2  0  0  0  0
 12 16  1  0  0  0  0
 13 17  1  0  0  0  0
 14 13  1  0  0  0  0
 15 11  1  0  0  0  0
 17 18  1  0  0  0  0
M  END
>  <minimizedAffinity>
-4.29326391

$$$$

 OpenBabel03212520533D

 18 19  0  0  0  0  0  0  0  0999 V2000
   36.6660   75.3650   56.0300 C   0  0  0  0  0  0  0  0  0  0  0  0
   36.9490   76.6780   55.5740 C   0  0  0  0  0  0  0  0  0  0  0  0
   37.8770   77.4510   56.2970 C   0  0  0  0  0  0  0  0  0  0  0  0
   38.4370   76.8720   57.3880 N   0  0  0  0  0  0  0  0  0  0  0  0
   38.1480   75.6240   57.7960 C   0  0  0  0  0  0  0  0  0  0  0  0
   37.2740   74.8720   57.1310 N   0  0  0  0  0  0  0  0  0  0  0  0
   35.9640   74.7200   55.5210 H   0  0  0  0  0  0  0  0  0  0  0  0
   36.4630   77.0530   54.7060 H   0  0  0  0  0  0  0  0  0  0  0  0
   38.1230   78.4570   55.9840 H   0  0  0  0  0  0  0  0  0  0  0  0
   38.7820   75.0310   58.9880 C   0  0  0  0  0  0  0  0  0  0  0  0
   39.1690   75.7700   60.1260 C   0  0  0  0  0  0  0  0  0  0  0  0
   39.7470   75.1060   61.1580 C   0  0  0  0  0  0  0  0  0  0  0  0
   39.9360   73.7110   61.0460 C   0  0  0  0  0  0  0  0  0  0  0  0
   39.2530   73.3090   59.3790 S   0  0  0  0  0  0  0  0  0  0  0  0
   39.0110   76.8320   60.1760 H   0  0  0  0  0  0  0  0  0  0  0  0
   40.0930   75.5330   62.0880 H   0  0  0  0  0  0  0  0  0  0  0  0
   40.4660   72.8000   61.8790 O   0  0  0  0  0  0  0  0  0  0  0  0
   41.4260   72.5690   62.0070 H   0  0  0  0  0  0  0  0  0  0  0  0
  1  6  1  0  0  0  0
  2  1  2  0  0  0  0
  2  3  1  0  0  0  0
  3  4  2  0  0  0  0
  4  5  1  0  0  0  0
  5 10  1  0  0  0  0
  6  5  2  0  0  0  0
  7  1  1  0  0  0  0
  8  2  1  0  0  0  0
  9  3  1  0  0  0  0
 10 14  1  0  0  0  0
 10 11  2  0  0  0  0
 11 15  1  0  0  0  0
 11 12  1  0  0  0  0
 12 16  1  0  0  0  0
 13 12  2  0  0  0  0
 13 17  1  0  0  0  0
 14 13  1  0  0  0  0
 17 18  1  0  0  0  0
M  END
>  <minimizedAffinity>
-4.18219376

$$$$

 OpenBabel03212520533D

 18 19  0  0  0  0  0  0  0  0999 V2000
   43.0180   70.7460   61.1930 C   0  0  0  0  0  0  0  0  0  0  0  0
   42.8130   70.1890   62.4820 C   0  0  0  0  0  0  0  0  0  0  0  0
   41.7740   70.7110   63.2770 C   0  0  0  0  0  0  0  0  0  0  0  0
   41.0420   71.7180   62.7430 N   0  0  0  0  0  0  0  0  0  0  0  0
   41.2610   72.2260   61.5180 C   0  0  0  0  0  0  0  0  0  0  0  0
   42.2350   71.7520   60.7450 N   0  0  0  0  0  0  0  0  0  0  0  0
   43.7970   70.3920   60.5330 H   0  0  0  0  0  0  0  0  0  0  0  0
   43.4350   69.3990   62.8220 H   0  0  0  0  0  0  0  0  0  0  0  0
   41.5820   70.3150   64.2660 H   0  0  0  0  0  0  0  0  0  0  0  0
   40.4370   73.3210   60.9730 C   0  0  0  0  0  0  0  0  0  0  0  0
   39.0750   73.5170   61.2890 C   0  0  0  0  0  0  0  0  0  0  0  0
   38.4260   74.5630   60.7180 C   0  0  0  0  0  0  0  0  0  0  0  0
   39.1400   75.4040   59.8360 C   0  0  0  0  0  0  0  0  0  0  0  0
   40.8350   74.6750   59.8100 S   0  0  0  0  0  0  0  0  0  0  0  0
   38.5640   72.8560   61.9640 H   0  0  0  0  0  0  0  0  0  0  0  0
   37.3920   74.8370   60.8620 H   0  0  0  0  0  0  0  0  0  0  0  0
   38.7810   76.4910   59.1340 O   0  0  0  0  0  0  0  0  0  0  0  0
   38.3260   76.5300   58.2490 H   0  0  0  0  0  0  0  0  0  0  0  0
  1  2  1  0  0  0  0
  2  8  1  0  0  0  0
  2  3  2  0  0  0  0
  3  9  1  0  0  0  0
  4  3  1  0  0  0  0
  5  4  2  0  0  0  0
  6  1  2  0  0  0  0
  6  5  1  0  0  0  0
  7  1  1  0  0  0  0
 10 11  2  0  0  0  0
 10  5  1  0  0  0  0
 11 15  1  0  0  0  0
 12 16  1  0  0  0  0
 12 11  1  0  0  0  0
 13 12  2  0  0  0  0
 14 13  1  0  0  0  0
 14 10  1  0  0  0  0
 17 13  1  0  0  0  0
 18 17  1  0  0  0  0
M  END
>  <minimizedAffinity>
-4.10434484

$$$$

 OpenBabel03212520533D

 18 19  0  0  0  0  0  0  0  0999 V2000
   40.5960   75.2440   59.9440 C   0  0  0  0  0  0  0  0  0  0  0  0
   39.2200   75.3870   60.2610 C   0  0  0  0  0  0  0  0  0  0  0  0
   38.6020   74.3790   61.0260 C   0  0  0  0  0  0  0  0  0  0  0  0
   39.3800   73.3360   61.4050 N   0  0  0  0  0  0  0  0  0  0  0  0
   40.6820   73.2270   61.0880 C   0  0  0  0  0  0  0  0  0  0  0  0
   41.2910   74.1650   60.3670 N   0  0  0  0  0  0  0  0  0  0  0  0
   41.1290   75.9810   59.3610 H   0  0  0  0  0  0  0  0  0  0  0  0
   38.6850   76.2400   59.9220 H   0  0  0  0  0  0  0  0  0  0  0  0
   37.5550   74.4490   61.2910 H   0  0  0  0  0  0  0  0  0  0  0  0
   41.4930   72.0760   61.5250 C   0  0  0  0  0  0  0  0  0  0  0  0
   41.3890   71.4730   62.7970 C   0  0  0  0  0  0  0  0  0  0  0  0
   42.1960   70.4190   63.0770 C   0  0  0  0  0  0  0  0  0  0  0  0
   43.1000   69.9760   62.0870 C   0  0  0  0  0  0  0  0  0  0  0  0
   42.7930   71.1160   60.6690 S   0  0  0  0  0  0  0  0  0  0  0  0
   40.6900   71.8390   63.5260 H   0  0  0  0  0  0  0  0  0  0  0  0
   42.2300   69.8610   64.0010 H   0  0  0  0  0  0  0  0  0  0  0  0
   44.0040   68.9820   62.0690 O   0  0  0  0  0  0  0  0  0  0  0  0
   44.9360   68.9910   62.4220 H   0  0  0  0  0  0  0  0  0  0  0  0
  1  2  2  0  0  0  0
  1  6  1  0  0  0  0
  2  3  1  0  0  0  0
  3  9  1  0  0  0  0
  3  4  2  0  0  0  0
  5  4  1  0  0  0  0
  5 10  1  0  0  0  0
  6  5  2  0  0  0  0
  7  1  1  0  0  0  0
  8  2  1  0  0  0  0
 10 11  2  0  0  0  0
 11 12  1  0  0  0  0
 11 15  1  0  0  0  0
 12 16  1  0  0  0  0
 13 12  2  0  0  0  0
 14 10  1  0  0  0  0
 14 13  1  0  0  0  0
 17 13  1  0  0  0  0
 17 18  1  0  0  0  0
M  END
>  <minimizedAffinity>
-3.99532819

$$$$

 OpenBabel03212520533D

 18 19  0  0  0  0  0  0  0  0999 V2000
   36.6560   75.8360   54.7870 C   0  0  0  0  0  0  0  0  0  0  0  0
   37.4550   75.1580   53.8300 C   0  0  0  0  0  0  0  0  0  0  0  0
   38.6020   74.4760   54.2800 C   0  0  0  0  0  0  0  0  0  0  0  0
   38.8570   74.5210   55.6100 N   0  0  0  0  0  0  0  0  0  0  0  0
   38.0820   75.1730   56.4930 C   0  0  0  0  0  0  0  0  0  0  0  0
   36.9930   75.8250   56.0960 N   0  0  0  0  0  0  0  0  0  0  0  0
   35.7640   76.3780   54.5080 H   0  0  0  0  0  0  0  0  0  0  0  0
   37.1790   75.1740   52.8040 H   0  0  0  0  0  0  0  0  0  0  0  0
   39.2380   73.9450   53.5840 H   0  0  0  0  0  0  0  0  0  0  0  0
   38.3950   75.1940   57.9340 C   0  0  0  0  0  0  0  0  0  0  0  0
   38.0400   74.1660   58.8340 C   0  0  0  0  0  0  0  0  0  0  0  0
   38.3850   74.3060   60.1390 C   0  0  0  0  0  0  0  0  0  0  0  0
   39.0800   75.4700   60.5350 C   0  0  0  0  0  0  0  0  0  0  0  0
   39.2600   76.4280   58.9680 S   0  0  0  0  0  0  0  0  0  0  0  0
   37.5100   73.2950   58.4960 H   0  0  0  0  0  0  0  0  0  0  0  0
   38.1820   73.6090   60.9380 H   0  0  0  0  0  0  0  0  0  0  0  0
   39.5450   75.8840   61.7250 O   0  0  0  0  0  0  0  0  0  0  0  0
   39.0500   76.3530   62.4510 H   0  0  0  0  0  0  0  0  0  0  0  0
  1  6  1  0  0  0  0
  2  3  1  0  0  0  0
  2  1  2  0  0  0  0
  3  4  2  0  0  0  0
  4  5  1  0  0  0  0
  5 10  1  0  0  0  0
  6  5  2  0  0  0  0
  7  1  1  0  0  0  0
  8  2  1  0  0  0  0
  9  3  1  0  0  0  0
 10 11  2  0  0  0  0
 10 14  1  0  0  0  0
 11 12  1  0  0  0  0
 12 13  2  0  0  0  0
 12 16  1  0  0  0  0
 13 17  1  0  0  0  0
 14 13  1  0  0  0  0
 15 11  1  0  0  0  0
 17 18  1  0  0  0  0
M  END
>  <minimizedAffinity>
-3.95546079

$$$$

 OpenBabel03212520533D

 18 19  0  0  0  0  0  0  0  0999 V2000
   40.5700   75.8280   56.7700 C   0  0  0  0  0  0  0  0  0  0  0  0
   39.6880   76.9230   56.9630 C   0  0  0  0  0  0  0  0  0  0  0  0
   39.1070   77.0970   58.2340 C   0  0  0  0  0  0  0  0  0  0  0  0
   39.4400   76.1920   59.1870 N   0  0  0  0  0  0  0  0  0  0  0  0
   40.2780   75.1640   58.9740 C   0  0  0  0  0  0  0  0  0  0  0  0
   40.8410   74.9760   57.7830 N   0  0  0  0  0  0  0  0  0  0  0  0
   41.0480   75.6380   55.8200 H   0  0  0  0  0  0  0  0  0  0  0  0
   39.4830   77.5850   56.1580 H   0  0  0  0  0  0  0  0  0  0  0  0
   38.4300   77.9190   58.4250 H   0  0  0  0  0  0  0  0  0  0  0  0
   40.6160   74.2040   60.0410 C   0  0  0  0  0  0  0  0  0  0  0  0
   41.9280   73.7630   60.3200 C   0  0  0  0  0  0  0  0  0  0  0  0
   42.1060   72.8740   61.3290 C   0  0  0  0  0  0  0  0  0  0  0  0
   40.9760   72.4310   62.0500 C   0  0  0  0  0  0  0  0  0  0  0  0
   39.5710   73.3260   61.2560 S   0  0  0  0  0  0  0  0  0  0  0  0
   42.7640   74.1220   59.7490 H   0  0  0  0  0  0  0  0  0  0  0  0
   43.0440   72.4490   61.6570 H   0  0  0  0  0  0  0  0  0  0  0  0
   40.8360   71.5750   63.0760 O   0  0  0  0  0  0  0  0  0  0  0  0
   40.7740   70.5820   63.0460 H   0  0  0  0  0  0  0  0  0  0  0  0
  1  2  2  0  0  0  0
  1  6  1  0  0  0  0
  2  3  1  0  0  0  0
  3  9  1  0  0  0  0
  3  4  2  0  0  0  0
  5  4  1  0  0  0  0
  5 10  1  0  0  0  0
  6  5  2  0  0  0  0
  7  1  1  0  0  0  0
  8  2  1  0  0  0  0
 10 11  2  0  0  0  0
 10 14  1  0  0  0  0
 11 12  1  0  0  0  0
 12 16  1  0  0  0  0
 12 13  2  0  0  0  0
 13 17  1  0  0  0  0
 14 13  1  0  0  0  0
 15 11  1  0  0  0  0
 18 17  1  0  0  0  0
M  END
>  <minimizedAffinity>
-3.92597818

$$$$

 OpenBabel03212520533D

 18 19  0  0  0  0  0  0  0  0999 V2000
   41.5240   66.2740   61.2870 C   0  0  0  0  0  0  0  0  0  0  0  0
   40.8570   65.8070   62.4500 C   0  0  0  0  0  0  0  0  0  0  0  0
   40.5960   66.7250   63.4850 C   0  0  0  0  0  0  0  0  0  0  0  0
   41.0070   68.0020   63.2880 N   0  0  0  0  0  0  0  0  0  0  0  0
   41.6380   68.4150   62.1760 C   0  0  0  0  0  0  0  0  0  0  0  0
   41.8970   67.5690   61.1820 N   0  0  0  0  0  0  0  0  0  0  0  0
   41.7540   65.6220   60.4580 H   0  0  0  0  0  0  0  0  0  0  0  0
   40.5690   64.7870   62.5200 H   0  0  0  0  0  0  0  0  0  0  0  0
   40.0890   66.4110   64.3880 H   0  0  0  0  0  0  0  0  0  0  0  0
   42.0660   69.8160   62.0010 C   0  0  0  0  0  0  0  0  0  0  0  0
   41.6970   70.8670   62.8670 C   0  0  0  0  0  0  0  0  0  0  0  0
   42.1560   72.1150   62.5950 C   0  0  0  0  0  0  0  0  0  0  0  0
   42.9760   72.3030   61.4610 C   0  0  0  0  0  0  0  0  0  0  0  0
   43.1120   70.6130   60.7320 S   0  0  0  0  0  0  0  0  0  0  0  0
   41.0700   70.6860   63.7200 H   0  0  0  0  0  0  0  0  0  0  0  0
   41.9590   73.0130   63.1620 H   0  0  0  0  0  0  0  0  0  0  0  0
   43.5690   73.3930   60.9450 O   0  0  0  0  0  0  0  0  0  0  0  0
   43.1740   74.0810   60.3420 H   0  0  0  0  0  0  0  0  0  0  0  0
  1  2  1  0  0  0  0
  2  8  1  0  0  0  0
  2  3  2  0  0  0  0
  3  9  1  0  0  0  0
  4  3  1  0  0  0  0
  5  4  2  0  0  0  0
  6  1  2  0  0  0  0
  6  5  1  0  0  0  0
  7  1  1  0  0  0  0
 10  5  1  0  0  0  0
 10 11  2  0  0  0  0
 11 15  1  0  0  0  0
 12 11  1  0  0  0  0
 12 16  1  0  0  0  0
 13 12  2  0  0  0  0
 14 13  1  0  0  0  0
 14 10  1  0  0  0  0
 17 13  1  0  0  0  0
 18 17  1  0  0  0  0
M  END
>  <minimizedAffinity>
-3.87992764

$$$$

 OpenBabel03212520533D

 18 19  0  0  0  0  0  0  0  0999 V2000
   42.9270   72.8270   60.3470 C   0  0  0  0  0  0  0  0  0  0  0  0
   42.6460   72.4050   61.6730 C   0  0  0  0  0  0  0  0  0  0  0  0
   41.3730   72.6810   62.2060 C   0  0  0  0  0  0  0  0  0  0  0  0
   40.5020   73.3370   61.4020 N   0  0  0  0  0  0  0  0  0  0  0  0
   40.7970   73.7260   60.1490 C   0  0  0  0  0  0  0  0  0  0  0  0
   41.9920   73.4780   59.6200 N   0  0  0  0  0  0  0  0  0  0  0  0
   43.8830   72.6460   59.8780 H   0  0  0  0  0  0  0  0  0  0  0  0
   43.3900   71.8940   62.2330 H   0  0  0  0  0  0  0  0  0  0  0  0
   41.1170   72.3760   63.2120 H   0  0  0  0  0  0  0  0  0  0  0  0
   39.8170   74.4360   59.3060 C   0  0  0  0  0  0  0  0  0  0  0  0
   39.8080   75.8340   59.1130 C   0  0  0  0  0  0  0  0  0  0  0  0
   38.8500   76.3660   58.3130 C   0  0  0  0  0  0  0  0  0  0  0  0
   37.9090   75.5010   57.7140 C   0  0  0  0  0  0  0  0  0  0  0  0
   38.4060   73.8280   58.3150 S   0  0  0  0  0  0  0  0  0  0  0  0
   40.5400   76.4610   59.5870 H   0  0  0  0  0  0  0  0  0  0  0  0
   38.7170   77.4110   58.0740 H   0  0  0  0  0  0  0  0  0  0  0  0
   36.8690   75.7250   56.8940 O   0  0  0  0  0  0  0  0  0  0  0  0
   35.9420   76.0000   57.1340 H   0  0  0  0  0  0  0  0  0  0  0  0
  1  2  1  0  0  0  0
  2  3  2  0  0  0  0
  2  8  1  0  0  0  0
  3  9  1  0  0  0  0
  4  3  1  0  0  0  0
  5  4  2  0  0  0  0
  6  5  1  0  0  0  0
  6  1  2  0  0  0  0
  7  1  1  0  0  0  0
 10  5  1  0  0  0  0
 11 10  2  0  0  0  0
 11 15  1  0  0  0  0
 12 11  1  0  0  0  0
 13 12  2  0  0  0  0
 13 14  1  0  0  0  0
 14 10  1  0  0  0  0
 16 12  1  0  0  0  0
 17 18  1  0  0  0  0
 17 13  1  0  0  0  0
M  END
>  <minimizedAffinity>
-3.82186484

$$$$
