
 OpenBabel03212521083D

 29 31  0  0  0  0  0  0  0  0999 V2000
   41.2560   72.2300   61.1960 C   0  0  0  0  0  0  0  0  0  0  0  0
   41.7440   71.9740   62.4710 C   0  0  0  0  0  0  0  0  0  0  0  0
   42.4640   70.8110   62.7500 C   0  0  0  0  0  0  0  0  0  0  0  0
   42.6900   69.9010   61.7230 C   0  0  0  0  0  0  0  0  0  0  0  0
   42.1950   70.1670   60.4450 C   0  0  0  0  0  0  0  0  0  0  0  0
   41.4900   71.3130   60.1890 C   0  0  0  0  0  0  0  0  0  0  0  0
   41.5640   72.6910   63.2730 H   0  0  0  0  0  0  0  0  0  0  0  0
   42.8530   70.5920   63.7360 H   0  0  0  0  0  0  0  0  0  0  0  0
   43.2450   68.9720   61.8690 H   0  0  0  0  0  0  0  0  0  0  0  0
   42.3760   69.4520   59.6480 H   0  0  0  0  0  0  0  0  0  0  0  0
   38.5400   74.6780   61.1340 C   0  0  0  0  0  0  0  0  0  0  0  0
   39.1250   75.7750   60.5110 C   0  0  0  0  0  0  0  0  0  0  0  0
   40.4670   75.6790   60.1040 C   0  0  0  0  0  0  0  0  0  0  0  0
   41.1190   74.5150   60.3450 N   0  0  0  0  0  0  0  0  0  0  0  0
   40.5120   73.4570   60.9610 C   0  0  0  0  0  0  0  0  0  0  0  0
   39.2480   73.5530   61.3410 N   0  0  0  0  0  0  0  0  0  0  0  0
   37.5070   74.7750   61.4380 H   0  0  0  0  0  0  0  0  0  0  0  0
   38.6230   76.7170   60.3080 H   0  0  0  0  0  0  0  0  0  0  0  0
   40.9350   76.5130   59.6230 H   0  0  0  0  0  0  0  0  0  0  0  0
   40.9990   71.5440   58.8490 C   0  0  0  0  0  0  0  0  0  0  0  0
   42.0180   71.9820   57.9930 C   0  0  0  0  0  0  0  0  0  0  0  0
   41.7440   72.2600   56.6560 C   0  0  0  0  0  0  0  0  0  0  0  0
   40.4830   72.0910   56.2330 N   0  0  0  0  0  0  0  0  0  0  0  0
   39.4930   71.6640   57.0670 C   0  0  0  0  0  0  0  0  0  0  0  0
   39.7530   71.3970   58.3530 N   0  0  0  0  0  0  0  0  0  0  0  0
   43.0520   72.1380   58.2690 H   0  0  0  0  0  0  0  0  0  0  0  0
   42.5050   72.6010   55.9620 H   0  0  0  0  0  0  0  0  0  0  0  0
   38.1930   71.4970   56.6070 O   0  0  0  0  0  0  0  0  0  0  0  0
   37.3830   71.8580   57.0680 H   0  0  0  0  0  0  0  0  0  0  0  0
  1  2  1  0  0  0  0
  2  3  2  0  0  0  0
  2  7  1  0  0  0  0
  3  8  1  0  0  0  0
  4  9  1  0  0  0  0
  4  3  1  0  0  0  0
  5  4  2  0  0  0  0
  6  5  1  0  0  0  0
  6  1  2  0  0  0  0
 10  5  1  0  0  0  0
 11 16  1  0  0  0  0
 11 17  1  0  0  0  0
 12 11  2  0  0  0  0
 13 14  2  0  0  0  0
 13 12  1  0  0  0  0
 14 15  1  0  0  0  0
 15  1  1  0  0  0  0
 15 16  2  0  0  0  0
 18 12  1  0  0  0  0
 19 13  1  0  0  0  0
 20  6  1  0  0  0  0
 21 26  1  0  0  0  0
 21 20  2  0  0  0  0
 22 21  1  0  0  0  0
 23 22  2  0  0  0  0
 23 24  1  0  0  0  0
 24 25  2  0  0  0  0
 25 20  1  0  0  0  0
 27 22  1  0  0  0  0
 28 24  1  0  0  0  0
 28 29  1  0  0  0  0
M  END
>  <minimizedAffinity>
-5.63199806

$$$$

 OpenBabel03212521083D

 29 31  0  0  0  0  0  0  0  0999 V2000
   42.1220   72.7980   59.8740 C   0  0  0  0  0  0  0  0  0  0  0  0
   43.0880   72.6730   60.8630 C   0  0  0  0  0  0  0  0  0  0  0  0
   42.7350   72.5150   62.2050 C   0  0  0  0  0  0  0  0  0  0  0  0
   41.3860   72.4840   62.5420 C   0  0  0  0  0  0  0  0  0  0  0  0
   40.4220   72.6100   61.5400 C   0  0  0  0  0  0  0  0  0  0  0  0
   40.7870   72.7640   60.2300 C   0  0  0  0  0  0  0  0  0  0  0  0
   44.1450   72.6980   60.5940 H   0  0  0  0  0  0  0  0  0  0  0  0
   43.4720   72.4160   62.9910 H   0  0  0  0  0  0  0  0  0  0  0  0
   41.0370   72.3630   63.5700 H   0  0  0  0  0  0  0  0  0  0  0  0
   39.3700   72.5840   61.8120 H   0  0  0  0  0  0  0  0  0  0  0  0
   43.0280   74.3430   56.6860 C   0  0  0  0  0  0  0  0  0  0  0  0
   43.3470   73.2480   55.8900 C   0  0  0  0  0  0  0  0  0  0  0  0
   43.2510   71.9620   56.4480 C   0  0  0  0  0  0  0  0  0  0  0  0
   42.8510   71.8610   57.7400 N   0  0  0  0  0  0  0  0  0  0  0  0
   42.5460   72.9600   58.4920 C   0  0  0  0  0  0  0  0  0  0  0  0
   42.6380   74.1680   57.9620 N   0  0  0  0  0  0  0  0  0  0  0  0
   43.1100   75.3220   56.2350 H   0  0  0  0  0  0  0  0  0  0  0  0
   43.6690   73.3040   54.8530 H   0  0  0  0  0  0  0  0  0  0  0  0
   43.4920   71.1070   55.8510 H   0  0  0  0  0  0  0  0  0  0  0  0
   39.7510   72.8900   59.2290 C   0  0  0  0  0  0  0  0  0  0  0  0
   39.0550   74.0990   59.3540 C   0  0  0  0  0  0  0  0  0  0  0  0
   38.0160   74.4080   58.4790 C   0  0  0  0  0  0  0  0  0  0  0  0
   37.7180   73.5100   57.5290 N   0  0  0  0  0  0  0  0  0  0  0  0
   38.3960   72.3340   57.4090 C   0  0  0  0  0  0  0  0  0  0  0  0
   39.3950   72.0340   58.2480 N   0  0  0  0  0  0  0  0  0  0  0  0
   39.2440   74.8630   60.0950 H   0  0  0  0  0  0  0  0  0  0  0  0
   37.4530   75.3330   58.5430 H   0  0  0  0  0  0  0  0  0  0  0  0
   38.0700   71.4190   56.4160 O   0  0  0  0  0  0  0  0  0  0  0  0
   37.9270   70.4430   56.5770 H   0  0  0  0  0  0  0  0  0  0  0  0
  1  6  2  0  0  0  0
  1  2  1  0  0  0  0
  2  3  2  0  0  0  0
  3  4  1  0  0  0  0
  3  8  1  0  0  0  0
  4  9  1  0  0  0  0
  5 10  1  0  0  0  0
  5  4  2  0  0  0  0
  6  5  1  0  0  0  0
  7  2  1  0  0  0  0
 11 16  1  0  0  0  0
 12 13  1  0  0  0  0
 12 11  2  0  0  0  0
 13 14  2  0  0  0  0
 14 15  1  0  0  0  0
 15  1  1  0  0  0  0
 16 15  2  0  0  0  0
 17 11  1  0  0  0  0
 18 12  1  0  0  0  0
 19 13  1  0  0  0  0
 20 21  1  0  0  0  0
 20  6  1  0  0  0  0
 21 26  1  0  0  0  0
 22 27  1  0  0  0  0
 22 21  2  0  0  0  0
 23 22  1  0  0  0  0
 24 23  2  0  0  0  0
 24 25  1  0  0  0  0
 25 20  2  0  0  0  0
 28 29  1  0  0  0  0
 28 24  1  0  0  0  0
M  END
>  <minimizedAffinity>
-5.17197561

$$$$

 OpenBabel03212521083D

 29 31  0  0  0  0  0  0  0  0999 V2000
   40.0740   74.7210   58.4730 C   0  0  0  0  0  0  0  0  0  0  0  0
   39.4610   75.7050   57.7090 C   0  0  0  0  0  0  0  0  0  0  0  0
   39.2620   76.9930   58.2110 C   0  0  0  0  0  0  0  0  0  0  0  0
   39.6920   77.2810   59.5010 C   0  0  0  0  0  0  0  0  0  0  0  0
   40.3070   76.2860   60.2620 C   0  0  0  0  0  0  0  0  0  0  0  0
   40.4940   75.0280   59.7540 C   0  0  0  0  0  0  0  0  0  0  0  0
   39.1260   75.4730   56.6970 H   0  0  0  0  0  0  0  0  0  0  0  0
   38.7870   77.7730   57.6320 H   0  0  0  0  0  0  0  0  0  0  0  0
   39.5690   78.2670   59.9570 H   0  0  0  0  0  0  0  0  0  0  0  0
   40.6410   76.5200   61.2690 H   0  0  0  0  0  0  0  0  0  0  0  0
   41.4020   71.9610   56.4760 C   0  0  0  0  0  0  0  0  0  0  0  0
   40.5830   70.8960   56.8350 C   0  0  0  0  0  0  0  0  0  0  0  0
   39.5610   71.1220   57.7730 C   0  0  0  0  0  0  0  0  0  0  0  0
   39.4310   72.3740   58.2780 N   0  0  0  0  0  0  0  0  0  0  0  0
   40.2560   73.3960   57.9020 C   0  0  0  0  0  0  0  0  0  0  0  0
   41.2160   73.1790   57.0180 N   0  0  0  0  0  0  0  0  0  0  0  0
   42.1820   71.7630   55.7530 H   0  0  0  0  0  0  0  0  0  0  0  0
   40.6680   69.8850   56.4440 H   0  0  0  0  0  0  0  0  0  0  0  0
   38.9200   70.3150   58.0620 H   0  0  0  0  0  0  0  0  0  0  0  0
   41.1370   74.0320   60.5810 C   0  0  0  0  0  0  0  0  0  0  0  0
   42.5070   73.9350   60.3030 C   0  0  0  0  0  0  0  0  0  0  0  0
   43.3040   73.0280   60.9980 C   0  0  0  0  0  0  0  0  0  0  0  0
   42.7110   72.2660   61.9280 N   0  0  0  0  0  0  0  0  0  0  0  0
   41.3780   72.3620   62.1970 C   0  0  0  0  0  0  0  0  0  0  0  0
   40.6090   73.2320   61.5310 N   0  0  0  0  0  0  0  0  0  0  0  0
   43.0450   74.5170   59.5690 H   0  0  0  0  0  0  0  0  0  0  0  0
   44.3670   72.9230   60.8120 H   0  0  0  0  0  0  0  0  0  0  0  0
   40.7840   71.5620   63.1660 O   0  0  0  0  0  0  0  0  0  0  0  0
   39.9440   71.0400   63.0250 H   0  0  0  0  0  0  0  0  0  0  0  0
  1  6  1  0  0  0  0
  2  3  1  0  0  0  0
  2  1  2  0  0  0  0
  3  4  2  0  0  0  0
  4  9  1  0  0  0  0
  4  5  1  0  0  0  0
  5 10  1  0  0  0  0
  6  5  2  0  0  0  0
  6 20  1  0  0  0  0
  7  2  1  0  0  0  0
  8  3  1  0  0  0  0
 11 12  2  0  0  0  0
 11 16  1  0  0  0  0
 12 13  1  0  0  0  0
 13 19  1  0  0  0  0
 13 14  2  0  0  0  0
 15 14  1  0  0  0  0
 15  1  1  0  0  0  0
 16 15  2  0  0  0  0
 17 11  1  0  0  0  0
 18 12  1  0  0  0  0
 20 25  1  0  0  0  0
 21 20  2  0  0  0  0
 21 22  1  0  0  0  0
 22 23  2  0  0  0  0
 23 24  1  0  0  0  0
 24 28  1  0  0  0  0
 25 24  2  0  0  0  0
 26 21  1  0  0  0  0
 27 22  1  0  0  0  0
 29 28  1  0  0  0  0
M  END
>  <minimizedAffinity>
-5.1517086

$$$$

 OpenBabel03212521083D

 29 31  0  0  0  0  0  0  0  0999 V2000
   42.2560   74.1590   59.1540 C   0  0  0  0  0  0  0  0  0  0  0  0
   43.4520   74.3180   59.8400 C   0  0  0  0  0  0  0  0  0  0  0  0
   44.6820   74.1740   59.1940 C   0  0  0  0  0  0  0  0  0  0  0  0
   44.6930   73.8650   57.8390 C   0  0  0  0  0  0  0  0  0  0  0  0
   43.4850   73.7060   57.1580 C   0  0  0  0  0  0  0  0  0  0  0  0
   42.2880   73.8520   57.8060 C   0  0  0  0  0  0  0  0  0  0  0  0
   43.4380   74.5610   60.9040 H   0  0  0  0  0  0  0  0  0  0  0  0
   45.6250   74.2930   59.7100 H   0  0  0  0  0  0  0  0  0  0  0  0
   45.6170   73.7370   57.2700 H   0  0  0  0  0  0  0  0  0  0  0  0
   43.5020   73.4660   56.0980 H   0  0  0  0  0  0  0  0  0  0  0  0
   39.2760   73.4060   61.1350 C   0  0  0  0  0  0  0  0  0  0  0  0
   38.6470   74.6430   61.2310 C   0  0  0  0  0  0  0  0  0  0  0  0
   39.2470   75.7520   60.6110 C   0  0  0  0  0  0  0  0  0  0  0  0
   40.4140   75.5520   59.9490 N   0  0  0  0  0  0  0  0  0  0  0  0
   41.0030   74.3210   59.8760 C   0  0  0  0  0  0  0  0  0  0  0  0
   40.4340   73.2810   60.4610 N   0  0  0  0  0  0  0  0  0  0  0  0
   38.7940   72.5680   61.6200 H   0  0  0  0  0  0  0  0  0  0  0  0
   37.7120   74.8270   61.7550 H   0  0  0  0  0  0  0  0  0  0  0  0
   38.7780   76.7120   60.6740 H   0  0  0  0  0  0  0  0  0  0  0  0
   41.0640   73.6790   57.0570 C   0  0  0  0  0  0  0  0  0  0  0  0
   40.7540   74.8180   56.3020 C   0  0  0  0  0  0  0  0  0  0  0  0
   39.6090   74.8480   55.5100 C   0  0  0  0  0  0  0  0  0  0  0  0
   38.8310   73.7560   55.5020 N   0  0  0  0  0  0  0  0  0  0  0  0
   39.1340   72.6490   56.2370 C   0  0  0  0  0  0  0  0  0  0  0  0
   40.2340   72.6170   57.0000 N   0  0  0  0  0  0  0  0  0  0  0  0
   41.3370   75.7280   56.2630 H   0  0  0  0  0  0  0  0  0  0  0  0
   39.3350   75.7100   54.9120 H   0  0  0  0  0  0  0  0  0  0  0  0
   38.3130   71.5290   56.2140 O   0  0  0  0  0  0  0  0  0  0  0  0
   37.9920   71.0510   57.0310 H   0  0  0  0  0  0  0  0  0  0  0  0
  1  2  1  0  0  0  0
  1 15  1  0  0  0  0
  2  7  1  0  0  0  0
  3  8  1  0  0  0  0
  3  2  2  0  0  0  0
  4  3  1  0  0  0  0
  5  6  1  0  0  0  0
  5  4  2  0  0  0  0
  6  1  2  0  0  0  0
  9  4  1  0  0  0  0
 10  5  1  0  0  0  0
 11 12  1  0  0  0  0
 11 17  1  0  0  0  0
 12 18  1  0  0  0  0
 13 19  1  0  0  0  0
 13 12  2  0  0  0  0
 14 13  1  0  0  0  0
 15 14  2  0  0  0  0
 15 16  1  0  0  0  0
 16 11  2  0  0  0  0
 20  6  1  0  0  0  0
 21 20  2  0  0  0  0
 22 21  1  0  0  0  0
 23 22  2  0  0  0  0
 23 24  1  0  0  0  0
 24 25  2  0  0  0  0
 25 20  1  0  0  0  0
 26 21  1  0  0  0  0
 27 22  1  0  0  0  0
 28 24  1  0  0  0  0
 28 29  1  0  0  0  0
M  END
>  <minimizedAffinity>
-5.14041471

$$$$

 OpenBabel03212521083D

 29 31  0  0  0  0  0  0  0  0999 V2000
   39.3010   75.5570   58.7330 C   0  0  0  0  0  0  0  0  0  0  0  0
   39.1450   76.2830   59.9060 C   0  0  0  0  0  0  0  0  0  0  0  0
   39.6250   75.8010   61.1250 C   0  0  0  0  0  0  0  0  0  0  0  0
   40.2700   74.5690   61.1500 C   0  0  0  0  0  0  0  0  0  0  0  0
   40.4220   73.8470   59.9660 C   0  0  0  0  0  0  0  0  0  0  0  0
   39.9450   74.3340   58.7780 C   0  0  0  0  0  0  0  0  0  0  0  0
   38.6380   77.2480   59.8810 H   0  0  0  0  0  0  0  0  0  0  0  0
   39.5130   76.3500   62.0500 H   0  0  0  0  0  0  0  0  0  0  0  0
   40.6700   74.1310   62.0670 H   0  0  0  0  0  0  0  0  0  0  0  0
   40.9280   72.8850   59.9930 H   0  0  0  0  0  0  0  0  0  0  0  0
   37.0260   76.3730   55.9890 C   0  0  0  0  0  0  0  0  0  0  0  0
   37.8190   77.1480   55.1480 C   0  0  0  0  0  0  0  0  0  0  0  0
   39.1510   77.3950   55.5220 C   0  0  0  0  0  0  0  0  0  0  0  0
   39.5900   76.8620   56.6890 N   0  0  0  0  0  0  0  0  0  0  0  0
   38.7820   76.1060   57.4900 C   0  0  0  0  0  0  0  0  0  0  0  0
   37.5290   75.8750   57.1330 N   0  0  0  0  0  0  0  0  0  0  0  0
   36.0050   76.1960   55.6800 H   0  0  0  0  0  0  0  0  0  0  0  0
   37.4890   77.5850   54.2090 H   0  0  0  0  0  0  0  0  0  0  0  0
   39.7770   77.9890   54.8890 H   0  0  0  0  0  0  0  0  0  0  0  0
   40.1290   73.5490   57.5780 C   0  0  0  0  0  0  0  0  0  0  0  0
   41.3740   73.7930   56.9860 C   0  0  0  0  0  0  0  0  0  0  0  0
   41.7400   73.1300   55.8160 C   0  0  0  0  0  0  0  0  0  0  0  0
   40.8610   72.2630   55.2940 N   0  0  0  0  0  0  0  0  0  0  0  0
   39.6490   72.0270   55.8720 C   0  0  0  0  0  0  0  0  0  0  0  0
   39.2950   72.6620   56.9960 N   0  0  0  0  0  0  0  0  0  0  0  0
   42.1260   74.4760   57.3540 H   0  0  0  0  0  0  0  0  0  0  0  0
   42.6940   73.2910   55.3270 H   0  0  0  0  0  0  0  0  0  0  0  0
   38.7540   71.1240   55.3130 O   0  0  0  0  0  0  0  0  0  0  0  0
   37.7870   71.3190   55.1520 H   0  0  0  0  0  0  0  0  0  0  0  0
  1  6  2  0  0  0  0
  1  2  1  0  0  0  0
  2  3  2  0  0  0  0
  3  4  1  0  0  0  0
  3  8  1  0  0  0  0
  4  9  1  0  0  0  0
  5 10  1  0  0  0  0
  5  4  2  0  0  0  0
  6  5  1  0  0  0  0
  7  2  1  0  0  0  0
 11 16  1  0  0  0  0
 12 13  1  0  0  0  0
 12 11  2  0  0  0  0
 13 14  2  0  0  0  0
 14 15  1  0  0  0  0
 15  1  1  0  0  0  0
 16 15  2  0  0  0  0
 17 11  1  0  0  0  0
 18 12  1  0  0  0  0
 19 13  1  0  0  0  0
 20  6  1  0  0  0  0
 21 26  1  0  0  0  0
 21 20  2  0  0  0  0
 22 21  1  0  0  0  0
 23 22  2  0  0  0  0
 23 24  1  0  0  0  0
 24 25  2  0  0  0  0
 25 20  1  0  0  0  0
 27 22  1  0  0  0  0
 28 24  1  0  0  0  0
 29 28  1  0  0  0  0
M  END
>  <minimizedAffinity>
-5.1258111

$$$$

 OpenBabel03212521083D

 29 31  0  0  0  0  0  0  0  0999 V2000
   39.4610   74.0980   58.7370 C   0  0  0  0  0  0  0  0  0  0  0  0
   38.2350   73.9520   58.1020 C   0  0  0  0  0  0  0  0  0  0  0  0
   37.9210   72.7920   57.3910 C   0  0  0  0  0  0  0  0  0  0  0  0
   38.8650   71.7730   57.3250 C   0  0  0  0  0  0  0  0  0  0  0  0
   40.0950   71.9290   57.9650 C   0  0  0  0  0  0  0  0  0  0  0  0
   40.3860   73.0740   58.6590 C   0  0  0  0  0  0  0  0  0  0  0  0
   37.4980   74.7540   58.1570 H   0  0  0  0  0  0  0  0  0  0  0  0
   36.9720   72.6580   56.8890 H   0  0  0  0  0  0  0  0  0  0  0  0
   38.6880   70.8390   56.7860 H   0  0  0  0  0  0  0  0  0  0  0  0
   40.8270   71.1280   57.9090 H   0  0  0  0  0  0  0  0  0  0  0  0
   40.6110   77.4810   59.5150 C   0  0  0  0  0  0  0  0  0  0  0  0
   40.2430   77.6350   60.8470 C   0  0  0  0  0  0  0  0  0  0  0  0
   39.5930   76.5690   61.4910 C   0  0  0  0  0  0  0  0  0  0  0  0
   39.3590   75.4430   60.7730 N   0  0  0  0  0  0  0  0  0  0  0  0
   39.7350   75.3280   59.4640 C   0  0  0  0  0  0  0  0  0  0  0  0
   40.3470   76.3340   58.8620 N   0  0  0  0  0  0  0  0  0  0  0  0
   41.1100   78.3160   59.0410 H   0  0  0  0  0  0  0  0  0  0  0  0
   40.4190   78.5270   61.4430 H   0  0  0  0  0  0  0  0  0  0  0  0
   39.3010   76.6680   62.5170 H   0  0  0  0  0  0  0  0  0  0  0  0
   41.6740   73.1880   59.3060 C   0  0  0  0  0  0  0  0  0  0  0  0
   41.6710   72.5870   60.5720 C   0  0  0  0  0  0  0  0  0  0  0  0
   42.8230   72.5920   61.3560 C   0  0  0  0  0  0  0  0  0  0  0  0
   43.9130   73.1870   60.8520 N   0  0  0  0  0  0  0  0  0  0  0  0
   43.9140   73.7720   59.6210 C   0  0  0  0  0  0  0  0  0  0  0  0
   42.8080   73.7690   58.8650 N   0  0  0  0  0  0  0  0  0  0  0  0
   40.8290   72.0920   61.0340 H   0  0  0  0  0  0  0  0  0  0  0  0
   42.8620   72.1380   62.3400 H   0  0  0  0  0  0  0  0  0  0  0  0
   45.0560   74.3830   59.1190 O   0  0  0  0  0  0  0  0  0  0  0  0
   45.0720   75.2960   58.7150 H   0  0  0  0  0  0  0  0  0  0  0  0
  1 15  1  0  0  0  0
  2  7  1  0  0  0  0
  2  1  2  0  0  0  0
  3  2  1  0  0  0  0
  4  3  2  0  0  0  0
  4  5  1  0  0  0  0
  5  6  2  0  0  0  0
  6  1  1  0  0  0  0
  6 20  1  0  0  0  0
  8  3  1  0  0  0  0
  9  4  1  0  0  0  0
 10  5  1  0  0  0  0
 11 12  1  0  0  0  0
 12 18  1  0  0  0  0
 12 13  2  0  0  0  0
 13 19  1  0  0  0  0
 14 13  1  0  0  0  0
 15 14  2  0  0  0  0
 16 15  1  0  0  0  0
 16 11  2  0  0  0  0
 17 11  1  0  0  0  0
 20 21  1  0  0  0  0
 21 26  1  0  0  0  0
 21 22  2  0  0  0  0
 22 27  1  0  0  0  0
 23 22  1  0  0  0  0
 24 23  2  0  0  0  0
 25 20  2  0  0  0  0
 25 24  1  0  0  0  0
 28 24  1  0  0  0  0
 29 28  1  0  0  0  0
M  END
>  <minimizedAffinity>
-5.10483313

$$$$

 OpenBabel03212521083D

 29 31  0  0  0  0  0  0  0  0999 V2000
   41.3360   71.8530   59.9450 C   0  0  0  0  0  0  0  0  0  0  0  0
   41.7650   70.5910   60.3360 C   0  0  0  0  0  0  0  0  0  0  0  0
   42.3410   70.3780   61.5900 C   0  0  0  0  0  0  0  0  0  0  0  0
   42.4820   71.4580   62.4530 C   0  0  0  0  0  0  0  0  0  0  0  0
   42.0480   72.7230   62.0520 C   0  0  0  0  0  0  0  0  0  0  0  0
   41.4850   72.9140   60.8180 C   0  0  0  0  0  0  0  0  0  0  0  0
   41.6520   69.7470   59.6540 H   0  0  0  0  0  0  0  0  0  0  0  0
   42.6820   69.4030   61.9130 H   0  0  0  0  0  0  0  0  0  0  0  0
   42.9230   71.3650   63.4480 H   0  0  0  0  0  0  0  0  0  0  0  0
   42.1600   73.5620   62.7330 H   0  0  0  0  0  0  0  0  0  0  0  0
   40.9830   72.4340   56.3520 C   0  0  0  0  0  0  0  0  0  0  0  0
   39.6110   72.3260   56.1540 C   0  0  0  0  0  0  0  0  0  0  0  0
   38.7910   72.0520   57.2630 C   0  0  0  0  0  0  0  0  0  0  0  0
   39.3900   71.9060   58.4710 N   0  0  0  0  0  0  0  0  0  0  0  0
   40.7430   72.0180   58.6280 C   0  0  0  0  0  0  0  0  0  0  0  0
   41.5090   72.2770   57.5810 N   0  0  0  0  0  0  0  0  0  0  0  0
   41.5920   72.6450   55.4840 H   0  0  0  0  0  0  0  0  0  0  0  0
   39.1080   72.4390   55.1960 H   0  0  0  0  0  0  0  0  0  0  0  0
   37.7330   71.9660   57.1310 H   0  0  0  0  0  0  0  0  0  0  0  0
   41.0500   74.2430   60.4490 C   0  0  0  0  0  0  0  0  0  0  0  0
   39.8280   74.5730   61.0510 C   0  0  0  0  0  0  0  0  0  0  0  0
   39.2420   75.8150   60.8180 C   0  0  0  0  0  0  0  0  0  0  0  0
   39.8890   76.6640   60.0070 N   0  0  0  0  0  0  0  0  0  0  0  0
   41.0770   76.3410   59.4230 C   0  0  0  0  0  0  0  0  0  0  0  0
   41.6430   75.1480   59.6440 N   0  0  0  0  0  0  0  0  0  0  0  0
   39.2580   73.9370   61.7120 H   0  0  0  0  0  0  0  0  0  0  0  0
   38.2980   76.1080   61.2640 H   0  0  0  0  0  0  0  0  0  0  0  0
   41.7290   77.2370   58.5850 O   0  0  0  0  0  0  0  0  0  0  0  0
   42.0900   77.0020   57.6840 H   0  0  0  0  0  0  0  0  0  0  0  0
  1  2  2  0  0  0  0
  1  6  1  0  0  0  0
  2  3  1  0  0  0  0
  3  8  1  0  0  0  0
  3  4  2  0  0  0  0
  4  9  1  0  0  0  0
  5  4  1  0  0  0  0
  5 10  1  0  0  0  0
  6  5  2  0  0  0  0
  7  2  1  0  0  0  0
 11 16  1  0  0  0  0
 12 11  2  0  0  0  0
 12 13  1  0  0  0  0
 13 14  2  0  0  0  0
 14 15  1  0  0  0  0
 15  1  1  0  0  0  0
 16 15  2  0  0  0  0
 17 11  1  0  0  0  0
 18 12  1  0  0  0  0
 19 13  1  0  0  0  0
 20  6  1  0  0  0  0
 20 21  1  0  0  0  0
 21 26  1  0  0  0  0
 22 21  2  0  0  0  0
 22 27  1  0  0  0  0
 23 22  1  0  0  0  0
 24 25  1  0  0  0  0
 24 23  2  0  0  0  0
 25 20  2  0  0  0  0
 28 24  1  0  0  0  0
 29 28  1  0  0  0  0
M  END
>  <minimizedAffinity>
-5.07164812

$$$$

 OpenBabel03212521083D

 29 31  0  0  0  0  0  0  0  0999 V2000
   41.5250   73.0720   60.2970 C   0  0  0  0  0  0  0  0  0  0  0  0
   42.3480   72.6740   61.3420 C   0  0  0  0  0  0  0  0  0  0  0  0
   42.8500   71.3730   61.4130 C   0  0  0  0  0  0  0  0  0  0  0  0
   42.5120   70.4700   60.4110 C   0  0  0  0  0  0  0  0  0  0  0  0
   41.6840   70.8800   59.3640 C   0  0  0  0  0  0  0  0  0  0  0  0
   41.2000   72.1590   59.3100 C   0  0  0  0  0  0  0  0  0  0  0  0
   42.6100   73.3860   62.1250 H   0  0  0  0  0  0  0  0  0  0  0  0
   43.4930   71.0420   62.2180 H   0  0  0  0  0  0  0  0  0  0  0  0
   42.8690   69.4370   60.4020 H   0  0  0  0  0  0  0  0  0  0  0  0
   41.4250   70.1680   58.5850 H   0  0  0  0  0  0  0  0  0  0  0  0
   41.2300   76.6380   59.5440 C   0  0  0  0  0  0  0  0  0  0  0  0
   40.0820   77.0080   60.2380 C   0  0  0  0  0  0  0  0  0  0  0  0
   39.3980   76.0260   60.9750 C   0  0  0  0  0  0  0  0  0  0  0  0
   39.8980   74.7660   60.9670 N   0  0  0  0  0  0  0  0  0  0  0  0
   41.0290   74.4390   60.2730 C   0  0  0  0  0  0  0  0  0  0  0  0
   41.6690   75.3670   59.5810 N   0  0  0  0  0  0  0  0  0  0  0  0
   41.7390   77.4110   58.9850 H   0  0  0  0  0  0  0  0  0  0  0  0
   39.6630   78.0100   60.2590 H   0  0  0  0  0  0  0  0  0  0  0  0
   38.5130   76.2910   61.5150 H   0  0  0  0  0  0  0  0  0  0  0  0
   40.3470   72.5350   58.2060 C   0  0  0  0  0  0  0  0  0  0  0  0
   41.0810   72.7360   57.0300 C   0  0  0  0  0  0  0  0  0  0  0  0
   40.4370   73.1050   55.8510 C   0  0  0  0  0  0  0  0  0  0  0  0
   39.1050   73.2560   55.8930 N   0  0  0  0  0  0  0  0  0  0  0  0
   38.3920   73.0610   57.0380 C   0  0  0  0  0  0  0  0  0  0  0  0
   39.0090   72.7060   58.1730 N   0  0  0  0  0  0  0  0  0  0  0  0
   42.1520   72.6310   56.9280 H   0  0  0  0  0  0  0  0  0  0  0  0
   40.9690   73.2700   54.9210 H   0  0  0  0  0  0  0  0  0  0  0  0
   37.0130   73.2240   57.0590 O   0  0  0  0  0  0  0  0  0  0  0  0
   36.5210   73.7580   57.7450 H   0  0  0  0  0  0  0  0  0  0  0  0
  1  2  1  0  0  0  0
  2  3  2  0  0  0  0
  2  7  1  0  0  0  0
  3  8  1  0  0  0  0
  4  3  1  0  0  0  0
  5  4  2  0  0  0  0
  6  5  1  0  0  0  0
  6  1  2  0  0  0  0
  9  4  1  0  0  0  0
 10  5  1  0  0  0  0
 11 16  2  0  0  0  0
 11 12  1  0  0  0  0
 12 18  1  0  0  0  0
 12 13  2  0  0  0  0
 13 19  1  0  0  0  0
 14 13  1  0  0  0  0
 15  1  1  0  0  0  0
 15 14  2  0  0  0  0
 16 15  1  0  0  0  0
 17 11  1  0  0  0  0
 20  6  1  0  0  0  0
 21 20  2  0  0  0  0
 22 23  2  0  0  0  0
 22 21  1  0  0  0  0
 23 24  1  0  0  0  0
 24 28  1  0  0  0  0
 24 25  2  0  0  0  0
 25 20  1  0  0  0  0
 26 21  1  0  0  0  0
 27 22  1  0  0  0  0
 28 29  1  0  0  0  0
M  END
>  <minimizedAffinity>
-5.0709362

$$$$

 OpenBabel03212521083D

 29 31  0  0  0  0  0  0  0  0999 V2000
   41.7630   75.6500   58.6450 C   0  0  0  0  0  0  0  0  0  0  0  0
   42.0690   76.9400   59.0570 C   0  0  0  0  0  0  0  0  0  0  0  0
   41.2380   77.6350   59.9390 C   0  0  0  0  0  0  0  0  0  0  0  0
   40.0860   77.0110   60.4040 C   0  0  0  0  0  0  0  0  0  0  0  0
   39.7870   75.7140   59.9840 C   0  0  0  0  0  0  0  0  0  0  0  0
   40.6130   75.0470   59.1190 C   0  0  0  0  0  0  0  0  0  0  0  0
   42.9740   77.4250   58.6900 H   0  0  0  0  0  0  0  0  0  0  0  0
   41.4580   78.6400   60.2720 H   0  0  0  0  0  0  0  0  0  0  0  0
   39.3910   77.4940   61.0950 H   0  0  0  0  0  0  0  0  0  0  0  0
   38.8850   75.2320   60.3520 H   0  0  0  0  0  0  0  0  0  0  0  0
   43.0600   73.9970   55.6530 C   0  0  0  0  0  0  0  0  0  0  0  0
   44.3720   73.6990   56.0070 C   0  0  0  0  0  0  0  0  0  0  0  0
   44.8220   74.0670   57.2860 C   0  0  0  0  0  0  0  0  0  0  0  0
   43.9460   74.6960   58.1080 N   0  0  0  0  0  0  0  0  0  0  0  0
   42.6640   74.9730   57.7250 C   0  0  0  0  0  0  0  0  0  0  0  0
   42.2450   74.6240   56.5200 N   0  0  0  0  0  0  0  0  0  0  0  0
   42.7370   73.7040   54.6630 H   0  0  0  0  0  0  0  0  0  0  0  0
   45.0910   73.1960   55.3660 H   0  0  0  0  0  0  0  0  0  0  0  0
   45.8280   73.8460   57.5770 H   0  0  0  0  0  0  0  0  0  0  0  0
   40.2600   73.7050   58.7140 C   0  0  0  0  0  0  0  0  0  0  0  0
   41.0530   72.7450   59.3560 C   0  0  0  0  0  0  0  0  0  0  0  0
   40.8660   71.3890   59.0970 C   0  0  0  0  0  0  0  0  0  0  0  0
   39.9090   71.0510   58.2210 N   0  0  0  0  0  0  0  0  0  0  0  0
   39.1380   71.9860   57.5970 C   0  0  0  0  0  0  0  0  0  0  0  0
   39.3160   73.2900   57.8440 N   0  0  0  0  0  0  0  0  0  0  0  0
   41.8380   72.9500   60.0700 H   0  0  0  0  0  0  0  0  0  0  0  0
   41.4590   70.6160   59.5730 H   0  0  0  0  0  0  0  0  0  0  0  0
   38.1520   71.6130   56.6930 O   0  0  0  0  0  0  0  0  0  0  0  0
   38.0390   72.0180   55.7870 H   0  0  0  0  0  0  0  0  0  0  0  0
  1  2  2  0  0  0  0
  1  6  1  0  0  0  0
  2  3  1  0  0  0  0
  3  8  1  0  0  0  0
  3  4  2  0  0  0  0
  4  9  1  0  0  0  0
  5 10  1  0  0  0  0
  5  4  1  0  0  0  0
  6  5  2  0  0  0  0
  7  2  1  0  0  0  0
 11 12  2  0  0  0  0
 11 16  1  0  0  0  0
 12 13  1  0  0  0  0
 13 19  1  0  0  0  0
 13 14  2  0  0  0  0
 15 14  1  0  0  0  0
 15  1  1  0  0  0  0
 16 15  2  0  0  0  0
 17 11  1  0  0  0  0
 18 12  1  0  0  0  0
 20  6  1  0  0  0  0
 20 21  1  0  0  0  0
 21 26  1  0  0  0  0
 22 21  2  0  0  0  0
 22 27  1  0  0  0  0
 23 22  1  0  0  0  0
 24 25  1  0  0  0  0
 24 23  2  0  0  0  0
 25 20  2  0  0  0  0
 28 24  1  0  0  0  0
 29 28  1  0  0  0  0
M  END
>  <minimizedAffinity>
-5.0354805

$$$$
