
 OpenBabel03212520583D

 41 45  0  0  1  0  0  0  0  0999 V2000
   39.7310   77.2750   59.2230 C   0  0  0  0  0  0  0  0  0  0  0  0
   40.4180   76.1220   58.9490 C   0  0  0  0  0  0  0  0  0  0  0  0
   39.8510   75.4030   57.8810 C   0  0  0  0  0  0  0  0  0  0  0  0
   38.7600   75.7950   57.1990 N   0  0  0  0  0  0  0  0  0  0  0  0
   38.1510   76.9660   57.5580 C   0  0  0  0  0  0  0  0  0  0  0  0
   38.6400   77.7090   58.5750 N   0  0  0  0  0  0  0  0  0  0  0  0
   41.2900   75.7780   59.4690 H   0  0  0  0  0  0  0  0  0  0  0  0
   40.2980   74.4710   57.5600 H   0  0  0  0  0  0  0  0  0  0  0  0
   40.9800   80.2320   61.7270 C   0  0  0  0  0  0  0  0  0  0  0  0
   40.9910   79.0030   62.3400 C   0  0  0  0  0  0  0  0  0  0  0  0
   40.5940   77.9420   61.6040 C   0  0  0  0  0  0  0  0  0  0  0  0
   40.2000   78.1190   60.2940 C   0  0  0  0  0  0  0  0  0  0  0  0
   40.3910   79.9340   60.0370 S   0  0  0  0  0  0  0  0  0  0  0  0
   41.3030   78.8600   63.3730 H   0  0  0  0  0  0  0  0  0  0  0  0
   40.5310   76.9020   61.8990 H   0  0  0  0  0  0  0  0  0  0  0  0
   43.0400   83.0670   62.8280 C   0  0  0  0  0  0  0  0  0  0  0  0
   42.1550   83.8160   63.6130 C   0  0  0  0  0  0  0  0  0  0  0  0
   40.8530   83.3590   63.7700 C   0  0  0  0  0  0  0  0  0  0  0  0
   40.5140   82.2090   63.1520 N   0  0  0  0  0  0  0  0  0  0  0  0
   41.3810   81.4980   62.3970 C   0  0  0  0  0  0  0  0  0  0  0  0
   42.6170   81.9350   62.2500 N   0  0  0  0  0  0  0  0  0  0  0  0
   44.0520   83.4510   62.7250 H   0  0  0  0  0  0  0  0  0  0  0  0
   42.4420   84.7410   64.1030 H   0  0  0  0  0  0  0  0  0  0  0  0
   40.1140   83.8860   64.3620 H   0  0  0  0  0  0  0  0  0  0  0  0
   36.9790   77.3710   56.8080 C   0  0  0  0  0  0  0  0  0  0  0  0
   35.8740   77.0110   57.2410 O   0  0  0  0  0  0  0  0  0  0  0  0
   37.0730   78.1910   55.5430 C   0  0  1  0  0  0  0  0  0  0  0  0
   37.3900   79.6410   55.8070 C   0  0  0  0  0  0  0  0  0  0  0  0
   38.3500   78.7570   55.1430 C   0  0  2  0  0  0  0  0  0  0  0  0
   36.1230   78.1100   54.9620 H   0  0  0  0  0  0  0  0  0  0  0  0
   36.7810   80.3850   55.2950 H   0  0  0  0  0  0  0  0  0  0  0  0
   37.5790   79.9450   56.8770 H   0  0  0  0  0  0  0  0  0  0  0  0
   39.2160   78.4300   55.8020 H   0  0  0  0  0  0  0  0  0  0  0  0
   38.7140   79.0060   53.7790 N   0  0  1  0  0  0  0  0  0  0  0  0
   37.6800   79.7230   53.0880 C   0  0  0  0  0  3  0  0  0  0  0  0
   37.5950   80.7150   53.5840 H   0  0  0  0  0  0  0  0  0  0  0  0
   38.1030   80.0310   51.6470 C   0  0  0  0  0  3  0  0  0  0  0  0
   37.2760   80.5780   51.1690 H   0  0  0  0  0  0  0  0  0  0  0  0
   39.1620   80.9440   51.7640 O   0  0  0  0  0  0  0  0  0  0  0  0
   40.2280   80.2720   52.3230 C   0  0  0  0  0  2  0  0  0  0  0  0
   39.9510   79.7170   53.7040 C   0  0  0  0  0  2  0  0  0  0  0  0
  1 12  1  0  0  0  0
  2  1  1  0  0  0  0
  2  7  1  0  0  0  0
  3  2  2  0  0  0  0
  4  5  2  0  0  0  0
  4  3  1  0  0  0  0
  5  6  1  0  0  0  0
  6  1  2  0  0  0  0
  8  3  1  0  0  0  0
  9 10  2  0  0  0  0
  9 20  1  0  0  0  0
 10 14  1  0  0  0  0
 11 15  1  0  0  0  0
 11 10  1  0  0  0  0
 12 11  2  0  0  0  0
 13 12  1  0  0  0  0
 13  9  1  0  0  0  0
 16 17  1  0  0  0  0
 17 18  2  0  0  0  0
 17 23  1  0  0  0  0
 18 24  1  0  0  0  0
 19 18  1  0  0  0  0
 20 19  2  0  0  0  0
 21 20  1  0  0  0  0
 21 16  2  0  0  0  0
 22 16  1  0  0  0  0
 25 26  2  0  0  0  0
 25  5  1  0  0  0  0
 27 30  1  6  0  0  0
 27 28  1  0  0  0  0
 27 25  1  0  0  0  0
 28 32  1  0  0  0  0
 29 27  1  0  0  0  0
 29 33  1  1  0  0  0
 29 28  1  0  0  0  0
 31 28  1  0  0  0  0
 34 41  1  1  0  0  0
 34 29  1  0  0  0  0
 35 36  1  0  0  0  0
 35 34  1  0  0  0  0
 37 39  1  0  0  0  0
 37 35  1  0  0  0  0
 38 37  1  0  0  0  0
 39 40  1  0  0  0  0
 40 41  1  0  0  0  0
M  END
>  <minimizedAffinity>
-6.51036787

>  <minimizedRMSD>
0.429828644

$$$$
