
 OpenBabel03212520583D

 41 45  0  0  1  0  0  0  0  0999 V2000
   39.6920   77.2190   59.0810 C   0  0  0  0  0  0  0  0  0  0  0  0
   40.3780   76.0690   58.7930 C   0  0  0  0  0  0  0  0  0  0  0  0
   39.8100   75.3630   57.7160 C   0  0  0  0  0  0  0  0  0  0  0  0
   38.7200   75.7640   57.0410 N   0  0  0  0  0  0  0  0  0  0  0  0
   38.1110   76.9300   57.4140 C   0  0  0  0  0  0  0  0  0  0  0  0
   38.6000   77.6610   58.4390 N   0  0  0  0  0  0  0  0  0  0  0  0
   41.2510   75.7180   59.3090 H   0  0  0  0  0  0  0  0  0  0  0  0
   40.2570   74.4350   57.3840 H   0  0  0  0  0  0  0  0  0  0  0  0
   40.9690   80.1410   61.6120 C   0  0  0  0  0  0  0  0  0  0  0  0
   40.9360   78.9120   62.2230 C   0  0  0  0  0  0  0  0  0  0  0  0
   40.5250   77.8620   61.4790 C   0  0  0  0  0  0  0  0  0  0  0  0
   40.1620   78.0500   60.1620 C   0  0  0  0  0  0  0  0  0  0  0  0
   40.4070   79.8590   59.9100 S   0  0  0  0  0  0  0  0  0  0  0  0
   41.2230   78.7600   63.2620 H   0  0  0  0  0  0  0  0  0  0  0  0
   40.4290   76.8240   61.7720 H   0  0  0  0  0  0  0  0  0  0  0  0
   43.0790   82.9270   62.7440 C   0  0  0  0  0  0  0  0  0  0  0  0
   42.2020   83.6920   63.5230 C   0  0  0  0  0  0  0  0  0  0  0  0
   40.8880   83.2630   63.6650 C   0  0  0  0  0  0  0  0  0  0  0  0
   40.5310   82.1220   63.0390 N   0  0  0  0  0  0  0  0  0  0  0  0
   41.3910   81.3960   62.2900 C   0  0  0  0  0  0  0  0  0  0  0  0
   42.6370   81.8060   62.1580 N   0  0  0  0  0  0  0  0  0  0  0  0
   44.1000   83.2900   62.6530 H   0  0  0  0  0  0  0  0  0  0  0  0
   42.5040   84.6080   64.0200 H   0  0  0  0  0  0  0  0  0  0  0  0
   40.1560   83.8030   64.2510 H   0  0  0  0  0  0  0  0  0  0  0  0
   36.9380   77.3450   56.6690 C   0  0  0  0  0  0  0  0  0  0  0  0
   35.8320   77.1300   57.1850 O   0  0  0  0  0  0  0  0  0  0  0  0
   37.0340   78.0050   55.3140 C   0  0  1  0  0  0  0  0  0  0  0  0
   37.3950   79.4670   55.3990 C   0  0  0  0  0  0  0  0  0  0  0  0
   38.3190   78.4830   54.8330 C   0  0  2  0  0  0  0  0  0  0  0  0
   36.0720   77.8840   54.7600 H   0  0  0  0  0  0  0  0  0  0  0  0
   36.7980   80.1620   54.8100 H   0  0  0  0  0  0  0  0  0  0  0  0
   37.6110   79.8900   56.4230 H   0  0  0  0  0  0  0  0  0  0  0  0
   39.1870   78.2110   55.5140 H   0  0  0  0  0  0  0  0  0  0  0  0
   38.6660   78.5570   53.4440 N   0  0  1  0  0  0  0  0  0  0  0  0
   39.7180   79.5070   53.2210 C   0  0  0  0  0  3  0  0  0  0  0  0
   40.6140   79.1200   53.7550 H   0  0  0  0  0  0  0  0  0  0  0  0
   40.1180   79.5370   51.7420 C   0  0  0  0  0  3  0  0  0  0  0  0
   40.9240   80.2790   51.6320 H   0  0  0  0  0  0  0  0  0  0  0  0
   40.7010   78.2840   51.4940 O   0  0  0  0  0  0  0  0  0  0  0  0
   39.7050   77.3380   51.5850 C   0  0  0  0  0  2  0  0  0  0  0  0
   39.0390   77.2700   52.9430 C   0  0  0  0  0  2  0  0  0  0  0  0
  1 12  1  0  0  0  0
  2  1  1  0  0  0  0
  2  7  1  0  0  0  0
  3  2  2  0  0  0  0
  4  5  2  0  0  0  0
  4  3  1  0  0  0  0
  5  6  1  0  0  0  0
  6  1  2  0  0  0  0
  8  3  1  0  0  0  0
  9 10  2  0  0  0  0
  9 20  1  0  0  0  0
 10 14  1  0  0  0  0
 11 15  1  0  0  0  0
 11 10  1  0  0  0  0
 12 11  2  0  0  0  0
 13 12  1  0  0  0  0
 13  9  1  0  0  0  0
 16 17  1  0  0  0  0
 17 18  2  0  0  0  0
 17 23  1  0  0  0  0
 18 24  1  0  0  0  0
 19 18  1  0  0  0  0
 20 19  2  0  0  0  0
 21 20  1  0  0  0  0
 21 16  2  0  0  0  0
 22 16  1  0  0  0  0
 25 26  2  0  0  0  0
 25  5  1  0  0  0  0
 27 30  1  6  0  0  0
 27 28  1  0  0  0  0
 27 25  1  0  0  0  0
 28 32  1  0  0  0  0
 29 27  1  0  0  0  0
 29 28  1  0  0  0  0
 29 33  1  1  0  0  0
 31 28  1  0  0  0  0
 34 41  1  1  0  0  0
 34 29  1  0  0  0  0
 35 34  1  0  0  0  0
 35 36  1  0  0  0  0
 37 35  1  0  0  0  0
 38 37  1  0  0  0  0
 39 40  1  0  0  0  0
 39 37  1  0  0  0  0
 40 41  1  0  0  0  0
M  END
>  <minimizedAffinity>
-6.14790201

>  <minimizedRMSD>
0.999873102

$$$$
