
 OpenBabel03212520583D

 41 45  0  0  1  0  0  0  0  0999 V2000
   39.7970   77.4130   59.1760 C   0  0  0  0  0  0  0  0  0  0  0  0
   40.5020   76.2720   58.8980 C   0  0  0  0  0  0  0  0  0  0  0  0
   39.9650   75.5640   57.8060 C   0  0  0  0  0  0  0  0  0  0  0  0
   38.8850   75.9550   57.1090 N   0  0  0  0  0  0  0  0  0  0  0  0
   38.2550   77.1130   57.4740 C   0  0  0  0  0  0  0  0  0  0  0  0
   38.7140   77.8450   58.5130 N   0  0  0  0  0  0  0  0  0  0  0  0
   41.3670   75.9290   59.4310 H   0  0  0  0  0  0  0  0  0  0  0  0
   40.4290   74.6420   57.4800 H   0  0  0  0  0  0  0  0  0  0  0  0
   40.9740   80.3390   61.7490 C   0  0  0  0  0  0  0  0  0  0  0  0
   40.9620   79.1040   62.3490 C   0  0  0  0  0  0  0  0  0  0  0  0
   40.5850   78.0520   61.5900 C   0  0  0  0  0  0  0  0  0  0  0  0
   40.2330   78.2440   60.2700 C   0  0  0  0  0  0  0  0  0  0  0  0
   40.4390   80.0600   60.0380 S   0  0  0  0  0  0  0  0  0  0  0  0
   41.2390   78.9490   63.3900 H   0  0  0  0  0  0  0  0  0  0  0  0
   40.5100   77.0090   61.8720 H   0  0  0  0  0  0  0  0  0  0  0  0
   43.0010   83.1670   62.9280 C   0  0  0  0  0  0  0  0  0  0  0  0
   42.0990   83.9010   63.7070 C   0  0  0  0  0  0  0  0  0  0  0  0
   40.7960   83.4360   63.8340 C   0  0  0  0  0  0  0  0  0  0  0  0
   40.4730   82.2940   63.1930 N   0  0  0  0  0  0  0  0  0  0  0  0
   41.3580   81.5970   62.4440 C   0  0  0  0  0  0  0  0  0  0  0  0
   42.5930   82.0410   62.3260 N   0  0  0  0  0  0  0  0  0  0  0  0
   44.0130   83.5560   62.8490 H   0  0  0  0  0  0  0  0  0  0  0  0
   42.3730   84.8190   64.2160 H   0  0  0  0  0  0  0  0  0  0  0  0
   40.0450   83.9510   64.4200 H   0  0  0  0  0  0  0  0  0  0  0  0
   37.0940   77.5180   56.7050 C   0  0  0  0  0  0  0  0  0  0  0  0
   35.9940   77.0700   57.0600 O   0  0  0  0  0  0  0  0  0  0  0  0
   37.1960   78.4390   55.5130 C   0  0  1  0  0  0  0  0  0  0  0  0
   37.3100   79.8910   55.9020 C   0  0  0  0  0  0  0  0  0  0  0  0
   38.4230   79.1780   55.2750 C   0  0  2  0  0  0  0  0  0  0  0  0
   36.3150   78.2940   54.8410 H   0  0  0  0  0  0  0  0  0  0  0  0
   36.6600   80.5970   55.3860 H   0  0  0  0  0  0  0  0  0  0  0  0
   37.3680   80.1310   57.0040 H   0  0  0  0  0  0  0  0  0  0  0  0
   39.2630   78.9030   55.9880 H   0  0  0  0  0  0  0  0  0  0  0  0
   38.8690   79.5730   53.9700 N   0  0  1  0  0  0  0  0  0  0  0  0
   40.2730   79.8720   53.9690 C   0  0  0  0  0  3  0  0  0  0  0  0
   40.8010   78.9240   54.2150 H   0  0  0  0  0  0  0  0  0  0  0  0
   40.7480   80.2390   52.5600 C   0  0  0  0  0  3  0  0  0  0  0  0
   41.8260   80.4580   52.6200 H   0  0  0  0  0  0  0  0  0  0  0  0
   40.6300   79.0560   51.8130 O   0  0  0  0  0  0  0  0  0  0  0  0
   39.2850   78.7810   51.6860 C   0  0  0  0  0  2  0  0  0  0  0  0
   38.5730   78.5610   53.0030 C   0  0  0  0  0  2  0  0  0  0  0  0
  1 12  1  0  0  0  0
  2  1  1  0  0  0  0
  2  7  1  0  0  0  0
  3  2  2  0  0  0  0
  4  5  2  0  0  0  0
  4  3  1  0  0  0  0
  5  6  1  0  0  0  0
  6  1  2  0  0  0  0
  8  3  1  0  0  0  0
  9 10  2  0  0  0  0
  9 20  1  0  0  0  0
 10 14  1  0  0  0  0
 11 15  1  0  0  0  0
 11 10  1  0  0  0  0
 12 11  2  0  0  0  0
 13 12  1  0  0  0  0
 13  9  1  0  0  0  0
 16 17  1  0  0  0  0
 17 18  2  0  0  0  0
 17 23  1  0  0  0  0
 18 24  1  0  0  0  0
 19 18  1  0  0  0  0
 20 19  2  0  0  0  0
 21 20  1  0  0  0  0
 21 16  2  0  0  0  0
 22 16  1  0  0  0  0
 25 26  2  0  0  0  0
 25  5  1  0  0  0  0
 27 30  1  6  0  0  0
 27 28  1  0  0  0  0
 27 25  1  0  0  0  0
 28 32  1  0  0  0  0
 29 27  1  0  0  0  0
 29 28  1  0  0  0  0
 29 33  1  1  0  0  0
 31 28  1  0  0  0  0
 34 41  1  6  0  0  0
 34 29  1  0  0  0  0
 35 34  1  0  0  0  0
 35 36  1  0  0  0  0
 37 38  1  0  0  0  0
 37 35  1  0  0  0  0
 39 37  1  0  0  0  0
 40 39  1  0  0  0  0
 40 41  1  0  0  0  0
M  END
>  <minimizedAffinity>
-6.26415873

>  <minimizedRMSD>
0.18209742

$$$$
