
 OpenBabel03212520583D

 41 45  0  0  1  0  0  0  0  0999 V2000
   39.5500   76.9070   59.0910 C   0  0  0  0  0  0  0  0  0  0  0  0
   40.2090   75.7250   58.8790 C   0  0  0  0  0  0  0  0  0  0  0  0
   39.6490   74.9820   57.8240 C   0  0  0  0  0  0  0  0  0  0  0  0
   38.5890   75.3790   57.0990 N   0  0  0  0  0  0  0  0  0  0  0  0
   38.0050   76.5790   57.3970 C   0  0  0  0  0  0  0  0  0  0  0  0
   38.4890   77.3460   58.3980 N   0  0  0  0  0  0  0  0  0  0  0  0
   41.0570   75.3760   59.4360 H   0  0  0  0  0  0  0  0  0  0  0  0
   40.0760   74.0250   57.5500 H   0  0  0  0  0  0  0  0  0  0  0  0
   40.8550   79.9130   61.5060 C   0  0  0  0  0  0  0  0  0  0  0  0
   40.7550   78.7210   62.1800 C   0  0  0  0  0  0  0  0  0  0  0  0
   40.3290   77.6470   61.4790 C   0  0  0  0  0  0  0  0  0  0  0  0
   40.0160   77.7770   60.1420 C   0  0  0  0  0  0  0  0  0  0  0  0
   40.3370   79.5600   59.8040 S   0  0  0  0  0  0  0  0  0  0  0  0
   41.0020   78.6150   63.2350 H   0  0  0  0  0  0  0  0  0  0  0  0
   40.1840   76.6310   61.8230 H   0  0  0  0  0  0  0  0  0  0  0  0
   43.0230   82.6950   62.5330 C   0  0  0  0  0  0  0  0  0  0  0  0
   42.1580   83.5160   63.2670 C   0  0  0  0  0  0  0  0  0  0  0  0
   40.8330   83.1260   63.4160 C   0  0  0  0  0  0  0  0  0  0  0  0
   40.4530   81.9680   62.8380 N   0  0  0  0  0  0  0  0  0  0  0  0
   41.3020   81.1870   62.1310 C   0  0  0  0  0  0  0  0  0  0  0  0
   42.5580   81.5600   61.9930 N   0  0  0  0  0  0  0  0  0  0  0  0
   44.0530   83.0280   62.4360 H   0  0  0  0  0  0  0  0  0  0  0  0
   42.4790   84.4460   63.7250 H   0  0  0  0  0  0  0  0  0  0  0  0
   40.1090   83.7100   63.9690 H   0  0  0  0  0  0  0  0  0  0  0  0
   36.8660   76.9890   56.6010 C   0  0  0  0  0  0  0  0  0  0  0  0
   35.8120   77.2410   57.2030 O   0  0  0  0  0  0  0  0  0  0  0  0
   36.9310   77.1020   55.0960 C   0  0  1  0  0  0  0  0  0  0  0  0
   37.2360   78.5020   54.6270 C   0  0  0  0  0  0  0  0  0  0  0  0
   38.1940   77.4100   54.4490 C   0  0  2  0  0  0  0  0  0  0  0  0
   35.9720   76.7510   54.6430 H   0  0  0  0  0  0  0  0  0  0  0  0
   36.6100   78.9080   53.8330 H   0  0  0  0  0  0  0  0  0  0  0  0
   37.4390   79.2820   55.4160 H   0  0  0  0  0  0  0  0  0  0  0  0
   39.0750   77.4400   55.1670 H   0  0  0  0  0  0  0  0  0  0  0  0
   38.5330   76.9760   53.1260 N   0  0  1  0  0  0  0  0  0  0  0  0
   39.4990   77.8490   52.5220 C   0  0  0  0  0  3  0  0  0  0  0  0
   40.4260   77.7680   53.1340 H   0  0  0  0  0  0  0  0  0  0  0  0
   39.8930   77.3430   51.1310 C   0  0  0  0  0  3  0  0  0  0  0  0
   40.6320   78.0480   50.7200 H   0  0  0  0  0  0  0  0  0  0  0  0
   40.5830   76.1420   51.3590 O   0  0  0  0  0  0  0  0  0  0  0  0
   39.6710   75.2260   51.8370 C   0  0  0  0  0  2  0  0  0  0  0  0
   39.0160   75.6290   53.1400 C   0  0  0  0  0  2  0  0  0  0  0  0
  1 12  1  0  0  0  0
  2  1  1  0  0  0  0
  2  7  1  0  0  0  0
  3  2  2  0  0  0  0
  4  5  2  0  0  0  0
  4  3  1  0  0  0  0
  5  6  1  0  0  0  0
  6  1  2  0  0  0  0
  8  3  1  0  0  0  0
  9 20  1  0  0  0  0
  9 10  2  0  0  0  0
 10 14  1  0  0  0  0
 11 15  1  0  0  0  0
 11 10  1  0  0  0  0
 12 11  2  0  0  0  0
 13 12  1  0  0  0  0
 13  9  1  0  0  0  0
 16 17  1  0  0  0  0
 17 18  2  0  0  0  0
 17 23  1  0  0  0  0
 18 24  1  0  0  0  0
 19 18  1  0  0  0  0
 20 19  2  0  0  0  0
 21 20  1  0  0  0  0
 21 16  2  0  0  0  0
 22 16  1  0  0  0  0
 25 26  2  0  0  0  0
 25  5  1  0  0  0  0
 27 30  1  6  0  0  0
 27 25  1  0  0  0  0
 28 27  1  0  0  0  0
 28 32  1  0  0  0  0
 29 28  1  0  0  0  0
 29 27  1  0  0  0  0
 29 33  1  1  0  0  0
 31 28  1  0  0  0  0
 34 41  1  1  0  0  0
 34 29  1  0  0  0  0
 35 34  1  0  0  0  0
 35 36  1  0  0  0  0
 37 39  1  0  0  0  0
 37 35  1  0  0  0  0
 38 37  1  0  0  0  0
 39 40  1  0  0  0  0
 40 41  1  0  0  0  0
M  END
>  <minimizedAffinity>
-6.36780643

>  <minimizedRMSD>
2.15533233

$$$$
