
 OpenBabel03212520583D

 41 45  0  0  1  0  0  0  0  0999 V2000
   39.7950   77.3890   59.1550 C   0  0  0  0  0  0  0  0  0  0  0  0
   40.5220   76.2660   58.8600 C   0  0  0  0  0  0  0  0  0  0  0  0
   39.9880   75.5540   57.7700 C   0  0  0  0  0  0  0  0  0  0  0  0
   38.8900   75.9260   57.0880 N   0  0  0  0  0  0  0  0  0  0  0  0
   38.2390   77.0670   57.4690 C   0  0  0  0  0  0  0  0  0  0  0  0
   38.6950   77.8010   58.5080 N   0  0  0  0  0  0  0  0  0  0  0  0
   41.4010   75.9390   59.3790 H   0  0  0  0  0  0  0  0  0  0  0  0
   40.4680   74.6450   57.4310 H   0  0  0  0  0  0  0  0  0  0  0  0
   40.9660   80.3190   61.7270 C   0  0  0  0  0  0  0  0  0  0  0  0
   40.9410   79.0860   62.3320 C   0  0  0  0  0  0  0  0  0  0  0  0
   40.5640   78.0330   61.5730 C   0  0  0  0  0  0  0  0  0  0  0  0
   40.2270   78.2220   60.2500 C   0  0  0  0  0  0  0  0  0  0  0  0
   40.4460   80.0360   60.0120 S   0  0  0  0  0  0  0  0  0  0  0  0
   41.2080   78.9340   63.3760 H   0  0  0  0  0  0  0  0  0  0  0  0
   40.4800   76.9920   61.8590 H   0  0  0  0  0  0  0  0  0  0  0  0
   42.9980   83.1450   62.9030 C   0  0  0  0  0  0  0  0  0  0  0  0
   42.0950   83.8810   63.6810 C   0  0  0  0  0  0  0  0  0  0  0  0
   40.7920   83.4180   63.8080 C   0  0  0  0  0  0  0  0  0  0  0  0
   40.4680   82.2750   63.1690 N   0  0  0  0  0  0  0  0  0  0  0  0
   41.3520   81.5770   62.4200 C   0  0  0  0  0  0  0  0  0  0  0  0
   42.5880   82.0190   62.3020 N   0  0  0  0  0  0  0  0  0  0  0  0
   44.0100   83.5330   62.8240 H   0  0  0  0  0  0  0  0  0  0  0  0
   42.3710   84.7990   64.1890 H   0  0  0  0  0  0  0  0  0  0  0  0
   40.0410   83.9350   64.3930 H   0  0  0  0  0  0  0  0  0  0  0  0
   37.0600   77.4510   56.7190 C   0  0  0  0  0  0  0  0  0  0  0  0
   35.9650   77.0460   57.1350 O   0  0  0  0  0  0  0  0  0  0  0  0
   37.1380   78.3010   55.4730 C   0  0  1  0  0  0  0  0  0  0  0  0
   37.3780   79.7590   55.7730 C   0  0  0  0  0  0  0  0  0  0  0  0
   38.3920   78.9370   55.1100 C   0  0  2  0  0  0  0  0  0  0  0  0
   36.2020   78.1870   54.8720 H   0  0  0  0  0  0  0  0  0  0  0  0
   36.7420   80.4830   55.2650 H   0  0  0  0  0  0  0  0  0  0  0  0
   37.5320   80.0490   56.8520 H   0  0  0  0  0  0  0  0  0  0  0  0
   39.2610   78.6390   55.7780 H   0  0  0  0  0  0  0  0  0  0  0  0
   38.7680   79.2330   53.7580 N   0  0  1  0  0  0  0  0  0  0  0  0
   40.0960   79.7710   53.6930 C   0  0  0  0  0  3  0  0  0  0  0  0
   40.7810   78.9700   54.0490 H   0  0  0  0  0  0  0  0  0  0  0  0
   40.5060   80.0300   52.2400 C   0  0  0  0  0  3  0  0  0  0  0  0
   41.5280   80.4400   52.2520 H   0  0  0  0  0  0  0  0  0  0  0  0
   40.6010   78.7590   51.6530 O   0  0  0  0  0  0  0  0  0  0  0  0
   39.3270   78.2380   51.5870 C   0  0  0  0  0  2  0  0  0  0  0  0
   38.6580   78.0690   52.9340 C   0  0  0  0  0  2  0  0  0  0  0  0
  1 12  1  0  0  0  0
  2  1  1  0  0  0  0
  2  7  1  0  0  0  0
  3  2  2  0  0  0  0
  4  5  2  0  0  0  0
  4  3  1  0  0  0  0
  5  6  1  0  0  0  0
  6  1  2  0  0  0  0
  8  3  1  0  0  0  0
  9 10  2  0  0  0  0
  9 20  1  0  0  0  0
 10 14  1  0  0  0  0
 11 15  1  0  0  0  0
 11 10  1  0  0  0  0
 12 11  2  0  0  0  0
 13 12  1  0  0  0  0
 13  9  1  0  0  0  0
 16 17  1  0  0  0  0
 17 18  2  0  0  0  0
 17 23  1  0  0  0  0
 18 24  1  0  0  0  0
 19 18  1  0  0  0  0
 20 19  2  0  0  0  0
 21 20  1  0  0  0  0
 21 16  2  0  0  0  0
 22 16  1  0  0  0  0
 25 26  2  0  0  0  0
 25  5  1  0  0  0  0
 27 30  1  6  0  0  0
 27 28  1  0  0  0  0
 27 25  1  0  0  0  0
 28 32  1  0  0  0  0
 29 27  1  0  0  0  0
 29 28  1  0  0  0  0
 29 33  1  1  0  0  0
 31 28  1  0  0  0  0
 34 41  1  6  0  0  0
 34 29  1  0  0  0  0
 35 34  1  0  0  0  0
 35 36  1  0  0  0  0
 37 38  1  0  0  0  0
 37 35  1  0  0  0  0
 39 37  1  0  0  0  0
 40 39  1  0  0  0  0
 40 41  1  0  0  0  0
M  END
>  <minimizedAffinity>
-6.23669147

>  <minimizedRMSD>
0.535066009

$$$$
