
 OpenBabel03212521013D

 41 45  0  0  1  0  0  0  0  0999 V2000
   41.9140   74.5410   59.6870 C   0  0  0  0  0  0  0  0  0  0  0  0
   43.2210   74.8100   59.3790 C   0  0  0  0  0  0  0  0  0  0  0  0
   44.1130   73.9330   60.0240 C   0  0  0  0  0  0  0  0  0  0  0  0
   43.7350   72.9420   60.8490 N   0  0  0  0  0  0  0  0  0  0  0  0
   42.4010   72.7620   61.0880 C   0  0  0  0  0  0  0  0  0  0  0  0
   41.4860   73.5670   60.5040 N   0  0  0  0  0  0  0  0  0  0  0  0
   43.5600   75.5900   58.7260 H   0  0  0  0  0  0  0  0  0  0  0  0
   45.1790   74.0350   59.8660 H   0  0  0  0  0  0  0  0  0  0  0  0
   39.2840   76.5800   57.3410 C   0  0  0  0  0  0  0  0  0  0  0  0
   39.0850   76.8350   58.6760 C   0  0  0  0  0  0  0  0  0  0  0  0
   39.9010   76.2110   59.5530 C   0  0  0  0  0  0  0  0  0  0  0  0
   40.8840   75.3590   59.0960 C   0  0  0  0  0  0  0  0  0  0  0  0
   40.6730   75.4140   57.2660 S   0  0  0  0  0  0  0  0  0  0  0  0
   38.3100   77.5080   59.0400 H   0  0  0  0  0  0  0  0  0  0  0  0
   39.9060   76.2770   60.6340 H   0  0  0  0  0  0  0  0  0  0  0  0
   36.3720   77.5890   55.3420 C   0  0  0  0  0  0  0  0  0  0  0  0
   36.9500   78.2680   54.2620 C   0  0  0  0  0  0  0  0  0  0  0  0
   38.3330   78.3850   54.2100 C   0  0  0  0  0  0  0  0  0  0  0  0
   39.0460   77.8320   55.2130 N   0  0  0  0  0  0  0  0  0  0  0  0
   38.4720   77.1800   56.2490 C   0  0  0  0  0  0  0  0  0  0  0  0
   37.1590   77.0710   56.2950 N   0  0  0  0  0  0  0  0  0  0  0  0
   35.2880   77.5140   55.3520 H   0  0  0  0  0  0  0  0  0  0  0  0
   36.3630   78.7080   53.4620 H   0  0  0  0  0  0  0  0  0  0  0  0
   38.8480   78.8960   53.4060 H   0  0  0  0  0  0  0  0  0  0  0  0
   42.0160   71.6850   61.9790 C   0  0  0  0  0  0  0  0  0  0  0  0
   41.4940   71.9990   63.0580 O   0  0  0  0  0  0  0  0  0  0  0  0
   42.2390   70.2320   61.6320 C   0  0  1  0  0  0  0  0  0  0  0  0
   43.2740   69.5730   62.5070 C   0  0  0  0  0  0  0  0  0  0  0  0
   41.8610   69.1980   62.5780 C   0  0  2  0  0  0  0  0  0  0  0  0
   42.5330   70.1350   60.5580 H   0  0  0  0  0  0  0  0  0  0  0  0
   44.0440   68.9850   62.0100 H   0  0  0  0  0  0  0  0  0  0  0  0
   43.7170   70.1890   63.3430 H   0  0  0  0  0  0  0  0  0  0  0  0
   41.3170   69.5970   63.4920 H   0  0  0  0  0  0  0  0  0  0  0  0
   41.4610   67.8770   62.1900 N   0  0  1  0  0  0  0  0  0  0  0  0
   42.5930   67.0030   62.0740 C   0  0  0  0  0  3  0  0  0  0  0  0
   43.0360   66.9190   63.0910 H   0  0  0  0  0  0  0  0  0  0  0  0
   42.1490   65.5820   61.7110 C   0  0  0  0  0  3  0  0  0  0  0  0
   43.0530   64.9610   61.6360 H   0  0  0  0  0  0  0  0  0  0  0  0
   41.4480   65.1200   62.8370 O   0  0  0  0  0  0  0  0  0  0  0  0
   40.2870   65.8550   62.9310 C   0  0  0  0  0  2  0  0  0  0  0  0
   40.5090   67.3410   63.1130 C   0  0  0  0  0  2  0  0  0  0  0  0
  1  6  1  0  0  0  0
  2  1  2  0  0  0  0
  2  3  1  0  0  0  0
  3  4  2  0  0  0  0
  4  5  1  0  0  0  0
  5 25  1  0  0  0  0
  6  5  2  0  0  0  0
  7  2  1  0  0  0  0
  8  3  1  0  0  0  0
  9 10  2  0  0  0  0
 10 14  1  0  0  0  0
 10 11  1  0  0  0  0
 11 15  1  0  0  0  0
 12 11  2  0  0  0  0
 12  1  1  0  0  0  0
 13  9  1  0  0  0  0
 13 12  1  0  0  0  0
 16 22  1  0  0  0  0
 16 21  1  0  0  0  0
 17 16  2  0  0  0  0
 18 17  1  0  0  0  0
 18 19  2  0  0  0  0
 19 20  1  0  0  0  0
 20 21  2  0  0  0  0
 20  9  1  0  0  0  0
 23 17  1  0  0  0  0
 24 18  1  0  0  0  0
 25 26  2  0  0  0  0
 27 30  1  6  0  0  0
 27 25  1  0  0  0  0
 27 28  1  0  0  0  0
 27 29  1  0  0  0  0
 28 29  1  0  0  0  0
 28 32  1  0  0  0  0
 29 33  1  1  0  0  0
 31 28  1  0  0  0  0
 34 29  1  0  0  0  0
 34 41  1  1  0  0  0
 35 34  1  0  0  0  0
 35 36  1  0  0  0  0
 37 35  1  0  0  0  0
 37 39  1  0  0  0  0
 38 37  1  0  0  0  0
 39 40  1  0  0  0  0
 40 41  1  0  0  0  0
M  END
>  <minimizedAffinity>
-7.16112947

$$$$

 OpenBabel03212521013D

 41 45  0  0  1  0  0  0  0  0999 V2000
   42.3830   73.4740   60.4820 C   0  0  0  0  0  0  0  0  0  0  0  0
   43.6410   73.8420   60.0820 C   0  0  0  0  0  0  0  0  0  0  0  0
   43.6340   75.0210   59.3150 C   0  0  0  0  0  0  0  0  0  0  0  0
   42.5260   75.7160   59.0050 N   0  0  0  0  0  0  0  0  0  0  0  0
   41.3190   75.2580   59.4560 C   0  0  0  0  0  0  0  0  0  0  0  0
   41.2490   74.1310   60.1980 N   0  0  0  0  0  0  0  0  0  0  0  0
   44.5460   73.3140   60.3100 H   0  0  0  0  0  0  0  0  0  0  0  0
   44.5650   75.4240   58.9350 H   0  0  0  0  0  0  0  0  0  0  0  0
   41.9250   69.7460   62.0510 C   0  0  0  0  0  0  0  0  0  0  0  0
   42.0220   70.7060   63.0290 C   0  0  0  0  0  0  0  0  0  0  0  0
   42.1780   71.9860   62.6260 C   0  0  0  0  0  0  0  0  0  0  0  0
   42.2340   72.2830   61.2810 C   0  0  0  0  0  0  0  0  0  0  0  0
   42.0540   70.6360   60.4750 S   0  0  0  0  0  0  0  0  0  0  0  0
   41.9770   70.4740   64.0920 H   0  0  0  0  0  0  0  0  0  0  0  0
   42.2740   72.8770   63.2340 H   0  0  0  0  0  0  0  0  0  0  0  0
   40.6730   66.6200   63.5190 C   0  0  0  0  0  0  0  0  0  0  0  0
   41.4190   65.6380   62.8550 C   0  0  0  0  0  0  0  0  0  0  0  0
   42.3510   66.0360   61.9060 C   0  0  0  0  0  0  0  0  0  0  0  0
   42.4850   67.3590   61.6760 N   0  0  0  0  0  0  0  0  0  0  0  0
   41.7550   68.2940   62.3250 C   0  0  0  0  0  0  0  0  0  0  0  0
   40.8720   67.9120   63.2260 N   0  0  0  0  0  0  0  0  0  0  0  0
   39.9530   66.2760   64.2570 H   0  0  0  0  0  0  0  0  0  0  0  0
   41.2990   64.5770   63.0510 H   0  0  0  0  0  0  0  0  0  0  0  0
   42.9630   65.3330   61.3540 H   0  0  0  0  0  0  0  0  0  0  0  0
   40.1380   76.0240   59.1130 C   0  0  0  0  0  0  0  0  0  0  0  0
   39.7080   76.8180   59.9630 O   0  0  0  0  0  0  0  0  0  0  0  0
   39.4350   75.8740   57.7850 C   0  0  1  0  0  0  0  0  0  0  0  0
   38.8410   74.5020   57.5880 C   0  0  0  0  0  0  0  0  0  0  0  0
   37.9960   75.6860   57.7460 C   0  0  2  0  0  0  0  0  0  0  0  0
   40.1410   76.1050   56.9500 H   0  0  0  0  0  0  0  0  0  0  0  0
   39.0370   74.0070   56.6380 H   0  0  0  0  0  0  0  0  0  0  0  0
   38.9230   73.7720   58.4450 H   0  0  0  0  0  0  0  0  0  0  0  0
   37.5010   75.7730   58.7650 H   0  0  0  0  0  0  0  0  0  0  0  0
   37.1700   76.1150   56.6560 N   0  0  1  0  0  0  0  0  0  0  0  0
   37.6260   77.3650   56.1180 C   0  0  0  0  0  3  0  0  0  0  0  0
   38.6400   77.1790   55.6990 H   0  0  0  0  0  0  0  0  0  0  0  0
   36.7690   77.7860   54.9200 C   0  0  0  0  0  3  0  0  0  0  0  0
   37.1630   78.7450   54.5510 H   0  0  0  0  0  0  0  0  0  0  0  0
   37.0460   76.8390   53.9210 O   0  0  0  0  0  0  0  0  0  0  0  0
   36.5250   75.6330   54.3390 C   0  0  0  0  0  2  0  0  0  0  0  0
   37.1200   75.1190   55.6320 C   0  0  0  0  0  2  0  0  0  0  0  0
  1 12  1  0  0  0  0
  2  7  1  0  0  0  0
  2  1  2  0  0  0  0
  3  2  1  0  0  0  0
  4  3  2  0  0  0  0
  4  5  1  0  0  0  0
  5  6  2  0  0  0  0
  6  1  1  0  0  0  0
  8  3  1  0  0  0  0
  9 20  1  0  0  0  0
  9 10  2  0  0  0  0
 10 14  1  0  0  0  0
 11 10  1  0  0  0  0
 11 15  1  0  0  0  0
 12 11  2  0  0  0  0
 13 12  1  0  0  0  0
 13  9  1  0  0  0  0
 16 22  1  0  0  0  0
 17 23  1  0  0  0  0
 17 16  2  0  0  0  0
 18 17  1  0  0  0  0
 19 18  2  0  0  0  0
 19 20  1  0  0  0  0
 20 21  2  0  0  0  0
 21 16  1  0  0  0  0
 24 18  1  0  0  0  0
 25  5  1  0  0  0  0
 25 26  2  0  0  0  0
 27 30  1  6  0  0  0
 27 25  1  0  0  0  0
 28 29  1  0  0  0  0
 28 27  1  0  0  0  0
 28 32  1  0  0  0  0
 29 27  1  0  0  0  0
 29 33  1  1  0  0  0
 31 28  1  0  0  0  0
 34 41  1  6  0  0  0
 34 29  1  0  0  0  0
 35 34  1  0  0  0  0
 36 35  1  0  0  0  0
 37 35  1  0  0  0  0
 38 37  1  0  0  0  0
 39 40  1  0  0  0  0
 39 37  1  0  0  0  0
 40 41  1  0  0  0  0
M  END
>  <minimizedAffinity>
-6.95182705

$$$$

 OpenBabel03212521013D

 41 45  0  0  1  0  0  0  0  0999 V2000
   39.2140   76.2020   58.9030 C   0  0  0  0  0  0  0  0  0  0  0  0
   39.8600   77.3840   59.1540 C   0  0  0  0  0  0  0  0  0  0  0  0
   39.5220   78.3850   58.2250 C   0  0  0  0  0  0  0  0  0  0  0  0
   38.6630   78.2120   57.2060 N   0  0  0  0  0  0  0  0  0  0  0  0
   38.0740   76.9890   57.0470 C   0  0  0  0  0  0  0  0  0  0  0  0
   38.3520   75.9790   57.9010 N   0  0  0  0  0  0  0  0  0  0  0  0
   40.5490   77.5590   59.9570 H   0  0  0  0  0  0  0  0  0  0  0  0
   39.9620   79.3710   58.3090 H   0  0  0  0  0  0  0  0  0  0  0  0
   40.6090   73.0240   61.0310 C   0  0  0  0  0  0  0  0  0  0  0  0
   39.3230   73.3510   61.3820 C   0  0  0  0  0  0  0  0  0  0  0  0
   38.7530   74.3950   60.7410 C   0  0  0  0  0  0  0  0  0  0  0  0
   39.4610   75.0830   59.7780 C   0  0  0  0  0  0  0  0  0  0  0  0
   41.0830   74.2100   59.7420 S   0  0  0  0  0  0  0  0  0  0  0  0
   38.7610   72.8100   62.1420 H   0  0  0  0  0  0  0  0  0  0  0  0
   37.7600   74.8070   60.8730 H   0  0  0  0  0  0  0  0  0  0  0  0
   43.0710   70.3280   61.4370 C   0  0  0  0  0  0  0  0  0  0  0  0
   42.8140   69.8570   62.7310 C   0  0  0  0  0  0  0  0  0  0  0  0
   41.8020   70.4550   63.4700 C   0  0  0  0  0  0  0  0  0  0  0  0
   41.1190   71.4660   62.8930 N   0  0  0  0  0  0  0  0  0  0  0  0
   41.3800   71.9090   61.6420 C   0  0  0  0  0  0  0  0  0  0  0  0
   42.3420   71.3380   60.9440 N   0  0  0  0  0  0  0  0  0  0  0  0
   43.8690   69.8380   60.8850 H   0  0  0  0  0  0  0  0  0  0  0  0
   43.3730   69.0440   63.1820 H   0  0  0  0  0  0  0  0  0  0  0  0
   41.5480   70.1440   64.4750 H   0  0  0  0  0  0  0  0  0  0  0  0
   37.1490   76.8260   55.9430 C   0  0  0  0  0  0  0  0  0  0  0  0
   36.2390   77.6610   55.8350 O   0  0  0  0  0  0  0  0  0  0  0  0
   37.2620   75.6880   54.9560 C   0  0  1  0  0  0  0  0  0  0  0  0
   37.8880   76.1060   53.6490 C   0  0  0  0  0  0  0  0  0  0  0  0
   38.5730   75.1960   54.5690 C   0  0  2  0  0  0  0  0  0  0  0  0
   36.2550   75.2420   54.7680 H   0  0  0  0  0  0  0  0  0  0  0  0
   37.3850   75.7950   52.7350 H   0  0  0  0  0  0  0  0  0  0  0  0
   38.2530   77.1710   53.5650 H   0  0  0  0  0  0  0  0  0  0  0  0
   39.4250   75.6730   55.1490 H   0  0  0  0  0  0  0  0  0  0  0  0
   38.8240   73.8430   54.1670 N   0  0  1  0  0  0  0  0  0  0  0  0
   39.5900   73.7940   52.9540 C   0  0  0  0  0  3  0  0  0  0  0  0
   40.5780   74.2490   53.1840 H   0  0  0  0  0  0  0  0  0  0  0  0
   39.8980   72.3440   52.5640 C   0  0  0  0  0  3  0  0  0  0  0  0
   40.4830   72.3690   51.6330 H   0  0  0  0  0  0  0  0  0  0  0  0
   40.7660   71.8740   53.5610 O   0  0  0  0  0  0  0  0  0  0  0  0
   40.0460   71.7930   54.7330 C   0  0  0  0  0  2  0  0  0  0  0  0
   39.4860   73.1170   55.2060 C   0  0  0  0  0  2  0  0  0  0  0  0
  1  2  1  0  0  0  0
  1 12  1  0  0  0  0
  2  7  1  0  0  0  0
  3  8  1  0  0  0  0
  3  2  2  0  0  0  0
  4  3  1  0  0  0  0
  5  4  2  0  0  0  0
  5  6  1  0  0  0  0
  6  1  2  0  0  0  0
  9 10  2  0  0  0  0
  9 20  1  0  0  0  0
 10 14  1  0  0  0  0
 11 15  1  0  0  0  0
 11 10  1  0  0  0  0
 12 11  2  0  0  0  0
 13 12  1  0  0  0  0
 13  9  1  0  0  0  0
 16 17  1  0  0  0  0
 17 23  1  0  0  0  0
 17 18  2  0  0  0  0
 18 24  1  0  0  0  0
 19 18  1  0  0  0  0
 20 19  2  0  0  0  0
 21 16  2  0  0  0  0
 21 20  1  0  0  0  0
 22 16  1  0  0  0  0
 25  5  1  0  0  0  0
 26 25  2  0  0  0  0
 27 30  1  6  0  0  0
 27 25  1  0  0  0  0
 28 29  1  0  0  0  0
 28 27  1  0  0  0  0
 29 27  1  0  0  0  0
 29 33  1  1  0  0  0
 31 28  1  0  0  0  0
 32 28  1  0  0  0  0
 34 29  1  0  0  0  0
 34 41  1  1  0  0  0
 35 36  1  0  0  0  0
 35 34  1  0  0  0  0
 37 35  1  0  0  0  0
 37 39  1  0  0  0  0
 38 37  1  0  0  0  0
 39 40  1  0  0  0  0
 40 41  1  0  0  0  0
M  END
>  <minimizedAffinity>
-6.58309746

$$$$

 OpenBabel03212521013D

 41 45  0  0  1  0  0  0  0  0999 V2000
   40.3960   73.3860   60.9680 C   0  0  0  0  0  0  0  0  0  0  0  0
   39.0620   73.5200   61.2480 C   0  0  0  0  0  0  0  0  0  0  0  0
   38.5110   74.6820   60.6790 C   0  0  0  0  0  0  0  0  0  0  0  0
   39.2050   75.5660   59.9420 N   0  0  0  0  0  0  0  0  0  0  0  0
   40.5350   75.3350   59.7250 C   0  0  0  0  0  0  0  0  0  0  0  0
   41.1330   74.2390   60.2410 N   0  0  0  0  0  0  0  0  0  0  0  0
   38.4760   72.8360   61.8310 H   0  0  0  0  0  0  0  0  0  0  0  0
   37.4620   74.9090   60.8230 H   0  0  0  0  0  0  0  0  0  0  0  0
   42.4210   69.9260   61.6780 C   0  0  0  0  0  0  0  0  0  0  0  0
   42.1450   70.6060   62.8390 C   0  0  0  0  0  0  0  0  0  0  0  0
   41.4750   71.7740   62.7270 C   0  0  0  0  0  0  0  0  0  0  0  0
   41.0970   72.2360   61.4840 C   0  0  0  0  0  0  0  0  0  0  0  0
   41.7250   70.9350   60.3400 S   0  0  0  0  0  0  0  0  0  0  0  0
   42.4410   70.2430   63.8220 H   0  0  0  0  0  0  0  0  0  0  0  0
   41.1660   72.4520   63.5130 H   0  0  0  0  0  0  0  0  0  0  0  0
   45.0960   67.4790   61.0860 C   0  0  0  0  0  0  0  0  0  0  0  0
   44.5230   66.2740   61.5140 C   0  0  0  0  0  0  0  0  0  0  0  0
   43.2250   66.2910   62.0070 C   0  0  0  0  0  0  0  0  0  0  0  0
   42.5840   67.4780   62.0440 N   0  0  0  0  0  0  0  0  0  0  0  0
   43.1520   68.6320   61.6270 C   0  0  0  0  0  0  0  0  0  0  0  0
   44.3850   68.6120   61.1600 N   0  0  0  0  0  0  0  0  0  0  0  0
   46.1130   67.4320   60.7060 H   0  0  0  0  0  0  0  0  0  0  0  0
   45.0520   65.3270   61.4790 H   0  0  0  0  0  0  0  0  0  0  0  0
   42.7190   65.3990   62.3550 H   0  0  0  0  0  0  0  0  0  0  0  0
   41.2630   76.2990   58.9240 C   0  0  0  0  0  0  0  0  0  0  0  0
   42.3850   76.6400   59.3260 O   0  0  0  0  0  0  0  0  0  0  0  0
   40.6960   76.8870   57.6540 C   0  0  1  0  0  0  0  0  0  0  0  0
   41.3040   76.2900   56.4100 C   0  0  0  0  0  0  0  0  0  0  0  0
   39.9040   76.0550   56.7650 C   0  0  2  0  0  0  0  0  0  0  0  0
   40.8350   77.9950   57.6480 H   0  0  0  0  0  0  0  0  0  0  0  0
   41.6370   76.9820   55.6370 H   0  0  0  0  0  0  0  0  0  0  0  0
   42.0480   75.4520   56.5460 H   0  0  0  0  0  0  0  0  0  0  0  0
   39.6950   75.0190   57.1810 H   0  0  0  0  0  0  0  0  0  0  0  0
   38.8650   76.5660   55.9180 N   0  0  1  0  0  0  0  0  0  0  0  0
   37.7010   75.7280   55.9590 C   0  0  0  0  0  3  0  0  0  0  0  0
   37.3160   75.7700   57.0010 H   0  0  0  0  0  0  0  0  0  0  0  0
   36.5800   76.3120   55.0930 C   0  0  0  0  0  3  0  0  0  0  0  0
   35.7190   75.6320   55.1630 H   0  0  0  0  0  0  0  0  0  0  0  0
   36.1970   77.4970   55.7420 O   0  0  0  0  0  0  0  0  0  0  0  0
   37.2450   78.3850   55.6340 C   0  0  0  0  0  2  0  0  0  0  0  0
   38.5280   77.9080   56.2790 C   0  0  0  0  0  2  0  0  0  0  0  0
  1  2  1  0  0  0  0
  1 12  1  0  0  0  0
  2  7  1  0  0  0  0
  3  8  1  0  0  0  0
  3  2  2  0  0  0  0
  4  3  1  0  0  0  0
  5  4  2  0  0  0  0
  5  6  1  0  0  0  0
  6  1  2  0  0  0  0
  9 10  2  0  0  0  0
 10 14  1  0  0  0  0
 11 10  1  0  0  0  0
 11 15  1  0  0  0  0
 12 11  2  0  0  0  0
 13 12  1  0  0  0  0
 13  9  1  0  0  0  0
 16 21  2  0  0  0  0
 16 17  1  0  0  0  0
 17 18  2  0  0  0  0
 18 19  1  0  0  0  0
 18 24  1  0  0  0  0
 20  9  1  0  0  0  0
 20 19  2  0  0  0  0
 21 20  1  0  0  0  0
 22 16  1  0  0  0  0
 23 17  1  0  0  0  0
 25 26  2  0  0  0  0
 25  5  1  0  0  0  0
 27 30  1  6  0  0  0
 27 25  1  0  0  0  0
 28 32  1  0  0  0  0
 28 29  1  0  0  0  0
 28 27  1  0  0  0  0
 29 33  1  1  0  0  0
 29 27  1  0  0  0  0
 31 28  1  0  0  0  0
 34 35  1  0  0  0  0
 34 41  1  1  0  0  0
 34 29  1  0  0  0  0
 35 36  1  0  0  0  0
 37 38  1  0  0  0  0
 37 39  1  0  0  0  0
 37 35  1  0  0  0  0
 40 39  1  0  0  0  0
 40 41  1  0  0  0  0
M  END
>  <minimizedAffinity>
-6.42079353

$$$$

 OpenBabel03212521013D

 41 45  0  0  1  0  0  0  0  0999 V2000
   40.8370   73.5380   60.2660 C   0  0  0  0  0  0  0  0  0  0  0  0
   40.5910   73.5120   61.6130 C   0  0  0  0  0  0  0  0  0  0  0  0
   41.4600   72.6430   62.2980 C   0  0  0  0  0  0  0  0  0  0  0  0
   42.4240   71.9170   61.7080 N   0  0  0  0  0  0  0  0  0  0  0  0
   42.5820   72.0180   60.3530 C   0  0  0  0  0  0  0  0  0  0  0  0
   41.7840   72.8330   59.6290 N   0  0  0  0  0  0  0  0  0  0  0  0
   39.8320   74.0770   62.1190 H   0  0  0  0  0  0  0  0  0  0  0  0
   41.3740   72.5290   63.3720 H   0  0  0  0  0  0  0  0  0  0  0  0
   38.6150   75.3720   57.3900 C   0  0  0  0  0  0  0  0  0  0  0  0
   38.7170   76.1380   58.5250 C   0  0  0  0  0  0  0  0  0  0  0  0
   39.4320   75.6290   59.5520 C   0  0  0  0  0  0  0  0  0  0  0  0
   40.0240   74.3900   59.4330 C   0  0  0  0  0  0  0  0  0  0  0  0
   39.5540   73.8580   57.7330 S   0  0  0  0  0  0  0  0  0  0  0  0
   38.2510   77.1170   58.6220 H   0  0  0  0  0  0  0  0  0  0  0  0
   39.6280   76.0710   60.5220 H   0  0  0  0  0  0  0  0  0  0  0  0
   36.4670   77.3260   55.1400 C   0  0  0  0  0  0  0  0  0  0  0  0
   36.4660   76.5660   53.9630 C   0  0  0  0  0  0  0  0  0  0  0  0
   37.1980   75.3860   53.9310 C   0  0  0  0  0  0  0  0  0  0  0  0
   37.8720   75.0370   55.0470 N   0  0  0  0  0  0  0  0  0  0  0  0
   37.8620   75.7830   56.1740 C   0  0  0  0  0  0  0  0  0  0  0  0
   37.1670   76.9020   56.2010 N   0  0  0  0  0  0  0  0  0  0  0  0
   35.8840   78.2440   55.1330 H   0  0  0  0  0  0  0  0  0  0  0  0
   35.9190   76.8610   53.0740 H   0  0  0  0  0  0  0  0  0  0  0  0
   37.2440   74.7480   53.0570 H   0  0  0  0  0  0  0  0  0  0  0  0
   43.6310   71.2290   59.7370 C   0  0  0  0  0  0  0  0  0  0  0  0
   44.6480   71.8290   59.3620 O   0  0  0  0  0  0  0  0  0  0  0  0
   43.5090   69.7360   59.5420 C   0  0  1  0  0  0  0  0  0  0  0  0
   44.6740   68.9730   60.1200 C   0  0  0  0  0  0  0  0  0  0  0  0
   43.3320   68.8700   60.6950 C   0  0  2  0  0  0  0  0  0  0  0  0
   43.4010   69.4990   58.4560 H   0  0  0  0  0  0  0  0  0  0  0  0
   45.1340   68.2150   59.4870 H   0  0  0  0  0  0  0  0  0  0  0  0
   45.4600   69.5640   60.6730 H   0  0  0  0  0  0  0  0  0  0  0  0
   43.1980   69.4360   61.6700 H   0  0  0  0  0  0  0  0  0  0  0  0
   42.6370   67.6170   60.6440 N   0  0  1  0  0  0  0  0  0  0  0  0
   43.5150   66.5490   60.2610 C   0  0  0  0  0  3  0  0  0  0  0  0
   44.2780   66.4610   61.0670 H   0  0  0  0  0  0  0  0  0  0  0  0
   42.7740   65.2080   60.2630 C   0  0  0  0  0  3  0  0  0  0  0  0
   43.4930   64.4310   59.9640 H   0  0  0  0  0  0  0  0  0  0  0  0
   42.4680   64.9610   61.6110 O   0  0  0  0  0  0  0  0  0  0  0  0
   41.5350   65.8970   62.0010 C   0  0  0  0  0  2  0  0  0  0  0  0
   42.0160   67.3280   61.8990 C   0  0  0  0  0  2  0  0  0  0  0  0
  1  2  1  0  0  0  0
  2  7  1  0  0  0  0
  2  3  2  0  0  0  0
  3  8  1  0  0  0  0
  4  3  1  0  0  0  0
  5  4  2  0  0  0  0
  6  1  2  0  0  0  0
  6  5  1  0  0  0  0
  9 13  1  0  0  0  0
  9 10  2  0  0  0  0
 10 14  1  0  0  0  0
 10 11  1  0  0  0  0
 11 15  1  0  0  0  0
 12 11  2  0  0  0  0
 12  1  1  0  0  0  0
 13 12  1  0  0  0  0
 16 21  1  0  0  0  0
 17 16  2  0  0  0  0
 18 17  1  0  0  0  0
 18 19  2  0  0  0  0
 19 20  1  0  0  0  0
 20 21  2  0  0  0  0
 20  9  1  0  0  0  0
 22 16  1  0  0  0  0
 23 17  1  0  0  0  0
 24 18  1  0  0  0  0
 25  5  1  0  0  0  0
 26 25  2  0  0  0  0
 27 30  1  6  0  0  0
 27 25  1  0  0  0  0
 27 28  1  0  0  0  0
 27 29  1  0  0  0  0
 28 32  1  0  0  0  0
 28 29  1  0  0  0  0
 29 33  1  1  0  0  0
 31 28  1  0  0  0  0
 34 29  1  0  0  0  0
 34 41  1  1  0  0  0
 35 37  1  0  0  0  0
 35 34  1  0  0  0  0
 35 36  1  0  0  0  0
 37 39  1  0  0  0  0
 38 37  1  0  0  0  0
 39 40  1  0  0  0  0
 41 40  1  0  0  0  0
M  END
>  <minimizedAffinity>
-6.35441637

$$$$

 OpenBabel03212521013D

 41 45  0  0  1  0  0  0  0  0999 V2000
   40.4550   72.1360   58.9600 C   0  0  0  0  0  0  0  0  0  0  0  0
   39.3670   72.9460   59.1500 C   0  0  0  0  0  0  0  0  0  0  0  0
   39.2450   73.3730   60.4850 C   0  0  0  0  0  0  0  0  0  0  0  0
   40.0950   73.0330   61.4690 N   0  0  0  0  0  0  0  0  0  0  0  0
   41.1500   72.2170   61.1680 C   0  0  0  0  0  0  0  0  0  0  0  0
   41.3300   71.7670   59.9070 N   0  0  0  0  0  0  0  0  0  0  0  0
   38.6680   73.2390   58.3910 H   0  0  0  0  0  0  0  0  0  0  0  0
   38.4260   74.0200   60.7720 H   0  0  0  0  0  0  0  0  0  0  0  0
   40.4470   70.9150   55.0770 C   0  0  0  0  0  0  0  0  0  0  0  0
   41.6440   70.6490   55.6950 C   0  0  0  0  0  0  0  0  0  0  0  0
   41.7650   71.0120   56.9910 C   0  0  0  0  0  0  0  0  0  0  0  0
   40.7110   71.6230   57.6370 C   0  0  0  0  0  0  0  0  0  0  0  0
   39.4100   71.7130   56.3350 S   0  0  0  0  0  0  0  0  0  0  0  0
   42.4770   70.1660   55.1880 H   0  0  0  0  0  0  0  0  0  0  0  0
   42.6170   70.8920   57.6490 H   0  0  0  0  0  0  0  0  0  0  0  0
   40.0180   68.9730   51.9890 C   0  0  0  0  0  0  0  0  0  0  0  0
   39.6250   69.9420   51.0570 C   0  0  0  0  0  0  0  0  0  0  0  0
   39.5030   71.2600   51.4770 C   0  0  0  0  0  0  0  0  0  0  0  0
   39.7750   71.5330   52.7700 N   0  0  0  0  0  0  0  0  0  0  0  0
   40.1530   70.5850   53.6570 C   0  0  0  0  0  0  0  0  0  0  0  0
   40.2670   69.3340   53.2550 N   0  0  0  0  0  0  0  0  0  0  0  0
   40.1040   67.9500   51.6290 H   0  0  0  0  0  0  0  0  0  0  0  0
   39.4090   69.7060   50.0200 H   0  0  0  0  0  0  0  0  0  0  0  0
   39.2040   72.0610   50.8130 H   0  0  0  0  0  0  0  0  0  0  0  0
   42.0560   71.8650   62.2440 C   0  0  0  0  0  0  0  0  0  0  0  0
   42.3340   72.7510   63.0660 O   0  0  0  0  0  0  0  0  0  0  0  0
   42.6560   70.4860   62.3750 C   0  0  1  0  0  0  0  0  0  0  0  0
   42.1520   69.7400   63.5850 C   0  0  0  0  0  0  0  0  0  0  0  0
   41.8120   69.3140   62.2270 C   0  0  2  0  0  0  0  0  0  0  0  0
   43.7710   70.5540   62.4100 H   0  0  0  0  0  0  0  0  0  0  0  0
   42.8960   69.2540   64.2150 H   0  0  0  0  0  0  0  0  0  0  0  0
   41.3610   70.2420   64.2130 H   0  0  0  0  0  0  0  0  0  0  0  0
   40.7480   69.5590   61.9130 H   0  0  0  0  0  0  0  0  0  0  0  0
   42.2880   68.0500   61.7430 N   0  0  1  0  0  0  0  0  0  0  0  0
   42.6150   67.1680   62.8260 C   0  0  0  0  0  3  0  0  0  0  0  0
   41.6660   66.9660   63.3700 H   0  0  0  0  0  0  0  0  0  0  0  0
   43.0710   65.8040   62.2970 C   0  0  0  0  0  3  0  0  0  0  0  0
   43.3070   65.1730   63.1670 H   0  0  0  0  0  0  0  0  0  0  0  0
   41.9290   65.2420   61.7030 O   0  0  0  0  0  0  0  0  0  0  0  0
   41.6350   65.9900   60.5840 C   0  0  0  0  0  2  0  0  0  0  0  0
   41.3270   67.4430   60.8750 C   0  0  0  0  0  2  0  0  0  0  0  0
  1  2  2  0  0  0  0
  1  6  1  0  0  0  0
  2  3  1  0  0  0  0
  3  8  1  0  0  0  0
  3  4  2  0  0  0  0
  5  4  1  0  0  0  0
  5 25  1  0  0  0  0
  6  5  2  0  0  0  0
  7  2  1  0  0  0  0
  9 10  2  0  0  0  0
  9 13  1  0  0  0  0
 10 11  1  0  0  0  0
 11 12  2  0  0  0  0
 11 15  1  0  0  0  0
 12  1  1  0  0  0  0
 13 12  1  0  0  0  0
 14 10  1  0  0  0  0
 16 21  1  0  0  0  0
 17 18  1  0  0  0  0
 17 16  2  0  0  0  0
 18 19  2  0  0  0  0
 19 20  1  0  0  0  0
 20  9  1  0  0  0  0
 21 20  2  0  0  0  0
 22 16  1  0  0  0  0
 23 17  1  0  0  0  0
 24 18  1  0  0  0  0
 25 27  1  0  0  0  0
 25 26  2  0  0  0  0
 27 30  1  6  0  0  0
 27 28  1  0  0  0  0
 28 32  1  0  0  0  0
 28 31  1  0  0  0  0
 29 33  1  6  0  0  0
 29 27  1  0  0  0  0
 29 28  1  0  0  0  0
 34 41  1  6  0  0  0
 34 29  1  0  0  0  0
 34 35  1  0  0  0  0
 35 36  1  0  0  0  0
 37 35  1  0  0  0  0
 37 38  1  0  0  0  0
 39 37  1  0  0  0  0
 40 41  1  0  0  0  0
 40 39  1  0  0  0  0
M  END
>  <minimizedAffinity>
-6.07046556

$$$$

 OpenBabel03212521013D

 41 45  0  0  1  0  0  0  0  0999 V2000
   41.0150   72.8320   60.8820 C   0  0  0  0  0  0  0  0  0  0  0  0
   41.3620   72.9000   62.2060 C   0  0  0  0  0  0  0  0  0  0  0  0
   41.9750   71.7170   62.6590 C   0  0  0  0  0  0  0  0  0  0  0  0
   42.1990   70.6380   61.8890 N   0  0  0  0  0  0  0  0  0  0  0  0
   41.8110   70.6780   60.5790 C   0  0  0  0  0  0  0  0  0  0  0  0
   41.2150   71.7810   60.0740 N   0  0  0  0  0  0  0  0  0  0  0  0
   41.2000   73.7420   62.8500 H   0  0  0  0  0  0  0  0  0  0  0  0
   42.3000   71.6380   63.6890 H   0  0  0  0  0  0  0  0  0  0  0  0
   39.1110   75.5850   58.5650 C   0  0  0  0  0  0  0  0  0  0  0  0
   39.4800   76.1060   59.7810 C   0  0  0  0  0  0  0  0  0  0  0  0
   40.1200   75.2810   60.6390 C   0  0  0  0  0  0  0  0  0  0  0  0
   40.3790   73.9750   60.2770 C   0  0  0  0  0  0  0  0  0  0  0  0
   39.6710   73.8590   58.5800 S   0  0  0  0  0  0  0  0  0  0  0  0
   39.2780   77.1350   60.0700 H   0  0  0  0  0  0  0  0  0  0  0  0
   40.4880   75.4960   61.6340 H   0  0  0  0  0  0  0  0  0  0  0  0
   36.8020   76.3870   55.8230 C   0  0  0  0  0  0  0  0  0  0  0  0
   37.0680   77.7390   55.5710 C   0  0  0  0  0  0  0  0  0  0  0  0
   38.0340   78.3830   56.3330 C   0  0  0  0  0  0  0  0  0  0  0  0
   38.6670   77.6610   57.2810 N   0  0  0  0  0  0  0  0  0  0  0  0
   38.3970   76.3560   57.5130 C   0  0  0  0  0  0  0  0  0  0  0  0
   37.4790   75.7480   56.7870 N   0  0  0  0  0  0  0  0  0  0  0  0
   36.0410   75.9120   55.2090 H   0  0  0  0  0  0  0  0  0  0  0  0
   36.5500   78.3060   54.8040 H   0  0  0  0  0  0  0  0  0  0  0  0
   38.2920   79.4250   56.1940 H   0  0  0  0  0  0  0  0  0  0  0  0
   42.0660   69.5050   59.7660 C   0  0  0  0  0  0  0  0  0  0  0  0
   41.9820   69.6360   58.5360 O   0  0  0  0  0  0  0  0  0  0  0  0
   42.4120   68.1650   60.3700 C   0  0  1  0  0  0  0  0  0  0  0  0
   41.2810   67.1720   60.2800 C   0  0  0  0  0  0  0  0  0  0  0  0
   42.5160   66.9940   59.5160 C   0  0  2  0  0  0  0  0  0  0  0  0
   42.7210   68.2920   61.4360 H   0  0  0  0  0  0  0  0  0  0  0  0
   41.0300   66.6200   61.1850 H   0  0  0  0  0  0  0  0  0  0  0  0
   40.3460   67.4960   59.7370 H   0  0  0  0  0  0  0  0  0  0  0  0
   42.4190   67.2310   58.4090 H   0  0  0  0  0  0  0  0  0  0  0  0
   43.3700   65.8780   59.8030 N   0  0  1  0  0  0  0  0  0  0  0  0
   44.6070   65.9710   59.0820 C   0  0  0  0  0  3  0  0  0  0  0  0
   45.1270   66.8790   59.4590 H   0  0  0  0  0  0  0  0  0  0  0  0
   45.5320   64.8020   59.4380 C   0  0  0  0  0  3  0  0  0  0  0  0
   46.4600   64.9250   58.8590 H   0  0  0  0  0  0  0  0  0  0  0  0
   45.8800   65.0070   60.7830 O   0  0  0  0  0  0  0  0  0  0  0  0
   44.7420   64.8170   61.5370 C   0  0  0  0  0  2  0  0  0  0  0  0
   43.6160   65.7730   61.2080 C   0  0  0  0  0  2  0  0  0  0  0  0
  1  2  1  0  0  0  0
  2  3  2  0  0  0  0
  2  7  1  0  0  0  0
  3  8  1  0  0  0  0
  4  3  1  0  0  0  0
  5  4  2  0  0  0  0
  6  5  1  0  0  0  0
  6  1  2  0  0  0  0
  9 13  1  0  0  0  0
  9 10  2  0  0  0  0
 10 14  1  0  0  0  0
 10 11  1  0  0  0  0
 11 15  1  0  0  0  0
 12 11  2  0  0  0  0
 12  1  1  0  0  0  0
 13 12  1  0  0  0  0
 16 21  1  0  0  0  0
 17 16  2  0  0  0  0
 17 18  1  0  0  0  0
 18 19  2  0  0  0  0
 19 20  1  0  0  0  0
 20  9  1  0  0  0  0
 21 20  2  0  0  0  0
 22 16  1  0  0  0  0
 23 17  1  0  0  0  0
 24 18  1  0  0  0  0
 25 27  1  0  0  0  0
 25  5  1  0  0  0  0
 26 25  2  0  0  0  0
 27 30  1  1  0  0  0
 28 27  1  0  0  0  0
 28 31  1  0  0  0  0
 29 33  1  6  0  0  0
 29 34  1  0  0  0  0
 29 28  1  0  0  0  0
 29 27  1  0  0  0  0
 32 28  1  0  0  0  0
 34 41  1  1  0  0  0
 35 37  1  0  0  0  0
 35 36  1  0  0  0  0
 35 34  1  0  0  0  0
 37 39  1  0  0  0  0
 38 37  1  0  0  0  0
 39 40  1  0  0  0  0
 41 40  1  0  0  0  0
M  END
>  <minimizedAffinity>
-5.96732473

$$$$

 OpenBabel03212521013D

 41 45  0  0  1  0  0  0  0  0999 V2000
   40.0040   75.0720   59.5260 C   0  0  0  0  0  0  0  0  0  0  0  0
   40.3330   76.3340   59.9450 C   0  0  0  0  0  0  0  0  0  0  0  0
   39.7200   77.3330   59.1670 C   0  0  0  0  0  0  0  0  0  0  0  0
   38.9020   77.0870   58.1280 N   0  0  0  0  0  0  0  0  0  0  0  0
   38.6420   75.7870   57.7940 C   0  0  0  0  0  0  0  0  0  0  0  0
   39.1960   74.7750   58.4970 N   0  0  0  0  0  0  0  0  0  0  0  0
   40.9800   76.5680   60.7680 H   0  0  0  0  0  0  0  0  0  0  0  0
   39.8950   78.3770   59.3920 H   0  0  0  0  0  0  0  0  0  0  0  0
   41.8290   71.6720   60.8230 C   0  0  0  0  0  0  0  0  0  0  0  0
   41.2140   72.3470   61.8490 C   0  0  0  0  0  0  0  0  0  0  0  0
   40.5740   73.4960   61.5380 C   0  0  0  0  0  0  0  0  0  0  0  0
   40.5570   73.9440   60.2330 C   0  0  0  0  0  0  0  0  0  0  0  0
   41.5210   72.6580   59.3320 S   0  0  0  0  0  0  0  0  0  0  0  0
   41.2250   71.9950   62.8790 H   0  0  0  0  0  0  0  0  0  0  0  0
   40.0350   74.1670   62.1940 H   0  0  0  0  0  0  0  0  0  0  0  0
   42.6760   68.2740   61.9330 C   0  0  0  0  0  0  0  0  0  0  0  0
   43.9250   68.0500   61.3410 C   0  0  0  0  0  0  0  0  0  0  0  0
   44.4840   69.0540   60.5610 C   0  0  0  0  0  0  0  0  0  0  0  0
   43.7840   70.1990   60.4190 N   0  0  0  0  0  0  0  0  0  0  0  0
   42.5780   70.3990   60.9970 C   0  0  0  0  0  0  0  0  0  0  0  0
   42.0510   69.4430   61.7370 N   0  0  0  0  0  0  0  0  0  0  0  0
   42.2670   67.4690   62.5370 H   0  0  0  0  0  0  0  0  0  0  0  0
   44.4760   67.1230   61.4640 H   0  0  0  0  0  0  0  0  0  0  0  0
   45.4450   68.9520   60.0730 H   0  0  0  0  0  0  0  0  0  0  0  0
   37.7550   75.5450   56.6740 C   0  0  0  0  0  0  0  0  0  0  0  0
   36.6580   76.1230   56.6810 O   0  0  0  0  0  0  0  0  0  0  0  0
   38.1250   74.6240   55.5350 C   0  0  1  0  0  0  0  0  0  0  0  0
   38.5730   75.3680   54.3020 C   0  0  0  0  0  0  0  0  0  0  0  0
   39.5040   74.5530   55.0830 C   0  0  2  0  0  0  0  0  0  0  0  0
   37.2630   73.9590   55.2840 H   0  0  0  0  0  0  0  0  0  0  0  0
   38.1350   75.0640   53.3520 H   0  0  0  0  0  0  0  0  0  0  0  0
   38.6430   76.4920   54.3700 H   0  0  0  0  0  0  0  0  0  0  0  0
   40.2230   75.1520   55.7270 H   0  0  0  0  0  0  0  0  0  0  0  0
   40.0840   73.3820   54.4930 N   0  0  1  0  0  0  0  0  0  0  0  0
   39.6560   72.1910   55.1710 C   0  0  0  0  0  3  0  0  0  0  0  0
   38.5570   72.1170   55.0180 H   0  0  0  0  0  0  0  0  0  0  0  0
   40.2390   70.9440   54.4990 C   0  0  0  0  0  3  0  0  0  0  0  0
   39.8790   70.0670   55.0570 H   0  0  0  0  0  0  0  0  0  0  0  0
   39.6230   70.8860   53.2390 O   0  0  0  0  0  0  0  0  0  0  0  0
   40.0890   71.9520   52.5010 C   0  0  0  0  0  2  0  0  0  0  0  0
   39.7710   73.3040   53.1010 C   0  0  0  0  0  2  0  0  0  0  0  0
  1  2  1  0  0  0  0
  1 12  1  0  0  0  0
  2  7  1  0  0  0  0
  3  8  1  0  0  0  0
  3  2  2  0  0  0  0
  4  3  1  0  0  0  0
  5  4  2  0  0  0  0
  5  6  1  0  0  0  0
  6  1  2  0  0  0  0
  9 20  1  0  0  0  0
  9 10  2  0  0  0  0
 10 14  1  0  0  0  0
 11 10  1  0  0  0  0
 11 15  1  0  0  0  0
 12 11  2  0  0  0  0
 13 12  1  0  0  0  0
 13  9  1  0  0  0  0
 16 22  1  0  0  0  0
 17 23  1  0  0  0  0
 17 16  2  0  0  0  0
 18 17  1  0  0  0  0
 19 18  2  0  0  0  0
 19 20  1  0  0  0  0
 20 21  2  0  0  0  0
 21 16  1  0  0  0  0
 24 18  1  0  0  0  0
 25 26  2  0  0  0  0
 25  5  1  0  0  0  0
 27 30  1  6  0  0  0
 27 25  1  0  0  0  0
 28 32  1  0  0  0  0
 28 29  1  0  0  0  0
 28 27  1  0  0  0  0
 29 27  1  0  0  0  0
 29 33  1  1  0  0  0
 31 28  1  0  0  0  0
 34 41  1  6  0  0  0
 34 29  1  0  0  0  0
 34 35  1  0  0  0  0
 36 35  1  0  0  0  0
 37 38  1  0  0  0  0
 37 35  1  0  0  0  0
 39 37  1  0  0  0  0
 40 41  1  0  0  0  0
 40 39  1  0  0  0  0
M  END
>  <minimizedAffinity>
-5.91340303

$$$$

 OpenBabel03212521013D

 41 45  0  0  1  0  0  0  0  0999 V2000
   40.0280   72.6970   59.0540 C   0  0  0  0  0  0  0  0  0  0  0  0
   39.0850   73.2970   59.8460 C   0  0  0  0  0  0  0  0  0  0  0  0
   39.4570   73.3120   61.2030 C   0  0  0  0  0  0  0  0  0  0  0  0
   40.6050   72.7990   61.6780 N   0  0  0  0  0  0  0  0  0  0  0  0
   41.4770   72.2200   60.7980 C   0  0  0  0  0  0  0  0  0  0  0  0
   41.1860   72.1700   59.4790 N   0  0  0  0  0  0  0  0  0  0  0  0
   38.1600   73.7180   59.5030 H   0  0  0  0  0  0  0  0  0  0  0  0
   38.8000   73.7590   61.9380 H   0  0  0  0  0  0  0  0  0  0  0  0
   39.3910   73.2330   55.0690 C   0  0  0  0  0  0  0  0  0  0  0  0
   39.3600   71.9050   55.4200 C   0  0  0  0  0  0  0  0  0  0  0  0
   39.5610   71.6040   56.7210 C   0  0  0  0  0  0  0  0  0  0  0  0
   39.7850   72.6120   57.6360 C   0  0  0  0  0  0  0  0  0  0  0  0
   39.7140   74.1390   56.6080 S   0  0  0  0  0  0  0  0  0  0  0  0
   39.1840   71.1080   54.7000 H   0  0  0  0  0  0  0  0  0  0  0  0
   39.5760   70.6300   57.1940 H   0  0  0  0  0  0  0  0  0  0  0  0
   38.2040   75.2790   52.2590 C   0  0  0  0  0  0  0  0  0  0  0  0
   38.8070   74.6730   51.1490 C   0  0  0  0  0  0  0  0  0  0  0  0
   39.6200   73.5660   51.3540 C   0  0  0  0  0  0  0  0  0  0  0  0
   39.7830   73.1350   52.6220 N   0  0  0  0  0  0  0  0  0  0  0  0
   39.1940   73.7320   53.6820 C   0  0  0  0  0  0  0  0  0  0  0  0
   38.4220   74.7820   53.4840 N   0  0  0  0  0  0  0  0  0  0  0  0
   37.5730   76.1430   52.0650 H   0  0  0  0  0  0  0  0  0  0  0  0
   38.6670   75.0330   50.1350 H   0  0  0  0  0  0  0  0  0  0  0  0
   40.1180   73.0470   50.5440 H   0  0  0  0  0  0  0  0  0  0  0  0
   42.7100   71.6770   61.3310 C   0  0  0  0  0  0  0  0  0  0  0  0
   43.5890   72.4840   61.6680 O   0  0  0  0  0  0  0  0  0  0  0  0
   42.9420   70.1910   61.4740 C   0  0  1  0  0  0  0  0  0  0  0  0
   42.9530   69.7350   62.9110 C   0  0  0  0  0  0  0  0  0  0  0  0
   41.8850   69.3410   61.9920 C   0  0  2  0  0  0  0  0  0  0  0  0
   43.9020   69.9040   60.9780 H   0  0  0  0  0  0  0  0  0  0  0  0
   43.7710   69.0850   63.2210 H   0  0  0  0  0  0  0  0  0  0  0  0
   42.7330   70.5080   63.7030 H   0  0  0  0  0  0  0  0  0  0  0  0
   40.9030   69.8890   62.1550 H   0  0  0  0  0  0  0  0  0  0  0  0
   41.7320   67.9610   61.6360 N   0  0  1  0  0  0  0  0  0  0  0  0
   42.9990   67.2890   61.6030 C   0  0  0  0  0  3  0  0  0  0  0  0
   43.3970   67.3100   62.6420 H   0  0  0  0  0  0  0  0  0  0  0  0
   42.8190   65.8030   61.2750 C   0  0  0  0  0  3  0  0  0  0  0  0
   43.8180   65.3420   61.2640 H   0  0  0  0  0  0  0  0  0  0  0  0
   42.1490   65.2620   62.3840 O   0  0  0  0  0  0  0  0  0  0  0  0
   40.8770   65.7920   62.3980 C   0  0  0  0  0  2  0  0  0  0  0  0
   40.8380   67.2990   62.5340 C   0  0  0  0  0  2  0  0  0  0  0  0
  1  6  2  0  0  0  0
  1  2  1  0  0  0  0
  2  3  2  0  0  0  0
  3  4  1  0  0  0  0
  3  8  1  0  0  0  0
  5 25  1  0  0  0  0
  5  4  2  0  0  0  0
  6  5  1  0  0  0  0
  7  2  1  0  0  0  0
  9 10  2  0  0  0  0
  9 13  1  0  0  0  0
 10 11  1  0  0  0  0
 11 15  1  0  0  0  0
 11 12  2  0  0  0  0
 12  1  1  0  0  0  0
 13 12  1  0  0  0  0
 14 10  1  0  0  0  0
 16 21  1  0  0  0  0
 17 18  1  0  0  0  0
 17 16  2  0  0  0  0
 18 19  2  0  0  0  0
 19 20  1  0  0  0  0
 20  9  1  0  0  0  0
 21 20  2  0  0  0  0
 22 16  1  0  0  0  0
 23 17  1  0  0  0  0
 24 18  1  0  0  0  0
 25 27  1  0  0  0  0
 25 26  2  0  0  0  0
 27 30  1  6  0  0  0
 27 29  1  0  0  0  0
 27 28  1  0  0  0  0
 28 31  1  0  0  0  0
 28 32  1  0  0  0  0
 29 33  1  1  0  0  0
 29 28  1  0  0  0  0
 34 29  1  0  0  0  0
 34 41  1  1  0  0  0
 35 34  1  0  0  0  0
 35 36  1  0  0  0  0
 37 35  1  0  0  0  0
 37 39  1  0  0  0  0
 38 37  1  0  0  0  0
 39 40  1  0  0  0  0
 40 41  1  0  0  0  0
M  END
>  <minimizedAffinity>
-5.8906641

$$$$
