
 OpenBabel03212520583D

 41 45  0  0  1  0  0  0  0  0999 V2000
   39.9420   77.5650   59.0950 C   0  0  0  0  0  0  0  0  0  0  0  0
   40.7140   76.4780   58.7810 C   0  0  0  0  0  0  0  0  0  0  0  0
   40.2240   75.7790   57.6620 C   0  0  0  0  0  0  0  0  0  0  0  0
   39.1240   76.1300   56.9730 N   0  0  0  0  0  0  0  0  0  0  0  0
   38.4260   77.2350   57.3740 C   0  0  0  0  0  0  0  0  0  0  0  0
   38.8370   77.9550   58.4410 N   0  0  0  0  0  0  0  0  0  0  0  0
   41.5960   76.1680   59.3060 H   0  0  0  0  0  0  0  0  0  0  0  0
   40.7420   74.8970   57.3060 H   0  0  0  0  0  0  0  0  0  0  0  0
   40.9890   80.4570   61.7610 C   0  0  0  0  0  0  0  0  0  0  0  0
   40.9540   79.2130   62.3410 C   0  0  0  0  0  0  0  0  0  0  0  0
   40.6160   78.1710   61.5510 C   0  0  0  0  0  0  0  0  0  0  0  0
   40.3250   78.3810   60.2190 C   0  0  0  0  0  0  0  0  0  0  0  0
   40.5340   80.2010   60.0230 S   0  0  0  0  0  0  0  0  0  0  0  0
   41.1840   79.0440   63.3920 H   0  0  0  0  0  0  0  0  0  0  0  0
   40.5310   77.1240   61.8150 H   0  0  0  0  0  0  0  0  0  0  0  0
   42.9430   83.2900   63.0450 C   0  0  0  0  0  0  0  0  0  0  0  0
   42.0110   83.9930   63.8180 C   0  0  0  0  0  0  0  0  0  0  0  0
   40.7140   83.5060   63.9050 C   0  0  0  0  0  0  0  0  0  0  0  0
   40.4240   82.3720   63.2330 N   0  0  0  0  0  0  0  0  0  0  0  0
   41.3370   81.7060   62.4900 C   0  0  0  0  0  0  0  0  0  0  0  0
   42.5680   82.1710   62.4100 N   0  0  0  0  0  0  0  0  0  0  0  0
   43.9500   83.6970   62.9980 H   0  0  0  0  0  0  0  0  0  0  0  0
   42.2590   84.9050   64.3520 H   0  0  0  0  0  0  0  0  0  0  0  0
   39.9410   83.9960   64.4840 H   0  0  0  0  0  0  0  0  0  0  0  0
   37.2460   77.5970   56.6150 C   0  0  0  0  0  0  0  0  0  0  0  0
   36.1880   77.0130   56.8940 O   0  0  0  0  0  0  0  0  0  0  0  0
   37.2790   78.6340   55.5170 C   0  0  1  0  0  0  0  0  0  0  0  0
   37.1880   80.0450   56.0400 C   0  0  0  0  0  0  0  0  0  0  0  0
   38.4100   79.5390   55.4130 C   0  0  2  0  0  0  0  0  0  0  0  0
   36.4540   78.4460   54.7870 H   0  0  0  0  0  0  0  0  0  0  0  0
   36.4760   80.7100   55.5550 H   0  0  0  0  0  0  0  0  0  0  0  0
   37.1680   80.1830   57.1600 H   0  0  0  0  0  0  0  0  0  0  0  0
   39.2470   79.3040   56.1440 H   0  0  0  0  0  0  0  0  0  0  0  0
   38.8570   80.1100   54.1760 N   0  0  1  0  0  0  0  0  0  0  0  0
   40.2000   79.7060   53.8730 C   0  0  0  0  0  3  0  0  0  0  0  0
   40.1760   78.6030   53.7280 H   0  0  0  0  0  0  0  0  0  0  0  0
   40.6460   80.2770   52.5220 C   0  0  0  0  0  3  0  0  0  0  0  0
   41.6780   79.9360   52.3440 H   0  0  0  0  0  0  0  0  0  0  0  0
   39.8490   79.6260   51.5680 O   0  0  0  0  0  0  0  0  0  0  0  0
   38.5550   80.0670   51.7420 C   0  0  0  0  0  2  0  0  0  0  0  0
   37.9750   79.7580   53.1050 C   0  0  0  0  0  2  0  0  0  0  0  0
  1 12  1  0  0  0  0
  2  1  1  0  0  0  0
  2  7  1  0  0  0  0
  3  2  2  0  0  0  0
  4  5  2  0  0  0  0
  4  3  1  0  0  0  0
  5  6  1  0  0  0  0
  6  1  2  0  0  0  0
  8  3  1  0  0  0  0
  9 10  2  0  0  0  0
  9 20  1  0  0  0  0
 10 14  1  0  0  0  0
 11 15  1  0  0  0  0
 11 10  1  0  0  0  0
 12 11  2  0  0  0  0
 13 12  1  0  0  0  0
 13  9  1  0  0  0  0
 16 17  1  0  0  0  0
 17 18  2  0  0  0  0
 17 23  1  0  0  0  0
 18 24  1  0  0  0  0
 19 18  1  0  0  0  0
 20 19  2  0  0  0  0
 21 20  1  0  0  0  0
 21 16  2  0  0  0  0
 22 16  1  0  0  0  0
 25 26  2  0  0  0  0
 25  5  1  0  0  0  0
 27 30  1  6  0  0  0
 27 28  1  0  0  0  0
 27 25  1  0  0  0  0
 28 32  1  0  0  0  0
 29 27  1  0  0  0  0
 29 28  1  0  0  0  0
 29 33  1  1  0  0  0
 31 28  1  0  0  0  0
 34 41  1  6  0  0  0
 34 29  1  0  0  0  0
 35 34  1  0  0  0  0
 36 35  1  0  0  0  0
 37 35  1  0  0  0  0
 38 37  1  0  0  0  0
 39 40  1  0  0  0  0
 39 37  1  0  0  0  0
 40 41  1  0  0  0  0
M  END
>  <minimizedAffinity>
-6.46292925

>  <minimizedRMSD>
0.421803266

$$$$
