
 OpenBabel03212520583D

 41 45  0  0  1  0  0  0  0  0999 V2000
   39.7970   77.4050   59.1730 C   0  0  0  0  0  0  0  0  0  0  0  0
   40.5120   76.2720   58.8860 C   0  0  0  0  0  0  0  0  0  0  0  0
   39.9740   75.5630   57.7960 C   0  0  0  0  0  0  0  0  0  0  0  0
   38.8850   75.9450   57.1080 N   0  0  0  0  0  0  0  0  0  0  0  0
   38.2460   77.0950   57.4810 C   0  0  0  0  0  0  0  0  0  0  0  0
   38.7050   77.8280   58.5190 N   0  0  0  0  0  0  0  0  0  0  0  0
   41.3840   75.9360   59.4120 H   0  0  0  0  0  0  0  0  0  0  0  0
   40.4450   74.6460   57.4630 H   0  0  0  0  0  0  0  0  0  0  0  0
   40.9730   80.3330   61.7450 C   0  0  0  0  0  0  0  0  0  0  0  0
   40.9600   79.0980   62.3460 C   0  0  0  0  0  0  0  0  0  0  0  0
   40.5830   78.0450   61.5870 C   0  0  0  0  0  0  0  0  0  0  0  0
   40.2330   78.2370   60.2670 C   0  0  0  0  0  0  0  0  0  0  0  0
   40.4400   80.0530   60.0330 S   0  0  0  0  0  0  0  0  0  0  0  0
   41.2360   78.9440   63.3870 H   0  0  0  0  0  0  0  0  0  0  0  0
   40.5060   77.0030   61.8700 H   0  0  0  0  0  0  0  0  0  0  0  0
   43.0020   83.1600   62.9220 C   0  0  0  0  0  0  0  0  0  0  0  0
   42.0990   83.8950   63.7010 C   0  0  0  0  0  0  0  0  0  0  0  0
   40.7970   83.4310   63.8280 C   0  0  0  0  0  0  0  0  0  0  0  0
   40.4740   82.2880   63.1880 N   0  0  0  0  0  0  0  0  0  0  0  0
   41.3580   81.5910   62.4390 C   0  0  0  0  0  0  0  0  0  0  0  0
   42.5940   82.0340   62.3210 N   0  0  0  0  0  0  0  0  0  0  0  0
   44.0140   83.5500   62.8430 H   0  0  0  0  0  0  0  0  0  0  0  0
   42.3740   84.8140   64.2090 H   0  0  0  0  0  0  0  0  0  0  0  0
   40.0460   83.9460   64.4130 H   0  0  0  0  0  0  0  0  0  0  0  0
   37.0760   77.4910   56.7220 C   0  0  0  0  0  0  0  0  0  0  0  0
   35.9790   77.0560   57.1010 O   0  0  0  0  0  0  0  0  0  0  0  0
   37.1640   78.3880   55.5110 C   0  0  1  0  0  0  0  0  0  0  0  0
   37.3500   79.8410   55.8700 C   0  0  0  0  0  0  0  0  0  0  0  0
   38.4080   79.0750   55.2110 C   0  0  2  0  0  0  0  0  0  0  0  0
   36.2520   78.2680   54.8770 H   0  0  0  0  0  0  0  0  0  0  0  0
   36.7070   80.5630   55.3690 H   0  0  0  0  0  0  0  0  0  0  0  0
   37.4620   80.0960   56.9640 H   0  0  0  0  0  0  0  0  0  0  0  0
   39.2660   78.7790   55.8940 H   0  0  0  0  0  0  0  0  0  0  0  0
   38.8160   79.4320   53.8830 N   0  0  1  0  0  0  0  0  0  0  0  0
   39.5290   78.3590   53.2520 C   0  0  0  0  0  3  0  0  0  0  0  0
   38.8110   77.5140   53.1520 H   0  0  0  0  0  0  0  0  0  0  0  0
   39.9100   78.7300   51.8160 C   0  0  0  0  0  3  0  0  0  0  0  0
   40.4520   77.8740   51.3840 H   0  0  0  0  0  0  0  0  0  0  0  0
   38.6930   78.8130   51.1220 O   0  0  0  0  0  0  0  0  0  0  0  0
   38.0100   79.9030   51.6140 C   0  0  0  0  0  2  0  0  0  0  0  0
   37.6880   79.8160   53.0910 C   0  0  0  0  0  2  0  0  0  0  0  0
  1 12  1  0  0  0  0
  2  1  1  0  0  0  0
  2  7  1  0  0  0  0
  3  2  2  0  0  0  0
  4  5  2  0  0  0  0
  4  3  1  0  0  0  0
  5  6  1  0  0  0  0
  6  1  2  0  0  0  0
  8  3  1  0  0  0  0
  9 10  2  0  0  0  0
  9 20  1  0  0  0  0
 10 14  1  0  0  0  0
 11 15  1  0  0  0  0
 11 10  1  0  0  0  0
 12 11  2  0  0  0  0
 13 12  1  0  0  0  0
 13  9  1  0  0  0  0
 16 17  1  0  0  0  0
 17 18  2  0  0  0  0
 17 23  1  0  0  0  0
 18 24  1  0  0  0  0
 19 18  1  0  0  0  0
 20 19  2  0  0  0  0
 21 20  1  0  0  0  0
 21 16  2  0  0  0  0
 22 16  1  0  0  0  0
 25 26  2  0  0  0  0
 25  5  1  0  0  0  0
 27 30  1  6  0  0  0
 27 28  1  0  0  0  0
 27 25  1  0  0  0  0
 28 32  1  0  0  0  0
 29 27  1  0  0  0  0
 29 28  1  0  0  0  0
 29 33  1  1  0  0  0
 31 28  1  0  0  0  0
 34 41  1  6  0  0  0
 34 29  1  0  0  0  0
 35 34  1  0  0  0  0
 36 35  1  0  0  0  0
 37 35  1  0  0  0  0
 38 37  1  0  0  0  0
 39 40  1  0  0  0  0
 39 37  1  0  0  0  0
 40 41  1  0  0  0  0
M  END
>  <minimizedAffinity>
-6.40742683

>  <minimizedRMSD>
0.25454542

$$$$
