
 OpenBabel03212520583D

 41 45  0  0  1  0  0  0  0  0999 V2000
   39.7280   77.2570   59.2480 C   0  0  0  0  0  0  0  0  0  0  0  0
   40.3900   76.0810   59.0110 C   0  0  0  0  0  0  0  0  0  0  0  0
   39.8300   75.3580   57.9420 C   0  0  0  0  0  0  0  0  0  0  0  0
   38.7680   75.7660   57.2270 N   0  0  0  0  0  0  0  0  0  0  0  0
   38.1810   76.9580   57.5500 C   0  0  0  0  0  0  0  0  0  0  0  0
   38.6640   77.7070   58.5660 N   0  0  0  0  0  0  0  0  0  0  0  0
   41.2400   75.7240   59.5590 H   0  0  0  0  0  0  0  0  0  0  0  0
   40.2600   74.4090   57.6480 H   0  0  0  0  0  0  0  0  0  0  0  0
   40.9740   80.2280   61.7370 C   0  0  0  0  0  0  0  0  0  0  0  0
   40.9700   79.0040   62.3610 C   0  0  0  0  0  0  0  0  0  0  0  0
   40.5720   77.9390   61.6310 C   0  0  0  0  0  0  0  0  0  0  0  0
   40.1920   78.1070   60.3160 C   0  0  0  0  0  0  0  0  0  0  0  0
   40.4000   79.9170   60.0430 S   0  0  0  0  0  0  0  0  0  0  0  0
   41.2700   78.8690   63.3980 H   0  0  0  0  0  0  0  0  0  0  0  0
   40.4980   76.9020   61.9350 H   0  0  0  0  0  0  0  0  0  0  0  0
   43.0390   83.0690   62.8130 C   0  0  0  0  0  0  0  0  0  0  0  0
   42.1580   83.8210   63.5990 C   0  0  0  0  0  0  0  0  0  0  0  0
   40.8560   83.3650   63.7650 C   0  0  0  0  0  0  0  0  0  0  0  0
   40.5150   82.2110   63.1540 N   0  0  0  0  0  0  0  0  0  0  0  0
   41.3790   81.4970   62.3980 C   0  0  0  0  0  0  0  0  0  0  0  0
   42.6130   81.9330   62.2430 N   0  0  0  0  0  0  0  0  0  0  0  0
   44.0500   83.4520   62.7030 H   0  0  0  0  0  0  0  0  0  0  0  0
   42.4470   84.7480   64.0840 H   0  0  0  0  0  0  0  0  0  0  0  0
   40.1210   83.8940   64.3580 H   0  0  0  0  0  0  0  0  0  0  0  0
   37.0390   77.3810   56.7640 C   0  0  0  0  0  0  0  0  0  0  0  0
   35.9150   77.0530   57.1720 O   0  0  0  0  0  0  0  0  0  0  0  0
   37.1860   78.1800   55.4910 C   0  0  1  0  0  0  0  0  0  0  0  0
   37.3900   79.6520   55.7440 C   0  0  0  0  0  0  0  0  0  0  0  0
   38.4530   78.8190   55.1820 C   0  0  2  0  0  0  0  0  0  0  0  0
   36.2920   78.0290   54.8380 H   0  0  0  0  0  0  0  0  0  0  0  0
   36.7790   80.3460   55.1670 H   0  0  0  0  0  0  0  0  0  0  0  0
   37.4720   79.9890   56.8190 H   0  0  0  0  0  0  0  0  0  0  0  0
   39.2810   78.5600   55.9150 H   0  0  0  0  0  0  0  0  0  0  0  0
   38.9110   79.0640   53.8450 N   0  0  1  0  0  0  0  0  0  0  0  0
   37.9190   79.7570   53.0750 C   0  0  0  0  0  3  0  0  0  0  0  0
   37.7810   80.7510   53.5540 H   0  0  0  0  0  0  0  0  0  0  0  0
   38.4400   80.0610   51.6660 C   0  0  0  0  0  3  0  0  0  0  0  0
   37.6410   80.5900   51.1240 H   0  0  0  0  0  0  0  0  0  0  0  0
   39.4710   80.9950   51.8510 O   0  0  0  0  0  0  0  0  0  0  0  0
   40.5050   80.3480   52.4940 C   0  0  0  0  0  2  0  0  0  0  0  0
   40.1390   79.7970   53.8540 C   0  0  0  0  0  2  0  0  0  0  0  0
  1 12  1  0  0  0  0
  2  1  1  0  0  0  0
  2  7  1  0  0  0  0
  3  2  2  0  0  0  0
  4  5  2  0  0  0  0
  4  3  1  0  0  0  0
  5  6  1  0  0  0  0
  6  1  2  0  0  0  0
  8  3  1  0  0  0  0
  9 10  2  0  0  0  0
  9 20  1  0  0  0  0
 10 14  1  0  0  0  0
 11 15  1  0  0  0  0
 11 10  1  0  0  0  0
 12 11  2  0  0  0  0
 13 12  1  0  0  0  0
 13  9  1  0  0  0  0
 16 17  1  0  0  0  0
 17 18  2  0  0  0  0
 17 23  1  0  0  0  0
 18 24  1  0  0  0  0
 19 18  1  0  0  0  0
 20 19  2  0  0  0  0
 21 20  1  0  0  0  0
 21 16  2  0  0  0  0
 22 16  1  0  0  0  0
 25 26  2  0  0  0  0
 25  5  1  0  0  0  0
 27 30  1  6  0  0  0
 27 28  1  0  0  0  0
 27 25  1  0  0  0  0
 28 32  1  0  0  0  0
 29 27  1  0  0  0  0
 29 28  1  0  0  0  0
 29 33  1  1  0  0  0
 31 28  1  0  0  0  0
 34 41  1  1  0  0  0
 34 29  1  0  0  0  0
 35 36  1  0  0  0  0
 35 34  1  0  0  0  0
 37 39  1  0  0  0  0
 37 35  1  0  0  0  0
 38 37  1  0  0  0  0
 39 40  1  0  0  0  0
 40 41  1  0  0  0  0
M  END
>  <minimizedAffinity>
-6.49926519

>  <minimizedRMSD>
0.402504981

$$$$
