
 OpenBabel03212520583D

 41 45  0  0  1  0  0  0  0  0999 V2000
   39.8860   77.6110   59.0910 C   0  0  0  0  0  0  0  0  0  0  0  0
   40.6050   76.4810   58.8020 C   0  0  0  0  0  0  0  0  0  0  0  0
   40.1000   75.7980   57.6800 C   0  0  0  0  0  0  0  0  0  0  0  0
   39.0360   76.2010   56.9650 N   0  0  0  0  0  0  0  0  0  0  0  0
   38.3900   77.3460   57.3430 C   0  0  0  0  0  0  0  0  0  0  0  0
   38.8180   78.0530   58.4110 N   0  0  0  0  0  0  0  0  0  0  0  0
   41.4590   76.1290   59.3480 H   0  0  0  0  0  0  0  0  0  0  0  0
   40.5780   74.8870   57.3420 H   0  0  0  0  0  0  0  0  0  0  0  0
   40.9810   80.4780   61.7650 C   0  0  0  0  0  0  0  0  0  0  0  0
   40.9600   79.2280   62.3340 C   0  0  0  0  0  0  0  0  0  0  0  0
   40.6080   78.1930   61.5390 C   0  0  0  0  0  0  0  0  0  0  0  0
   40.2900   78.4160   60.2160 C   0  0  0  0  0  0  0  0  0  0  0  0
   40.4920   80.2390   60.0340 S   0  0  0  0  0  0  0  0  0  0  0  0
   41.2110   79.0480   63.3770 H   0  0  0  0  0  0  0  0  0  0  0  0
   40.5310   77.1430   61.7940 H   0  0  0  0  0  0  0  0  0  0  0  0
   42.9590   83.2930   63.0510 C   0  0  0  0  0  0  0  0  0  0  0  0
   42.0370   83.9940   63.8390 C   0  0  0  0  0  0  0  0  0  0  0  0
   40.7390   83.5110   63.9350 C   0  0  0  0  0  0  0  0  0  0  0  0
   40.4380   82.3840   63.2570 N   0  0  0  0  0  0  0  0  0  0  0  0
   41.3410   81.7200   62.5000 C   0  0  0  0  0  0  0  0  0  0  0  0
   42.5730   82.1810   62.4120 N   0  0  0  0  0  0  0  0  0  0  0  0
   43.9670   83.6970   62.9980 H   0  0  0  0  0  0  0  0  0  0  0  0
   42.2940   84.9010   64.3780 H   0  0  0  0  0  0  0  0  0  0  0  0
   39.9740   84.0000   64.5240 H   0  0  0  0  0  0  0  0  0  0  0  0
   37.2460   77.7630   56.5560 C   0  0  0  0  0  0  0  0  0  0  0  0
   36.1460   77.2700   56.8460 O   0  0  0  0  0  0  0  0  0  0  0  0
   37.3650   78.7500   55.4190 C   0  0  1  0  0  0  0  0  0  0  0  0
   37.2560   80.1830   55.8740 C   0  0  0  0  0  0  0  0  0  0  0  0
   38.5110   79.6400   55.3530 C   0  0  2  0  0  0  0  0  0  0  0  0
   36.5890   78.5380   54.6440 H   0  0  0  0  0  0  0  0  0  0  0  0
   36.5850   80.8330   55.3130 H   0  0  0  0  0  0  0  0  0  0  0  0
   37.1620   80.3720   56.9820 H   0  0  0  0  0  0  0  0  0  0  0  0
   39.2940   79.4300   56.1480 H   0  0  0  0  0  0  0  0  0  0  0  0
   39.0470   80.1520   54.1250 N   0  0  1  0  0  0  0  0  0  0  0  0
   40.4670   79.9610   54.0580 C   0  0  0  0  0  3  0  0  0  0  0  0
   40.6410   78.8620   54.0510 H   0  0  0  0  0  0  0  0  0  0  0  0
   41.0200   80.4610   52.7190 C   0  0  0  0  0  3  0  0  0  0  0  0
   42.1070   80.2910   52.7250 H   0  0  0  0  0  0  0  0  0  0  0  0
   40.4910   79.5880   51.7560 O   0  0  0  0  0  0  0  0  0  0  0  0
   39.1320   79.8090   51.6980 C   0  0  0  0  0  2  0  0  0  0  0  0
   38.4070   79.5440   52.9990 C   0  0  0  0  0  2  0  0  0  0  0  0
  1 12  1  0  0  0  0
  2  1  1  0  0  0  0
  2  7  1  0  0  0  0
  3  2  2  0  0  0  0
  4  5  2  0  0  0  0
  4  3  1  0  0  0  0
  5  6  1  0  0  0  0
  6  1  2  0  0  0  0
  8  3  1  0  0  0  0
  9 10  2  0  0  0  0
  9 20  1  0  0  0  0
 10 14  1  0  0  0  0
 11 15  1  0  0  0  0
 11 10  1  0  0  0  0
 12 11  2  0  0  0  0
 13 12  1  0  0  0  0
 13  9  1  0  0  0  0
 16 17  1  0  0  0  0
 17 18  2  0  0  0  0
 17 23  1  0  0  0  0
 18 24  1  0  0  0  0
 19 18  1  0  0  0  0
 20 19  2  0  0  0  0
 21 20  1  0  0  0  0
 21 16  2  0  0  0  0
 22 16  1  0  0  0  0
 25 26  2  0  0  0  0
 25  5  1  0  0  0  0
 27 30  1  6  0  0  0
 27 28  1  0  0  0  0
 27 25  1  0  0  0  0
 28 32  1  0  0  0  0
 29 27  1  0  0  0  0
 29 28  1  0  0  0  0
 29 33  1  1  0  0  0
 31 28  1  0  0  0  0
 34 41  1  6  0  0  0
 34 29  1  0  0  0  0
 35 34  1  0  0  0  0
 36 35  1  0  0  0  0
 37 38  1  0  0  0  0
 37 35  1  0  0  0  0
 39 37  1  0  0  0  0
 40 39  1  0  0  0  0
 40 41  1  0  0  0  0
M  END
>  <minimizedAffinity>
-6.41444683

>  <minimizedRMSD>
0.395548344

$$$$
