
 OpenBabel03212520583D

 41 45  0  0  1  0  0  0  0  0999 V2000
   39.6380   77.1460   59.1500 C   0  0  0  0  0  0  0  0  0  0  0  0
   40.2810   75.9620   58.9060 C   0  0  0  0  0  0  0  0  0  0  0  0
   39.7000   75.2470   57.8430 C   0  0  0  0  0  0  0  0  0  0  0  0
   38.6360   75.6690   57.1390 N   0  0  0  0  0  0  0  0  0  0  0  0
   38.0690   76.8690   57.4690 C   0  0  0  0  0  0  0  0  0  0  0  0
   38.5730   77.6110   58.4790 N   0  0  0  0  0  0  0  0  0  0  0  0
   41.1330   75.5930   59.4440 H   0  0  0  0  0  0  0  0  0  0  0  0
   40.1130   74.2920   57.5450 H   0  0  0  0  0  0  0  0  0  0  0  0
   40.9590   80.0990   61.6220 C   0  0  0  0  0  0  0  0  0  0  0  0
   40.9340   78.8770   62.2490 C   0  0  0  0  0  0  0  0  0  0  0  0
   40.5100   77.8180   61.5250 C   0  0  0  0  0  0  0  0  0  0  0  0
   40.1260   77.9900   60.2120 C   0  0  0  0  0  0  0  0  0  0  0  0
   40.3690   79.7950   59.9330 S   0  0  0  0  0  0  0  0  0  0  0  0
   41.2380   78.7390   63.2850 H   0  0  0  0  0  0  0  0  0  0  0  0
   40.4180   76.7840   61.8330 H   0  0  0  0  0  0  0  0  0  0  0  0
   43.0920   82.8920   62.6910 C   0  0  0  0  0  0  0  0  0  0  0  0
   42.2260   83.6730   63.4670 C   0  0  0  0  0  0  0  0  0  0  0  0
   40.9120   83.2520   63.6280 C   0  0  0  0  0  0  0  0  0  0  0  0
   40.5440   82.1040   63.0230 N   0  0  0  0  0  0  0  0  0  0  0  0
   41.3930   81.3620   62.2770 C   0  0  0  0  0  0  0  0  0  0  0  0
   42.6390   81.7640   62.1260 N   0  0  0  0  0  0  0  0  0  0  0  0
   44.1140   83.2480   62.5850 H   0  0  0  0  0  0  0  0  0  0  0  0
   42.5370   84.5950   63.9470 H   0  0  0  0  0  0  0  0  0  0  0  0
   40.1880   83.8040   64.2130 H   0  0  0  0  0  0  0  0  0  0  0  0
   36.9240   77.3070   56.6950 C   0  0  0  0  0  0  0  0  0  0  0  0
   35.8030   77.1540   57.2020 O   0  0  0  0  0  0  0  0  0  0  0  0
   37.0640   77.9200   55.3220 C   0  0  1  0  0  0  0  0  0  0  0  0
   37.4390   79.3800   55.3670 C   0  0  0  0  0  0  0  0  0  0  0  0
   38.3670   78.3680   54.8600 C   0  0  2  0  0  0  0  0  0  0  0  0
   36.1160   77.7900   54.7450 H   0  0  0  0  0  0  0  0  0  0  0  0
   36.8650   80.0600   54.7390 H   0  0  0  0  0  0  0  0  0  0  0  0
   37.6310   79.8360   56.3810 H   0  0  0  0  0  0  0  0  0  0  0  0
   39.2120   78.1110   55.5740 H   0  0  0  0  0  0  0  0  0  0  0  0
   38.7530   78.3910   53.4790 N   0  0  1  0  0  0  0  0  0  0  0  0
   39.2330   79.6870   53.0950 C   0  0  0  0  0  3  0  0  0  0  0  0
   40.1560   79.8730   53.6900 H   0  0  0  0  0  0  0  0  0  0  0  0
   39.6940   79.6840   51.6340 C   0  0  0  0  0  3  0  0  0  0  0  0
   40.0500   80.6980   51.3960 H   0  0  0  0  0  0  0  0  0  0  0  0
   40.8270   78.8550   51.6090 O   0  0  0  0  0  0  0  0  0  0  0  0
   40.4020   77.5690   51.8620 C   0  0  0  0  0  2  0  0  0  0  0  0
   39.7390   77.3910   53.2100 C   0  0  0  0  0  2  0  0  0  0  0  0
  1 12  1  0  0  0  0
  2  1  1  0  0  0  0
  2  7  1  0  0  0  0
  3  2  2  0  0  0  0
  4  5  2  0  0  0  0
  4  3  1  0  0  0  0
  5  6  1  0  0  0  0
  6  1  2  0  0  0  0
  8  3  1  0  0  0  0
  9 10  2  0  0  0  0
  9 20  1  0  0  0  0
 10 14  1  0  0  0  0
 11 15  1  0  0  0  0
 11 10  1  0  0  0  0
 12 11  2  0  0  0  0
 13 12  1  0  0  0  0
 13  9  1  0  0  0  0
 16 17  1  0  0  0  0
 17 18  2  0  0  0  0
 17 23  1  0  0  0  0
 18 24  1  0  0  0  0
 19 18  1  0  0  0  0
 20 19  2  0  0  0  0
 21 20  1  0  0  0  0
 21 16  2  0  0  0  0
 22 16  1  0  0  0  0
 25 26  2  0  0  0  0
 25  5  1  0  0  0  0
 27 30  1  6  0  0  0
 27 28  1  0  0  0  0
 27 25  1  0  0  0  0
 28 32  1  0  0  0  0
 29 27  1  0  0  0  0
 29 28  1  0  0  0  0
 29 33  1  1  0  0  0
 31 28  1  0  0  0  0
 34 41  1  1  0  0  0
 34 29  1  0  0  0  0
 35 34  1  0  0  0  0
 35 36  1  0  0  0  0
 37 35  1  0  0  0  0
 38 37  1  0  0  0  0
 39 37  1  0  0  0  0
 39 40  1  0  0  0  0
 40 41  1  0  0  0  0
M  END
>  <minimizedAffinity>
-6.09293413

>  <minimizedRMSD>
0.956531167

$$$$
