
 OpenBabel03212520583D

 41 45  0  0  1  0  0  0  0  0999 V2000
   39.7260   77.2570   59.2490 C   0  0  0  0  0  0  0  0  0  0  0  0
   40.3870   76.0800   59.0130 C   0  0  0  0  0  0  0  0  0  0  0  0
   39.8270   75.3580   57.9440 C   0  0  0  0  0  0  0  0  0  0  0  0
   38.7640   75.7660   57.2290 N   0  0  0  0  0  0  0  0  0  0  0  0
   38.1790   76.9590   57.5520 C   0  0  0  0  0  0  0  0  0  0  0  0
   38.6630   77.7070   58.5670 N   0  0  0  0  0  0  0  0  0  0  0  0
   41.2370   75.7220   59.5610 H   0  0  0  0  0  0  0  0  0  0  0  0
   40.2550   74.4080   57.6510 H   0  0  0  0  0  0  0  0  0  0  0  0
   40.9740   80.2280   61.7370 C   0  0  0  0  0  0  0  0  0  0  0  0
   40.9720   79.0040   62.3600 C   0  0  0  0  0  0  0  0  0  0  0  0
   40.5740   77.9390   61.6310 C   0  0  0  0  0  0  0  0  0  0  0  0
   40.1920   78.1070   60.3170 C   0  0  0  0  0  0  0  0  0  0  0  0
   40.3980   79.9180   60.0450 S   0  0  0  0  0  0  0  0  0  0  0  0
   41.2740   78.8680   63.3970 H   0  0  0  0  0  0  0  0  0  0  0  0
   40.5020   76.9020   61.9350 H   0  0  0  0  0  0  0  0  0  0  0  0
   43.0400   83.0680   62.8140 C   0  0  0  0  0  0  0  0  0  0  0  0
   42.1580   83.8210   63.5990 C   0  0  0  0  0  0  0  0  0  0  0  0
   40.8570   83.3650   63.7650 C   0  0  0  0  0  0  0  0  0  0  0  0
   40.5150   82.2120   63.1540 N   0  0  0  0  0  0  0  0  0  0  0  0
   41.3790   81.4970   62.3980 C   0  0  0  0  0  0  0  0  0  0  0  0
   42.6140   81.9330   62.2430 N   0  0  0  0  0  0  0  0  0  0  0  0
   44.0510   83.4520   62.7040 H   0  0  0  0  0  0  0  0  0  0  0  0
   42.4480   84.7480   64.0830 H   0  0  0  0  0  0  0  0  0  0  0  0
   40.1210   83.8950   64.3570 H   0  0  0  0  0  0  0  0  0  0  0  0
   37.0370   77.3820   56.7650 C   0  0  0  0  0  0  0  0  0  0  0  0
   35.9130   77.0550   57.1730 O   0  0  0  0  0  0  0  0  0  0  0  0
   37.1850   78.1820   55.4930 C   0  0  1  0  0  0  0  0  0  0  0  0
   37.3910   79.6540   55.7460 C   0  0  0  0  0  0  0  0  0  0  0  0
   38.4530   78.8190   55.1830 C   0  0  2  0  0  0  0  0  0  0  0  0
   36.2910   78.0320   54.8390 H   0  0  0  0  0  0  0  0  0  0  0  0
   36.7810   80.3480   55.1690 H   0  0  0  0  0  0  0  0  0  0  0  0
   37.4730   79.9900   56.8200 H   0  0  0  0  0  0  0  0  0  0  0  0
   39.2810   78.5590   55.9160 H   0  0  0  0  0  0  0  0  0  0  0  0
   38.9110   79.0640   53.8470 N   0  0  1  0  0  0  0  0  0  0  0  0
   37.9180   79.7560   53.0750 C   0  0  0  0  0  3  0  0  0  0  0  0
   37.7800   80.7500   53.5550 H   0  0  0  0  0  0  0  0  0  0  0  0
   38.4390   80.0600   51.6680 C   0  0  0  0  0  3  0  0  0  0  0  0
   37.6400   80.5880   51.1250 H   0  0  0  0  0  0  0  0  0  0  0  0
   39.4710   80.9940   51.8520 O   0  0  0  0  0  0  0  0  0  0  0  0
   40.5050   80.3470   52.4940 C   0  0  0  0  0  2  0  0  0  0  0  0
   40.1380   79.7980   53.8550 C   0  0  0  0  0  2  0  0  0  0  0  0
  1 12  1  0  0  0  0
  2  1  1  0  0  0  0
  2  7  1  0  0  0  0
  3  2  2  0  0  0  0
  4  5  2  0  0  0  0
  4  3  1  0  0  0  0
  5  6  1  0  0  0  0
  6  1  2  0  0  0  0
  8  3  1  0  0  0  0
  9 10  2  0  0  0  0
  9 20  1  0  0  0  0
 10 14  1  0  0  0  0
 11 15  1  0  0  0  0
 11 10  1  0  0  0  0
 12 11  2  0  0  0  0
 13 12  1  0  0  0  0
 13  9  1  0  0  0  0
 16 17  1  0  0  0  0
 17 18  2  0  0  0  0
 17 23  1  0  0  0  0
 18 24  1  0  0  0  0
 19 18  1  0  0  0  0
 20 19  2  0  0  0  0
 21 20  1  0  0  0  0
 21 16  2  0  0  0  0
 22 16  1  0  0  0  0
 25 26  2  0  0  0  0
 25  5  1  0  0  0  0
 27 30  1  6  0  0  0
 27 28  1  0  0  0  0
 27 25  1  0  0  0  0
 28 32  1  0  0  0  0
 29 27  1  0  0  0  0
 29 28  1  0  0  0  0
 29 33  1  1  0  0  0
 31 28  1  0  0  0  0
 34 41  1  1  0  0  0
 34 29  1  0  0  0  0
 35 36  1  0  0  0  0
 35 34  1  0  0  0  0
 37 39  1  0  0  0  0
 37 35  1  0  0  0  0
 38 37  1  0  0  0  0
 39 40  1  0  0  0  0
 40 41  1  0  0  0  0
M  END
>  <minimizedAffinity>
-6.50173521

>  <minimizedRMSD>
0.371090651

$$$$
