
 OpenBabel03212520573D

 41 45  0  0  1  0  0  0  0  0999 V2000
   39.9380   77.5660   59.1020 C   0  0  0  0  0  0  0  0  0  0  0  0
   40.7080   76.4760   58.7910 C   0  0  0  0  0  0  0  0  0  0  0  0
   40.2170   75.7760   57.6730 C   0  0  0  0  0  0  0  0  0  0  0  0
   39.1200   76.1300   56.9810 N   0  0  0  0  0  0  0  0  0  0  0  0
   38.4240   77.2370   57.3800 C   0  0  0  0  0  0  0  0  0  0  0  0
   38.8360   77.9580   58.4450 N   0  0  0  0  0  0  0  0  0  0  0  0
   41.5880   76.1640   59.3180 H   0  0  0  0  0  0  0  0  0  0  0  0
   40.7340   74.8930   57.3190 H   0  0  0  0  0  0  0  0  0  0  0  0
   40.9880   80.4600   61.7650 C   0  0  0  0  0  0  0  0  0  0  0  0
   40.9520   79.2160   62.3470 C   0  0  0  0  0  0  0  0  0  0  0  0
   40.6130   78.1740   61.5570 C   0  0  0  0  0  0  0  0  0  0  0  0
   40.3220   78.3830   60.2260 C   0  0  0  0  0  0  0  0  0  0  0  0
   40.5330   80.2030   60.0280 S   0  0  0  0  0  0  0  0  0  0  0  0
   41.1820   79.0480   63.3970 H   0  0  0  0  0  0  0  0  0  0  0  0
   40.5280   77.1270   61.8220 H   0  0  0  0  0  0  0  0  0  0  0  0
   42.9440   83.2930   63.0460 C   0  0  0  0  0  0  0  0  0  0  0  0
   42.0120   83.9970   63.8200 C   0  0  0  0  0  0  0  0  0  0  0  0
   40.7150   83.5100   63.9080 C   0  0  0  0  0  0  0  0  0  0  0  0
   40.4250   82.3760   63.2370 N   0  0  0  0  0  0  0  0  0  0  0  0
   41.3360   81.7090   62.4930 C   0  0  0  0  0  0  0  0  0  0  0  0
   42.5670   82.1740   62.4120 N   0  0  0  0  0  0  0  0  0  0  0  0
   43.9510   83.7000   62.9980 H   0  0  0  0  0  0  0  0  0  0  0  0
   42.2610   84.9090   64.3530 H   0  0  0  0  0  0  0  0  0  0  0  0
   39.9430   84.0010   64.4870 H   0  0  0  0  0  0  0  0  0  0  0  0
   37.2460   77.6020   56.6170 C   0  0  0  0  0  0  0  0  0  0  0  0
   36.1850   77.0280   56.9020 O   0  0  0  0  0  0  0  0  0  0  0  0
   37.2870   78.6290   55.5110 C   0  0  1  0  0  0  0  0  0  0  0  0
   37.2020   80.0450   56.0230 C   0  0  0  0  0  0  0  0  0  0  0  0
   38.4220   79.5290   55.4020 C   0  0  2  0  0  0  0  0  0  0  0  0
   36.4620   78.4400   54.7820 H   0  0  0  0  0  0  0  0  0  0  0  0
   36.4930   80.7100   55.5310 H   0  0  0  0  0  0  0  0  0  0  0  0
   37.1800   80.1930   57.1420 H   0  0  0  0  0  0  0  0  0  0  0  0
   39.2570   79.2950   56.1360 H   0  0  0  0  0  0  0  0  0  0  0  0
   38.8740   80.0870   54.1610 N   0  0  1  0  0  0  0  0  0  0  0  0
   40.2430   79.7450   53.9050 C   0  0  0  0  0  3  0  0  0  0  0  0
   40.2800   78.6390   53.7920 H   0  0  0  0  0  0  0  0  0  0  0  0
   40.6980   80.2990   52.5510 C   0  0  0  0  0  3  0  0  0  0  0  0
   41.7500   80.0080   52.4100 H   0  0  0  0  0  0  0  0  0  0  0  0
   39.9620   79.5820   51.5950 O   0  0  0  0  0  0  0  0  0  0  0  0
   38.6420   79.9600   51.7220 C   0  0  0  0  0  2  0  0  0  0  0  0
   38.0420   79.6600   53.0790 C   0  0  0  0  0  2  0  0  0  0  0  0
  1 12  1  0  0  0  0
  2  1  1  0  0  0  0
  2  7  1  0  0  0  0
  3  2  2  0  0  0  0
  4  5  2  0  0  0  0
  4  3  1  0  0  0  0
  5  6  1  0  0  0  0
  6  1  2  0  0  0  0
  8  3  1  0  0  0  0
  9 10  2  0  0  0  0
  9 20  1  0  0  0  0
 10 14  1  0  0  0  0
 11 15  1  0  0  0  0
 11 10  1  0  0  0  0
 12 11  2  0  0  0  0
 13 12  1  0  0  0  0
 13  9  1  0  0  0  0
 16 17  1  0  0  0  0
 17 18  2  0  0  0  0
 17 23  1  0  0  0  0
 18 24  1  0  0  0  0
 19 18  1  0  0  0  0
 20 19  2  0  0  0  0
 21 20  1  0  0  0  0
 21 16  2  0  0  0  0
 22 16  1  0  0  0  0
 25 26  2  0  0  0  0
 25  5  1  0  0  0  0
 27 30  1  6  0  0  0
 27 28  1  0  0  0  0
 27 25  1  0  0  0  0
 28 32  1  0  0  0  0
 29 27  1  0  0  0  0
 29 28  1  0  0  0  0
 29 33  1  1  0  0  0
 31 28  1  0  0  0  0
 34 41  1  6  0  0  0
 34 29  1  0  0  0  0
 35 34  1  0  0  0  0
 36 35  1  0  0  0  0
 37 35  1  0  0  0  0
 38 37  1  0  0  0  0
 39 40  1  0  0  0  0
 39 37  1  0  0  0  0
 40 41  1  0  0  0  0
M  END
>  <minimizedAffinity>
-6.46123409

>  <minimizedRMSD>
0.415860236

$$$$
