
 OpenBabel03212520583D

 41 45  0  0  1  0  0  0  0  0999 V2000
   39.9100   77.5490   59.1120 C   0  0  0  0  0  0  0  0  0  0  0  0
   40.6920   76.4770   58.7710 C   0  0  0  0  0  0  0  0  0  0  0  0
   40.1830   75.7760   57.6630 C   0  0  0  0  0  0  0  0  0  0  0  0
   39.0600   76.1110   57.0060 N   0  0  0  0  0  0  0  0  0  0  0  0
   38.3540   77.2010   57.4320 C   0  0  0  0  0  0  0  0  0  0  0  0
   38.7810   77.9230   58.4910 N   0  0  0  0  0  0  0  0  0  0  0  0
   41.5940   76.1800   59.2710 H   0  0  0  0  0  0  0  0  0  0  0  0
   40.7070   74.9050   57.2880 H   0  0  0  0  0  0  0  0  0  0  0  0
   40.9890   80.4450   61.7620 C   0  0  0  0  0  0  0  0  0  0  0  0
   40.9740   79.1990   62.3410 C   0  0  0  0  0  0  0  0  0  0  0  0
   40.6280   78.1560   61.5560 C   0  0  0  0  0  0  0  0  0  0  0  0
   40.3090   78.3660   60.2310 C   0  0  0  0  0  0  0  0  0  0  0  0
   40.5020   80.1880   60.0330 S   0  0  0  0  0  0  0  0  0  0  0  0
   41.2260   79.0300   63.3870 H   0  0  0  0  0  0  0  0  0  0  0  0
   40.5560   77.1080   61.8190 H   0  0  0  0  0  0  0  0  0  0  0  0
   42.9540   83.2770   63.0300 C   0  0  0  0  0  0  0  0  0  0  0  0
   42.0270   83.9840   63.8060 C   0  0  0  0  0  0  0  0  0  0  0  0
   40.7290   83.4990   63.9000 C   0  0  0  0  0  0  0  0  0  0  0  0
   40.4340   82.3640   63.2320 N   0  0  0  0  0  0  0  0  0  0  0  0
   41.3420   81.6940   62.4870 C   0  0  0  0  0  0  0  0  0  0  0  0
   42.5740   82.1580   62.4000 N   0  0  0  0  0  0  0  0  0  0  0  0
   43.9620   83.6830   62.9780 H   0  0  0  0  0  0  0  0  0  0  0  0
   42.2790   84.8960   64.3370 H   0  0  0  0  0  0  0  0  0  0  0  0
   39.9590   83.9920   64.4810 H   0  0  0  0  0  0  0  0  0  0  0  0
   37.1470   77.5460   56.7070 C   0  0  0  0  0  0  0  0  0  0  0  0
   36.0780   77.0770   57.1250 O   0  0  0  0  0  0  0  0  0  0  0  0
   37.1660   78.4330   55.4850 C   0  0  1  0  0  0  0  0  0  0  0  0
   37.3520   79.8910   55.8210 C   0  0  0  0  0  0  0  0  0  0  0  0
   38.3850   79.1300   55.1170 C   0  0  2  0  0  0  0  0  0  0  0  0
   36.2240   78.2970   54.8980 H   0  0  0  0  0  0  0  0  0  0  0  0
   36.6780   80.6020   55.3450 H   0  0  0  0  0  0  0  0  0  0  0  0
   37.5150   80.1580   56.9050 H   0  0  0  0  0  0  0  0  0  0  0  0
   39.2790   78.8500   55.7600 H   0  0  0  0  0  0  0  0  0  0  0  0
   38.7230   79.4790   53.7670 N   0  0  1  0  0  0  0  0  0  0  0  0
   39.5200   78.4570   53.1510 C   0  0  0  0  0  3  0  0  0  0  0  0
   38.8840   77.5450   53.0980 H   0  0  0  0  0  0  0  0  0  0  0  0
   39.8270   78.8140   51.6930 C   0  0  0  0  0  3  0  0  0  0  0  0
   40.4370   77.9990   51.2740 H   0  0  0  0  0  0  0  0  0  0  0  0
   38.5900   78.7560   51.0320 O   0  0  0  0  0  0  0  0  0  0  0  0
   37.8180   79.7930   51.5090 C   0  0  0  0  0  2  0  0  0  0  0  0
   37.5440   79.7260   52.9960 C   0  0  0  0  0  2  0  0  0  0  0  0
  1 12  1  0  0  0  0
  2  1  1  0  0  0  0
  2  7  1  0  0  0  0
  3  2  2  0  0  0  0
  4  5  2  0  0  0  0
  4  3  1  0  0  0  0
  5  6  1  0  0  0  0
  6  1  2  0  0  0  0
  8  3  1  0  0  0  0
  9 10  2  0  0  0  0
  9 20  1  0  0  0  0
 10 14  1  0  0  0  0
 11 15  1  0  0  0  0
 11 10  1  0  0  0  0
 12 11  2  0  0  0  0
 13 12  1  0  0  0  0
 13  9  1  0  0  0  0
 16 17  1  0  0  0  0
 17 18  2  0  0  0  0
 17 23  1  0  0  0  0
 18 24  1  0  0  0  0
 19 18  1  0  0  0  0
 20 19  2  0  0  0  0
 21 20  1  0  0  0  0
 21 16  2  0  0  0  0
 22 16  1  0  0  0  0
 25 26  2  0  0  0  0
 25  5  1  0  0  0  0
 27 30  1  6  0  0  0
 27 28  1  0  0  0  0
 27 25  1  0  0  0  0
 28 32  1  0  0  0  0
 29 27  1  0  0  0  0
 29 33  1  1  0  0  0
 29 28  1  0  0  0  0
 31 28  1  0  0  0  0
 34 41  1  6  0  0  0
 34 29  1  0  0  0  0
 35 34  1  0  0  0  0
 36 35  1  0  0  0  0
 37 35  1  0  0  0  0
 38 37  1  0  0  0  0
 39 40  1  0  0  0  0
 39 37  1  0  0  0  0
 40 41  1  0  0  0  0
M  END
>  <minimizedAffinity>
-6.40489531

>  <minimizedRMSD>
0.565059364

$$$$
