
 OpenBabel03212520583D

 41 45  0  0  1  0  0  0  0  0999 V2000
   39.7960   77.4120   59.1750 C   0  0  0  0  0  0  0  0  0  0  0  0
   40.5000   76.2700   58.8980 C   0  0  0  0  0  0  0  0  0  0  0  0
   39.9620   75.5630   57.8060 C   0  0  0  0  0  0  0  0  0  0  0  0
   38.8820   75.9550   57.1090 N   0  0  0  0  0  0  0  0  0  0  0  0
   38.2540   77.1130   57.4730 C   0  0  0  0  0  0  0  0  0  0  0  0
   38.7140   77.8450   58.5120 N   0  0  0  0  0  0  0  0  0  0  0  0
   41.3650   75.9260   59.4300 H   0  0  0  0  0  0  0  0  0  0  0  0
   40.4250   74.6400   57.4800 H   0  0  0  0  0  0  0  0  0  0  0  0
   40.9740   80.3390   61.7480 C   0  0  0  0  0  0  0  0  0  0  0  0
   40.9660   79.1030   62.3470 C   0  0  0  0  0  0  0  0  0  0  0  0
   40.5890   78.0500   61.5880 C   0  0  0  0  0  0  0  0  0  0  0  0
   40.2340   78.2430   60.2690 C   0  0  0  0  0  0  0  0  0  0  0  0
   40.4350   80.0600   60.0380 S   0  0  0  0  0  0  0  0  0  0  0  0
   41.2470   78.9480   63.3870 H   0  0  0  0  0  0  0  0  0  0  0  0
   40.5170   77.0070   61.8690 H   0  0  0  0  0  0  0  0  0  0  0  0
   43.0010   83.1660   62.9280 C   0  0  0  0  0  0  0  0  0  0  0  0
   42.0970   83.9000   63.7070 C   0  0  0  0  0  0  0  0  0  0  0  0
   40.7940   83.4360   63.8330 C   0  0  0  0  0  0  0  0  0  0  0  0
   40.4720   82.2930   63.1910 N   0  0  0  0  0  0  0  0  0  0  0  0
   41.3570   81.5970   62.4430 C   0  0  0  0  0  0  0  0  0  0  0  0
   42.5930   82.0400   62.3260 N   0  0  0  0  0  0  0  0  0  0  0  0
   44.0130   83.5560   62.8500 H   0  0  0  0  0  0  0  0  0  0  0  0
   42.3710   84.8190   64.2160 H   0  0  0  0  0  0  0  0  0  0  0  0
   40.0430   83.9510   64.4170 H   0  0  0  0  0  0  0  0  0  0  0  0
   37.0940   77.5190   56.7050 C   0  0  0  0  0  0  0  0  0  0  0  0
   35.9920   77.0730   57.0600 O   0  0  0  0  0  0  0  0  0  0  0  0
   37.1960   78.4400   55.5120 C   0  0  1  0  0  0  0  0  0  0  0  0
   37.3100   79.8920   55.9010 C   0  0  0  0  0  0  0  0  0  0  0  0
   38.4240   79.1790   55.2740 C   0  0  2  0  0  0  0  0  0  0  0  0
   36.3160   78.2950   54.8390 H   0  0  0  0  0  0  0  0  0  0  0  0
   36.6610   80.5980   55.3840 H   0  0  0  0  0  0  0  0  0  0  0  0
   37.3670   80.1330   57.0020 H   0  0  0  0  0  0  0  0  0  0  0  0
   39.2630   78.9040   55.9890 H   0  0  0  0  0  0  0  0  0  0  0  0
   38.8710   79.5730   53.9700 N   0  0  1  0  0  0  0  0  0  0  0  0
   40.2740   79.8710   53.9700 C   0  0  0  0  0  3  0  0  0  0  0  0
   40.8020   78.9230   54.2160 H   0  0  0  0  0  0  0  0  0  0  0  0
   40.7510   80.2370   52.5600 C   0  0  0  0  0  3  0  0  0  0  0  0
   41.8280   80.4540   52.6200 H   0  0  0  0  0  0  0  0  0  0  0  0
   40.6310   79.0540   51.8140 O   0  0  0  0  0  0  0  0  0  0  0  0
   39.2880   78.7790   51.6870 C   0  0  0  0  0  2  0  0  0  0  0  0
   38.5740   78.5610   53.0030 C   0  0  0  0  0  2  0  0  0  0  0  0
  1 12  1  0  0  0  0
  2  1  1  0  0  0  0
  2  7  1  0  0  0  0
  3  2  2  0  0  0  0
  4  5  2  0  0  0  0
  4  3  1  0  0  0  0
  5  6  1  0  0  0  0
  6  1  2  0  0  0  0
  8  3  1  0  0  0  0
  9 10  2  0  0  0  0
  9 20  1  0  0  0  0
 10 14  1  0  0  0  0
 11 15  1  0  0  0  0
 11 10  1  0  0  0  0
 12 11  2  0  0  0  0
 13 12  1  0  0  0  0
 13  9  1  0  0  0  0
 16 17  1  0  0  0  0
 17 18  2  0  0  0  0
 17 23  1  0  0  0  0
 18 24  1  0  0  0  0
 19 18  1  0  0  0  0
 20 19  2  0  0  0  0
 21 20  1  0  0  0  0
 21 16  2  0  0  0  0
 22 16  1  0  0  0  0
 25 26  2  0  0  0  0
 25  5  1  0  0  0  0
 27 30  1  6  0  0  0
 27 28  1  0  0  0  0
 27 25  1  0  0  0  0
 28 32  1  0  0  0  0
 29 27  1  0  0  0  0
 29 28  1  0  0  0  0
 29 33  1  1  0  0  0
 31 28  1  0  0  0  0
 34 41  1  6  0  0  0
 34 35  1  0  0  0  0
 34 29  1  0  0  0  0
 35 36  1  0  0  0  0
 37 38  1  0  0  0  0
 37 35  1  0  0  0  0
 39 37  1  0  0  0  0
 40 39  1  0  0  0  0
 40 41  1  0  0  0  0
M  END
>  <minimizedAffinity>
-6.25630999

>  <minimizedRMSD>
0.302358091

$$$$
