
 OpenBabel03212520583D

 41 45  0  0  1  0  0  0  0  0999 V2000
   39.7960   77.3900   59.1810 C   0  0  0  0  0  0  0  0  0  0  0  0
   40.5240   76.2700   58.8750 C   0  0  0  0  0  0  0  0  0  0  0  0
   39.9790   75.5580   57.7910 C   0  0  0  0  0  0  0  0  0  0  0  0
   38.8720   75.9260   57.1240 N   0  0  0  0  0  0  0  0  0  0  0  0
   38.2210   77.0630   57.5150 C   0  0  0  0  0  0  0  0  0  0  0  0
   38.6860   77.7980   58.5490 N   0  0  0  0  0  0  0  0  0  0  0  0
   41.4110   75.9460   59.3830 H   0  0  0  0  0  0  0  0  0  0  0  0
   40.4590   74.6510   57.4440 H   0  0  0  0  0  0  0  0  0  0  0  0
   40.9800   80.3220   61.7440 C   0  0  0  0  0  0  0  0  0  0  0  0
   40.9810   79.0870   62.3430 C   0  0  0  0  0  0  0  0  0  0  0  0
   40.6030   78.0320   61.5870 C   0  0  0  0  0  0  0  0  0  0  0  0
   40.2380   78.2230   60.2710 C   0  0  0  0  0  0  0  0  0  0  0  0
   40.4310   80.0410   60.0380 S   0  0  0  0  0  0  0  0  0  0  0  0
   41.2690   78.9330   63.3820 H   0  0  0  0  0  0  0  0  0  0  0  0
   40.5370   76.9890   61.8700 H   0  0  0  0  0  0  0  0  0  0  0  0
   43.0070   83.1520   62.9180 C   0  0  0  0  0  0  0  0  0  0  0  0
   42.1030   83.8890   63.6940 C   0  0  0  0  0  0  0  0  0  0  0  0
   40.8000   83.4260   63.8200 C   0  0  0  0  0  0  0  0  0  0  0  0
   40.4780   82.2810   63.1810 N   0  0  0  0  0  0  0  0  0  0  0  0
   41.3630   81.5820   62.4360 C   0  0  0  0  0  0  0  0  0  0  0  0
   42.6000   82.0250   62.3190 N   0  0  0  0  0  0  0  0  0  0  0  0
   44.0190   83.5410   62.8400 H   0  0  0  0  0  0  0  0  0  0  0  0
   42.3770   84.8090   64.2000 H   0  0  0  0  0  0  0  0  0  0  0  0
   40.0480   83.9420   64.4020 H   0  0  0  0  0  0  0  0  0  0  0  0
   37.0310   77.4440   56.7790 C   0  0  0  0  0  0  0  0  0  0  0  0
   35.9480   76.9890   57.1760 O   0  0  0  0  0  0  0  0  0  0  0  0
   37.0830   78.3480   55.5710 C   0  0  1  0  0  0  0  0  0  0  0  0
   37.3320   79.7910   55.9300 C   0  0  0  0  0  0  0  0  0  0  0  0
   38.3300   79.0000   55.2100 C   0  0  2  0  0  0  0  0  0  0  0  0
   36.1350   78.2620   54.9860 H   0  0  0  0  0  0  0  0  0  0  0  0
   36.6860   80.5380   55.4690 H   0  0  0  0  0  0  0  0  0  0  0  0
   37.5100   80.0330   57.0180 H   0  0  0  0  0  0  0  0  0  0  0  0
   39.2120   78.6710   55.8450 H   0  0  0  0  0  0  0  0  0  0  0  0
   38.6770   79.3550   53.8650 N   0  0  1  0  0  0  0  0  0  0  0  0
   39.1700   78.2200   53.1380 C   0  0  0  0  0  3  0  0  0  0  0  0
   38.3270   77.4950   53.0710 H   0  0  0  0  0  0  0  0  0  0  0  0
   39.4850   78.5990   51.6880 C   0  0  0  0  0  3  0  0  0  0  0  0
   39.8560   77.6950   51.1820 H   0  0  0  0  0  0  0  0  0  0  0  0
   38.2400   78.8890   51.1060 O   0  0  0  0  0  0  0  0  0  0  0  0
   37.7700   80.0440   51.6930 C   0  0  0  0  0  2  0  0  0  0  0  0
   37.5600   79.9360   53.1870 C   0  0  0  0  0  2  0  0  0  0  0  0
  1 12  1  0  0  0  0
  2  1  1  0  0  0  0
  2  7  1  0  0  0  0
  3  2  2  0  0  0  0
  4  5  2  0  0  0  0
  4  3  1  0  0  0  0
  5  6  1  0  0  0  0
  6  1  2  0  0  0  0
  8  3  1  0  0  0  0
  9 10  2  0  0  0  0
  9 20  1  0  0  0  0
 10 14  1  0  0  0  0
 11 15  1  0  0  0  0
 11 10  1  0  0  0  0
 12 11  2  0  0  0  0
 13 12  1  0  0  0  0
 13  9  1  0  0  0  0
 16 17  1  0  0  0  0
 17 18  2  0  0  0  0
 17 23  1  0  0  0  0
 18 24  1  0  0  0  0
 19 18  1  0  0  0  0
 20 19  2  0  0  0  0
 21 20  1  0  0  0  0
 21 16  2  0  0  0  0
 22 16  1  0  0  0  0
 25 26  2  0  0  0  0
 25  5  1  0  0  0  0
 27 30  1  6  0  0  0
 27 28  1  0  0  0  0
 27 25  1  0  0  0  0
 28 32  1  0  0  0  0
 29 27  1  0  0  0  0
 29 33  1  1  0  0  0
 29 28  1  0  0  0  0
 31 28  1  0  0  0  0
 34 41  1  6  0  0  0
 34 29  1  0  0  0  0
 35 34  1  0  0  0  0
 36 35  1  0  0  0  0
 37 35  1  0  0  0  0
 38 37  1  0  0  0  0
 39 37  1  0  0  0  0
 39 40  1  0  0  0  0
 40 41  1  0  0  0  0
M  END
>  <minimizedAffinity>
-6.44114876

>  <minimizedRMSD>
0.3353661

$$$$
