
 OpenBabel03212520583D

 41 45  0  0  1  0  0  0  0  0999 V2000
   39.7960   77.3900   59.1810 C   0  0  0  0  0  0  0  0  0  0  0  0
   40.5260   76.2720   58.8750 C   0  0  0  0  0  0  0  0  0  0  0  0
   39.9820   75.5590   57.7900 C   0  0  0  0  0  0  0  0  0  0  0  0
   38.8740   75.9260   57.1230 N   0  0  0  0  0  0  0  0  0  0  0  0
   38.2220   77.0630   57.5140 C   0  0  0  0  0  0  0  0  0  0  0  0
   38.6860   77.7980   58.5480 N   0  0  0  0  0  0  0  0  0  0  0  0
   41.4130   75.9490   59.3830 H   0  0  0  0  0  0  0  0  0  0  0  0
   40.4630   74.6540   57.4440 H   0  0  0  0  0  0  0  0  0  0  0  0
   40.9790   80.3230   61.7450 C   0  0  0  0  0  0  0  0  0  0  0  0
   40.9750   79.0880   62.3450 C   0  0  0  0  0  0  0  0  0  0  0  0
   40.5970   78.0340   61.5890 C   0  0  0  0  0  0  0  0  0  0  0  0
   40.2370   78.2240   60.2720 C   0  0  0  0  0  0  0  0  0  0  0  0
   40.4360   80.0410   60.0370 S   0  0  0  0  0  0  0  0  0  0  0  0
   41.2590   78.9350   63.3850 H   0  0  0  0  0  0  0  0  0  0  0  0
   40.5260   76.9910   61.8730 H   0  0  0  0  0  0  0  0  0  0  0  0
   43.0080   83.1530   62.9160 C   0  0  0  0  0  0  0  0  0  0  0  0
   42.1050   83.8890   63.6930 C   0  0  0  0  0  0  0  0  0  0  0  0
   40.8030   83.4250   63.8220 C   0  0  0  0  0  0  0  0  0  0  0  0
   40.4800   82.2810   63.1840 N   0  0  0  0  0  0  0  0  0  0  0  0
   41.3640   81.5820   62.4360 C   0  0  0  0  0  0  0  0  0  0  0  0
   42.6000   82.0260   62.3170 N   0  0  0  0  0  0  0  0  0  0  0  0
   44.0200   83.5420   62.8360 H   0  0  0  0  0  0  0  0  0  0  0  0
   42.3800   84.8080   64.2000 H   0  0  0  0  0  0  0  0  0  0  0  0
   40.0520   83.9410   64.4060 H   0  0  0  0  0  0  0  0  0  0  0  0
   37.0320   77.4420   56.7780 C   0  0  0  0  0  0  0  0  0  0  0  0
   35.9490   76.9870   57.1750 O   0  0  0  0  0  0  0  0  0  0  0  0
   37.0830   78.3450   55.5690 C   0  0  1  0  0  0  0  0  0  0  0  0
   37.3300   79.7890   55.9270 C   0  0  0  0  0  0  0  0  0  0  0  0
   38.3300   78.9980   55.2080 C   0  0  2  0  0  0  0  0  0  0  0  0
   36.1360   78.2560   54.9830 H   0  0  0  0  0  0  0  0  0  0  0  0
   36.6830   80.5340   55.4640 H   0  0  0  0  0  0  0  0  0  0  0  0
   37.5060   80.0330   57.0150 H   0  0  0  0  0  0  0  0  0  0  0  0
   39.2120   78.6720   55.8450 H   0  0  0  0  0  0  0  0  0  0  0  0
   38.6780   79.3530   53.8630 N   0  0  1  0  0  0  0  0  0  0  0  0
   39.1660   78.2150   53.1360 C   0  0  0  0  0  3  0  0  0  0  0  0
   38.3220   77.4940   53.0700 H   0  0  0  0  0  0  0  0  0  0  0  0
   39.4820   78.5940   51.6860 C   0  0  0  0  0  3  0  0  0  0  0  0
   39.8510   77.6880   51.1790 H   0  0  0  0  0  0  0  0  0  0  0  0
   38.2400   78.8900   51.1050 O   0  0  0  0  0  0  0  0  0  0  0  0
   37.7730   80.0460   51.6910 C   0  0  0  0  0  2  0  0  0  0  0  0
   37.5620   79.9380   53.1860 C   0  0  0  0  0  2  0  0  0  0  0  0
  1 12  1  0  0  0  0
  2  1  1  0  0  0  0
  2  7  1  0  0  0  0
  3  2  2  0  0  0  0
  4  5  2  0  0  0  0
  4  3  1  0  0  0  0
  5  6  1  0  0  0  0
  6  1  2  0  0  0  0
  8  3  1  0  0  0  0
  9 10  2  0  0  0  0
  9 20  1  0  0  0  0
 10 14  1  0  0  0  0
 11 15  1  0  0  0  0
 11 10  1  0  0  0  0
 12 11  2  0  0  0  0
 13 12  1  0  0  0  0
 13  9  1  0  0  0  0
 16 17  1  0  0  0  0
 17 18  2  0  0  0  0
 17 23  1  0  0  0  0
 18 24  1  0  0  0  0
 19 18  1  0  0  0  0
 20 19  2  0  0  0  0
 21 20  1  0  0  0  0
 21 16  2  0  0  0  0
 22 16  1  0  0  0  0
 25 26  2  0  0  0  0
 25  5  1  0  0  0  0
 27 30  1  6  0  0  0
 27 28  1  0  0  0  0
 27 25  1  0  0  0  0
 28 32  1  0  0  0  0
 29 27  1  0  0  0  0
 29 33  1  1  0  0  0
 29 28  1  0  0  0  0
 31 28  1  0  0  0  0
 34 41  1  6  0  0  0
 34 29  1  0  0  0  0
 35 34  1  0  0  0  0
 36 35  1  0  0  0  0
 37 35  1  0  0  0  0
 38 37  1  0  0  0  0
 39 37  1  0  0  0  0
 39 40  1  0  0  0  0
 40 41  1  0  0  0  0
M  END
>  <minimizedAffinity>
-6.44092417

>  <minimizedRMSD>
0.440587759

$$$$
