
 OpenBabel03212520583D

 41 45  0  0  1  0  0  0  0  0999 V2000
   39.7280   77.2570   59.2490 C   0  0  0  0  0  0  0  0  0  0  0  0
   40.3900   76.0820   59.0120 C   0  0  0  0  0  0  0  0  0  0  0  0
   39.8300   75.3590   57.9420 C   0  0  0  0  0  0  0  0  0  0  0  0
   38.7680   75.7670   57.2280 N   0  0  0  0  0  0  0  0  0  0  0  0
   38.1810   76.9590   57.5510 C   0  0  0  0  0  0  0  0  0  0  0  0
   38.6650   77.7080   58.5670 N   0  0  0  0  0  0  0  0  0  0  0  0
   41.2410   75.7240   59.5600 H   0  0  0  0  0  0  0  0  0  0  0  0
   40.2600   74.4100   57.6490 H   0  0  0  0  0  0  0  0  0  0  0  0
   40.9740   80.2280   61.7370 C   0  0  0  0  0  0  0  0  0  0  0  0
   40.9720   79.0050   62.3610 C   0  0  0  0  0  0  0  0  0  0  0  0
   40.5750   77.9400   61.6310 C   0  0  0  0  0  0  0  0  0  0  0  0
   40.1930   78.1080   60.3160 C   0  0  0  0  0  0  0  0  0  0  0  0
   40.3990   79.9190   60.0450 S   0  0  0  0  0  0  0  0  0  0  0  0
   41.2730   78.8690   63.3980 H   0  0  0  0  0  0  0  0  0  0  0  0
   40.5020   76.9030   61.9350 H   0  0  0  0  0  0  0  0  0  0  0  0
   43.0390   83.0690   62.8160 C   0  0  0  0  0  0  0  0  0  0  0  0
   42.1560   83.8220   63.6000 C   0  0  0  0  0  0  0  0  0  0  0  0
   40.8550   83.3660   63.7650 C   0  0  0  0  0  0  0  0  0  0  0  0
   40.5140   82.2130   63.1540 N   0  0  0  0  0  0  0  0  0  0  0  0
   41.3790   81.4980   62.3990 C   0  0  0  0  0  0  0  0  0  0  0  0
   42.6130   81.9340   62.2450 N   0  0  0  0  0  0  0  0  0  0  0  0
   44.0500   83.4530   62.7070 H   0  0  0  0  0  0  0  0  0  0  0  0
   42.4460   84.7490   64.0850 H   0  0  0  0  0  0  0  0  0  0  0  0
   40.1190   83.8950   64.3570 H   0  0  0  0  0  0  0  0  0  0  0  0
   37.0390   77.3820   56.7650 C   0  0  0  0  0  0  0  0  0  0  0  0
   35.9150   77.0540   57.1730 O   0  0  0  0  0  0  0  0  0  0  0  0
   37.1860   78.1810   55.4920 C   0  0  1  0  0  0  0  0  0  0  0  0
   37.3910   79.6540   55.7460 C   0  0  0  0  0  0  0  0  0  0  0  0
   38.4530   78.8190   55.1820 C   0  0  2  0  0  0  0  0  0  0  0  0
   36.2920   78.0310   54.8390 H   0  0  0  0  0  0  0  0  0  0  0  0
   36.7810   80.3480   55.1690 H   0  0  0  0  0  0  0  0  0  0  0  0
   37.4740   79.9900   56.8200 H   0  0  0  0  0  0  0  0  0  0  0  0
   39.2820   78.5600   55.9150 H   0  0  0  0  0  0  0  0  0  0  0  0
   38.9110   79.0650   53.8460 N   0  0  1  0  0  0  0  0  0  0  0  0
   37.9180   79.7570   53.0750 C   0  0  0  0  0  3  0  0  0  0  0  0
   37.7790   80.7510   53.5540 H   0  0  0  0  0  0  0  0  0  0  0  0
   38.4380   80.0610   51.6670 C   0  0  0  0  0  3  0  0  0  0  0  0
   37.6390   80.5900   51.1250 H   0  0  0  0  0  0  0  0  0  0  0  0
   39.4700   80.9950   51.8510 O   0  0  0  0  0  0  0  0  0  0  0  0
   40.5030   80.3470   52.4930 C   0  0  0  0  0  2  0  0  0  0  0  0
   40.1380   79.7980   53.8540 C   0  0  0  0  0  2  0  0  0  0  0  0
  1 12  1  0  0  0  0
  2  1  1  0  0  0  0
  2  7  1  0  0  0  0
  3  2  2  0  0  0  0
  4  5  2  0  0  0  0
  4  3  1  0  0  0  0
  5  6  1  0  0  0  0
  6  1  2  0  0  0  0
  8  3  1  0  0  0  0
  9 10  2  0  0  0  0
  9 20  1  0  0  0  0
 10 14  1  0  0  0  0
 11 15  1  0  0  0  0
 11 10  1  0  0  0  0
 12 11  2  0  0  0  0
 13 12  1  0  0  0  0
 13  9  1  0  0  0  0
 16 17  1  0  0  0  0
 17 18  2  0  0  0  0
 17 23  1  0  0  0  0
 18 24  1  0  0  0  0
 19 18  1  0  0  0  0
 20 19  2  0  0  0  0
 21 20  1  0  0  0  0
 21 16  2  0  0  0  0
 22 16  1  0  0  0  0
 25 26  2  0  0  0  0
 25  5  1  0  0  0  0
 27 30  1  6  0  0  0
 27 28  1  0  0  0  0
 27 25  1  0  0  0  0
 28 32  1  0  0  0  0
 29 27  1  0  0  0  0
 29 28  1  0  0  0  0
 29 33  1  1  0  0  0
 31 28  1  0  0  0  0
 34 41  1  1  0  0  0
 34 29  1  0  0  0  0
 35 36  1  0  0  0  0
 35 34  1  0  0  0  0
 37 39  1  0  0  0  0
 37 35  1  0  0  0  0
 38 37  1  0  0  0  0
 39 40  1  0  0  0  0
 40 41  1  0  0  0  0
M  END
>  <minimizedAffinity>
-6.50241184

>  <minimizedRMSD>
0.507247984

$$$$
