
 OpenBabel03212520583D

 41 45  0  0  1  0  0  0  0  0999 V2000
   39.7970   77.3900   59.1800 C   0  0  0  0  0  0  0  0  0  0  0  0
   40.5260   76.2710   58.8730 C   0  0  0  0  0  0  0  0  0  0  0  0
   39.9810   75.5590   57.7890 C   0  0  0  0  0  0  0  0  0  0  0  0
   38.8740   75.9260   57.1220 N   0  0  0  0  0  0  0  0  0  0  0  0
   38.2220   77.0630   57.5130 C   0  0  0  0  0  0  0  0  0  0  0  0
   38.6870   77.7980   58.5480 N   0  0  0  0  0  0  0  0  0  0  0  0
   41.4130   75.9470   59.3810 H   0  0  0  0  0  0  0  0  0  0  0  0
   40.4610   74.6530   57.4420 H   0  0  0  0  0  0  0  0  0  0  0  0
   40.9800   80.3230   61.7440 C   0  0  0  0  0  0  0  0  0  0  0  0
   40.9810   79.0870   62.3430 C   0  0  0  0  0  0  0  0  0  0  0  0
   40.6040   78.0330   61.5860 C   0  0  0  0  0  0  0  0  0  0  0  0
   40.2390   78.2230   60.2700 C   0  0  0  0  0  0  0  0  0  0  0  0
   40.4310   80.0410   60.0370 S   0  0  0  0  0  0  0  0  0  0  0  0
   41.2690   78.9330   63.3810 H   0  0  0  0  0  0  0  0  0  0  0  0
   40.5370   76.9890   61.8690 H   0  0  0  0  0  0  0  0  0  0  0  0
   43.0060   83.1530   62.9190 C   0  0  0  0  0  0  0  0  0  0  0  0
   42.1010   83.8890   63.6940 C   0  0  0  0  0  0  0  0  0  0  0  0
   40.7980   83.4260   63.8190 C   0  0  0  0  0  0  0  0  0  0  0  0
   40.4770   82.2810   63.1810 N   0  0  0  0  0  0  0  0  0  0  0  0
   41.3630   81.5820   62.4360 C   0  0  0  0  0  0  0  0  0  0  0  0
   42.5990   82.0250   62.3190 N   0  0  0  0  0  0  0  0  0  0  0  0
   44.0180   83.5420   62.8410 H   0  0  0  0  0  0  0  0  0  0  0  0
   42.3750   84.8090   64.2010 H   0  0  0  0  0  0  0  0  0  0  0  0
   40.0460   83.9420   64.4020 H   0  0  0  0  0  0  0  0  0  0  0  0
   37.0320   77.4430   56.7780 C   0  0  0  0  0  0  0  0  0  0  0  0
   35.9490   76.9890   57.1760 O   0  0  0  0  0  0  0  0  0  0  0  0
   37.0830   78.3460   55.5690 C   0  0  1  0  0  0  0  0  0  0  0  0
   37.3290   79.7900   55.9260 C   0  0  0  0  0  0  0  0  0  0  0  0
   38.3290   78.9990   55.2080 C   0  0  2  0  0  0  0  0  0  0  0  0
   36.1360   78.2560   54.9830 H   0  0  0  0  0  0  0  0  0  0  0  0
   36.6820   80.5340   55.4620 H   0  0  0  0  0  0  0  0  0  0  0  0
   37.5040   80.0340   57.0140 H   0  0  0  0  0  0  0  0  0  0  0  0
   39.2120   78.6740   55.8450 H   0  0  0  0  0  0  0  0  0  0  0  0
   38.6770   79.3530   53.8630 N   0  0  1  0  0  0  0  0  0  0  0  0
   39.1660   78.2170   53.1360 C   0  0  0  0  0  3  0  0  0  0  0  0
   38.3210   77.4950   53.0700 H   0  0  0  0  0  0  0  0  0  0  0  0
   39.4820   78.5940   51.6860 C   0  0  0  0  0  3  0  0  0  0  0  0
   39.8510   77.6890   51.1800 H   0  0  0  0  0  0  0  0  0  0  0  0
   38.2400   78.8900   51.1040 O   0  0  0  0  0  0  0  0  0  0  0  0
   37.7740   80.0460   51.6920 C   0  0  0  0  0  2  0  0  0  0  0  0
   37.5630   79.9390   53.1850 C   0  0  0  0  0  2  0  0  0  0  0  0
  1 12  1  0  0  0  0
  2  1  1  0  0  0  0
  2  7  1  0  0  0  0
  3  2  2  0  0  0  0
  4  5  2  0  0  0  0
  4  3  1  0  0  0  0
  5  6  1  0  0  0  0
  6  1  2  0  0  0  0
  8  3  1  0  0  0  0
  9 10  2  0  0  0  0
  9 20  1  0  0  0  0
 10 14  1  0  0  0  0
 11 15  1  0  0  0  0
 11 10  1  0  0  0  0
 12 11  2  0  0  0  0
 13 12  1  0  0  0  0
 13  9  1  0  0  0  0
 16 17  1  0  0  0  0
 17 18  2  0  0  0  0
 17 23  1  0  0  0  0
 18 24  1  0  0  0  0
 19 18  1  0  0  0  0
 20 19  2  0  0  0  0
 21 20  1  0  0  0  0
 21 16  2  0  0  0  0
 22 16  1  0  0  0  0
 25 26  2  0  0  0  0
 25  5  1  0  0  0  0
 27 30  1  6  0  0  0
 27 28  1  0  0  0  0
 27 25  1  0  0  0  0
 28 32  1  0  0  0  0
 29 27  1  0  0  0  0
 29 33  1  1  0  0  0
 29 28  1  0  0  0  0
 31 28  1  0  0  0  0
 34 41  1  6  0  0  0
 34 29  1  0  0  0  0
 35 34  1  0  0  0  0
 36 35  1  0  0  0  0
 37 35  1  0  0  0  0
 38 37  1  0  0  0  0
 39 37  1  0  0  0  0
 39 40  1  0  0  0  0
 40 41  1  0  0  0  0
M  END
>  <minimizedAffinity>
-6.44030094

>  <minimizedRMSD>
0.705040991

$$$$
