
 OpenBabel03212520173D

 34 36  0  0  0  0  0  0  0  0999 V2000
   43.1360   84.0070   58.6540 Cl  0  0  0  0  0  0  0  0  0  0  0  0
   41.9240   82.8180   58.2480 C   0  0  0  0  0  0  0  0  0  0  0  0
   41.0410   82.2720   59.1770 C   0  0  0  0  0  0  0  0  0  0  0  0
   40.1520   81.3490   58.6870 C   0  0  0  0  0  0  0  0  0  0  0  0
   40.0390   80.9080   57.3970 C   0  0  0  0  0  0  0  0  0  0  0  0
   40.9130   81.4570   56.5140 C   0  0  0  0  0  0  0  0  0  0  0  0
   40.8930   80.9900   54.8090 Cl  0  0  0  0  0  0  0  0  0  0  0  0
   41.8530   82.4080   56.9340 C   0  0  0  0  0  0  0  0  0  0  0  0
   39.4730   80.9430   59.4510 H   0  0  0  0  0  0  0  0  0  0  0  0
   39.3000   80.1700   57.1050 H   0  0  0  0  0  0  0  0  0  0  0  0
   41.9520   82.1950   61.5470 C   0  0  0  0  0  0  0  0  0  0  0  0
   41.1290   82.7080   60.5310 C   0  0  0  0  0  0  0  0  0  0  0  0
   40.3030   83.7600   60.8790 C   0  0  0  0  0  0  0  0  0  0  0  0
   40.3430   84.2180   62.1560 N   0  0  0  0  0  0  0  0  0  0  0  0
   41.1460   83.6990   63.0970 C   0  0  0  0  0  0  0  0  0  0  0  0
   41.9650   82.6670   62.7860 N   0  0  0  0  0  0  0  0  0  0  0  0
   42.5850   81.3720   61.2380 H   0  0  0  0  0  0  0  0  0  0  0  0
   39.6200   84.2340   60.1610 H   0  0  0  0  0  0  0  0  0  0  0  0
   41.0540   84.3290   64.4400 C   0  0  0  0  0  0  0  0  0  0  0  0
   40.7020   85.6490   64.3730 F   0  0  0  0  0  0  0  0  0  0  0  0
   40.0980   83.6590   65.2080 F   0  0  0  0  0  0  0  0  0  0  0  0
   42.2800   84.3010   65.0990 F   0  0  0  0  0  0  0  0  0  0  0  0
   42.7140   82.9260   55.9790 O   0  0  0  0  0  0  0  0  0  0  0  0
   42.4620   84.0960   55.2500 C   0  0  0  0  0  0  0  0  0  0  0  0
   41.8050   83.8160   54.4000 H   0  0  0  0  0  0  0  0  0  0  0  0
   41.8610   84.7740   55.8890 H   0  0  0  0  0  0  0  0  0  0  0  0
   43.6510   84.6950   54.7050 N   0  0  0  0  0  0  0  0  0  0  0  0
   43.7920   84.5070   53.2910 C   0  0  0  0  0  0  0  0  0  0  0  0
   42.7820   84.5810   52.8380 H   0  0  0  0  0  0  0  0  0  0  0  0
   44.3810   83.1830   52.9090 C   0  0  0  0  0  0  0  0  0  0  0  0
   43.6000   82.3980   53.0570 H   0  0  0  0  0  0  0  0  0  0  0  0
   45.4840   82.8230   53.6630 O   0  0  0  0  0  0  0  0  0  0  0  0
   45.9040   83.8300   54.5220 C   0  0  0  0  0  0  0  0  0  0  0  0
   44.7990   84.2480   55.4600 C   0  0  0  0  0  0  0  0  0  0  0  0
  2  1  1  0  0  0  0
  2  3  1  0  0  0  0
  3 12  1  0  0  0  0
  4  3  2  0  0  0  0
  4  9  1  0  0  0  0
  5  4  1  0  0  0  0
  6  8  1  0  0  0  0
  6  5  2  0  0  0  0
  7  6  1  0  0  0  0
  8  2  2  0  0  0  0
 10  5  1  0  0  0  0
 11 16  1  0  0  0  0
 12 13  1  0  0  0  0
 12 11  2  0  0  0  0
 13 14  2  0  0  0  0
 14 15  1  0  0  0  0
 15 19  1  0  0  0  0
 16 15  2  0  0  0  0
 17 11  1  0  0  0  0
 18 13  1  0  0  0  0
 19 22  1  0  0  0  0
 19 21  1  0  0  0  0
 20 19  1  0  0  0  0
 23  8  1  0  0  0  0
 24 26  1  0  0  0  0
 24 23  1  0  0  0  0
 25 24  1  0  0  0  0
 27 24  1  0  0  0  0
 27 34  1  0  0  0  0
 28 27  1  0  0  0  0
 29 28  1  0  0  0  0
 30 31  1  0  0  0  0
 30 28  1  0  0  0  0
 30 32  1  0  0  0  0
 32 33  1  0  0  0  0
 33 34  1  0  0  0  0
M  END
>  <minimizedAffinity>
-5.05017948

>  <minimizedRMSD>
1.29340792

$$$$
