
 OpenBabel03212520473D

 27 29  0  0  0  0  0  0  0  0999 V2000
   41.6620   83.8780   61.4270 C   0  0  0  0  0  0  0  0  0  0  0  0
   41.3740   84.2130   62.7370 C   0  0  0  0  0  0  0  0  0  0  0  0
   40.8640   83.2800   63.6360 C   0  0  0  0  0  0  0  0  0  0  0  0
   40.6410   82.0070   63.2250 N   0  0  0  0  0  0  0  0  0  0  0  0
   40.9260   81.7000   61.9550 C   0  0  0  0  0  0  0  0  0  0  0  0
   41.4250   82.6120   61.0730 N   0  0  0  0  0  0  0  0  0  0  0  0
   41.5700   85.2480   63.0170 H   0  0  0  0  0  0  0  0  0  0  0  0
   40.6720   83.6480   64.6440 H   0  0  0  0  0  0  0  0  0  0  0  0
   40.6910   80.3610   61.5260 N   0  0  0  0  0  0  0  0  0  0  0  0
   41.1220   79.2860   62.3880 C   0  0  0  0  0  3  0  0  0  0  0  0
   40.4540   79.3310   63.2750 H   0  0  0  0  0  0  0  0  0  0  0  0
   41.0410   77.9390   61.7930 C   0  0  0  0  0  3  0  0  0  0  0  0
   42.0250   77.4170   61.9620 H   0  0  0  0  0  0  0  0  0  0  0  0
   40.7620   77.8250   60.4670 O   0  0  0  0  0  0  0  0  0  0  0  0
   40.9250   78.9310   59.6850 C   0  0  0  0  0  2  0  0  0  0  0  0
   40.0410   80.0430   60.2660 C   0  0  0  0  0  2  0  0  0  0  0  0
   43.7140   86.5290   59.9620 C   0  0  0  0  0  0  0  0  0  0  0  0
   43.1440   86.6490   58.6780 C   0  0  0  0  0  0  0  0  0  0  0  0
   42.0780   85.8340   58.3320 C   0  0  0  0  0  0  0  0  0  0  0  0
   41.6400   84.9480   59.2750 N   0  0  0  0  0  0  0  0  0  0  0  0
   42.1970   84.8550   60.4800 C   0  0  0  0  0  0  0  0  0  0  0  0
   43.2210   85.6260   60.8390 N   0  0  0  0  0  0  0  0  0  0  0  0
   44.7890   87.4220   60.1780 N   0  0  0  0  0  0  0  0  0  0  0  0
   43.4870   87.3470   57.9350 H   0  0  0  0  0  0  0  0  0  0  0  0
   41.6290   85.9110   57.3540 H   0  0  0  0  0  0  0  0  0  0  0  0
   45.5600   87.4900   59.4560 H   0  0  0  0  0  0  0  0  0  0  0  0
   44.7220   87.9620   61.0810 H   0  0  0  0  0  0  0  0  0  0  0  0
  1  2  1  0  0  0  0
  2  7  1  0  0  0  0
  2  3  2  0  0  0  0
  3  8  1  0  0  0  0
  4  3  1  0  0  0  0
  5  4  2  0  0  0  0
  6  1  2  0  0  0  0
  6  5  1  0  0  0  0
  9  5  1  0  0  0  0
  9 10  1  0  0  0  0
 10 11  1  0  0  0  0
 12 13  1  0  0  0  0
 12 10  1  0  0  0  0
 14 12  1  0  0  0  0
 15 16  1  0  0  0  0
 15 14  1  0  0  0  0
 16  9  1  0  0  0  0
 17 23  1  0  0  0  0
 17 22  1  0  0  0  0
 18 17  2  0  0  0  0
 19 18  1  0  0  0  0
 19 20  2  0  0  0  0
 20 21  1  0  0  0  0
 21 22  2  0  0  0  0
 21  1  1  0  0  0  0
 23 27  1  0  0  0  0
 24 18  1  0  0  0  0
 25 19  1  0  0  0  0
 26 23  1  0  0  0  0
M  END
>  <minimizedAffinity>
-5.17557383

>  <minimizedRMSD>
0.701263785

$$$$
