
 OpenBabel03212520473D

 27 29  0  0  0  0  0  0  0  0999 V2000
   41.6700   83.8440   61.4020 C   0  0  0  0  0  0  0  0  0  0  0  0
   41.4210   84.1450   62.7280 C   0  0  0  0  0  0  0  0  0  0  0  0
   40.9150   83.1960   63.6120 C   0  0  0  0  0  0  0  0  0  0  0  0
   40.6560   81.9400   63.1690 N   0  0  0  0  0  0  0  0  0  0  0  0
   40.9030   81.6660   61.8840 C   0  0  0  0  0  0  0  0  0  0  0  0
   41.3980   82.5940   61.0170 N   0  0  0  0  0  0  0  0  0  0  0  0
   41.6450   85.1670   63.0330 H   0  0  0  0  0  0  0  0  0  0  0  0
   40.7550   83.5360   64.6350 H   0  0  0  0  0  0  0  0  0  0  0  0
   40.6300   80.3460   61.4210 N   0  0  0  0  0  0  0  0  0  0  0  0
   40.7530   79.2570   62.3630 C   0  0  0  0  0  3  0  0  0  0  0  0
   39.9170   79.3930   63.0840 H   0  0  0  0  0  0  0  0  0  0  0  0
   40.6640   77.9090   61.7720 C   0  0  0  0  0  3  0  0  0  0  0  0
   41.5300   77.2980   62.1540 H   0  0  0  0  0  0  0  0  0  0  0  0
   40.6670   77.7870   60.4180 O   0  0  0  0  0  0  0  0  0  0  0  0
   41.1080   78.8490   59.6840 C   0  0  0  0  0  2  0  0  0  0  0  0
   40.2380   80.0580   60.0530 C   0  0  0  0  0  2  0  0  0  0  0  0
   43.7120   86.5250   59.9790 C   0  0  0  0  0  0  0  0  0  0  0  0
   43.1390   86.6660   58.6980 C   0  0  0  0  0  0  0  0  0  0  0  0
   42.0740   85.8540   58.3400 C   0  0  0  0  0  0  0  0  0  0  0  0
   41.6400   84.9510   59.2690 N   0  0  0  0  0  0  0  0  0  0  0  0
   42.2000   84.8380   60.4710 C   0  0  0  0  0  0  0  0  0  0  0  0
   43.2230   85.6050   60.8410 N   0  0  0  0  0  0  0  0  0  0  0  0
   44.7860   87.4160   60.2080 N   0  0  0  0  0  0  0  0  0  0  0  0
   43.4790   87.3770   57.9660 H   0  0  0  0  0  0  0  0  0  0  0  0
   41.6230   85.9470   57.3650 H   0  0  0  0  0  0  0  0  0  0  0  0
   45.5550   87.4990   59.4860 H   0  0  0  0  0  0  0  0  0  0  0  0
   44.7190   87.9410   61.1200 H   0  0  0  0  0  0  0  0  0  0  0  0
  1  2  1  0  0  0  0
  2  7  1  0  0  0  0
  2  3  2  0  0  0  0
  3  8  1  0  0  0  0
  4  3  1  0  0  0  0
  5  4  2  0  0  0  0
  6  1  2  0  0  0  0
  6  5  1  0  0  0  0
  9  5  1  0  0  0  0
  9 10  1  0  0  0  0
 10 11  1  0  0  0  0
 12 13  1  0  0  0  0
 12 10  1  0  0  0  0
 14 12  1  0  0  0  0
 15 16  1  0  0  0  0
 15 14  1  0  0  0  0
 16  9  1  0  0  0  0
 17 23  1  0  0  0  0
 17 22  1  0  0  0  0
 18 17  2  0  0  0  0
 19 18  1  0  0  0  0
 19 20  2  0  0  0  0
 20 21  1  0  0  0  0
 21 22  2  0  0  0  0
 21  1  1  0  0  0  0
 23 27  1  0  0  0  0
 24 18  1  0  0  0  0
 25 19  1  0  0  0  0
 26 23  1  0  0  0  0
M  END
>  <minimizedAffinity>
-5.30548811

>  <minimizedRMSD>
0.804116488

$$$$
