
 OpenBabel03212520473D

 27 29  0  0  0  0  0  0  0  0999 V2000
   41.6770   83.8190   61.3320 C   0  0  0  0  0  0  0  0  0  0  0  0
   41.4210   84.1010   62.6610 C   0  0  0  0  0  0  0  0  0  0  0  0
   40.9380   83.1320   63.5370 C   0  0  0  0  0  0  0  0  0  0  0  0
   40.7090   81.8740   63.0820 N   0  0  0  0  0  0  0  0  0  0  0  0
   40.9620   81.6180   61.7940 C   0  0  0  0  0  0  0  0  0  0  0  0
   41.4350   82.5660   60.9360 N   0  0  0  0  0  0  0  0  0  0  0  0
   41.6210   85.1250   62.9760 H   0  0  0  0  0  0  0  0  0  0  0  0
   40.7710   83.4590   64.5630 H   0  0  0  0  0  0  0  0  0  0  0  0
   40.7200   80.2970   61.3190 N   0  0  0  0  0  0  0  0  0  0  0  0
   40.5410   79.2470   62.2950 C   0  0  0  0  0  3  0  0  0  0  0  0
   39.5680   79.4610   62.7870 H   0  0  0  0  0  0  0  0  0  0  0  0
   40.5070   77.8810   61.7390 C   0  0  0  0  0  3  0  0  0  0  0  0
   41.2130   77.2380   62.3370 H   0  0  0  0  0  0  0  0  0  0  0  0
   40.8250   77.6970   60.4310 O   0  0  0  0  0  0  0  0  0  0  0  0
   41.4980   78.6980   59.7920 C   0  0  0  0  0  2  0  0  0  0  0  0
   40.6480   79.9710   59.9050 C   0  0  0  0  0  2  0  0  0  0  0  0
   43.6740   86.5410   59.9250 C   0  0  0  0  0  0  0  0  0  0  0  0
   43.0780   86.7010   58.6570 C   0  0  0  0  0  0  0  0  0  0  0  0
   42.0140   85.8870   58.3020 C   0  0  0  0  0  0  0  0  0  0  0  0
   41.6030   84.9640   59.2210 N   0  0  0  0  0  0  0  0  0  0  0  0
   42.1840   84.8340   60.4110 C   0  0  0  0  0  0  0  0  0  0  0  0
   43.2070   85.6020   60.7780 N   0  0  0  0  0  0  0  0  0  0  0  0
   44.7450   87.4370   60.1520 N   0  0  0  0  0  0  0  0  0  0  0  0
   43.4010   87.4280   57.9330 H   0  0  0  0  0  0  0  0  0  0  0  0
   41.5460   85.9950   57.3370 H   0  0  0  0  0  0  0  0  0  0  0  0
   45.5010   87.5390   59.4190 H   0  0  0  0  0  0  0  0  0  0  0  0
   44.6900   87.9440   61.0750 H   0  0  0  0  0  0  0  0  0  0  0  0
  1  2  1  0  0  0  0
  2  7  1  0  0  0  0
  2  3  2  0  0  0  0
  3  8  1  0  0  0  0
  4  3  1  0  0  0  0
  5  4  2  0  0  0  0
  6  1  2  0  0  0  0
  6  5  1  0  0  0  0
  9  5  1  0  0  0  0
  9 10  1  0  0  0  0
 10 11  1  0  0  0  0
 12 10  1  0  0  0  0
 12 13  1  0  0  0  0
 14 12  1  0  0  0  0
 15 16  1  0  0  0  0
 15 14  1  0  0  0  0
 16  9  1  0  0  0  0
 17 23  1  0  0  0  0
 17 22  1  0  0  0  0
 18 17  2  0  0  0  0
 19 18  1  0  0  0  0
 19 20  2  0  0  0  0
 20 21  1  0  0  0  0
 21 22  2  0  0  0  0
 21  1  1  0  0  0  0
 23 27  1  0  0  0  0
 24 18  1  0  0  0  0
 25 19  1  0  0  0  0
 26 23  1  0  0  0  0
M  END
>  <minimizedAffinity>
-5.20846367

>  <minimizedRMSD>
0.813747168

$$$$
