
 OpenBabel03212520473D

 27 29  0  0  0  0  0  0  0  0999 V2000
   41.6310   83.8800   61.4070 C   0  0  0  0  0  0  0  0  0  0  0  0
   41.0200   84.3010   62.5740 C   0  0  0  0  0  0  0  0  0  0  0  0
   40.5730   83.3980   63.5350 C   0  0  0  0  0  0  0  0  0  0  0  0
   40.7380   82.0670   63.3290 N   0  0  0  0  0  0  0  0  0  0  0  0
   41.3320   81.6770   62.1950 C   0  0  0  0  0  0  0  0  0  0  0  0
   41.7690   82.5600   61.2540 N   0  0  0  0  0  0  0  0  0  0  0  0
   40.9110   85.3790   62.6910 H   0  0  0  0  0  0  0  0  0  0  0  0
   40.1060   83.8340   64.4170 H   0  0  0  0  0  0  0  0  0  0  0  0
   41.5040   80.2780   61.9820 N   0  0  0  0  0  0  0  0  0  0  0  0
   42.8490   79.7760   61.8190 C   0  0  0  0  0  3  0  0  0  0  0  0
   43.3300   79.8860   62.8150 H   0  0  0  0  0  0  0  0  0  0  0  0
   42.9400   78.3670   61.3940 C   0  0  0  0  0  3  0  0  0  0  0  0
   43.6530   78.3060   60.5230 H   0  0  0  0  0  0  0  0  0  0  0  0
   41.8060   77.7230   61.0150 O   0  0  0  0  0  0  0  0  0  0  0  0
   40.7160   78.4830   60.7000 C   0  0  0  0  0  2  0  0  0  0  0  0
   40.3890   79.3500   61.9230 C   0  0  0  0  0  2  0  0  0  0  0  0
   43.6370   86.4080   59.6850 C   0  0  0  0  0  0  0  0  0  0  0  0
   42.9180   86.5670   58.4830 C   0  0  0  0  0  0  0  0  0  0  0  0
   41.7700   85.8190   58.2770 C   0  0  0  0  0  0  0  0  0  0  0  0
   41.4010   84.9580   59.2710 N   0  0  0  0  0  0  0  0  0  0  0  0
   42.1000   84.8260   60.3970 C   0  0  0  0  0  0  0  0  0  0  0  0
   43.2050   85.5330   60.6210 N   0  0  0  0  0  0  0  0  0  0  0  0
   44.7830   87.2330   59.7600 N   0  0  0  0  0  0  0  0  0  0  0  0
   43.2060   87.2450   57.6990 H   0  0  0  0  0  0  0  0  0  0  0  0
   41.2070   85.9260   57.3630 H   0  0  0  0  0  0  0  0  0  0  0  0
   45.4590   87.2580   58.9460 H   0  0  0  0  0  0  0  0  0  0  0  0
   44.8630   87.7740   60.6620 H   0  0  0  0  0  0  0  0  0  0  0  0
  1  2  1  0  0  0  0
  2  7  1  0  0  0  0
  2  3  2  0  0  0  0
  3  8  1  0  0  0  0
  4  3  1  0  0  0  0
  5  4  2  0  0  0  0
  6  1  2  0  0  0  0
  6  5  1  0  0  0  0
  9  5  1  0  0  0  0
 10  9  1  0  0  0  0
 10 11  1  0  0  0  0
 12 10  1  0  0  0  0
 13 12  1  0  0  0  0
 14 12  1  0  0  0  0
 15 14  1  0  0  0  0
 15 16  1  0  0  0  0
 16  9  1  0  0  0  0
 17 23  1  0  0  0  0
 17 22  1  0  0  0  0
 18 17  2  0  0  0  0
 19 18  1  0  0  0  0
 19 20  2  0  0  0  0
 20 21  1  0  0  0  0
 21 22  2  0  0  0  0
 21  1  1  0  0  0  0
 23 27  1  0  0  0  0
 24 18  1  0  0  0  0
 25 19  1  0  0  0  0
 26 23  1  0  0  0  0
M  END
>  <minimizedAffinity>
-5.31933594

>  <minimizedRMSD>
0.302292496

$$$$
