
 OpenBabel03212520473D

 27 29  0  0  0  0  0  0  0  0999 V2000
   41.6720   83.8210   61.4510 C   0  0  0  0  0  0  0  0  0  0  0  0
   40.9860   84.2130   62.5850 C   0  0  0  0  0  0  0  0  0  0  0  0
   40.5060   83.2870   63.5080 C   0  0  0  0  0  0  0  0  0  0  0  0
   40.7120   81.9630   63.2960 N   0  0  0  0  0  0  0  0  0  0  0  0
   41.3780   81.6020   62.1940 C   0  0  0  0  0  0  0  0  0  0  0  0
   41.8480   82.5070   61.2900 N   0  0  0  0  0  0  0  0  0  0  0  0
   40.8460   85.2870   62.7090 H   0  0  0  0  0  0  0  0  0  0  0  0
   39.9790   83.7020   64.3680 H   0  0  0  0  0  0  0  0  0  0  0  0
   41.5940   80.2100   61.9750 N   0  0  0  0  0  0  0  0  0  0  0  0
   42.7800   79.8130   61.2510 C   0  0  0  0  0  3  0  0  0  0  0  0
   43.6310   80.0420   61.9280 H   0  0  0  0  0  0  0  0  0  0  0  0
   42.8320   78.3860   60.8780 C   0  0  0  0  0  3  0  0  0  0  0  0
   43.0970   78.3170   59.7850 H   0  0  0  0  0  0  0  0  0  0  0  0
   41.7250   77.6200   61.0610 O   0  0  0  0  0  0  0  0  0  0  0  0
   40.5310   78.2580   61.2340 C   0  0  0  0  0  2  0  0  0  0  0  0
   40.6750   79.1890   62.4460 C   0  0  0  0  0  2  0  0  0  0  0  0
   43.6650   86.4720   59.9080 C   0  0  0  0  0  0  0  0  0  0  0  0
   43.0650   86.5710   58.6350 C   0  0  0  0  0  0  0  0  0  0  0  0
   42.0000   85.7410   58.3230 C   0  0  0  0  0  0  0  0  0  0  0  0
   41.5910   84.8640   59.2870 N   0  0  0  0  0  0  0  0  0  0  0  0
   42.1760   84.7910   60.4800 C   0  0  0  0  0  0  0  0  0  0  0  0
   43.2000   85.5750   60.8060 N   0  0  0  0  0  0  0  0  0  0  0  0
   44.7370   87.3770   60.0880 N   0  0  0  0  0  0  0  0  0  0  0  0
   43.3860   87.2610   57.8750 H   0  0  0  0  0  0  0  0  0  0  0  0
   41.5290   85.8020   57.3550 H   0  0  0  0  0  0  0  0  0  0  0  0
   45.4910   87.4430   59.3480 H   0  0  0  0  0  0  0  0  0  0  0  0
   44.6840   87.9280   60.9860 H   0  0  0  0  0  0  0  0  0  0  0  0
  1  2  1  0  0  0  0
  2  7  1  0  0  0  0
  2  3  2  0  0  0  0
  3  8  1  0  0  0  0
  4  3  1  0  0  0  0
  5  4  2  0  0  0  0
  6  1  2  0  0  0  0
  6  5  1  0  0  0  0
  9  5  1  0  0  0  0
  9 16  1  0  0  0  0
 10 11  1  0  0  0  0
 10  9  1  0  0  0  0
 12 14  1  0  0  0  0
 12 10  1  0  0  0  0
 13 12  1  0  0  0  0
 14 15  1  0  0  0  0
 15 16  1  0  0  0  0
 17 23  1  0  0  0  0
 17 22  1  0  0  0  0
 18 17  2  0  0  0  0
 19 18  1  0  0  0  0
 19 20  2  0  0  0  0
 20 21  1  0  0  0  0
 21 22  2  0  0  0  0
 21  1  1  0  0  0  0
 23 27  1  0  0  0  0
 24 18  1  0  0  0  0
 25 19  1  0  0  0  0
 26 23  1  0  0  0  0
M  END
>  <minimizedAffinity>
-5.29468489

>  <minimizedRMSD>
0.4240309

$$$$
