
 OpenBabel03212520473D

 27 29  0  0  0  0  0  0  0  0999 V2000
   41.6800   83.8870   61.3290 C   0  0  0  0  0  0  0  0  0  0  0  0
   41.2130   84.2260   62.5850 C   0  0  0  0  0  0  0  0  0  0  0  0
   40.7010   83.2710   63.4600 C   0  0  0  0  0  0  0  0  0  0  0  0
   40.6550   81.9700   63.0760 N   0  0  0  0  0  0  0  0  0  0  0  0
   41.1100   81.6600   61.8580 C   0  0  0  0  0  0  0  0  0  0  0  0
   41.6120   82.5940   61.0010 N   0  0  0  0  0  0  0  0  0  0  0  0
   41.2720   85.2830   62.8450 H   0  0  0  0  0  0  0  0  0  0  0  0
   40.3610   83.6440   64.4260 H   0  0  0  0  0  0  0  0  0  0  0  0
   41.0600   80.2930   61.4580 N   0  0  0  0  0  0  0  0  0  0  0  0
   40.2830   79.9560   60.2870 C   0  0  0  0  0  3  0  0  0  0  0  0
   40.8370   80.3940   59.4280 H   0  0  0  0  0  0  0  0  0  0  0  0
   40.1030   78.5100   60.0550 C   0  0  0  0  0  3  0  0  0  0  0  0
   39.0080   78.3160   59.8710 H   0  0  0  0  0  0  0  0  0  0  0  0
   40.4960   77.6380   61.0200 O   0  0  0  0  0  0  0  0  0  0  0  0
   40.6990   78.1280   62.2780 C   0  0  0  0  0  2  0  0  0  0  0  0
   41.7530   79.2380   62.1770 C   0  0  0  0  0  2  0  0  0  0  0  0
   43.7310   86.5800   59.9420 C   0  0  0  0  0  0  0  0  0  0  0  0
   43.1700   86.7270   58.6570 C   0  0  0  0  0  0  0  0  0  0  0  0
   42.1110   85.9150   58.2830 C   0  0  0  0  0  0  0  0  0  0  0  0
   41.6690   85.0060   59.2020 N   0  0  0  0  0  0  0  0  0  0  0  0
   42.2180   84.8870   60.4090 C   0  0  0  0  0  0  0  0  0  0  0  0
   43.2350   85.6540   60.7940 N   0  0  0  0  0  0  0  0  0  0  0  0
   44.8010   87.4710   60.1860 N   0  0  0  0  0  0  0  0  0  0  0  0
   43.5170   87.4420   57.9320 H   0  0  0  0  0  0  0  0  0  0  0  0
   41.6700   86.0130   57.3040 H   0  0  0  0  0  0  0  0  0  0  0  0
   45.5770   87.5600   59.4730 H   0  0  0  0  0  0  0  0  0  0  0  0
   44.7240   87.9910   61.1010 H   0  0  0  0  0  0  0  0  0  0  0  0
  1  2  1  0  0  0  0
  2  7  1  0  0  0  0
  2  3  2  0  0  0  0
  3  8  1  0  0  0  0
  4  3  1  0  0  0  0
  5  4  2  0  0  0  0
  6  1  2  0  0  0  0
  6  5  1  0  0  0  0
  9  5  1  0  0  0  0
  9 16  1  0  0  0  0
 10  9  1  0  0  0  0
 11 10  1  0  0  0  0
 12 10  1  0  0  0  0
 12 14  1  0  0  0  0
 13 12  1  0  0  0  0
 14 15  1  0  0  0  0
 16 15  1  0  0  0  0
 17 23  1  0  0  0  0
 17 22  1  0  0  0  0
 18 17  2  0  0  0  0
 19 18  1  0  0  0  0
 19 20  2  0  0  0  0
 20 21  1  0  0  0  0
 21 22  2  0  0  0  0
 21  1  1  0  0  0  0
 23 27  1  0  0  0  0
 24 18  1  0  0  0  0
 25 19  1  0  0  0  0
 26 23  1  0  0  0  0
M  END
>  <minimizedAffinity>
-5.23472404

>  <minimizedRMSD>
0.565165043

$$$$
