
 OpenBabel03212520473D

 27 29  0  0  0  0  0  0  0  0999 V2000
   41.7740   83.8440   61.2930 C   0  0  0  0  0  0  0  0  0  0  0  0
   41.3920   84.1280   62.5910 C   0  0  0  0  0  0  0  0  0  0  0  0
   40.8990   83.1420   63.4420 C   0  0  0  0  0  0  0  0  0  0  0  0
   40.7880   81.8660   62.9950 N   0  0  0  0  0  0  0  0  0  0  0  0
   41.1630   81.6090   61.7370 C   0  0  0  0  0  0  0  0  0  0  0  0
   41.6450   82.5730   60.9020 N   0  0  0  0  0  0  0  0  0  0  0  0
   41.5000   85.1670   62.9010 H   0  0  0  0  0  0  0  0  0  0  0  0
   40.6270   83.4720   64.4450 H   0  0  0  0  0  0  0  0  0  0  0  0
   41.0460   80.2680   61.2690 N   0  0  0  0  0  0  0  0  0  0  0  0
   40.5300   79.2730   62.1810 C   0  0  0  0  0  3  0  0  0  0  0  0
   39.4580   79.5290   62.3240 H   0  0  0  0  0  0  0  0  0  0  0  0
   40.6320   77.8810   61.7060 C   0  0  0  0  0  3  0  0  0  0  0  0
   41.0910   77.2600   62.5290 H   0  0  0  0  0  0  0  0  0  0  0  0
   41.3480   77.6240   60.5810 O   0  0  0  0  0  0  0  0  0  0  0  0
   42.2210   78.5800   60.1490 C   0  0  0  0  0  2  0  0  0  0  0  0
   41.4200   79.8700   59.9230 C   0  0  0  0  0  2  0  0  0  0  0  0
   43.7360   86.6420   59.9870 C   0  0  0  0  0  0  0  0  0  0  0  0
   43.2070   86.7740   58.6870 C   0  0  0  0  0  0  0  0  0  0  0  0
   42.1980   85.9170   58.2770 C   0  0  0  0  0  0  0  0  0  0  0  0
   41.7720   84.9810   59.1760 N   0  0  0  0  0  0  0  0  0  0  0  0
   42.2910   84.8770   60.3970 C   0  0  0  0  0  0  0  0  0  0  0  0
   43.2600   85.6870   60.8170 N   0  0  0  0  0  0  0  0  0  0  0  0
   44.7560   87.5800   60.2700 N   0  0  0  0  0  0  0  0  0  0  0  0
   43.5400   87.5120   57.9780 H   0  0  0  0  0  0  0  0  0  0  0  0
   41.7800   86.0030   57.2860 H   0  0  0  0  0  0  0  0  0  0  0  0
   45.5470   87.7110   59.5800 H   0  0  0  0  0  0  0  0  0  0  0  0
   44.6280   88.0870   61.1860 H   0  0  0  0  0  0  0  0  0  0  0  0
  1  2  1  0  0  0  0
  2  7  1  0  0  0  0
  2  3  2  0  0  0  0
  3  8  1  0  0  0  0
  4  3  1  0  0  0  0
  5  4  2  0  0  0  0
  6  1  2  0  0  0  0
  6  5  1  0  0  0  0
  9  5  1  0  0  0  0
  9 10  1  0  0  0  0
 10 11  1  0  0  0  0
 12 10  1  0  0  0  0
 12 13  1  0  0  0  0
 14 12  1  0  0  0  0
 15 14  1  0  0  0  0
 16 15  1  0  0  0  0
 16  9  1  0  0  0  0
 17 23  1  0  0  0  0
 17 22  1  0  0  0  0
 18 17  2  0  0  0  0
 19 18  1  0  0  0  0
 19 20  2  0  0  0  0
 20 21  1  0  0  0  0
 21 22  2  0  0  0  0
 21  1  1  0  0  0  0
 23 27  1  0  0  0  0
 24 18  1  0  0  0  0
 25 19  1  0  0  0  0
 26 23  1  0  0  0  0
M  END
>  <minimizedAffinity>
-5.07919073

>  <minimizedRMSD>
0.750081599

$$$$
