
 OpenBabel03212520473D

 27 29  0  0  0  0  0  0  0  0999 V2000
   41.6120   83.8700   61.4070 C   0  0  0  0  0  0  0  0  0  0  0  0
   40.9520   84.2880   62.5470 C   0  0  0  0  0  0  0  0  0  0  0  0
   40.4990   83.3850   63.5050 C   0  0  0  0  0  0  0  0  0  0  0  0
   40.7060   82.0570   63.3220 N   0  0  0  0  0  0  0  0  0  0  0  0
   41.3470   81.6690   62.2140 C   0  0  0  0  0  0  0  0  0  0  0  0
   41.7910   82.5530   61.2760 N   0  0  0  0  0  0  0  0  0  0  0  0
   40.8110   85.3640   62.6460 H   0  0  0  0  0  0  0  0  0  0  0  0
   39.9920   83.8190   64.3660 H   0  0  0  0  0  0  0  0  0  0  0  0
   41.5640   80.2740   62.0240 N   0  0  0  0  0  0  0  0  0  0  0  0
   42.8710   79.8420   61.5850 C   0  0  0  0  0  3  0  0  0  0  0  0
   43.5500   80.0340   62.4440 H   0  0  0  0  0  0  0  0  0  0  0  0
   42.9630   78.4190   61.2090 C   0  0  0  0  0  3  0  0  0  0  0  0
   43.4680   78.3510   60.2040 H   0  0  0  0  0  0  0  0  0  0  0  0
   41.8200   77.6910   61.1190 O   0  0  0  0  0  0  0  0  0  0  0  0
   40.6380   78.3680   61.0250 C   0  0  0  0  0  2  0  0  0  0  0  0
   40.5290   79.2800   62.2540 C   0  0  0  0  0  2  0  0  0  0  0  0
   43.6290   86.4010   59.7010 C   0  0  0  0  0  0  0  0  0  0  0  0
   42.9210   86.5570   58.4920 C   0  0  0  0  0  0  0  0  0  0  0  0
   41.7770   85.8060   58.2760 C   0  0  0  0  0  0  0  0  0  0  0  0
   41.4000   84.9450   59.2680 N   0  0  0  0  0  0  0  0  0  0  0  0
   42.0890   84.8160   60.4000 C   0  0  0  0  0  0  0  0  0  0  0  0
   43.1900   85.5250   60.6330 N   0  0  0  0  0  0  0  0  0  0  0  0
   44.7730   87.2280   59.7850 N   0  0  0  0  0  0  0  0  0  0  0  0
   43.2150   87.2350   57.7100 H   0  0  0  0  0  0  0  0  0  0  0  0
   41.2210   85.9120   57.3570 H   0  0  0  0  0  0  0  0  0  0  0  0
   45.4570   87.2540   58.9780 H   0  0  0  0  0  0  0  0  0  0  0  0
   44.8430   87.7700   60.6880 H   0  0  0  0  0  0  0  0  0  0  0  0
  1  2  1  0  0  0  0
  2  7  1  0  0  0  0
  2  3  2  0  0  0  0
  3  8  1  0  0  0  0
  4  3  1  0  0  0  0
  5  4  2  0  0  0  0
  6  1  2  0  0  0  0
  6  5  1  0  0  0  0
  9  5  1  0  0  0  0
  9 16  1  0  0  0  0
 10  9  1  0  0  0  0
 10 11  1  0  0  0  0
 12 10  1  0  0  0  0
 13 12  1  0  0  0  0
 14 12  1  0  0  0  0
 15 14  1  0  0  0  0
 15 16  1  0  0  0  0
 17 23  1  0  0  0  0
 17 22  1  0  0  0  0
 18 17  2  0  0  0  0
 19 18  1  0  0  0  0
 19 20  2  0  0  0  0
 20 21  1  0  0  0  0
 21 22  2  0  0  0  0
 21  1  1  0  0  0  0
 23 27  1  0  0  0  0
 24 18  1  0  0  0  0
 25 19  1  0  0  0  0
 26 23  1  0  0  0  0
M  END
>  <minimizedAffinity>
-5.32444382

>  <minimizedRMSD>
0.364470154

$$$$
