
 OpenBabel03212520503D

 27 29  0  0  0  0  0  0  0  0999 V2000
   39.1380   76.0650   57.8630 C   0  0  0  0  0  0  0  0  0  0  0  0
   39.2650   77.2820   58.5070 C   0  0  0  0  0  0  0  0  0  0  0  0
   39.9690   77.4090   59.7010 C   0  0  0  0  0  0  0  0  0  0  0  0
   40.5500   76.3160   60.2550 N   0  0  0  0  0  0  0  0  0  0  0  0
   40.4180   75.1460   59.6190 C   0  0  0  0  0  0  0  0  0  0  0  0
   39.7280   75.0200   58.4500 N   0  0  0  0  0  0  0  0  0  0  0  0
   38.7800   78.1290   58.0210 H   0  0  0  0  0  0  0  0  0  0  0  0
   40.0090   78.4130   60.1250 H   0  0  0  0  0  0  0  0  0  0  0  0
   41.0290   73.9990   60.2030 N   0  0  0  0  0  0  0  0  0  0  0  0
   40.6100   73.6070   61.5300 C   0  0  0  0  0  3  0  0  0  0  0  0
   39.5660   73.2400   61.4150 H   0  0  0  0  0  0  0  0  0  0  0  0
   41.4250   72.5480   62.1530 C   0  0  0  0  0  3  0  0  0  0  0  0
   41.7040   72.8830   63.1920 H   0  0  0  0  0  0  0  0  0  0  0  0
   42.5790   72.1680   61.5440 O   0  0  0  0  0  0  0  0  0  0  0  0
   43.1100   73.0040   60.6050 C   0  0  0  0  0  2  0  0  0  0  0  0
   42.0450   73.2180   59.5220 C   0  0  0  0  0  2  0  0  0  0  0  0
   38.1440   74.9490   54.5240 C   0  0  0  0  0  0  0  0  0  0  0  0
   36.9850   75.7210   54.3030 C   0  0  0  0  0  0  0  0  0  0  0  0
   36.5620   76.6030   55.2840 C   0  0  0  0  0  0  0  0  0  0  0  0
   37.3100   76.6700   56.4250 N   0  0  0  0  0  0  0  0  0  0  0  0
   38.4000   75.9280   56.6090 C   0  0  0  0  0  0  0  0  0  0  0  0
   38.8280   75.0740   55.6830 N   0  0  0  0  0  0  0  0  0  0  0  0
   38.4580   74.0950   53.4410 N   0  0  0  0  0  0  0  0  0  0  0  0
   36.3960   75.6700   53.4040 H   0  0  0  0  0  0  0  0  0  0  0  0
   35.6780   77.2020   55.1330 H   0  0  0  0  0  0  0  0  0  0  0  0
   37.7010   73.4830   53.0260 H   0  0  0  0  0  0  0  0  0  0  0  0
   39.4650   74.1500   53.1310 H   0  0  0  0  0  0  0  0  0  0  0  0
  1  6  2  0  0  0  0
  1  2  1  0  0  0  0
  2  3  2  0  0  0  0
  3  8  1  0  0  0  0
  3  4  1  0  0  0  0
  5  9  1  0  0  0  0
  5  4  2  0  0  0  0
  6  5  1  0  0  0  0
  7  2  1  0  0  0  0
  9 10  1  0  0  0  0
 10 12  1  0  0  0  0
 11 10  1  0  0  0  0
 12 13  1  0  0  0  0
 14 12  1  0  0  0  0
 15 14  1  0  0  0  0
 16  9  1  0  0  0  0
 16 15  1  0  0  0  0
 17 22  1  0  0  0  0
 18 17  2  0  0  0  0
 18 19  1  0  0  0  0
 19 20  2  0  0  0  0
 20 21  1  0  0  0  0
 21  1  1  0  0  0  0
 22 21  2  0  0  0  0
 23 17  1  0  0  0  0
 24 18  1  0  0  0  0
 25 19  1  0  0  0  0
 26 23  1  0  0  0  0
 27 23  1  0  0  0  0
M  END
>  <minimizedAffinity>
-5.73124409

$$$$

 OpenBabel03212520503D

 27 29  0  0  0  0  0  0  0  0999 V2000
   40.5400   75.0900   59.6870 C   0  0  0  0  0  0  0  0  0  0  0  0
   40.4190   76.3750   60.1830 C   0  0  0  0  0  0  0  0  0  0  0  0
   39.7110   77.3600   59.5000 C   0  0  0  0  0  0  0  0  0  0  0  0
   39.1200   77.0600   58.3160 N   0  0  0  0  0  0  0  0  0  0  0  0
   39.2470   75.8130   57.8510 C   0  0  0  0  0  0  0  0  0  0  0  0
   39.9410   74.8480   58.5190 N   0  0  0  0  0  0  0  0  0  0  0  0
   40.9120   76.5650   61.1360 H   0  0  0  0  0  0  0  0  0  0  0  0
   39.6760   78.3390   59.9790 H   0  0  0  0  0  0  0  0  0  0  0  0
   38.6260   75.5000   56.6080 N   0  0  0  0  0  0  0  0  0  0  0  0
   39.0360   76.2430   55.4370 C   0  0  0  0  0  3  0  0  0  0  0  0
   40.0780   75.9140   55.2270 H   0  0  0  0  0  0  0  0  0  0  0  0
   38.2110   76.0180   54.2360 C   0  0  0  0  0  3  0  0  0  0  0  0
   37.9290   77.0210   53.8080 H   0  0  0  0  0  0  0  0  0  0  0  0
   37.0570   75.3100   54.3580 O   0  0  0  0  0  0  0  0  0  0  0  0
   36.5360   75.1520   55.6090 C   0  0  0  0  0  2  0  0  0  0  0  0
   37.6070   74.4740   56.4740 C   0  0  0  0  0  2  0  0  0  0  0  0
   41.3510   72.3480   61.9690 C   0  0  0  0  0  0  0  0  0  0  0  0
   42.7190   72.1490   61.6940 C   0  0  0  0  0  0  0  0  0  0  0  0
   43.3420   72.9440   60.7460 C   0  0  0  0  0  0  0  0  0  0  0  0
   42.5750   73.8880   60.1240 N   0  0  0  0  0  0  0  0  0  0  0  0
   41.2840   74.0540   60.4020 C   0  0  0  0  0  0  0  0  0  0  0  0
   40.6610   73.3050   61.3080 N   0  0  0  0  0  0  0  0  0  0  0  0
   40.8490   71.4690   62.9560 N   0  0  0  0  0  0  0  0  0  0  0  0
   43.3250   71.4060   62.1830 H   0  0  0  0  0  0  0  0  0  0  0  0
   44.3880   72.8070   60.5220 H   0  0  0  0  0  0  0  0  0  0  0  0
   41.0440   70.4320   62.8760 H   0  0  0  0  0  0  0  0  0  0  0  0
   40.2990   71.9500   63.7170 H   0  0  0  0  0  0  0  0  0  0  0  0
  1  2  1  0  0  0  0
  1 21  1  0  0  0  0
  2  7  1  0  0  0  0
  3  8  1  0  0  0  0
  3  2  2  0  0  0  0
  4  3  1  0  0  0  0
  5  4  2  0  0  0  0
  5  6  1  0  0  0  0
  6  1  2  0  0  0  0
  9  5  1  0  0  0  0
 10  9  1  0  0  0  0
 11 10  1  0  0  0  0
 12 14  1  0  0  0  0
 12 10  1  0  0  0  0
 13 12  1  0  0  0  0
 14 15  1  0  0  0  0
 15 16  1  0  0  0  0
 16  9  1  0  0  0  0
 17 23  1  0  0  0  0
 18 17  1  0  0  0  0
 18 24  1  0  0  0  0
 19 18  2  0  0  0  0
 20 21  2  0  0  0  0
 20 19  1  0  0  0  0
 21 22  1  0  0  0  0
 22 17  2  0  0  0  0
 23 27  1  0  0  0  0
 25 19  1  0  0  0  0
 26 23  1  0  0  0  0
M  END
>  <minimizedAffinity>
-5.47927618

$$$$

 OpenBabel03212520503D

 27 29  0  0  0  0  0  0  0  0999 V2000
   41.3500   73.6010   59.6030 C   0  0  0  0  0  0  0  0  0  0  0  0
   42.5470   74.2900   59.6510 C   0  0  0  0  0  0  0  0  0  0  0  0
   43.6840   73.7440   60.2410 C   0  0  0  0  0  0  0  0  0  0  0  0
   43.6250   72.5030   60.7850 N   0  0  0  0  0  0  0  0  0  0  0  0
   42.4590   71.8500   60.7290 C   0  0  0  0  0  0  0  0  0  0  0  0
   41.3450   72.3840   60.1530 N   0  0  0  0  0  0  0  0  0  0  0  0
   42.5430   75.2830   59.2010 H   0  0  0  0  0  0  0  0  0  0  0  0
   44.5760   74.3710   60.2250 H   0  0  0  0  0  0  0  0  0  0  0  0
   42.3990   70.5460   61.3010 N   0  0  0  0  0  0  0  0  0  0  0  0
   42.6920   70.4080   62.7100 C   0  0  0  0  0  3  0  0  0  0  0  0
   41.8450   70.8970   63.2390 H   0  0  0  0  0  0  0  0  0  0  0  0
   42.8180   69.0180   63.1860 C   0  0  0  0  0  3  0  0  0  0  0  0
   43.7700   68.9340   63.7830 H   0  0  0  0  0  0  0  0  0  0  0  0
   42.8410   68.0130   62.2720 O   0  0  0  0  0  0  0  0  0  0  0  0
   43.1080   68.3380   60.9740 C   0  0  0  0  0  2  0  0  0  0  0  0
   42.0570   69.3650   60.5300 C   0  0  0  0  0  2  0  0  0  0  0  0
   38.2050   73.9090   57.7600 C   0  0  0  0  0  0  0  0  0  0  0  0
   37.9560   75.2930   57.8580 C   0  0  0  0  0  0  0  0  0  0  0  0
   38.8540   76.0960   58.5440 C   0  0  0  0  0  0  0  0  0  0  0  0
   39.9440   75.4820   59.0920 N   0  0  0  0  0  0  0  0  0  0  0  0
   40.1550   74.1720   58.9850 C   0  0  0  0  0  0  0  0  0  0  0  0
   39.3100   73.3790   58.3320 N   0  0  0  0  0  0  0  0  0  0  0  0
   37.2090   73.2160   57.0340 N   0  0  0  0  0  0  0  0  0  0  0  0
   37.0970   75.7780   57.4270 H   0  0  0  0  0  0  0  0  0  0  0  0
   38.6800   77.1570   58.6300 H   0  0  0  0  0  0  0  0  0  0  0  0
   36.1900   73.3730   57.2700 H   0  0  0  0  0  0  0  0  0  0  0  0
   37.5920   72.5740   56.2890 H   0  0  0  0  0  0  0  0  0  0  0  0
  1  2  2  0  0  0  0
  1  6  1  0  0  0  0
  2  3  1  0  0  0  0
  3  4  2  0  0  0  0
  5  4  1  0  0  0  0
  5  9  1  0  0  0  0
  6  5  2  0  0  0  0
  7  2  1  0  0  0  0
  8  3  1  0  0  0  0
  9 10  1  0  0  0  0
 10 12  1  0  0  0  0
 10 11  1  0  0  0  0
 12 13  1  0  0  0  0
 14 12  1  0  0  0  0
 15 14  1  0  0  0  0
 16 15  1  0  0  0  0
 16  9  1  0  0  0  0
 17 18  2  0  0  0  0
 17 22  1  0  0  0  0
 18 19  1  0  0  0  0
 19 25  1  0  0  0  0
 19 20  2  0  0  0  0
 21 20  1  0  0  0  0
 21  1  1  0  0  0  0
 22 21  2  0  0  0  0
 23 26  1  0  0  0  0
 23 17  1  0  0  0  0
 24 18  1  0  0  0  0
 27 23  1  0  0  0  0
M  END
>  <minimizedAffinity>
-5.36407471

$$$$

 OpenBabel03212520503D

 27 29  0  0  0  0  0  0  0  0999 V2000
   41.1210   72.2750   59.7300 C   0  0  0  0  0  0  0  0  0  0  0  0
   40.9610   71.6460   58.5100 C   0  0  0  0  0  0  0  0  0  0  0  0
   41.2800   70.3030   58.3300 C   0  0  0  0  0  0  0  0  0  0  0  0
   41.7610   69.5840   59.3750 N   0  0  0  0  0  0  0  0  0  0  0  0
   41.9100   70.2080   60.5480 C   0  0  0  0  0  0  0  0  0  0  0  0
   41.5980   71.5230   60.7260 N   0  0  0  0  0  0  0  0  0  0  0  0
   40.5720   72.2670   57.7030 H   0  0  0  0  0  0  0  0  0  0  0  0
   41.1150   69.9040   57.3280 H   0  0  0  0  0  0  0  0  0  0  0  0
   42.4150   69.4500   61.6450 N   0  0  0  0  0  0  0  0  0  0  0  0
   43.7270   68.8560   61.5130 C   0  0  0  0  0  3  0  0  0  0  0  0
   44.4410   69.7090   61.5140 H   0  0  0  0  0  0  0  0  0  0  0  0
   44.0970   67.9190   62.5900 C   0  0  0  0  0  3  0  0  0  0  0  0
   44.4830   66.9720   62.1160 H   0  0  0  0  0  0  0  0  0  0  0  0
   43.1470   67.5460   63.4870 O   0  0  0  0  0  0  0  0  0  0  0  0
   41.8400   67.7570   63.1570 C   0  0  0  0  0  2  0  0  0  0  0  0
   41.6710   69.2560   62.8750 C   0  0  0  0  0  2  0  0  0  0  0  0
   39.5160   75.3270   60.9490 C   0  0  0  0  0  0  0  0  0  0  0  0
   40.2150   76.3190   60.2320 C   0  0  0  0  0  0  0  0  0  0  0  0
   41.2150   75.9390   59.3500 C   0  0  0  0  0  0  0  0  0  0  0  0
   41.4630   74.6010   59.2310 N   0  0  0  0  0  0  0  0  0  0  0  0
   40.7880   73.6850   59.9220 C   0  0  0  0  0  0  0  0  0  0  0  0
   39.8230   74.0230   60.7740 N   0  0  0  0  0  0  0  0  0  0  0  0
   38.5260   75.8580   61.8090 N   0  0  0  0  0  0  0  0  0  0  0  0
   40.0200   77.3730   60.3240 H   0  0  0  0  0  0  0  0  0  0  0  0
   41.7610   76.6830   58.7930 H   0  0  0  0  0  0  0  0  0  0  0  0
   38.7760   76.6530   62.4610 H   0  0  0  0  0  0  0  0  0  0  0  0
   37.5850   75.3910   61.7170 H   0  0  0  0  0  0  0  0  0  0  0  0
  1 21  1  0  0  0  0
  1  6  1  0  0  0  0
  2  1  2  0  0  0  0
  3  2  1  0  0  0  0
  3  4  2  0  0  0  0
  4  5  1  0  0  0  0
  5  6  2  0  0  0  0
  5  9  1  0  0  0  0
  7  2  1  0  0  0  0
  8  3  1  0  0  0  0
  9 16  1  0  0  0  0
 10 11  1  0  0  0  0
 10  9  1  0  0  0  0
 10 12  1  0  0  0  0
 12 14  1  0  0  0  0
 13 12  1  0  0  0  0
 15 14  1  0  0  0  0
 16 15  1  0  0  0  0
 17 23  1  0  0  0  0
 18 24  1  0  0  0  0
 18 17  2  0  0  0  0
 19 18  1  0  0  0  0
 20 19  2  0  0  0  0
 20 21  1  0  0  0  0
 21 22  2  0  0  0  0
 22 17  1  0  0  0  0
 23 26  1  0  0  0  0
 25 19  1  0  0  0  0
 27 23  1  0  0  0  0
M  END
>  <minimizedAffinity>
-5.35980129

$$$$

 OpenBabel03212520503D

 27 29  0  0  0  0  0  0  0  0999 V2000
   40.4470   73.0610   60.2280 C   0  0  0  0  0  0  0  0  0  0  0  0
   40.7520   73.4380   61.5220 C   0  0  0  0  0  0  0  0  0  0  0  0
   41.5810   72.6680   62.3340 C   0  0  0  0  0  0  0  0  0  0  0  0
   42.1070   71.5150   61.8500 N   0  0  0  0  0  0  0  0  0  0  0  0
   41.8020   71.1650   60.5960 C   0  0  0  0  0  0  0  0  0  0  0  0
   40.9910   71.9180   59.8010 N   0  0  0  0  0  0  0  0  0  0  0  0
   40.3040   74.3710   61.8630 H   0  0  0  0  0  0  0  0  0  0  0  0
   41.7580   73.0560   63.3370 H   0  0  0  0  0  0  0  0  0  0  0  0
   42.3570   69.9540   60.0910 N   0  0  0  0  0  0  0  0  0  0  0  0
   42.0370   68.7220   60.7760 C   0  0  0  0  0  3  0  0  0  0  0  0
   40.9570   68.5440   60.5780 H   0  0  0  0  0  0  0  0  0  0  0  0
   42.8060   67.5450   60.3320 C   0  0  0  0  0  3  0  0  0  0  0  0
   43.2170   67.0270   61.2440 H   0  0  0  0  0  0  0  0  0  0  0  0
   43.8520   67.7280   59.4840 O   0  0  0  0  0  0  0  0  0  0  0  0
   44.3640   68.9880   59.3670 C   0  0  0  0  0  2  0  0  0  0  0  0
   43.2210   69.9110   58.9250 C   0  0  0  0  0  2  0  0  0  0  0  0
   37.9230   74.0110   57.7560 C   0  0  0  0  0  0  0  0  0  0  0  0
   37.9910   75.4180   57.8120 C   0  0  0  0  0  0  0  0  0  0  0  0
   38.8860   76.0190   58.6820 C   0  0  0  0  0  0  0  0  0  0  0  0
   39.6620   75.1930   59.4450 N   0  0  0  0  0  0  0  0  0  0  0  0
   39.5770   73.8670   59.3730 C   0  0  0  0  0  0  0  0  0  0  0  0
   38.7270   73.2640   58.5460 N   0  0  0  0  0  0  0  0  0  0  0  0
   36.9680   73.5370   56.8260 N   0  0  0  0  0  0  0  0  0  0  0  0
   37.3810   76.0700   57.2110 H   0  0  0  0  0  0  0  0  0  0  0  0
   38.9520   77.0940   58.7390 H   0  0  0  0  0  0  0  0  0  0  0  0
   35.9880   73.9350   56.8390 H   0  0  0  0  0  0  0  0  0  0  0  0
   37.3380   72.7940   56.1750 H   0  0  0  0  0  0  0  0  0  0  0  0
  1  2  1  0  0  0  0
  2  7  1  0  0  0  0
  2  3  2  0  0  0  0
  3  8  1  0  0  0  0
  4  3  1  0  0  0  0
  5  4  2  0  0  0  0
  6  1  2  0  0  0  0
  6  5  1  0  0  0  0
  9  5  1  0  0  0  0
  9 10  1  0  0  0  0
 11 10  1  0  0  0  0
 12 10  1  0  0  0  0
 12 13  1  0  0  0  0
 14 12  1  0  0  0  0
 15 14  1  0  0  0  0
 16 15  1  0  0  0  0
 16  9  1  0  0  0  0
 17 18  2  0  0  0  0
 17 22  1  0  0  0  0
 18 19  1  0  0  0  0
 19 25  1  0  0  0  0
 19 20  2  0  0  0  0
 21 20  1  0  0  0  0
 21  1  1  0  0  0  0
 22 21  2  0  0  0  0
 23 26  1  0  0  0  0
 23 17  1  0  0  0  0
 24 18  1  0  0  0  0
 27 23  1  0  0  0  0
M  END
>  <minimizedAffinity>
-5.11234999

$$$$

 OpenBabel03212520503D

 27 29  0  0  0  0  0  0  0  0999 V2000
   41.4580   72.1820   59.1880 C   0  0  0  0  0  0  0  0  0  0  0  0
   42.2610   71.9510   58.0870 C   0  0  0  0  0  0  0  0  0  0  0  0
   41.9710   72.4990   56.8400 C   0  0  0  0  0  0  0  0  0  0  0  0
   40.8720   73.2820   56.6930 N   0  0  0  0  0  0  0  0  0  0  0  0
   40.1070   73.4950   57.7690 C   0  0  0  0  0  0  0  0  0  0  0  0
   40.3900   72.9590   58.9900 N   0  0  0  0  0  0  0  0  0  0  0  0
   43.1300   71.3160   58.2570 H   0  0  0  0  0  0  0  0  0  0  0  0
   42.6680   72.2550   56.0390 H   0  0  0  0  0  0  0  0  0  0  0  0
   38.9540   74.3180   57.6120 N   0  0  0  0  0  0  0  0  0  0  0  0
   37.9430   73.8980   56.6690 C   0  0  0  0  0  3  0  0  0  0  0  0
   37.4800   72.9900   57.1140 H   0  0  0  0  0  0  0  0  0  0  0  0
   36.8880   74.8940   56.4030 C   0  0  0  0  0  3  0  0  0  0  0  0
   36.7690   74.9940   55.2870 H   0  0  0  0  0  0  0  0  0  0  0  0
   37.0380   76.1520   56.8920 O   0  0  0  0  0  0  0  0  0  0  0  0
   38.2860   76.5390   57.2850 C   0  0  0  0  0  2  0  0  0  0  0  0
   38.7600   75.5490   58.3580 C   0  0  0  0  0  2  0  0  0  0  0  0
   42.9350   70.0980   61.8070 C   0  0  0  0  0  0  0  0  0  0  0  0
   42.2760   70.5810   62.9560 C   0  0  0  0  0  0  0  0  0  0  0  0
   41.3460   71.6000   62.8250 C   0  0  0  0  0  0  0  0  0  0  0  0
   41.1230   72.0810   61.5660 N   0  0  0  0  0  0  0  0  0  0  0  0
   41.7600   71.6070   60.4980 C   0  0  0  0  0  0  0  0  0  0  0  0
   42.6570   70.6290   60.5950 N   0  0  0  0  0  0  0  0  0  0  0  0
   43.8540   69.0610   62.0890 N   0  0  0  0  0  0  0  0  0  0  0  0
   42.4500   70.2030   63.9480 H   0  0  0  0  0  0  0  0  0  0  0  0
   40.8320   71.9830   63.6920 H   0  0  0  0  0  0  0  0  0  0  0  0
   44.5570   69.1870   62.8700 H   0  0  0  0  0  0  0  0  0  0  0  0
   43.7500   68.2170   61.4650 H   0  0  0  0  0  0  0  0  0  0  0  0
  1 21  1  0  0  0  0
  2  7  1  0  0  0  0
  2  1  2  0  0  0  0
  3  2  1  0  0  0  0
  4  3  2  0  0  0  0
  4  5  1  0  0  0  0
  5  6  2  0  0  0  0
  6  1  1  0  0  0  0
  8  3  1  0  0  0  0
  9  5  1  0  0  0  0
  9 16  1  0  0  0  0
 10 11  1  0  0  0  0
 10  9  1  0  0  0  0
 12 10  1  0  0  0  0
 12 14  1  0  0  0  0
 13 12  1  0  0  0  0
 14 15  1  0  0  0  0
 15 16  1  0  0  0  0
 17 23  1  0  0  0  0
 17 18  1  0  0  0  0
 18 24  1  0  0  0  0
 19 18  2  0  0  0  0
 19 25  1  0  0  0  0
 20 19  1  0  0  0  0
 21 22  1  0  0  0  0
 21 20  2  0  0  0  0
 22 17  2  0  0  0  0
 23 26  1  0  0  0  0
 27 23  1  0  0  0  0
M  END
>  <minimizedAffinity>
-5.03908634

$$$$

 OpenBabel03212520503D

 27 29  0  0  0  0  0  0  0  0999 V2000
   41.3920   73.5410   59.6430 C   0  0  0  0  0  0  0  0  0  0  0  0
   42.6040   74.2060   59.6820 C   0  0  0  0  0  0  0  0  0  0  0  0
   43.7340   73.6360   60.2600 C   0  0  0  0  0  0  0  0  0  0  0  0
   43.6540   72.3950   60.8030 N   0  0  0  0  0  0  0  0  0  0  0  0
   42.4750   71.7660   60.7570 C   0  0  0  0  0  0  0  0  0  0  0  0
   41.3670   72.3230   60.1910 N   0  0  0  0  0  0  0  0  0  0  0  0
   42.6150   75.1990   59.2330 H   0  0  0  0  0  0  0  0  0  0  0  0
   44.6390   74.2440   60.2380 H   0  0  0  0  0  0  0  0  0  0  0  0
   42.3940   70.4620   61.3270 N   0  0  0  0  0  0  0  0  0  0  0  0
   42.6970   70.3150   62.7330 C   0  0  0  0  0  3  0  0  0  0  0  0
   41.8650   70.8200   63.2700 H   0  0  0  0  0  0  0  0  0  0  0  0
   42.7990   68.9220   63.2060 C   0  0  0  0  0  3  0  0  0  0  0  0
   43.7550   68.8180   63.7930 H   0  0  0  0  0  0  0  0  0  0  0  0
   42.7940   67.9190   62.2900 O   0  0  0  0  0  0  0  0  0  0  0  0
   43.0560   68.2410   60.9900 C   0  0  0  0  0  2  0  0  0  0  0  0
   42.0220   69.2890   60.5570 C   0  0  0  0  0  2  0  0  0  0  0  0
   39.0540   76.0030   58.2800 C   0  0  0  0  0  0  0  0  0  0  0  0
   37.9680   75.1830   57.9080 C   0  0  0  0  0  0  0  0  0  0  0  0
   38.0460   73.8170   58.1250 C   0  0  0  0  0  0  0  0  0  0  0  0
   39.1920   73.3410   58.6960 N   0  0  0  0  0  0  0  0  0  0  0  0
   40.2030   74.1370   59.0370 C   0  0  0  0  0  0  0  0  0  0  0  0
   40.1550   75.4530   58.8410 N   0  0  0  0  0  0  0  0  0  0  0  0
   38.8370   77.3720   58.0030 N   0  0  0  0  0  0  0  0  0  0  0  0
   37.0650   75.5570   57.4590 H   0  0  0  0  0  0  0  0  0  0  0  0
   37.2260   73.1740   57.8470 H   0  0  0  0  0  0  0  0  0  0  0  0
   38.4920   77.6600   57.0450 H   0  0  0  0  0  0  0  0  0  0  0  0
   39.0500   78.0120   58.8140 H   0  0  0  0  0  0  0  0  0  0  0  0
  1  2  2  0  0  0  0
  1  6  1  0  0  0  0
  2  3  1  0  0  0  0
  3  4  2  0  0  0  0
  5  4  1  0  0  0  0
  5  9  1  0  0  0  0
  6  5  2  0  0  0  0
  7  2  1  0  0  0  0
  8  3  1  0  0  0  0
  9 10  1  0  0  0  0
 10 12  1  0  0  0  0
 10 11  1  0  0  0  0
 12 13  1  0  0  0  0
 14 12  1  0  0  0  0
 15 14  1  0  0  0  0
 16 15  1  0  0  0  0
 16  9  1  0  0  0  0
 17 22  1  0  0  0  0
 18 19  1  0  0  0  0
 18 17  2  0  0  0  0
 19 20  2  0  0  0  0
 20 21  1  0  0  0  0
 21  1  1  0  0  0  0
 22 21  2  0  0  0  0
 23 17  1  0  0  0  0
 23 27  1  0  0  0  0
 24 18  1  0  0  0  0
 25 19  1  0  0  0  0
 26 23  1  0  0  0  0
M  END
>  <minimizedAffinity>
-5.0156889

$$$$

 OpenBabel03212520503D

 27 29  0  0  0  0  0  0  0  0999 V2000
   41.4770   71.6770   61.3390 C   0  0  0  0  0  0  0  0  0  0  0  0
   41.5270   71.5870   62.7180 C   0  0  0  0  0  0  0  0  0  0  0  0
   41.8730   70.4020   63.3630 C   0  0  0  0  0  0  0  0  0  0  0  0
   42.1710   69.3020   62.6260 N   0  0  0  0  0  0  0  0  0  0  0  0
   42.1180   69.4070   61.2940 C   0  0  0  0  0  0  0  0  0  0  0  0
   41.7780   70.5660   60.6620 N   0  0  0  0  0  0  0  0  0  0  0  0
   41.2790   72.4970   63.2630 H   0  0  0  0  0  0  0  0  0  0  0  0
   41.8830   70.4390   64.4520 H   0  0  0  0  0  0  0  0  0  0  0  0
   42.4310   68.2500   60.5230 N   0  0  0  0  0  0  0  0  0  0  0  0
   41.6200   67.0680   60.7110 C   0  0  0  0  0  3  0  0  0  0  0  0
   40.6220   67.3230   60.2910 H   0  0  0  0  0  0  0  0  0  0  0  0
   42.1250   65.8540   60.0440 C   0  0  0  0  0  3  0  0  0  0  0  0
   42.1290   65.0140   60.7950 H   0  0  0  0  0  0  0  0  0  0  0  0
   43.3640   65.8820   59.4860 O   0  0  0  0  0  0  0  0  0  0  0  0
   44.2140   66.8790   59.8690 C   0  0  0  0  0  2  0  0  0  0  0  0
   43.5220   68.2150   59.5660 C   0  0  0  0  0  2  0  0  0  0  0  0
   39.4940   74.3770   59.8700 C   0  0  0  0  0  0  0  0  0  0  0  0
   40.5030   75.2370   59.3880 C   0  0  0  0  0  0  0  0  0  0  0  0
   41.8320   74.8890   59.5690 C   0  0  0  0  0  0  0  0  0  0  0  0
   42.0850   73.7120   60.2140 N   0  0  0  0  0  0  0  0  0  0  0  0
   41.1130   72.9190   60.6600 C   0  0  0  0  0  0  0  0  0  0  0  0
   39.8290   73.2290   60.4990 N   0  0  0  0  0  0  0  0  0  0  0  0
   38.1880   74.8570   59.6160 N   0  0  0  0  0  0  0  0  0  0  0  0
   40.3050   76.1640   58.8800 H   0  0  0  0  0  0  0  0  0  0  0  0
   42.6170   75.5340   59.2080 H   0  0  0  0  0  0  0  0  0  0  0  0
   37.9450   75.8570   59.8630 H   0  0  0  0  0  0  0  0  0  0  0  0
   37.5460   74.1400   59.1840 H   0  0  0  0  0  0  0  0  0  0  0  0
  1  2  1  0  0  0  0
  2  7  1  0  0  0  0
  2  3  2  0  0  0  0
  3  8  1  0  0  0  0
  4  3  1  0  0  0  0
  5  4  2  0  0  0  0
  6  5  1  0  0  0  0
  6  1  2  0  0  0  0
  9 10  1  0  0  0  0
  9  5  1  0  0  0  0
 11 10  1  0  0  0  0
 12 10  1  0  0  0  0
 12 13  1  0  0  0  0
 14 15  1  0  0  0  0
 14 12  1  0  0  0  0
 16 15  1  0  0  0  0
 16  9  1  0  0  0  0
 17 22  1  0  0  0  0
 18 19  1  0  0  0  0
 18 17  2  0  0  0  0
 19 20  2  0  0  0  0
 20 21  1  0  0  0  0
 21  1  1  0  0  0  0
 22 21  2  0  0  0  0
 23 26  1  0  0  0  0
 23 17  1  0  0  0  0
 24 18  1  0  0  0  0
 25 19  1  0  0  0  0
 27 23  1  0  0  0  0
M  END
>  <minimizedAffinity>
-5.00479507

$$$$

 OpenBabel03212520503D

 27 29  0  0  0  0  0  0  0  0999 V2000
   41.8720   72.3710   59.8260 C   0  0  0  0  0  0  0  0  0  0  0  0
   43.0790   72.5140   59.1660 C   0  0  0  0  0  0  0  0  0  0  0  0
   44.1140   71.5970   59.3240 C   0  0  0  0  0  0  0  0  0  0  0  0
   43.9440   70.5320   60.1470 N   0  0  0  0  0  0  0  0  0  0  0  0
   42.7700   70.4090   60.7780 C   0  0  0  0  0  0  0  0  0  0  0  0
   41.7560   71.3060   60.6230 N   0  0  0  0  0  0  0  0  0  0  0  0
   43.1650   73.3850   58.5170 H   0  0  0  0  0  0  0  0  0  0  0  0
   45.0220   71.8020   58.7580 H   0  0  0  0  0  0  0  0  0  0  0  0
   42.5940   69.2890   61.6420 N   0  0  0  0  0  0  0  0  0  0  0  0
   43.4940   69.1480   62.7640 C   0  0  0  0  0  3  0  0  0  0  0  0
   43.2350   69.9770   63.4580 H   0  0  0  0  0  0  0  0  0  0  0  0
   43.3910   67.8670   63.4870 C   0  0  0  0  0  3  0  0  0  0  0  0
   44.4290   67.4460   63.6100 H   0  0  0  0  0  0  0  0  0  0  0  0
   42.6300   66.8750   62.9560 O   0  0  0  0  0  0  0  0  0  0  0  0
   42.2940   66.9660   61.6360 C   0  0  0  0  0  2  0  0  0  0  0  0
   41.5550   68.2960   61.4380 C   0  0  0  0  0  2  0  0  0  0  0  0
   39.1880   74.7380   60.5830 C   0  0  0  0  0  0  0  0  0  0  0  0
   38.7680   75.1110   59.2890 C   0  0  0  0  0  0  0  0  0  0  0  0
   39.3990   74.5560   58.1870 C   0  0  0  0  0  0  0  0  0  0  0  0
   40.4070   73.6660   58.4290 N   0  0  0  0  0  0  0  0  0  0  0  0
   40.7840   73.3330   59.6610 C   0  0  0  0  0  0  0  0  0  0  0  0
   40.1950   73.8490   60.7370 N   0  0  0  0  0  0  0  0  0  0  0  0
   38.4570   75.3800   61.6090 N   0  0  0  0  0  0  0  0  0  0  0  0
   37.9740   75.8110   59.0970 H   0  0  0  0  0  0  0  0  0  0  0  0
   39.0920   74.8290   57.1900 H   0  0  0  0  0  0  0  0  0  0  0  0
   38.3210   76.4280   61.5730 H   0  0  0  0  0  0  0  0  0  0  0  0
   38.0980   74.7230   62.3530 H   0  0  0  0  0  0  0  0  0  0  0  0
  1  6  1  0  0  0  0
  2  3  1  0  0  0  0
  2  1  2  0  0  0  0
  3  4  2  0  0  0  0
  4  5  1  0  0  0  0
  5  9  1  0  0  0  0
  6  5  2  0  0  0  0
  7  2  1  0  0  0  0
  8  3  1  0  0  0  0
  9 10  1  0  0  0  0
 10 11  1  0  0  0  0
 10 12  1  0  0  0  0
 12 13  1  0  0  0  0
 14 12  1  0  0  0  0
 15 14  1  0  0  0  0
 16 15  1  0  0  0  0
 16  9  1  0  0  0  0
 17 22  1  0  0  0  0
 17 23  1  0  0  0  0
 18 17  2  0  0  0  0
 19 20  2  0  0  0  0
 19 18  1  0  0  0  0
 20 21  1  0  0  0  0
 21  1  1  0  0  0  0
 21 22  2  0  0  0  0
 23 27  1  0  0  0  0
 24 18  1  0  0  0  0
 25 19  1  0  0  0  0
 26 23  1  0  0  0  0
M  END
>  <minimizedAffinity>
-4.98644018

$$$$
