
 OpenBabel03212520473D

 27 29  0  0  0  0  0  0  0  0999 V2000
   41.7120   83.8750   61.3500 C   0  0  0  0  0  0  0  0  0  0  0  0
   41.3730   84.2220   62.6440 C   0  0  0  0  0  0  0  0  0  0  0  0
   40.9340   83.2750   63.5660 C   0  0  0  0  0  0  0  0  0  0  0  0
   40.8340   81.9740   63.1920 N   0  0  0  0  0  0  0  0  0  0  0  0
   41.1670   81.6560   61.9360 C   0  0  0  0  0  0  0  0  0  0  0  0
   41.5960   82.5820   61.0330 N   0  0  0  0  0  0  0  0  0  0  0  0
   41.4700   85.2780   62.8940 H   0  0  0  0  0  0  0  0  0  0  0  0
   40.6920   83.6540   64.5590 H   0  0  0  0  0  0  0  0  0  0  0  0
   41.0610   80.2890   61.5470 N   0  0  0  0  0  0  0  0  0  0  0  0
   40.7620   79.9990   60.1630 C   0  0  0  0  0  3  0  0  0  0  0  0
   41.6700   80.2980   59.5940 H   0  0  0  0  0  0  0  0  0  0  0  0
   40.4610   78.5840   59.8760 C   0  0  0  0  0  3  0  0  0  0  0  0
   39.5100   78.5410   59.2720 H   0  0  0  0  0  0  0  0  0  0  0  0
   40.3000   77.7250   60.9150 O   0  0  0  0  0  0  0  0  0  0  0  0
   40.0690   78.2560   62.1510 C   0  0  0  0  0  2  0  0  0  0  0  0
   41.2410   79.1910   62.4790 C   0  0  0  0  0  2  0  0  0  0  0  0
   43.6480   86.5490   59.7720 C   0  0  0  0  0  0  0  0  0  0  0  0
   42.9780   86.6910   58.5400 C   0  0  0  0  0  0  0  0  0  0  0  0
   41.8860   85.8830   58.2650 C   0  0  0  0  0  0  0  0  0  0  0  0
   41.5220   84.9820   59.2250 N   0  0  0  0  0  0  0  0  0  0  0  0
   42.1730   84.8670   60.3800 C   0  0  0  0  0  0  0  0  0  0  0  0
   43.2230   85.6310   60.6700 N   0  0  0  0  0  0  0  0  0  0  0  0
   44.7390   87.4360   59.9170 N   0  0  0  0  0  0  0  0  0  0  0  0
   43.2630   87.4010   57.7830 H   0  0  0  0  0  0  0  0  0  0  0  0
   41.3620   85.9770   57.3280 H   0  0  0  0  0  0  0  0  0  0  0  0
   45.4500   87.5160   59.1380 H   0  0  0  0  0  0  0  0  0  0  0  0
   44.7440   87.9610   60.8320 H   0  0  0  0  0  0  0  0  0  0  0  0
  1  2  1  0  0  0  0
  2  7  1  0  0  0  0
  2  3  2  0  0  0  0
  3  8  1  0  0  0  0
  4  3  1  0  0  0  0
  5  4  2  0  0  0  0
  6  1  2  0  0  0  0
  6  5  1  0  0  0  0
  9  5  1  0  0  0  0
  9 16  1  0  0  0  0
 10  9  1  0  0  0  0
 11 10  1  0  0  0  0
 12 10  1  0  0  0  0
 12 14  1  0  0  0  0
 13 12  1  0  0  0  0
 14 15  1  0  0  0  0
 15 16  1  0  0  0  0
 17 23  1  0  0  0  0
 17 22  1  0  0  0  0
 18 17  2  0  0  0  0
 19 18  1  0  0  0  0
 19 20  2  0  0  0  0
 20 21  1  0  0  0  0
 21 22  2  0  0  0  0
 21  1  1  0  0  0  0
 23 27  1  0  0  0  0
 24 18  1  0  0  0  0
 25 19  1  0  0  0  0
 26 23  1  0  0  0  0
M  END
>  <minimizedAffinity>
-5.08638906

>  <minimizedRMSD>
0.484590292

$$$$
