
 OpenBabel03212520473D

 27 29  0  0  0  0  0  0  0  0999 V2000
   41.6820   83.8210   61.3990 C   0  0  0  0  0  0  0  0  0  0  0  0
   41.0250   84.1890   62.5590 C   0  0  0  0  0  0  0  0  0  0  0  0
   40.5320   83.2430   63.4540 C   0  0  0  0  0  0  0  0  0  0  0  0
   40.6970   81.9220   63.1880 N   0  0  0  0  0  0  0  0  0  0  0  0
   41.3350   81.5840   62.0620 C   0  0  0  0  0  0  0  0  0  0  0  0
   41.8170   82.5100   61.1860 N   0  0  0  0  0  0  0  0  0  0  0  0
   40.9190   85.2610   62.7250 H   0  0  0  0  0  0  0  0  0  0  0  0
   40.0310   83.6390   64.3370 H   0  0  0  0  0  0  0  0  0  0  0  0
   41.5060   80.1970   61.7870 N   0  0  0  0  0  0  0  0  0  0  0  0
   42.1930   79.8260   60.5710 C   0  0  0  0  0  3  0  0  0  0  0  0
   43.2520   80.1290   60.7250 H   0  0  0  0  0  0  0  0  0  0  0  0
   42.1500   78.3880   60.2450 C   0  0  0  0  0  3  0  0  0  0  0  0
   41.8350   78.2790   59.1680 H   0  0  0  0  0  0  0  0  0  0  0  0
   41.3390   77.5760   60.9730 O   0  0  0  0  0  0  0  0  0  0  0  0
   40.3520   78.1600   61.7130 C   0  0  0  0  0  2  0  0  0  0  0  0
   41.0190   79.1540   62.6720 C   0  0  0  0  0  2  0  0  0  0  0  0
   43.6940   86.5090   59.9470 C   0  0  0  0  0  0  0  0  0  0  0  0
   43.1150   86.6330   58.6670 C   0  0  0  0  0  0  0  0  0  0  0  0
   42.0580   85.8080   58.3190 C   0  0  0  0  0  0  0  0  0  0  0  0
   41.6350   84.9090   59.2570 N   0  0  0  0  0  0  0  0  0  0  0  0
   42.2000   84.8120   60.4580 C   0  0  0  0  0  0  0  0  0  0  0  0
   43.2160   85.5920   60.8180 N   0  0  0  0  0  0  0  0  0  0  0  0
   44.7600   87.4130   60.1640 N   0  0  0  0  0  0  0  0  0  0  0  0
   43.4470   87.3410   57.9270 H   0  0  0  0  0  0  0  0  0  0  0  0
   41.6020   85.8880   57.3450 H   0  0  0  0  0  0  0  0  0  0  0  0
   45.5260   87.4970   59.4390 H   0  0  0  0  0  0  0  0  0  0  0  0
   44.6900   87.9450   61.0720 H   0  0  0  0  0  0  0  0  0  0  0  0
  1  2  1  0  0  0  0
  2  7  1  0  0  0  0
  2  3  2  0  0  0  0
  3  8  1  0  0  0  0
  4  3  1  0  0  0  0
  5  4  2  0  0  0  0
  6  1  2  0  0  0  0
  6  5  1  0  0  0  0
  9  5  1  0  0  0  0
  9 16  1  0  0  0  0
 10 11  1  0  0  0  0
 10  9  1  0  0  0  0
 12 10  1  0  0  0  0
 12 14  1  0  0  0  0
 13 12  1  0  0  0  0
 14 15  1  0  0  0  0
 15 16  1  0  0  0  0
 17 23  1  0  0  0  0
 17 22  1  0  0  0  0
 18 17  2  0  0  0  0
 19 18  1  0  0  0  0
 19 20  2  0  0  0  0
 20 21  1  0  0  0  0
 21 22  2  0  0  0  0
 21  1  1  0  0  0  0
 23 27  1  0  0  0  0
 24 18  1  0  0  0  0
 25 19  1  0  0  0  0
 26 23  1  0  0  0  0
M  END
>  <minimizedAffinity>
-5.08239031

>  <minimizedRMSD>
0.436744928

$$$$
