
 OpenBabel03212520473D

 27 29  0  0  0  0  0  0  0  0999 V2000
   41.7250   83.8720   61.2920 C   0  0  0  0  0  0  0  0  0  0  0  0
   41.1920   84.2060   62.5230 C   0  0  0  0  0  0  0  0  0  0  0  0
   40.7380   83.2360   63.4130 C   0  0  0  0  0  0  0  0  0  0  0  0
   40.8180   81.9250   63.0720 N   0  0  0  0  0  0  0  0  0  0  0  0
   41.3370   81.6200   61.8780 C   0  0  0  0  0  0  0  0  0  0  0  0
   41.7810   82.5680   61.0050 N   0  0  0  0  0  0  0  0  0  0  0  0
   41.1490   85.2710   62.7490 H   0  0  0  0  0  0  0  0  0  0  0  0
   40.3360   83.6060   64.3560 H   0  0  0  0  0  0  0  0  0  0  0  0
   41.4200   80.2420   61.5220 N   0  0  0  0  0  0  0  0  0  0  0  0
   40.2960   79.6500   60.8300 C   0  0  0  0  0  3  0  0  0  0  0  0
   40.2900   80.1170   59.8210 H   0  0  0  0  0  0  0  0  0  0  0  0
   40.3590   78.1850   60.6820 C   0  0  0  0  0  3  0  0  0  0  0  0
   39.3730   77.7530   61.0150 H   0  0  0  0  0  0  0  0  0  0  0  0
   41.3280   77.5000   61.3440 O   0  0  0  0  0  0  0  0  0  0  0  0
   41.9600   78.1300   62.3780 C   0  0  0  0  0  2  0  0  0  0  0  0
   42.5780   79.4210   61.8240 C   0  0  0  0  0  2  0  0  0  0  0  0
   43.6670   86.6030   59.8270 C   0  0  0  0  0  0  0  0  0  0  0  0
   43.0380   86.7560   58.5750 C   0  0  0  0  0  0  0  0  0  0  0  0
   41.9700   85.9350   58.2490 C   0  0  0  0  0  0  0  0  0  0  0  0
   41.5880   85.0110   59.1810 N   0  0  0  0  0  0  0  0  0  0  0  0
   42.2010   84.8880   60.3560 C   0  0  0  0  0  0  0  0  0  0  0  0
   43.2280   85.6640   60.6940 N   0  0  0  0  0  0  0  0  0  0  0  0
   44.7380   87.5060   60.0240 N   0  0  0  0  0  0  0  0  0  0  0  0
   43.3370   87.4830   57.8400 H   0  0  0  0  0  0  0  0  0  0  0  0
   41.4760   86.0360   57.2960 H   0  0  0  0  0  0  0  0  0  0  0  0
   45.4740   87.6110   59.2710 H   0  0  0  0  0  0  0  0  0  0  0  0
   44.7030   88.0160   60.9470 H   0  0  0  0  0  0  0  0  0  0  0  0
  1  2  1  0  0  0  0
  2  7  1  0  0  0  0
  2  3  2  0  0  0  0
  3  8  1  0  0  0  0
  4  3  1  0  0  0  0
  5  4  2  0  0  0  0
  6  1  2  0  0  0  0
  6  5  1  0  0  0  0
  9 16  1  0  0  0  0
  9  5  1  0  0  0  0
 10  9  1  0  0  0  0
 11 10  1  0  0  0  0
 12 10  1  0  0  0  0
 12 13  1  0  0  0  0
 12 14  1  0  0  0  0
 14 15  1  0  0  0  0
 16 15  1  0  0  0  0
 17 23  1  0  0  0  0
 17 22  1  0  0  0  0
 18 17  2  0  0  0  0
 19 18  1  0  0  0  0
 19 20  2  0  0  0  0
 20 21  1  0  0  0  0
 21 22  2  0  0  0  0
 21  1  1  0  0  0  0
 23 27  1  0  0  0  0
 24 18  1  0  0  0  0
 25 19  1  0  0  0  0
 26 23  1  0  0  0  0
M  END
>  <minimizedAffinity>
-5.31780386

>  <minimizedRMSD>
0.52093643

$$$$
