
 OpenBabel03212520473D

 27 29  0  0  0  0  0  0  0  0999 V2000
   41.6570   83.8450   61.3910 C   0  0  0  0  0  0  0  0  0  0  0  0
   41.2710   84.1830   62.6750 C   0  0  0  0  0  0  0  0  0  0  0  0
   40.7670   83.2350   63.5620 C   0  0  0  0  0  0  0  0  0  0  0  0
   40.6490   81.9440   63.1650 N   0  0  0  0  0  0  0  0  0  0  0  0
   41.0280   81.6340   61.9200 C   0  0  0  0  0  0  0  0  0  0  0  0
   41.5200   82.5600   61.0510 N   0  0  0  0  0  0  0  0  0  0  0  0
   41.3850   85.2330   62.9440 H   0  0  0  0  0  0  0  0  0  0  0  0
   40.4930   83.6070   64.5500 H   0  0  0  0  0  0  0  0  0  0  0  0
   40.9020   80.2760   61.5060 N   0  0  0  0  0  0  0  0  0  0  0  0
   41.6320   79.2700   62.2430 C   0  0  0  0  0  3  0  0  0  0  0  0
   41.1420   79.2210   63.2400 H   0  0  0  0  0  0  0  0  0  0  0  0
   41.6250   77.9260   61.6360 C   0  0  0  0  0  3  0  0  0  0  0  0
   42.6860   77.5480   61.6040 H   0  0  0  0  0  0  0  0  0  0  0  0
   41.1210   77.7750   60.3840 O   0  0  0  0  0  0  0  0  0  0  0  0
   40.9790   78.8950   59.6150 C   0  0  0  0  0  2  0  0  0  0  0  0
   40.0760   79.8710   60.3810 C   0  0  0  0  0  2  0  0  0  0  0  0
   43.6980   86.5220   59.9580 C   0  0  0  0  0  0  0  0  0  0  0  0
   43.1200   86.6620   58.6800 C   0  0  0  0  0  0  0  0  0  0  0  0
   42.0540   85.8510   58.3260 C   0  0  0  0  0  0  0  0  0  0  0  0
   41.6210   84.9500   59.2570 N   0  0  0  0  0  0  0  0  0  0  0  0
   42.1860   84.8370   60.4570 C   0  0  0  0  0  0  0  0  0  0  0  0
   43.2100   85.6040   60.8230 N   0  0  0  0  0  0  0  0  0  0  0  0
   44.7740   87.4110   60.1820 N   0  0  0  0  0  0  0  0  0  0  0  0
   43.4590   87.3720   57.9460 H   0  0  0  0  0  0  0  0  0  0  0  0
   41.5990   85.9430   57.3530 H   0  0  0  0  0  0  0  0  0  0  0  0
   45.5400   87.4930   59.4580 H   0  0  0  0  0  0  0  0  0  0  0  0
   44.7110   87.9370   61.0950 H   0  0  0  0  0  0  0  0  0  0  0  0
  1  2  1  0  0  0  0
  2  7  1  0  0  0  0
  2  3  2  0  0  0  0
  3  8  1  0  0  0  0
  4  3  1  0  0  0  0
  5  4  2  0  0  0  0
  6  1  2  0  0  0  0
  6  5  1  0  0  0  0
  9  5  1  0  0  0  0
  9 10  1  0  0  0  0
 10 11  1  0  0  0  0
 12 10  1  0  0  0  0
 13 12  1  0  0  0  0
 14 12  1  0  0  0  0
 15 16  1  0  0  0  0
 15 14  1  0  0  0  0
 16  9  1  0  0  0  0
 17 23  1  0  0  0  0
 17 22  1  0  0  0  0
 18 17  2  0  0  0  0
 19 18  1  0  0  0  0
 19 20  2  0  0  0  0
 20 21  1  0  0  0  0
 21 22  2  0  0  0  0
 21  1  1  0  0  0  0
 23 27  1  0  0  0  0
 24 18  1  0  0  0  0
 25 19  1  0  0  0  0
 26 23  1  0  0  0  0
M  END
>  <minimizedAffinity>
-5.08062124

>  <minimizedRMSD>
0.587918162

$$$$
