
 OpenBabel03212520473D

 27 29  0  0  0  0  0  0  0  0999 V2000
   41.6290   83.8570   61.4170 C   0  0  0  0  0  0  0  0  0  0  0  0
   41.1120   84.2680   62.6310 C   0  0  0  0  0  0  0  0  0  0  0  0
   40.6690   83.3570   63.5860 C   0  0  0  0  0  0  0  0  0  0  0  0
   40.7420   82.0270   63.3260 N   0  0  0  0  0  0  0  0  0  0  0  0
   41.2450   81.6470   62.1460 C   0  0  0  0  0  0  0  0  0  0  0  0
   41.6780   82.5380   61.2110 N   0  0  0  0  0  0  0  0  0  0  0  0
   41.0740   85.3460   62.7910 H   0  0  0  0  0  0  0  0  0  0  0  0
   40.2800   83.7860   64.5090 H   0  0  0  0  0  0  0  0  0  0  0  0
   41.3210   80.2500   61.8750 N   0  0  0  0  0  0  0  0  0  0  0  0
   42.6170   79.6140   61.9410 C   0  0  0  0  0  3  0  0  0  0  0  0
   42.8970   79.6240   63.0170 H   0  0  0  0  0  0  0  0  0  0  0  0
   42.6550   78.2250   61.4470 C   0  0  0  0  0  3  0  0  0  0  0  0
   43.5180   78.1290   60.7290 H   0  0  0  0  0  0  0  0  0  0  0  0
   41.5620   77.7260   60.8130 O   0  0  0  0  0  0  0  0  0  0  0  0
   40.6350   78.6120   60.3450 C   0  0  0  0  0  2  0  0  0  0  0  0
   40.1550   79.4500   61.5390 C   0  0  0  0  0  2  0  0  0  0  0  0
   43.6140   86.4190   59.7210 C   0  0  0  0  0  0  0  0  0  0  0  0
   42.9060   86.5680   58.5100 C   0  0  0  0  0  0  0  0  0  0  0  0
   41.7730   85.8010   58.2900 C   0  0  0  0  0  0  0  0  0  0  0  0
   41.4070   84.9330   59.2790 N   0  0  0  0  0  0  0  0  0  0  0  0
   42.0940   84.8120   60.4130 C   0  0  0  0  0  0  0  0  0  0  0  0
   43.1850   85.5360   60.6500 N   0  0  0  0  0  0  0  0  0  0  0  0
   44.7450   87.2630   59.8100 N   0  0  0  0  0  0  0  0  0  0  0  0
   43.1930   87.2520   57.7310 H   0  0  0  0  0  0  0  0  0  0  0  0
   41.2190   85.9010   57.3700 H   0  0  0  0  0  0  0  0  0  0  0  0
   45.4310   87.3000   59.0050 H   0  0  0  0  0  0  0  0  0  0  0  0
   44.8060   87.8040   60.7140 H   0  0  0  0  0  0  0  0  0  0  0  0
  1  2  1  0  0  0  0
  2  7  1  0  0  0  0
  2  3  2  0  0  0  0
  3  8  1  0  0  0  0
  4  3  1  0  0  0  0
  5  4  2  0  0  0  0
  6  1  2  0  0  0  0
  6  5  1  0  0  0  0
  9 10  1  0  0  0  0
  9  5  1  0  0  0  0
 10 11  1  0  0  0  0
 12 10  1  0  0  0  0
 13 12  1  0  0  0  0
 14 12  1  0  0  0  0
 15 14  1  0  0  0  0
 15 16  1  0  0  0  0
 16  9  1  0  0  0  0
 17 23  1  0  0  0  0
 17 22  1  0  0  0  0
 18 17  2  0  0  0  0
 19 18  1  0  0  0  0
 19 20  2  0  0  0  0
 20 21  1  0  0  0  0
 21 22  2  0  0  0  0
 21  1  1  0  0  0  0
 23 27  1  0  0  0  0
 24 18  1  0  0  0  0
 25 19  1  0  0  0  0
 26 23  1  0  0  0  0
M  END
>  <minimizedAffinity>
-5.25405216

>  <minimizedRMSD>
0.213647649

$$$$
