
 OpenBabel03212520473D

 27 29  0  0  0  0  0  0  0  0999 V2000
   41.6770   83.8320   61.3480 C   0  0  0  0  0  0  0  0  0  0  0  0
   41.1020   84.1810   62.5560 C   0  0  0  0  0  0  0  0  0  0  0  0
   40.6150   83.2240   63.4410 C   0  0  0  0  0  0  0  0  0  0  0  0
   40.7030   81.9090   63.1180 N   0  0  0  0  0  0  0  0  0  0  0  0
   41.2620   81.5880   61.9460 C   0  0  0  0  0  0  0  0  0  0  0  0
   41.7390   82.5250   61.0780 N   0  0  0  0  0  0  0  0  0  0  0  0
   41.0560   85.2500   62.7670 H   0  0  0  0  0  0  0  0  0  0  0  0
   40.1820   83.6060   64.3650 H   0  0  0  0  0  0  0  0  0  0  0  0
   41.3530   80.2060   61.6090 N   0  0  0  0  0  0  0  0  0  0  0  0
   41.6400   79.8590   60.2360 C   0  0  0  0  0  3  0  0  0  0  0  0
   42.6920   80.1750   60.0650 H   0  0  0  0  0  0  0  0  0  0  0  0
   41.5120   78.4250   59.9170 C   0  0  0  0  0  3  0  0  0  0  0  0
   40.8830   78.3240   58.9860 H   0  0  0  0  0  0  0  0  0  0  0  0
   40.9670   77.5940   60.8430 O   0  0  0  0  0  0  0  0  0  0  0  0
   40.2470   78.1550   61.8590 C   0  0  0  0  0  2  0  0  0  0  0  0
   41.1680   79.1460   62.5850 C   0  0  0  0  0  2  0  0  0  0  0  0
   43.6820   86.5360   59.9170 C   0  0  0  0  0  0  0  0  0  0  0  0
   43.0920   86.6800   58.6440 C   0  0  0  0  0  0  0  0  0  0  0  0
   42.0290   85.8630   58.2940 C   0  0  0  0  0  0  0  0  0  0  0  0
   41.6130   84.9510   59.2220 N   0  0  0  0  0  0  0  0  0  0  0  0
   42.1890   84.8350   60.4170 C   0  0  0  0  0  0  0  0  0  0  0  0
   43.2100   85.6070   60.7790 N   0  0  0  0  0  0  0  0  0  0  0  0
   44.7520   87.4330   60.1370 N   0  0  0  0  0  0  0  0  0  0  0  0
   43.4180   87.3980   57.9120 H   0  0  0  0  0  0  0  0  0  0  0  0
   41.5650   85.9580   57.3250 H   0  0  0  0  0  0  0  0  0  0  0  0
   45.5120   87.5260   59.4070 H   0  0  0  0  0  0  0  0  0  0  0  0
   44.6930   87.9520   61.0540 H   0  0  0  0  0  0  0  0  0  0  0  0
  1  2  1  0  0  0  0
  2  7  1  0  0  0  0
  2  3  2  0  0  0  0
  3  8  1  0  0  0  0
  4  3  1  0  0  0  0
  5  4  2  0  0  0  0
  6  1  2  0  0  0  0
  6  5  1  0  0  0  0
  9  5  1  0  0  0  0
  9 16  1  0  0  0  0
 10  9  1  0  0  0  0
 11 10  1  0  0  0  0
 12 10  1  0  0  0  0
 12 14  1  0  0  0  0
 13 12  1  0  0  0  0
 14 15  1  0  0  0  0
 15 16  1  0  0  0  0
 17 23  1  0  0  0  0
 17 22  1  0  0  0  0
 18 17  2  0  0  0  0
 19 18  1  0  0  0  0
 19 20  2  0  0  0  0
 20 21  1  0  0  0  0
 21 22  2  0  0  0  0
 21  1  1  0  0  0  0
 23 27  1  0  0  0  0
 24 18  1  0  0  0  0
 25 19  1  0  0  0  0
 26 23  1  0  0  0  0
M  END
>  <minimizedAffinity>
-5.00929117

>  <minimizedRMSD>
0.459037215

$$$$
