
 OpenBabel03212520473D

 27 29  0  0  0  0  0  0  0  0999 V2000
   41.6690   83.8310   61.4110 C   0  0  0  0  0  0  0  0  0  0  0  0
   40.9760   84.2120   62.5450 C   0  0  0  0  0  0  0  0  0  0  0  0
   40.4860   83.2770   63.4540 C   0  0  0  0  0  0  0  0  0  0  0  0
   40.6900   81.9550   63.2280 N   0  0  0  0  0  0  0  0  0  0  0  0
   41.3630   81.6040   62.1260 C   0  0  0  0  0  0  0  0  0  0  0  0
   41.8420   82.5180   61.2360 N   0  0  0  0  0  0  0  0  0  0  0  0
   40.8390   85.2840   62.6810 H   0  0  0  0  0  0  0  0  0  0  0  0
   39.9550   83.6830   64.3140 H   0  0  0  0  0  0  0  0  0  0  0  0
   41.5760   80.2150   61.8910 N   0  0  0  0  0  0  0  0  0  0  0  0
   42.5630   79.8360   60.9070 C   0  0  0  0  0  3  0  0  0  0  0  0
   43.5450   80.1150   61.3480 H   0  0  0  0  0  0  0  0  0  0  0  0
   42.5820   78.4010   60.5650 C   0  0  0  0  0  3  0  0  0  0  0  0
   42.5730   78.3060   59.4410 H   0  0  0  0  0  0  0  0  0  0  0  0
   41.5860   77.6040   61.0320 O   0  0  0  0  0  0  0  0  0  0  0  0
   40.4450   78.2040   61.4790 C   0  0  0  0  0  2  0  0  0  0  0  0
   40.8430   79.1780   62.5960 C   0  0  0  0  0  2  0  0  0  0  0  0
   43.6790   86.4960   59.9160 C   0  0  0  0  0  0  0  0  0  0  0  0
   43.0920   86.6090   58.6390 C   0  0  0  0  0  0  0  0  0  0  0  0
   42.0290   85.7840   58.3080 C   0  0  0  0  0  0  0  0  0  0  0  0
   41.6100   84.8970   59.2580 N   0  0  0  0  0  0  0  0  0  0  0  0
   42.1840   84.8100   60.4560 C   0  0  0  0  0  0  0  0  0  0  0  0
   43.2050   85.5910   60.8000 N   0  0  0  0  0  0  0  0  0  0  0  0
   44.7500   87.3980   60.1160 N   0  0  0  0  0  0  0  0  0  0  0  0
   43.4200   87.3080   57.8900 H   0  0  0  0  0  0  0  0  0  0  0  0
   41.5670   85.8560   57.3360 H   0  0  0  0  0  0  0  0  0  0  0  0
   45.5110   87.4720   59.3840 H   0  0  0  0  0  0  0  0  0  0  0  0
   44.6900   87.9400   61.0190 H   0  0  0  0  0  0  0  0  0  0  0  0
  1  2  1  0  0  0  0
  2  7  1  0  0  0  0
  2  3  2  0  0  0  0
  3  8  1  0  0  0  0
  4  3  1  0  0  0  0
  5  4  2  0  0  0  0
  6  1  2  0  0  0  0
  6  5  1  0  0  0  0
  9  5  1  0  0  0  0
  9 16  1  0  0  0  0
 10 11  1  0  0  0  0
 10  9  1  0  0  0  0
 12 10  1  0  0  0  0
 12 14  1  0  0  0  0
 13 12  1  0  0  0  0
 14 15  1  0  0  0  0
 15 16  1  0  0  0  0
 17 23  1  0  0  0  0
 17 22  1  0  0  0  0
 18 17  2  0  0  0  0
 19 18  1  0  0  0  0
 19 20  2  0  0  0  0
 20 21  1  0  0  0  0
 21 22  2  0  0  0  0
 21  1  1  0  0  0  0
 23 27  1  0  0  0  0
 24 18  1  0  0  0  0
 25 19  1  0  0  0  0
 26 23  1  0  0  0  0
M  END
>  <minimizedAffinity>
-5.20881891

>  <minimizedRMSD>
0.440346718

$$$$
