
 OpenBabel03212520033D

 40 44  0  0  0  0  0  0  0  0999 V2000
   40.6620   81.8260   57.0990 C   0  0  0  0  0  0  0  0  0  0  0  0
   41.7340   82.4040   56.3970 C   0  0  0  0  0  0  0  0  0  0  0  0
   42.5210   83.3030   57.0740 C   0  0  0  0  0  0  0  0  0  0  0  0
   42.2540   83.6040   58.3800 N   0  0  0  0  0  0  0  0  0  0  0  0
   41.2110   83.0240   59.0290 C   0  0  0  0  0  0  0  0  0  0  0  0
   40.4060   82.1300   58.3940 N   0  0  0  0  0  0  0  0  0  0  0  0
   39.9620   81.1080   56.6990 H   0  0  0  0  0  0  0  0  0  0  0  0
   41.7680   81.9930   55.4190 H   0  0  0  0  0  0  0  0  0  0  0  0
   39.6650   83.1120   60.9200 C   0  0  0  0  0  0  0  0  0  0  0  0
   40.9570   83.3210   60.4320 C   0  0  0  0  0  0  0  0  0  0  0  0
   41.9840   83.7780   61.2600 C   0  0  0  0  0  0  0  0  0  0  0  0
   41.7560   84.0400   62.6010 C   0  0  0  0  0  0  0  0  0  0  0  0
   42.4610   84.4670   63.6600 N   0  0  0  0  0  0  0  0  0  0  0  0
   41.6930   84.5330   64.7560 C   0  0  0  0  0  0  0  0  0  0  0  0
   40.4590   84.1260   64.3460 N   0  0  0  0  0  0  0  0  0  0  0  0
   40.4830   83.8220   63.0370 C   0  0  0  0  0  0  0  0  0  0  0  0
   39.4130   83.3720   62.2720 C   0  0  0  0  0  0  0  0  0  0  0  0
   38.8570   82.7620   60.3030 H   0  0  0  0  0  0  0  0  0  0  0  0
   42.9880   83.9400   60.8780 H   0  0  0  0  0  0  0  0  0  0  0  0
   43.4850   84.6980   63.5470 H   0  0  0  0  0  0  0  0  0  0  0  0
   42.1200   84.8600   65.6860 H   0  0  0  0  0  0  0  0  0  0  0  0
   38.4390   83.2230   62.6760 H   0  0  0  0  0  0  0  0  0  0  0  0
   42.4470   83.3140   54.0960 Cl  0  0  0  0  0  0  0  0  0  0  0  0
   43.7400   84.0300   55.0550 C   0  0  0  0  0  0  0  0  0  0  0  0
   43.6350   83.9520   56.4210 C   0  0  0  0  0  0  0  0  0  0  0  0
   44.6910   84.5540   57.1020 C   0  0  0  0  0  0  0  0  0  0  0  0
   45.7550   85.1760   56.4870 C   0  0  0  0  0  0  0  0  0  0  0  0
   45.7980   85.2190   55.0990 C   0  0  0  0  0  0  0  0  0  0  0  0
   47.1220   85.9940   54.2690 Cl  0  0  0  0  0  0  0  0  0  0  0  0
   44.7780   84.6390   54.3860 C   0  0  0  0  0  0  0  0  0  0  0  0
   44.6880   84.5380   58.1830 H   0  0  0  0  0  0  0  0  0  0  0  0
   46.5410   85.6230   57.0790 H   0  0  0  0  0  0  0  0  0  0  0  0
   44.8000   84.6690   52.9630 N   0  0  0  0  0  0  0  0  0  0  0  0
   45.3790   83.5600   52.2620 C   0  0  0  0  0  3  0  0  0  0  0  0
   44.7130   82.6710   52.2450 H   0  0  0  0  0  0  0  0  0  0  0  0
   45.6000   83.9760   50.8210 C   0  0  0  0  0  3  0  0  0  0  0  0
   46.3730   83.3620   50.3170 H   0  0  0  0  0  0  0  0  0  0  0  0
   45.9610   85.3270   50.7360 O   0  0  0  0  0  0  0  0  0  0  0  0
   44.8680   86.1300   50.9720 C   0  0  0  0  0  2  0  0  0  0  0  0
   44.2290   85.8310   52.3090 C   0  0  0  0  0  2  0  0  0  0  0  0
  1  6  1  0  0  0  0
  2  3  1  0  0  0  0
  2  1  2  0  0  0  0
  3  4  2  0  0  0  0
  4  5  1  0  0  0  0
  5 10  1  0  0  0  0
  6  5  2  0  0  0  0
  7  1  1  0  0  0  0
  8  2  1  0  0  0  0
  9 17  1  0  0  0  0
 10  9  2  0  0  0  0
 10 11  1  0  0  0  0
 11 12  2  0  0  0  0
 12 16  1  0  0  0  0
 12 13  1  0  0  0  0
 13 14  1  0  0  0  0
 14 21  1  0  0  0  0
 15 14  2  0  0  0  0
 16 15  1  0  0  0  0
 17 22  1  0  0  0  0
 17 16  2  0  0  0  0
 18  9  1  0  0  0  0
 19 11  1  0  0  0  0
 20 13  1  0  0  0  0
 23 24  1  0  0  0  0
 24 25  1  0  0  0  0
 25  3  1  0  0  0  0
 25 26  2  0  0  0  0
 26 31  1  0  0  0  0
 27 32  1  0  0  0  0
 27 26  1  0  0  0  0
 28 27  2  0  0  0  0
 29 28  1  0  0  0  0
 30 24  2  0  0  0  0
 30 28  1  0  0  0  0
 33 30  1  0  0  0  0
 34 33  1  0  0  0  0
 35 34  1  0  0  0  0
 36 34  1  0  0  0  0
 37 36  1  0  0  0  0
 38 36  1  0  0  0  0
 38 39  1  0  0  0  0
 39 40  1  0  0  0  0
 40 33  1  0  0  0  0
M  END
>  <minimizedAffinity>
-5.06468344

>  <minimizedRMSD>
0.28647998

$$$$
