
 OpenBabel03212520033D

 40 44  0  0  0  0  0  0  0  0999 V2000
   40.6720   81.8200   57.0880 C   0  0  0  0  0  0  0  0  0  0  0  0
   41.7650   82.3690   56.3960 C   0  0  0  0  0  0  0  0  0  0  0  0
   42.5690   83.2480   57.0790 C   0  0  0  0  0  0  0  0  0  0  0  0
   42.2980   83.5570   58.3820 N   0  0  0  0  0  0  0  0  0  0  0  0
   41.2340   83.0050   59.0230 C   0  0  0  0  0  0  0  0  0  0  0  0
   40.4110   82.1320   58.3800 N   0  0  0  0  0  0  0  0  0  0  0  0
   39.9560   81.1210   56.6820 H   0  0  0  0  0  0  0  0  0  0  0  0
   41.7970   81.9560   55.4180 H   0  0  0  0  0  0  0  0  0  0  0  0
   39.6790   83.1130   60.9040 C   0  0  0  0  0  0  0  0  0  0  0  0
   40.9750   83.3100   60.4220 C   0  0  0  0  0  0  0  0  0  0  0  0
   42.0020   83.7620   61.2540 C   0  0  0  0  0  0  0  0  0  0  0  0
   41.7690   84.0310   62.5930 C   0  0  0  0  0  0  0  0  0  0  0  0
   42.4710   84.4570   63.6540 N   0  0  0  0  0  0  0  0  0  0  0  0
   41.6980   84.5330   64.7450 C   0  0  0  0  0  0  0  0  0  0  0  0
   40.4630   84.1350   64.3300 N   0  0  0  0  0  0  0  0  0  0  0  0
   40.4910   83.8260   63.0230 C   0  0  0  0  0  0  0  0  0  0  0  0
   39.4220   83.3800   62.2540 C   0  0  0  0  0  0  0  0  0  0  0  0
   38.8710   82.7670   60.2840 H   0  0  0  0  0  0  0  0  0  0  0  0
   43.0090   83.9140   60.8770 H   0  0  0  0  0  0  0  0  0  0  0  0
   43.4970   84.6800   63.5450 H   0  0  0  0  0  0  0  0  0  0  0  0
   42.1220   84.8610   65.6760 H   0  0  0  0  0  0  0  0  0  0  0  0
   38.4440   83.2410   62.6540 H   0  0  0  0  0  0  0  0  0  0  0  0
   42.4250   83.4500   54.1100 Cl  0  0  0  0  0  0  0  0  0  0  0  0
   43.7830   84.0230   55.0750 C   0  0  0  0  0  0  0  0  0  0  0  0
   43.7060   83.8660   56.4360 C   0  0  0  0  0  0  0  0  0  0  0  0
   44.8140   84.3580   57.1240 C   0  0  0  0  0  0  0  0  0  0  0  0
   45.9010   84.9510   56.5180 C   0  0  0  0  0  0  0  0  0  0  0  0
   45.9130   85.0780   55.1350 C   0  0  0  0  0  0  0  0  0  0  0  0
   47.2620   85.8200   54.3170 Cl  0  0  0  0  0  0  0  0  0  0  0  0
   44.8420   84.6070   54.4160 C   0  0  0  0  0  0  0  0  0  0  0  0
   44.8350   84.2750   58.2010 H   0  0  0  0  0  0  0  0  0  0  0  0
   46.7270   85.3110   57.1140 H   0  0  0  0  0  0  0  0  0  0  0  0
   44.8320   84.7250   52.9970 N   0  0  0  0  0  0  0  0  0  0  0  0
   44.3300   85.9340   52.4130 C   0  0  0  0  0  3  0  0  0  0  0  0
   45.0510   86.7760   52.4900 H   0  0  0  0  0  0  0  0  0  0  0  0
   44.0970   85.6830   50.9370 C   0  0  0  0  0  3  0  0  0  0  0  0
   43.3690   86.3940   50.4970 H   0  0  0  0  0  0  0  0  0  0  0  0
   43.6520   84.3750   50.7110 O   0  0  0  0  0  0  0  0  0  0  0  0
   44.6910   83.4830   50.8650 C   0  0  0  0  0  2  0  0  0  0  0  0
   45.3340   83.6010   52.2290 C   0  0  0  0  0  2  0  0  0  0  0  0
  1  6  1  0  0  0  0
  2  3  1  0  0  0  0
  2  1  2  0  0  0  0
  3  4  2  0  0  0  0
  4  5  1  0  0  0  0
  5 10  1  0  0  0  0
  6  5  2  0  0  0  0
  7  1  1  0  0  0  0
  8  2  1  0  0  0  0
  9 17  1  0  0  0  0
 10  9  2  0  0  0  0
 10 11  1  0  0  0  0
 11 12  2  0  0  0  0
 12 16  1  0  0  0  0
 12 13  1  0  0  0  0
 13 14  1  0  0  0  0
 14 21  1  0  0  0  0
 15 14  2  0  0  0  0
 16 15  1  0  0  0  0
 17 22  1  0  0  0  0
 17 16  2  0  0  0  0
 18  9  1  0  0  0  0
 19 11  1  0  0  0  0
 20 13  1  0  0  0  0
 23 24  1  0  0  0  0
 24 25  1  0  0  0  0
 25  3  1  0  0  0  0
 25 26  2  0  0  0  0
 26 31  1  0  0  0  0
 27 32  1  0  0  0  0
 27 26  1  0  0  0  0
 28 27  2  0  0  0  0
 29 28  1  0  0  0  0
 30 24  2  0  0  0  0
 30 28  1  0  0  0  0
 33 30  1  0  0  0  0
 34 35  1  0  0  0  0
 34 33  1  0  0  0  0
 36 34  1  0  0  0  0
 37 36  1  0  0  0  0
 38 39  1  0  0  0  0
 38 36  1  0  0  0  0
 39 40  1  0  0  0  0
 40 33  1  0  0  0  0
M  END
>  <minimizedAffinity>
-5.0725565

>  <minimizedRMSD>
0.3791641

$$$$
