
 OpenBabel03212520043D

 40 44  0  0  0  0  0  0  0  0999 V2000
   40.6690   81.8180   57.0900 C   0  0  0  0  0  0  0  0  0  0  0  0
   41.7620   82.3670   56.3970 C   0  0  0  0  0  0  0  0  0  0  0  0
   42.5660   83.2460   57.0800 C   0  0  0  0  0  0  0  0  0  0  0  0
   42.2960   83.5560   58.3830 N   0  0  0  0  0  0  0  0  0  0  0  0
   41.2320   83.0040   59.0240 C   0  0  0  0  0  0  0  0  0  0  0  0
   40.4090   82.1310   58.3820 N   0  0  0  0  0  0  0  0  0  0  0  0
   39.9540   81.1180   56.6840 H   0  0  0  0  0  0  0  0  0  0  0  0
   41.7940   81.9540   55.4190 H   0  0  0  0  0  0  0  0  0  0  0  0
   39.6770   83.1130   60.9060 C   0  0  0  0  0  0  0  0  0  0  0  0
   40.9730   83.3090   60.4240 C   0  0  0  0  0  0  0  0  0  0  0  0
   42.0010   83.7600   61.2550 C   0  0  0  0  0  0  0  0  0  0  0  0
   41.7680   84.0300   62.5940 C   0  0  0  0  0  0  0  0  0  0  0  0
   42.4710   84.4560   63.6550 N   0  0  0  0  0  0  0  0  0  0  0  0
   41.6980   84.5330   64.7460 C   0  0  0  0  0  0  0  0  0  0  0  0
   40.4620   84.1350   64.3310 N   0  0  0  0  0  0  0  0  0  0  0  0
   40.4900   83.8260   63.0240 C   0  0  0  0  0  0  0  0  0  0  0  0
   39.4210   83.3810   62.2560 C   0  0  0  0  0  0  0  0  0  0  0  0
   38.8690   82.7670   60.2860 H   0  0  0  0  0  0  0  0  0  0  0  0
   43.0080   83.9120   60.8770 H   0  0  0  0  0  0  0  0  0  0  0  0
   43.4970   84.6780   63.5460 H   0  0  0  0  0  0  0  0  0  0  0  0
   42.1230   84.8600   65.6770 H   0  0  0  0  0  0  0  0  0  0  0  0
   38.4430   83.2420   62.6560 H   0  0  0  0  0  0  0  0  0  0  0  0
   42.4220   83.4450   54.1110 Cl  0  0  0  0  0  0  0  0  0  0  0  0
   43.7790   84.0200   55.0750 C   0  0  0  0  0  0  0  0  0  0  0  0
   43.7030   83.8640   56.4360 C   0  0  0  0  0  0  0  0  0  0  0  0
   44.8110   84.3580   57.1230 C   0  0  0  0  0  0  0  0  0  0  0  0
   45.8970   84.9510   56.5180 C   0  0  0  0  0  0  0  0  0  0  0  0
   45.9090   85.0760   55.1340 C   0  0  0  0  0  0  0  0  0  0  0  0
   47.2580   85.8170   54.3150 Cl  0  0  0  0  0  0  0  0  0  0  0  0
   44.8380   84.6040   54.4160 C   0  0  0  0  0  0  0  0  0  0  0  0
   44.8320   84.2750   58.2010 H   0  0  0  0  0  0  0  0  0  0  0  0
   46.7230   85.3110   57.1130 H   0  0  0  0  0  0  0  0  0  0  0  0
   44.8280   84.7200   52.9960 N   0  0  0  0  0  0  0  0  0  0  0  0
   44.3270   85.9300   52.4120 C   0  0  0  0  0  3  0  0  0  0  0  0
   45.0480   86.7710   52.4880 H   0  0  0  0  0  0  0  0  0  0  0  0
   44.0940   85.6780   50.9350 C   0  0  0  0  0  3  0  0  0  0  0  0
   43.3660   86.3880   50.4940 H   0  0  0  0  0  0  0  0  0  0  0  0
   43.6480   84.3690   50.7110 O   0  0  0  0  0  0  0  0  0  0  0  0
   44.6860   83.4770   50.8660 C   0  0  0  0  0  2  0  0  0  0  0  0
   45.3290   83.5960   52.2290 C   0  0  0  0  0  2  0  0  0  0  0  0
  1  6  1  0  0  0  0
  2  3  1  0  0  0  0
  2  1  2  0  0  0  0
  3  4  2  0  0  0  0
  4  5  1  0  0  0  0
  5 10  1  0  0  0  0
  6  5  2  0  0  0  0
  7  1  1  0  0  0  0
  8  2  1  0  0  0  0
  9 17  1  0  0  0  0
 10  9  2  0  0  0  0
 10 11  1  0  0  0  0
 11 12  2  0  0  0  0
 12 16  1  0  0  0  0
 12 13  1  0  0  0  0
 13 14  1  0  0  0  0
 14 21  1  0  0  0  0
 15 14  2  0  0  0  0
 16 15  1  0  0  0  0
 17 22  1  0  0  0  0
 17 16  2  0  0  0  0
 18  9  1  0  0  0  0
 19 11  1  0  0  0  0
 20 13  1  0  0  0  0
 23 24  1  0  0  0  0
 24 25  1  0  0  0  0
 25  3  1  0  0  0  0
 25 26  2  0  0  0  0
 26 31  1  0  0  0  0
 27 32  1  0  0  0  0
 27 26  1  0  0  0  0
 28 27  2  0  0  0  0
 29 28  1  0  0  0  0
 30 24  2  0  0  0  0
 30 28  1  0  0  0  0
 33 30  1  0  0  0  0
 34 35  1  0  0  0  0
 34 33  1  0  0  0  0
 36 34  1  0  0  0  0
 37 36  1  0  0  0  0
 38 39  1  0  0  0  0
 38 36  1  0  0  0  0
 39 40  1  0  0  0  0
 40 33  1  0  0  0  0
M  END
>  <minimizedAffinity>
-5.07237148

>  <minimizedRMSD>
0.206020132

$$$$
