
 OpenBabel03212520033D

 40 44  0  0  0  0  0  0  0  0999 V2000
   40.6600   81.8290   57.0970 C   0  0  0  0  0  0  0  0  0  0  0  0
   41.7320   82.4060   56.3950 C   0  0  0  0  0  0  0  0  0  0  0  0
   42.5200   83.3050   57.0730 C   0  0  0  0  0  0  0  0  0  0  0  0
   42.2530   83.6050   58.3780 N   0  0  0  0  0  0  0  0  0  0  0  0
   41.2100   83.0250   59.0280 C   0  0  0  0  0  0  0  0  0  0  0  0
   40.4030   82.1320   58.3920 N   0  0  0  0  0  0  0  0  0  0  0  0
   39.9590   81.1110   56.6970 H   0  0  0  0  0  0  0  0  0  0  0  0
   41.7660   81.9960   55.4170 H   0  0  0  0  0  0  0  0  0  0  0  0
   39.6650   83.1130   60.9190 C   0  0  0  0  0  0  0  0  0  0  0  0
   40.9560   83.3220   60.4310 C   0  0  0  0  0  0  0  0  0  0  0  0
   41.9840   83.7780   61.2580 C   0  0  0  0  0  0  0  0  0  0  0  0
   41.7560   84.0400   62.6000 C   0  0  0  0  0  0  0  0  0  0  0  0
   42.4610   84.4670   63.6590 N   0  0  0  0  0  0  0  0  0  0  0  0
   41.6930   84.5320   64.7550 C   0  0  0  0  0  0  0  0  0  0  0  0
   40.4590   84.1250   64.3450 N   0  0  0  0  0  0  0  0  0  0  0  0
   40.4830   83.8220   63.0360 C   0  0  0  0  0  0  0  0  0  0  0  0
   39.4130   83.3720   62.2710 C   0  0  0  0  0  0  0  0  0  0  0  0
   38.8560   82.7620   60.3020 H   0  0  0  0  0  0  0  0  0  0  0  0
   42.9870   83.9410   60.8760 H   0  0  0  0  0  0  0  0  0  0  0  0
   43.4840   84.6980   63.5450 H   0  0  0  0  0  0  0  0  0  0  0  0
   42.1210   84.8590   65.6850 H   0  0  0  0  0  0  0  0  0  0  0  0
   38.4390   83.2220   62.6760 H   0  0  0  0  0  0  0  0  0  0  0  0
   42.4470   83.3150   54.0940 Cl  0  0  0  0  0  0  0  0  0  0  0  0
   43.7390   84.0310   55.0540 C   0  0  0  0  0  0  0  0  0  0  0  0
   43.6350   83.9530   56.4200 C   0  0  0  0  0  0  0  0  0  0  0  0
   44.6900   84.5550   57.1020 C   0  0  0  0  0  0  0  0  0  0  0  0
   45.7550   85.1770   56.4870 C   0  0  0  0  0  0  0  0  0  0  0  0
   45.7980   85.2190   55.0990 C   0  0  0  0  0  0  0  0  0  0  0  0
   47.1220   85.9930   54.2690 Cl  0  0  0  0  0  0  0  0  0  0  0  0
   44.7790   84.6380   54.3850 C   0  0  0  0  0  0  0  0  0  0  0  0
   44.6860   84.5390   58.1820 H   0  0  0  0  0  0  0  0  0  0  0  0
   46.5410   85.6230   57.0790 H   0  0  0  0  0  0  0  0  0  0  0  0
   44.8010   84.6680   52.9620 N   0  0  0  0  0  0  0  0  0  0  0  0
   45.3810   83.5600   52.2620 C   0  0  0  0  0  3  0  0  0  0  0  0
   44.7150   82.6700   52.2440 H   0  0  0  0  0  0  0  0  0  0  0  0
   45.6020   83.9760   50.8210 C   0  0  0  0  0  3  0  0  0  0  0  0
   46.3760   83.3610   50.3180 H   0  0  0  0  0  0  0  0  0  0  0  0
   45.9630   85.3260   50.7360 O   0  0  0  0  0  0  0  0  0  0  0  0
   44.8680   86.1290   50.9710 C   0  0  0  0  0  2  0  0  0  0  0  0
   44.2290   85.8310   52.3080 C   0  0  0  0  0  2  0  0  0  0  0  0
  1  6  1  0  0  0  0
  2  3  1  0  0  0  0
  2  1  2  0  0  0  0
  3  4  2  0  0  0  0
  4  5  1  0  0  0  0
  5 10  1  0  0  0  0
  6  5  2  0  0  0  0
  7  1  1  0  0  0  0
  8  2  1  0  0  0  0
  9 17  1  0  0  0  0
 10  9  2  0  0  0  0
 10 11  1  0  0  0  0
 11 12  2  0  0  0  0
 12 16  1  0  0  0  0
 12 13  1  0  0  0  0
 13 14  1  0  0  0  0
 14 21  1  0  0  0  0
 15 14  2  0  0  0  0
 16 15  1  0  0  0  0
 17 22  1  0  0  0  0
 17 16  2  0  0  0  0
 18  9  1  0  0  0  0
 19 11  1  0  0  0  0
 20 13  1  0  0  0  0
 23 24  1  0  0  0  0
 24 25  1  0  0  0  0
 25  3  1  0  0  0  0
 25 26  2  0  0  0  0
 26 31  1  0  0  0  0
 27 32  1  0  0  0  0
 27 26  1  0  0  0  0
 28 27  2  0  0  0  0
 29 28  1  0  0  0  0
 30 24  2  0  0  0  0
 30 28  1  0  0  0  0
 33 30  1  0  0  0  0
 34 33  1  0  0  0  0
 35 34  1  0  0  0  0
 36 34  1  0  0  0  0
 37 36  1  0  0  0  0
 38 36  1  0  0  0  0
 38 39  1  0  0  0  0
 39 40  1  0  0  0  0
 40 33  1  0  0  0  0
M  END
>  <minimizedAffinity>
-5.06481457

>  <minimizedRMSD>
0.541722775

$$$$
