
 OpenBabel03212520043D

 40 44  0  0  0  0  0  0  0  0999 V2000
   40.6610   81.8250   57.0990 C   0  0  0  0  0  0  0  0  0  0  0  0
   41.7330   82.4040   56.3960 C   0  0  0  0  0  0  0  0  0  0  0  0
   42.5200   83.3030   57.0730 C   0  0  0  0  0  0  0  0  0  0  0  0
   42.2530   83.6040   58.3780 N   0  0  0  0  0  0  0  0  0  0  0  0
   41.2110   83.0240   59.0280 C   0  0  0  0  0  0  0  0  0  0  0  0
   40.4050   82.1300   58.3930 N   0  0  0  0  0  0  0  0  0  0  0  0
   39.9610   81.1070   56.6990 H   0  0  0  0  0  0  0  0  0  0  0  0
   41.7670   81.9920   55.4180 H   0  0  0  0  0  0  0  0  0  0  0  0
   39.6650   83.1120   60.9190 C   0  0  0  0  0  0  0  0  0  0  0  0
   40.9570   83.3210   60.4310 C   0  0  0  0  0  0  0  0  0  0  0  0
   41.9840   83.7770   61.2590 C   0  0  0  0  0  0  0  0  0  0  0  0
   41.7560   84.0390   62.6000 C   0  0  0  0  0  0  0  0  0  0  0  0
   42.4610   84.4660   63.6590 N   0  0  0  0  0  0  0  0  0  0  0  0
   41.6930   84.5320   64.7550 C   0  0  0  0  0  0  0  0  0  0  0  0
   40.4590   84.1260   64.3450 N   0  0  0  0  0  0  0  0  0  0  0  0
   40.4830   83.8220   63.0360 C   0  0  0  0  0  0  0  0  0  0  0  0
   39.4130   83.3720   62.2710 C   0  0  0  0  0  0  0  0  0  0  0  0
   38.8560   82.7620   60.3020 H   0  0  0  0  0  0  0  0  0  0  0  0
   42.9880   83.9390   60.8770 H   0  0  0  0  0  0  0  0  0  0  0  0
   43.4850   84.6970   63.5460 H   0  0  0  0  0  0  0  0  0  0  0  0
   42.1210   84.8590   65.6850 H   0  0  0  0  0  0  0  0  0  0  0  0
   38.4390   83.2230   62.6760 H   0  0  0  0  0  0  0  0  0  0  0  0
   42.4460   83.3130   54.0950 Cl  0  0  0  0  0  0  0  0  0  0  0  0
   43.7380   84.0300   55.0530 C   0  0  0  0  0  0  0  0  0  0  0  0
   43.6340   83.9520   56.4190 C   0  0  0  0  0  0  0  0  0  0  0  0
   44.6900   84.5540   57.1010 C   0  0  0  0  0  0  0  0  0  0  0  0
   45.7540   85.1770   56.4860 C   0  0  0  0  0  0  0  0  0  0  0  0
   45.7970   85.2190   55.0980 C   0  0  0  0  0  0  0  0  0  0  0  0
   47.1200   85.9930   54.2670 Cl  0  0  0  0  0  0  0  0  0  0  0  0
   44.7770   84.6380   54.3850 C   0  0  0  0  0  0  0  0  0  0  0  0
   44.6860   84.5380   58.1820 H   0  0  0  0  0  0  0  0  0  0  0  0
   46.5390   85.6240   57.0770 H   0  0  0  0  0  0  0  0  0  0  0  0
   44.7990   84.6680   52.9610 N   0  0  0  0  0  0  0  0  0  0  0  0
   45.3800   83.5590   52.2610 C   0  0  0  0  0  3  0  0  0  0  0  0
   44.7160   82.6690   52.2450 H   0  0  0  0  0  0  0  0  0  0  0  0
   45.6010   83.9750   50.8210 C   0  0  0  0  0  3  0  0  0  0  0  0
   46.3750   83.3620   50.3160 H   0  0  0  0  0  0  0  0  0  0  0  0
   45.9610   85.3260   50.7350 O   0  0  0  0  0  0  0  0  0  0  0  0
   44.8650   86.1270   50.9690 C   0  0  0  0  0  2  0  0  0  0  0  0
   44.2270   85.8290   52.3080 C   0  0  0  0  0  2  0  0  0  0  0  0
  1  6  1  0  0  0  0
  2  3  1  0  0  0  0
  2  1  2  0  0  0  0
  3  4  2  0  0  0  0
  4  5  1  0  0  0  0
  5 10  1  0  0  0  0
  6  5  2  0  0  0  0
  7  1  1  0  0  0  0
  8  2  1  0  0  0  0
  9 17  1  0  0  0  0
 10  9  2  0  0  0  0
 10 11  1  0  0  0  0
 11 12  2  0  0  0  0
 12 16  1  0  0  0  0
 12 13  1  0  0  0  0
 13 14  1  0  0  0  0
 14 21  1  0  0  0  0
 15 14  2  0  0  0  0
 16 15  1  0  0  0  0
 17 22  1  0  0  0  0
 17 16  2  0  0  0  0
 18  9  1  0  0  0  0
 19 11  1  0  0  0  0
 20 13  1  0  0  0  0
 23 24  1  0  0  0  0
 24 25  1  0  0  0  0
 25  3  1  0  0  0  0
 25 26  2  0  0  0  0
 26 31  1  0  0  0  0
 27 32  1  0  0  0  0
 27 26  1  0  0  0  0
 28 27  2  0  0  0  0
 29 28  1  0  0  0  0
 30 24  2  0  0  0  0
 30 28  1  0  0  0  0
 33 30  1  0  0  0  0
 34 33  1  0  0  0  0
 35 34  1  0  0  0  0
 36 34  1  0  0  0  0
 37 36  1  0  0  0  0
 38 36  1  0  0  0  0
 38 39  1  0  0  0  0
 39 40  1  0  0  0  0
 40 33  1  0  0  0  0
M  END
>  <minimizedAffinity>
-5.06492949

>  <minimizedRMSD>
0.726872265

$$$$
