
 OpenBabel03212520033D

 40 44  0  0  0  0  0  0  0  0999 V2000
   40.6430   81.8400   57.0960 C   0  0  0  0  0  0  0  0  0  0  0  0
   41.7170   82.4140   56.3940 C   0  0  0  0  0  0  0  0  0  0  0  0
   42.5090   83.3080   57.0720 C   0  0  0  0  0  0  0  0  0  0  0  0
   42.2450   83.6070   58.3790 N   0  0  0  0  0  0  0  0  0  0  0  0
   41.2010   83.0300   59.0290 C   0  0  0  0  0  0  0  0  0  0  0  0
   40.3900   82.1420   58.3920 N   0  0  0  0  0  0  0  0  0  0  0  0
   39.9390   81.1260   56.6950 H   0  0  0  0  0  0  0  0  0  0  0  0
   41.7480   82.0060   55.4150 H   0  0  0  0  0  0  0  0  0  0  0  0
   39.6600   83.1120   60.9240 C   0  0  0  0  0  0  0  0  0  0  0  0
   40.9500   83.3250   60.4320 C   0  0  0  0  0  0  0  0  0  0  0  0
   41.9780   83.7840   61.2570 C   0  0  0  0  0  0  0  0  0  0  0  0
   41.7540   84.0430   62.6000 C   0  0  0  0  0  0  0  0  0  0  0  0
   42.4600   84.4710   63.6570 N   0  0  0  0  0  0  0  0  0  0  0  0
   41.6960   84.5340   64.7550 C   0  0  0  0  0  0  0  0  0  0  0  0
   40.4610   84.1240   64.3480 N   0  0  0  0  0  0  0  0  0  0  0  0
   40.4820   83.8220   63.0390 C   0  0  0  0  0  0  0  0  0  0  0  0
   39.4120   83.3700   62.2770 C   0  0  0  0  0  0  0  0  0  0  0  0
   38.8500   82.7610   60.3090 H   0  0  0  0  0  0  0  0  0  0  0  0
   42.9810   83.9490   60.8730 H   0  0  0  0  0  0  0  0  0  0  0  0
   43.4830   84.7050   63.5410 H   0  0  0  0  0  0  0  0  0  0  0  0
   42.1240   84.8610   65.6850 H   0  0  0  0  0  0  0  0  0  0  0  0
   38.4390   83.2180   62.6840 H   0  0  0  0  0  0  0  0  0  0  0  0
   42.4390   83.3140   54.0940 Cl  0  0  0  0  0  0  0  0  0  0  0  0
   43.7310   84.0290   55.0530 C   0  0  0  0  0  0  0  0  0  0  0  0
   43.6250   83.9530   56.4190 C   0  0  0  0  0  0  0  0  0  0  0  0
   44.6820   84.5540   57.1010 C   0  0  0  0  0  0  0  0  0  0  0  0
   45.7480   85.1730   56.4860 C   0  0  0  0  0  0  0  0  0  0  0  0
   45.7920   85.2130   55.0970 C   0  0  0  0  0  0  0  0  0  0  0  0
   47.1190   85.9830   54.2670 Cl  0  0  0  0  0  0  0  0  0  0  0  0
   44.7720   84.6340   54.3840 C   0  0  0  0  0  0  0  0  0  0  0  0
   44.6770   84.5400   58.1810 H   0  0  0  0  0  0  0  0  0  0  0  0
   46.5340   85.6200   57.0770 H   0  0  0  0  0  0  0  0  0  0  0  0
   44.7960   84.6610   52.9610 N   0  0  0  0  0  0  0  0  0  0  0  0
   45.3740   83.5510   52.2630 C   0  0  0  0  0  3  0  0  0  0  0  0
   44.7080   82.6610   52.2470 H   0  0  0  0  0  0  0  0  0  0  0  0
   45.5980   83.9640   50.8220 C   0  0  0  0  0  3  0  0  0  0  0  0
   46.3710   83.3490   50.3200 H   0  0  0  0  0  0  0  0  0  0  0  0
   45.9600   85.3140   50.7350 O   0  0  0  0  0  0  0  0  0  0  0  0
   44.8670   86.1190   50.9670 C   0  0  0  0  0  2  0  0  0  0  0  0
   44.2270   85.8230   52.3050 C   0  0  0  0  0  2  0  0  0  0  0  0
  1  6  1  0  0  0  0
  2  3  1  0  0  0  0
  2  1  2  0  0  0  0
  3  4  2  0  0  0  0
  4  5  1  0  0  0  0
  5 10  1  0  0  0  0
  6  5  2  0  0  0  0
  7  1  1  0  0  0  0
  8  2  1  0  0  0  0
  9 17  1  0  0  0  0
 10  9  2  0  0  0  0
 10 11  1  0  0  0  0
 11 12  2  0  0  0  0
 12 16  1  0  0  0  0
 12 13  1  0  0  0  0
 13 14  1  0  0  0  0
 14 21  1  0  0  0  0
 15 14  2  0  0  0  0
 16 15  1  0  0  0  0
 17 22  1  0  0  0  0
 17 16  2  0  0  0  0
 18  9  1  0  0  0  0
 19 11  1  0  0  0  0
 20 13  1  0  0  0  0
 23 24  1  0  0  0  0
 24 25  1  0  0  0  0
 25  3  1  0  0  0  0
 25 26  2  0  0  0  0
 26 31  1  0  0  0  0
 27 32  1  0  0  0  0
 27 26  1  0  0  0  0
 28 27  2  0  0  0  0
 29 28  1  0  0  0  0
 30 24  2  0  0  0  0
 30 28  1  0  0  0  0
 33 30  1  0  0  0  0
 34 33  1  0  0  0  0
 35 34  1  0  0  0  0
 36 34  1  0  0  0  0
 37 36  1  0  0  0  0
 38 36  1  0  0  0  0
 38 39  1  0  0  0  0
 39 40  1  0  0  0  0
 40 33  1  0  0  0  0
M  END
>  <minimizedAffinity>
-5.06912708

>  <minimizedRMSD>
0.74426204

$$$$
