
 OpenBabel03212520033D

 40 44  0  0  0  0  0  0  0  0999 V2000
   40.6690   81.8210   57.0880 C   0  0  0  0  0  0  0  0  0  0  0  0
   41.7630   82.3690   56.3950 C   0  0  0  0  0  0  0  0  0  0  0  0
   42.5670   83.2480   57.0790 C   0  0  0  0  0  0  0  0  0  0  0  0
   42.2960   83.5570   58.3820 N   0  0  0  0  0  0  0  0  0  0  0  0
   41.2320   83.0050   59.0230 C   0  0  0  0  0  0  0  0  0  0  0  0
   40.4090   82.1330   58.3800 N   0  0  0  0  0  0  0  0  0  0  0  0
   39.9530   81.1210   56.6820 H   0  0  0  0  0  0  0  0  0  0  0  0
   41.7940   81.9570   55.4180 H   0  0  0  0  0  0  0  0  0  0  0  0
   39.6780   83.1130   60.9050 C   0  0  0  0  0  0  0  0  0  0  0  0
   40.9740   83.3100   60.4230 C   0  0  0  0  0  0  0  0  0  0  0  0
   42.0010   83.7610   61.2540 C   0  0  0  0  0  0  0  0  0  0  0  0
   41.7680   84.0300   62.5930 C   0  0  0  0  0  0  0  0  0  0  0  0
   42.4710   84.4560   63.6540 N   0  0  0  0  0  0  0  0  0  0  0  0
   41.6980   84.5320   64.7450 C   0  0  0  0  0  0  0  0  0  0  0  0
   40.4630   84.1340   64.3310 N   0  0  0  0  0  0  0  0  0  0  0  0
   40.4910   83.8250   63.0230 C   0  0  0  0  0  0  0  0  0  0  0  0
   39.4210   83.3800   62.2550 C   0  0  0  0  0  0  0  0  0  0  0  0
   38.8690   82.7670   60.2850 H   0  0  0  0  0  0  0  0  0  0  0  0
   43.0080   83.9130   60.8760 H   0  0  0  0  0  0  0  0  0  0  0  0
   43.4970   84.6780   63.5450 H   0  0  0  0  0  0  0  0  0  0  0  0
   42.1230   84.8600   65.6760 H   0  0  0  0  0  0  0  0  0  0  0  0
   38.4440   83.2410   62.6550 H   0  0  0  0  0  0  0  0  0  0  0  0
   42.4230   83.4470   54.1100 Cl  0  0  0  0  0  0  0  0  0  0  0  0
   43.7810   84.0220   55.0750 C   0  0  0  0  0  0  0  0  0  0  0  0
   43.7040   83.8660   56.4360 C   0  0  0  0  0  0  0  0  0  0  0  0
   44.8120   84.3580   57.1230 C   0  0  0  0  0  0  0  0  0  0  0  0
   45.8980   84.9510   56.5180 C   0  0  0  0  0  0  0  0  0  0  0  0
   45.9100   85.0770   55.1340 C   0  0  0  0  0  0  0  0  0  0  0  0
   47.2600   85.8180   54.3160 Cl  0  0  0  0  0  0  0  0  0  0  0  0
   44.8400   84.6050   54.4150 C   0  0  0  0  0  0  0  0  0  0  0  0
   44.8330   84.2760   58.2000 H   0  0  0  0  0  0  0  0  0  0  0  0
   46.7240   85.3120   57.1130 H   0  0  0  0  0  0  0  0  0  0  0  0
   44.8300   84.7220   52.9960 N   0  0  0  0  0  0  0  0  0  0  0  0
   44.3290   85.9310   52.4120 C   0  0  0  0  0  3  0  0  0  0  0  0
   45.0510   86.7740   52.4880 H   0  0  0  0  0  0  0  0  0  0  0  0
   44.0960   85.6800   50.9350 C   0  0  0  0  0  3  0  0  0  0  0  0
   43.3690   86.3900   50.4940 H   0  0  0  0  0  0  0  0  0  0  0  0
   43.6510   84.3710   50.7100 O   0  0  0  0  0  0  0  0  0  0  0  0
   44.6890   83.4790   50.8650 C   0  0  0  0  0  2  0  0  0  0  0  0
   45.3320   83.5980   52.2290 C   0  0  0  0  0  2  0  0  0  0  0  0
  1  6  1  0  0  0  0
  2  3  1  0  0  0  0
  2  1  2  0  0  0  0
  3  4  2  0  0  0  0
  4  5  1  0  0  0  0
  5 10  1  0  0  0  0
  6  5  2  0  0  0  0
  7  1  1  0  0  0  0
  8  2  1  0  0  0  0
  9 17  1  0  0  0  0
 10  9  2  0  0  0  0
 10 11  1  0  0  0  0
 11 12  2  0  0  0  0
 12 16  1  0  0  0  0
 12 13  1  0  0  0  0
 13 14  1  0  0  0  0
 14 21  1  0  0  0  0
 15 14  2  0  0  0  0
 16 15  1  0  0  0  0
 17 22  1  0  0  0  0
 17 16  2  0  0  0  0
 18  9  1  0  0  0  0
 19 11  1  0  0  0  0
 20 13  1  0  0  0  0
 23 24  1  0  0  0  0
 24 25  1  0  0  0  0
 25  3  1  0  0  0  0
 25 26  2  0  0  0  0
 26 31  1  0  0  0  0
 27 32  1  0  0  0  0
 27 26  1  0  0  0  0
 28 27  2  0  0  0  0
 29 28  1  0  0  0  0
 30 24  2  0  0  0  0
 30 28  1  0  0  0  0
 33 30  1  0  0  0  0
 34 35  1  0  0  0  0
 34 33  1  0  0  0  0
 36 34  1  0  0  0  0
 37 36  1  0  0  0  0
 38 39  1  0  0  0  0
 38 36  1  0  0  0  0
 39 40  1  0  0  0  0
 40 33  1  0  0  0  0
M  END
>  <minimizedAffinity>
-5.07276535

>  <minimizedRMSD>
0.813538253

$$$$
