
 OpenBabel03212520033D

 40 44  0  0  0  0  0  0  0  0999 V2000
   40.6630   81.8290   57.0960 C   0  0  0  0  0  0  0  0  0  0  0  0
   41.7360   82.4070   56.3940 C   0  0  0  0  0  0  0  0  0  0  0  0
   42.5220   83.3060   57.0720 C   0  0  0  0  0  0  0  0  0  0  0  0
   42.2550   83.6060   58.3780 N   0  0  0  0  0  0  0  0  0  0  0  0
   41.2120   83.0260   59.0270 C   0  0  0  0  0  0  0  0  0  0  0  0
   40.4060   82.1330   58.3900 N   0  0  0  0  0  0  0  0  0  0  0  0
   39.9630   81.1120   56.6950 H   0  0  0  0  0  0  0  0  0  0  0  0
   41.7700   81.9970   55.4160 H   0  0  0  0  0  0  0  0  0  0  0  0
   39.6660   83.1130   60.9170 C   0  0  0  0  0  0  0  0  0  0  0  0
   40.9580   83.3220   60.4290 C   0  0  0  0  0  0  0  0  0  0  0  0
   41.9850   83.7790   61.2580 C   0  0  0  0  0  0  0  0  0  0  0  0
   41.7560   84.0400   62.5990 C   0  0  0  0  0  0  0  0  0  0  0  0
   42.4610   84.4670   63.6590 N   0  0  0  0  0  0  0  0  0  0  0  0
   41.6930   84.5320   64.7540 C   0  0  0  0  0  0  0  0  0  0  0  0
   40.4590   84.1250   64.3440 N   0  0  0  0  0  0  0  0  0  0  0  0
   40.4830   83.8220   63.0350 C   0  0  0  0  0  0  0  0  0  0  0  0
   39.4140   83.3710   62.2690 C   0  0  0  0  0  0  0  0  0  0  0  0
   38.8570   82.7620   60.3000 H   0  0  0  0  0  0  0  0  0  0  0  0
   42.9890   83.9410   60.8760 H   0  0  0  0  0  0  0  0  0  0  0  0
   43.4840   84.6990   63.5450 H   0  0  0  0  0  0  0  0  0  0  0  0
   42.1190   84.8590   65.6850 H   0  0  0  0  0  0  0  0  0  0  0  0
   38.4390   83.2220   62.6740 H   0  0  0  0  0  0  0  0  0  0  0  0
   42.4510   83.3170   54.0940 Cl  0  0  0  0  0  0  0  0  0  0  0  0
   43.7430   84.0330   55.0540 C   0  0  0  0  0  0  0  0  0  0  0  0
   43.6370   83.9550   56.4200 C   0  0  0  0  0  0  0  0  0  0  0  0
   44.6930   84.5570   57.1020 C   0  0  0  0  0  0  0  0  0  0  0  0
   45.7580   85.1790   56.4880 C   0  0  0  0  0  0  0  0  0  0  0  0
   45.8010   85.2210   55.1000 C   0  0  0  0  0  0  0  0  0  0  0  0
   47.1250   85.9960   54.2700 Cl  0  0  0  0  0  0  0  0  0  0  0  0
   44.7820   84.6410   54.3860 C   0  0  0  0  0  0  0  0  0  0  0  0
   44.6880   84.5400   58.1830 H   0  0  0  0  0  0  0  0  0  0  0  0
   46.5430   85.6260   57.0800 H   0  0  0  0  0  0  0  0  0  0  0  0
   44.8050   84.6720   52.9620 N   0  0  0  0  0  0  0  0  0  0  0  0
   45.3870   83.5640   52.2620 C   0  0  0  0  0  3  0  0  0  0  0  0
   44.7220   82.6720   52.2450 H   0  0  0  0  0  0  0  0  0  0  0  0
   45.6080   83.9800   50.8220 C   0  0  0  0  0  3  0  0  0  0  0  0
   46.3830   83.3680   50.3180 H   0  0  0  0  0  0  0  0  0  0  0  0
   45.9660   85.3310   50.7370 O   0  0  0  0  0  0  0  0  0  0  0  0
   44.8700   86.1320   50.9710 C   0  0  0  0  0  2  0  0  0  0  0  0
   44.2320   85.8320   52.3090 C   0  0  0  0  0  2  0  0  0  0  0  0
  1  6  1  0  0  0  0
  2  3  1  0  0  0  0
  2  1  2  0  0  0  0
  3  4  2  0  0  0  0
  4  5  1  0  0  0  0
  5 10  1  0  0  0  0
  6  5  2  0  0  0  0
  7  1  1  0  0  0  0
  8  2  1  0  0  0  0
  9 17  1  0  0  0  0
 10  9  2  0  0  0  0
 10 11  1  0  0  0  0
 11 12  2  0  0  0  0
 12 16  1  0  0  0  0
 12 13  1  0  0  0  0
 13 14  1  0  0  0  0
 14 21  1  0  0  0  0
 15 14  2  0  0  0  0
 16 15  1  0  0  0  0
 17 22  1  0  0  0  0
 17 16  2  0  0  0  0
 18  9  1  0  0  0  0
 19 11  1  0  0  0  0
 20 13  1  0  0  0  0
 23 24  1  0  0  0  0
 24 25  1  0  0  0  0
 25  3  1  0  0  0  0
 25 26  2  0  0  0  0
 26 31  1  0  0  0  0
 27 32  1  0  0  0  0
 27 26  1  0  0  0  0
 28 27  2  0  0  0  0
 29 28  1  0  0  0  0
 30 24  2  0  0  0  0
 30 28  1  0  0  0  0
 33 30  1  0  0  0  0
 34 33  1  0  0  0  0
 35 34  1  0  0  0  0
 36 34  1  0  0  0  0
 37 36  1  0  0  0  0
 38 36  1  0  0  0  0
 38 39  1  0  0  0  0
 39 40  1  0  0  0  0
 40 33  1  0  0  0  0
M  END
>  <minimizedAffinity>
-5.06562567

>  <minimizedRMSD>
0.281472802

$$$$
