
 OpenBabel03212520043D

 40 44  0  0  0  0  0  0  0  0999 V2000
   40.6630   81.8280   57.0950 C   0  0  0  0  0  0  0  0  0  0  0  0
   41.7350   82.4070   56.3940 C   0  0  0  0  0  0  0  0  0  0  0  0
   42.5220   83.3050   57.0710 C   0  0  0  0  0  0  0  0  0  0  0  0
   42.2550   83.6060   58.3770 N   0  0  0  0  0  0  0  0  0  0  0  0
   41.2120   83.0250   59.0260 C   0  0  0  0  0  0  0  0  0  0  0  0
   40.4060   82.1320   58.3900 N   0  0  0  0  0  0  0  0  0  0  0  0
   39.9630   81.1110   56.6940 H   0  0  0  0  0  0  0  0  0  0  0  0
   41.7700   81.9960   55.4150 H   0  0  0  0  0  0  0  0  0  0  0  0
   39.6650   83.1130   60.9160 C   0  0  0  0  0  0  0  0  0  0  0  0
   40.9570   83.3220   60.4290 C   0  0  0  0  0  0  0  0  0  0  0  0
   41.9850   83.7780   61.2570 C   0  0  0  0  0  0  0  0  0  0  0  0
   41.7560   84.0390   62.5990 C   0  0  0  0  0  0  0  0  0  0  0  0
   42.4610   84.4650   63.6580 N   0  0  0  0  0  0  0  0  0  0  0  0
   41.6930   84.5300   64.7530 C   0  0  0  0  0  0  0  0  0  0  0  0
   40.4590   84.1250   64.3430 N   0  0  0  0  0  0  0  0  0  0  0  0
   40.4830   83.8220   63.0340 C   0  0  0  0  0  0  0  0  0  0  0  0
   39.4130   83.3720   62.2680 C   0  0  0  0  0  0  0  0  0  0  0  0
   38.8570   82.7630   60.2990 H   0  0  0  0  0  0  0  0  0  0  0  0
   42.9890   83.9390   60.8750 H   0  0  0  0  0  0  0  0  0  0  0  0
   43.4840   84.6960   63.5450 H   0  0  0  0  0  0  0  0  0  0  0  0
   42.1200   84.8570   65.6840 H   0  0  0  0  0  0  0  0  0  0  0  0
   38.4390   83.2230   62.6730 H   0  0  0  0  0  0  0  0  0  0  0  0
   42.4500   83.3160   54.0930 Cl  0  0  0  0  0  0  0  0  0  0  0  0
   43.7420   84.0330   55.0530 C   0  0  0  0  0  0  0  0  0  0  0  0
   43.6370   83.9540   56.4190 C   0  0  0  0  0  0  0  0  0  0  0  0
   44.6920   84.5560   57.1010 C   0  0  0  0  0  0  0  0  0  0  0  0
   45.7570   85.1790   56.4860 C   0  0  0  0  0  0  0  0  0  0  0  0
   45.8000   85.2210   55.0980 C   0  0  0  0  0  0  0  0  0  0  0  0
   47.1240   85.9960   54.2690 Cl  0  0  0  0  0  0  0  0  0  0  0  0
   44.7810   84.6410   54.3850 C   0  0  0  0  0  0  0  0  0  0  0  0
   44.6880   84.5400   58.1820 H   0  0  0  0  0  0  0  0  0  0  0  0
   46.5420   85.6260   57.0790 H   0  0  0  0  0  0  0  0  0  0  0  0
   44.8040   84.6710   52.9610 N   0  0  0  0  0  0  0  0  0  0  0  0
   45.3850   83.5630   52.2610 C   0  0  0  0  0  3  0  0  0  0  0  0
   44.7210   82.6720   52.2430 H   0  0  0  0  0  0  0  0  0  0  0  0
   45.6060   83.9800   50.8210 C   0  0  0  0  0  3  0  0  0  0  0  0
   46.3810   83.3670   50.3170 H   0  0  0  0  0  0  0  0  0  0  0  0
   45.9660   85.3310   50.7350 O   0  0  0  0  0  0  0  0  0  0  0  0
   44.8700   86.1320   50.9700 C   0  0  0  0  0  2  0  0  0  0  0  0
   44.2310   85.8330   52.3080 C   0  0  0  0  0  2  0  0  0  0  0  0
  1  6  1  0  0  0  0
  2  3  1  0  0  0  0
  2  1  2  0  0  0  0
  3  4  2  0  0  0  0
  4  5  1  0  0  0  0
  5 10  1  0  0  0  0
  6  5  2  0  0  0  0
  7  1  1  0  0  0  0
  8  2  1  0  0  0  0
  9 17  1  0  0  0  0
 10  9  2  0  0  0  0
 10 11  1  0  0  0  0
 11 12  2  0  0  0  0
 12 16  1  0  0  0  0
 12 13  1  0  0  0  0
 13 14  1  0  0  0  0
 14 21  1  0  0  0  0
 15 14  2  0  0  0  0
 16 15  1  0  0  0  0
 17 22  1  0  0  0  0
 17 16  2  0  0  0  0
 18  9  1  0  0  0  0
 19 11  1  0  0  0  0
 20 13  1  0  0  0  0
 23 24  1  0  0  0  0
 24 25  1  0  0  0  0
 25  3  1  0  0  0  0
 25 26  2  0  0  0  0
 26 31  1  0  0  0  0
 27 32  1  0  0  0  0
 27 26  1  0  0  0  0
 28 27  2  0  0  0  0
 29 28  1  0  0  0  0
 30 24  2  0  0  0  0
 30 28  1  0  0  0  0
 33 30  1  0  0  0  0
 34 33  1  0  0  0  0
 35 34  1  0  0  0  0
 36 34  1  0  0  0  0
 37 36  1  0  0  0  0
 38 36  1  0  0  0  0
 38 39  1  0  0  0  0
 39 40  1  0  0  0  0
 40 33  1  0  0  0  0
M  END
>  <minimizedAffinity>
-5.06598473

>  <minimizedRMSD>
0.424265444

$$$$
