
 OpenBabel03212520063D

 40 44  0  0  0  0  0  0  0  0999 V2000
   43.6750   74.3480   59.7770 C   0  0  0  0  0  0  0  0  0  0  0  0
   43.6010   73.1780   60.5530 C   0  0  0  0  0  0  0  0  0  0  0  0
   42.3700   72.5830   60.6820 C   0  0  0  0  0  0  0  0  0  0  0  0
   41.2770   73.1240   60.0680 N   0  0  0  0  0  0  0  0  0  0  0  0
   41.3850   74.2550   59.3220 C   0  0  0  0  0  0  0  0  0  0  0  0
   42.5860   74.8770   59.1710 N   0  0  0  0  0  0  0  0  0  0  0  0
   44.5700   74.9230   59.5880 H   0  0  0  0  0  0  0  0  0  0  0  0
   44.5750   72.9270   60.8940 H   0  0  0  0  0  0  0  0  0  0  0  0
   39.9340   76.1580   58.8240 C   0  0  0  0  0  0  0  0  0  0  0  0
   40.2220   74.8040   58.6390 C   0  0  0  0  0  0  0  0  0  0  0  0
   39.4400   73.9990   57.8090 C   0  0  0  0  0  0  0  0  0  0  0  0
   38.3460   74.5190   57.1360 C   0  0  0  0  0  0  0  0  0  0  0  0
   37.4030   74.0780   56.2890 N   0  0  0  0  0  0  0  0  0  0  0  0
   36.5640   75.0640   55.9460 C   0  0  0  0  0  0  0  0  0  0  0  0
   37.0160   76.1610   56.6160 N   0  0  0  0  0  0  0  0  0  0  0  0
   38.1000   75.8440   57.3440 C   0  0  0  0  0  0  0  0  0  0  0  0
   38.8330   76.7030   58.1550 C   0  0  0  0  0  0  0  0  0  0  0  0
   40.5210   76.7990   59.4590 H   0  0  0  0  0  0  0  0  0  0  0  0
   39.6650   72.9460   57.6660 H   0  0  0  0  0  0  0  0  0  0  0  0
   37.4030   73.0670   55.9890 H   0  0  0  0  0  0  0  0  0  0  0  0
   35.7530   74.8620   55.2700 H   0  0  0  0  0  0  0  0  0  0  0  0
   38.5850   77.7320   58.2750 H   0  0  0  0  0  0  0  0  0  0  0  0
   42.8990   70.0160   59.2660 Cl  0  0  0  0  0  0  0  0  0  0  0  0
   42.4100   70.1310   60.9540 C   0  0  0  0  0  0  0  0  0  0  0  0
   42.2060   71.3840   61.4730 C   0  0  0  0  0  0  0  0  0  0  0  0
   41.8350   71.3850   62.8160 C   0  0  0  0  0  0  0  0  0  0  0  0
   41.6790   70.2470   63.5770 C   0  0  0  0  0  0  0  0  0  0  0  0
   41.9020   69.0090   62.9880 C   0  0  0  0  0  0  0  0  0  0  0  0
   41.7180   67.5370   63.9040 Cl  0  0  0  0  0  0  0  0  0  0  0  0
   42.2690   68.9600   61.6660 C   0  0  0  0  0  0  0  0  0  0  0  0
   41.6550   72.3330   63.3040 H   0  0  0  0  0  0  0  0  0  0  0  0
   41.3890   70.3220   64.6150 H   0  0  0  0  0  0  0  0  0  0  0  0
   42.5020   67.7030   61.0390 N   0  0  0  0  0  0  0  0  0  0  0  0
   41.4190   67.0700   60.3470 C   0  0  0  0  0  3  0  0  0  0  0  0
   41.2120   67.5370   59.3590 H   0  0  0  0  0  0  0  0  0  0  0  0
   41.8050   65.6280   60.0830 C   0  0  0  0  0  3  0  0  0  0  0  0
   40.9240   64.9770   59.9200 H   0  0  0  0  0  0  0  0  0  0  0  0
   42.5670   65.1100   61.1370 O   0  0  0  0  0  0  0  0  0  0  0  0
   43.8430   65.6280   61.1050 C   0  0  0  0  0  2  0  0  0  0  0  0
   43.8360   67.1390   61.1460 C   0  0  0  0  0  2  0  0  0  0  0  0
  1  2  1  0  0  0  0
  2  3  2  0  0  0  0
  2  8  1  0  0  0  0
  3 25  1  0  0  0  0
  4  3  1  0  0  0  0
  5  4  2  0  0  0  0
  6  5  1  0  0  0  0
  6  1  2  0  0  0  0
  7  1  1  0  0  0  0
  9 18  1  0  0  0  0
 10  9  1  0  0  0  0
 10  5  1  0  0  0  0
 11 10  2  0  0  0  0
 12 16  2  0  0  0  0
 12 11  1  0  0  0  0
 13 12  1  0  0  0  0
 14 13  1  0  0  0  0
 14 15  2  0  0  0  0
 15 16  1  0  0  0  0
 16 17  1  0  0  0  0
 17 22  1  0  0  0  0
 17  9  2  0  0  0  0
 19 11  1  0  0  0  0
 20 13  1  0  0  0  0
 21 14  1  0  0  0  0
 23 24  1  0  0  0  0
 24 25  2  0  0  0  0
 24 30  1  0  0  0  0
 25 26  1  0  0  0  0
 26 31  1  0  0  0  0
 26 27  2  0  0  0  0
 27 32  1  0  0  0  0
 28 27  1  0  0  0  0
 28 29  1  0  0  0  0
 30 28  2  0  0  0  0
 33 40  1  0  0  0  0
 33 30  1  0  0  0  0
 34 33  1  0  0  0  0
 35 34  1  0  0  0  0
 36 34  1  0  0  0  0
 36 38  1  0  0  0  0
 37 36  1  0  0  0  0
 39 38  1  0  0  0  0
 39 40  1  0  0  0  0
M  END
>  <minimizedAffinity>
-7.35331202

$$$$

 OpenBabel03212520063D

 40 44  0  0  0  0  0  0  0  0999 V2000
   45.1510   73.5350   58.5770 C   0  0  0  0  0  0  0  0  0  0  0  0
   44.3030   74.6400   58.3870 C   0  0  0  0  0  0  0  0  0  0  0  0
   43.0800   74.6120   59.0110 C   0  0  0  0  0  0  0  0  0  0  0  0
   42.7270   73.5420   59.7840 N   0  0  0  0  0  0  0  0  0  0  0  0
   43.5730   72.4920   59.9490 C   0  0  0  0  0  0  0  0  0  0  0  0
   44.7920   72.4790   59.3460 N   0  0  0  0  0  0  0  0  0  0  0  0
   46.1360   73.4170   58.1510 H   0  0  0  0  0  0  0  0  0  0  0  0
   44.8020   75.3590   57.7860 H   0  0  0  0  0  0  0  0  0  0  0  0
   43.6570   70.1020   60.4500 C   0  0  0  0  0  0  0  0  0  0  0  0
   43.2040   71.3740   60.8060 C   0  0  0  0  0  0  0  0  0  0  0  0
   42.4420   71.5810   61.9570 C   0  0  0  0  0  0  0  0  0  0  0  0
   42.1070   70.5250   62.7900 C   0  0  0  0  0  0  0  0  0  0  0  0
   41.4250   70.3430   63.9310 N   0  0  0  0  0  0  0  0  0  0  0  0
   41.4300   69.0540   64.2950 C   0  0  0  0  0  0  0  0  0  0  0  0
   42.1500   68.4180   63.3290 N   0  0  0  0  0  0  0  0  0  0  0  0
   42.5690   69.3010   62.4070 C   0  0  0  0  0  0  0  0  0  0  0  0
   43.3300   69.0220   61.2780 C   0  0  0  0  0  0  0  0  0  0  0  0
   44.2450   69.9160   59.5680 H   0  0  0  0  0  0  0  0  0  0  0  0
   42.0900   72.5710   62.2310 H   0  0  0  0  0  0  0  0  0  0  0  0
   40.9750   71.1700   64.4080 H   0  0  0  0  0  0  0  0  0  0  0  0
   40.9210   68.7520   65.1920 H   0  0  0  0  0  0  0  0  0  0  0  0
   43.6590   68.0380   61.0350 H   0  0  0  0  0  0  0  0  0  0  0  0
   40.8480   74.1410   57.0950 Cl  0  0  0  0  0  0  0  0  0  0  0  0
   41.0690   75.6310   58.0070 C   0  0  0  0  0  0  0  0  0  0  0  0
   42.1440   75.7030   58.8570 C   0  0  0  0  0  0  0  0  0  0  0  0
   42.2370   76.9090   59.5480 C   0  0  0  0  0  0  0  0  0  0  0  0
   41.3480   77.9520   59.4090 C   0  0  0  0  0  0  0  0  0  0  0  0
   40.2820   77.8130   58.5290 C   0  0  0  0  0  0  0  0  0  0  0  0
   39.1260   79.1010   58.3140 Cl  0  0  0  0  0  0  0  0  0  0  0  0
   40.1500   76.6400   57.8270 C   0  0  0  0  0  0  0  0  0  0  0  0
   43.0560   77.0490   60.2400 H   0  0  0  0  0  0  0  0  0  0  0  0
   41.4810   78.8610   59.9770 H   0  0  0  0  0  0  0  0  0  0  0  0
   39.0650   76.4750   56.9190 N   0  0  0  0  0  0  0  0  0  0  0  0
   37.8530   75.8830   57.4000 C   0  0  0  0  0  3  0  0  0  0  0  0
   37.2470   76.5860   58.0130 H   0  0  0  0  0  0  0  0  0  0  0  0
   37.0070   75.4980   56.2020 C   0  0  0  0  0  3  0  0  0  0  0  0
   36.2670   74.7090   56.4420 H   0  0  0  0  0  0  0  0  0  0  0  0
   37.8070   75.0660   55.1380 O   0  0  0  0  0  0  0  0  0  0  0  0
   38.4430   76.1380   54.5510 C   0  0  0  0  0  2  0  0  0  0  0  0
   39.2630   76.9210   55.5520 C   0  0  0  0  0  2  0  0  0  0  0  0
  1  6  1  0  0  0  0
  2  1  2  0  0  0  0
  2  3  1  0  0  0  0
  3  4  2  0  0  0  0
  4  5  1  0  0  0  0
  5 10  1  0  0  0  0
  6  5  2  0  0  0  0
  7  1  1  0  0  0  0
  8  2  1  0  0  0  0
  9 10  2  0  0  0  0
  9 17  1  0  0  0  0
 10 11  1  0  0  0  0
 11 19  1  0  0  0  0
 11 12  2  0  0  0  0
 12 13  1  0  0  0  0
 13 14  1  0  0  0  0
 13 20  1  0  0  0  0
 14 21  1  0  0  0  0
 15 14  2  0  0  0  0
 16 12  1  0  0  0  0
 16 15  1  0  0  0  0
 17 16  2  0  0  0  0
 18  9  1  0  0  0  0
 22 17  1  0  0  0  0
 23 24  1  0  0  0  0
 24 25  1  0  0  0  0
 25  3  1  0  0  0  0
 25 26  2  0  0  0  0
 26 31  1  0  0  0  0
 27 26  1  0  0  0  0
 27 32  1  0  0  0  0
 28 27  2  0  0  0  0
 29 28  1  0  0  0  0
 30 24  2  0  0  0  0
 30 28  1  0  0  0  0
 33 34  1  0  0  0  0
 33 30  1  0  0  0  0
 34 35  1  0  0  0  0
 36 37  1  0  0  0  0
 36 34  1  0  0  0  0
 38 36  1  0  0  0  0
 39 38  1  0  0  0  0
 39 40  1  0  0  0  0
 40 33  1  0  0  0  0
M  END
>  <minimizedAffinity>
-7.35071659

$$$$

 OpenBabel03212520063D

 40 44  0  0  0  0  0  0  0  0999 V2000
   43.6290   72.5550   56.9890 C   0  0  0  0  0  0  0  0  0  0  0  0
   43.3140   71.2630   57.4460 C   0  0  0  0  0  0  0  0  0  0  0  0
   42.4510   71.1620   58.5090 C   0  0  0  0  0  0  0  0  0  0  0  0
   41.9290   72.2880   59.0810 N   0  0  0  0  0  0  0  0  0  0  0  0
   42.2520   73.5220   58.6110 C   0  0  0  0  0  0  0  0  0  0  0  0
   43.1060   73.6650   57.5610 N   0  0  0  0  0  0  0  0  0  0  0  0
   44.2900   72.7880   56.1670 H   0  0  0  0  0  0  0  0  0  0  0  0
   43.8020   70.5500   56.8290 H   0  0  0  0  0  0  0  0  0  0  0  0
   40.4570   74.5730   59.8930 C   0  0  0  0  0  0  0  0  0  0  0  0
   41.6620   74.7150   59.2010 C   0  0  0  0  0  0  0  0  0  0  0  0
   42.2990   75.9520   59.0920 C   0  0  0  0  0  0  0  0  0  0  0  0
   41.7560   77.0880   59.6710 C   0  0  0  0  0  0  0  0  0  0  0  0
   42.0650   78.3890   59.7780 N   0  0  0  0  0  0  0  0  0  0  0  0
   41.1370   79.0490   60.4840 C   0  0  0  0  0  0  0  0  0  0  0  0
   40.2170   78.1040   60.8250 N   0  0  0  0  0  0  0  0  0  0  0  0
   40.5800   76.9060   60.3370 C   0  0  0  0  0  0  0  0  0  0  0  0
   39.8910   75.7080   60.4840 C   0  0  0  0  0  0  0  0  0  0  0  0
   39.9460   73.6320   59.9900 H   0  0  0  0  0  0  0  0  0  0  0  0
   43.2360   76.0600   58.5530 H   0  0  0  0  0  0  0  0  0  0  0  0
   42.9470   78.7540   59.3280 H   0  0  0  0  0  0  0  0  0  0  0  0
   41.2490   80.1040   60.6530 H   0  0  0  0  0  0  0  0  0  0  0  0
   38.9720   75.6350   61.0200 H   0  0  0  0  0  0  0  0  0  0  0  0
   43.2170   70.6810   61.3480 Cl  0  0  0  0  0  0  0  0  0  0  0  0
   42.3770   69.5070   60.3380 C   0  0  0  0  0  0  0  0  0  0  0  0
   42.0860   69.8720   59.0480 C   0  0  0  0  0  0  0  0  0  0  0  0
   41.4100   68.8910   58.3240 C   0  0  0  0  0  0  0  0  0  0  0  0
   41.0560   67.6600   58.8300 C   0  0  0  0  0  0  0  0  0  0  0  0
   41.3830   67.3560   60.1460 C   0  0  0  0  0  0  0  0  0  0  0  0
   40.9600   65.8120   60.8390 Cl  0  0  0  0  0  0  0  0  0  0  0  0
   42.0490   68.2920   60.8980 C   0  0  0  0  0  0  0  0  0  0  0  0
   41.1420   69.0970   57.2970 H   0  0  0  0  0  0  0  0  0  0  0  0
   40.5320   66.9460   58.2110 H   0  0  0  0  0  0  0  0  0  0  0  0
   42.3950   68.0030   62.2490 N   0  0  0  0  0  0  0  0  0  0  0  0
   41.4750   68.3660   63.2850 C   0  0  0  0  0  3  0  0  0  0  0  0
   40.6060   67.6740   63.3470 H   0  0  0  0  0  0  0  0  0  0  0  0
   42.2020   68.2840   64.6120 C   0  0  0  0  0  3  0  0  0  0  0  0
   41.7210   68.9010   65.3970 H   0  0  0  0  0  0  0  0  0  0  0  0
   43.5390   68.6760   64.4790 O   0  0  0  0  0  0  0  0  0  0  0  0
   44.2640   67.6960   63.8360 C   0  0  0  0  0  2  0  0  0  0  0  0
   43.6710   67.3540   62.4880 C   0  0  0  0  0  2  0  0  0  0  0  0
  1  2  2  0  0  0  0
  1  6  1  0  0  0  0
  2  3  1  0  0  0  0
  3 25  1  0  0  0  0
  3  4  2  0  0  0  0
  5  4  1  0  0  0  0
  5 10  1  0  0  0  0
  6  5  2  0  0  0  0
  7  1  1  0  0  0  0
  8  2  1  0  0  0  0
  9 18  1  0  0  0  0
  9 17  1  0  0  0  0
 10  9  2  0  0  0  0
 11 10  1  0  0  0  0
 11 12  2  0  0  0  0
 12 13  1  0  0  0  0
 12 16  1  0  0  0  0
 13 14  1  0  0  0  0
 14 21  1  0  0  0  0
 14 15  2  0  0  0  0
 16 17  2  0  0  0  0
 16 15  1  0  0  0  0
 17 22  1  0  0  0  0
 19 11  1  0  0  0  0
 20 13  1  0  0  0  0
 24 30  1  0  0  0  0
 24 23  1  0  0  0  0
 25 24  2  0  0  0  0
 26 27  2  0  0  0  0
 26 25  1  0  0  0  0
 27 28  1  0  0  0  0
 28 29  1  0  0  0  0
 28 30  2  0  0  0  0
 30 33  1  0  0  0  0
 31 26  1  0  0  0  0
 32 27  1  0  0  0  0
 33 40  1  0  0  0  0
 33 34  1  0  0  0  0
 34 35  1  0  0  0  0
 34 36  1  0  0  0  0
 36 37  1  0  0  0  0
 38 36  1  0  0  0  0
 39 38  1  0  0  0  0
 40 39  1  0  0  0  0
M  END
>  <minimizedAffinity>
-7.16871834

$$$$

 OpenBabel03212520063D

 40 44  0  0  0  0  0  0  0  0999 V2000
   43.5040   73.3470   58.3250 C   0  0  0  0  0  0  0  0  0  0  0  0
   43.3990   72.0010   58.7180 C   0  0  0  0  0  0  0  0  0  0  0  0
   42.1410   71.4540   58.7640 C   0  0  0  0  0  0  0  0  0  0  0  0
   41.0500   72.2060   58.4310 N   0  0  0  0  0  0  0  0  0  0  0  0
   41.1880   73.5030   58.0520 C   0  0  0  0  0  0  0  0  0  0  0  0
   42.4170   74.0860   57.9970 N   0  0  0  0  0  0  0  0  0  0  0  0
   44.4230   73.9100   58.2450 H   0  0  0  0  0  0  0  0  0  0  0  0
   44.3730   71.6140   58.8880 H   0  0  0  0  0  0  0  0  0  0  0  0
   39.6530   75.3560   58.4800 C   0  0  0  0  0  0  0  0  0  0  0  0
   40.0250   74.2870   57.6620 C   0  0  0  0  0  0  0  0  0  0  0  0
   39.3240   73.9860   56.4920 C   0  0  0  0  0  0  0  0  0  0  0  0
   38.2310   74.7420   56.1010 C   0  0  0  0  0  0  0  0  0  0  0  0
   37.3500   74.7600   55.0890 N   0  0  0  0  0  0  0  0  0  0  0  0
   36.4710   75.7600   55.2310 C   0  0  0  0  0  0  0  0  0  0  0  0
   36.8320   76.3840   56.3870 N   0  0  0  0  0  0  0  0  0  0  0  0
   37.9020   75.7750   56.9270 C   0  0  0  0  0  0  0  0  0  0  0  0
   38.5500   76.1310   58.1040 C   0  0  0  0  0  0  0  0  0  0  0  0
   40.1750   75.6070   59.3870 H   0  0  0  0  0  0  0  0  0  0  0  0
   39.6160   73.1550   55.8570 H   0  0  0  0  0  0  0  0  0  0  0  0
   37.4210   74.0360   54.3230 H   0  0  0  0  0  0  0  0  0  0  0  0
   35.7010   75.9010   54.4940 H   0  0  0  0  0  0  0  0  0  0  0  0
   38.2400   76.9540   58.7060 H   0  0  0  0  0  0  0  0  0  0  0  0
   42.7690   70.8440   61.6110 Cl  0  0  0  0  0  0  0  0  0  0  0  0
   42.1970   69.6510   60.4490 C   0  0  0  0  0  0  0  0  0  0  0  0
   41.9450   70.0800   59.1700 C   0  0  0  0  0  0  0  0  0  0  0  0
   41.4840   69.0770   58.3190 C   0  0  0  0  0  0  0  0  0  0  0  0
   41.2910   67.7670   58.6990 C   0  0  0  0  0  0  0  0  0  0  0  0
   41.5680   67.4010   60.0110 C   0  0  0  0  0  0  0  0  0  0  0  0
   41.3430   65.7560   60.5460 Cl  0  0  0  0  0  0  0  0  0  0  0  0
   42.0240   68.3560   60.8850 C   0  0  0  0  0  0  0  0  0  0  0  0
   41.2590   69.3300   57.2930 H   0  0  0  0  0  0  0  0  0  0  0  0
   40.9310   67.0400   57.9860 H   0  0  0  0  0  0  0  0  0  0  0  0
   42.3150   68.0040   62.2340 N   0  0  0  0  0  0  0  0  0  0  0  0
   41.2650   68.0840   63.2040 C   0  0  0  0  0  3  0  0  0  0  0  0
   40.5450   67.2400   63.1270 H   0  0  0  0  0  0  0  0  0  0  0  0
   41.8890   68.0080   64.5830 C   0  0  0  0  0  3  0  0  0  0  0  0
   41.2390   68.4430   65.3680 H   0  0  0  0  0  0  0  0  0  0  0  0
   43.1310   68.6540   64.6100 O   0  0  0  0  0  0  0  0  0  0  0  0
   44.0800   67.8950   63.9600 C   0  0  0  0  0  2  0  0  0  0  0  0
   43.6710   67.5850   62.5380 C   0  0  0  0  0  2  0  0  0  0  0  0
  1  2  1  0  0  0  0
  2  3  2  0  0  0  0
  2  8  1  0  0  0  0
  3 25  1  0  0  0  0
  4  3  1  0  0  0  0
  5  4  2  0  0  0  0
  6  5  1  0  0  0  0
  6  1  2  0  0  0  0
  7  1  1  0  0  0  0
  9 18  1  0  0  0  0
 10  5  1  0  0  0  0
 10  9  2  0  0  0  0
 11 10  1  0  0  0  0
 12 11  2  0  0  0  0
 12 16  1  0  0  0  0
 13 14  1  0  0  0  0
 13 12  1  0  0  0  0
 14 15  2  0  0  0  0
 15 16  1  0  0  0  0
 16 17  2  0  0  0  0
 17  9  1  0  0  0  0
 17 22  1  0  0  0  0
 19 11  1  0  0  0  0
 20 13  1  0  0  0  0
 21 14  1  0  0  0  0
 24 30  1  0  0  0  0
 24 23  1  0  0  0  0
 25 24  2  0  0  0  0
 26 27  2  0  0  0  0
 26 25  1  0  0  0  0
 27 28  1  0  0  0  0
 28 29  1  0  0  0  0
 28 30  2  0  0  0  0
 30 33  1  0  0  0  0
 31 26  1  0  0  0  0
 32 27  1  0  0  0  0
 33 40  1  0  0  0  0
 33 34  1  0  0  0  0
 34 36  1  0  0  0  0
 35 34  1  0  0  0  0
 36 38  1  0  0  0  0
 36 37  1  0  0  0  0
 39 38  1  0  0  0  0
 40 39  1  0  0  0  0
M  END
>  <minimizedAffinity>
-6.98020983

$$$$

 OpenBabel03212520063D

 40 44  0  0  0  0  0  0  0  0999 V2000
   40.3800   74.6700   61.2450 C   0  0  0  0  0  0  0  0  0  0  0  0
   41.0030   73.4180   61.1000 C   0  0  0  0  0  0  0  0  0  0  0  0
   40.7910   72.7400   59.9250 C   0  0  0  0  0  0  0  0  0  0  0  0
   40.0050   73.2840   58.9490 N   0  0  0  0  0  0  0  0  0  0  0  0
   39.4210   74.4990   59.1210 C   0  0  0  0  0  0  0  0  0  0  0  0
   39.6030   75.2020   60.2720 N   0  0  0  0  0  0  0  0  0  0  0  0
   40.4540   75.3130   62.1100 H   0  0  0  0  0  0  0  0  0  0  0  0
   41.5900   73.2210   61.9630 H   0  0  0  0  0  0  0  0  0  0  0  0
   37.6850   74.2720   57.4160 C   0  0  0  0  0  0  0  0  0  0  0  0
   38.6160   75.0890   58.0610 C   0  0  0  0  0  0  0  0  0  0  0  0
   38.7630   76.4350   57.7220 C   0  0  0  0  0  0  0  0  0  0  0  0
   37.9840   77.0110   56.7310 C   0  0  0  0  0  0  0  0  0  0  0  0
   37.8420   78.2150   56.1580 N   0  0  0  0  0  0  0  0  0  0  0  0
   36.8930   78.1910   55.2130 C   0  0  0  0  0  0  0  0  0  0  0  0
   36.4330   76.9090   55.2090 N   0  0  0  0  0  0  0  0  0  0  0  0
   37.0870   76.1790   56.1280 C   0  0  0  0  0  0  0  0  0  0  0  0
   36.8890   74.8330   56.4110 C   0  0  0  0  0  0  0  0  0  0  0  0
   37.5530   73.2320   57.6580 H   0  0  0  0  0  0  0  0  0  0  0  0
   39.4880   77.0690   58.2250 H   0  0  0  0  0  0  0  0  0  0  0  0
   38.4470   79.0190   56.4770 H   0  0  0  0  0  0  0  0  0  0  0  0
   36.6660   79.0870   54.6640 H   0  0  0  0  0  0  0  0  0  0  0  0
   36.1680   74.2380   55.9000 H   0  0  0  0  0  0  0  0  0  0  0  0
   41.2920   71.1070   62.3660 Cl  0  0  0  0  0  0  0  0  0  0  0  0
   41.6770   70.5820   60.7300 C   0  0  0  0  0  0  0  0  0  0  0  0
   41.3850   71.4410   59.7010 C   0  0  0  0  0  0  0  0  0  0  0  0
   41.7090   70.9430   58.4400 C   0  0  0  0  0  0  0  0  0  0  0  0
   42.2720   69.7050   58.2180 C   0  0  0  0  0  0  0  0  0  0  0  0
   42.5420   68.8850   59.3070 C   0  0  0  0  0  0  0  0  0  0  0  0
   43.2550   67.3090   59.0840 Cl  0  0  0  0  0  0  0  0  0  0  0  0
   42.2390   69.3350   60.5680 C   0  0  0  0  0  0  0  0  0  0  0  0
   41.5110   71.5560   57.5730 H   0  0  0  0  0  0  0  0  0  0  0  0
   42.4980   69.3820   57.2130 H   0  0  0  0  0  0  0  0  0  0  0  0
   42.5080   68.5130   61.6990 N   0  0  0  0  0  0  0  0  0  0  0  0
   41.4850   67.6180   62.1540 C   0  0  0  0  0  3  0  0  0  0  0  0
   41.3860   66.7170   61.5080 H   0  0  0  0  0  0  0  0  0  0  0  0
   41.8660   67.1300   63.5380 C   0  0  0  0  0  3  0  0  0  0  0  0
   40.9920   66.7680   64.1140 H   0  0  0  0  0  0  0  0  0  0  0  0
   42.5090   68.1370   64.2680 O   0  0  0  0  0  0  0  0  0  0  0  0
   43.7930   68.3210   63.8010 C   0  0  0  0  0  2  0  0  0  0  0  0
   43.8120   68.6380   62.3230 C   0  0  0  0  0  2  0  0  0  0  0  0
  1  7  1  0  0  0  0
  2  1  1  0  0  0  0
  2  8  1  0  0  0  0
  3  2  2  0  0  0  0
  4  5  2  0  0  0  0
  4  3  1  0  0  0  0
  5  6  1  0  0  0  0
  6  1  2  0  0  0  0
  9 18  1  0  0  0  0
  9 10  1  0  0  0  0
 10  5  1  0  0  0  0
 11 10  2  0  0  0  0
 11 19  1  0  0  0  0
 12 11  1  0  0  0  0
 13 20  1  0  0  0  0
 13 12  1  0  0  0  0
 14 13  1  0  0  0  0
 15 14  2  0  0  0  0
 15 16  1  0  0  0  0
 16 17  1  0  0  0  0
 16 12  2  0  0  0  0
 17  9  2  0  0  0  0
 21 14  1  0  0  0  0
 22 17  1  0  0  0  0
 24 23  1  0  0  0  0
 25  3  1  0  0  0  0
 25 24  2  0  0  0  0
 26 25  1  0  0  0  0
 27 26  2  0  0  0  0
 27 28  1  0  0  0  0
 28 30  2  0  0  0  0
 29 28  1  0  0  0  0
 30 24  1  0  0  0  0
 30 33  1  0  0  0  0
 31 26  1  0  0  0  0
 32 27  1  0  0  0  0
 33 34  1  0  0  0  0
 33 40  1  0  0  0  0
 34 36  1  0  0  0  0
 35 34  1  0  0  0  0
 36 37  1  0  0  0  0
 36 38  1  0  0  0  0
 39 38  1  0  0  0  0
 40 39  1  0  0  0  0
M  END
>  <minimizedAffinity>
-6.80992889

$$$$

 OpenBabel03212520063D

 40 44  0  0  0  0  0  0  0  0999 V2000
   43.9610   70.3400   59.0360 C   0  0  0  0  0  0  0  0  0  0  0  0
   43.3150   71.5600   58.7700 C   0  0  0  0  0  0  0  0  0  0  0  0
   42.2000   71.8590   59.5140 C   0  0  0  0  0  0  0  0  0  0  0  0
   41.7580   70.9910   60.4720 N   0  0  0  0  0  0  0  0  0  0  0  0
   42.4090   69.8210   60.7050 C   0  0  0  0  0  0  0  0  0  0  0  0
   43.5160   69.4850   59.9880 N   0  0  0  0  0  0  0  0  0  0  0  0
   44.8430   69.9710   58.5330 H   0  0  0  0  0  0  0  0  0  0  0  0
   43.8550   72.0800   58.0190 H   0  0  0  0  0  0  0  0  0  0  0  0
   42.0260   69.3660   63.0750 C   0  0  0  0  0  0  0  0  0  0  0  0
   41.9550   68.9190   61.7540 C   0  0  0  0  0  0  0  0  0  0  0  0
   41.4450   67.6590   61.4360 C   0  0  0  0  0  0  0  0  0  0  0  0
   40.9880   66.8040   62.4270 C   0  0  0  0  0  0  0  0  0  0  0  0
   40.4520   65.5770   62.5050 N   0  0  0  0  0  0  0  0  0  0  0  0
   40.1910   65.2440   63.7760 C   0  0  0  0  0  0  0  0  0  0  0  0
   40.5880   66.3210   64.5100 N   0  0  0  0  0  0  0  0  0  0  0  0
   41.0740   67.2780   63.7020 C   0  0  0  0  0  0  0  0  0  0  0  0
   41.5710   68.5170   64.0910 C   0  0  0  0  0  0  0  0  0  0  0  0
   42.4160   70.3310   63.3460 H   0  0  0  0  0  0  0  0  0  0  0  0
   41.3910   67.3140   60.4080 H   0  0  0  0  0  0  0  0  0  0  0  0
   40.2940   65.0190   61.6230 H   0  0  0  0  0  0  0  0  0  0  0  0
   39.7590   64.2860   63.9980 H   0  0  0  0  0  0  0  0  0  0  0  0
   41.6110   68.8270   65.1100 H   0  0  0  0  0  0  0  0  0  0  0  0
   40.3380   71.8600   57.1880 Cl  0  0  0  0  0  0  0  0  0  0  0  0
   40.5810   73.2370   58.2600 C   0  0  0  0  0  0  0  0  0  0  0  0
   41.4710   73.0870   59.2940 C   0  0  0  0  0  0  0  0  0  0  0  0
   41.5930   74.2180   60.1000 C   0  0  0  0  0  0  0  0  0  0  0  0
   40.9000   75.3910   59.8990 C   0  0  0  0  0  0  0  0  0  0  0  0
   40.0150   75.4740   58.8310 C   0  0  0  0  0  0  0  0  0  0  0  0
   39.1120   76.9350   58.5300 Cl  0  0  0  0  0  0  0  0  0  0  0  0
   39.8620   74.3840   58.0100 C   0  0  0  0  0  0  0  0  0  0  0  0
   42.2740   74.1850   60.9390 H   0  0  0  0  0  0  0  0  0  0  0  0
   41.0440   76.2300   60.5650 H   0  0  0  0  0  0  0  0  0  0  0  0
   38.9610   74.4460   56.9090 N   0  0  0  0  0  0  0  0  0  0  0  0
   39.4630   74.8700   55.6360 C   0  0  0  0  0  3  0  0  0  0  0  0
   40.0540   74.0800   55.1240 H   0  0  0  0  0  0  0  0  0  0  0  0
   38.2790   75.1870   54.7430 C   0  0  0  0  0  3  0  0  0  0  0  0
   38.5450   75.8720   53.9150 H   0  0  0  0  0  0  0  0  0  0  0  0
   37.2280   75.7460   55.4800 O   0  0  0  0  0  0  0  0  0  0  0  0
   36.6070   74.7780   56.2380 C   0  0  0  0  0  2  0  0  0  0  0  0
   37.5800   74.0700   57.1520 C   0  0  0  0  0  2  0  0  0  0  0  0
  1  6  1  0  0  0  0
  2  1  2  0  0  0  0
  2  3  1  0  0  0  0
  3  4  2  0  0  0  0
  4  5  1  0  0  0  0
  5 10  1  0  0  0  0
  6  5  2  0  0  0  0
  7  1  1  0  0  0  0
  8  2  1  0  0  0  0
  9 18  1  0  0  0  0
  9 17  1  0  0  0  0
 10  9  2  0  0  0  0
 11 10  1  0  0  0  0
 11 12  2  0  0  0  0
 12 13  1  0  0  0  0
 12 16  1  0  0  0  0
 13 14  1  0  0  0  0
 14 21  1  0  0  0  0
 14 15  2  0  0  0  0
 16 17  2  0  0  0  0
 16 15  1  0  0  0  0
 17 22  1  0  0  0  0
 19 11  1  0  0  0  0
 20 13  1  0  0  0  0
 23 24  1  0  0  0  0
 24 25  1  0  0  0  0
 25  3  1  0  0  0  0
 25 26  2  0  0  0  0
 26 31  1  0  0  0  0
 27 26  1  0  0  0  0
 27 32  1  0  0  0  0
 28 27  2  0  0  0  0
 29 28  1  0  0  0  0
 30 24  2  0  0  0  0
 30 28  1  0  0  0  0
 33 40  1  0  0  0  0
 33 30  1  0  0  0  0
 34 33  1  0  0  0  0
 35 34  1  0  0  0  0
 36 38  1  0  0  0  0
 36 34  1  0  0  0  0
 37 36  1  0  0  0  0
 38 39  1  0  0  0  0
 39 40  1  0  0  0  0
M  END
>  <minimizedAffinity>
-6.7864213

$$$$

 OpenBabel03212520063D

 40 44  0  0  0  0  0  0  0  0999 V2000
   44.1090   69.5890   58.7290 C   0  0  0  0  0  0  0  0  0  0  0  0
   43.4040   70.7270   58.3010 C   0  0  0  0  0  0  0  0  0  0  0  0
   42.2470   71.0410   58.9710 C   0  0  0  0  0  0  0  0  0  0  0  0
   41.8210   70.2650   60.0110 N   0  0  0  0  0  0  0  0  0  0  0  0
   42.5290   69.1730   60.4000 C   0  0  0  0  0  0  0  0  0  0  0  0
   43.6790   68.8250   59.7610 N   0  0  0  0  0  0  0  0  0  0  0  0
   45.0290   69.2200   58.2990 H   0  0  0  0  0  0  0  0  0  0  0  0
   43.9410   71.1900   57.5110 H   0  0  0  0  0  0  0  0  0  0  0  0
   42.4950   68.7700   62.8100 C   0  0  0  0  0  0  0  0  0  0  0  0
   42.0900   68.3720   61.5340 C   0  0  0  0  0  0  0  0  0  0  0  0
   41.2700   67.2590   61.3430 C   0  0  0  0  0  0  0  0  0  0  0  0
   40.8270   66.5060   62.4190 C   0  0  0  0  0  0  0  0  0  0  0  0
   40.0620   65.4230   62.6220 N   0  0  0  0  0  0  0  0  0  0  0  0
   39.9710   65.1320   63.9260 C   0  0  0  0  0  0  0  0  0  0  0  0
   40.7190   66.0850   64.5510 N   0  0  0  0  0  0  0  0  0  0  0  0
   41.2450   66.9280   63.6470 C   0  0  0  0  0  0  0  0  0  0  0  0
   42.0600   68.0220   63.9110 C   0  0  0  0  0  0  0  0  0  0  0  0
   43.1270   69.6230   62.9840 H   0  0  0  0  0  0  0  0  0  0  0  0
   40.9560   66.9510   60.3500 H   0  0  0  0  0  0  0  0  0  0  0  0
   39.6290   64.9280   61.7960 H   0  0  0  0  0  0  0  0  0  0  0  0
   39.3890   64.2870   64.2440 H   0  0  0  0  0  0  0  0  0  0  0  0
   42.3500   68.2980   64.8980 H   0  0  0  0  0  0  0  0  0  0  0  0
   42.6210   73.4860   60.6310 Cl  0  0  0  0  0  0  0  0  0  0  0  0
   41.5190   73.3820   59.2610 C   0  0  0  0  0  0  0  0  0  0  0  0
   41.4560   72.1890   58.5860 C   0  0  0  0  0  0  0  0  0  0  0  0
   40.5720   72.1960   57.5090 C   0  0  0  0  0  0  0  0  0  0  0  0
   39.8170   73.2860   57.1340 C   0  0  0  0  0  0  0  0  0  0  0  0
   39.9300   74.4640   57.8630 C   0  0  0  0  0  0  0  0  0  0  0  0
   38.9980   75.8740   57.4330 Cl  0  0  0  0  0  0  0  0  0  0  0  0
   40.7900   74.5030   58.9320 C   0  0  0  0  0  0  0  0  0  0  0  0
   40.4610   71.2950   56.9220 H   0  0  0  0  0  0  0  0  0  0  0  0
   39.1500   73.2210   56.2870 H   0  0  0  0  0  0  0  0  0  0  0  0
   40.9220   75.6980   59.6940 N   0  0  0  0  0  0  0  0  0  0  0  0
   39.9450   75.9800   60.7030 C   0  0  0  0  0  3  0  0  0  0  0  0
   40.0870   75.3660   61.6200 H   0  0  0  0  0  0  0  0  0  0  0  0
   40.0950   77.4310   61.1150 C   0  0  0  0  0  3  0  0  0  0  0  0
   39.1730   77.8380   61.5750 H   0  0  0  0  0  0  0  0  0  0  0  0
   40.4520   78.2300   60.0220 O   0  0  0  0  0  0  0  0  0  0  0  0
   41.7710   78.0190   59.6850 C   0  0  0  0  0  2  0  0  0  0  0  0
   42.0490   76.5620   59.3940 C   0  0  0  0  0  2  0  0  0  0  0  0
  1  6  1  0  0  0  0
  2  1  2  0  0  0  0
  2  3  1  0  0  0  0
  3  4  2  0  0  0  0
  4  5  1  0  0  0  0
  5 10  1  0  0  0  0
  6  5  2  0  0  0  0
  7  1  1  0  0  0  0
  8  2  1  0  0  0  0
  9 18  1  0  0  0  0
  9 17  1  0  0  0  0
 10  9  2  0  0  0  0
 11 10  1  0  0  0  0
 11 12  2  0  0  0  0
 12 13  1  0  0  0  0
 12 16  1  0  0  0  0
 13 14  1  0  0  0  0
 14 21  1  0  0  0  0
 14 15  2  0  0  0  0
 16 17  2  0  0  0  0
 16 15  1  0  0  0  0
 17 22  1  0  0  0  0
 19 11  1  0  0  0  0
 20 13  1  0  0  0  0
 24 23  1  0  0  0  0
 25  3  1  0  0  0  0
 25 24  2  0  0  0  0
 26 25  1  0  0  0  0
 27 26  2  0  0  0  0
 27 28  1  0  0  0  0
 28 30  2  0  0  0  0
 29 28  1  0  0  0  0
 30 24  1  0  0  0  0
 30 33  1  0  0  0  0
 31 26  1  0  0  0  0
 32 27  1  0  0  0  0
 33 34  1  0  0  0  0
 34 36  1  0  0  0  0
 34 35  1  0  0  0  0
 36 37  1  0  0  0  0
 38 36  1  0  0  0  0
 39 38  1  0  0  0  0
 40 39  1  0  0  0  0
 40 33  1  0  0  0  0
M  END
>  <minimizedAffinity>
-6.76035738

$$$$

 OpenBabel03212520063D

 40 44  0  0  0  0  0  0  0  0999 V2000
   42.6910   72.4690   62.4560 C   0  0  0  0  0  0  0  0  0  0  0  0
   42.4230   73.0700   61.2140 C   0  0  0  0  0  0  0  0  0  0  0  0
   41.9130   72.2680   60.2220 C   0  0  0  0  0  0  0  0  0  0  0  0
   41.6800   70.9430   60.4600 N   0  0  0  0  0  0  0  0  0  0  0  0
   41.9470   70.3960   61.6750 C   0  0  0  0  0  0  0  0  0  0  0  0
   42.4570   71.1550   62.6830 N   0  0  0  0  0  0  0  0  0  0  0  0
   43.0940   72.9710   63.3240 H   0  0  0  0  0  0  0  0  0  0  0  0
   42.6440   74.1060   61.2760 H   0  0  0  0  0  0  0  0  0  0  0  0
   41.8850   68.0800   60.9000 C   0  0  0  0  0  0  0  0  0  0  0  0
   41.6600   68.9920   61.9330 C   0  0  0  0  0  0  0  0  0  0  0  0
   41.1960   68.5790   63.1830 C   0  0  0  0  0  0  0  0  0  0  0  0
   40.9430   67.2420   63.4440 C   0  0  0  0  0  0  0  0  0  0  0  0
   40.5140   66.4980   64.4740 N   0  0  0  0  0  0  0  0  0  0  0  0
   40.4620   65.2010   64.1450 C   0  0  0  0  0  0  0  0  0  0  0  0
   40.8800   65.1500   62.8490 N   0  0  0  0  0  0  0  0  0  0  0  0
   41.1760   66.3840   62.4100 C   0  0  0  0  0  0  0  0  0  0  0  0
   41.6350   66.7240   61.1420 C   0  0  0  0  0  0  0  0  0  0  0  0
   42.2410   68.3730   59.9280 H   0  0  0  0  0  0  0  0  0  0  0  0
   41.0210   69.2910   63.9850 H   0  0  0  0  0  0  0  0  0  0  0  0
   40.2710   66.9650   65.3890 H   0  0  0  0  0  0  0  0  0  0  0  0
   40.1340   64.4800   64.8710 H   0  0  0  0  0  0  0  0  0  0  0  0
   41.7960   66.0010   60.3760 H   0  0  0  0  0  0  0  0  0  0  0  0
   39.2930   73.6590   59.9480 Cl  0  0  0  0  0  0  0  0  0  0  0  0
   40.4510   73.4660   58.6350 C   0  0  0  0  0  0  0  0  0  0  0  0
   41.6210   72.8050   58.9120 C   0  0  0  0  0  0  0  0  0  0  0  0
   42.4860   72.7080   57.8240 C   0  0  0  0  0  0  0  0  0  0  0  0
   42.2160   73.2190   56.5730 C   0  0  0  0  0  0  0  0  0  0  0  0
   41.0110   73.8780   56.3610 C   0  0  0  0  0  0  0  0  0  0  0  0
   40.6190   74.5430   54.7980 Cl  0  0  0  0  0  0  0  0  0  0  0  0
   40.1280   73.9970   57.4060 C   0  0  0  0  0  0  0  0  0  0  0  0
   43.4310   72.2020   57.9550 H   0  0  0  0  0  0  0  0  0  0  0  0
   42.9340   73.1080   55.7730 H   0  0  0  0  0  0  0  0  0  0  0  0
   38.8870   74.6670   57.2130 N   0  0  0  0  0  0  0  0  0  0  0  0
   37.7460   73.8960   56.8180 C   0  0  0  0  0  3  0  0  0  0  0  0
   37.3130   73.3100   57.6580 H   0  0  0  0  0  0  0  0  0  0  0  0
   36.6700   74.8540   56.3450 C   0  0  0  0  0  3  0  0  0  0  0  0
   35.9350   74.3670   55.6740 H   0  0  0  0  0  0  0  0  0  0  0  0
   37.2300   75.9550   55.6860 O   0  0  0  0  0  0  0  0  0  0  0  0
   37.8190   76.8080   56.5950 C   0  0  0  0  0  2  0  0  0  0  0  0
   38.8600   76.1020   57.4330 C   0  0  0  0  0  2  0  0  0  0  0  0
  1  6  1  0  0  0  0
  1  7  1  0  0  0  0
  2  8  1  0  0  0  0
  2  1  2  0  0  0  0
  3  4  2  0  0  0  0
  3  2  1  0  0  0  0
  4  5  1  0  0  0  0
  5 10  1  0  0  0  0
  5  6  2  0  0  0  0
  9 17  2  0  0  0  0
  9 10  1  0  0  0  0
 10 11  2  0  0  0  0
 11 12  1  0  0  0  0
 11 19  1  0  0  0  0
 12 13  1  0  0  0  0
 13 20  1  0  0  0  0
 14 13  1  0  0  0  0
 14 21  1  0  0  0  0
 15 14  2  0  0  0  0
 16 15  1  0  0  0  0
 16 12  2  0  0  0  0
 17 16  1  0  0  0  0
 18  9  1  0  0  0  0
 22 17  1  0  0  0  0
 24 25  1  0  0  0  0
 24 23  1  0  0  0  0
 25  3  1  0  0  0  0
 26 31  1  0  0  0  0
 26 25  2  0  0  0  0
 27 26  1  0  0  0  0
 28 27  2  0  0  0  0
 28 30  1  0  0  0  0
 29 28  1  0  0  0  0
 30 24  2  0  0  0  0
 32 27  1  0  0  0  0
 33 30  1  0  0  0  0
 33 40  1  0  0  0  0
 34 33  1  0  0  0  0
 34 35  1  0  0  0  0
 36 34  1  0  0  0  0
 37 36  1  0  0  0  0
 38 36  1  0  0  0  0
 38 39  1  0  0  0  0
 39 40  1  0  0  0  0
M  END
>  <minimizedAffinity>
-6.75453424

$$$$

 OpenBabel03212520063D

 40 44  0  0  0  0  0  0  0  0999 V2000
   44.3180   73.5910   58.3440 C   0  0  0  0  0  0  0  0  0  0  0  0
   44.0300   72.5670   59.2640 C   0  0  0  0  0  0  0  0  0  0  0  0
   42.8840   72.6920   60.0090 C   0  0  0  0  0  0  0  0  0  0  0  0
   42.0690   73.7760   59.8410 N   0  0  0  0  0  0  0  0  0  0  0  0
   42.3750   74.7450   58.9400 C   0  0  0  0  0  0  0  0  0  0  0  0
   43.5040   74.6620   58.1840 N   0  0  0  0  0  0  0  0  0  0  0  0
   45.1800   73.6300   57.6940 H   0  0  0  0  0  0  0  0  0  0  0  0
   44.7780   71.8170   59.1910 H   0  0  0  0  0  0  0  0  0  0  0  0
   41.0140   76.5480   59.8720 C   0  0  0  0  0  0  0  0  0  0  0  0
   41.4820   75.8770   58.7400 C   0  0  0  0  0  0  0  0  0  0  0  0
   41.1280   76.2860   57.4520 C   0  0  0  0  0  0  0  0  0  0  0  0
   40.2980   77.3770   57.2530 C   0  0  0  0  0  0  0  0  0  0  0  0
   39.7660   78.0390   56.2150 N   0  0  0  0  0  0  0  0  0  0  0  0
   39.0090   79.0630   56.6320 C   0  0  0  0  0  0  0  0  0  0  0  0
   39.0830   79.0240   57.9920 N   0  0  0  0  0  0  0  0  0  0  0  0
   39.8640   78.0030   58.3840 C   0  0  0  0  0  0  0  0  0  0  0  0
   40.1730   77.6520   59.6930 C   0  0  0  0  0  0  0  0  0  0  0  0
   41.2710   76.2530   60.8750 H   0  0  0  0  0  0  0  0  0  0  0  0
   41.4930   75.7630   56.5730 H   0  0  0  0  0  0  0  0  0  0  0  0
   39.9730   77.7190   55.2300 H   0  0  0  0  0  0  0  0  0  0  0  0
   38.5150   79.6880   55.9110 H   0  0  0  0  0  0  0  0  0  0  0  0
   39.7980   78.1860   60.5350 H   0  0  0  0  0  0  0  0  0  0  0  0
   43.2180   69.8610   59.1430 Cl  0  0  0  0  0  0  0  0  0  0  0  0
   42.6190   70.3460   60.7270 C   0  0  0  0  0  0  0  0  0  0  0  0
   42.5220   71.6900   60.9860 C   0  0  0  0  0  0  0  0  0  0  0  0
   42.0530   71.9860   62.2640 C   0  0  0  0  0  0  0  0  0  0  0  0
   41.7080   71.0360   63.2010 C   0  0  0  0  0  0  0  0  0  0  0  0
   41.8300   69.6920   62.8720 C   0  0  0  0  0  0  0  0  0  0  0  0
   41.4090   68.4490   64.0200 Cl  0  0  0  0  0  0  0  0  0  0  0  0
   42.2900   69.3540   61.6230 C   0  0  0  0  0  0  0  0  0  0  0  0
   41.9460   73.0220   62.5510 H   0  0  0  0  0  0  0  0  0  0  0  0
   41.3510   71.3370   64.1750 H   0  0  0  0  0  0  0  0  0  0  0  0
   42.4230   67.9830   61.2630 N   0  0  0  0  0  0  0  0  0  0  0  0
   41.3420   67.3490   60.5680 C   0  0  0  0  0  3  0  0  0  0  0  0
   41.2930   67.6380   59.4950 H   0  0  0  0  0  0  0  0  0  0  0  0
   41.5660   65.8500   60.6130 C   0  0  0  0  0  3  0  0  0  0  0  0
   40.6300   65.2770   60.4620 H   0  0  0  0  0  0  0  0  0  0  0  0
   42.1490   65.4630   61.8250 O   0  0  0  0  0  0  0  0  0  0  0  0
   43.4770   65.8290   61.8560 C   0  0  0  0  0  2  0  0  0  0  0  0
   43.6570   67.3120   61.6270 C   0  0  0  0  0  2  0  0  0  0  0  0
  1  2  1  0  0  0  0
  2  3  2  0  0  0  0
  3 25  1  0  0  0  0
  4  3  1  0  0  0  0
  5  4  2  0  0  0  0
  6  1  2  0  0  0  0
  6  5  1  0  0  0  0
  7  1  1  0  0  0  0
  8  2  1  0  0  0  0
  9 18  1  0  0  0  0
 10  5  1  0  0  0  0
 10  9  2  0  0  0  0
 11 10  1  0  0  0  0
 12 11  2  0  0  0  0
 12 16  1  0  0  0  0
 13 14  1  0  0  0  0
 13 12  1  0  0  0  0
 14 15  2  0  0  0  0
 15 16  1  0  0  0  0
 16 17  2  0  0  0  0
 17  9  1  0  0  0  0
 17 22  1  0  0  0  0
 19 11  1  0  0  0  0
 20 13  1  0  0  0  0
 21 14  1  0  0  0  0
 23 24  1  0  0  0  0
 24 25  2  0  0  0  0
 24 30  1  0  0  0  0
 25 26  1  0  0  0  0
 26 31  1  0  0  0  0
 26 27  2  0  0  0  0
 27 32  1  0  0  0  0
 28 27  1  0  0  0  0
 28 29  1  0  0  0  0
 30 28  2  0  0  0  0
 33 30  1  0  0  0  0
 33 40  1  0  0  0  0
 34 36  1  0  0  0  0
 34 33  1  0  0  0  0
 35 34  1  0  0  0  0
 36 38  1  0  0  0  0
 37 36  1  0  0  0  0
 38 39  1  0  0  0  0
 40 39  1  0  0  0  0
M  END
>  <minimizedAffinity>
-6.72954893

$$$$
