
 OpenBabel03212520033D

 40 44  0  0  0  0  0  0  0  0999 V2000
   40.6740   81.8160   57.0900 C   0  0  0  0  0  0  0  0  0  0  0  0
   41.7660   82.3660   56.3970 C   0  0  0  0  0  0  0  0  0  0  0  0
   42.5690   83.2460   57.0800 C   0  0  0  0  0  0  0  0  0  0  0  0
   42.2980   83.5560   58.3820 N   0  0  0  0  0  0  0  0  0  0  0  0
   41.2350   83.0030   59.0230 C   0  0  0  0  0  0  0  0  0  0  0  0
   40.4130   82.1290   58.3810 N   0  0  0  0  0  0  0  0  0  0  0  0
   39.9590   81.1150   56.6840 H   0  0  0  0  0  0  0  0  0  0  0  0
   41.7990   81.9520   55.4190 H   0  0  0  0  0  0  0  0  0  0  0  0
   39.6790   83.1130   60.9050 C   0  0  0  0  0  0  0  0  0  0  0  0
   40.9750   83.3080   60.4230 C   0  0  0  0  0  0  0  0  0  0  0  0
   42.0020   83.7600   61.2550 C   0  0  0  0  0  0  0  0  0  0  0  0
   41.7690   84.0300   62.5940 C   0  0  0  0  0  0  0  0  0  0  0  0
   42.4710   84.4550   63.6550 N   0  0  0  0  0  0  0  0  0  0  0  0
   41.6980   84.5330   64.7450 C   0  0  0  0  0  0  0  0  0  0  0  0
   40.4620   84.1350   64.3300 N   0  0  0  0  0  0  0  0  0  0  0  0
   40.4910   83.8260   63.0230 C   0  0  0  0  0  0  0  0  0  0  0  0
   39.4220   83.3810   62.2540 C   0  0  0  0  0  0  0  0  0  0  0  0
   38.8710   82.7670   60.2840 H   0  0  0  0  0  0  0  0  0  0  0  0
   43.0090   83.9110   60.8780 H   0  0  0  0  0  0  0  0  0  0  0  0
   43.4970   84.6770   63.5460 H   0  0  0  0  0  0  0  0  0  0  0  0
   42.1220   84.8600   65.6770 H   0  0  0  0  0  0  0  0  0  0  0  0
   38.4440   83.2430   62.6540 H   0  0  0  0  0  0  0  0  0  0  0  0
   42.4250   83.4460   54.1110 Cl  0  0  0  0  0  0  0  0  0  0  0  0
   43.7810   84.0210   55.0750 C   0  0  0  0  0  0  0  0  0  0  0  0
   43.7060   83.8650   56.4360 C   0  0  0  0  0  0  0  0  0  0  0  0
   44.8130   84.3590   57.1230 C   0  0  0  0  0  0  0  0  0  0  0  0
   45.8990   84.9530   56.5170 C   0  0  0  0  0  0  0  0  0  0  0  0
   45.9100   85.0780   55.1340 C   0  0  0  0  0  0  0  0  0  0  0  0
   47.2590   85.8210   54.3150 Cl  0  0  0  0  0  0  0  0  0  0  0  0
   44.8400   84.6060   54.4150 C   0  0  0  0  0  0  0  0  0  0  0  0
   44.8340   84.2760   58.2000 H   0  0  0  0  0  0  0  0  0  0  0  0
   46.7240   85.3140   57.1130 H   0  0  0  0  0  0  0  0  0  0  0  0
   44.8290   84.7230   52.9960 N   0  0  0  0  0  0  0  0  0  0  0  0
   44.3280   85.9310   52.4120 C   0  0  0  0  0  3  0  0  0  0  0  0
   45.0480   86.7750   52.4880 H   0  0  0  0  0  0  0  0  0  0  0  0
   44.0940   85.6800   50.9350 C   0  0  0  0  0  3  0  0  0  0  0  0
   43.3660   86.3890   50.4950 H   0  0  0  0  0  0  0  0  0  0  0  0
   43.6500   84.3710   50.7110 O   0  0  0  0  0  0  0  0  0  0  0  0
   44.6900   83.4800   50.8660 C   0  0  0  0  0  2  0  0  0  0  0  0
   45.3320   83.5990   52.2290 C   0  0  0  0  0  2  0  0  0  0  0  0
  1  6  1  0  0  0  0
  2  3  1  0  0  0  0
  2  1  2  0  0  0  0
  3  4  2  0  0  0  0
  4  5  1  0  0  0  0
  5 10  1  0  0  0  0
  6  5  2  0  0  0  0
  7  1  1  0  0  0  0
  8  2  1  0  0  0  0
  9 17  1  0  0  0  0
 10  9  2  0  0  0  0
 10 11  1  0  0  0  0
 11 12  2  0  0  0  0
 12 16  1  0  0  0  0
 12 13  1  0  0  0  0
 13 14  1  0  0  0  0
 14 21  1  0  0  0  0
 15 14  2  0  0  0  0
 16 15  1  0  0  0  0
 17 22  1  0  0  0  0
 17 16  2  0  0  0  0
 18  9  1  0  0  0  0
 19 11  1  0  0  0  0
 20 13  1  0  0  0  0
 23 24  1  0  0  0  0
 24 25  1  0  0  0  0
 25  3  1  0  0  0  0
 25 26  2  0  0  0  0
 26 31  1  0  0  0  0
 27 32  1  0  0  0  0
 27 26  1  0  0  0  0
 28 27  2  0  0  0  0
 29 28  1  0  0  0  0
 30 24  2  0  0  0  0
 30 28  1  0  0  0  0
 33 30  1  0  0  0  0
 34 35  1  0  0  0  0
 34 33  1  0  0  0  0
 36 34  1  0  0  0  0
 37 36  1  0  0  0  0
 38 39  1  0  0  0  0
 38 36  1  0  0  0  0
 39 40  1  0  0  0  0
 40 33  1  0  0  0  0
M  END
>  <minimizedAffinity>
-5.07306099

>  <minimizedRMSD>
0.717055321

$$$$
