
 OpenBabel03212520043D

 40 44  0  0  0  0  0  0  0  0999 V2000
   40.6620   81.8280   57.0970 C   0  0  0  0  0  0  0  0  0  0  0  0
   41.7340   82.4060   56.3950 C   0  0  0  0  0  0  0  0  0  0  0  0
   42.5210   83.3050   57.0720 C   0  0  0  0  0  0  0  0  0  0  0  0
   42.2540   83.6050   58.3780 N   0  0  0  0  0  0  0  0  0  0  0  0
   41.2110   83.0250   59.0280 C   0  0  0  0  0  0  0  0  0  0  0  0
   40.4050   82.1320   58.3920 N   0  0  0  0  0  0  0  0  0  0  0  0
   39.9610   81.1100   56.6970 H   0  0  0  0  0  0  0  0  0  0  0  0
   41.7680   81.9950   55.4170 H   0  0  0  0  0  0  0  0  0  0  0  0
   39.6650   83.1130   60.9180 C   0  0  0  0  0  0  0  0  0  0  0  0
   40.9570   83.3220   60.4300 C   0  0  0  0  0  0  0  0  0  0  0  0
   41.9840   83.7780   61.2580 C   0  0  0  0  0  0  0  0  0  0  0  0
   41.7560   84.0390   62.6000 C   0  0  0  0  0  0  0  0  0  0  0  0
   42.4610   84.4660   63.6590 N   0  0  0  0  0  0  0  0  0  0  0  0
   41.6930   84.5320   64.7540 C   0  0  0  0  0  0  0  0  0  0  0  0
   40.4590   84.1250   64.3440 N   0  0  0  0  0  0  0  0  0  0  0  0
   40.4830   83.8220   63.0350 C   0  0  0  0  0  0  0  0  0  0  0  0
   39.4130   83.3720   62.2700 C   0  0  0  0  0  0  0  0  0  0  0  0
   38.8560   82.7630   60.3010 H   0  0  0  0  0  0  0  0  0  0  0  0
   42.9880   83.9400   60.8760 H   0  0  0  0  0  0  0  0  0  0  0  0
   43.4840   84.6970   63.5460 H   0  0  0  0  0  0  0  0  0  0  0  0
   42.1200   84.8590   65.6850 H   0  0  0  0  0  0  0  0  0  0  0  0
   38.4390   83.2230   62.6750 H   0  0  0  0  0  0  0  0  0  0  0  0
   42.4490   83.3150   54.0940 Cl  0  0  0  0  0  0  0  0  0  0  0  0
   43.7410   84.0310   55.0540 C   0  0  0  0  0  0  0  0  0  0  0  0
   43.6360   83.9530   56.4200 C   0  0  0  0  0  0  0  0  0  0  0  0
   44.6910   84.5560   57.1020 C   0  0  0  0  0  0  0  0  0  0  0  0
   45.7560   85.1780   56.4870 C   0  0  0  0  0  0  0  0  0  0  0  0
   45.7990   85.2200   55.0990 C   0  0  0  0  0  0  0  0  0  0  0  0
   47.1230   85.9950   54.2690 Cl  0  0  0  0  0  0  0  0  0  0  0  0
   44.7800   84.6400   54.3850 C   0  0  0  0  0  0  0  0  0  0  0  0
   44.6870   84.5400   58.1820 H   0  0  0  0  0  0  0  0  0  0  0  0
   46.5410   85.6250   57.0790 H   0  0  0  0  0  0  0  0  0  0  0  0
   44.8020   84.6700   52.9620 N   0  0  0  0  0  0  0  0  0  0  0  0
   45.3840   83.5610   52.2620 C   0  0  0  0  0  3  0  0  0  0  0  0
   44.7190   82.6710   52.2450 H   0  0  0  0  0  0  0  0  0  0  0  0
   45.6040   83.9770   50.8210 C   0  0  0  0  0  3  0  0  0  0  0  0
   46.3790   83.3640   50.3180 H   0  0  0  0  0  0  0  0  0  0  0  0
   45.9640   85.3280   50.7360 O   0  0  0  0  0  0  0  0  0  0  0  0
   44.8690   86.1300   50.9700 C   0  0  0  0  0  2  0  0  0  0  0  0
   44.2300   85.8310   52.3080 C   0  0  0  0  0  2  0  0  0  0  0  0
  1  6  1  0  0  0  0
  2  3  1  0  0  0  0
  2  1  2  0  0  0  0
  3  4  2  0  0  0  0
  4  5  1  0  0  0  0
  5 10  1  0  0  0  0
  6  5  2  0  0  0  0
  7  1  1  0  0  0  0
  8  2  1  0  0  0  0
  9 17  1  0  0  0  0
 10  9  2  0  0  0  0
 10 11  1  0  0  0  0
 11 12  2  0  0  0  0
 12 16  1  0  0  0  0
 12 13  1  0  0  0  0
 13 14  1  0  0  0  0
 14 21  1  0  0  0  0
 15 14  2  0  0  0  0
 16 15  1  0  0  0  0
 17 22  1  0  0  0  0
 17 16  2  0  0  0  0
 18  9  1  0  0  0  0
 19 11  1  0  0  0  0
 20 13  1  0  0  0  0
 23 24  1  0  0  0  0
 24 25  1  0  0  0  0
 25  3  1  0  0  0  0
 25 26  2  0  0  0  0
 26 31  1  0  0  0  0
 27 32  1  0  0  0  0
 27 26  1  0  0  0  0
 28 27  2  0  0  0  0
 29 28  1  0  0  0  0
 30 24  2  0  0  0  0
 30 28  1  0  0  0  0
 33 30  1  0  0  0  0
 34 33  1  0  0  0  0
 35 34  1  0  0  0  0
 36 34  1  0  0  0  0
 37 36  1  0  0  0  0
 38 36  1  0  0  0  0
 38 39  1  0  0  0  0
 39 40  1  0  0  0  0
 40 33  1  0  0  0  0
M  END
>  <minimizedAffinity>
-5.06522846

>  <minimizedRMSD>
0.52569586

$$$$
