
 OpenBabel03212520043D

 40 44  0  0  0  0  0  0  0  0999 V2000
   40.5950   81.7020   57.1390 C   0  0  0  0  0  0  0  0  0  0  0  0
   41.7760   82.0800   56.4770 C   0  0  0  0  0  0  0  0  0  0  0  0
   42.6710   82.8540   57.1750 C   0  0  0  0  0  0  0  0  0  0  0  0
   42.4030   83.2230   58.4630 N   0  0  0  0  0  0  0  0  0  0  0  0
   41.2530   82.8360   59.0740 C   0  0  0  0  0  0  0  0  0  0  0  0
   40.3380   82.0730   58.4160 N   0  0  0  0  0  0  0  0  0  0  0  0
   39.8030   81.0990   56.7190 H   0  0  0  0  0  0  0  0  0  0  0  0
   41.7830   81.6480   55.5080 H   0  0  0  0  0  0  0  0  0  0  0  0
   39.6840   83.0810   60.9310 C   0  0  0  0  0  0  0  0  0  0  0  0
   40.9920   83.2020   60.4590 C   0  0  0  0  0  0  0  0  0  0  0  0
   42.0290   83.6370   61.2860 C   0  0  0  0  0  0  0  0  0  0  0  0
   41.7940   83.9640   62.6120 C   0  0  0  0  0  0  0  0  0  0  0  0
   42.5040   84.3950   63.6660 N   0  0  0  0  0  0  0  0  0  0  0  0
   41.7230   84.5450   64.7440 C   0  0  0  0  0  0  0  0  0  0  0  0
   40.4760   84.1880   64.3280 N   0  0  0  0  0  0  0  0  0  0  0  0
   40.5040   83.8320   63.0330 C   0  0  0  0  0  0  0  0  0  0  0  0
   39.4250   83.4080   62.2670 C   0  0  0  0  0  0  0  0  0  0  0  0
   38.8670   82.7500   60.3140 H   0  0  0  0  0  0  0  0  0  0  0  0
   43.0460   83.7300   60.9160 H   0  0  0  0  0  0  0  0  0  0  0  0
   43.5400   84.5680   63.5620 H   0  0  0  0  0  0  0  0  0  0  0  0
   42.1520   84.8870   65.6690 H   0  0  0  0  0  0  0  0  0  0  0  0
   38.4370   83.3270   62.6600 H   0  0  0  0  0  0  0  0  0  0  0  0
   42.4550   83.7720   54.3490 Cl  0  0  0  0  0  0  0  0  0  0  0  0
   43.9590   83.7420   55.2660 C   0  0  0  0  0  0  0  0  0  0  0  0
   43.9030   83.2960   56.5630 C   0  0  0  0  0  0  0  0  0  0  0  0
   45.1320   83.3170   57.2200 C   0  0  0  0  0  0  0  0  0  0  0  0
   46.3110   83.7390   56.6440 C   0  0  0  0  0  0  0  0  0  0  0  0
   46.2950   84.1780   55.3260 C   0  0  0  0  0  0  0  0  0  0  0  0
   47.7580   84.7230   54.5480 Cl  0  0  0  0  0  0  0  0  0  0  0  0
   45.1060   84.1750   54.6400 C   0  0  0  0  0  0  0  0  0  0  0  0
   45.1780   82.9810   58.2460 H   0  0  0  0  0  0  0  0  0  0  0  0
   47.2290   83.7290   57.2130 H   0  0  0  0  0  0  0  0  0  0  0  0
   45.0650   84.6200   53.2870 N   0  0  0  0  0  0  0  0  0  0  0  0
   44.8910   86.0190   53.0310 C   0  0  0  0  0  3  0  0  0  0  0  0
   45.8190   86.6050   53.2080 H   0  0  0  0  0  0  0  0  0  0  0  0
   44.5320   86.1900   51.5690 C   0  0  0  0  0  3  0  0  0  0  0  0
   44.0090   87.1470   51.3700 H   0  0  0  0  0  0  0  0  0  0  0  0
   43.7340   85.1300   51.1190 O   0  0  0  0  0  0  0  0  0  0  0  0
   44.4930   83.9910   50.9680 C   0  0  0  0  0  2  0  0  0  0  0  0
   45.2030   83.6170   52.2490 C   0  0  0  0  0  2  0  0  0  0  0  0
  1  6  1  0  0  0  0
  2  1  2  0  0  0  0
  2  3  1  0  0  0  0
  3  4  2  0  0  0  0
  4  5  1  0  0  0  0
  5 10  1  0  0  0  0
  6  5  2  0  0  0  0
  7  1  1  0  0  0  0
  8  2  1  0  0  0  0
  9 17  1  0  0  0  0
 10  9  2  0  0  0  0
 10 11  1  0  0  0  0
 11 12  2  0  0  0  0
 12 16  1  0  0  0  0
 12 13  1  0  0  0  0
 13 14  1  0  0  0  0
 14 21  1  0  0  0  0
 15 14  2  0  0  0  0
 16 15  1  0  0  0  0
 17 22  1  0  0  0  0
 17 16  2  0  0  0  0
 18  9  1  0  0  0  0
 19 11  1  0  0  0  0
 20 13  1  0  0  0  0
 23 24  1  0  0  0  0
 24 25  1  0  0  0  0
 25  3  1  0  0  0  0
 25 26  2  0  0  0  0
 26 31  1  0  0  0  0
 27 32  1  0  0  0  0
 27 26  1  0  0  0  0
 28 27  2  0  0  0  0
 29 28  1  0  0  0  0
 30 24  2  0  0  0  0
 30 28  1  0  0  0  0
 33 30  1  0  0  0  0
 34 35  1  0  0  0  0
 34 33  1  0  0  0  0
 36 34  1  0  0  0  0
 37 36  1  0  0  0  0
 38 36  1  0  0  0  0
 39 38  1  0  0  0  0
 39 40  1  0  0  0  0
 40 33  1  0  0  0  0
M  END
>  <minimizedAffinity>
-4.82151413

>  <minimizedRMSD>
0.806619346

$$$$
