
 OpenBabel03212520033D

 40 44  0  0  0  0  0  0  0  0999 V2000
   41.0900   82.1070   57.1060 C   0  0  0  0  0  0  0  0  0  0  0  0
   42.2920   82.6010   56.5680 C   0  0  0  0  0  0  0  0  0  0  0  0
   43.0780   83.3750   57.3850 C   0  0  0  0  0  0  0  0  0  0  0  0
   42.6880   83.6380   58.6680 N   0  0  0  0  0  0  0  0  0  0  0  0
   41.5220   83.1420   59.1570 C   0  0  0  0  0  0  0  0  0  0  0  0
   40.7120   82.3730   58.3790 N   0  0  0  0  0  0  0  0  0  0  0  0
   40.3740   81.4900   56.5850 H   0  0  0  0  0  0  0  0  0  0  0  0
   42.4010   82.2370   55.5770 H   0  0  0  0  0  0  0  0  0  0  0  0
   39.8100   83.1300   60.9010 C   0  0  0  0  0  0  0  0  0  0  0  0
   41.1320   83.3950   60.5370 C   0  0  0  0  0  0  0  0  0  0  0  0
   42.0640   83.8640   61.4640 C   0  0  0  0  0  0  0  0  0  0  0  0
   41.7080   84.0840   62.7850 C   0  0  0  0  0  0  0  0  0  0  0  0
   42.2980   84.5080   63.9130 N   0  0  0  0  0  0  0  0  0  0  0  0
   41.4340   84.5200   64.9350 C   0  0  0  0  0  0  0  0  0  0  0  0
   40.2570   84.0830   64.4060 N   0  0  0  0  0  0  0  0  0  0  0  0
   40.4090   83.8130   63.0990 C   0  0  0  0  0  0  0  0  0  0  0  0
   39.4290   83.3470   62.2300 C   0  0  0  0  0  0  0  0  0  0  0  0
   39.0730   82.7690   60.2050 H   0  0  0  0  0  0  0  0  0  0  0  0
   43.0920   84.0690   61.1780 H   0  0  0  0  0  0  0  0  0  0  0  0
   43.3190   84.7760   63.8970 H   0  0  0  0  0  0  0  0  0  0  0  0
   41.7630   84.8380   65.9080 H   0  0  0  0  0  0  0  0  0  0  0  0
   38.4280   83.1550   62.5410 H   0  0  0  0  0  0  0  0  0  0  0  0
   45.4090   83.1060   59.2210 Cl  0  0  0  0  0  0  0  0  0  0  0  0
   45.4790   83.8860   57.6430 C   0  0  0  0  0  0  0  0  0  0  0  0
   44.3230   83.9320   56.9050 C   0  0  0  0  0  0  0  0  0  0  0  0
   44.4690   84.5530   55.6660 C   0  0  0  0  0  0  0  0  0  0  0  0
   45.6520   85.0830   55.2000 C   0  0  0  0  0  0  0  0  0  0  0  0
   46.7850   85.0030   56.0010 C   0  0  0  0  0  0  0  0  0  0  0  0
   48.3090   85.6580   55.4610 Cl  0  0  0  0  0  0  0  0  0  0  0  0
   46.6880   84.3980   57.2300 C   0  0  0  0  0  0  0  0  0  0  0  0
   43.6060   84.6320   55.0200 H   0  0  0  0  0  0  0  0  0  0  0  0
   45.6940   85.5520   54.2280 H   0  0  0  0  0  0  0  0  0  0  0  0
   47.8360   84.3050   58.0680 N   0  0  0  0  0  0  0  0  0  0  0  0
   48.0750   85.3480   59.0210 C   0  0  0  0  0  3  0  0  0  0  0  0
   47.4070   85.2790   59.9070 H   0  0  0  0  0  0  0  0  0  0  0  0
   49.4970   85.2070   59.5260 C   0  0  0  0  0  3  0  0  0  0  0  0
   49.8940   86.1550   59.9430 H   0  0  0  0  0  0  0  0  0  0  0  0
   50.3520   84.7630   58.5100 O   0  0  0  0  0  0  0  0  0  0  0  0
   50.1370   83.4260   58.2550 C   0  0  0  0  0  2  0  0  0  0  0  0
   48.6940   83.1470   57.8990 C   0  0  0  0  0  2  0  0  0  0  0  0
  1  6  1  0  0  0  0
  2  1  2  0  0  0  0
  2  3  1  0  0  0  0
  3  4  2  0  0  0  0
  4  5  1  0  0  0  0
  5 10  1  0  0  0  0
  6  5  2  0  0  0  0
  7  1  1  0  0  0  0
  8  2  1  0  0  0  0
  9 17  1  0  0  0  0
 10  9  2  0  0  0  0
 10 11  1  0  0  0  0
 11 12  2  0  0  0  0
 12 16  1  0  0  0  0
 12 13  1  0  0  0  0
 13 14  1  0  0  0  0
 14 21  1  0  0  0  0
 15 14  2  0  0  0  0
 16 15  1  0  0  0  0
 17 22  1  0  0  0  0
 17 16  2  0  0  0  0
 18  9  1  0  0  0  0
 19 11  1  0  0  0  0
 20 13  1  0  0  0  0
 24 23  1  0  0  0  0
 25  3  1  0  0  0  0
 25 24  2  0  0  0  0
 26 25  1  0  0  0  0
 27 26  2  0  0  0  0
 27 28  1  0  0  0  0
 28 30  2  0  0  0  0
 29 28  1  0  0  0  0
 30 24  1  0  0  0  0
 30 33  1  0  0  0  0
 31 26  1  0  0  0  0
 32 27  1  0  0  0  0
 33 34  1  0  0  0  0
 34 36  1  0  0  0  0
 34 35  1  0  0  0  0
 36 37  1  0  0  0  0
 38 36  1  0  0  0  0
 39 38  1  0  0  0  0
 40 33  1  0  0  0  0
 40 39  1  0  0  0  0
M  END
>  <minimizedAffinity>
-4.84814262

>  <minimizedRMSD>
4.1206913

$$$$
