
 OpenBabel03212520033D

 40 44  0  0  0  0  0  0  0  0999 V2000
   40.6610   81.8250   57.0990 C   0  0  0  0  0  0  0  0  0  0  0  0
   41.7330   82.4030   56.3970 C   0  0  0  0  0  0  0  0  0  0  0  0
   42.5190   83.3020   57.0730 C   0  0  0  0  0  0  0  0  0  0  0  0
   42.2530   83.6040   58.3790 N   0  0  0  0  0  0  0  0  0  0  0  0
   41.2100   83.0230   59.0290 C   0  0  0  0  0  0  0  0  0  0  0  0
   40.4040   82.1290   58.3940 N   0  0  0  0  0  0  0  0  0  0  0  0
   39.9600   81.1070   56.6990 H   0  0  0  0  0  0  0  0  0  0  0  0
   41.7670   81.9910   55.4180 H   0  0  0  0  0  0  0  0  0  0  0  0
   39.6640   83.1130   60.9190 C   0  0  0  0  0  0  0  0  0  0  0  0
   40.9560   83.3210   60.4310 C   0  0  0  0  0  0  0  0  0  0  0  0
   41.9840   83.7770   61.2590 C   0  0  0  0  0  0  0  0  0  0  0  0
   41.7560   84.0390   62.6010 C   0  0  0  0  0  0  0  0  0  0  0  0
   42.4610   84.4650   63.6600 N   0  0  0  0  0  0  0  0  0  0  0  0
   41.6930   84.5320   64.7550 C   0  0  0  0  0  0  0  0  0  0  0  0
   40.4590   84.1260   64.3450 N   0  0  0  0  0  0  0  0  0  0  0  0
   40.4830   83.8220   63.0370 C   0  0  0  0  0  0  0  0  0  0  0  0
   39.4130   83.3720   62.2710 C   0  0  0  0  0  0  0  0  0  0  0  0
   38.8550   82.7630   60.3020 H   0  0  0  0  0  0  0  0  0  0  0  0
   42.9880   83.9380   60.8770 H   0  0  0  0  0  0  0  0  0  0  0  0
   43.4850   84.6960   63.5460 H   0  0  0  0  0  0  0  0  0  0  0  0
   42.1210   84.8590   65.6850 H   0  0  0  0  0  0  0  0  0  0  0  0
   38.4380   83.2240   62.6760 H   0  0  0  0  0  0  0  0  0  0  0  0
   42.4450   83.3130   54.0950 Cl  0  0  0  0  0  0  0  0  0  0  0  0
   43.7380   84.0290   55.0540 C   0  0  0  0  0  0  0  0  0  0  0  0
   43.6340   83.9510   56.4200 C   0  0  0  0  0  0  0  0  0  0  0  0
   44.6900   84.5530   57.1010 C   0  0  0  0  0  0  0  0  0  0  0  0
   45.7540   85.1750   56.4860 C   0  0  0  0  0  0  0  0  0  0  0  0
   45.7960   85.2170   55.0980 C   0  0  0  0  0  0  0  0  0  0  0  0
   47.1200   85.9920   54.2670 Cl  0  0  0  0  0  0  0  0  0  0  0  0
   44.7770   84.6370   54.3850 C   0  0  0  0  0  0  0  0  0  0  0  0
   44.6860   84.5370   58.1820 H   0  0  0  0  0  0  0  0  0  0  0  0
   46.5400   85.6220   57.0770 H   0  0  0  0  0  0  0  0  0  0  0  0
   44.7980   84.6670   52.9610 N   0  0  0  0  0  0  0  0  0  0  0  0
   45.3770   83.5580   52.2610 C   0  0  0  0  0  3  0  0  0  0  0  0
   44.7120   82.6680   52.2440 H   0  0  0  0  0  0  0  0  0  0  0  0
   45.5980   83.9740   50.8190 C   0  0  0  0  0  3  0  0  0  0  0  0
   46.3710   83.3600   50.3160 H   0  0  0  0  0  0  0  0  0  0  0  0
   45.9590   85.3250   50.7350 O   0  0  0  0  0  0  0  0  0  0  0  0
   44.8640   86.1280   50.9700 C   0  0  0  0  0  2  0  0  0  0  0  0
   44.2260   85.8290   52.3080 C   0  0  0  0  0  2  0  0  0  0  0  0
  1  6  1  0  0  0  0
  2  3  1  0  0  0  0
  2  1  2  0  0  0  0
  3  4  2  0  0  0  0
  4  5  1  0  0  0  0
  5 10  1  0  0  0  0
  6  5  2  0  0  0  0
  7  1  1  0  0  0  0
  8  2  1  0  0  0  0
  9 17  1  0  0  0  0
 10  9  2  0  0  0  0
 10 11  1  0  0  0  0
 11 12  2  0  0  0  0
 12 16  1  0  0  0  0
 12 13  1  0  0  0  0
 13 14  1  0  0  0  0
 14 21  1  0  0  0  0
 15 14  2  0  0  0  0
 16 15  1  0  0  0  0
 17 22  1  0  0  0  0
 17 16  2  0  0  0  0
 18  9  1  0  0  0  0
 19 11  1  0  0  0  0
 20 13  1  0  0  0  0
 23 24  1  0  0  0  0
 24 25  1  0  0  0  0
 25  3  1  0  0  0  0
 25 26  2  0  0  0  0
 26 31  1  0  0  0  0
 27 32  1  0  0  0  0
 27 26  1  0  0  0  0
 28 27  2  0  0  0  0
 29 28  1  0  0  0  0
 30 24  2  0  0  0  0
 30 28  1  0  0  0  0
 33 30  1  0  0  0  0
 34 33  1  0  0  0  0
 35 34  1  0  0  0  0
 36 34  1  0  0  0  0
 37 36  1  0  0  0  0
 38 36  1  0  0  0  0
 38 39  1  0  0  0  0
 39 40  1  0  0  0  0
 40 33  1  0  0  0  0
M  END
>  <minimizedAffinity>
-5.06449223

>  <minimizedRMSD>
0.439452827

$$$$
