
 OpenBabel03212521063D

 35 38  0  0  0  0  0  0  0  0999 V2000
   41.8010   84.2390   61.5490 C   0  0  0  0  0  0  0  0  0  0  0  0
   41.4550   83.9350   62.8660 C   0  0  0  0  0  0  0  0  0  0  0  0
   40.1670   83.5170   63.1870 C   0  0  0  0  0  0  0  0  0  0  0  0
   39.2190   83.4020   62.1850 C   0  0  0  0  0  0  0  0  0  0  0  0
   39.5670   83.7050   60.8770 C   0  0  0  0  0  0  0  0  0  0  0  0
   40.8380   84.1180   60.5550 C   0  0  0  0  0  0  0  0  0  0  0  0
   42.1540   84.0070   63.6860 H   0  0  0  0  0  0  0  0  0  0  0  0
   39.9000   83.2800   64.2190 H   0  0  0  0  0  0  0  0  0  0  0  0
   38.2390   83.0800   62.4530 H   0  0  0  0  0  0  0  0  0  0  0  0
   38.8150   83.6110   60.1010 H   0  0  0  0  0  0  0  0  0  0  0  0
   41.1580   84.4250   59.1720 C   0  0  0  0  0  0  0  0  0  0  0  0
   40.7570   85.7240   58.8320 C   0  0  0  0  0  0  0  0  0  0  0  0
   40.9750   86.2160   57.5440 C   0  0  0  0  0  0  0  0  0  0  0  0
   41.5760   85.3970   56.6650 N   0  0  0  0  0  0  0  0  0  0  0  0
   41.9580   84.1440   57.0100 C   0  0  0  0  0  0  0  0  0  0  0  0
   41.7570   83.6500   58.2500 N   0  0  0  0  0  0  0  0  0  0  0  0
   40.2700   86.4310   59.4890 H   0  0  0  0  0  0  0  0  0  0  0  0
   40.6780   87.2060   57.2530 H   0  0  0  0  0  0  0  0  0  0  0  0
   42.5850   83.3060   56.0750 N   0  0  0  0  0  0  0  0  0  0  0  0
   43.3070   82.0800   56.4210 C   0  0  0  0  0  3  0  0  0  0  0  0
   43.2590   81.8760   57.5010 H   0  0  0  0  0  0  0  0  0  0  0  0
   42.7540   80.9200   55.6180 C   0  0  0  0  0  3  0  0  0  0  0  0
   43.5250   80.4160   54.9990 H   0  0  0  0  0  0  0  0  0  0  0  0
   41.7320   81.3770   54.7990 O   0  0  0  0  0  0  0  0  0  0  0  0
   42.2480   82.3300   53.9210 C   0  0  0  0  0  2  0  0  0  0  0  0
   42.5410   83.6390   54.6450 C   0  0  0  0  0  2  0  0  0  0  0  0
   45.3320   84.1350   60.6050 C   0  0  0  0  0  0  0  0  0  0  0  0
   45.7200   85.4710   60.7100 C   0  0  0  0  0  0  0  0  0  0  0  0
   44.7550   86.4260   61.1120 C   0  0  0  0  0  0  0  0  0  0  0  0
   43.5060   85.9770   61.3700 N   0  0  0  0  0  0  0  0  0  0  0  0
   43.1550   84.6700   61.2600 C   0  0  0  0  0  0  0  0  0  0  0  0
   44.0650   83.7910   60.8850 N   0  0  0  0  0  0  0  0  0  0  0  0
   46.0780   83.4120   60.2960 H   0  0  0  0  0  0  0  0  0  0  0  0
   46.7190   85.8400   60.5050 H   0  0  0  0  0  0  0  0  0  0  0  0
   45.0540   87.4520   61.1920 H   0  0  0  0  0  0  0  0  0  0  0  0
  1  2  1  0  0  0  0
  2  3  2  0  0  0  0
  2  7  1  0  0  0  0
  3  8  1  0  0  0  0
  4  9  1  0  0  0  0
  4  3  1  0  0  0  0
  5  4  2  0  0  0  0
  6  5  1  0  0  0  0
  6  1  2  0  0  0  0
 10  5  1  0  0  0  0
 11  6  1  0  0  0  0
 12 11  1  0  0  0  0
 12 17  1  0  0  0  0
 13 12  2  0  0  0  0
 14 15  2  0  0  0  0
 14 13  1  0  0  0  0
 15 16  1  0  0  0  0
 16 11  2  0  0  0  0
 18 13  1  0  0  0  0
 19 20  1  0  0  0  0
 19 15  1  0  0  0  0
 20 21  1  0  0  0  0
 22 20  1  0  0  0  0
 23 22  1  0  0  0  0
 24 22  1  0  0  0  0
 25 26  1  0  0  0  0
 25 24  1  0  0  0  0
 26 19  1  0  0  0  0
 27 28  2  0  0  0  0
 27 32  1  0  0  0  0
 28 29  1  0  0  0  0
 29 35  1  0  0  0  0
 29 30  2  0  0  0  0
 31 30  1  0  0  0  0
 31  1  1  0  0  0  0
 32 31  2  0  0  0  0
 33 27  1  0  0  0  0
 34 28  1  0  0  0  0
M  END
>  <minimizedAffinity>
-5.78659868

>  <minimizedRMSD>
0.276115835

$$$$
