
 OpenBabel03212521063D

 35 38  0  0  0  0  0  0  0  0999 V2000
   41.8040   84.2440   61.5540 C   0  0  0  0  0  0  0  0  0  0  0  0
   41.4610   83.9420   62.8720 C   0  0  0  0  0  0  0  0  0  0  0  0
   40.1750   83.5210   63.1970 C   0  0  0  0  0  0  0  0  0  0  0  0
   39.2260   83.4020   62.1970 C   0  0  0  0  0  0  0  0  0  0  0  0
   39.5700   83.7020   60.8880 C   0  0  0  0  0  0  0  0  0  0  0  0
   40.8400   84.1180   60.5630 C   0  0  0  0  0  0  0  0  0  0  0  0
   42.1620   84.0180   63.6910 H   0  0  0  0  0  0  0  0  0  0  0  0
   39.9110   83.2860   64.2300 H   0  0  0  0  0  0  0  0  0  0  0  0
   38.2470   83.0770   62.4670 H   0  0  0  0  0  0  0  0  0  0  0  0
   38.8170   83.6050   60.1140 H   0  0  0  0  0  0  0  0  0  0  0  0
   41.1570   84.4220   59.1770 C   0  0  0  0  0  0  0  0  0  0  0  0
   40.7310   85.7110   58.8290 C   0  0  0  0  0  0  0  0  0  0  0  0
   40.9420   86.1980   57.5380 C   0  0  0  0  0  0  0  0  0  0  0  0
   41.5610   85.3860   56.6650 N   0  0  0  0  0  0  0  0  0  0  0  0
   41.9670   84.1420   57.0190 C   0  0  0  0  0  0  0  0  0  0  0  0
   41.7720   83.6520   58.2620 N   0  0  0  0  0  0  0  0  0  0  0  0
   40.2290   86.4120   59.4800 H   0  0  0  0  0  0  0  0  0  0  0  0
   40.6260   87.1810   57.2400 H   0  0  0  0  0  0  0  0  0  0  0  0
   42.6120   83.3110   56.0910 N   0  0  0  0  0  0  0  0  0  0  0  0
   44.0020   83.4790   55.6600 C   0  0  0  0  0  3  0  0  0  0  0  0
   44.4880   84.3120   56.1880 H   0  0  0  0  0  0  0  0  0  0  0  0
   44.7570   82.1820   55.8640 C   0  0  0  0  0  3  0  0  0  0  0  0
   45.2060   81.7900   54.9290 H   0  0  0  0  0  0  0  0  0  0  0  0
   43.9000   81.2320   56.3980 O   0  0  0  0  0  0  0  0  0  0  0  0
   42.8570   81.0090   55.5000 C   0  0  0  0  0  2  0  0  0  0  0  0
   41.8880   82.1860   55.4860 C   0  0  0  0  0  2  0  0  0  0  0  0
   45.3370   84.1460   60.6120 C   0  0  0  0  0  0  0  0  0  0  0  0
   45.7190   85.4840   60.7050 C   0  0  0  0  0  0  0  0  0  0  0  0
   44.7500   86.4380   61.0980 C   0  0  0  0  0  0  0  0  0  0  0  0
   43.5030   85.9870   61.3590 N   0  0  0  0  0  0  0  0  0  0  0  0
   43.1570   84.6780   61.2610 C   0  0  0  0  0  0  0  0  0  0  0  0
   44.0710   83.7990   60.8950 N   0  0  0  0  0  0  0  0  0  0  0  0
   46.0860   83.4220   60.3110 H   0  0  0  0  0  0  0  0  0  0  0  0
   46.7170   85.8550   60.4970 H   0  0  0  0  0  0  0  0  0  0  0  0
   45.0440   87.4660   61.1680 H   0  0  0  0  0  0  0  0  0  0  0  0
  1  2  1  0  0  0  0
  2  3  2  0  0  0  0
  2  7  1  0  0  0  0
  3  8  1  0  0  0  0
  4  9  1  0  0  0  0
  4  3  1  0  0  0  0
  5  4  2  0  0  0  0
  6  5  1  0  0  0  0
  6  1  2  0  0  0  0
 10  5  1  0  0  0  0
 11  6  1  0  0  0  0
 12 11  1  0  0  0  0
 12 17  1  0  0  0  0
 13 12  2  0  0  0  0
 14 15  2  0  0  0  0
 14 13  1  0  0  0  0
 15 16  1  0  0  0  0
 16 11  2  0  0  0  0
 18 13  1  0  0  0  0
 19 15  1  0  0  0  0
 20 22  1  0  0  0  0
 20 19  1  0  0  0  0
 20 21  1  0  0  0  0
 22 24  1  0  0  0  0
 23 22  1  0  0  0  0
 25 24  1  0  0  0  0
 26 25  1  0  0  0  0
 26 19  1  0  0  0  0
 27 28  2  0  0  0  0
 27 32  1  0  0  0  0
 28 29  1  0  0  0  0
 29 35  1  0  0  0  0
 29 30  2  0  0  0  0
 31 30  1  0  0  0  0
 31  1  1  0  0  0  0
 32 31  2  0  0  0  0
 33 27  1  0  0  0  0
 34 28  1  0  0  0  0
M  END
>  <minimizedAffinity>
-5.643085

>  <minimizedRMSD>
0.239475906

$$$$
