
 OpenBabel03212521043D

 35 38  0  0  0  0  0  0  0  0999 V2000
   41.8210   84.2310   61.5530 C   0  0  0  0  0  0  0  0  0  0  0  0
   41.4920   83.9280   62.8740 C   0  0  0  0  0  0  0  0  0  0  0  0
   40.2110   83.4980   63.2090 C   0  0  0  0  0  0  0  0  0  0  0  0
   39.2540   83.3730   62.2180 C   0  0  0  0  0  0  0  0  0  0  0  0
   39.5850   83.6750   60.9060 C   0  0  0  0  0  0  0  0  0  0  0  0
   40.8490   84.0990   60.5700 C   0  0  0  0  0  0  0  0  0  0  0  0
   42.1990   84.0080   63.6870 H   0  0  0  0  0  0  0  0  0  0  0  0
   39.9580   83.2620   64.2450 H   0  0  0  0  0  0  0  0  0  0  0  0
   38.2800   83.0420   62.4970 H   0  0  0  0  0  0  0  0  0  0  0  0
   38.8260   83.5720   60.1390 H   0  0  0  0  0  0  0  0  0  0  0  0
   41.1520   84.4050   59.1820 C   0  0  0  0  0  0  0  0  0  0  0  0
   40.7730   85.7140   58.8550 C   0  0  0  0  0  0  0  0  0  0  0  0
   40.9790   86.2060   57.5650 C   0  0  0  0  0  0  0  0  0  0  0  0
   41.5470   85.3790   56.6720 N   0  0  0  0  0  0  0  0  0  0  0  0
   41.9070   84.1160   57.0050 C   0  0  0  0  0  0  0  0  0  0  0  0
   41.7170   83.6200   58.2470 N   0  0  0  0  0  0  0  0  0  0  0  0
   40.3140   86.4280   59.5230 H   0  0  0  0  0  0  0  0  0  0  0  0
   40.7000   87.2040   57.2840 H   0  0  0  0  0  0  0  0  0  0  0  0
   42.5000   83.2690   56.0560 N   0  0  0  0  0  0  0  0  0  0  0  0
   42.6340   81.8180   56.2160 C   0  0  0  0  0  3  0  0  0  0  0  0
   42.1730   81.4730   57.1530 H   0  0  0  0  0  0  0  0  0  0  0  0
   42.0300   81.1180   55.0150 C   0  0  0  0  0  3  0  0  0  0  0  0
   42.7540   80.4640   54.4870 H   0  0  0  0  0  0  0  0  0  0  0  0
   41.5350   82.0650   54.1330 O   0  0  0  0  0  0  0  0  0  0  0  0
   42.5870   82.8750   53.7010 C   0  0  0  0  0  2  0  0  0  0  0  0
   43.0340   83.8250   54.8070 C   0  0  0  0  0  2  0  0  0  0  0  0
   45.3380   84.1600   60.5510 C   0  0  0  0  0  0  0  0  0  0  0  0
   45.7200   85.4970   60.6690 C   0  0  0  0  0  0  0  0  0  0  0  0
   44.7560   86.4400   61.0990 C   0  0  0  0  0  0  0  0  0  0  0  0
   43.5140   85.9810   61.3710 N   0  0  0  0  0  0  0  0  0  0  0  0
   43.1690   84.6740   61.2480 C   0  0  0  0  0  0  0  0  0  0  0  0
   44.0770   83.8050   60.8470 N   0  0  0  0  0  0  0  0  0  0  0  0
   46.0820   83.4450   60.2210 H   0  0  0  0  0  0  0  0  0  0  0  0
   46.7130   85.8740   60.4530 H   0  0  0  0  0  0  0  0  0  0  0  0
   45.0500   87.4670   61.1890 H   0  0  0  0  0  0  0  0  0  0  0  0
  1  2  1  0  0  0  0
  2  3  2  0  0  0  0
  2  7  1  0  0  0  0
  3  8  1  0  0  0  0
  4  9  1  0  0  0  0
  4  3  1  0  0  0  0
  5  4  2  0  0  0  0
  6  5  1  0  0  0  0
  6  1  2  0  0  0  0
 10  5  1  0  0  0  0
 11  6  1  0  0  0  0
 12 11  1  0  0  0  0
 12 17  1  0  0  0  0
 13 12  2  0  0  0  0
 14 15  2  0  0  0  0
 14 13  1  0  0  0  0
 15 16  1  0  0  0  0
 16 11  2  0  0  0  0
 18 13  1  0  0  0  0
 19 20  1  0  0  0  0
 19 15  1  0  0  0  0
 20 21  1  0  0  0  0
 22 20  1  0  0  0  0
 23 22  1  0  0  0  0
 24 22  1  0  0  0  0
 25 24  1  0  0  0  0
 25 26  1  0  0  0  0
 26 19  1  0  0  0  0
 27 28  2  0  0  0  0
 27 32  1  0  0  0  0
 28 29  1  0  0  0  0
 29 35  1  0  0  0  0
 29 30  2  0  0  0  0
 31 30  1  0  0  0  0
 31  1  1  0  0  0  0
 32 31  2  0  0  0  0
 33 27  1  0  0  0  0
 34 28  1  0  0  0  0
M  END
>  <minimizedAffinity>
-5.95959377

>  <minimizedRMSD>
0.328006119

$$$$
