
 OpenBabel03212521053D

 35 38  0  0  0  0  0  0  0  0999 V2000
   41.8150   84.2380   61.5550 C   0  0  0  0  0  0  0  0  0  0  0  0
   41.4810   83.9250   62.8720 C   0  0  0  0  0  0  0  0  0  0  0  0
   40.1980   83.4970   63.2000 C   0  0  0  0  0  0  0  0  0  0  0  0
   39.2440   83.3820   62.2050 C   0  0  0  0  0  0  0  0  0  0  0  0
   39.5790   83.6940   60.8960 C   0  0  0  0  0  0  0  0  0  0  0  0
   40.8460   84.1170   60.5680 C   0  0  0  0  0  0  0  0  0  0  0  0
   42.1860   83.9970   63.6880 H   0  0  0  0  0  0  0  0  0  0  0  0
   39.9400   83.2530   64.2330 H   0  0  0  0  0  0  0  0  0  0  0  0
   38.2670   83.0520   62.4780 H   0  0  0  0  0  0  0  0  0  0  0  0
   38.8220   83.6000   60.1260 H   0  0  0  0  0  0  0  0  0  0  0  0
   41.1540   84.4330   59.1830 C   0  0  0  0  0  0  0  0  0  0  0  0
   40.7050   85.7160   58.8420 C   0  0  0  0  0  0  0  0  0  0  0  0
   40.9040   86.2130   57.5530 C   0  0  0  0  0  0  0  0  0  0  0  0
   41.5340   85.4160   56.6750 N   0  0  0  0  0  0  0  0  0  0  0  0
   41.9630   84.1780   57.0210 C   0  0  0  0  0  0  0  0  0  0  0  0
   41.7800   83.6790   58.2620 N   0  0  0  0  0  0  0  0  0  0  0  0
   40.1930   86.4060   59.4980 H   0  0  0  0  0  0  0  0  0  0  0  0
   40.5710   87.1920   57.2610 H   0  0  0  0  0  0  0  0  0  0  0  0
   42.6200   83.3630   56.0880 N   0  0  0  0  0  0  0  0  0  0  0  0
   43.6800   83.8260   55.1900 C   0  0  0  0  0  3  0  0  0  0  0  0
   43.9270   84.8830   55.3720 H   0  0  0  0  0  0  0  0  0  0  0  0
   44.9010   82.9420   55.3470 C   0  0  0  0  0  3  0  0  0  0  0  0
   45.2130   82.4630   54.3980 H   0  0  0  0  0  0  0  0  0  0  0  0
   44.6390   81.9640   56.2950 O   0  0  0  0  0  0  0  0  0  0  0  0
   43.5690   81.1830   55.8530 C   0  0  0  0  0  2  0  0  0  0  0  0
   42.2540   81.9460   55.9650 C   0  0  0  0  0  2  0  0  0  0  0  0
   45.3440   84.1590   60.6000 C   0  0  0  0  0  0  0  0  0  0  0  0
   45.7210   85.4990   60.6940 C   0  0  0  0  0  0  0  0  0  0  0  0
   44.7480   86.4470   61.0930 C   0  0  0  0  0  0  0  0  0  0  0  0
   43.5050   85.9900   61.3580 N   0  0  0  0  0  0  0  0  0  0  0  0
   43.1650   84.6790   61.2580 C   0  0  0  0  0  0  0  0  0  0  0  0
   44.0810   83.8050   60.8860 N   0  0  0  0  0  0  0  0  0  0  0  0
   46.0960   83.4400   60.2940 H   0  0  0  0  0  0  0  0  0  0  0  0
   46.7160   85.8750   60.4830 H   0  0  0  0  0  0  0  0  0  0  0  0
   45.0380   87.4770   61.1650 H   0  0  0  0  0  0  0  0  0  0  0  0
  1  2  1  0  0  0  0
  2  3  2  0  0  0  0
  2  7  1  0  0  0  0
  3  8  1  0  0  0  0
  4  9  1  0  0  0  0
  4  3  1  0  0  0  0
  5  4  2  0  0  0  0
  6  5  1  0  0  0  0
  6  1  2  0  0  0  0
 10  5  1  0  0  0  0
 11  6  1  0  0  0  0
 12 11  1  0  0  0  0
 12 17  1  0  0  0  0
 13 12  2  0  0  0  0
 14 15  2  0  0  0  0
 14 13  1  0  0  0  0
 15 16  1  0  0  0  0
 16 11  2  0  0  0  0
 18 13  1  0  0  0  0
 19 15  1  0  0  0  0
 20 22  1  0  0  0  0
 20 21  1  0  0  0  0
 20 19  1  0  0  0  0
 22 24  1  0  0  0  0
 23 22  1  0  0  0  0
 25 26  1  0  0  0  0
 25 24  1  0  0  0  0
 26 19  1  0  0  0  0
 27 28  2  0  0  0  0
 27 32  1  0  0  0  0
 28 29  1  0  0  0  0
 29 35  1  0  0  0  0
 29 30  2  0  0  0  0
 31 30  1  0  0  0  0
 31  1  1  0  0  0  0
 32 31  2  0  0  0  0
 33 27  1  0  0  0  0
 34 28  1  0  0  0  0
M  END
>  <minimizedAffinity>
-5.57901001

>  <minimizedRMSD>
0.243733644

$$$$
