
 OpenBabel03212521053D

 35 38  0  0  0  0  0  0  0  0999 V2000
   41.8430   84.2350   61.5890 C   0  0  0  0  0  0  0  0  0  0  0  0
   41.4810   83.9760   62.9110 C   0  0  0  0  0  0  0  0  0  0  0  0
   40.1940   83.5520   63.2290 C   0  0  0  0  0  0  0  0  0  0  0  0
   39.2630   83.3890   62.2180 C   0  0  0  0  0  0  0  0  0  0  0  0
   39.6260   83.6470   60.9050 C   0  0  0  0  0  0  0  0  0  0  0  0
   40.8970   84.0650   60.5870 C   0  0  0  0  0  0  0  0  0  0  0  0
   42.1670   84.0870   63.7390 H   0  0  0  0  0  0  0  0  0  0  0  0
   39.9150   83.3500   64.2650 H   0  0  0  0  0  0  0  0  0  0  0  0
   38.2830   83.0630   62.4840 H   0  0  0  0  0  0  0  0  0  0  0  0
   38.8870   83.5150   60.1230 H   0  0  0  0  0  0  0  0  0  0  0  0
   41.2340   84.3250   59.1970 C   0  0  0  0  0  0  0  0  0  0  0  0
   40.7870   85.5900   58.7940 C   0  0  0  0  0  0  0  0  0  0  0  0
   41.0120   86.0340   57.4900 C   0  0  0  0  0  0  0  0  0  0  0  0
   41.6650   85.2050   56.6590 N   0  0  0  0  0  0  0  0  0  0  0  0
   42.0900   83.9840   57.0660 C   0  0  0  0  0  0  0  0  0  0  0  0
   41.8830   83.5360   58.3230 N   0  0  0  0  0  0  0  0  0  0  0  0
   40.2580   86.3050   59.4090 H   0  0  0  0  0  0  0  0  0  0  0  0
   40.6820   86.9980   57.1500 H   0  0  0  0  0  0  0  0  0  0  0  0
   42.7710   83.1340   56.1820 N   0  0  0  0  0  0  0  0  0  0  0  0
   42.2100   82.6320   54.9250 C   0  0  0  0  0  3  0  0  0  0  0  0
   41.2050   83.0410   54.7430 H   0  0  0  0  0  0  0  0  0  0  0  0
   43.1520   82.9560   53.7830 C   0  0  0  0  0  3  0  0  0  0  0  0
   43.4850   82.0550   53.2290 H   0  0  0  0  0  0  0  0  0  0  0  0
   44.2570   83.6280   54.2790 O   0  0  0  0  0  0  0  0  0  0  0  0
   44.9190   82.8030   55.1890 C   0  0  0  0  0  2  0  0  0  0  0  0
   44.1360   82.6910   56.4930 C   0  0  0  0  0  2  0  0  0  0  0  0
   45.3960   84.1410   60.7270 C   0  0  0  0  0  0  0  0  0  0  0  0
   45.7590   85.4880   60.7620 C   0  0  0  0  0  0  0  0  0  0  0  0
   44.7690   86.4460   61.0880 C   0  0  0  0  0  0  0  0  0  0  0  0
   43.5230   85.9910   61.3450 N   0  0  0  0  0  0  0  0  0  0  0  0
   43.1960   84.6740   61.3040 C   0  0  0  0  0  0  0  0  0  0  0  0
   44.1290   83.7910   61.0000 N   0  0  0  0  0  0  0  0  0  0  0  0
   46.1600   83.4140   60.4770 H   0  0  0  0  0  0  0  0  0  0  0  0
   46.7560   85.8620   60.5570 H   0  0  0  0  0  0  0  0  0  0  0  0
   45.0490   87.4800   61.1150 H   0  0  0  0  0  0  0  0  0  0  0  0
  1  2  1  0  0  0  0
  2  3  2  0  0  0  0
  2  7  1  0  0  0  0
  3  8  1  0  0  0  0
  4  9  1  0  0  0  0
  4  3  1  0  0  0  0
  5  4  2  0  0  0  0
  6  5  1  0  0  0  0
  6  1  2  0  0  0  0
 10  5  1  0  0  0  0
 11  6  1  0  0  0  0
 12 11  1  0  0  0  0
 12 17  1  0  0  0  0
 13 12  2  0  0  0  0
 14 15  2  0  0  0  0
 14 13  1  0  0  0  0
 15 16  1  0  0  0  0
 16 11  2  0  0  0  0
 18 13  1  0  0  0  0
 19 26  1  0  0  0  0
 19 15  1  0  0  0  0
 20 19  1  0  0  0  0
 21 20  1  0  0  0  0
 22 24  1  0  0  0  0
 22 20  1  0  0  0  0
 23 22  1  0  0  0  0
 24 25  1  0  0  0  0
 25 26  1  0  0  0  0
 27 28  2  0  0  0  0
 27 32  1  0  0  0  0
 28 29  1  0  0  0  0
 29 35  1  0  0  0  0
 29 30  2  0  0  0  0
 31 30  1  0  0  0  0
 31  1  1  0  0  0  0
 32 31  2  0  0  0  0
 33 27  1  0  0  0  0
 34 28  1  0  0  0  0
M  END
>  <minimizedAffinity>
-5.64541245

>  <minimizedRMSD>
0.0994483307

$$$$
