
 OpenBabel03212521053D

 35 38  0  0  0  0  0  0  0  0999 V2000
   41.8100   84.2500   61.5690 C   0  0  0  0  0  0  0  0  0  0  0  0
   41.4600   83.9550   62.8870 C   0  0  0  0  0  0  0  0  0  0  0  0
   40.1730   83.5350   63.2070 C   0  0  0  0  0  0  0  0  0  0  0  0
   39.2290   83.4110   62.2030 C   0  0  0  0  0  0  0  0  0  0  0  0
   39.5790   83.7050   60.8940 C   0  0  0  0  0  0  0  0  0  0  0  0
   40.8510   84.1200   60.5730 C   0  0  0  0  0  0  0  0  0  0  0  0
   42.1570   84.0350   63.7090 H   0  0  0  0  0  0  0  0  0  0  0  0
   39.9040   83.3050   64.2400 H   0  0  0  0  0  0  0  0  0  0  0  0
   38.2480   83.0870   62.4700 H   0  0  0  0  0  0  0  0  0  0  0  0
   38.8300   83.6030   60.1170 H   0  0  0  0  0  0  0  0  0  0  0  0
   41.1740   84.4170   59.1880 C   0  0  0  0  0  0  0  0  0  0  0  0
   40.7000   85.6820   58.8160 C   0  0  0  0  0  0  0  0  0  0  0  0
   40.9090   86.1600   57.5210 C   0  0  0  0  0  0  0  0  0  0  0  0
   41.5730   85.3620   56.6680 N   0  0  0  0  0  0  0  0  0  0  0  0
   42.0240   84.1410   57.0450 C   0  0  0  0  0  0  0  0  0  0  0  0
   41.8330   83.6610   58.2920 N   0  0  0  0  0  0  0  0  0  0  0  0
   40.1610   86.3720   59.4500 H   0  0  0  0  0  0  0  0  0  0  0  0
   40.5580   87.1250   57.2050 H   0  0  0  0  0  0  0  0  0  0  0  0
   42.7160   83.3250   56.1370 N   0  0  0  0  0  0  0  0  0  0  0  0
   44.1690   83.3400   55.9560 C   0  0  0  0  0  3  0  0  0  0  0  0
   44.6530   84.0420   56.6510 H   0  0  0  0  0  0  0  0  0  0  0  0
   44.7170   81.9370   56.1200 C   0  0  0  0  0  3  0  0  0  0  0  0
   45.2700   81.5810   55.2270 H   0  0  0  0  0  0  0  0  0  0  0  0
   43.6730   81.0670   56.3930 O   0  0  0  0  0  0  0  0  0  0  0  0
   42.7810   81.0810   55.3190 C   0  0  0  0  0  2  0  0  0  0  0  0
   41.9770   82.3760   55.2940 C   0  0  0  0  0  2  0  0  0  0  0  0
   45.3520   84.1460   60.6670 C   0  0  0  0  0  0  0  0  0  0  0  0
   45.7280   85.4880   60.7330 C   0  0  0  0  0  0  0  0  0  0  0  0
   44.7500   86.4470   61.0930 C   0  0  0  0  0  0  0  0  0  0  0  0
   43.5030   85.9960   61.3520 N   0  0  0  0  0  0  0  0  0  0  0  0
   43.1640   84.6840   61.2800 C   0  0  0  0  0  0  0  0  0  0  0  0
   44.0850   83.8000   60.9440 N   0  0  0  0  0  0  0  0  0  0  0  0
   46.1080   83.4190   60.3910 H   0  0  0  0  0  0  0  0  0  0  0  0
   46.7260   85.8580   60.5270 H   0  0  0  0  0  0  0  0  0  0  0  0
   45.0400   87.4770   61.1430 H   0  0  0  0  0  0  0  0  0  0  0  0
  1  2  1  0  0  0  0
  2  3  2  0  0  0  0
  2  7  1  0  0  0  0
  3  8  1  0  0  0  0
  4  9  1  0  0  0  0
  4  3  1  0  0  0  0
  5  4  2  0  0  0  0
  6  5  1  0  0  0  0
  6  1  2  0  0  0  0
 10  5  1  0  0  0  0
 11  6  1  0  0  0  0
 12 11  1  0  0  0  0
 12 17  1  0  0  0  0
 13 12  2  0  0  0  0
 14 15  2  0  0  0  0
 14 13  1  0  0  0  0
 15 16  1  0  0  0  0
 16 11  2  0  0  0  0
 18 13  1  0  0  0  0
 19 15  1  0  0  0  0
 20 22  1  0  0  0  0
 20 19  1  0  0  0  0
 20 21  1  0  0  0  0
 22 24  1  0  0  0  0
 23 22  1  0  0  0  0
 25 24  1  0  0  0  0
 26 25  1  0  0  0  0
 26 19  1  0  0  0  0
 27 28  2  0  0  0  0
 27 32  1  0  0  0  0
 28 29  1  0  0  0  0
 29 35  1  0  0  0  0
 29 30  2  0  0  0  0
 31 30  1  0  0  0  0
 31  1  1  0  0  0  0
 32 31  2  0  0  0  0
 33 27  1  0  0  0  0
 34 28  1  0  0  0  0
M  END
>  <minimizedAffinity>
-5.64363146

>  <minimizedRMSD>
0.166842416

$$$$
