
 OpenBabel03212521053D

 35 38  0  0  0  0  0  0  0  0999 V2000
   41.8240   84.2320   61.5610 C   0  0  0  0  0  0  0  0  0  0  0  0
   41.4940   83.9080   62.8770 C   0  0  0  0  0  0  0  0  0  0  0  0
   40.2130   83.4750   63.2060 C   0  0  0  0  0  0  0  0  0  0  0  0
   39.2560   83.3680   62.2130 C   0  0  0  0  0  0  0  0  0  0  0  0
   39.5870   83.6910   60.9060 C   0  0  0  0  0  0  0  0  0  0  0  0
   40.8520   84.1180   60.5760 C   0  0  0  0  0  0  0  0  0  0  0  0
   42.2020   83.9740   63.6910 H   0  0  0  0  0  0  0  0  0  0  0  0
   39.9590   83.2220   64.2380 H   0  0  0  0  0  0  0  0  0  0  0  0
   38.2810   83.0340   62.4870 H   0  0  0  0  0  0  0  0  0  0  0  0
   38.8270   83.6020   60.1370 H   0  0  0  0  0  0  0  0  0  0  0  0
   41.1550   84.4460   59.1930 C   0  0  0  0  0  0  0  0  0  0  0  0
   40.6660   85.7140   58.8530 C   0  0  0  0  0  0  0  0  0  0  0  0
   40.8550   86.2200   57.5650 C   0  0  0  0  0  0  0  0  0  0  0  0
   41.5130   85.4450   56.6880 N   0  0  0  0  0  0  0  0  0  0  0  0
   41.9790   84.2200   57.0340 C   0  0  0  0  0  0  0  0  0  0  0  0
   41.8080   83.7130   58.2740 N   0  0  0  0  0  0  0  0  0  0  0  0
   40.1310   86.3870   59.5080 H   0  0  0  0  0  0  0  0  0  0  0  0
   40.4920   87.1880   57.2730 H   0  0  0  0  0  0  0  0  0  0  0  0
   42.6650   83.4280   56.1020 N   0  0  0  0  0  0  0  0  0  0  0  0
   42.6670   83.6700   54.6570 C   0  0  0  0  0  3  0  0  0  0  0  0
   42.1000   84.5770   54.4010 H   0  0  0  0  0  0  0  0  0  0  0  0
   44.0950   83.7560   54.1590 C   0  0  0  0  0  3  0  0  0  0  0  0
   44.3240   83.0120   53.3690 H   0  0  0  0  0  0  0  0  0  0  0  0
   44.9630   83.5780   55.2250 O   0  0  0  0  0  0  0  0  0  0  0  0
   44.7530   82.3130   55.7740 C   0  0  0  0  0  2  0  0  0  0  0  0
   43.4440   82.2680   56.5550 C   0  0  0  0  0  2  0  0  0  0  0  0
   45.3540   84.1630   60.6080 C   0  0  0  0  0  0  0  0  0  0  0  0
   45.7260   85.5050   60.6980 C   0  0  0  0  0  0  0  0  0  0  0  0
   44.7490   86.4510   61.0920 C   0  0  0  0  0  0  0  0  0  0  0  0
   43.5070   85.9900   61.3580 N   0  0  0  0  0  0  0  0  0  0  0  0
   43.1720   84.6770   61.2630 C   0  0  0  0  0  0  0  0  0  0  0  0
   44.0920   83.8050   60.8950 N   0  0  0  0  0  0  0  0  0  0  0  0
   46.1080   83.4450   60.3060 H   0  0  0  0  0  0  0  0  0  0  0  0
   46.7190   85.8840   60.4860 H   0  0  0  0  0  0  0  0  0  0  0  0
   45.0350   87.4820   61.1600 H   0  0  0  0  0  0  0  0  0  0  0  0
  1  2  1  0  0  0  0
  2  3  2  0  0  0  0
  2  7  1  0  0  0  0
  3  8  1  0  0  0  0
  4  9  1  0  0  0  0
  4  3  1  0  0  0  0
  5  4  2  0  0  0  0
  6  5  1  0  0  0  0
  6  1  2  0  0  0  0
 10  5  1  0  0  0  0
 11  6  1  0  0  0  0
 12 11  1  0  0  0  0
 12 17  1  0  0  0  0
 13 12  2  0  0  0  0
 14 15  2  0  0  0  0
 14 13  1  0  0  0  0
 15 16  1  0  0  0  0
 16 11  2  0  0  0  0
 18 13  1  0  0  0  0
 19 26  1  0  0  0  0
 19 15  1  0  0  0  0
 20 19  1  0  0  0  0
 21 20  1  0  0  0  0
 22 20  1  0  0  0  0
 22 24  1  0  0  0  0
 23 22  1  0  0  0  0
 24 25  1  0  0  0  0
 25 26  1  0  0  0  0
 27 28  2  0  0  0  0
 27 32  1  0  0  0  0
 28 29  1  0  0  0  0
 29 35  1  0  0  0  0
 29 30  2  0  0  0  0
 31 30  1  0  0  0  0
 31  1  1  0  0  0  0
 32 31  2  0  0  0  0
 33 27  1  0  0  0  0
 34 28  1  0  0  0  0
M  END
>  <minimizedAffinity>
-5.64825964

>  <minimizedRMSD>
0.250691801

$$$$
