
 OpenBabel03212521053D

 35 38  0  0  0  0  0  0  0  0999 V2000
   41.8240   84.2350   61.5540 C   0  0  0  0  0  0  0  0  0  0  0  0
   41.4950   83.9340   62.8760 C   0  0  0  0  0  0  0  0  0  0  0  0
   40.2150   83.5050   63.2130 C   0  0  0  0  0  0  0  0  0  0  0  0
   39.2580   83.3760   62.2220 C   0  0  0  0  0  0  0  0  0  0  0  0
   39.5880   83.6760   60.9090 C   0  0  0  0  0  0  0  0  0  0  0  0
   40.8520   84.1000   60.5720 C   0  0  0  0  0  0  0  0  0  0  0  0
   42.2020   84.0170   63.6890 H   0  0  0  0  0  0  0  0  0  0  0  0
   39.9620   83.2700   64.2490 H   0  0  0  0  0  0  0  0  0  0  0  0
   38.2830   83.0450   62.5020 H   0  0  0  0  0  0  0  0  0  0  0  0
   38.8280   83.5710   60.1420 H   0  0  0  0  0  0  0  0  0  0  0  0
   41.1540   84.4030   59.1830 C   0  0  0  0  0  0  0  0  0  0  0  0
   40.7560   85.7040   58.8480 C   0  0  0  0  0  0  0  0  0  0  0  0
   40.9580   86.1920   57.5560 C   0  0  0  0  0  0  0  0  0  0  0  0
   41.5420   85.3690   56.6690 N   0  0  0  0  0  0  0  0  0  0  0  0
   41.9200   84.1140   57.0100 C   0  0  0  0  0  0  0  0  0  0  0  0
   41.7340   83.6220   58.2540 N   0  0  0  0  0  0  0  0  0  0  0  0
   40.2830   86.4150   59.5110 H   0  0  0  0  0  0  0  0  0  0  0  0
   40.6640   87.1850   57.2680 H   0  0  0  0  0  0  0  0  0  0  0  0
   42.5290   83.2710   56.0680 N   0  0  0  0  0  0  0  0  0  0  0  0
   42.1760   81.8630   55.8720 C   0  0  0  0  0  3  0  0  0  0  0  0
   41.3440   81.5620   56.5280 H   0  0  0  0  0  0  0  0  0  0  0  0
   41.8410   81.6210   54.4150 C   0  0  0  0  0  3  0  0  0  0  0  0
   42.4800   80.8430   53.9480 H   0  0  0  0  0  0  0  0  0  0  0  0
   41.9730   82.8080   53.7110 O   0  0  0  0  0  0  0  0  0  0  0  0
   43.2950   83.2450   53.8050 C   0  0  0  0  0  2  0  0  0  0  0  0
   43.5930   83.7890   55.1990 C   0  0  0  0  0  2  0  0  0  0  0  0
   45.3420   84.1630   60.5570 C   0  0  0  0  0  0  0  0  0  0  0  0
   45.7220   85.5010   60.6670 C   0  0  0  0  0  0  0  0  0  0  0  0
   44.7560   86.4450   61.0900 C   0  0  0  0  0  0  0  0  0  0  0  0
   43.5140   85.9870   61.3630 N   0  0  0  0  0  0  0  0  0  0  0  0
   43.1710   84.6780   61.2480 C   0  0  0  0  0  0  0  0  0  0  0  0
   44.0810   83.8080   60.8530 N   0  0  0  0  0  0  0  0  0  0  0  0
   46.0880   83.4470   60.2330 H   0  0  0  0  0  0  0  0  0  0  0  0
   46.7150   85.8780   60.4500 H   0  0  0  0  0  0  0  0  0  0  0  0
   45.0490   87.4730   61.1730 H   0  0  0  0  0  0  0  0  0  0  0  0
  1  2  1  0  0  0  0
  2  3  2  0  0  0  0
  2  7  1  0  0  0  0
  3  8  1  0  0  0  0
  4  9  1  0  0  0  0
  4  3  1  0  0  0  0
  5  4  2  0  0  0  0
  6  5  1  0  0  0  0
  6  1  2  0  0  0  0
 10  5  1  0  0  0  0
 11  6  1  0  0  0  0
 12 11  1  0  0  0  0
 12 17  1  0  0  0  0
 13 12  2  0  0  0  0
 14 15  2  0  0  0  0
 14 13  1  0  0  0  0
 15 16  1  0  0  0  0
 16 11  2  0  0  0  0
 18 13  1  0  0  0  0
 19 15  1  0  0  0  0
 20 19  1  0  0  0  0
 20 21  1  0  0  0  0
 22 20  1  0  0  0  0
 23 22  1  0  0  0  0
 24 25  1  0  0  0  0
 24 22  1  0  0  0  0
 25 26  1  0  0  0  0
 26 19  1  0  0  0  0
 27 28  2  0  0  0  0
 27 32  1  0  0  0  0
 28 29  1  0  0  0  0
 29 35  1  0  0  0  0
 29 30  2  0  0  0  0
 31 30  1  0  0  0  0
 31  1  1  0  0  0  0
 32 31  2  0  0  0  0
 33 27  1  0  0  0  0
 34 28  1  0  0  0  0
M  END
>  <minimizedAffinity>
-5.88302422

>  <minimizedRMSD>
0.297602236

$$$$
