
 OpenBabel03212521063D

 35 38  0  0  0  0  0  0  0  0999 V2000
   41.8020   84.2390   61.5640 C   0  0  0  0  0  0  0  0  0  0  0  0
   41.4450   83.9400   62.8790 C   0  0  0  0  0  0  0  0  0  0  0  0
   40.1530   83.5260   63.1910 C   0  0  0  0  0  0  0  0  0  0  0  0
   39.2130   83.4120   62.1820 C   0  0  0  0  0  0  0  0  0  0  0  0
   39.5720   83.7090   60.8760 C   0  0  0  0  0  0  0  0  0  0  0  0
   40.8480   84.1180   60.5630 C   0  0  0  0  0  0  0  0  0  0  0  0
   42.1380   84.0120   63.7050 H   0  0  0  0  0  0  0  0  0  0  0  0
   39.8780   83.2930   64.2220 H   0  0  0  0  0  0  0  0  0  0  0  0
   38.2300   83.0930   62.4430 H   0  0  0  0  0  0  0  0  0  0  0  0
   38.8260   83.6160   60.0940 H   0  0  0  0  0  0  0  0  0  0  0  0
   41.1800   84.4200   59.1810 C   0  0  0  0  0  0  0  0  0  0  0  0
   40.7110   85.6870   58.8100 C   0  0  0  0  0  0  0  0  0  0  0  0
   40.9290   86.1690   57.5190 C   0  0  0  0  0  0  0  0  0  0  0  0
   41.5950   85.3730   56.6660 N   0  0  0  0  0  0  0  0  0  0  0  0
   42.0420   84.1490   57.0420 C   0  0  0  0  0  0  0  0  0  0  0  0
   41.8420   83.6650   58.2860 N   0  0  0  0  0  0  0  0  0  0  0  0
   40.1700   86.3760   59.4440 H   0  0  0  0  0  0  0  0  0  0  0  0
   40.5820   87.1360   57.2040 H   0  0  0  0  0  0  0  0  0  0  0  0
   42.7370   83.3340   56.1360 N   0  0  0  0  0  0  0  0  0  0  0  0
   43.7630   82.3620   56.5210 C   0  0  0  0  0  3  0  0  0  0  0  0
   43.8880   82.3210   57.6120 H   0  0  0  0  0  0  0  0  0  0  0  0
   43.4090   81.0010   55.9570 C   0  0  0  0  0  3  0  0  0  0  0  0
   44.2000   80.5860   55.2980 H   0  0  0  0  0  0  0  0  0  0  0  0
   42.2210   81.0930   55.2490 O   0  0  0  0  0  0  0  0  0  0  0  0
   42.3930   81.9880   54.1920 C   0  0  0  0  0  2  0  0  0  0  0  0
   42.4510   83.4260   54.6990 C   0  0  0  0  0  2  0  0  0  0  0  0
   45.3520   84.1160   60.6910 C   0  0  0  0  0  0  0  0  0  0  0  0
   45.7330   85.4570   60.7540 C   0  0  0  0  0  0  0  0  0  0  0  0
   44.7560   86.4210   61.1020 C   0  0  0  0  0  0  0  0  0  0  0  0
   43.5040   85.9770   61.3530 N   0  0  0  0  0  0  0  0  0  0  0  0
   43.1610   84.6650   61.2840 C   0  0  0  0  0  0  0  0  0  0  0  0
   44.0810   83.7770   60.9600 N   0  0  0  0  0  0  0  0  0  0  0  0
   46.1060   83.3850   60.4240 H   0  0  0  0  0  0  0  0  0  0  0  0
   46.7330   85.8220   60.5540 H   0  0  0  0  0  0  0  0  0  0  0  0
   45.0490   87.4510   61.1490 H   0  0  0  0  0  0  0  0  0  0  0  0
  1  2  1  0  0  0  0
  2  3  2  0  0  0  0
  2  7  1  0  0  0  0
  3  8  1  0  0  0  0
  4  9  1  0  0  0  0
  4  3  1  0  0  0  0
  5  4  2  0  0  0  0
  6  5  1  0  0  0  0
  6  1  2  0  0  0  0
 10  5  1  0  0  0  0
 11  6  1  0  0  0  0
 12 11  1  0  0  0  0
 12 17  1  0  0  0  0
 13 12  2  0  0  0  0
 14 15  2  0  0  0  0
 14 13  1  0  0  0  0
 15 16  1  0  0  0  0
 16 11  2  0  0  0  0
 18 13  1  0  0  0  0
 19 20  1  0  0  0  0
 19 15  1  0  0  0  0
 20 21  1  0  0  0  0
 22 20  1  0  0  0  0
 23 22  1  0  0  0  0
 24 22  1  0  0  0  0
 25 26  1  0  0  0  0
 25 24  1  0  0  0  0
 26 19  1  0  0  0  0
 27 28  2  0  0  0  0
 27 32  1  0  0  0  0
 28 29  1  0  0  0  0
 29 35  1  0  0  0  0
 29 30  2  0  0  0  0
 31 30  1  0  0  0  0
 31  1  1  0  0  0  0
 32 31  2  0  0  0  0
 33 27  1  0  0  0  0
 34 28  1  0  0  0  0
M  END
>  <minimizedAffinity>
-5.67949152

>  <minimizedRMSD>
0.165302575

$$$$
