
 OpenBabel03212521063D

 35 38  0  0  0  0  0  0  0  0999 V2000
   41.8240   84.2310   61.5890 C   0  0  0  0  0  0  0  0  0  0  0  0
   41.4470   83.9760   62.9070 C   0  0  0  0  0  0  0  0  0  0  0  0
   40.1540   83.5620   63.2130 C   0  0  0  0  0  0  0  0  0  0  0  0
   39.2320   83.4050   62.1930 C   0  0  0  0  0  0  0  0  0  0  0  0
   39.6100   83.6590   60.8840 C   0  0  0  0  0  0  0  0  0  0  0  0
   40.8870   84.0670   60.5770 C   0  0  0  0  0  0  0  0  0  0  0  0
   42.1260   84.0830   63.7410 H   0  0  0  0  0  0  0  0  0  0  0  0
   39.8640   83.3640   64.2460 H   0  0  0  0  0  0  0  0  0  0  0  0
   38.2470   83.0870   62.4490 H   0  0  0  0  0  0  0  0  0  0  0  0
   38.8770   83.5320   60.0940 H   0  0  0  0  0  0  0  0  0  0  0  0
   41.2390   84.3230   59.1910 C   0  0  0  0  0  0  0  0  0  0  0  0
   40.7960   85.5870   58.7780 C   0  0  0  0  0  0  0  0  0  0  0  0
   41.0350   86.0270   57.4750 C   0  0  0  0  0  0  0  0  0  0  0  0
   41.6980   85.1950   56.6550 N   0  0  0  0  0  0  0  0  0  0  0  0
   42.1200   83.9760   57.0710 C   0  0  0  0  0  0  0  0  0  0  0  0
   41.8990   83.5320   58.3260 N   0  0  0  0  0  0  0  0  0  0  0  0
   40.2590   86.3020   59.3850 H   0  0  0  0  0  0  0  0  0  0  0  0
   40.7080   86.9890   57.1290 H   0  0  0  0  0  0  0  0  0  0  0  0
   42.8120   83.1240   56.1970 N   0  0  0  0  0  0  0  0  0  0  0  0
   44.0210   82.3790   56.5560 C   0  0  0  0  0  3  0  0  0  0  0  0
   44.2930   82.5390   57.6090 H   0  0  0  0  0  0  0  0  0  0  0  0
   43.8190   80.9070   56.2570 C   0  0  0  0  0  3  0  0  0  0  0  0
   44.5720   80.5020   55.5530 H   0  0  0  0  0  0  0  0  0  0  0  0
   42.5480   80.7170   55.7350 O   0  0  0  0  0  0  0  0  0  0  0  0
   42.4360   81.4380   54.5460 C   0  0  0  0  0  2  0  0  0  0  0  0
   42.3290   82.9340   54.8230 C   0  0  0  0  0  2  0  0  0  0  0  0
   45.3870   84.1090   60.7730 C   0  0  0  0  0  0  0  0  0  0  0  0
   45.7570   85.4540   60.7990 C   0  0  0  0  0  0  0  0  0  0  0  0
   44.7680   86.4210   61.1020 C   0  0  0  0  0  0  0  0  0  0  0  0
   43.5170   85.9750   61.3480 N   0  0  0  0  0  0  0  0  0  0  0  0
   43.1830   84.6590   61.3160 C   0  0  0  0  0  0  0  0  0  0  0  0
   44.1150   83.7680   61.0330 N   0  0  0  0  0  0  0  0  0  0  0  0
   46.1510   83.3750   60.5400 H   0  0  0  0  0  0  0  0  0  0  0  0
   46.7590   85.8200   60.6030 H   0  0  0  0  0  0  0  0  0  0  0  0
   45.0540   87.4540   61.1220 H   0  0  0  0  0  0  0  0  0  0  0  0
  1  2  1  0  0  0  0
  2  3  2  0  0  0  0
  2  7  1  0  0  0  0
  3  8  1  0  0  0  0
  4  9  1  0  0  0  0
  4  3  1  0  0  0  0
  5  4  2  0  0  0  0
  6  5  1  0  0  0  0
  6  1  2  0  0  0  0
 10  5  1  0  0  0  0
 11  6  1  0  0  0  0
 12 11  1  0  0  0  0
 12 17  1  0  0  0  0
 13 12  2  0  0  0  0
 14 15  2  0  0  0  0
 14 13  1  0  0  0  0
 15 16  1  0  0  0  0
 16 11  2  0  0  0  0
 18 13  1  0  0  0  0
 19 20  1  0  0  0  0
 19 15  1  0  0  0  0
 20 21  1  0  0  0  0
 22 20  1  0  0  0  0
 23 22  1  0  0  0  0
 24 22  1  0  0  0  0
 25 26  1  0  0  0  0
 25 24  1  0  0  0  0
 26 19  1  0  0  0  0
 27 28  2  0  0  0  0
 27 32  1  0  0  0  0
 28 29  1  0  0  0  0
 29 35  1  0  0  0  0
 29 30  2  0  0  0  0
 31 30  1  0  0  0  0
 31  1  1  0  0  0  0
 32 31  2  0  0  0  0
 33 27  1  0  0  0  0
 34 28  1  0  0  0  0
M  END
>  <minimizedAffinity>
-5.63657999

>  <minimizedRMSD>
0.074512966

$$$$
