
 OpenBabel03212521083D

 35 38  0  0  0  0  0  0  0  0999 V2000
   41.0920   74.5780   59.9100 C   0  0  0  0  0  0  0  0  0  0  0  0
   40.5870   75.8460   60.1960 C   0  0  0  0  0  0  0  0  0  0  0  0
   39.3610   75.9980   60.8370 C   0  0  0  0  0  0  0  0  0  0  0  0
   38.6350   74.8740   61.1920 C   0  0  0  0  0  0  0  0  0  0  0  0
   39.1410   73.6150   60.9060 C   0  0  0  0  0  0  0  0  0  0  0  0
   40.3520   73.4610   60.2740 C   0  0  0  0  0  0  0  0  0  0  0  0
   41.1100   76.7560   59.9420 H   0  0  0  0  0  0  0  0  0  0  0  0
   38.9690   76.9920   61.0590 H   0  0  0  0  0  0  0  0  0  0  0  0
   37.6980   75.0130   61.6820 H   0  0  0  0  0  0  0  0  0  0  0  0
   38.5620   72.7430   61.1890 H   0  0  0  0  0  0  0  0  0  0  0  0
   40.8440   72.1220   59.9930 C   0  0  0  0  0  0  0  0  0  0  0  0
   40.4440   71.6890   58.7220 C   0  0  0  0  0  0  0  0  0  0  0  0
   40.8140   70.4260   58.2590 C   0  0  0  0  0  0  0  0  0  0  0  0
   41.5580   69.6620   59.0760 N   0  0  0  0  0  0  0  0  0  0  0  0
   41.9360   70.0970   60.3030 C   0  0  0  0  0  0  0  0  0  0  0  0
   41.5890   71.3150   60.7690 N   0  0  0  0  0  0  0  0  0  0  0  0
   39.8470   72.2520   58.0170 H   0  0  0  0  0  0  0  0  0  0  0  0
   40.5230   70.0650   57.2900 H   0  0  0  0  0  0  0  0  0  0  0  0
   42.7140   69.2820   61.1400 N   0  0  0  0  0  0  0  0  0  0  0  0
   43.1670   69.6700   62.4780 C   0  0  0  0  0  3  0  0  0  0  0  0
   42.7840   70.6620   62.7600 H   0  0  0  0  0  0  0  0  0  0  0  0
   42.7490   68.6150   63.4820 C   0  0  0  0  0  3  0  0  0  0  0  0
   43.6070   68.1810   64.0350 H   0  0  0  0  0  0  0  0  0  0  0  0
   42.0640   67.6040   62.8250 O   0  0  0  0  0  0  0  0  0  0  0  0
   42.9140   67.0200   61.8840 C   0  0  0  0  0  2  0  0  0  0  0  0
   43.1240   67.9470   60.6900 C   0  0  0  0  0  2  0  0  0  0  0  0
   43.6150   74.5060   57.2630 C   0  0  0  0  0  0  0  0  0  0  0  0
   44.7940   74.2580   57.9660 C   0  0  0  0  0  0  0  0  0  0  0  0
   44.7250   74.1130   59.3730 C   0  0  0  0  0  0  0  0  0  0  0  0
   43.5090   74.2260   59.9500 N   0  0  0  0  0  0  0  0  0  0  0  0
   42.3760   74.4670   59.2420 C   0  0  0  0  0  0  0  0  0  0  0  0
   42.4540   74.5990   57.9310 N   0  0  0  0  0  0  0  0  0  0  0  0
   43.6780   74.6150   56.1860 H   0  0  0  0  0  0  0  0  0  0  0  0
   45.7740   74.1670   57.5110 H   0  0  0  0  0  0  0  0  0  0  0  0
   45.6310   73.9240   59.9120 H   0  0  0  0  0  0  0  0  0  0  0  0
  1  2  2  0  0  0  0
  1  6  1  0  0  0  0
  2  3  1  0  0  0  0
  3  8  1  0  0  0  0
  3  4  2  0  0  0  0
  4  9  1  0  0  0  0
  5 10  1  0  0  0  0
  5  4  1  0  0  0  0
  6  5  2  0  0  0  0
  7  2  1  0  0  0  0
 11  6  1  0  0  0  0
 11 16  1  0  0  0  0
 12 11  2  0  0  0  0
 13 12  1  0  0  0  0
 13 14  2  0  0  0  0
 14 15  1  0  0  0  0
 15 16  2  0  0  0  0
 15 19  1  0  0  0  0
 17 12  1  0  0  0  0
 18 13  1  0  0  0  0
 19 20  1  0  0  0  0
 20 21  1  0  0  0  0
 20 22  1  0  0  0  0
 22 23  1  0  0  0  0
 24 22  1  0  0  0  0
 25 24  1  0  0  0  0
 26 19  1  0  0  0  0
 26 25  1  0  0  0  0
 27 32  2  0  0  0  0
 27 28  1  0  0  0  0
 28 29  2  0  0  0  0
 29 35  1  0  0  0  0
 29 30  1  0  0  0  0
 31  1  1  0  0  0  0
 31 30  2  0  0  0  0
 32 31  1  0  0  0  0
 33 27  1  0  0  0  0
 34 28  1  0  0  0  0
M  END
>  <minimizedAffinity>
-5.99284029

$$$$

 OpenBabel03212521083D

 35 38  0  0  0  0  0  0  0  0999 V2000
   41.2010   72.0540   61.4060 C   0  0  0  0  0  0  0  0  0  0  0  0
   41.3760   71.6740   62.7370 C   0  0  0  0  0  0  0  0  0  0  0  0
   42.0660   70.5100   63.0620 C   0  0  0  0  0  0  0  0  0  0  0  0
   42.5830   69.7200   62.0500 C   0  0  0  0  0  0  0  0  0  0  0  0
   42.4070   70.1010   60.7290 C   0  0  0  0  0  0  0  0  0  0  0  0
   41.7260   71.2500   60.4030 C   0  0  0  0  0  0  0  0  0  0  0  0
   40.9940   72.2520   63.5660 H   0  0  0  0  0  0  0  0  0  0  0  0
   42.2020   70.2170   64.1060 H   0  0  0  0  0  0  0  0  0  0  0  0
   43.1090   68.8330   62.3220 H   0  0  0  0  0  0  0  0  0  0  0  0
   42.8160   69.4730   59.9450 H   0  0  0  0  0  0  0  0  0  0  0  0
   41.5650   71.6100   59.0040 C   0  0  0  0  0  0  0  0  0  0  0  0
   42.7560   71.4250   58.2910 C   0  0  0  0  0  0  0  0  0  0  0  0
   42.8120   71.7130   56.9260 C   0  0  0  0  0  0  0  0  0  0  0  0
   41.6900   72.1690   56.3440 N   0  0  0  0  0  0  0  0  0  0  0  0
   40.5470   72.3420   57.0500 C   0  0  0  0  0  0  0  0  0  0  0  0
   40.4710   72.0690   58.3700 N   0  0  0  0  0  0  0  0  0  0  0  0
   43.6900   71.0630   58.6960 H   0  0  0  0  0  0  0  0  0  0  0  0
   43.7100   71.5820   56.3510 H   0  0  0  0  0  0  0  0  0  0  0  0
   39.3860   72.8190   56.4220 N   0  0  0  0  0  0  0  0  0  0  0  0
   38.1080   73.0360   57.1050 C   0  0  0  0  0  3  0  0  0  0  0  0
   38.1870   72.8200   58.1810 H   0  0  0  0  0  0  0  0  0  0  0  0
   37.6370   74.4560   56.8630 C   0  0  0  0  0  3  0  0  0  0  0  0
   36.6380   74.5040   56.3850 H   0  0  0  0  0  0  0  0  0  0  0  0
   38.5620   75.1150   56.0680 O   0  0  0  0  0  0  0  0  0  0  0  0
   38.6550   74.4550   54.8410 C   0  0  0  0  0  2  0  0  0  0  0  0
   39.4040   73.1340   54.9880 C   0  0  0  0  0  2  0  0  0  0  0  0
   38.4420   74.4160   60.9790 C   0  0  0  0  0  0  0  0  0  0  0  0
   39.0920   75.5790   60.5620 C   0  0  0  0  0  0  0  0  0  0  0  0
   40.5010   75.5520   60.4240 C   0  0  0  0  0  0  0  0  0  0  0  0
   41.1330   74.3930   60.7090 N   0  0  0  0  0  0  0  0  0  0  0  0
   40.4760   73.2760   61.1130 C   0  0  0  0  0  0  0  0  0  0  0  0
   39.1620   73.3130   61.2370 N   0  0  0  0  0  0  0  0  0  0  0  0
   37.3640   74.4450   61.0820 H   0  0  0  0  0  0  0  0  0  0  0  0
   38.5930   76.5130   60.3310 H   0  0  0  0  0  0  0  0  0  0  0  0
   40.9990   76.4460   60.1030 H   0  0  0  0  0  0  0  0  0  0  0  0
  1  2  1  0  0  0  0
  2  3  2  0  0  0  0
  2  7  1  0  0  0  0
  3  8  1  0  0  0  0
  4  9  1  0  0  0  0
  4  3  1  0  0  0  0
  5  4  2  0  0  0  0
  6  5  1  0  0  0  0
  6  1  2  0  0  0  0
 10  5  1  0  0  0  0
 11  6  1  0  0  0  0
 12 17  1  0  0  0  0
 12 11  2  0  0  0  0
 13 12  1  0  0  0  0
 14 13  2  0  0  0  0
 14 15  1  0  0  0  0
 15 16  2  0  0  0  0
 16 11  1  0  0  0  0
 18 13  1  0  0  0  0
 19 15  1  0  0  0  0
 19 20  1  0  0  0  0
 20 21  1  0  0  0  0
 22 20  1  0  0  0  0
 23 22  1  0  0  0  0
 24 22  1  0  0  0  0
 25 26  1  0  0  0  0
 25 24  1  0  0  0  0
 26 19  1  0  0  0  0
 27 33  1  0  0  0  0
 27 32  1  0  0  0  0
 28 27  2  0  0  0  0
 29 28  1  0  0  0  0
 29 30  2  0  0  0  0
 30 31  1  0  0  0  0
 31 32  2  0  0  0  0
 31  1  1  0  0  0  0
 34 28  1  0  0  0  0
 35 29  1  0  0  0  0
M  END
>  <minimizedAffinity>
-5.84674644

$$$$

 OpenBabel03212521083D

 35 38  0  0  0  0  0  0  0  0999 V2000
   42.5050   73.1330   59.8180 C   0  0  0  0  0  0  0  0  0  0  0  0
   42.9080   72.1000   60.6640 C   0  0  0  0  0  0  0  0  0  0  0  0
   42.2260   71.8410   61.8490 C   0  0  0  0  0  0  0  0  0  0  0  0
   41.1350   72.6210   62.1910 C   0  0  0  0  0  0  0  0  0  0  0  0
   40.7380   73.6470   61.3480 C   0  0  0  0  0  0  0  0  0  0  0  0
   41.4090   73.9060   60.1750 C   0  0  0  0  0  0  0  0  0  0  0  0
   43.7520   71.4610   60.4470 H   0  0  0  0  0  0  0  0  0  0  0  0
   42.5450   71.0310   62.5090 H   0  0  0  0  0  0  0  0  0  0  0  0
   40.6270   72.4050   63.1030 H   0  0  0  0  0  0  0  0  0  0  0  0
   39.8810   74.2510   61.6270 H   0  0  0  0  0  0  0  0  0  0  0  0
   40.9570   74.9920   59.3220 C   0  0  0  0  0  0  0  0  0  0  0  0
   41.5160   76.2150   59.7160 C   0  0  0  0  0  0  0  0  0  0  0  0
   41.2090   77.3870   59.0220 C   0  0  0  0  0  0  0  0  0  0  0  0
   40.3670   77.2840   57.9800 N   0  0  0  0  0  0  0  0  0  0  0  0
   39.8360   76.0930   57.6120 C   0  0  0  0  0  0  0  0  0  0  0  0
   40.1200   74.9490   58.2700 N   0  0  0  0  0  0  0  0  0  0  0  0
   42.1970   76.3670   60.5410 H   0  0  0  0  0  0  0  0  0  0  0  0
   41.6200   78.3390   59.2990 H   0  0  0  0  0  0  0  0  0  0  0  0
   38.9590   76.0100   56.5200 N   0  0  0  0  0  0  0  0  0  0  0  0
   38.3390   74.7660   56.0530 C   0  0  0  0  0  3  0  0  0  0  0  0
   38.6140   73.9160   56.6940 H   0  0  0  0  0  0  0  0  0  0  0  0
   36.8360   74.9420   55.9870 C   0  0  0  0  0  3  0  0  0  0  0  0
   36.4220   74.7550   54.9760 H   0  0  0  0  0  0  0  0  0  0  0  0
   36.5070   76.2280   56.3900 O   0  0  0  0  0  0  0  0  0  0  0  0
   37.1070   77.1410   55.5200 C   0  0  0  0  0  2  0  0  0  0  0  0
   38.6100   77.2190   55.7640 C   0  0  0  0  0  2  0  0  0  0  0  0
   43.5300   72.9470   56.3130 C   0  0  0  0  0  0  0  0  0  0  0  0
   44.6340   73.7990   56.2670 C   0  0  0  0  0  0  0  0  0  0  0  0
   45.0350   74.4490   57.4590 C   0  0  0  0  0  0  0  0  0  0  0  0
   44.3160   74.2010   58.5760 N   0  0  0  0  0  0  0  0  0  0  0  0
   43.2450   73.3670   58.5920 C   0  0  0  0  0  0  0  0  0  0  0  0
   42.8820   72.7670   57.4750 N   0  0  0  0  0  0  0  0  0  0  0  0
   43.2300   72.4530   55.3950 H   0  0  0  0  0  0  0  0  0  0  0  0
   45.2170   74.0030   55.3760 H   0  0  0  0  0  0  0  0  0  0  0  0
   45.8830   75.1040   57.4230 H   0  0  0  0  0  0  0  0  0  0  0  0
  1  6  2  0  0  0  0
  1  2  1  0  0  0  0
  2  3  2  0  0  0  0
  3  4  1  0  0  0  0
  3  8  1  0  0  0  0
  4  9  1  0  0  0  0
  5 10  1  0  0  0  0
  5  4  2  0  0  0  0
  6  5  1  0  0  0  0
  7  2  1  0  0  0  0
 11 12  1  0  0  0  0
 11  6  1  0  0  0  0
 12 17  1  0  0  0  0
 13 18  1  0  0  0  0
 13 12  2  0  0  0  0
 14 13  1  0  0  0  0
 15 14  2  0  0  0  0
 15 16  1  0  0  0  0
 16 11  2  0  0  0  0
 19 15  1  0  0  0  0
 20 19  1  0  0  0  0
 20 21  1  0  0  0  0
 22 20  1  0  0  0  0
 22 24  1  0  0  0  0
 23 22  1  0  0  0  0
 25 26  1  0  0  0  0
 25 24  1  0  0  0  0
 26 19  1  0  0  0  0
 27 32  1  0  0  0  0
 28 27  2  0  0  0  0
 28 29  1  0  0  0  0
 29 30  2  0  0  0  0
 30 31  1  0  0  0  0
 31  1  1  0  0  0  0
 32 31  2  0  0  0  0
 33 27  1  0  0  0  0
 34 28  1  0  0  0  0
 35 29  1  0  0  0  0
M  END
>  <minimizedAffinity>
-5.78471518

$$$$

 OpenBabel03212521083D

 35 38  0  0  0  0  0  0  0  0999 V2000
   41.8830   71.3370   60.1340 C   0  0  0  0  0  0  0  0  0  0  0  0
   42.6570   70.2520   60.5460 C   0  0  0  0  0  0  0  0  0  0  0  0
   42.9220   70.0360   61.8950 C   0  0  0  0  0  0  0  0  0  0  0  0
   42.4110   70.9110   62.8370 C   0  0  0  0  0  0  0  0  0  0  0  0
   41.6410   71.9880   62.4240 C   0  0  0  0  0  0  0  0  0  0  0  0
   41.3770   72.2050   61.0920 C   0  0  0  0  0  0  0  0  0  0  0  0
   43.0810   69.5390   59.8540 H   0  0  0  0  0  0  0  0  0  0  0  0
   43.5290   69.1860   62.2130 H   0  0  0  0  0  0  0  0  0  0  0  0
   42.6260   70.7270   63.8650 H   0  0  0  0  0  0  0  0  0  0  0  0
   41.2470   72.6670   63.1720 H   0  0  0  0  0  0  0  0  0  0  0  0
   40.5660   73.3470   60.7030 C   0  0  0  0  0  0  0  0  0  0  0  0
   39.3250   73.3340   61.3540 C   0  0  0  0  0  0  0  0  0  0  0  0
   38.3950   74.3480   61.1180 C   0  0  0  0  0  0  0  0  0  0  0  0
   38.7430   75.3160   60.2530 N   0  0  0  0  0  0  0  0  0  0  0  0
   39.9480   75.3130   59.6330 C   0  0  0  0  0  0  0  0  0  0  0  0
   40.8610   74.3410   59.8480 N   0  0  0  0  0  0  0  0  0  0  0  0
   38.9830   72.5880   62.0580 H   0  0  0  0  0  0  0  0  0  0  0  0
   37.4360   74.3670   61.6000 H   0  0  0  0  0  0  0  0  0  0  0  0
   40.2910   76.3340   58.7350 N   0  0  0  0  0  0  0  0  0  0  0  0
   41.5690   76.4100   58.0210 C   0  0  0  0  0  3  0  0  0  0  0  0
   42.2060   75.5430   58.2460 H   0  0  0  0  0  0  0  0  0  0  0  0
   41.3120   76.5330   56.5320 C   0  0  0  0  0  3  0  0  0  0  0  0
   41.7630   77.4440   56.0900 H   0  0  0  0  0  0  0  0  0  0  0  0
   39.9450   76.5350   56.3020 O   0  0  0  0  0  0  0  0  0  0  0  0
   39.3800   77.6350   56.9500 C   0  0  0  0  0  2  0  0  0  0  0  0
   39.3410   77.4190   58.4590 C   0  0  0  0  0  2  0  0  0  0  0  0
   42.3850   72.2270   56.6220 C   0  0  0  0  0  0  0  0  0  0  0  0
   41.1670   71.8800   56.0370 C   0  0  0  0  0  0  0  0  0  0  0  0
   40.1550   71.3310   56.8610 C   0  0  0  0  0  0  0  0  0  0  0  0
   40.4360   71.1760   58.1730 N   0  0  0  0  0  0  0  0  0  0  0  0
   41.6300   71.5220   58.7170 C   0  0  0  0  0  0  0  0  0  0  0  0
   42.5660   72.0340   57.9390 N   0  0  0  0  0  0  0  0  0  0  0  0
   43.1550   72.6470   55.9850 H   0  0  0  0  0  0  0  0  0  0  0  0
   40.9340   72.0010   54.9860 H   0  0  0  0  0  0  0  0  0  0  0  0
   39.2200   71.0640   56.4100 H   0  0  0  0  0  0  0  0  0  0  0  0
  1  2  2  0  0  0  0
  1  6  1  0  0  0  0
  2  3  1  0  0  0  0
  3  8  1  0  0  0  0
  3  4  2  0  0  0  0
  4  9  1  0  0  0  0
  5  4  1  0  0  0  0
  5 10  1  0  0  0  0
  6  5  2  0  0  0  0
  7  2  1  0  0  0  0
 11  6  1  0  0  0  0
 11 12  1  0  0  0  0
 12 17  1  0  0  0  0
 13 12  2  0  0  0  0
 13 18  1  0  0  0  0
 14 13  1  0  0  0  0
 15 16  1  0  0  0  0
 15 14  2  0  0  0  0
 16 11  2  0  0  0  0
 19 15  1  0  0  0  0
 20 21  1  0  0  0  0
 20 19  1  0  0  0  0
 22 20  1  0  0  0  0
 23 22  1  0  0  0  0
 24 22  1  0  0  0  0
 24 25  1  0  0  0  0
 25 26  1  0  0  0  0
 26 19  1  0  0  0  0
 27 32  1  0  0  0  0
 28 27  2  0  0  0  0
 28 29  1  0  0  0  0
 29 30  2  0  0  0  0
 30 31  1  0  0  0  0
 31  1  1  0  0  0  0
 32 31  2  0  0  0  0
 33 27  1  0  0  0  0
 34 28  1  0  0  0  0
 35 29  1  0  0  0  0
M  END
>  <minimizedAffinity>
-5.70120955

$$$$

 OpenBabel03212521083D

 35 38  0  0  0  0  0  0  0  0999 V2000
   42.4940   74.8050   58.5070 C   0  0  0  0  0  0  0  0  0  0  0  0
   43.8260   74.8750   58.9180 C   0  0  0  0  0  0  0  0  0  0  0  0
   44.8550   74.4590   58.0790 C   0  0  0  0  0  0  0  0  0  0  0  0
   44.5510   73.9690   56.8210 C   0  0  0  0  0  0  0  0  0  0  0  0
   43.2260   73.9010   56.4150 C   0  0  0  0  0  0  0  0  0  0  0  0
   42.2060   74.3110   57.2420 C   0  0  0  0  0  0  0  0  0  0  0  0
   44.1200   75.2480   59.8890 H   0  0  0  0  0  0  0  0  0  0  0  0
   45.8950   74.5160   58.4050 H   0  0  0  0  0  0  0  0  0  0  0  0
   45.3540   73.6570   56.1940 H   0  0  0  0  0  0  0  0  0  0  0  0
   43.0010   73.5150   55.4270 H   0  0  0  0  0  0  0  0  0  0  0  0
   40.8330   74.2220   56.7760 C   0  0  0  0  0  0  0  0  0  0  0  0
   40.3140   72.9340   56.9670 C   0  0  0  0  0  0  0  0  0  0  0  0
   39.0040   72.6390   56.5850 C   0  0  0  0  0  0  0  0  0  0  0  0
   38.2820   73.6300   56.0360 N   0  0  0  0  0  0  0  0  0  0  0  0
   38.8000   74.8690   55.8580 C   0  0  0  0  0  0  0  0  0  0  0  0
   40.0640   75.1760   56.2210 N   0  0  0  0  0  0  0  0  0  0  0  0
   40.8380   72.0950   57.4010 H   0  0  0  0  0  0  0  0  0  0  0  0
   38.5770   71.6620   56.7180 H   0  0  0  0  0  0  0  0  0  0  0  0
   38.0280   75.8900   55.2830 N   0  0  0  0  0  0  0  0  0  0  0  0
   38.5050   77.2560   55.0540 C   0  0  0  0  0  3  0  0  0  0  0  0
   39.5590   77.3680   55.3500 H   0  0  0  0  0  0  0  0  0  0  0  0
   38.3000   77.6290   53.6000 C   0  0  0  0  0  3  0  0  0  0  0  0
   37.6690   78.5310   53.4700 H   0  0  0  0  0  0  0  0  0  0  0  0
   37.7230   76.5610   52.9300 O   0  0  0  0  0  0  0  0  0  0  0  0
   36.4810   76.2850   53.5060 C   0  0  0  0  0  2  0  0  0  0  0  0
   36.6460   75.6190   54.8680 C   0  0  0  0  0  2  0  0  0  0  0  0
   40.1460   76.9870   60.2660 C   0  0  0  0  0  0  0  0  0  0  0  0
   39.4890   76.1070   61.1260 C   0  0  0  0  0  0  0  0  0  0  0  0
   39.8570   74.7400   61.1030 C   0  0  0  0  0  0  0  0  0  0  0  0
   40.8300   74.3710   60.2410 N   0  0  0  0  0  0  0  0  0  0  0  0
   41.4540   75.2500   59.4150 C   0  0  0  0  0  0  0  0  0  0  0  0
   41.1020   76.5220   59.4460 N   0  0  0  0  0  0  0  0  0  0  0  0
   39.8580   78.0320   60.2910 H   0  0  0  0  0  0  0  0  0  0  0  0
   38.7070   76.3930   61.8200 H   0  0  0  0  0  0  0  0  0  0  0  0
   39.3520   74.0640   61.7640 H   0  0  0  0  0  0  0  0  0  0  0  0
  1  2  1  0  0  0  0
  1 31  1  0  0  0  0
  2  7  1  0  0  0  0
  3  8  1  0  0  0  0
  3  2  2  0  0  0  0
  4  3  1  0  0  0  0
  5  4  2  0  0  0  0
  5  6  1  0  0  0  0
  6  1  2  0  0  0  0
  9  4  1  0  0  0  0
 10  5  1  0  0  0  0
 11 12  1  0  0  0  0
 11  6  1  0  0  0  0
 12 17  1  0  0  0  0
 13 18  1  0  0  0  0
 13 12  2  0  0  0  0
 14 13  1  0  0  0  0
 15 14  2  0  0  0  0
 15 16  1  0  0  0  0
 16 11  2  0  0  0  0
 19 15  1  0  0  0  0
 20 19  1  0  0  0  0
 20 21  1  0  0  0  0
 22 20  1  0  0  0  0
 23 22  1  0  0  0  0
 24 25  1  0  0  0  0
 24 22  1  0  0  0  0
 25 26  1  0  0  0  0
 26 19  1  0  0  0  0
 27 33  1  0  0  0  0
 27 28  1  0  0  0  0
 28 34  1  0  0  0  0
 29 28  2  0  0  0  0
 29 35  1  0  0  0  0
 30 29  1  0  0  0  0
 31 32  1  0  0  0  0
 31 30  2  0  0  0  0
 32 27  2  0  0  0  0
M  END
>  <minimizedAffinity>
-5.59272432

$$$$

 OpenBabel03212521083D

 35 38  0  0  0  0  0  0  0  0999 V2000
   38.3350   75.1710   57.0870 C   0  0  0  0  0  0  0  0  0  0  0  0
   37.4860   76.1200   56.5190 C   0  0  0  0  0  0  0  0  0  0  0  0
   37.2520   76.1390   55.1480 C   0  0  0  0  0  0  0  0  0  0  0  0
   37.8720   75.2030   54.3390 C   0  0  0  0  0  0  0  0  0  0  0  0
   38.7150   74.2600   54.9070 C   0  0  0  0  0  0  0  0  0  0  0  0
   38.9490   74.2380   56.2620 C   0  0  0  0  0  0  0  0  0  0  0  0
   36.9770   76.8740   57.1030 H   0  0  0  0  0  0  0  0  0  0  0  0
   36.5860   76.8850   54.7070 H   0  0  0  0  0  0  0  0  0  0  0  0
   37.6780   75.2350   53.2910 H   0  0  0  0  0  0  0  0  0  0  0  0
   39.1950   73.5320   54.2620 H   0  0  0  0  0  0  0  0  0  0  0  0
   39.8400   73.2320   56.8140 C   0  0  0  0  0  0  0  0  0  0  0  0
   39.8390   72.0680   56.0340 C   0  0  0  0  0  0  0  0  0  0  0  0
   40.6330   70.9770   56.3950 C   0  0  0  0  0  0  0  0  0  0  0  0
   41.3810   71.0980   57.5030 N   0  0  0  0  0  0  0  0  0  0  0  0
   41.3710   72.2310   58.2460 C   0  0  0  0  0  0  0  0  0  0  0  0
   40.6110   73.2970   57.9150 N   0  0  0  0  0  0  0  0  0  0  0  0
   39.2630   71.9050   55.1350 H   0  0  0  0  0  0  0  0  0  0  0  0
   40.6530   70.0710   55.8180 H   0  0  0  0  0  0  0  0  0  0  0  0
   42.1620   72.3360   59.4000 N   0  0  0  0  0  0  0  0  0  0  0  0
   42.2120   73.5210   60.2600 C   0  0  0  0  0  3  0  0  0  0  0  0
   41.5190   74.3010   59.9110 H   0  0  0  0  0  0  0  0  0  0  0  0
   41.9150   73.1220   61.6920 C   0  0  0  0  0  3  0  0  0  0  0  0
   42.7310   73.3890   62.3930 H   0  0  0  0  0  0  0  0  0  0  0  0
   41.6850   71.7560   61.7490 O   0  0  0  0  0  0  0  0  0  0  0  0
   42.8340   71.0870   61.3230 C   0  0  0  0  0  2  0  0  0  0  0  0
   43.0100   71.2120   59.8130 C   0  0  0  0  0  2  0  0  0  0  0  0
   38.1280   74.2570   60.6220 C   0  0  0  0  0  0  0  0  0  0  0  0
   38.9440   75.2070   61.2360 C   0  0  0  0  0  0  0  0  0  0  0  0
   39.5780   76.1790   60.4240 C   0  0  0  0  0  0  0  0  0  0  0  0
   39.3500   76.1230   59.0940 N   0  0  0  0  0  0  0  0  0  0  0  0
   38.5490   75.1870   58.5220 C   0  0  0  0  0  0  0  0  0  0  0  0
   37.9640   74.2880   59.2900 N   0  0  0  0  0  0  0  0  0  0  0  0
   37.6460   73.5170   61.2510 H   0  0  0  0  0  0  0  0  0  0  0  0
   39.1330   75.2590   62.3020 H   0  0  0  0  0  0  0  0  0  0  0  0
   40.2060   76.9080   60.8970 H   0  0  0  0  0  0  0  0  0  0  0  0
  1 31  1  0  0  0  0
  2  1  1  0  0  0  0
  2  7  1  0  0  0  0
  3  2  2  0  0  0  0
  4  5  2  0  0  0  0
  4  3  1  0  0  0  0
  5  6  1  0  0  0  0
  6 11  1  0  0  0  0
  6  1  2  0  0  0  0
  8  3  1  0  0  0  0
  9  4  1  0  0  0  0
 10  5  1  0  0  0  0
 11 16  1  0  0  0  0
 12 13  1  0  0  0  0
 12 11  2  0  0  0  0
 13 14  2  0  0  0  0
 14 15  1  0  0  0  0
 15 19  1  0  0  0  0
 16 15  2  0  0  0  0
 17 12  1  0  0  0  0
 18 13  1  0  0  0  0
 19 26  1  0  0  0  0
 19 20  1  0  0  0  0
 20 22  1  0  0  0  0
 21 20  1  0  0  0  0
 22 24  1  0  0  0  0
 22 23  1  0  0  0  0
 25 24  1  0  0  0  0
 26 25  1  0  0  0  0
 27 28  1  0  0  0  0
 27 33  1  0  0  0  0
 28 34  1  0  0  0  0
 29 35  1  0  0  0  0
 29 28  2  0  0  0  0
 30 29  1  0  0  0  0
 31 30  2  0  0  0  0
 31 32  1  0  0  0  0
 32 27  2  0  0  0  0
M  END
>  <minimizedAffinity>
-5.58484077

$$$$

 OpenBabel03212521083D

 35 38  0  0  0  0  0  0  0  0999 V2000
   41.4720   74.5530   59.7560 C   0  0  0  0  0  0  0  0  0  0  0  0
   40.9600   75.8190   59.4740 C   0  0  0  0  0  0  0  0  0  0  0  0
   39.7850   76.2640   60.0730 C   0  0  0  0  0  0  0  0  0  0  0  0
   39.1180   75.4360   60.9590 C   0  0  0  0  0  0  0  0  0  0  0  0
   39.6300   74.1780   61.2370 C   0  0  0  0  0  0  0  0  0  0  0  0
   40.7910   73.7350   60.6480 C   0  0  0  0  0  0  0  0  0  0  0  0
   41.4390   76.5050   58.7900 H   0  0  0  0  0  0  0  0  0  0  0  0
   39.3880   77.2560   59.8490 H   0  0  0  0  0  0  0  0  0  0  0  0
   38.2200   75.7970   61.4070 H   0  0  0  0  0  0  0  0  0  0  0  0
   39.0970   73.5400   61.9330 H   0  0  0  0  0  0  0  0  0  0  0  0
   41.2910   72.4090   60.9690 C   0  0  0  0  0  0  0  0  0  0  0  0
   41.8820   72.3810   62.2380 C   0  0  0  0  0  0  0  0  0  0  0  0
   42.4260   71.1970   62.7370 C   0  0  0  0  0  0  0  0  0  0  0  0
   42.3560   70.1070   61.9540 N   0  0  0  0  0  0  0  0  0  0  0  0
   41.7800   70.1520   60.7290 C   0  0  0  0  0  0  0  0  0  0  0  0
   41.2480   71.2870   60.2280 N   0  0  0  0  0  0  0  0  0  0  0  0
   41.9710   73.2180   62.9170 H   0  0  0  0  0  0  0  0  0  0  0  0
   42.8860   71.1430   63.7070 H   0  0  0  0  0  0  0  0  0  0  0  0
   41.7170   69.0010   59.9280 N   0  0  0  0  0  0  0  0  0  0  0  0
   41.1140   68.9580   58.5930 C   0  0  0  0  0  3  0  0  0  0  0  0
   40.7570   69.9500   58.2810 H   0  0  0  0  0  0  0  0  0  0  0  0
   42.1140   68.3970   57.6020 C   0  0  0  0  0  3  0  0  0  0  0  0
   41.7440   67.4920   57.0790 H   0  0  0  0  0  0  0  0  0  0  0  0
   43.2950   68.0970   58.2640 O   0  0  0  0  0  0  0  0  0  0  0  0
   43.0340   67.1310   59.2380 C   0  0  0  0  0  2  0  0  0  0  0  0
   42.2770   67.7360   60.4160 C   0  0  0  0  0  2  0  0  0  0  0  0
   43.7710   73.2010   57.2540 C   0  0  0  0  0  0  0  0  0  0  0  0
   45.0140   73.3270   57.8750 C   0  0  0  0  0  0  0  0  0  0  0  0
   45.0660   73.8850   59.1750 C   0  0  0  0  0  0  0  0  0  0  0  0
   43.8970   74.2650   59.7370 N   0  0  0  0  0  0  0  0  0  0  0  0
   42.7000   74.1310   59.1090 C   0  0  0  0  0  0  0  0  0  0  0  0
   42.6660   73.6080   57.8980 N   0  0  0  0  0  0  0  0  0  0  0  0
   43.7410   72.7720   56.2580 H   0  0  0  0  0  0  0  0  0  0  0  0
   45.9560   73.0260   57.4320 H   0  0  0  0  0  0  0  0  0  0  0  0
   46.0210   73.9820   59.6510 H   0  0  0  0  0  0  0  0  0  0  0  0
  1  6  1  0  0  0  0
  2  1  2  0  0  0  0
  2  3  1  0  0  0  0
  3  4  2  0  0  0  0
  4  5  1  0  0  0  0
  4  9  1  0  0  0  0
  5 10  1  0  0  0  0
  6 11  1  0  0  0  0
  6  5  2  0  0  0  0
  7  2  1  0  0  0  0
  8  3  1  0  0  0  0
 11 12  1  0  0  0  0
 12 13  2  0  0  0  0
 12 17  1  0  0  0  0
 13 18  1  0  0  0  0
 14 13  1  0  0  0  0
 15 14  2  0  0  0  0
 16 15  1  0  0  0  0
 16 11  2  0  0  0  0
 19 26  1  0  0  0  0
 19 15  1  0  0  0  0
 20 19  1  0  0  0  0
 21 20  1  0  0  0  0
 22 24  1  0  0  0  0
 22 20  1  0  0  0  0
 23 22  1  0  0  0  0
 24 25  1  0  0  0  0
 25 26  1  0  0  0  0
 27 28  2  0  0  0  0
 27 32  1  0  0  0  0
 28 29  1  0  0  0  0
 29 35  1  0  0  0  0
 29 30  2  0  0  0  0
 31 30  1  0  0  0  0
 31  1  1  0  0  0  0
 32 31  2  0  0  0  0
 33 27  1  0  0  0  0
 34 28  1  0  0  0  0
M  END
>  <minimizedAffinity>
-5.54209471

$$$$

 OpenBabel03212521083D

 35 38  0  0  0  0  0  0  0  0999 V2000
   42.1960   72.4040   59.6530 C   0  0  0  0  0  0  0  0  0  0  0  0
   43.1260   72.1520   60.6630 C   0  0  0  0  0  0  0  0  0  0  0  0
   42.7600   72.2210   62.0030 C   0  0  0  0  0  0  0  0  0  0  0  0
   41.4560   72.5440   62.3370 C   0  0  0  0  0  0  0  0  0  0  0  0
   40.5350   72.7940   61.3320 C   0  0  0  0  0  0  0  0  0  0  0  0
   40.8920   72.7260   60.0050 C   0  0  0  0  0  0  0  0  0  0  0  0
   44.1560   71.8960   60.4590 H   0  0  0  0  0  0  0  0  0  0  0  0
   43.4910   72.0230   62.7900 H   0  0  0  0  0  0  0  0  0  0  0  0
   41.1970   72.5910   63.3700 H   0  0  0  0  0  0  0  0  0  0  0  0
   39.5170   73.0460   61.6060 H   0  0  0  0  0  0  0  0  0  0  0  0
   39.8940   72.9960   58.9840 C   0  0  0  0  0  0  0  0  0  0  0  0
   39.4210   71.8090   58.4090 C   0  0  0  0  0  0  0  0  0  0  0  0
   38.4530   71.8490   57.4040 C   0  0  0  0  0  0  0  0  0  0  0  0
   38.0070   73.0580   57.0240 N   0  0  0  0  0  0  0  0  0  0  0  0
   38.4760   74.1960   57.5920 C   0  0  0  0  0  0  0  0  0  0  0  0
   39.4120   74.1790   58.5650 N   0  0  0  0  0  0  0  0  0  0  0  0
   39.7360   70.8080   58.6670 H   0  0  0  0  0  0  0  0  0  0  0  0
   38.0710   70.9570   56.9440 H   0  0  0  0  0  0  0  0  0  0  0  0
   37.9950   75.4490   57.1800 N   0  0  0  0  0  0  0  0  0  0  0  0
   38.4440   76.7280   57.7370 C   0  0  0  0  0  3  0  0  0  0  0  0
   39.2350   76.5830   58.4870 H   0  0  0  0  0  0  0  0  0  0  0  0
   38.9080   77.6350   56.6150 C   0  0  0  0  0  3  0  0  0  0  0  0
   38.3550   78.5960   56.5800 H   0  0  0  0  0  0  0  0  0  0  0  0
   38.7660   76.9760   55.4040 O   0  0  0  0  0  0  0  0  0  0  0  0
   37.4170   76.6720   55.2110 C   0  0  0  0  0  2  0  0  0  0  0  0
   36.9770   75.5340   56.1260 C   0  0  0  0  0  2  0  0  0  0  0  0
   43.1570   71.0070   56.4130 C   0  0  0  0  0  0  0  0  0  0  0  0
   43.4250   72.1460   55.6520 C   0  0  0  0  0  0  0  0  0  0  0  0
   43.2740   73.4160   56.2610 C   0  0  0  0  0  0  0  0  0  0  0  0
   42.8760   73.4440   57.5510 N   0  0  0  0  0  0  0  0  0  0  0  0
   42.6210   72.3200   58.2690 C   0  0  0  0  0  0  0  0  0  0  0  0
   42.7670   71.1430   57.6910 N   0  0  0  0  0  0  0  0  0  0  0  0
   43.2760   70.0400   55.9390 H   0  0  0  0  0  0  0  0  0  0  0  0
   43.7450   72.1320   54.6170 H   0  0  0  0  0  0  0  0  0  0  0  0
   43.4800   74.2900   55.6750 H   0  0  0  0  0  0  0  0  0  0  0  0
  1  6  2  0  0  0  0
  1  2  1  0  0  0  0
  2  3  2  0  0  0  0
  3  4  1  0  0  0  0
  3  8  1  0  0  0  0
  4  9  1  0  0  0  0
  5 10  1  0  0  0  0
  5  4  2  0  0  0  0
  6  5  1  0  0  0  0
  7  2  1  0  0  0  0
 11  6  1  0  0  0  0
 12 17  1  0  0  0  0
 12 11  2  0  0  0  0
 13 12  1  0  0  0  0
 14 13  2  0  0  0  0
 14 15  1  0  0  0  0
 15 16  2  0  0  0  0
 16 11  1  0  0  0  0
 18 13  1  0  0  0  0
 19 15  1  0  0  0  0
 19 20  1  0  0  0  0
 20 21  1  0  0  0  0
 22 20  1  0  0  0  0
 23 22  1  0  0  0  0
 24 22  1  0  0  0  0
 25 24  1  0  0  0  0
 25 26  1  0  0  0  0
 26 19  1  0  0  0  0
 27 32  1  0  0  0  0
 28 29  1  0  0  0  0
 28 27  2  0  0  0  0
 29 30  2  0  0  0  0
 30 31  1  0  0  0  0
 31  1  1  0  0  0  0
 32 31  2  0  0  0  0
 33 27  1  0  0  0  0
 34 28  1  0  0  0  0
 35 29  1  0  0  0  0
M  END
>  <minimizedAffinity>
-5.47935867

$$$$

 OpenBabel03212521083D

 35 38  0  0  0  0  0  0  0  0999 V2000
   37.9960   75.5000   56.4460 C   0  0  0  0  0  0  0  0  0  0  0  0
   36.9690   76.3480   56.0300 C   0  0  0  0  0  0  0  0  0  0  0  0
   36.6080   76.4260   54.6890 C   0  0  0  0  0  0  0  0  0  0  0  0
   37.2780   75.6530   53.7570 C   0  0  0  0  0  0  0  0  0  0  0  0
   38.2980   74.8110   54.1740 C   0  0  0  0  0  0  0  0  0  0  0  0
   38.6580   74.7300   55.4990 C   0  0  0  0  0  0  0  0  0  0  0  0
   36.4140   76.9730   56.7140 H   0  0  0  0  0  0  0  0  0  0  0  0
   35.8040   77.0910   54.3670 H   0  0  0  0  0  0  0  0  0  0  0  0
   36.9850   75.7280   52.7350 H   0  0  0  0  0  0  0  0  0  0  0  0
   38.8160   74.2110   53.4340 H   0  0  0  0  0  0  0  0  0  0  0  0
   39.7330   73.8350   55.8910 C   0  0  0  0  0  0  0  0  0  0  0  0
   39.4160   72.5010   55.6010 C   0  0  0  0  0  0  0  0  0  0  0  0
   40.3200   71.4800   55.9010 C   0  0  0  0  0  0  0  0  0  0  0  0
   41.4840   71.8340   56.4700 N   0  0  0  0  0  0  0  0  0  0  0  0
   41.7750   73.1290   56.7440 C   0  0  0  0  0  0  0  0  0  0  0  0
   40.9150   74.1310   56.4620 N   0  0  0  0  0  0  0  0  0  0  0  0
   38.5010   72.1500   55.1460 H   0  0  0  0  0  0  0  0  0  0  0  0
   40.1060   70.4490   55.6920 H   0  0  0  0  0  0  0  0  0  0  0  0
   42.9980   73.4760   57.3380 N   0  0  0  0  0  0  0  0  0  0  0  0
   43.3950   74.8470   57.6680 C   0  0  0  0  0  3  0  0  0  0  0  0
   42.5950   75.5640   57.4310 H   0  0  0  0  0  0  0  0  0  0  0  0
   43.7870   74.9240   59.1300 C   0  0  0  0  0  3  0  0  0  0  0  0
   44.8240   75.2880   59.2800 H   0  0  0  0  0  0  0  0  0  0  0  0
   43.6500   73.6720   59.7080 O   0  0  0  0  0  0  0  0  0  0  0  0
   44.5030   72.7780   59.0570 C   0  0  0  0  0  2  0  0  0  0  0  0
   43.9750   72.4320   57.6690 C   0  0  0  0  0  2  0  0  0  0  0  0
   39.3840   76.4280   59.7000 C   0  0  0  0  0  0  0  0  0  0  0  0
   38.9950   75.3650   60.5170 C   0  0  0  0  0  0  0  0  0  0  0  0
   38.2430   74.3120   59.9430 C   0  0  0  0  0  0  0  0  0  0  0  0
   37.9470   74.4030   58.6270 N   0  0  0  0  0  0  0  0  0  0  0  0
   38.3390   75.4490   57.8550 C   0  0  0  0  0  0  0  0  0  0  0  0
   39.0400   76.4240   58.4020 N   0  0  0  0  0  0  0  0  0  0  0  0
   39.9590   77.2300   60.1480 H   0  0  0  0  0  0  0  0  0  0  0  0
   39.2270   75.2840   61.5730 H   0  0  0  0  0  0  0  0  0  0  0  0
   37.9440   73.4970   60.5710 H   0  0  0  0  0  0  0  0  0  0  0  0
  1 31  1  0  0  0  0
  2  1  1  0  0  0  0
  2  7  1  0  0  0  0
  3  2  2  0  0  0  0
  4  5  2  0  0  0  0
  4  3  1  0  0  0  0
  5  6  1  0  0  0  0
  6 11  1  0  0  0  0
  6  1  2  0  0  0  0
  8  3  1  0  0  0  0
  9  4  1  0  0  0  0
 10  5  1  0  0  0  0
 11 16  1  0  0  0  0
 12 11  2  0  0  0  0
 12 13  1  0  0  0  0
 13 14  2  0  0  0  0
 14 15  1  0  0  0  0
 15 19  1  0  0  0  0
 16 15  2  0  0  0  0
 17 12  1  0  0  0  0
 18 13  1  0  0  0  0
 19 20  1  0  0  0  0
 19 26  1  0  0  0  0
 20 22  1  0  0  0  0
 21 20  1  0  0  0  0
 22 23  1  0  0  0  0
 22 24  1  0  0  0  0
 25 24  1  0  0  0  0
 26 25  1  0  0  0  0
 27 33  1  0  0  0  0
 27 28  1  0  0  0  0
 28 34  1  0  0  0  0
 29 28  2  0  0  0  0
 29 35  1  0  0  0  0
 30 29  1  0  0  0  0
 31 32  1  0  0  0  0
 31 30  2  0  0  0  0
 32 27  2  0  0  0  0
M  END
>  <minimizedAffinity>
-5.45399332

$$$$
