
 OpenBabel03212521053D

 35 38  0  0  0  0  0  0  0  0999 V2000
   41.8130   84.2350   61.5900 C   0  0  0  0  0  0  0  0  0  0  0  0
   41.4580   83.9580   62.9100 C   0  0  0  0  0  0  0  0  0  0  0  0
   40.1670   83.5510   63.2320 C   0  0  0  0  0  0  0  0  0  0  0  0
   39.2240   83.4210   62.2270 C   0  0  0  0  0  0  0  0  0  0  0  0
   39.5810   83.6960   60.9160 C   0  0  0  0  0  0  0  0  0  0  0  0
   40.8560   84.0980   60.5940 C   0  0  0  0  0  0  0  0  0  0  0  0
   42.1530   84.0440   63.7330 H   0  0  0  0  0  0  0  0  0  0  0  0
   39.8930   83.3360   64.2670 H   0  0  0  0  0  0  0  0  0  0  0  0
   38.2410   83.1070   62.4960 H   0  0  0  0  0  0  0  0  0  0  0  0
   38.8330   83.5900   60.1380 H   0  0  0  0  0  0  0  0  0  0  0  0
   41.1850   84.3770   59.2060 C   0  0  0  0  0  0  0  0  0  0  0  0
   40.7130   85.6360   58.8140 C   0  0  0  0  0  0  0  0  0  0  0  0
   40.9270   86.0960   57.5130 C   0  0  0  0  0  0  0  0  0  0  0  0
   41.5940   85.2860   56.6740 N   0  0  0  0  0  0  0  0  0  0  0  0
   42.0440   84.0710   57.0700 C   0  0  0  0  0  0  0  0  0  0  0  0
   41.8480   83.6080   58.3230 N   0  0  0  0  0  0  0  0  0  0  0  0
   40.1710   86.3350   59.4360 H   0  0  0  0  0  0  0  0  0  0  0  0
   40.5780   87.0560   57.1820 H   0  0  0  0  0  0  0  0  0  0  0  0
   42.7400   83.2420   56.1770 N   0  0  0  0  0  0  0  0  0  0  0  0
   42.7230   81.7770   56.2280 C   0  0  0  0  0  3  0  0  0  0  0  0
   42.0620   81.4110   57.0280 H   0  0  0  0  0  0  0  0  0  0  0  0
   42.3100   81.2270   54.8780 C   0  0  0  0  0  3  0  0  0  0  0  0
   43.0670   80.5470   54.4390 H   0  0  0  0  0  0  0  0  0  0  0  0
   42.0750   82.2790   54.0070 O   0  0  0  0  0  0  0  0  0  0  0  0
   43.2530   83.0120   53.8550 C   0  0  0  0  0  2  0  0  0  0  0  0
   43.5500   83.8330   55.1060 C   0  0  0  0  0  2  0  0  0  0  0  0
   45.3660   84.0920   60.7370 C   0  0  0  0  0  0  0  0  0  0  0  0
   45.7420   85.4350   60.7510 C   0  0  0  0  0  0  0  0  0  0  0  0
   44.7610   86.4080   61.0580 C   0  0  0  0  0  0  0  0  0  0  0  0
   43.5100   85.9700   61.3200 N   0  0  0  0  0  0  0  0  0  0  0  0
   43.1710   84.6550   61.3000 C   0  0  0  0  0  0  0  0  0  0  0  0
   44.0950   83.7580   61.0130 N   0  0  0  0  0  0  0  0  0  0  0  0
   46.1250   83.3540   60.5010 H   0  0  0  0  0  0  0  0  0  0  0  0
   46.7430   85.7960   60.5420 H   0  0  0  0  0  0  0  0  0  0  0  0
   45.0510   87.4400   61.0680 H   0  0  0  0  0  0  0  0  0  0  0  0
  1  2  1  0  0  0  0
  2  3  2  0  0  0  0
  2  7  1  0  0  0  0
  3  8  1  0  0  0  0
  4  9  1  0  0  0  0
  4  3  1  0  0  0  0
  5  4  2  0  0  0  0
  6  5  1  0  0  0  0
  6  1  2  0  0  0  0
 10  5  1  0  0  0  0
 11  6  1  0  0  0  0
 12 11  1  0  0  0  0
 12 17  1  0  0  0  0
 13 12  2  0  0  0  0
 14 15  2  0  0  0  0
 14 13  1  0  0  0  0
 15 16  1  0  0  0  0
 16 11  2  0  0  0  0
 18 13  1  0  0  0  0
 19 20  1  0  0  0  0
 19 15  1  0  0  0  0
 20 21  1  0  0  0  0
 22 20  1  0  0  0  0
 23 22  1  0  0  0  0
 24 22  1  0  0  0  0
 25 24  1  0  0  0  0
 25 26  1  0  0  0  0
 26 19  1  0  0  0  0
 27 28  2  0  0  0  0
 27 32  1  0  0  0  0
 28 29  1  0  0  0  0
 29 35  1  0  0  0  0
 29 30  2  0  0  0  0
 31 30  1  0  0  0  0
 31  1  1  0  0  0  0
 32 31  2  0  0  0  0
 33 27  1  0  0  0  0
 34 28  1  0  0  0  0
M  END
>  <minimizedAffinity>
-5.69964075

>  <minimizedRMSD>
0.120536283

$$$$
