
 OpenBabel03212521053D

 35 38  0  0  0  0  0  0  0  0999 V2000
   41.8190   84.2400   61.5600 C   0  0  0  0  0  0  0  0  0  0  0  0
   41.4820   83.9310   62.8780 C   0  0  0  0  0  0  0  0  0  0  0  0
   40.1990   83.5030   63.2040 C   0  0  0  0  0  0  0  0  0  0  0  0
   39.2470   83.3850   62.2070 C   0  0  0  0  0  0  0  0  0  0  0  0
   39.5850   83.6930   60.8980 C   0  0  0  0  0  0  0  0  0  0  0  0
   40.8530   84.1160   60.5710 C   0  0  0  0  0  0  0  0  0  0  0  0
   42.1850   84.0050   63.6950 H   0  0  0  0  0  0  0  0  0  0  0  0
   39.9390   83.2620   64.2370 H   0  0  0  0  0  0  0  0  0  0  0  0
   38.2700   83.0550   62.4790 H   0  0  0  0  0  0  0  0  0  0  0  0
   38.8300   83.5970   60.1260 H   0  0  0  0  0  0  0  0  0  0  0  0
   41.1640   84.4290   59.1860 C   0  0  0  0  0  0  0  0  0  0  0  0
   40.6950   85.7010   58.8350 C   0  0  0  0  0  0  0  0  0  0  0  0
   40.8940   86.1930   57.5440 C   0  0  0  0  0  0  0  0  0  0  0  0
   41.5430   85.4010   56.6740 N   0  0  0  0  0  0  0  0  0  0  0  0
   41.9900   84.1730   57.0310 C   0  0  0  0  0  0  0  0  0  0  0  0
   41.8080   83.6790   58.2750 N   0  0  0  0  0  0  0  0  0  0  0  0
   40.1680   86.3860   59.4830 H   0  0  0  0  0  0  0  0  0  0  0  0
   40.5460   87.1640   57.2430 H   0  0  0  0  0  0  0  0  0  0  0  0
   42.6660   83.3630   56.1070 N   0  0  0  0  0  0  0  0  0  0  0  0
   43.2210   83.8440   54.8390 C   0  0  0  0  0  3  0  0  0  0  0  0
   43.0790   84.9290   54.7260 H   0  0  0  0  0  0  0  0  0  0  0  0
   44.6870   83.4690   54.7520 C   0  0  0  0  0  3  0  0  0  0  0  0
   44.9230   82.8510   53.8620 H   0  0  0  0  0  0  0  0  0  0  0  0
   45.0530   82.7840   55.9010 O   0  0  0  0  0  0  0  0  0  0  0  0
   44.2940   81.6170   55.9930 C   0  0  0  0  0  2  0  0  0  0  0  0
   42.8550   81.9330   56.3830 C   0  0  0  0  0  2  0  0  0  0  0  0
   45.3530   84.1590   60.6220 C   0  0  0  0  0  0  0  0  0  0  0  0
   45.7270   85.5000   60.7050 C   0  0  0  0  0  0  0  0  0  0  0  0
   44.7500   86.4510   61.0900 C   0  0  0  0  0  0  0  0  0  0  0  0
   43.5070   85.9940   61.3540 N   0  0  0  0  0  0  0  0  0  0  0  0
   43.1700   84.6810   61.2650 C   0  0  0  0  0  0  0  0  0  0  0  0
   44.0890   83.8050   60.9070 N   0  0  0  0  0  0  0  0  0  0  0  0
   46.1080   83.4380   60.3270 H   0  0  0  0  0  0  0  0  0  0  0  0
   46.7220   85.8760   60.4950 H   0  0  0  0  0  0  0  0  0  0  0  0
   45.0380   87.4810   61.1530 H   0  0  0  0  0  0  0  0  0  0  0  0
  1  2  1  0  0  0  0
  2  3  2  0  0  0  0
  2  7  1  0  0  0  0
  3  8  1  0  0  0  0
  4  9  1  0  0  0  0
  4  3  1  0  0  0  0
  5  4  2  0  0  0  0
  6  5  1  0  0  0  0
  6  1  2  0  0  0  0
 10  5  1  0  0  0  0
 11  6  1  0  0  0  0
 12 11  1  0  0  0  0
 12 17  1  0  0  0  0
 13 12  2  0  0  0  0
 14 15  2  0  0  0  0
 14 13  1  0  0  0  0
 15 16  1  0  0  0  0
 16 11  2  0  0  0  0
 18 13  1  0  0  0  0
 19 26  1  0  0  0  0
 19 15  1  0  0  0  0
 20 19  1  0  0  0  0
 21 20  1  0  0  0  0
 22 20  1  0  0  0  0
 22 24  1  0  0  0  0
 23 22  1  0  0  0  0
 24 25  1  0  0  0  0
 25 26  1  0  0  0  0
 27 28  2  0  0  0  0
 27 32  1  0  0  0  0
 28 29  1  0  0  0  0
 29 35  1  0  0  0  0
 29 30  2  0  0  0  0
 31 30  1  0  0  0  0
 31  1  1  0  0  0  0
 32 31  2  0  0  0  0
 33 27  1  0  0  0  0
 34 28  1  0  0  0  0
M  END
>  <minimizedAffinity>
-5.60076618

>  <minimizedRMSD>
0.214141697

$$$$
