
 OpenBabel03212521053D

 35 38  0  0  0  0  0  0  0  0999 V2000
   41.8160   84.2390   61.5620 C   0  0  0  0  0  0  0  0  0  0  0  0
   41.4820   83.9250   62.8800 C   0  0  0  0  0  0  0  0  0  0  0  0
   40.1990   83.4980   63.2090 C   0  0  0  0  0  0  0  0  0  0  0  0
   39.2440   83.3850   62.2140 C   0  0  0  0  0  0  0  0  0  0  0  0
   39.5790   83.6970   60.9050 C   0  0  0  0  0  0  0  0  0  0  0  0
   40.8460   84.1190   60.5760 C   0  0  0  0  0  0  0  0  0  0  0  0
   42.1880   83.9960   63.6950 H   0  0  0  0  0  0  0  0  0  0  0  0
   39.9420   83.2540   64.2420 H   0  0  0  0  0  0  0  0  0  0  0  0
   38.2670   83.0560   62.4880 H   0  0  0  0  0  0  0  0  0  0  0  0
   38.8210   83.6050   60.1350 H   0  0  0  0  0  0  0  0  0  0  0  0
   41.1530   84.4360   59.1910 C   0  0  0  0  0  0  0  0  0  0  0  0
   40.6900   85.7130   58.8470 C   0  0  0  0  0  0  0  0  0  0  0  0
   40.8870   86.2100   57.5570 C   0  0  0  0  0  0  0  0  0  0  0  0
   41.5270   85.4180   56.6810 N   0  0  0  0  0  0  0  0  0  0  0  0
   41.9670   84.1850   57.0310 C   0  0  0  0  0  0  0  0  0  0  0  0
   41.7880   83.6860   58.2730 N   0  0  0  0  0  0  0  0  0  0  0  0
   40.1700   86.3990   59.5010 H   0  0  0  0  0  0  0  0  0  0  0  0
   40.5440   87.1850   57.2620 H   0  0  0  0  0  0  0  0  0  0  0  0
   42.6350   83.3750   56.1000 N   0  0  0  0  0  0  0  0  0  0  0  0
   42.1680   82.0530   55.6740 C   0  0  0  0  0  3  0  0  0  0  0  0
   41.2070   81.7960   56.1440 H   0  0  0  0  0  0  0  0  0  0  0  0
   42.0710   82.0110   54.1620 C   0  0  0  0  0  3  0  0  0  0  0  0
   42.6910   81.2110   53.7100 H   0  0  0  0  0  0  0  0  0  0  0  0
   42.4530   83.2410   53.6460 O   0  0  0  0  0  0  0  0  0  0  0  0
   43.7780   83.4890   54.0060 C   0  0  0  0  0  2  0  0  0  0  0  0
   43.8850   83.8380   55.4860 C   0  0  0  0  0  2  0  0  0  0  0  0
   45.3450   84.1560   60.6070 C   0  0  0  0  0  0  0  0  0  0  0  0
   45.7220   85.4960   60.6980 C   0  0  0  0  0  0  0  0  0  0  0  0
   44.7490   86.4460   61.0940 C   0  0  0  0  0  0  0  0  0  0  0  0
   43.5060   85.9900   61.3610 N   0  0  0  0  0  0  0  0  0  0  0  0
   43.1660   84.6790   61.2640 C   0  0  0  0  0  0  0  0  0  0  0  0
   44.0820   83.8040   60.8950 N   0  0  0  0  0  0  0  0  0  0  0  0
   46.0960   83.4360   60.3040 H   0  0  0  0  0  0  0  0  0  0  0  0
   46.7170   85.8710   60.4870 H   0  0  0  0  0  0  0  0  0  0  0  0
   45.0400   87.4760   61.1640 H   0  0  0  0  0  0  0  0  0  0  0  0
  1  2  1  0  0  0  0
  2  3  2  0  0  0  0
  2  7  1  0  0  0  0
  3  8  1  0  0  0  0
  4  9  1  0  0  0  0
  4  3  1  0  0  0  0
  5  4  2  0  0  0  0
  6  5  1  0  0  0  0
  6  1  2  0  0  0  0
 10  5  1  0  0  0  0
 11  6  1  0  0  0  0
 12 11  1  0  0  0  0
 12 17  1  0  0  0  0
 13 12  2  0  0  0  0
 14 15  2  0  0  0  0
 14 13  1  0  0  0  0
 15 16  1  0  0  0  0
 16 11  2  0  0  0  0
 18 13  1  0  0  0  0
 19 15  1  0  0  0  0
 20 19  1  0  0  0  0
 20 21  1  0  0  0  0
 22 20  1  0  0  0  0
 23 22  1  0  0  0  0
 24 25  1  0  0  0  0
 24 22  1  0  0  0  0
 25 26  1  0  0  0  0
 26 19  1  0  0  0  0
 27 28  2  0  0  0  0
 27 32  1  0  0  0  0
 28 29  1  0  0  0  0
 29 35  1  0  0  0  0
 29 30  2  0  0  0  0
 31 30  1  0  0  0  0
 31  1  1  0  0  0  0
 32 31  2  0  0  0  0
 33 27  1  0  0  0  0
 34 28  1  0  0  0  0
M  END
>  <minimizedAffinity>
-5.7652545

>  <minimizedRMSD>
0.250706464

$$$$
