
 OpenBabel03212520313D

 44 47  0  0  1  0  0  0  0  0999 V2000
   42.2030   82.5120   61.5750 C   0  0  0  0  0  0  0  0  0  0  0  0
   42.5340   81.2760   61.0540 C   0  0  0  0  0  0  0  0  0  0  0  0
   43.6700   80.6200   61.4700 C   0  0  0  0  0  0  0  0  0  0  0  0
   44.5430   81.1450   62.4250 C   0  0  0  0  0  0  0  0  0  0  0  0
   44.2360   82.3690   62.9560 C   0  0  0  0  0  0  0  0  0  0  0  0
   43.0990   83.0210   62.5360 C   0  0  0  0  0  0  0  0  0  0  0  0
   43.9120   79.6440   61.0460 H   0  0  0  0  0  0  0  0  0  0  0  0
   45.4050   80.5630   62.6890 H   0  0  0  0  0  0  0  0  0  0  0  0
   44.8820   82.8140   63.6960 H   0  0  0  0  0  0  0  0  0  0  0  0
   42.8250   83.9940   62.9360 H   0  0  0  0  0  0  0  0  0  0  0  0
   39.9940   79.1270   59.4380 C   0  0  0  0  0  0  0  0  0  0  0  0
   40.1550   79.4720   58.0900 C   0  0  0  0  0  0  0  0  0  0  0  0
   41.1380   80.4300   57.7780 C   0  0  0  0  0  0  0  0  0  0  0  0
   41.8480   80.9390   58.8150 N   0  0  0  0  0  0  0  0  0  0  0  0
   41.6890   80.6090   60.0750 C   0  0  0  0  0  0  0  0  0  0  0  0
   40.7540   79.6960   60.3850 N   0  0  0  0  0  0  0  0  0  0  0  0
   39.2350   78.3860   59.6790 H   0  0  0  0  0  0  0  0  0  0  0  0
   41.2680   80.7020   56.7400 H   0  0  0  0  0  0  0  0  0  0  0  0
   39.3480   78.8700   57.0860 N   0  0  0  0  0  0  0  0  0  0  0  0
   38.2800   79.5980   56.7470 C   0  0  0  0  0  0  0  0  0  0  0  0
   37.4220   79.0940   55.7670 C   0  0  0  0  0  0  0  0  0  0  0  0
   37.7110   77.8540   55.1830 C   0  0  0  0  0  0  0  0  0  0  0  0
   37.0060   77.3220   54.3030 O   0  0  0  0  0  0  0  0  0  0  0  0
   38.8220   77.1820   55.5920 N   0  0  0  0  0  0  0  0  0  0  0  0
   39.6520   77.6760   56.5440 C   0  0  0  0  0  0  0  0  0  0  0  0
   40.6700   77.0700   56.9230 O   0  0  0  0  0  0  0  0  0  0  0  0
   38.0280   80.5600   57.1790 H   0  0  0  0  0  0  0  0  0  0  0  0
   36.5480   79.6240   55.4490 H   0  0  0  0  0  0  0  0  0  0  0  0
   39.0690   76.2520   55.1760 H   0  0  0  0  0  0  0  0  0  0  0  0
   40.7980   83.3690   61.0840 S   0  0  0  0  0  0  0  0  0  0  0  0
   40.0050   83.7870   62.3140 O   0  0  0  0  0  0  0  0  0  0  0  0
   39.8390   82.3330   60.4750 O   0  0  0  0  0  0  0  0  0  0  0  0
   42.1430   84.7180   59.1920 C   0  0  2  0  0  3  0  0  0  0  0  0
   40.9130   84.8050   60.1310 C   0  0  1  0  0  3  0  0  0  0  0  0
   39.8420   84.8390   59.2280 O   0  0  0  0  0  0  0  0  0  0  0  0
   39.7630   85.9560   58.4560 C   0  0  0  0  0  2  0  0  0  0  0  0
   41.0340   86.3290   57.7490 C   0  0  1  0  0  3  0  0  0  0  0  0
   42.2600   86.0870   58.5590 C   0  0  2  0  0  3  0  0  0  0  0  0
   42.0000   83.6980   58.2790 O   0  0  0  0  0  0  0  0  0  0  0  0
   42.5780   82.9390   58.6050 H   0  0  0  0  0  0  0  0  0  0  0  0
   41.1920   85.7070   56.5150 O   0  0  0  0  0  0  0  0  0  0  0  0
   42.0900   85.9770   56.1970 H   0  0  0  0  0  0  0  0  0  0  0  0
   43.3950   86.2370   57.8060 O   0  0  0  0  0  0  0  0  0  0  0  0
   43.7230   85.3970   57.4360 H   0  0  0  0  0  0  0  0  0  0  0  0
  1  6  1  0  0  0  0
  2  3  1  0  0  0  0
  2  1  2  0  0  0  0
  3  4  2  0  0  0  0
  4  8  1  0  0  0  0
  4  5  1  0  0  0  0
  5  9  1  0  0  0  0
  6 10  1  0  0  0  0
  6  5  2  0  0  0  0
  7  3  1  0  0  0  0
 11 17  1  0  0  0  0
 11 16  1  0  0  0  0
 12 11  2  0  0  0  0
 13 12  1  0  0  0  0
 13 14  2  0  0  0  0
 14 15  1  0  0  0  0
 15 16  2  0  0  0  0
 15  2  1  0  0  0  0
 18 13  1  0  0  0  0
 19 12  1  0  0  0  0
 20 19  1  0  0  0  0
 20 27  1  0  0  0  0
 21 20  2  0  0  0  0
 22 24  1  0  0  0  0
 22 21  1  0  0  0  0
 23 22  2  0  0  0  0
 24 25  1  0  0  0  0
 25 26  2  0  0  0  0
 25 19  1  0  0  0  0
 28 21  1  0  0  0  0
 29 24  1  0  0  0  0
 30  1  1  0  0  0  0
 30 31  2  0  0  0  0
 32 30  2  0  0  0  0
 33 39  1  6  0  0  0
 33 34  1  0  0  0  0
 34 30  1  1  0  0  0
 35 34  1  0  0  0  0
 36 35  1  0  0  0  0
 37 41  1  6  0  0  0
 37 36  1  0  0  0  0
 37 38  1  0  0  0  0
 38 43  1  6  0  0  0
 38 33  1  0  0  0  0
 39 40  1  0  0  0  0
 42 41  1  0  0  0  0
 44 43  1  0  0  0  0
M  END
>  <minimizedAffinity>
-6.62300158

>  <minimizedRMSD>
2.25809216

$$$$
