
 OpenBabel03212520403D

 30 32  0  0  1  0  0  0  0  0999 V2000
   40.8300   83.9150   59.3650 C   0  0  1  0  0  0  0  0  0  0  0  0
   41.1450   85.3540   58.9690 C   0  0  0  0  0  0  0  0  0  0  0  0
   41.3060   84.1830   57.9990 C   0  0  1  0  0  0  0  0  0  0  0  0
   39.7600   83.8030   59.6360 H   0  0  0  0  0  0  0  0  0  0  0  0
   42.0970   85.8130   59.2620 H   0  0  0  0  0  0  0  0  0  0  0  0
   40.3290   86.0610   58.7620 H   0  0  0  0  0  0  0  0  0  0  0  0
   40.5290   84.0870   57.1940 H   0  0  0  0  0  0  0  0  0  0  0  0
   41.7660   83.4230   60.3260 O   0  0  0  0  0  0  0  0  0  0  0  0
   40.5640   83.2530   63.7370 C   0  0  0  0  0  0  0  0  0  0  0  0
   41.3680   84.2050   64.3660 C   0  0  0  0  0  0  0  0  0  0  0  0
   42.3230   84.8960   63.5840 C   0  0  0  0  0  0  0  0  0  0  0  0
   42.3500   84.5460   62.2820 N   0  0  0  0  0  0  0  0  0  0  0  0
   41.5910   83.6430   61.6720 C   0  0  0  0  0  0  0  0  0  0  0  0
   40.6770   82.9740   62.3980 N   0  0  0  0  0  0  0  0  0  0  0  0
   39.8150   82.7010   64.3160 H   0  0  0  0  0  0  0  0  0  0  0  0
   41.2700   84.4140   65.4190 H   0  0  0  0  0  0  0  0  0  0  0  0
   42.9670   85.6390   64.0140 H   0  0  0  0  0  0  0  0  0  0  0  0
   42.5940   83.7790   57.6790 O   0  0  0  0  0  0  0  0  0  0  0  0
   41.9530   83.6090   55.3640 C   0  0  2  0  0  3  0  0  0  0  0  0
   42.6980   83.0090   56.5490 C   0  0  1  0  0  3  0  0  0  0  0  0
   44.0350   82.7780   56.2220 O   0  0  0  0  0  0  0  0  0  0  0  0
   44.5670   83.8980   55.5900 C   0  0  0  0  0  2  0  0  0  0  0  0
   44.0560   83.9400   54.1750 C   0  0  1  0  0  3  0  0  0  0  0  0
   42.7420   83.1910   54.1410 C   0  0  2  0  0  3  0  0  0  0  0  0
   42.0000   85.0100   55.4000 O   0  0  0  0  0  0  0  0  0  0  0  0
   41.4770   85.2520   56.2300 H   0  0  0  0  0  0  0  0  0  0  0  0
   43.8030   85.2910   53.8810 O   0  0  0  0  0  0  0  0  0  0  0  0
   43.8990   85.5220   52.9430 H   0  0  0  0  0  0  0  0  0  0  0  0
   41.9910   83.4960   53.0060 O   0  0  0  0  0  0  0  0  0  0  0  0
   41.0820   83.1190   53.1790 H   0  0  0  0  0  0  0  0  0  0  0  0
  1  4  1  1  0  0  0
  1  8  1  0  0  0  0
  2  5  1  0  0  0  0
  2  1  1  0  0  0  0
  3  7  1  6  0  0  0
  3  2  1  0  0  0  0
  3  1  1  0  0  0  0
  6  2  1  0  0  0  0
  8 13  1  0  0  0  0
  9 15  1  0  0  0  0
  9 10  1  0  0  0  0
 10 16  1  0  0  0  0
 11 17  1  0  0  0  0
 11 10  2  0  0  0  0
 12 11  1  0  0  0  0
 13 12  2  0  0  0  0
 13 14  1  0  0  0  0
 14  9  2  0  0  0  0
 18  3  1  0  0  0  0
 19 25  1  1  0  0  0
 19 20  1  0  0  0  0
 20 18  1  1  0  0  0
 21 20  1  0  0  0  0
 22 21  1  0  0  0  0
 23 27  1  1  0  0  0
 23 22  1  0  0  0  0
 24 29  1  6  0  0  0
 24 23  1  0  0  0  0
 24 19  1  0  0  0  0
 25 26  1  0  0  0  0
 28 27  1  0  0  0  0
 29 30  1  0  0  0  0
M  END
>  <minimizedAffinity>
-4.21538353

>  <minimizedRMSD>
1.63880932

$$$$
