
 OpenBabel03212520413D

 30 32  0  0  1  0  0  0  0  0999 V2000
   43.5550   85.8450   60.9100 C   0  0  1  0  0  0  0  0  0  0  0  0
   45.0530   85.9010   61.1910 C   0  0  0  0  0  0  0  0  0  0  0  0
   44.4780   86.0520   59.7830 C   0  0  1  0  0  0  0  0  0  0  0  0
   43.0220   86.6660   61.4310 H   0  0  0  0  0  0  0  0  0  0  0  0
   45.6260   84.9760   61.3320 H   0  0  0  0  0  0  0  0  0  0  0  0
   45.4970   86.7990   61.6450 H   0  0  0  0  0  0  0  0  0  0  0  0
   44.4780   87.0880   59.3490 H   0  0  0  0  0  0  0  0  0  0  0  0
   43.0340   84.5330   61.1280 O   0  0  0  0  0  0  0  0  0  0  0  0
   40.0570   83.5510   62.9400 C   0  0  0  0  0  0  0  0  0  0  0  0
   40.4230   83.8360   64.2560 C   0  0  0  0  0  0  0  0  0  0  0  0
   41.7110   84.3700   64.4920 C   0  0  0  0  0  0  0  0  0  0  0  0
   42.4620   84.5470   63.3860 N   0  0  0  0  0  0  0  0  0  0  0  0
   42.1260   84.2810   62.1290 C   0  0  0  0  0  0  0  0  0  0  0  0
   40.9050   83.7730   61.8840 N   0  0  0  0  0  0  0  0  0  0  0  0
   39.0650   83.1370   62.7250 H   0  0  0  0  0  0  0  0  0  0  0  0
   39.7470   83.6560   65.0770 H   0  0  0  0  0  0  0  0  0  0  0  0
   42.0460   84.6080   65.4830 H   0  0  0  0  0  0  0  0  0  0  0  0
   44.6510   85.0000   58.8960 O   0  0  0  0  0  0  0  0  0  0  0  0
   44.5350   84.0860   56.6700 C   0  0  2  0  0  3  0  0  0  0  0  0
   44.3670   85.2920   57.5860 C   0  0  1  0  0  3  0  0  0  0  0  0
   43.0850   85.8290   57.4600 O   0  0  0  0  0  0  0  0  0  0  0  0
   42.1370   84.8090   57.5090 C   0  0  0  0  0  2  0  0  0  0  0  0
   42.1440   84.0830   56.1910 C   0  0  1  0  0  3  0  0  0  0  0  0
   43.5110   84.2720   55.5700 C   0  0  2  0  0  3  0  0  0  0  0  0
   44.1860   82.9010   57.3340 O   0  0  0  0  0  0  0  0  0  0  0  0
   44.8780   82.8150   58.0630 H   0  0  0  0  0  0  0  0  0  0  0  0
   41.9770   82.7190   56.4850 O   0  0  0  0  0  0  0  0  0  0  0  0
   41.5340   82.2100   55.7860 H   0  0  0  0  0  0  0  0  0  0  0  0
   43.7680   83.3390   54.5660 O   0  0  0  0  0  0  0  0  0  0  0  0
   44.7450   83.4200   54.3730 H   0  0  0  0  0  0  0  0  0  0  0  0
  1  8  1  0  0  0  0
  1  2  1  0  0  0  0
  1  4  1  1  0  0  0
  2  5  1  0  0  0  0
  2  6  1  0  0  0  0
  3  7  1  6  0  0  0
  3  1  1  0  0  0  0
  3  2  1  0  0  0  0
  8 13  1  0  0  0  0
  9 10  1  0  0  0  0
 10 11  2  0  0  0  0
 10 16  1  0  0  0  0
 11 17  1  0  0  0  0
 12 11  1  0  0  0  0
 13 12  2  0  0  0  0
 14 13  1  0  0  0  0
 14  9  2  0  0  0  0
 15  9  1  0  0  0  0
 18  3  1  0  0  0  0
 19 25  1  1  0  0  0
 19 20  1  0  0  0  0
 20 18  1  1  0  0  0
 21 22  1  0  0  0  0
 21 20  1  0  0  0  0
 23 27  1  1  0  0  0
 23 22  1  0  0  0  0
 24 29  1  6  0  0  0
 24 23  1  0  0  0  0
 24 19  1  0  0  0  0
 25 26  1  0  0  0  0
 28 27  1  0  0  0  0
 30 29  1  0  0  0  0
M  END
>  <minimizedAffinity>
-4.22211599

>  <minimizedRMSD>
1.52472556

$$$$
