
 OpenBabel03212520403D

 30 32  0  0  1  0  0  0  0  0999 V2000
   42.6420   85.4040   59.9710 C   0  0  1  0  0  0  0  0  0  0  0  0
   43.7470   85.4690   58.9210 C   0  0  0  0  0  0  0  0  0  0  0  0
   42.3500   84.9290   58.6100 C   0  0  1  0  0  0  0  0  0  0  0  0
   42.3850   86.4190   60.3400 H   0  0  0  0  0  0  0  0  0  0  0  0
   44.5290   84.7010   58.8910 H   0  0  0  0  0  0  0  0  0  0  0  0
   44.0190   86.4310   58.4640 H   0  0  0  0  0  0  0  0  0  0  0  0
   41.6770   85.5940   58.0050 H   0  0  0  0  0  0  0  0  0  0  0  0
   42.9390   84.4370   60.9790 O   0  0  0  0  0  0  0  0  0  0  0  0
   40.0240   83.5980   62.9560 C   0  0  0  0  0  0  0  0  0  0  0  0
   40.4920   83.8130   64.2530 C   0  0  0  0  0  0  0  0  0  0  0  0
   41.8270   84.2510   64.4180 C   0  0  0  0  0  0  0  0  0  0  0  0
   42.5160   84.4140   63.2700 N   0  0  0  0  0  0  0  0  0  0  0  0
   42.0830   84.2130   62.0310 C   0  0  0  0  0  0  0  0  0  0  0  0
   40.8160   83.7970   61.8530 N   0  0  0  0  0  0  0  0  0  0  0  0
   38.9940   83.2590   62.7950 H   0  0  0  0  0  0  0  0  0  0  0  0
   39.8600   83.6520   65.1110 H   0  0  0  0  0  0  0  0  0  0  0  0
   42.2410   84.4330   65.3910 H   0  0  0  0  0  0  0  0  0  0  0  0
   42.2100   83.5610   58.4260 O   0  0  0  0  0  0  0  0  0  0  0  0
   41.2870   82.0520   56.7920 C   0  0  2  0  0  3  0  0  0  0  0  0
   41.0560   83.1750   57.7940 C   0  0  1  0  0  3  0  0  0  0  0  0
   40.0770   82.8120   58.7220 O   0  0  0  0  0  0  0  0  0  0  0  0
   40.3290   81.5270   59.1960 C   0  0  0  0  0  2  0  0  0  0  0  0
   39.9300   80.5360   58.1370 C   0  0  1  0  0  3  0  0  0  0  0  0
   40.0090   81.2390   56.7980 C   0  0  2  0  0  3  0  0  0  0  0  0
   42.3020   81.1900   57.2310 O   0  0  0  0  0  0  0  0  0  0  0  0
   43.1320   81.7650   57.2260 H   0  0  0  0  0  0  0  0  0  0  0  0
   40.8950   79.5160   58.1570 O   0  0  0  0  0  0  0  0  0  0  0  0
   40.5660   78.6450   57.8810 H   0  0  0  0  0  0  0  0  0  0  0  0
   40.0530   80.3410   55.7330 O   0  0  0  0  0  0  0  0  0  0  0  0
   40.3050   80.8870   54.9350 H   0  0  0  0  0  0  0  0  0  0  0  0
  1  4  1  1  0  0  0
  1  8  1  0  0  0  0
  2  1  1  0  0  0  0
  3  7  1  6  0  0  0
  3  2  1  0  0  0  0
  3  1  1  0  0  0  0
  5  2  1  0  0  0  0
  6  2  1  0  0  0  0
  8 13  1  0  0  0  0
  9 10  1  0  0  0  0
 10 11  2  0  0  0  0
 10 16  1  0  0  0  0
 11 17  1  0  0  0  0
 12 11  1  0  0  0  0
 13 12  2  0  0  0  0
 14 13  1  0  0  0  0
 14  9  2  0  0  0  0
 15  9  1  0  0  0  0
 18  3  1  0  0  0  0
 19 24  1  0  0  0  0
 19 25  1  1  0  0  0
 19 20  1  0  0  0  0
 20 18  1  1  0  0  0
 20 21  1  0  0  0  0
 21 22  1  0  0  0  0
 23 27  1  6  0  0  0
 23 22  1  0  0  0  0
 24 29  1  6  0  0  0
 24 23  1  0  0  0  0
 26 25  1  0  0  0  0
 28 27  1  0  0  0  0
 30 29  1  0  0  0  0
M  END
>  <minimizedAffinity>
-4.47937107

>  <minimizedRMSD>
2.45232391

$$$$
