
 OpenBabel03212520403D

 30 32  0  0  1  0  0  0  0  0999 V2000
   41.3220   84.9160   59.2710 C   0  0  1  0  0  0  0  0  0  0  0  0
   41.8070   86.1770   58.5620 C   0  0  0  0  0  0  0  0  0  0  0  0
   41.8240   84.8030   57.8920 C   0  0  1  0  0  0  0  0  0  0  0  0
   40.2470   84.9970   59.5330 H   0  0  0  0  0  0  0  0  0  0  0  0
   42.8080   86.5760   58.7650 H   0  0  0  0  0  0  0  0  0  0  0  0
   41.0820   86.9080   58.1760 H   0  0  0  0  0  0  0  0  0  0  0  0
   41.0390   84.6140   57.1110 H   0  0  0  0  0  0  0  0  0  0  0  0
   42.1940   84.5540   60.3430 O   0  0  0  0  0  0  0  0  0  0  0  0
   40.0580   83.5750   63.0970 C   0  0  0  0  0  0  0  0  0  0  0  0
   40.8890   83.8090   64.1940 C   0  0  0  0  0  0  0  0  0  0  0  0
   42.1900   84.3080   63.9530 C   0  0  0  0  0  0  0  0  0  0  0  0
   42.4890   84.5060   62.6530 N   0  0  0  0  0  0  0  0  0  0  0  0
   41.7090   84.2880   61.6010 C   0  0  0  0  0  0  0  0  0  0  0  0
   40.4670   83.8140   61.8090 N   0  0  0  0  0  0  0  0  0  0  0  0
   39.0440   83.1880   63.2510 H   0  0  0  0  0  0  0  0  0  0  0  0
   40.5550   83.6160   65.2010 H   0  0  0  0  0  0  0  0  0  0  0  0
   42.8720   84.5070   64.7580 H   0  0  0  0  0  0  0  0  0  0  0  0
   43.0530   84.1860   57.7070 O   0  0  0  0  0  0  0  0  0  0  0  0
   42.1640   83.5950   55.5480 C   0  0  2  0  0  3  0  0  0  0  0  0
   43.0880   83.2470   56.7080 C   0  0  1  0  0  3  0  0  0  0  0  0
   44.3930   83.0500   56.2540 O   0  0  0  0  0  0  0  0  0  0  0  0
   44.7540   84.0790   55.3910 C   0  0  0  0  0  2  0  0  0  0  0  0
   44.0820   83.8530   54.0640 C   0  0  1  0  0  3  0  0  0  0  0  0
   42.8380   83.0270   54.3160 C   0  0  2  0  0  3  0  0  0  0  0  0
   42.1000   84.9810   55.3580 O   0  0  0  0  0  0  0  0  0  0  0  0
   41.6580   85.3250   56.1970 H   0  0  0  0  0  0  0  0  0  0  0  0
   43.6850   85.1170   53.5950 O   0  0  0  0  0  0  0  0  0  0  0  0
   43.6540   85.1950   52.6270 H   0  0  0  0  0  0  0  0  0  0  0  0
   41.9380   83.0920   53.2530 O   0  0  0  0  0  0  0  0  0  0  0  0
   41.0900   82.6930   53.5990 H   0  0  0  0  0  0  0  0  0  0  0  0
  1  4  1  1  0  0  0
  1  8  1  0  0  0  0
  2  5  1  0  0  0  0
  2  1  1  0  0  0  0
  3  7  1  6  0  0  0
  3  2  1  0  0  0  0
  3  1  1  0  0  0  0
  6  2  1  0  0  0  0
  8 13  1  0  0  0  0
  9 15  1  0  0  0  0
  9 10  1  0  0  0  0
 10 16  1  0  0  0  0
 11 10  2  0  0  0  0
 11 17  1  0  0  0  0
 12 11  1  0  0  0  0
 13 14  1  0  0  0  0
 13 12  2  0  0  0  0
 14  9  2  0  0  0  0
 18  3  1  0  0  0  0
 19 25  1  6  0  0  0
 19 20  1  0  0  0  0
 20 18  1  1  0  0  0
 21 20  1  0  0  0  0
 22 21  1  0  0  0  0
 23 27  1  1  0  0  0
 23 24  1  0  0  0  0
 23 22  1  0  0  0  0
 24 29  1  6  0  0  0
 24 19  1  0  0  0  0
 25 26  1  0  0  0  0
 28 27  1  0  0  0  0
 29 30  1  0  0  0  0
M  END
>  <minimizedAffinity>
-4.42615271

>  <minimizedRMSD>
1.22498667

$$$$
