
 OpenBabel03212520333D

 44 47  0  0  1  0  0  0  0  0999 V2000
   41.8070   70.8040   59.5270 C   0  0  0  0  0  0  0  0  0  0  0  0
   41.0060   70.4700   58.4510 C   0  0  0  0  0  0  0  0  0  0  0  0
   40.7650   69.1530   58.1360 C   0  0  0  0  0  0  0  0  0  0  0  0
   41.2980   68.0880   58.8650 C   0  0  0  0  0  0  0  0  0  0  0  0
   42.0940   68.3920   59.9360 C   0  0  0  0  0  0  0  0  0  0  0  0
   42.3330   69.7120   60.2470 C   0  0  0  0  0  0  0  0  0  0  0  0
   40.1300   68.9130   57.2810 H   0  0  0  0  0  0  0  0  0  0  0  0
   41.0560   67.0930   58.5460 H   0  0  0  0  0  0  0  0  0  0  0  0
   42.5280   67.6020   60.5280 H   0  0  0  0  0  0  0  0  0  0  0  0
   42.9590   69.9900   61.0900 H   0  0  0  0  0  0  0  0  0  0  0  0
   40.3660   73.1570   55.9910 C   0  0  0  0  0  0  0  0  0  0  0  0
   38.9870   73.3500   56.1430 C   0  0  0  0  0  0  0  0  0  0  0  0
   38.3200   72.5530   57.0910 C   0  0  0  0  0  0  0  0  0  0  0  0
   39.0750   71.6630   57.7810 N   0  0  0  0  0  0  0  0  0  0  0  0
   40.3670   71.4890   57.6310 C   0  0  0  0  0  0  0  0  0  0  0  0
   41.0140   72.2440   56.7280 N   0  0  0  0  0  0  0  0  0  0  0  0
   40.8810   73.7740   55.2570 H   0  0  0  0  0  0  0  0  0  0  0  0
   37.2560   72.6950   57.2140 H   0  0  0  0  0  0  0  0  0  0  0  0
   38.2990   74.3170   55.3590 N   0  0  0  0  0  0  0  0  0  0  0  0
   38.6130   74.2790   54.0600 C   0  0  0  0  0  0  0  0  0  0  0  0
   37.9920   75.1900   53.2040 C   0  0  0  0  0  0  0  0  0  0  0  0
   37.0710   76.1020   53.7340 C   0  0  0  0  0  0  0  0  0  0  0  0
   36.4670   76.9530   53.0520 O   0  0  0  0  0  0  0  0  0  0  0  0
   36.8140   76.0690   55.0710 N   0  0  0  0  0  0  0  0  0  0  0  0
   37.4200   75.1810   55.8980 C   0  0  0  0  0  0  0  0  0  0  0  0
   37.1910   75.1420   57.1200 O   0  0  0  0  0  0  0  0  0  0  0  0
   39.3210   73.5870   53.6180 H   0  0  0  0  0  0  0  0  0  0  0  0
   38.1970   75.2140   52.1540 H   0  0  0  0  0  0  0  0  0  0  0  0
   36.1300   76.7370   55.5020 H   0  0  0  0  0  0  0  0  0  0  0  0
   42.1380   72.4330   59.9560 S   0  0  0  0  0  0  0  0  0  0  0  0
   43.3490   72.9240   59.1750 O   0  0  0  0  0  0  0  0  0  0  0  0
   42.7190   72.4040   61.3790 O   0  0  0  0  0  0  0  0  0  0  0  0
   39.8280   73.5070   60.8020 C   0  0  2  0  0  3  0  0  0  0  0  0
   40.9520   73.6710   59.7490 C   0  0  1  0  0  3  0  0  0  0  0  0
   41.5180   74.9060   60.0960 O   0  0  0  0  0  0  0  0  0  0  0  0
   40.7160   75.9890   59.9130 C   0  0  0  0  0  2  0  0  0  0  0  0
   39.3460   75.8720   60.5150 C   0  0  1  0  0  3  0  0  0  0  0  0
   38.7630   74.5060   60.4090 C   0  0  2  0  0  3  0  0  0  0  0  0
   40.3120   73.6900   62.0780 O   0  0  0  0  0  0  0  0  0  0  0  0
   40.4070   72.7710   62.4830 H   0  0  0  0  0  0  0  0  0  0  0  0
   39.2810   76.2760   61.8440 O   0  0  0  0  0  0  0  0  0  0  0  0
   38.3550   76.0790   62.1340 H   0  0  0  0  0  0  0  0  0  0  0  0
   37.6160   74.3920   61.1510 O   0  0  0  0  0  0  0  0  0  0  0  0
   37.7720   74.0320   62.0430 H   0  0  0  0  0  0  0  0  0  0  0  0
  1 30  1  0  0  0  0
  1  6  1  0  0  0  0
  2  1  2  0  0  0  0
  3  2  1  0  0  0  0
  3  4  2  0  0  0  0
  4  5  1  0  0  0  0
  5  6  2  0  0  0  0
  5  9  1  0  0  0  0
  6 10  1  0  0  0  0
  7  3  1  0  0  0  0
  8  4  1  0  0  0  0
 11 12  2  0  0  0  0
 11 16  1  0  0  0  0
 12 13  1  0  0  0  0
 13 18  1  0  0  0  0
 13 14  2  0  0  0  0
 15 14  1  0  0  0  0
 15  2  1  0  0  0  0
 16 15  2  0  0  0  0
 17 11  1  0  0  0  0
 19 25  1  0  0  0  0
 19 12  1  0  0  0  0
 20 19  1  0  0  0  0
 21 22  1  0  0  0  0
 21 20  2  0  0  0  0
 22 24  1  0  0  0  0
 23 22  2  0  0  0  0
 24 29  1  0  0  0  0
 24 25  1  0  0  0  0
 25 26  2  0  0  0  0
 27 20  1  0  0  0  0
 28 21  1  0  0  0  0
 30 32  2  0  0  0  0
 31 30  2  0  0  0  0
 33 39  1  1  0  0  0
 34 30  1  1  0  0  0
 34 35  1  0  0  0  0
 34 33  1  0  0  0  0
 36 35  1  0  0  0  0
 36 37  1  0  0  0  0
 37 41  1  1  0  0  0
 38 37  1  0  0  0  0
 38 33  1  0  0  0  0
 38 43  1  1  0  0  0
 39 40  1  0  0  0  0
 41 42  1  0  0  0  0
 43 44  1  0  0  0  0
M  END
>  <minimizedAffinity>
-7.42464018

$$$$

 OpenBabel03212520333D

 44 47  0  0  1  0  0  0  0  0999 V2000
   41.8410   70.6030   59.6770 C   0  0  0  0  0  0  0  0  0  0  0  0
   41.1990   70.1880   58.5260 C   0  0  0  0  0  0  0  0  0  0  0  0
   40.9270   68.8550   58.3160 C   0  0  0  0  0  0  0  0  0  0  0  0
   41.2700   67.8570   59.2290 C   0  0  0  0  0  0  0  0  0  0  0  0
   41.9060   68.2430   60.3780 C   0  0  0  0  0  0  0  0  0  0  0  0
   42.1770   69.5770   60.5830 C   0  0  0  0  0  0  0  0  0  0  0  0
   40.4190   68.5490   57.3990 H   0  0  0  0  0  0  0  0  0  0  0  0
   41.0180   66.8440   58.9810 H   0  0  0  0  0  0  0  0  0  0  0  0
   42.1900   67.5070   61.1120 H   0  0  0  0  0  0  0  0  0  0  0  0
   42.6800   69.9200   61.4840 H   0  0  0  0  0  0  0  0  0  0  0  0
   41.1140   72.5530   55.6840 C   0  0  0  0  0  0  0  0  0  0  0  0
   39.7550   72.8860   55.6400 C   0  0  0  0  0  0  0  0  0  0  0  0
   38.9090   72.2900   56.5950 C   0  0  0  0  0  0  0  0  0  0  0  0
   39.4870   71.4420   57.4790 N   0  0  0  0  0  0  0  0  0  0  0  0
   40.7630   71.1350   57.5110 C   0  0  0  0  0  0  0  0  0  0  0  0
   41.5800   71.6970   56.6060 N   0  0  0  0  0  0  0  0  0  0  0  0
   41.7670   73.0130   54.9460 H   0  0  0  0  0  0  0  0  0  0  0  0
   37.8580   72.5420   56.5680 H   0  0  0  0  0  0  0  0  0  0  0  0
   39.2610   73.7920   54.6620 N   0  0  0  0  0  0  0  0  0  0  0  0
   38.8700   74.9670   55.1660 C   0  0  0  0  0  0  0  0  0  0  0  0
   38.3680   75.9280   54.2860 C   0  0  0  0  0  0  0  0  0  0  0  0
   38.2950   75.6270   52.9200 C   0  0  0  0  0  0  0  0  0  0  0  0
   37.8620   76.4180   52.0590 O   0  0  0  0  0  0  0  0  0  0  0  0
   38.7160   74.4040   52.4970 N   0  0  0  0  0  0  0  0  0  0  0  0
   39.2030   73.4740   53.3560 C   0  0  0  0  0  0  0  0  0  0  0  0
   39.5910   72.3540   52.9780 O   0  0  0  0  0  0  0  0  0  0  0  0
   38.9130   75.2310   56.2160 H   0  0  0  0  0  0  0  0  0  0  0  0
   38.0370   76.8890   54.6220 H   0  0  0  0  0  0  0  0  0  0  0  0
   38.6760   74.1450   51.4820 H   0  0  0  0  0  0  0  0  0  0  0  0
   42.2050   72.2540   59.9820 S   0  0  0  0  0  0  0  0  0  0  0  0
   43.3990   72.6720   59.1360 O   0  0  0  0  0  0  0  0  0  0  0  0
   42.8250   72.3160   61.3870 O   0  0  0  0  0  0  0  0  0  0  0  0
   39.9150   73.3960   60.7930 C   0  0  2  0  0  3  0  0  0  0  0  0
   41.0290   73.4910   59.7210 C   0  0  1  0  0  3  0  0  0  0  0  0
   41.6110   74.7370   59.9950 O   0  0  0  0  0  0  0  0  0  0  0  0
   40.8180   75.8170   59.7620 C   0  0  0  0  0  2  0  0  0  0  0  0
   39.4520   75.7470   60.3830 C   0  0  1  0  0  3  0  0  0  0  0  0
   38.8550   74.3830   60.3570 C   0  0  2  0  0  3  0  0  0  0  0  0
   40.4150   73.6430   62.0520 O   0  0  0  0  0  0  0  0  0  0  0  0
   40.5050   72.7460   62.5050 H   0  0  0  0  0  0  0  0  0  0  0  0
   39.4070   76.2230   61.6890 O   0  0  0  0  0  0  0  0  0  0  0  0
   38.4820   76.0510   62.0000 H   0  0  0  0  0  0  0  0  0  0  0  0
   37.7160   74.3220   61.1170 O   0  0  0  0  0  0  0  0  0  0  0  0
   37.8780   74.0090   62.0260 H   0  0  0  0  0  0  0  0  0  0  0  0
  1 30  1  0  0  0  0
  1  6  1  0  0  0  0
  2  1  2  0  0  0  0
  3  2  1  0  0  0  0
  3  4  2  0  0  0  0
  4  5  1  0  0  0  0
  5  6  2  0  0  0  0
  5  9  1  0  0  0  0
  6 10  1  0  0  0  0
  7  3  1  0  0  0  0
  8  4  1  0  0  0  0
 11 16  1  0  0  0  0
 12 11  2  0  0  0  0
 12 13  1  0  0  0  0
 13 14  2  0  0  0  0
 14 15  1  0  0  0  0
 15  2  1  0  0  0  0
 16 15  2  0  0  0  0
 17 11  1  0  0  0  0
 18 13  1  0  0  0  0
 19 20  1  0  0  0  0
 19 12  1  0  0  0  0
 20 27  1  0  0  0  0
 21 28  1  0  0  0  0
 21 20  2  0  0  0  0
 22 21  1  0  0  0  0
 23 22  2  0  0  0  0
 24 22  1  0  0  0  0
 24 25  1  0  0  0  0
 25 19  1  0  0  0  0
 26 25  2  0  0  0  0
 29 24  1  0  0  0  0
 30 32  2  0  0  0  0
 31 30  2  0  0  0  0
 33 39  1  1  0  0  0
 34 30  1  1  0  0  0
 34 35  1  0  0  0  0
 34 33  1  0  0  0  0
 36 35  1  0  0  0  0
 36 37  1  0  0  0  0
 37 41  1  1  0  0  0
 38 37  1  0  0  0  0
 38 33  1  0  0  0  0
 38 43  1  1  0  0  0
 39 40  1  0  0  0  0
 41 42  1  0  0  0  0
 43 44  1  0  0  0  0
M  END
>  <minimizedAffinity>
-6.97387552

$$$$

 OpenBabel03212520333D

 44 47  0  0  1  0  0  0  0  0999 V2000
   38.8830   75.8450   57.5640 C   0  0  0  0  0  0  0  0  0  0  0  0
   39.7270   74.7770   57.8020 C   0  0  0  0  0  0  0  0  0  0  0  0
   40.5060   74.7360   58.9360 C   0  0  0  0  0  0  0  0  0  0  0  0
   40.4970   75.7460   59.9010 C   0  0  0  0  0  0  0  0  0  0  0  0
   39.6680   76.8140   59.6880 C   0  0  0  0  0  0  0  0  0  0  0  0
   38.8910   76.8500   58.5520 C   0  0  0  0  0  0  0  0  0  0  0  0
   41.1660   73.8830   59.1030 H   0  0  0  0  0  0  0  0  0  0  0  0
   41.1370   75.6290   60.7530 H   0  0  0  0  0  0  0  0  0  0  0  0
   39.6270   77.6180   60.4060 H   0  0  0  0  0  0  0  0  0  0  0  0
   38.2220   77.6830   58.3510 H   0  0  0  0  0  0  0  0  0  0  0  0
   39.0600   71.6120   56.0080 C   0  0  0  0  0  0  0  0  0  0  0  0
   40.0880   71.6100   55.0570 C   0  0  0  0  0  0  0  0  0  0  0  0
   40.9840   72.6960   55.0660 C   0  0  0  0  0  0  0  0  0  0  0  0
   40.7730   73.6550   56.0000 N   0  0  0  0  0  0  0  0  0  0  0  0
   39.8050   73.6480   56.8880 C   0  0  0  0  0  0  0  0  0  0  0  0
   38.9450   72.6170   56.8880 N   0  0  0  0  0  0  0  0  0  0  0  0
   38.3680   70.7730   56.0010 H   0  0  0  0  0  0  0  0  0  0  0  0
   41.7800   72.7010   54.3350 H   0  0  0  0  0  0  0  0  0  0  0  0
   40.2090   70.5450   54.1230 N   0  0  0  0  0  0  0  0  0  0  0  0
   40.6500   69.4040   54.6620 C   0  0  0  0  0  0  0  0  0  0  0  0
   40.8040   68.2950   53.8270 C   0  0  0  0  0  0  0  0  0  0  0  0
   40.4940   68.4200   52.4680 C   0  0  0  0  0  0  0  0  0  0  0  0
   40.5990   67.4900   51.6450 O   0  0  0  0  0  0  0  0  0  0  0  0
   40.0510   69.6220   52.0060 N   0  0  0  0  0  0  0  0  0  0  0  0
   39.9030   70.6960   52.8210 C   0  0  0  0  0  0  0  0  0  0  0  0
   39.4990   71.7980   52.4090 O   0  0  0  0  0  0  0  0  0  0  0  0
   40.8990   69.2740   55.7090 H   0  0  0  0  0  0  0  0  0  0  0  0
   41.1530   67.3520   54.1940 H   0  0  0  0  0  0  0  0  0  0  0  0
   39.8090   69.7520   50.9940 H   0  0  0  0  0  0  0  0  0  0  0  0
   37.8950   75.9410   56.1630 S   0  0  0  0  0  0  0  0  0  0  0  0
   37.0320   77.1920   56.2390 O   0  0  0  0  0  0  0  0  0  0  0  0
   36.8200   74.8520   56.3070 O   0  0  0  0  0  0  0  0  0  0  0  0
   37.7170   75.1580   53.6010 C   0  0  2  0  0  3  0  0  0  0  0  0
   38.5880   75.9830   54.5820 C   0  0  1  0  0  3  0  0  0  0  0  0
   38.4760   77.2830   54.0700 O   0  0  0  0  0  0  0  0  0  0  0  0
   39.0470   77.4840   52.8520 C   0  0  0  0  0  2  0  0  0  0  0  0
   38.6570   76.4890   51.7970 C   0  0  1  0  0  3  0  0  0  0  0  0
   38.5090   75.1000   52.3140 C   0  0  2  0  0  3  0  0  0  0  0  0
   36.4680   75.7180   53.4550 O   0  0  0  0  0  0  0  0  0  0  0  0
   35.8370   75.1580   54.0080 H   0  0  0  0  0  0  0  0  0  0  0  0
   37.4980   76.8280   51.1080 O   0  0  0  0  0  0  0  0  0  0  0  0
   37.3170   76.0630   50.5060 H   0  0  0  0  0  0  0  0  0  0  0  0
   37.9510   74.2730   51.3750 O   0  0  0  0  0  0  0  0  0  0  0  0
   36.9840   74.1890   51.4640 H   0  0  0  0  0  0  0  0  0  0  0  0
  1  2  2  0  0  0  0
  1  6  1  0  0  0  0
  2  3  1  0  0  0  0
  3  7  1  0  0  0  0
  3  4  2  0  0  0  0
  4  8  1  0  0  0  0
  5  4  1  0  0  0  0
  5  9  1  0  0  0  0
  6  5  2  0  0  0  0
 10  6  1  0  0  0  0
 11 16  1  0  0  0  0
 12 13  1  0  0  0  0
 12 11  2  0  0  0  0
 13 14  2  0  0  0  0
 14 15  1  0  0  0  0
 15 16  2  0  0  0  0
 15  2  1  0  0  0  0
 17 11  1  0  0  0  0
 18 13  1  0  0  0  0
 19 20  1  0  0  0  0
 19 12  1  0  0  0  0
 20 27  1  0  0  0  0
 21 28  1  0  0  0  0
 21 20  2  0  0  0  0
 22 21  1  0  0  0  0
 23 22  2  0  0  0  0
 24 22  1  0  0  0  0
 24 25  1  0  0  0  0
 25 19  1  0  0  0  0
 26 25  2  0  0  0  0
 29 24  1  0  0  0  0
 30 31  2  0  0  0  0
 30 32  2  0  0  0  0
 30  1  1  0  0  0  0
 33 39  1  6  0  0  0
 33 34  1  0  0  0  0
 34 30  1  1  0  0  0
 35 34  1  0  0  0  0
 36 35  1  0  0  0  0
 37 41  1  1  0  0  0
 37 38  1  0  0  0  0
 37 36  1  0  0  0  0
 38 43  1  6  0  0  0
 38 33  1  0  0  0  0
 39 40  1  0  0  0  0
 42 41  1  0  0  0  0
 43 44  1  0  0  0  0
M  END
>  <minimizedAffinity>
-6.89134359

$$$$

 OpenBabel03212520333D

 44 47  0  0  1  0  0  0  0  0999 V2000
   38.3600   74.9670   55.0060 C   0  0  0  0  0  0  0  0  0  0  0  0
   39.1280   73.8240   54.8840 C   0  0  0  0  0  0  0  0  0  0  0  0
   39.4860   73.3470   53.6440 C   0  0  0  0  0  0  0  0  0  0  0  0
   39.1080   73.9700   52.4530 C   0  0  0  0  0  0  0  0  0  0  0  0
   38.3470   75.1040   52.5470 C   0  0  0  0  0  0  0  0  0  0  0  0
   37.9910   75.5770   53.7900 C   0  0  0  0  0  0  0  0  0  0  0  0
   40.0930   72.4430   53.5710 H   0  0  0  0  0  0  0  0  0  0  0  0
   39.4330   73.5260   51.5310 H   0  0  0  0  0  0  0  0  0  0  0  0
   38.0320   75.6180   51.6530 H   0  0  0  0  0  0  0  0  0  0  0  0
   37.3880   76.4740   53.9020 H   0  0  0  0  0  0  0  0  0  0  0  0
   39.3820   71.5740   57.8080 C   0  0  0  0  0  0  0  0  0  0  0  0
   40.7020   71.8000   58.2190 C   0  0  0  0  0  0  0  0  0  0  0  0
   41.4620   72.7260   57.4800 C   0  0  0  0  0  0  0  0  0  0  0  0
   40.8490   73.3220   56.4290 N   0  0  0  0  0  0  0  0  0  0  0  0
   39.6110   73.1020   56.0510 C   0  0  0  0  0  0  0  0  0  0  0  0
   38.8750   72.2210   56.7490 N   0  0  0  0  0  0  0  0  0  0  0  0
   38.7950   70.8590   58.3800 H   0  0  0  0  0  0  0  0  0  0  0  0
   42.4820   72.9060   57.7910 H   0  0  0  0  0  0  0  0  0  0  0  0
   41.2400   71.1130   59.3420 N   0  0  0  0  0  0  0  0  0  0  0  0
   41.6110   69.8570   59.0760 C   0  0  0  0  0  0  0  0  0  0  0  0
   42.1520   69.0940   60.1130 C   0  0  0  0  0  0  0  0  0  0  0  0
   42.2840   69.6710   61.3820 C   0  0  0  0  0  0  0  0  0  0  0  0
   42.7540   69.0720   62.3700 O   0  0  0  0  0  0  0  0  0  0  0  0
   41.8790   70.9580   61.5610 N   0  0  0  0  0  0  0  0  0  0  0  0
   41.3530   71.6940   60.5500 C   0  0  0  0  0  0  0  0  0  0  0  0
   40.9810   72.8710   60.7030 O   0  0  0  0  0  0  0  0  0  0  0  0
   41.5220   69.3810   58.1050 H   0  0  0  0  0  0  0  0  0  0  0  0
   42.4700   68.0830   59.9690 H   0  0  0  0  0  0  0  0  0  0  0  0
   41.9630   71.4220   62.4980 H   0  0  0  0  0  0  0  0  0  0  0  0
   37.8870   75.5980   56.5310 S   0  0  0  0  0  0  0  0  0  0  0  0
   37.3570   74.4690   57.4030 O   0  0  0  0  0  0  0  0  0  0  0  0
   36.5940   76.3960   56.2960 O   0  0  0  0  0  0  0  0  0  0  0  0
   38.9210   75.9020   58.9900 C   0  0  2  0  0  3  0  0  0  0  0  0
   39.0100   76.4380   57.5380 C   0  0  1  0  0  3  0  0  0  0  0  0
   40.3130   76.0840   57.1620 O   0  0  0  0  0  0  0  0  0  0  0  0
   41.3090   76.7280   57.8260 C   0  0  0  0  0  2  0  0  0  0  0  0
   41.1900   76.7060   59.3230 C   0  0  1  0  0  3  0  0  0  0  0  0
   39.7890   76.8290   59.8110 C   0  0  2  0  0  3  0  0  0  0  0  0
   39.3050   74.5830   59.0560 O   0  0  0  0  0  0  0  0  0  0  0  0
   38.4570   74.0410   59.1290 H   0  0  0  0  0  0  0  0  0  0  0  0
   41.7660   75.5870   59.9140 O   0  0  0  0  0  0  0  0  0  0  0  0
   41.5530   75.6600   60.8790 H   0  0  0  0  0  0  0  0  0  0  0  0
   39.7060   76.5920   61.1580 O   0  0  0  0  0  0  0  0  0  0  0  0
   39.4810   75.6670   61.3710 H   0  0  0  0  0  0  0  0  0  0  0  0
  1 30  1  0  0  0  0
  2  1  1  0  0  0  0
  2 15  1  0  0  0  0
  3  2  2  0  0  0  0
  4  5  2  0  0  0  0
  4  3  1  0  0  0  0
  5  6  1  0  0  0  0
  6 10  1  0  0  0  0
  6  1  2  0  0  0  0
  7  3  1  0  0  0  0
  8  4  1  0  0  0  0
  9  5  1  0  0  0  0
 11 12  1  0  0  0  0
 11 17  1  0  0  0  0
 12 19  1  0  0  0  0
 13 18  1  0  0  0  0
 13 12  2  0  0  0  0
 14 13  1  0  0  0  0
 15 14  2  0  0  0  0
 15 16  1  0  0  0  0
 16 11  2  0  0  0  0
 19 25  1  0  0  0  0
 20 19  1  0  0  0  0
 20 21  2  0  0  0  0
 21 22  1  0  0  0  0
 22 24  1  0  0  0  0
 22 23  2  0  0  0  0
 24 29  1  0  0  0  0
 25 26  2  0  0  0  0
 25 24  1  0  0  0  0
 27 20  1  0  0  0  0
 28 21  1  0  0  0  0
 30 31  2  0  0  0  0
 32 30  2  0  0  0  0
 33 39  1  6  0  0  0
 33 38  1  0  0  0  0
 34 30  1  6  0  0  0
 34 33  1  0  0  0  0
 35 34  1  0  0  0  0
 35 36  1  0  0  0  0
 36 37  1  0  0  0  0
 37 38  1  0  0  0  0
 37 41  1  6  0  0  0
 38 43  1  1  0  0  0
 39 40  1  0  0  0  0
 41 42  1  0  0  0  0
 43 44  1  0  0  0  0
M  END
>  <minimizedAffinity>
-6.67460966

$$$$

 OpenBabel03212520333D

 44 47  0  0  1  0  0  0  0  0999 V2000
   42.4310   70.7870   61.4190 C   0  0  0  0  0  0  0  0  0  0  0  0
   42.5050   69.9760   60.3020 C   0  0  0  0  0  0  0  0  0  0  0  0
   42.9500   68.6780   60.4050 C   0  0  0  0  0  0  0  0  0  0  0  0
   43.3460   68.1040   61.6140 C   0  0  0  0  0  0  0  0  0  0  0  0
   43.2820   68.8870   62.7350 C   0  0  0  0  0  0  0  0  0  0  0  0
   42.8360   70.1850   62.6270 C   0  0  0  0  0  0  0  0  0  0  0  0
   43.0000   68.0550   59.5090 H   0  0  0  0  0  0  0  0  0  0  0  0
   43.6800   67.0840   61.5990 H   0  0  0  0  0  0  0  0  0  0  0  0
   43.5780   68.4870   63.6920 H   0  0  0  0  0  0  0  0  0  0  0  0
   42.7720   70.8350   63.4960 H   0  0  0  0  0  0  0  0  0  0  0  0
   42.4630   71.4890   56.9270 C   0  0  0  0  0  0  0  0  0  0  0  0
   41.1440   71.2370   56.5270 C   0  0  0  0  0  0  0  0  0  0  0  0
   40.3080   70.5590   57.4330 C   0  0  0  0  0  0  0  0  0  0  0  0
   40.8530   70.2060   58.6230 N   0  0  0  0  0  0  0  0  0  0  0  0
   42.0910   70.4470   58.9890 C   0  0  0  0  0  0  0  0  0  0  0  0
   42.8980   71.0930   58.1320 N   0  0  0  0  0  0  0  0  0  0  0  0
   43.1080   72.0130   56.2270 H   0  0  0  0  0  0  0  0  0  0  0  0
   39.2890   70.3610   57.1310 H   0  0  0  0  0  0  0  0  0  0  0  0
   40.6830   71.6560   55.2480 N   0  0  0  0  0  0  0  0  0  0  0  0
   40.5600   72.9810   55.1290 C   0  0  0  0  0  0  0  0  0  0  0  0
   40.1120   73.4950   53.9100 C   0  0  0  0  0  0  0  0  0  0  0  0
   39.8110   72.6090   52.8680 C   0  0  0  0  0  0  0  0  0  0  0  0
   39.4050   72.9720   51.7460 O   0  0  0  0  0  0  0  0  0  0  0  0
   39.9660   71.2740   53.0810 N   0  0  0  0  0  0  0  0  0  0  0  0
   40.4010   70.7790   54.2670 C   0  0  0  0  0  0  0  0  0  0  0  0
   40.5470   69.5610   54.4700 O   0  0  0  0  0  0  0  0  0  0  0  0
   40.7840   73.6930   55.9150 H   0  0  0  0  0  0  0  0  0  0  0  0
   39.9910   74.5460   53.7460 H   0  0  0  0  0  0  0  0  0  0  0  0
   39.7500   70.5810   52.3230 H   0  0  0  0  0  0  0  0  0  0  0  0
   41.8850   72.4130   61.3390 S   0  0  0  0  0  0  0  0  0  0  0  0
   42.9970   73.2930   60.7880 O   0  0  0  0  0  0  0  0  0  0  0  0
   41.8170   72.9260   62.7870 O   0  0  0  0  0  0  0  0  0  0  0  0
   39.5320   73.7040   61.2800 C   0  0  2  0  0  3  0  0  0  0  0  0
   40.4890   72.8430   60.4180 C   0  0  1  0  0  3  0  0  0  0  0  0
   40.8700   73.7330   59.4030 O   0  0  0  0  0  0  0  0  0  0  0  0
   39.8800   74.1040   58.5480 C   0  0  0  0  0  2  0  0  0  0  0  0
   38.6240   74.5950   59.2080 C   0  0  1  0  0  3  0  0  0  0  0  0
   38.2750   73.8540   60.4520 C   0  0  2  0  0  3  0  0  0  0  0  0
   40.1150   74.9040   61.6200 O   0  0  0  0  0  0  0  0  0  0  0  0
   40.4100   74.8160   62.5810 H   0  0  0  0  0  0  0  0  0  0  0  0
   38.6380   75.9560   59.4960 O   0  0  0  0  0  0  0  0  0  0  0  0
   37.7960   76.1290   59.9890 H   0  0  0  0  0  0  0  0  0  0  0  0
   37.2540   74.4670   61.1300 O   0  0  0  0  0  0  0  0  0  0  0  0
   37.5660   75.0740   61.8250 H   0  0  0  0  0  0  0  0  0  0  0  0
  1  6  1  0  0  0  0
  2  3  1  0  0  0  0
  2  1  2  0  0  0  0
  3  4  2  0  0  0  0
  4  5  1  0  0  0  0
  5  9  1  0  0  0  0
  6  5  2  0  0  0  0
  6 10  1  0  0  0  0
  7  3  1  0  0  0  0
  8  4  1  0  0  0  0
 11 16  1  0  0  0  0
 12 11  2  0  0  0  0
 12 13  1  0  0  0  0
 13 14  2  0  0  0  0
 14 15  1  0  0  0  0
 15  2  1  0  0  0  0
 16 15  2  0  0  0  0
 17 11  1  0  0  0  0
 18 13  1  0  0  0  0
 19 12  1  0  0  0  0
 20 19  1  0  0  0  0
 20 27  1  0  0  0  0
 21 20  2  0  0  0  0
 22 24  1  0  0  0  0
 22 21  1  0  0  0  0
 23 22  2  0  0  0  0
 24 25  1  0  0  0  0
 25 26  2  0  0  0  0
 25 19  1  0  0  0  0
 28 21  1  0  0  0  0
 29 24  1  0  0  0  0
 30  1  1  0  0  0  0
 30 32  2  0  0  0  0
 31 30  2  0  0  0  0
 33 39  1  6  0  0  0
 34 33  1  0  0  0  0
 34 30  1  1  0  0  0
 35 34  1  0  0  0  0
 36 37  1  0  0  0  0
 36 35  1  0  0  0  0
 37 41  1  1  0  0  0
 37 38  1  0  0  0  0
 38 43  1  1  0  0  0
 38 33  1  0  0  0  0
 39 40  1  0  0  0  0
 41 42  1  0  0  0  0
 43 44  1  0  0  0  0
M  END
>  <minimizedAffinity>
-6.65618658

$$$$

 OpenBabel03212520333D

 44 47  0  0  1  0  0  0  0  0999 V2000
   42.4260   71.0580   60.6670 C   0  0  0  0  0  0  0  0  0  0  0  0
   41.9160   70.2710   59.6510 C   0  0  0  0  0  0  0  0  0  0  0  0
   41.8560   68.9030   59.7840 C   0  0  0  0  0  0  0  0  0  0  0  0
   42.2930   68.2320   60.9280 C   0  0  0  0  0  0  0  0  0  0  0  0
   42.8010   68.9890   61.9490 C   0  0  0  0  0  0  0  0  0  0  0  0
   42.8600   70.3570   61.8100 C   0  0  0  0  0  0  0  0  0  0  0  0
   41.4510   68.3020   58.9680 H   0  0  0  0  0  0  0  0  0  0  0  0
   42.2080   67.1620   60.9430 H   0  0  0  0  0  0  0  0  0  0  0  0
   43.1510   68.5130   62.8510 H   0  0  0  0  0  0  0  0  0  0  0  0
   43.2570   70.9890   62.6010 H   0  0  0  0  0  0  0  0  0  0  0  0
   39.7220   71.8130   57.1030 C   0  0  0  0  0  0  0  0  0  0  0  0
   40.6080   71.9650   56.0300 C   0  0  0  0  0  0  0  0  0  0  0  0
   41.9330   71.5280   56.2130 C   0  0  0  0  0  0  0  0  0  0  0  0
   42.2390   70.9930   57.4200 N   0  0  0  0  0  0  0  0  0  0  0  0
   41.4010   70.8540   58.4210 C   0  0  0  0  0  0  0  0  0  0  0  0
   40.1340   71.2680   58.2580 N   0  0  0  0  0  0  0  0  0  0  0  0
   38.6990   72.1510   56.9610 H   0  0  0  0  0  0  0  0  0  0  0  0
   42.6230   71.6420   55.3890 H   0  0  0  0  0  0  0  0  0  0  0  0
   40.1720   72.5440   54.8060 N   0  0  0  0  0  0  0  0  0  0  0  0
   40.1640   73.8810   54.8160 C   0  0  0  0  0  0  0  0  0  0  0  0
   39.7500   74.5470   53.6600 C   0  0  0  0  0  0  0  0  0  0  0  0
   39.3630   73.7950   52.5450 C   0  0  0  0  0  0  0  0  0  0  0  0
   38.9780   74.2980   51.4700 O   0  0  0  0  0  0  0  0  0  0  0  0
   39.4030   72.4370   52.6250 N   0  0  0  0  0  0  0  0  0  0  0  0
   39.8050   71.7950   53.7500 C   0  0  0  0  0  0  0  0  0  0  0  0
   39.8460   70.5540   53.8330 O   0  0  0  0  0  0  0  0  0  0  0  0
   40.4570   74.4920   55.6620 H   0  0  0  0  0  0  0  0  0  0  0  0
   39.7200   75.6150   53.6010 H   0  0  0  0  0  0  0  0  0  0  0  0
   39.1200   71.8430   51.8090 H   0  0  0  0  0  0  0  0  0  0  0  0
   42.5240   72.7670   60.5450 S   0  0  0  0  0  0  0  0  0  0  0  0
   42.8570   73.1530   59.1110 O   0  0  0  0  0  0  0  0  0  0  0  0
   43.8220   73.1860   61.2540 O   0  0  0  0  0  0  0  0  0  0  0  0
   41.0080   74.8900   59.9090 C   0  0  2  0  0  3  0  0  0  0  0  0
   41.1840   73.7720   60.9680 C   0  0  1  0  0  3  0  0  0  0  0  0
   40.0000   73.0340   60.8320 O   0  0  0  0  0  0  0  0  0  0  0  0
   38.8620   73.6800   61.2030 C   0  0  0  0  0  2  0  0  0  0  0  0
   38.6820   75.0430   60.5990 C   0  0  1  0  0  3  0  0  0  0  0  0
   39.9510   75.8120   60.4740 C   0  0  2  0  0  3  0  0  0  0  0  0
   40.6800   74.3630   58.6800 O   0  0  0  0  0  0  0  0  0  0  0  0
   41.5210   74.3900   58.1240 H   0  0  0  0  0  0  0  0  0  0  0  0
   38.0530   75.0270   59.3590 O   0  0  0  0  0  0  0  0  0  0  0  0
   38.0660   75.9660   59.0450 H   0  0  0  0  0  0  0  0  0  0  0  0
   39.7750   76.9500   59.7310 O   0  0  0  0  0  0  0  0  0  0  0  0
   39.9960   76.8300   58.7890 H   0  0  0  0  0  0  0  0  0  0  0  0
  1  6  1  0  0  0  0
  2  3  1  0  0  0  0
  2  1  2  0  0  0  0
  3  4  2  0  0  0  0
  4  8  1  0  0  0  0
  4  5  1  0  0  0  0
  5  9  1  0  0  0  0
  6  5  2  0  0  0  0
  6 10  1  0  0  0  0
  7  3  1  0  0  0  0
 11 16  1  0  0  0  0
 12 13  1  0  0  0  0
 12 11  2  0  0  0  0
 13 14  2  0  0  0  0
 14 15  1  0  0  0  0
 15  2  1  0  0  0  0
 16 15  2  0  0  0  0
 17 11  1  0  0  0  0
 18 13  1  0  0  0  0
 19 20  1  0  0  0  0
 19 12  1  0  0  0  0
 20 27  1  0  0  0  0
 21 20  2  0  0  0  0
 22 24  1  0  0  0  0
 22 21  1  0  0  0  0
 23 22  2  0  0  0  0
 24 25  1  0  0  0  0
 25 26  2  0  0  0  0
 25 19  1  0  0  0  0
 28 21  1  0  0  0  0
 29 24  1  0  0  0  0
 30  1  1  0  0  0  0
 30 32  2  0  0  0  0
 31 30  2  0  0  0  0
 33 39  1  6  0  0  0
 33 38  1  0  0  0  0
 33 34  1  0  0  0  0
 34 30  1  6  0  0  0
 35 34  1  0  0  0  0
 35 36  1  0  0  0  0
 37 41  1  6  0  0  0
 37 36  1  0  0  0  0
 38 43  1  6  0  0  0
 38 37  1  0  0  0  0
 40 39  1  0  0  0  0
 42 41  1  0  0  0  0
 44 43  1  0  0  0  0
M  END
>  <minimizedAffinity>
-6.56367445

$$$$

 OpenBabel03212520333D

 44 47  0  0  1  0  0  0  0  0999 V2000
   39.5720   75.2140   58.2520 C   0  0  0  0  0  0  0  0  0  0  0  0
   40.4080   75.1120   59.3470 C   0  0  0  0  0  0  0  0  0  0  0  0
   40.7490   76.2270   60.0780 C   0  0  0  0  0  0  0  0  0  0  0  0
   40.2840   77.5070   59.7710 C   0  0  0  0  0  0  0  0  0  0  0  0
   39.4530   77.6350   58.6900 C   0  0  0  0  0  0  0  0  0  0  0  0
   39.1150   76.5160   57.9630 C   0  0  0  0  0  0  0  0  0  0  0  0
   41.4120   76.1230   60.9390 H   0  0  0  0  0  0  0  0  0  0  0  0
   40.6020   78.3190   60.3960 H   0  0  0  0  0  0  0  0  0  0  0  0
   39.0690   78.6040   58.4150 H   0  0  0  0  0  0  0  0  0  0  0  0
   38.4580   76.5800   57.0990 H   0  0  0  0  0  0  0  0  0  0  0  0
   42.5240   72.1120   59.7990 C   0  0  0  0  0  0  0  0  0  0  0  0
   41.7940   71.4000   60.7590 C   0  0  0  0  0  0  0  0  0  0  0  0
   40.5930   71.9710   61.2180 C   0  0  0  0  0  0  0  0  0  0  0  0
   40.2430   73.1680   60.6870 N   0  0  0  0  0  0  0  0  0  0  0  0
   40.9340   73.8280   59.7880 C   0  0  0  0  0  0  0  0  0  0  0  0
   42.0830   73.2930   59.3420 N   0  0  0  0  0  0  0  0  0  0  0  0
   43.4520   71.6700   59.4450 H   0  0  0  0  0  0  0  0  0  0  0  0
   40.0240   71.4270   61.9590 H   0  0  0  0  0  0  0  0  0  0  0  0
   42.2640   70.1470   61.2440 N   0  0  0  0  0  0  0  0  0  0  0  0
   42.8670   70.2240   62.4340 C   0  0  0  0  0  0  0  0  0  0  0  0
   43.3640   69.0470   62.9990 C   0  0  0  0  0  0  0  0  0  0  0  0
   43.2130   67.8420   62.3020 C   0  0  0  0  0  0  0  0  0  0  0  0
   43.6230   66.7430   62.7220 O   0  0  0  0  0  0  0  0  0  0  0  0
   42.5850   67.8600   61.0940 N   0  0  0  0  0  0  0  0  0  0  0  0
   42.1040   69.0060   60.5500 C   0  0  0  0  0  0  0  0  0  0  0  0
   41.5280   69.0320   59.4480 O   0  0  0  0  0  0  0  0  0  0  0  0
   43.0000   71.1390   62.9990 H   0  0  0  0  0  0  0  0  0  0  0  0
   43.8580   69.0370   63.9480 H   0  0  0  0  0  0  0  0  0  0  0  0
   42.4550   66.9770   60.5440 H   0  0  0  0  0  0  0  0  0  0  0  0
   39.1210   73.8520   57.3090 S   0  0  0  0  0  0  0  0  0  0  0  0
   38.2820   74.3110   56.1260 O   0  0  0  0  0  0  0  0  0  0  0  0
   38.0630   73.0860   58.1190 O   0  0  0  0  0  0  0  0  0  0  0  0
   39.8280   71.3370   56.6890 C   0  0  2  0  0  3  0  0  0  0  0  0
   40.3120   72.8070   56.6210 C   0  0  1  0  0  3  0  0  0  0  0  0
   40.3800   73.0420   55.2410 O   0  0  0  0  0  0  0  0  0  0  0  0
   41.3330   72.3370   54.5730 C   0  0  0  0  0  2  0  0  0  0  0  0
   41.3270   70.8580   54.8360 C   0  0  1  0  0  3  0  0  0  0  0  0
   41.0120   70.5060   56.2480 C   0  0  2  0  0  3  0  0  0  0  0  0
   38.7040   71.1480   55.9180 O   0  0  0  0  0  0  0  0  0  0  0  0
   37.9220   71.1150   56.5540 H   0  0  0  0  0  0  0  0  0  0  0  0
   40.4730   70.1450   54.0030 O   0  0  0  0  0  0  0  0  0  0  0  0
   40.5080   69.2100   54.3280 H   0  0  0  0  0  0  0  0  0  0  0  0
   40.8090   69.1580   56.3940 O   0  0  0  0  0  0  0  0  0  0  0  0
   39.8690   68.9050   56.3380 H   0  0  0  0  0  0  0  0  0  0  0  0
  1  2  1  0  0  0  0
  2 15  1  0  0  0  0
  2  3  2  0  0  0  0
  3  7  1  0  0  0  0
  4  3  1  0  0  0  0
  4  8  1  0  0  0  0
  5  4  2  0  0  0  0
  6  1  2  0  0  0  0
  6  5  1  0  0  0  0
  9  5  1  0  0  0  0
 10  6  1  0  0  0  0
 11 12  1  0  0  0  0
 12 13  2  0  0  0  0
 12 19  1  0  0  0  0
 13 18  1  0  0  0  0
 14 13  1  0  0  0  0
 15 14  2  0  0  0  0
 16 15  1  0  0  0  0
 16 11  2  0  0  0  0
 17 11  1  0  0  0  0
 19 20  1  0  0  0  0
 20 21  2  0  0  0  0
 20 27  1  0  0  0  0
 21 28  1  0  0  0  0
 22 23  2  0  0  0  0
 22 21  1  0  0  0  0
 24 22  1  0  0  0  0
 25 24  1  0  0  0  0
 25 19  1  0  0  0  0
 26 25  2  0  0  0  0
 29 24  1  0  0  0  0
 30 32  2  0  0  0  0
 30  1  1  0  0  0  0
 31 30  2  0  0  0  0
 33 39  1  6  0  0  0
 34 33  1  0  0  0  0
 34 30  1  1  0  0  0
 35 34  1  0  0  0  0
 36 37  1  0  0  0  0
 36 35  1  0  0  0  0
 37 41  1  6  0  0  0
 37 38  1  0  0  0  0
 38 43  1  6  0  0  0
 38 33  1  0  0  0  0
 39 40  1  0  0  0  0
 41 42  1  0  0  0  0
 44 43  1  0  0  0  0
M  END
>  <minimizedAffinity>
-6.56044197

$$$$

 OpenBabel03212520333D

 44 47  0  0  1  0  0  0  0  0999 V2000
   41.1330   72.0040   60.8340 C   0  0  0  0  0  0  0  0  0  0  0  0
   40.6630   71.9650   59.5350 C   0  0  0  0  0  0  0  0  0  0  0  0
   39.7020   72.8520   59.1090 C   0  0  0  0  0  0  0  0  0  0  0  0
   39.1490   73.8300   59.9390 C   0  0  0  0  0  0  0  0  0  0  0  0
   39.5990   73.8890   61.2310 C   0  0  0  0  0  0  0  0  0  0  0  0
   40.5610   72.9990   61.6520 C   0  0  0  0  0  0  0  0  0  0  0  0
   39.3440   72.8030   58.0790 H   0  0  0  0  0  0  0  0  0  0  0  0
   38.4050   74.4790   59.5210 H   0  0  0  0  0  0  0  0  0  0  0  0
   39.2010   74.6280   61.9080 H   0  0  0  0  0  0  0  0  0  0  0  0
   40.9410   73.0170   62.6700 H   0  0  0  0  0  0  0  0  0  0  0  0
   41.3170   68.8960   57.5770 C   0  0  0  0  0  0  0  0  0  0  0  0
   42.2440   69.3600   56.6360 C   0  0  0  0  0  0  0  0  0  0  0  0
   42.6200   70.7140   56.7070 C   0  0  0  0  0  0  0  0  0  0  0  0
   42.0500   71.4560   57.6870 N   0  0  0  0  0  0  0  0  0  0  0  0
   41.1820   71.0120   58.5650 C   0  0  0  0  0  0  0  0  0  0  0  0
   40.8150   69.7220   58.5070 N   0  0  0  0  0  0  0  0  0  0  0  0
   41.0270   67.8490   57.5220 H   0  0  0  0  0  0  0  0  0  0  0  0
   43.3350   71.0790   55.9830 H   0  0  0  0  0  0  0  0  0  0  0  0
   42.7750   68.4830   55.6490 N   0  0  0  0  0  0  0  0  0  0  0  0
   44.0720   68.2070   55.8180 C   0  0  0  0  0  0  0  0  0  0  0  0
   44.6900   67.3540   54.9010 C   0  0  0  0  0  0  0  0  0  0  0  0
   43.9340   66.8270   53.8470 C   0  0  0  0  0  0  0  0  0  0  0  0
   44.3960   66.0590   52.9800 O   0  0  0  0  0  0  0  0  0  0  0  0
   42.6180   67.1640   53.7540 N   0  0  0  0  0  0  0  0  0  0  0  0
   42.0230   67.9930   54.6470 C   0  0  0  0  0  0  0  0  0  0  0  0
   40.8210   68.3060   54.5710 O   0  0  0  0  0  0  0  0  0  0  0  0
   44.6850   68.5980   56.6220 H   0  0  0  0  0  0  0  0  0  0  0  0
   45.7250   67.0910   54.9780 H   0  0  0  0  0  0  0  0  0  0  0  0
   42.0220   66.7880   52.9780 H   0  0  0  0  0  0  0  0  0  0  0  0
   42.3300   70.9160   61.4120 S   0  0  0  0  0  0  0  0  0  0  0  0
   42.6690   71.2580   62.8550 O   0  0  0  0  0  0  0  0  0  0  0  0
   43.6470   71.3010   60.7180 O   0  0  0  0  0  0  0  0  0  0  0  0
   43.4010   68.4610   61.2260 C   0  0  2  0  0  3  0  0  0  0  0  0
   42.0590   69.2100   61.4180 C   0  0  1  0  0  3  0  0  0  0  0  0
   41.6720   68.8160   62.7070 O   0  0  0  0  0  0  0  0  0  0  0  0
   41.3530   67.5010   62.8450 C   0  0  0  0  0  2  0  0  0  0  0  0
   42.3750   66.5410   62.3070 C   0  0  1  0  0  3  0  0  0  0  0  0
   43.0260   67.0070   61.0510 C   0  0  2  0  0  3  0  0  0  0  0  0
   44.2530   68.6880   62.2830 O   0  0  0  0  0  0  0  0  0  0  0  0
   44.9330   69.3610   61.9640 H   0  0  0  0  0  0  0  0  0  0  0  0
   43.3690   66.2100   63.2210 O   0  0  0  0  0  0  0  0  0  0  0  0
   44.0070   65.6410   62.7220 H   0  0  0  0  0  0  0  0  0  0  0  0
   44.0900   66.2120   60.7150 O   0  0  0  0  0  0  0  0  0  0  0  0
   44.9430   66.5560   61.0400 H   0  0  0  0  0  0  0  0  0  0  0  0
  1 30  1  0  0  0  0
  1  6  1  0  0  0  0
  2  1  2  0  0  0  0
  3  2  1  0  0  0  0
  3  4  2  0  0  0  0
  4  5  1  0  0  0  0
  5  6  2  0  0  0  0
  5  9  1  0  0  0  0
  6 10  1  0  0  0  0
  7  3  1  0  0  0  0
  8  4  1  0  0  0  0
 11 16  1  0  0  0  0
 12 13  1  0  0  0  0
 12 11  2  0  0  0  0
 13 14  2  0  0  0  0
 14 15  1  0  0  0  0
 15  2  1  0  0  0  0
 16 15  2  0  0  0  0
 17 11  1  0  0  0  0
 18 13  1  0  0  0  0
 19 20  1  0  0  0  0
 19 12  1  0  0  0  0
 20 27  1  0  0  0  0
 21 28  1  0  0  0  0
 21 20  2  0  0  0  0
 22 21  1  0  0  0  0
 23 22  2  0  0  0  0
 24 22  1  0  0  0  0
 24 25  1  0  0  0  0
 25 19  1  0  0  0  0
 26 25  2  0  0  0  0
 29 24  1  0  0  0  0
 30 31  2  0  0  0  0
 32 30  2  0  0  0  0
 33 34  1  0  0  0  0
 33 39  1  1  0  0  0
 34 30  1  1  0  0  0
 34 35  1  0  0  0  0
 35 36  1  0  0  0  0
 37 36  1  0  0  0  0
 37 41  1  1  0  0  0
 38 43  1  1  0  0  0
 38 33  1  0  0  0  0
 38 37  1  0  0  0  0
 40 39  1  0  0  0  0
 42 41  1  0  0  0  0
 43 44  1  0  0  0  0
M  END
>  <minimizedAffinity>
-6.44148064

$$$$

 OpenBabel03212520333D

 44 47  0  0  1  0  0  0  0  0999 V2000
   41.0370   74.7150   59.1650 C   0  0  0  0  0  0  0  0  0  0  0  0
   40.7500   73.9910   60.3070 C   0  0  0  0  0  0  0  0  0  0  0  0
   39.8730   74.4800   61.2480 C   0  0  0  0  0  0  0  0  0  0  0  0
   39.2260   75.7110   61.1150 C   0  0  0  0  0  0  0  0  0  0  0  0
   39.4930   76.4460   59.9920 C   0  0  0  0  0  0  0  0  0  0  0  0
   40.3720   75.9520   59.0540 C   0  0  0  0  0  0  0  0  0  0  0  0
   39.6620   73.8920   62.1430 H   0  0  0  0  0  0  0  0  0  0  0  0
   38.5580   76.0120   61.8990 H   0  0  0  0  0  0  0  0  0  0  0  0
   39.0160   77.4030   59.8470 H   0  0  0  0  0  0  0  0  0  0  0  0
   40.6060   76.5090   58.1510 H   0  0  0  0  0  0  0  0  0  0  0  0
   41.6230   70.4030   60.0980 C   0  0  0  0  0  0  0  0  0  0  0  0
   42.5720   70.2880   61.1210 C   0  0  0  0  0  0  0  0  0  0  0  0
   42.8790   71.4480   61.8560 C   0  0  0  0  0  0  0  0  0  0  0  0
   42.2250   72.5830   61.5090 N   0  0  0  0  0  0  0  0  0  0  0  0
   41.3370   72.6810   60.5470 C   0  0  0  0  0  0  0  0  0  0  0  0
   41.0360   71.5810   59.8390 N   0  0  0  0  0  0  0  0  0  0  0  0
   41.3860   69.5060   59.5310 H   0  0  0  0  0  0  0  0  0  0  0  0
   43.6110   71.3680   62.6470 H   0  0  0  0  0  0  0  0  0  0  0  0
   43.1960   69.0390   61.3950 N   0  0  0  0  0  0  0  0  0  0  0  0
   42.5090   68.2700   62.2450 C   0  0  0  0  0  0  0  0  0  0  0  0
   43.0370   67.0210   62.5800 C   0  0  0  0  0  0  0  0  0  0  0  0
   44.2570   66.6270   62.0170 C   0  0  0  0  0  0  0  0  0  0  0  0
   44.8070   65.5330   62.2540 O   0  0  0  0  0  0  0  0  0  0  0  0
   44.8870   67.4760   61.1600 N   0  0  0  0  0  0  0  0  0  0  0  0
   44.3700   68.6880   60.8380 C   0  0  0  0  0  0  0  0  0  0  0  0
   44.9380   69.4710   60.0560 O   0  0  0  0  0  0  0  0  0  0  0  0
   41.5630   68.5460   62.6980 H   0  0  0  0  0  0  0  0  0  0  0  0
   42.5390   66.3560   63.2540 H   0  0  0  0  0  0  0  0  0  0  0  0
   45.8020   67.2130   60.7200 H   0  0  0  0  0  0  0  0  0  0  0  0
   42.1260   74.1460   57.9660 S   0  0  0  0  0  0  0  0  0  0  0  0
   43.4650   73.8210   58.6130 O   0  0  0  0  0  0  0  0  0  0  0  0
   42.5200   75.3650   57.1150 O   0  0  0  0  0  0  0  0  0  0  0  0
   40.2710   72.8020   56.5670 C   0  0  2  0  0  3  0  0  0  0  0  0
   41.7560   72.7590   57.0060 C   0  0  1  0  0  3  0  0  0  0  0  0
   42.4380   72.8550   55.7860 O   0  0  0  0  0  0  0  0  0  0  0  0
   42.2970   71.7900   54.9510 C   0  0  0  0  0  2  0  0  0  0  0  0
   40.8790   71.3600   54.7070 C   0  0  1  0  0  3  0  0  0  0  0  0
   40.0090   71.4650   55.9120 C   0  0  2  0  0  3  0  0  0  0  0  0
   40.0280   73.8770   55.7430 O   0  0  0  0  0  0  0  0  0  0  0  0
   39.5640   74.5720   56.3080 H   0  0  0  0  0  0  0  0  0  0  0  0
   40.2620   72.0330   53.6590 O   0  0  0  0  0  0  0  0  0  0  0  0
   39.3250   71.7130   53.6560 H   0  0  0  0  0  0  0  0  0  0  0  0
   38.6910   71.2680   55.5940 O   0  0  0  0  0  0  0  0  0  0  0  0
   38.2090   72.1000   55.4290 H   0  0  0  0  0  0  0  0  0  0  0  0
  1  2  1  0  0  0  0
  2 15  1  0  0  0  0
  2  3  2  0  0  0  0
  3  7  1  0  0  0  0
  4  3  1  0  0  0  0
  4  8  1  0  0  0  0
  5  4  2  0  0  0  0
  6  1  2  0  0  0  0
  6  5  1  0  0  0  0
  9  5  1  0  0  0  0
 10  6  1  0  0  0  0
 11 12  1  0  0  0  0
 12 19  1  0  0  0  0
 12 13  2  0  0  0  0
 13 18  1  0  0  0  0
 14 13  1  0  0  0  0
 15 14  2  0  0  0  0
 16 11  2  0  0  0  0
 16 15  1  0  0  0  0
 17 11  1  0  0  0  0
 19 20  1  0  0  0  0
 20 21  2  0  0  0  0
 20 27  1  0  0  0  0
 21 28  1  0  0  0  0
 22 23  2  0  0  0  0
 22 21  1  0  0  0  0
 24 22  1  0  0  0  0
 25 24  1  0  0  0  0
 25 19  1  0  0  0  0
 26 25  2  0  0  0  0
 29 24  1  0  0  0  0
 30 31  2  0  0  0  0
 30  1  1  0  0  0  0
 32 30  2  0  0  0  0
 33 39  1  6  0  0  0
 33 34  1  0  0  0  0
 34 30  1  1  0  0  0
 35 34  1  0  0  0  0
 36 35  1  0  0  0  0
 37 41  1  6  0  0  0
 37 36  1  0  0  0  0
 37 38  1  0  0  0  0
 38 43  1  6  0  0  0
 38 33  1  0  0  0  0
 39 40  1  0  0  0  0
 42 41  1  0  0  0  0
 44 43  1  0  0  0  0
M  END
>  <minimizedAffinity>
-6.43255568

$$$$
