
 OpenBabel03212520403D

 30 32  0  0  1  0  0  0  0  0999 V2000
   42.2170   85.5320   59.7080 C   0  0  1  0  0  0  0  0  0  0  0  0
   43.4550   86.3610   59.3840 C   0  0  0  0  0  0  0  0  0  0  0  0
   42.7110   85.5500   58.3230 C   0  0  1  0  0  0  0  0  0  0  0  0
   41.3940   86.1760   60.0800 H   0  0  0  0  0  0  0  0  0  0  0  0
   44.4560   85.9730   59.6070 H   0  0  0  0  0  0  0  0  0  0  0  0
   43.3840   87.4560   59.3110 H   0  0  0  0  0  0  0  0  0  0  0  0
   42.0790   86.1310   57.5970 H   0  0  0  0  0  0  0  0  0  0  0  0
   42.5430   84.4100   60.5310 O   0  0  0  0  0  0  0  0  0  0  0  0
   40.0760   83.5390   63.0340 C   0  0  0  0  0  0  0  0  0  0  0  0
   40.7680   83.8080   64.2150 C   0  0  0  0  0  0  0  0  0  0  0  0
   42.0930   84.2920   64.1190 C   0  0  0  0  0  0  0  0  0  0  0  0
   42.5520   84.4430   62.8600 N   0  0  0  0  0  0  0  0  0  0  0  0
   41.9050   84.1920   61.7280 C   0  0  0  0  0  0  0  0  0  0  0  0
   40.6430   83.7300   61.7980 N   0  0  0  0  0  0  0  0  0  0  0  0
   39.0470   83.1620   63.0750 H   0  0  0  0  0  0  0  0  0  0  0  0
   40.3110   83.6530   65.1800 H   0  0  0  0  0  0  0  0  0  0  0  0
   42.6720   84.5170   64.9950 H   0  0  0  0  0  0  0  0  0  0  0  0
   43.3160   84.3980   57.8440 O   0  0  0  0  0  0  0  0  0  0  0  0
   42.4510   84.0500   55.6240 C   0  0  2  0  0  3  0  0  0  0  0  0
   42.5130   83.5950   57.0750 C   0  0  1  0  0  3  0  0  0  0  0  0
   42.9180   82.2610   57.1550 O   0  0  0  0  0  0  0  0  0  0  0  0
   44.0240   82.0540   56.3360 C   0  0  0  0  0  2  0  0  0  0  0  0
   43.5610   82.0010   54.9060 C   0  0  1  0  0  3  0  0  0  0  0  0
   42.2670   82.7830   54.8140 C   0  0  2  0  0  3  0  0  0  0  0  0
   43.6740   84.6010   55.2180 O   0  0  0  0  0  0  0  0  0  0  0  0
   43.7690   85.4320   55.7830 H   0  0  0  0  0  0  0  0  0  0  0  0
   44.5360   82.6670   54.1440 O   0  0  0  0  0  0  0  0  0  0  0  0
   44.6160   82.3490   53.2300 H   0  0  0  0  0  0  0  0  0  0  0  0
   41.9590   83.1390   53.5020 O   0  0  0  0  0  0  0  0  0  0  0  0
   41.2210   83.8080   53.5740 H   0  0  0  0  0  0  0  0  0  0  0  0
  1  4  1  1  0  0  0
  1  8  1  0  0  0  0
  2  5  1  0  0  0  0
  2  1  1  0  0  0  0
  3  7  1  6  0  0  0
  3  2  1  0  0  0  0
  3  1  1  0  0  0  0
  6  2  1  0  0  0  0
  8 13  1  0  0  0  0
  9 15  1  0  0  0  0
  9 10  1  0  0  0  0
 10 16  1  0  0  0  0
 11 10  2  0  0  0  0
 11 17  1  0  0  0  0
 12 11  1  0  0  0  0
 13 14  1  0  0  0  0
 13 12  2  0  0  0  0
 14  9  2  0  0  0  0
 18  3  1  0  0  0  0
 19 25  1  6  0  0  0
 19 20  1  0  0  0  0
 20 21  1  0  0  0  0
 20 18  1  1  0  0  0
 22 21  1  0  0  0  0
 23 27  1  6  0  0  0
 23 22  1  0  0  0  0
 24 29  1  6  0  0  0
 24 23  1  0  0  0  0
 24 19  1  0  0  0  0
 25 26  1  0  0  0  0
 28 27  1  0  0  0  0
 29 30  1  0  0  0  0
M  END
>  <minimizedAffinity>
-4.07060289

>  <minimizedRMSD>
1.97243977

$$$$
