
 OpenBabel03212520403D

 30 32  0  0  1  0  0  0  0  0999 V2000
   42.5150   85.3990   59.8870 C   0  0  1  0  0  0  0  0  0  0  0  0
   43.5900   85.4800   58.8070 C   0  0  0  0  0  0  0  0  0  0  0  0
   42.2070   84.8840   58.5430 C   0  0  1  0  0  0  0  0  0  0  0  0
   42.2310   86.4110   60.2400 H   0  0  0  0  0  0  0  0  0  0  0  0
   44.3980   84.7400   58.7730 H   0  0  0  0  0  0  0  0  0  0  0  0
   43.8150   86.4410   58.3230 H   0  0  0  0  0  0  0  0  0  0  0  0
   41.4950   85.5110   57.9420 H   0  0  0  0  0  0  0  0  0  0  0  0
   42.8720   84.4650   60.9070 O   0  0  0  0  0  0  0  0  0  0  0  0
   40.0230   83.6030   62.9670 C   0  0  0  0  0  0  0  0  0  0  0  0
   40.5300   83.8120   64.2500 C   0  0  0  0  0  0  0  0  0  0  0  0
   41.8680   84.2530   64.3770 C   0  0  0  0  0  0  0  0  0  0  0  0
   42.5200   84.4260   63.2090 N   0  0  0  0  0  0  0  0  0  0  0  0
   42.0490   84.2320   61.9830 C   0  0  0  0  0  0  0  0  0  0  0  0
   40.7790   83.8120   61.8410 N   0  0  0  0  0  0  0  0  0  0  0  0
   38.9890   83.2610   62.8360 H   0  0  0  0  0  0  0  0  0  0  0  0
   39.9250   83.6430   65.1270 H   0  0  0  0  0  0  0  0  0  0  0  0
   42.3110   84.4300   65.3380 H   0  0  0  0  0  0  0  0  0  0  0  0
   42.1120   83.5080   58.3930 O   0  0  0  0  0  0  0  0  0  0  0  0
   41.1900   81.9380   56.8160 C   0  0  2  0  0  3  0  0  0  0  0  0
   40.9510   83.0650   57.8110 C   0  0  1  0  0  3  0  0  0  0  0  0
   40.0250   82.6760   58.7820 O   0  0  0  0  0  0  0  0  0  0  0  0
   40.3480   81.4100   59.2620 C   0  0  0  0  0  2  0  0  0  0  0  0
   39.9480   80.3880   58.2320 C   0  0  1  0  0  3  0  0  0  0  0  0
   39.9470   81.0740   56.8820 C   0  0  2  0  0  3  0  0  0  0  0  0
   42.2550   81.1250   57.2260 O   0  0  0  0  0  0  0  0  0  0  0  0
   43.0600   81.7320   57.1810 H   0  0  0  0  0  0  0  0  0  0  0  0
   40.9570   79.4090   58.2270 O   0  0  0  0  0  0  0  0  0  0  0  0
   40.6520   78.5220   57.9760 H   0  0  0  0  0  0  0  0  0  0  0  0
   39.9860   80.1650   55.8270 O   0  0  0  0  0  0  0  0  0  0  0  0
   40.1860   80.7090   55.0130 H   0  0  0  0  0  0  0  0  0  0  0  0
  1  4  1  1  0  0  0
  1  8  1  0  0  0  0
  2  1  1  0  0  0  0
  3  7  1  6  0  0  0
  3  2  1  0  0  0  0
  3  1  1  0  0  0  0
  5  2  1  0  0  0  0
  6  2  1  0  0  0  0
  8 13  1  0  0  0  0
  9 10  1  0  0  0  0
 10 11  2  0  0  0  0
 10 16  1  0  0  0  0
 11 17  1  0  0  0  0
 12 11  1  0  0  0  0
 13 12  2  0  0  0  0
 14 13  1  0  0  0  0
 14  9  2  0  0  0  0
 15  9  1  0  0  0  0
 18  3  1  0  0  0  0
 19 24  1  0  0  0  0
 19 25  1  1  0  0  0
 19 20  1  0  0  0  0
 20 18  1  1  0  0  0
 20 21  1  0  0  0  0
 21 22  1  0  0  0  0
 23 27  1  6  0  0  0
 23 22  1  0  0  0  0
 24 29  1  6  0  0  0
 24 23  1  0  0  0  0
 26 25  1  0  0  0  0
 28 27  1  0  0  0  0
 30 29  1  0  0  0  0
M  END
>  <minimizedAffinity>
-4.45766592

>  <minimizedRMSD>
2.98001361

$$$$
