
 OpenBabel03212520413D

 30 32  0  0  1  0  0  0  0  0999 V2000
   42.5620   74.9640   58.0920 C   0  0  1  0  0  0  0  0  0  0  0  0
   43.1010   74.2510   56.8560 C   0  0  0  0  0  0  0  0  0  0  0  0
   41.8780   75.1680   56.8050 C   0  0  1  0  0  0  0  0  0  0  0  0
   43.3170   75.6620   58.5080 H   0  0  0  0  0  0  0  0  0  0  0  0
   42.8630   73.1960   56.6770 H   0  0  0  0  0  0  0  0  0  0  0  0
   44.0140   74.6150   56.3620 H   0  0  0  0  0  0  0  0  0  0  0  0
   42.0270   76.1790   56.3400 H   0  0  0  0  0  0  0  0  0  0  0  0
   41.9980   74.0370   59.0210 O   0  0  0  0  0  0  0  0  0  0  0  0
   38.9390   73.8430   60.9480 C   0  0  0  0  0  0  0  0  0  0  0  0
   38.7310   75.1830   61.2810 C   0  0  0  0  0  0  0  0  0  0  0  0
   39.6680   76.1390   60.8250 C   0  0  0  0  0  0  0  0  0  0  0  0
   40.6860   75.6320   60.0990 N   0  0  0  0  0  0  0  0  0  0  0  0
   40.8950   74.3620   59.7750 C   0  0  0  0  0  0  0  0  0  0  0  0
   40.0150   73.4370   60.2000 N   0  0  0  0  0  0  0  0  0  0  0  0
   38.2300   73.0780   61.2870 H   0  0  0  0  0  0  0  0  0  0  0  0
   37.8810   75.4890   61.8700 H   0  0  0  0  0  0  0  0  0  0  0  0
   39.5590   77.1820   61.0500 H   0  0  0  0  0  0  0  0  0  0  0  0
   40.6330   74.5790   56.6420 O   0  0  0  0  0  0  0  0  0  0  0  0
   38.7850   74.5940   55.0980 C   0  0  2  0  0  3  0  0  0  0  0  0
   39.6880   75.3740   56.0460 C   0  0  1  0  0  3  0  0  0  0  0  0
   38.9290   76.0520   57.0020 O   0  0  0  0  0  0  0  0  0  0  0  0
   37.9690   75.1960   57.5360 C   0  0  0  0  0  2  0  0  0  0  0  0
   36.8620   75.0280   56.5340 C   0  0  1  0  0  3  0  0  0  0  0  0
   37.4410   75.2920   55.1600 C   0  0  2  0  0  3  0  0  0  0  0  0
   38.5710   73.2910   55.5680 O   0  0  0  0  0  0  0  0  0  0  0  0
   39.4840   72.8610   55.5250 H   0  0  0  0  0  0  0  0  0  0  0  0
   36.4670   73.6810   56.5940 O   0  0  0  0  0  0  0  0  0  0  0  0
   35.5350   73.5250   56.3660 H   0  0  0  0  0  0  0  0  0  0  0  0
   36.6360   74.7880   54.1410 O   0  0  0  0  0  0  0  0  0  0  0  0
   37.1950   74.8320   53.3130 H   0  0  0  0  0  0  0  0  0  0  0  0
  1  4  1  1  0  0  0
  1  8  1  0  0  0  0
  2  1  1  0  0  0  0
  3  7  1  6  0  0  0
  3  2  1  0  0  0  0
  3  1  1  0  0  0  0
  5  2  1  0  0  0  0
  6  2  1  0  0  0  0
  8 13  1  0  0  0  0
  9 10  1  0  0  0  0
  9 15  1  0  0  0  0
 10 16  1  0  0  0  0
 11 17  1  0  0  0  0
 11 10  2  0  0  0  0
 12 11  1  0  0  0  0
 13 12  2  0  0  0  0
 13 14  1  0  0  0  0
 14  9  2  0  0  0  0
 18  3  1  0  0  0  0
 19 24  1  0  0  0  0
 19 25  1  1  0  0  0
 19 20  1  0  0  0  0
 20 18  1  1  0  0  0
 20 21  1  0  0  0  0
 21 22  1  0  0  0  0
 23 27  1  6  0  0  0
 23 22  1  0  0  0  0
 24 29  1  6  0  0  0
 24 23  1  0  0  0  0
 26 25  1  0  0  0  0
 28 27  1  0  0  0  0
 30 29  1  0  0  0  0
M  END
>  <minimizedAffinity>
-5.41795969

$$$$

 OpenBabel03212520413D

 30 32  0  0  1  0  0  0  0  0999 V2000
   39.3830   75.7650   59.4090 C   0  0  1  0  0  0  0  0  0  0  0  0
   39.1050   75.1590   60.7810 C   0  0  0  0  0  0  0  0  0  0  0  0
   40.0530   74.5070   59.7740 C   0  0  1  0  0  0  0  0  0  0  0  0
   39.8520   76.7660   59.5060 H   0  0  0  0  0  0  0  0  0  0  0  0
   38.1890   74.5810   60.9560 H   0  0  0  0  0  0  0  0  0  0  0  0
   39.5610   75.5950   61.6810 H   0  0  0  0  0  0  0  0  0  0  0  0
   41.1520   74.5950   59.9890 H   0  0  0  0  0  0  0  0  0  0  0  0
   38.2300   75.7020   58.5690 O   0  0  0  0  0  0  0  0  0  0  0  0
   39.1640   77.5590   55.6040 C   0  0  0  0  0  0  0  0  0  0  0  0
   37.9820   77.5180   54.8630 C   0  0  0  0  0  0  0  0  0  0  0  0
   36.8700   76.8380   55.4140 C   0  0  0  0  0  0  0  0  0  0  0  0
   37.0850   76.2910   56.6270 N   0  0  0  0  0  0  0  0  0  0  0  0
   38.2030   76.3220   57.3420 C   0  0  0  0  0  0  0  0  0  0  0  0
   39.2730   76.9630   56.8360 N   0  0  0  0  0  0  0  0  0  0  0  0
   40.0430   78.0780   55.2050 H   0  0  0  0  0  0  0  0  0  0  0  0
   37.9100   77.9890   53.8960 H   0  0  0  0  0  0  0  0  0  0  0  0
   35.9370   76.7750   54.8890 H   0  0  0  0  0  0  0  0  0  0  0  0
   39.6290   73.3490   59.1390 O   0  0  0  0  0  0  0  0  0  0  0  0
   40.2280   71.3010   58.0240 C   0  0  2  0  0  3  0  0  0  0  0  0
   40.5630   72.7550   58.3300 C   0  0  1  0  0  3  0  0  0  0  0  0
   40.7340   73.4790   57.1480 O   0  0  0  0  0  0  0  0  0  0  0  0
   39.6920   73.1970   56.2670 C   0  0  0  0  0  2  0  0  0  0  0  0
   39.9250   71.8400   55.6650 C   0  0  1  0  0  3  0  0  0  0  0  0
   40.7760   71.0470   56.6340 C   0  0  2  0  0  3  0  0  0  0  0  0
   38.8420   71.1130   57.9390 O   0  0  0  0  0  0  0  0  0  0  0  0
   38.5100   71.3010   58.8740 H   0  0  0  0  0  0  0  0  0  0  0  0
   38.6670   71.2200   55.5750 O   0  0  0  0  0  0  0  0  0  0  0  0
   38.5860   70.5810   54.8470 H   0  0  0  0  0  0  0  0  0  0  0  0
   40.7240   69.6770   56.3850 O   0  0  0  0  0  0  0  0  0  0  0  0
   41.1410   69.2440   57.1830 H   0  0  0  0  0  0  0  0  0  0  0  0
  1  4  1  6  0  0  0
  1  3  1  0  0  0  0
  1  2  1  0  0  0  0
  2  5  1  0  0  0  0
  2  6  1  0  0  0  0
  3  7  1  1  0  0  0
  3  2  1  0  0  0  0
  8  1  1  0  0  0  0
  9 14  1  0  0  0  0
 10 11  1  0  0  0  0
 10  9  2  0  0  0  0
 11 12  2  0  0  0  0
 12 13  1  0  0  0  0
 13  8  1  0  0  0  0
 14 13  2  0  0  0  0
 15  9  1  0  0  0  0
 16 10  1  0  0  0  0
 17 11  1  0  0  0  0
 18  3  1  0  0  0  0
 19 25  1  6  0  0  0
 19 20  1  0  0  0  0
 20 18  1  6  0  0  0
 21 20  1  0  0  0  0
 22 21  1  0  0  0  0
 23 27  1  1  0  0  0
 23 22  1  0  0  0  0
 23 24  1  0  0  0  0
 24 29  1  6  0  0  0
 24 19  1  0  0  0  0
 25 26  1  0  0  0  0
 28 27  1  0  0  0  0
 29 30  1  0  0  0  0
M  END
>  <minimizedAffinity>
-5.3787961

$$$$

 OpenBabel03212520413D

 30 32  0  0  1  0  0  0  0  0999 V2000
   43.2210   74.4480   59.3110 C   0  0  1  0  0  0  0  0  0  0  0  0
   43.7300   75.0140   57.9890 C   0  0  0  0  0  0  0  0  0  0  0  0
   42.2460   74.9960   58.3550 C   0  0  1  0  0  0  0  0  0  0  0  0
   43.6310   75.0180   60.1700 H   0  0  0  0  0  0  0  0  0  0  0  0
   43.9840   74.3430   57.1590 H   0  0  0  0  0  0  0  0  0  0  0  0
   44.2220   75.9970   57.9610 H   0  0  0  0  0  0  0  0  0  0  0  0
   41.7880   75.9790   58.6490 H   0  0  0  0  0  0  0  0  0  0  0  0
   43.3920   73.0310   59.3700 O   0  0  0  0  0  0  0  0  0  0  0  0
   43.0600   70.4020   61.8360 C   0  0  0  0  0  0  0  0  0  0  0  0
   42.2510   71.0160   62.7940 C   0  0  0  0  0  0  0  0  0  0  0  0
   41.8330   72.3470   62.5630 C   0  0  0  0  0  0  0  0  0  0  0  0
   42.2750   72.8870   61.4090 N   0  0  0  0  0  0  0  0  0  0  0  0
   43.0430   72.3150   60.4900 C   0  0  0  0  0  0  0  0  0  0  0  0
   43.4530   71.0490   60.6910 N   0  0  0  0  0  0  0  0  0  0  0  0
   43.4010   69.3700   61.9870 H   0  0  0  0  0  0  0  0  0  0  0  0
   41.9510   70.4960   63.6900 H   0  0  0  0  0  0  0  0  0  0  0  0
   41.2110   72.8680   63.2640 H   0  0  0  0  0  0  0  0  0  0  0  0
   41.4250   74.0950   57.6910 O   0  0  0  0  0  0  0  0  0  0  0  0
   39.0810   74.1340   57.1390 C   0  0  2  0  0  3  0  0  0  0  0  0
   40.1590   73.9760   58.2040 C   0  0  1  0  0  3  0  0  0  0  0  0
   40.0060   72.7640   58.8820 O   0  0  0  0  0  0  0  0  0  0  0  0
   39.8060   71.7340   57.9670 C   0  0  0  0  0  2  0  0  0  0  0  0
   38.3960   71.8140   57.4520 C   0  0  1  0  0  3  0  0  0  0  0  0
   37.9370   73.2500   57.5930 C   0  0  2  0  0  3  0  0  0  0  0  0
   39.5120   73.6170   55.9100 O   0  0  0  0  0  0  0  0  0  0  0  0
   40.2790   74.2180   55.6450 H   0  0  0  0  0  0  0  0  0  0  0  0
   38.4500   71.5010   56.0840 O   0  0  0  0  0  0  0  0  0  0  0  0
   37.6420   71.0900   55.7340 H   0  0  0  0  0  0  0  0  0  0  0  0
   36.8250   73.5300   56.8010 O   0  0  0  0  0  0  0  0  0  0  0  0
   36.7340   74.5250   56.8100 H   0  0  0  0  0  0  0  0  0  0  0  0
  1  8  1  0  0  0  0
  1  4  1  1  0  0  0
  2  3  1  0  0  0  0
  2  1  1  0  0  0  0
  3  7  1  1  0  0  0
  3  1  1  0  0  0  0
  5  2  1  0  0  0  0
  6  2  1  0  0  0  0
  8 13  1  0  0  0  0
  9 15  1  0  0  0  0
  9 10  1  0  0  0  0
 10 16  1  0  0  0  0
 11 10  2  0  0  0  0
 11 17  1  0  0  0  0
 12 11  1  0  0  0  0
 13 14  1  0  0  0  0
 13 12  2  0  0  0  0
 14  9  2  0  0  0  0
 18  3  1  0  0  0  0
 19 25  1  6  0  0  0
 19 24  1  0  0  0  0
 19 20  1  0  0  0  0
 20 18  1  6  0  0  0
 20 21  1  0  0  0  0
 22 21  1  0  0  0  0
 23 27  1  6  0  0  0
 23 24  1  0  0  0  0
 23 22  1  0  0  0  0
 24 29  1  6  0  0  0
 26 25  1  0  0  0  0
 28 27  1  0  0  0  0
 29 30  1  0  0  0  0
M  END
>  <minimizedAffinity>
-5.33421326

$$$$

 OpenBabel03212520413D

 30 32  0  0  1  0  0  0  0  0999 V2000
   39.2470   75.6110   60.0380 C   0  0  1  0  0  0  0  0  0  0  0  0
   40.4650   76.3940   59.5590 C   0  0  0  0  0  0  0  0  0  0  0  0
   39.0940   76.5250   58.8960 C   0  0  1  0  0  0  0  0  0  0  0  0
   38.9890   75.8790   61.0830 H   0  0  0  0  0  0  0  0  0  0  0  0
   41.2160   75.9140   58.9190 H   0  0  0  0  0  0  0  0  0  0  0  0
   40.8250   77.2620   60.1310 H   0  0  0  0  0  0  0  0  0  0  0  0
   38.5200   77.4670   59.1100 H   0  0  0  0  0  0  0  0  0  0  0  0
   39.3900   74.2140   59.7760 O   0  0  0  0  0  0  0  0  0  0  0  0
   42.3890   72.2050   60.0540 C   0  0  0  0  0  0  0  0  0  0  0  0
   42.5270   72.0960   61.4380 C   0  0  0  0  0  0  0  0  0  0  0  0
   41.5650   72.7300   62.2580 C   0  0  0  0  0  0  0  0  0  0  0  0
   40.5960   73.3880   61.5900 N   0  0  0  0  0  0  0  0  0  0  0  0
   40.4530   73.4980   60.2750 C   0  0  0  0  0  0  0  0  0  0  0  0
   41.3580   72.9020   59.4770 N   0  0  0  0  0  0  0  0  0  0  0  0
   43.1190   71.7240   59.3910 H   0  0  0  0  0  0  0  0  0  0  0  0
   43.3430   71.5450   61.8790 H   0  0  0  0  0  0  0  0  0  0  0  0
   41.6210   72.6800   63.3290 H   0  0  0  0  0  0  0  0  0  0  0  0
   38.9240   75.9580   57.6410 O   0  0  0  0  0  0  0  0  0  0  0  0
   38.7120   76.7610   55.3810 C   0  0  2  0  0  3  0  0  0  0  0  0
   38.1260   76.6730   56.7840 C   0  0  1  0  0  3  0  0  0  0  0  0
   36.8340   76.1440   56.7450 O   0  0  0  0  0  0  0  0  0  0  0  0
   36.8110   75.0130   55.9330 C   0  0  0  0  0  2  0  0  0  0  0  0
   36.8540   75.4520   54.4960 C   0  0  1  0  0  3  0  0  0  0  0  0
   37.5170   76.8130   54.4500 C   0  0  2  0  0  3  0  0  0  0  0  0
   39.4110   75.5910   55.0550 O   0  0  0  0  0  0  0  0  0  0  0  0
   40.1890   75.5820   55.6980 H   0  0  0  0  0  0  0  0  0  0  0  0
   37.6790   74.5370   53.8210 O   0  0  0  0  0  0  0  0  0  0  0  0
   37.4600   74.4160   52.8820 H   0  0  0  0  0  0  0  0  0  0  0  0
   37.9680   77.1390   53.1730 O   0  0  0  0  0  0  0  0  0  0  0  0
   38.5550   77.9390   53.2930 H   0  0  0  0  0  0  0  0  0  0  0  0
  1  4  1  1  0  0  0
  2  1  1  0  0  0  0
  2  6  1  0  0  0  0
  3  7  1  1  0  0  0
  3  2  1  0  0  0  0
  3  1  1  0  0  0  0
  5  2  1  0  0  0  0
  8  1  1  0  0  0  0
  8 13  1  0  0  0  0
  9 10  1  0  0  0  0
 10 16  1  0  0  0  0
 10 11  2  0  0  0  0
 11 17  1  0  0  0  0
 12 11  1  0  0  0  0
 13 12  2  0  0  0  0
 14  9  2  0  0  0  0
 14 13  1  0  0  0  0
 15  9  1  0  0  0  0
 18  3  1  0  0  0  0
 19 25  1  6  0  0  0
 19 20  1  0  0  0  0
 20 18  1  1  0  0  0
 21 20  1  0  0  0  0
 22 21  1  0  0  0  0
 23 27  1  6  0  0  0
 23 22  1  0  0  0  0
 24 29  1  6  0  0  0
 24 23  1  0  0  0  0
 24 19  1  0  0  0  0
 25 26  1  0  0  0  0
 28 27  1  0  0  0  0
 29 30  1  0  0  0  0
M  END
>  <minimizedAffinity>
-5.21730185

$$$$

 OpenBabel03212520413D

 30 32  0  0  1  0  0  0  0  0999 V2000
   43.2420   71.1750   58.8890 C   0  0  1  0  0  0  0  0  0  0  0  0
   41.8340   70.5900   58.9090 C   0  0  0  0  0  0  0  0  0  0  0  0
   42.1330   71.9880   58.3660 C   0  0  1  0  0  0  0  0  0  0  0  0
   43.9160   70.5660   58.2520 H   0  0  0  0  0  0  0  0  0  0  0  0
   41.2440   70.5970   59.8330 H   0  0  0  0  0  0  0  0  0  0  0  0
   41.5420   69.8250   58.1750 H   0  0  0  0  0  0  0  0  0  0  0  0
   42.1130   72.1090   57.2500 H   0  0  0  0  0  0  0  0  0  0  0  0
   43.7140   71.4400   60.2110 O   0  0  0  0  0  0  0  0  0  0  0  0
   41.6700   70.8620   63.1440 C   0  0  0  0  0  0  0  0  0  0  0  0
   42.0330   69.5590   63.4870 C   0  0  0  0  0  0  0  0  0  0  0  0
   42.9920   68.8980   62.6840 C   0  0  0  0  0  0  0  0  0  0  0  0
   43.4600   69.6230   61.6470 N   0  0  0  0  0  0  0  0  0  0  0  0
   43.1230   70.8630   61.3100 C   0  0  0  0  0  0  0  0  0  0  0  0
   42.2120   71.5090   62.0610 N   0  0  0  0  0  0  0  0  0  0  0  0
   40.9290   71.4010   63.7470 H   0  0  0  0  0  0  0  0  0  0  0  0
   41.5990   69.0620   64.3390 H   0  0  0  0  0  0  0  0  0  0  0  0
   43.3090   67.8960   62.9000 H   0  0  0  0  0  0  0  0  0  0  0  0
   41.7260   73.0780   59.1220 O   0  0  0  0  0  0  0  0  0  0  0  0
   39.3960   73.3580   59.6640 C   0  0  2  0  0  3  0  0  0  0  0  0
   40.5520   73.6600   58.7190 C   0  0  1  0  0  3  0  0  0  0  0  0
   40.7070   75.0380   58.5560 O   0  0  0  0  0  0  0  0  0  0  0  0
   40.6700   75.6670   59.7990 C   0  0  0  0  0  2  0  0  0  0  0  0
   39.2440   75.7150   60.2720 C   0  0  1  0  0  3  0  0  0  0  0  0
   38.5000   74.5780   59.6030 C   0  0  2  0  0  3  0  0  0  0  0  0
   39.8440   73.2660   60.9890 O   0  0  0  0  0  0  0  0  0  0  0  0
   40.4440   72.4540   60.9900 H   0  0  0  0  0  0  0  0  0  0  0  0
   39.2720   75.4710   61.6550 O   0  0  0  0  0  0  0  0  0  0  0  0
   38.5480   75.8890   62.1510 H   0  0  0  0  0  0  0  0  0  0  0  0
   37.3030   74.2770   60.2510 O   0  0  0  0  0  0  0  0  0  0  0  0
   37.0030   73.4050   59.8650 H   0  0  0  0  0  0  0  0  0  0  0  0
  1  4  1  6  0  0  0
  1  2  1  0  0  0  0
  1  8  1  0  0  0  0
  2  5  1  0  0  0  0
  3  7  1  6  0  0  0
  3  1  1  0  0  0  0
  3  2  1  0  0  0  0
  3 18  1  0  0  0  0
  6  2  1  0  0  0  0
  8 13  1  0  0  0  0
  9 10  1  0  0  0  0
  9 15  1  0  0  0  0
 10 16  1  0  0  0  0
 11 17  1  0  0  0  0
 11 10  2  0  0  0  0
 12 11  1  0  0  0  0
 13 12  2  0  0  0  0
 13 14  1  0  0  0  0
 14  9  2  0  0  0  0
 19 25  1  1  0  0  0
 20 18  1  1  0  0  0
 20 19  1  0  0  0  0
 21 20  1  0  0  0  0
 21 22  1  0  0  0  0
 22 23  1  0  0  0  0
 23 27  1  1  0  0  0
 24 19  1  0  0  0  0
 24 29  1  1  0  0  0
 24 23  1  0  0  0  0
 25 26  1  0  0  0  0
 27 28  1  0  0  0  0
 30 29  1  0  0  0  0
M  END
>  <minimizedAffinity>
-5.0997467

$$$$

 OpenBabel03212520413D

 30 32  0  0  1  0  0  0  0  0999 V2000
   39.3210   76.1500   59.5690 C   0  0  1  0  0  0  0  0  0  0  0  0
   39.4760   75.6560   61.0040 C   0  0  0  0  0  0  0  0  0  0  0  0
   40.6610   75.7700   60.0450 C   0  0  1  0  0  0  0  0  0  0  0  0
   38.9460   77.1930   59.5470 H   0  0  0  0  0  0  0  0  0  0  0  0
   39.2230   74.6210   61.2650 H   0  0  0  0  0  0  0  0  0  0  0  0
   39.4450   76.3690   61.8400 H   0  0  0  0  0  0  0  0  0  0  0  0
   41.3670   76.6260   60.2170 H   0  0  0  0  0  0  0  0  0  0  0  0
   38.5930   75.2130   58.7730 O   0  0  0  0  0  0  0  0  0  0  0  0
   36.5930   75.2240   55.7540 C   0  0  0  0  0  0  0  0  0  0  0  0
   36.8010   76.5210   55.2840 C   0  0  0  0  0  0  0  0  0  0  0  0
   37.6410   77.3780   56.0330 C   0  0  0  0  0  0  0  0  0  0  0  0
   38.1610   76.8270   57.1500 N   0  0  0  0  0  0  0  0  0  0  0  0
   37.9720   75.5960   57.6080 C   0  0  0  0  0  0  0  0  0  0  0  0
   37.1760   74.7650   56.9100 N   0  0  0  0  0  0  0  0  0  0  0  0
   35.9470   74.5360   55.1960 H   0  0  0  0  0  0  0  0  0  0  0  0
   36.3370   76.8690   54.3760 H   0  0  0  0  0  0  0  0  0  0  0  0
   37.8370   78.3850   55.7200 H   0  0  0  0  0  0  0  0  0  0  0  0
   41.2080   74.5970   59.5470 O   0  0  0  0  0  0  0  0  0  0  0  0
   43.6080   74.5450   59.7350 C   0  0  2  0  0  3  0  0  0  0  0  0
   42.3820   74.7500   58.8550 C   0  0  1  0  0  3  0  0  0  0  0  0
   42.4250   73.9000   57.7480 O   0  0  0  0  0  0  0  0  0  0  0  0
   42.7540   72.6100   58.1550 C   0  0  0  0  0  2  0  0  0  0  0  0
   44.2260   72.5620   58.4580 C   0  0  1  0  0  3  0  0  0  0  0  0
   44.6670   73.9650   58.8200 C   0  0  2  0  0  3  0  0  0  0  0  0
   43.3640   73.5750   60.7170 O   0  0  0  0  0  0  0  0  0  0  0  0
   42.6500   73.9880   61.2990 H   0  0  0  0  0  0  0  0  0  0  0  0
   44.3760   71.7460   59.5920 O   0  0  0  0  0  0  0  0  0  0  0  0
   45.2260   71.2770   59.6380 H   0  0  0  0  0  0  0  0  0  0  0  0
   45.8860   73.9780   59.4930 O   0  0  0  0  0  0  0  0  0  0  0  0
   45.9800   74.9050   59.8570 H   0  0  0  0  0  0  0  0  0  0  0  0
  1  4  1  6  0  0  0
  1  3  1  0  0  0  0
  1  2  1  0  0  0  0
  2  5  1  0  0  0  0
  2  6  1  0  0  0  0
  3  7  1  1  0  0  0
  3  2  1  0  0  0  0
  8  1  1  0  0  0  0
  9 14  1  0  0  0  0
 10  9  2  0  0  0  0
 10 11  1  0  0  0  0
 11 12  2  0  0  0  0
 12 13  1  0  0  0  0
 13  8  1  0  0  0  0
 14 13  2  0  0  0  0
 15  9  1  0  0  0  0
 16 10  1  0  0  0  0
 17 11  1  0  0  0  0
 18  3  1  0  0  0  0
 19 25  1  1  0  0  0
 20 18  1  1  0  0  0
 20 19  1  0  0  0  0
 21 22  1  0  0  0  0
 21 20  1  0  0  0  0
 22 23  1  0  0  0  0
 23 24  1  0  0  0  0
 23 27  1  1  0  0  0
 24 29  1  1  0  0  0
 24 19  1  0  0  0  0
 25 26  1  0  0  0  0
 27 28  1  0  0  0  0
 29 30  1  0  0  0  0
M  END
>  <minimizedAffinity>
-5.09714508

$$$$

 OpenBabel03212520413D

 30 32  0  0  1  0  0  0  0  0999 V2000
   42.1810   69.1340   58.7550 C   0  0  1  0  0  0  0  0  0  0  0  0
   41.3060   68.2010   57.9230 C   0  0  0  0  0  0  0  0  0  0  0  0
   41.5000   69.6760   57.5690 C   0  0  1  0  0  0  0  0  0  0  0  0
   43.2360   68.7900   58.7590 H   0  0  0  0  0  0  0  0  0  0  0  0
   40.2870   67.9600   58.2480 H   0  0  0  0  0  0  0  0  0  0  0  0
   41.7680   67.4650   57.2490 H   0  0  0  0  0  0  0  0  0  0  0  0
   42.1690   69.8990   56.6940 H   0  0  0  0  0  0  0  0  0  0  0  0
   41.6050   69.3780   60.0390 O   0  0  0  0  0  0  0  0  0  0  0  0
   42.4280   66.8790   62.5260 C   0  0  0  0  0  0  0  0  0  0  0  0
   43.0890   67.6450   63.4870 C   0  0  0  0  0  0  0  0  0  0  0  0
   43.2370   69.0320   63.2500 C   0  0  0  0  0  0  0  0  0  0  0  0
   42.7090   69.4680   62.0890 N   0  0  0  0  0  0  0  0  0  0  0  0
   42.0780   68.7500   61.1670 C   0  0  0  0  0  0  0  0  0  0  0  0
   41.9270   67.4290   61.3730 N   0  0  0  0  0  0  0  0  0  0  0  0
   42.2970   65.8010   62.6810 H   0  0  0  0  0  0  0  0  0  0  0  0
   43.4780   67.2000   64.3880 H   0  0  0  0  0  0  0  0  0  0  0  0
   43.7360   69.6700   63.9540 H   0  0  0  0  0  0  0  0  0  0  0  0
   40.4350   70.5390   57.7810 O   0  0  0  0  0  0  0  0  0  0  0  0
   39.5620   71.9400   56.0280 C   0  0  2  0  0  3  0  0  0  0  0  0
   40.5500   71.7640   57.1730 C   0  0  1  0  0  3  0  0  0  0  0  0
   40.4140   72.7970   58.1030 O   0  0  0  0  0  0  0  0  0  0  0  0
   39.0680   72.9940   58.3980 C   0  0  0  0  0  2  0  0  0  0  0  0
   38.4240   73.7180   57.2490 C   0  0  1  0  0  3  0  0  0  0  0  0
   39.2350   73.4190   56.0050 C   0  0  2  0  0  3  0  0  0  0  0  0
   38.3570   71.2770   56.2970 O   0  0  0  0  0  0  0  0  0  0  0  0
   38.6130   70.3000   56.3170 H   0  0  0  0  0  0  0  0  0  0  0  0
   37.1460   73.1590   57.0870 O   0  0  0  0  0  0  0  0  0  0  0  0
   36.4830   73.7700   56.7240 H   0  0  0  0  0  0  0  0  0  0  0  0
   38.5290   73.6960   54.8360 O   0  0  0  0  0  0  0  0  0  0  0  0
   39.0620   73.2810   54.0980 H   0  0  0  0  0  0  0  0  0  0  0  0
  1  4  1  6  0  0  0
  1  8  1  0  0  0  0
  2  5  1  0  0  0  0
  2  1  1  0  0  0  0
  3  7  1  6  0  0  0
  3 18  1  0  0  0  0
  3  2  1  0  0  0  0
  3  1  1  0  0  0  0
  6  2  1  0  0  0  0
  8 13  1  0  0  0  0
  9 15  1  0  0  0  0
  9 10  1  0  0  0  0
 10 16  1  0  0  0  0
 11 10  2  0  0  0  0
 11 17  1  0  0  0  0
 12 11  1  0  0  0  0
 13 14  1  0  0  0  0
 13 12  2  0  0  0  0
 14  9  2  0  0  0  0
 19 25  1  1  0  0  0
 19 20  1  0  0  0  0
 20 18  1  1  0  0  0
 20 21  1  0  0  0  0
 21 22  1  0  0  0  0
 23 27  1  6  0  0  0
 23 22  1  0  0  0  0
 24 29  1  6  0  0  0
 24 19  1  0  0  0  0
 24 23  1  0  0  0  0
 25 26  1  0  0  0  0
 28 27  1  0  0  0  0
 30 29  1  0  0  0  0
M  END
>  <minimizedAffinity>
-5.05371332

$$$$

 OpenBabel03212520413D

 30 32  0  0  1  0  0  0  0  0999 V2000
   40.8380   73.3830   56.2620 C   0  0  1  0  0  0  0  0  0  0  0  0
   42.3430   73.3300   56.5010 C   0  0  0  0  0  0  0  0  0  0  0  0
   41.3380   73.4920   57.6410 C   0  0  1  0  0  0  0  0  0  0  0  0
   40.4750   72.4380   55.8090 H   0  0  0  0  0  0  0  0  0  0  0  0
   42.9630   74.2200   56.3350 H   0  0  0  0  0  0  0  0  0  0  0  0
   42.8790   72.3710   56.4440 H   0  0  0  0  0  0  0  0  0  0  0  0
   41.1600   72.5900   58.2870 H   0  0  0  0  0  0  0  0  0  0  0  0
   40.4620   74.5800   55.5790 O   0  0  0  0  0  0  0  0  0  0  0  0
   37.3770   75.3530   53.8470 C   0  0  0  0  0  0  0  0  0  0  0  0
   36.4680   75.4090   54.9030 C   0  0  0  0  0  0  0  0  0  0  0  0
   36.9490   75.1750   56.2130 C   0  0  0  0  0  0  0  0  0  0  0  0
   38.2700   74.9160   56.2940 N   0  0  0  0  0  0  0  0  0  0  0  0
   39.1450   74.8590   55.2970 C   0  0  0  0  0  0  0  0  0  0  0  0
   38.7080   75.0790   54.0440 N   0  0  0  0  0  0  0  0  0  0  0  0
   37.0360   75.5300   52.8200 H   0  0  0  0  0  0  0  0  0  0  0  0
   35.4250   75.6240   54.7350 H   0  0  0  0  0  0  0  0  0  0  0  0
   36.2950   75.2060   57.0630 H   0  0  0  0  0  0  0  0  0  0  0  0
   41.2500   74.7320   58.2570 O   0  0  0  0  0  0  0  0  0  0  0  0
   40.0060   75.7080   60.0740 C   0  0  2  0  0  3  0  0  0  0  0  0
   41.0460   74.6940   59.6130 C   0  0  1  0  0  3  0  0  0  0  0  0
   40.6970   73.4080   60.0310 O   0  0  0  0  0  0  0  0  0  0  0  0
   39.3540   73.1690   59.7530 C   0  0  0  0  0  2  0  0  0  0  0  0
   38.5160   73.9040   60.7620 C   0  0  1  0  0  3  0  0  0  0  0  0
   39.3320   75.0730   61.2730 C   0  0  2  0  0  3  0  0  0  0  0  0
   39.0060   75.8760   59.1060 O   0  0  0  0  0  0  0  0  0  0  0  0
   39.4910   76.2870   58.3210 H   0  0  0  0  0  0  0  0  0  0  0  0
   37.4050   74.4120   60.0680 O   0  0  0  0  0  0  0  0  0  0  0  0
   36.6030   74.5060   60.6080 H   0  0  0  0  0  0  0  0  0  0  0  0
   38.5410   76.0370   61.8940 O   0  0  0  0  0  0  0  0  0  0  0  0
   39.1330   76.8360   62.0060 H   0  0  0  0  0  0  0  0  0  0  0  0
  1  4  1  6  0  0  0
  1  2  1  0  0  0  0
  1  3  1  0  0  0  0
  2  3  1  0  0  0  0
  3 18  1  0  0  0  0
  3  7  1  1  0  0  0
  5  2  1  0  0  0  0
  6  2  1  0  0  0  0
  8  1  1  0  0  0  0
  9 14  2  0  0  0  0
  9 10  1  0  0  0  0
 10 11  2  0  0  0  0
 11 12  1  0  0  0  0
 11 17  1  0  0  0  0
 13  8  1  0  0  0  0
 13 12  2  0  0  0  0
 14 13  1  0  0  0  0
 15  9  1  0  0  0  0
 16 10  1  0  0  0  0
 19 25  1  6  0  0  0
 19 24  1  0  0  0  0
 20 18  1  6  0  0  0
 20 21  1  0  0  0  0
 20 19  1  0  0  0  0
 22 21  1  0  0  0  0
 22 23  1  0  0  0  0
 23 27  1  6  0  0  0
 23 24  1  0  0  0  0
 24 29  1  6  0  0  0
 26 25  1  0  0  0  0
 27 28  1  0  0  0  0
 29 30  1  0  0  0  0
M  END
>  <minimizedAffinity>
-4.97498655

$$$$

 OpenBabel03212520413D

 30 32  0  0  1  0  0  0  0  0999 V2000
   42.3580   71.7590   61.3000 C   0  0  1  0  0  0  0  0  0  0  0  0
   41.8610   71.7620   62.7430 C   0  0  0  0  0  0  0  0  0  0  0  0
   42.5950   70.5680   62.1310 C   0  0  1  0  0  0  0  0  0  0  0  0
   43.1090   72.5590   61.1370 H   0  0  0  0  0  0  0  0  0  0  0  0
   40.8070   71.5590   62.9660 H   0  0  0  0  0  0  0  0  0  0  0  0
   42.4000   72.3340   63.5120 H   0  0  0  0  0  0  0  0  0  0  0  0
   43.6600   70.4140   62.4530 H   0  0  0  0  0  0  0  0  0  0  0  0
   41.2690   71.7360   60.3760 O   0  0  0  0  0  0  0  0  0  0  0  0
   40.7250   75.1950   59.4550 C   0  0  0  0  0  0  0  0  0  0  0  0
   39.4500   75.1390   58.8920 C   0  0  0  0  0  0  0  0  0  0  0  0
   38.7950   73.8860   58.8420 C   0  0  0  0  0  0  0  0  0  0  0  0
   39.4990   72.8580   59.3590 N   0  0  0  0  0  0  0  0  0  0  0  0
   40.7120   72.8980   59.8970 C   0  0  0  0  0  0  0  0  0  0  0  0
   41.3520   74.0800   59.9540 N   0  0  0  0  0  0  0  0  0  0  0  0
   41.2590   76.1510   59.5080 H   0  0  0  0  0  0  0  0  0  0  0  0
   38.9700   76.0220   58.5020 H   0  0  0  0  0  0  0  0  0  0  0  0
   37.8140   73.7830   58.4210 H   0  0  0  0  0  0  0  0  0  0  0  0
   41.8560   69.4300   61.8440 O   0  0  0  0  0  0  0  0  0  0  0  0
   43.3250   67.5720   62.2800 C   0  0  2  0  0  3  0  0  0  0  0  0
   42.5630   68.4090   61.2610 C   0  0  1  0  0  3  0  0  0  0  0  0
   41.7270   67.6020   60.4870 O   0  0  0  0  0  0  0  0  0  0  0  0
   41.0180   66.7310   61.3100 C   0  0  0  0  0  2  0  0  0  0  0  0
   41.9410   65.6330   61.7580 C   0  0  1  0  0  3  0  0  0  0  0  0
   43.3550   66.1710   61.7040 C   0  0  2  0  0  3  0  0  0  0  0  0
   42.6170   67.4840   63.4870 O   0  0  0  0  0  0  0  0  0  0  0  0
   42.6050   68.4320   63.8350 H   0  0  0  0  0  0  0  0  0  0  0  0
   41.6230   65.3640   63.1000 O   0  0  0  0  0  0  0  0  0  0  0  0
   41.7920   64.4480   63.3770 H   0  0  0  0  0  0  0  0  0  0  0  0
   44.2410   65.4050   62.4590 O   0  0  0  0  0  0  0  0  0  0  0  0
   45.0780   65.9480   62.5210 H   0  0  0  0  0  0  0  0  0  0  0  0
  1  4  1  6  0  0  0
  1  3  1  0  0  0  0
  1  2  1  0  0  0  0
  2  5  1  0  0  0  0
  2  6  1  0  0  0  0
  3  7  1  1  0  0  0
  3  2  1  0  0  0  0
  8  1  1  0  0  0  0
  9 15  1  0  0  0  0
  9 14  1  0  0  0  0
 10  9  2  0  0  0  0
 11 10  1  0  0  0  0
 11 12  2  0  0  0  0
 12 13  1  0  0  0  0
 13 14  2  0  0  0  0
 13  8  1  0  0  0  0
 16 10  1  0  0  0  0
 17 11  1  0  0  0  0
 18  3  1  0  0  0  0
 19 25  1  1  0  0  0
 20 18  1  1  0  0  0
 20 19  1  0  0  0  0
 21 20  1  0  0  0  0
 21 22  1  0  0  0  0
 22 23  1  0  0  0  0
 23 27  1  1  0  0  0
 24 23  1  0  0  0  0
 24 19  1  0  0  0  0
 24 29  1  1  0  0  0
 25 26  1  0  0  0  0
 27 28  1  0  0  0  0
 29 30  1  0  0  0  0
M  END
>  <minimizedAffinity>
-4.97028875

$$$$
