
 OpenBabel03212520403D

 30 32  0  0  1  0  0  0  0  0999 V2000
   42.5450   85.3900   60.0070 C   0  0  1  0  0  0  0  0  0  0  0  0
   43.5900   85.3750   58.8960 C   0  0  0  0  0  0  0  0  0  0  0  0
   42.1820   84.8100   58.7050 C   0  0  1  0  0  0  0  0  0  0  0  0
   42.3030   86.4290   60.3100 H   0  0  0  0  0  0  0  0  0  0  0  0
   44.3740   84.6080   58.8820 H   0  0  0  0  0  0  0  0  0  0  0  0
   43.8310   86.2990   58.3510 H   0  0  0  0  0  0  0  0  0  0  0  0
   41.4730   85.4250   58.0880 H   0  0  0  0  0  0  0  0  0  0  0  0
   42.9030   84.5040   61.0690 O   0  0  0  0  0  0  0  0  0  0  0  0
   40.0190   83.6010   63.0630 C   0  0  0  0  0  0  0  0  0  0  0  0
   40.4760   83.8650   64.3540 C   0  0  0  0  0  0  0  0  0  0  0  0
   41.7930   84.3570   64.5100 C   0  0  0  0  0  0  0  0  0  0  0  0
   42.4770   84.5200   63.3590 N   0  0  0  0  0  0  0  0  0  0  0  0
   42.0540   84.2730   62.1250 C   0  0  0  0  0  0  0  0  0  0  0  0
   40.8040   83.8040   61.9560 N   0  0  0  0  0  0  0  0  0  0  0  0
   39.0020   83.2190   62.9090 H   0  0  0  0  0  0  0  0  0  0  0  0
   39.8490   83.7010   65.2160 H   0  0  0  0  0  0  0  0  0  0  0  0
   42.1970   84.5780   65.4790 H   0  0  0  0  0  0  0  0  0  0  0  0
   42.0410   83.4320   58.6360 O   0  0  0  0  0  0  0  0  0  0  0  0
   41.1060   81.9450   56.9870 C   0  0  2  0  0  3  0  0  0  0  0  0
   40.8730   82.9950   58.0640 C   0  0  1  0  0  3  0  0  0  0  0  0
   39.9920   82.5150   59.0360 O   0  0  0  0  0  0  0  0  0  0  0  0
   40.3650   81.2290   59.4180 C   0  0  0  0  0  2  0  0  0  0  0  0
   39.9570   80.2680   58.3350 C   0  0  1  0  0  3  0  0  0  0  0  0
   39.8900   81.0440   57.0360 C   0  0  2  0  0  3  0  0  0  0  0  0
   42.2050   81.1370   57.3050 O   0  0  0  0  0  0  0  0  0  0  0  0
   42.9930   81.7690   57.2760 H   0  0  0  0  0  0  0  0  0  0  0  0
   40.9900   79.3200   58.2310 O   0  0  0  0  0  0  0  0  0  0  0  0
   40.6990   78.4430   57.9290 H   0  0  0  0  0  0  0  0  0  0  0  0
   39.9160   80.2070   55.9210 O   0  0  0  0  0  0  0  0  0  0  0  0
   40.0720   80.8100   55.1400 H   0  0  0  0  0  0  0  0  0  0  0  0
  1  4  1  1  0  0  0
  1  8  1  0  0  0  0
  2  1  1  0  0  0  0
  3  7  1  6  0  0  0
  3  2  1  0  0  0  0
  3  1  1  0  0  0  0
  5  2  1  0  0  0  0
  6  2  1  0  0  0  0
  8 13  1  0  0  0  0
  9 10  1  0  0  0  0
 10 11  2  0  0  0  0
 10 16  1  0  0  0  0
 11 17  1  0  0  0  0
 12 11  1  0  0  0  0
 13 12  2  0  0  0  0
 14 13  1  0  0  0  0
 14  9  2  0  0  0  0
 15  9  1  0  0  0  0
 18  3  1  0  0  0  0
 19 24  1  0  0  0  0
 19 25  1  1  0  0  0
 19 20  1  0  0  0  0
 20 18  1  1  0  0  0
 20 21  1  0  0  0  0
 21 22  1  0  0  0  0
 23 27  1  6  0  0  0
 23 22  1  0  0  0  0
 24 29  1  6  0  0  0
 24 23  1  0  0  0  0
 26 25  1  0  0  0  0
 28 27  1  0  0  0  0
 30 29  1  0  0  0  0
M  END
>  <minimizedAffinity>
-4.47414732

>  <minimizedRMSD>
4.0223794

$$$$
