
 OpenBabel03212520413D

 30 32  0  0  1  0  0  0  0  0999 V2000
   42.5140   85.3960   59.8920 C   0  0  1  0  0  0  0  0  0  0  0  0
   43.5920   85.4790   58.8150 C   0  0  0  0  0  0  0  0  0  0  0  0
   42.2090   84.8830   58.5470 C   0  0  1  0  0  0  0  0  0  0  0  0
   42.2300   86.4080   60.2470 H   0  0  0  0  0  0  0  0  0  0  0  0
   44.4010   84.7390   58.7820 H   0  0  0  0  0  0  0  0  0  0  0  0
   43.8190   86.4410   58.3330 H   0  0  0  0  0  0  0  0  0  0  0  0
   41.4990   85.5120   57.9460 H   0  0  0  0  0  0  0  0  0  0  0  0
   42.8700   84.4610   60.9110 O   0  0  0  0  0  0  0  0  0  0  0  0
   40.0200   83.6030   62.9740 C   0  0  0  0  0  0  0  0  0  0  0  0
   40.5280   83.8140   64.2570 C   0  0  0  0  0  0  0  0  0  0  0  0
   41.8660   84.2540   64.3820 C   0  0  0  0  0  0  0  0  0  0  0  0
   42.5180   84.4260   63.2140 N   0  0  0  0  0  0  0  0  0  0  0  0
   42.0470   84.2300   61.9880 C   0  0  0  0  0  0  0  0  0  0  0  0
   40.7760   83.8100   61.8470 N   0  0  0  0  0  0  0  0  0  0  0  0
   38.9860   83.2620   62.8430 H   0  0  0  0  0  0  0  0  0  0  0  0
   39.9230   83.6460   65.1330 H   0  0  0  0  0  0  0  0  0  0  0  0
   42.3090   84.4320   65.3430 H   0  0  0  0  0  0  0  0  0  0  0  0
   42.1150   83.5080   58.3940 O   0  0  0  0  0  0  0  0  0  0  0  0
   41.1910   81.9390   56.8180 C   0  0  2  0  0  3  0  0  0  0  0  0
   40.9530   83.0660   57.8140 C   0  0  1  0  0  3  0  0  0  0  0  0
   40.0260   82.6790   58.7830 O   0  0  0  0  0  0  0  0  0  0  0  0
   40.3480   81.4120   59.2630 C   0  0  0  0  0  2  0  0  0  0  0  0
   39.9480   80.3910   58.2340 C   0  0  1  0  0  3  0  0  0  0  0  0
   39.9480   81.0770   56.8840 C   0  0  2  0  0  3  0  0  0  0  0  0
   42.2550   81.1240   57.2280 O   0  0  0  0  0  0  0  0  0  0  0  0
   43.0610   81.7300   57.1830 H   0  0  0  0  0  0  0  0  0  0  0  0
   40.9540   79.4100   58.2300 O   0  0  0  0  0  0  0  0  0  0  0  0
   40.6480   78.5230   57.9780 H   0  0  0  0  0  0  0  0  0  0  0  0
   39.9860   80.1660   55.8290 O   0  0  0  0  0  0  0  0  0  0  0  0
   40.1860   80.7090   55.0150 H   0  0  0  0  0  0  0  0  0  0  0  0
  1  4  1  1  0  0  0
  1  8  1  0  0  0  0
  2  1  1  0  0  0  0
  3  7  1  6  0  0  0
  3  2  1  0  0  0  0
  3  1  1  0  0  0  0
  5  2  1  0  0  0  0
  6  2  1  0  0  0  0
  8 13  1  0  0  0  0
  9 10  1  0  0  0  0
 10 11  2  0  0  0  0
 10 16  1  0  0  0  0
 11 17  1  0  0  0  0
 12 11  1  0  0  0  0
 13 12  2  0  0  0  0
 14 13  1  0  0  0  0
 14  9  2  0  0  0  0
 15  9  1  0  0  0  0
 18  3  1  0  0  0  0
 19 24  1  0  0  0  0
 19 25  1  1  0  0  0
 19 20  1  0  0  0  0
 20 18  1  1  0  0  0
 20 21  1  0  0  0  0
 21 22  1  0  0  0  0
 23 27  1  6  0  0  0
 23 22  1  0  0  0  0
 24 29  1  6  0  0  0
 24 23  1  0  0  0  0
 26 25  1  0  0  0  0
 28 27  1  0  0  0  0
 30 29  1  0  0  0  0
M  END
>  <minimizedAffinity>
-4.46595621

>  <minimizedRMSD>
2.94336271

$$$$
