
 OpenBabel03212520243D

 21 22  0  0  1  0  0  0  0  0999 V2000
   38.1750   74.8320   58.0550 C   0  0  2  0  0  3  0  0  0  0  0  0
   38.7320   76.1640   58.5290 C   0  0  2  0  0  3  0  0  0  0  0  0
   38.5960   77.0700   57.4740 O   0  0  0  0  0  0  0  0  0  0  0  0
   39.0150   76.4020   56.3210 C   0  0  0  0  0  2  0  0  0  0  0  0
   37.7540   75.7260   55.7870 C   0  0  1  0  0  3  0  0  0  0  0  0
   37.1100   75.0620   56.9980 C   0  0  1  0  0  3  0  0  0  0  0  0
   42.2700   77.1340   59.3360 C   0  0  0  0  0  0  0  0  0  0  0  0
   40.8920   77.2360   59.0790 C   0  0  0  0  0  0  0  0  0  0  0  0
   40.1940   76.0620   58.8030 C   0  0  0  0  0  0  0  0  0  0  0  0
   40.8760   74.8830   58.7960 N   0  0  0  0  0  0  0  0  0  0  0  0
   42.1940   74.8140   59.0460 C   0  0  0  0  0  0  0  0  0  0  0  0
   42.9030   75.9380   59.3180 N   0  0  0  0  0  0  0  0  0  0  0  0
   42.7650   78.0830   59.5450 H   0  0  0  0  0  0  0  0  0  0  0  0
   40.3740   78.1810   59.0890 H   0  0  0  0  0  0  0  0  0  0  0  0
   42.6730   73.8400   59.0240 H   0  0  0  0  0  0  0  0  0  0  0  0
   37.4940   74.2930   59.1700 O   0  0  0  0  0  0  0  0  0  0  0  0
   36.7620   74.9360   59.3680 H   0  0  0  0  0  0  0  0  0  0  0  0
   36.9460   76.7690   55.2910 O   0  0  0  0  0  0  0  0  0  0  0  0
   37.5110   77.5400   55.0170 H   0  0  0  0  0  0  0  0  0  0  0  0
   36.4780   73.8890   56.6780 O   0  0  0  0  0  0  0  0  0  0  0  0
   36.3230   73.7690   55.7060 H   0  0  0  0  0  0  0  0  0  0  0  0
  1  2  1  0  0  0  0
  1 16  1  1  0  0  0
  2  9  1  6  0  0  0
  3  2  1  0  0  0  0
  4  3  1  0  0  0  0
  5 18  1  1  0  0  0
  5  4  1  0  0  0  0
  5  6  1  0  0  0  0
  6 20  1  6  0  0  0
  6  1  1  0  0  0  0
  7 13  1  0  0  0  0
  8 14  1  0  0  0  0
  8  7  2  0  0  0  0
  9  8  1  0  0  0  0
 10  9  2  0  0  0  0
 10 11  1  0  0  0  0
 11 12  2  0  0  0  0
 12  7  1  0  0  0  0
 15 11  1  0  0  0  0
 16 17  1  0  0  0  0
 19 18  1  0  0  0  0
 21 20  1  0  0  0  0
M  END
>  <minimizedAffinity>
-5.14370012

$$$$

 OpenBabel03212520243D

 21 22  0  0  1  0  0  0  0  0999 V2000
   38.8900   74.6850   60.0780 C   0  0  2  0  0  3  0  0  0  0  0  0
   38.0320   74.2470   58.9020 C   0  0  2  0  0  3  0  0  0  0  0  0
   38.7030   73.1980   58.2670 O   0  0  0  0  0  0  0  0  0  0  0  0
   40.0410   73.5850   58.1680 C   0  0  0  0  0  2  0  0  0  0  0  0
   40.6800   73.0920   59.4650 C   0  0  1  0  0  3  0  0  0  0  0  0
   39.7250   73.5180   60.5720 C   0  0  1  0  0  3  0  0  0  0  0  0
   36.9830   76.1580   55.8430 C   0  0  0  0  0  0  0  0  0  0  0  0
   37.0890   75.1260   56.7910 C   0  0  0  0  0  0  0  0  0  0  0  0
   37.9160   75.3380   57.8930 C   0  0  0  0  0  0  0  0  0  0  0  0
   38.5760   76.5240   57.9950 N   0  0  0  0  0  0  0  0  0  0  0  0
   38.4560   77.4950   57.0730 C   0  0  0  0  0  0  0  0  0  0  0  0
   37.6590   77.3210   55.9900 N   0  0  0  0  0  0  0  0  0  0  0  0
   36.3230   75.9380   55.0040 H   0  0  0  0  0  0  0  0  0  0  0  0
   36.5570   74.1940   56.6890 H   0  0  0  0  0  0  0  0  0  0  0  0
   39.0120   78.4160   57.2190 H   0  0  0  0  0  0  0  0  0  0  0  0
   37.9790   74.9690   61.1200 O   0  0  0  0  0  0  0  0  0  0  0  0
   37.5220   74.1080   61.3130 H   0  0  0  0  0  0  0  0  0  0  0  0
   40.7320   71.6870   59.3510 O   0  0  0  0  0  0  0  0  0  0  0  0
   40.7670   71.4220   58.3940 H   0  0  0  0  0  0  0  0  0  0  0  0
   40.3790   73.8420   61.7320 O   0  0  0  0  0  0  0  0  0  0  0  0
   41.3200   73.5300   61.7630 H   0  0  0  0  0  0  0  0  0  0  0  0
  1  6  1  0  0  0  0
  1 16  1  1  0  0  0
  2  9  1  6  0  0  0
  2  1  1  0  0  0  0
  3  2  1  0  0  0  0
  4  3  1  0  0  0  0
  4  5  1  0  0  0  0
  5 18  1  6  0  0  0
  5  6  1  0  0  0  0
  6 20  1  1  0  0  0
  7 12  2  0  0  0  0
  7  8  1  0  0  0  0
  8  9  2  0  0  0  0
  9 10  1  0  0  0  0
 11 15  1  0  0  0  0
 11 10  2  0  0  0  0
 12 11  1  0  0  0  0
 13  7  1  0  0  0  0
 14  8  1  0  0  0  0
 16 17  1  0  0  0  0
 19 18  1  0  0  0  0
 20 21  1  0  0  0  0
M  END
>  <minimizedAffinity>
-4.93394709

$$$$

 OpenBabel03212520243D

 21 22  0  0  1  0  0  0  0  0999 V2000
   39.5230   73.1140   58.1190 C   0  0  2  0  0  3  0  0  0  0  0  0
   39.2330   74.2650   59.0680 C   0  0  2  0  0  3  0  0  0  0  0  0
   38.1940   75.0130   58.5080 O   0  0  0  0  0  0  0  0  0  0  0  0
   38.4980   75.1630   57.1540 C   0  0  0  0  0  2  0  0  0  0  0  0
   37.8670   73.9460   56.4810 C   0  0  1  0  0  3  0  0  0  0  0  0
   38.2690   72.7560   57.3420 C   0  0  1  0  0  3  0  0  0  0  0  0
   41.2960   77.3310   59.7430 C   0  0  0  0  0  0  0  0  0  0  0  0
   40.1890   76.4690   59.6570 C   0  0  0  0  0  0  0  0  0  0  0  0
   40.4030   75.1840   59.1620 C   0  0  0  0  0  0  0  0  0  0  0  0
   41.6640   74.8300   58.7900 N   0  0  0  0  0  0  0  0  0  0  0  0
   42.7050   75.6750   58.8830 C   0  0  0  0  0  0  0  0  0  0  0  0
   42.5300   76.9320   59.3610 N   0  0  0  0  0  0  0  0  0  0  0  0
   41.0700   78.3220   60.1370 H   0  0  0  0  0  0  0  0  0  0  0  0
   39.2000   76.7720   59.9580 H   0  0  0  0  0  0  0  0  0  0  0  0
   43.6840   75.3250   58.5680 H   0  0  0  0  0  0  0  0  0  0  0  0
   39.7870   72.0020   58.9490 O   0  0  0  0  0  0  0  0  0  0  0  0
   38.9460   71.8440   59.4550 H   0  0  0  0  0  0  0  0  0  0  0  0
   36.4750   74.1640   56.5340 O   0  0  0  0  0  0  0  0  0  0  0  0
   36.2810   75.1380   56.5700 H   0  0  0  0  0  0  0  0  0  0  0  0
   38.4610   71.6170   56.6040 O   0  0  0  0  0  0  0  0  0  0  0  0
   38.0860   71.6640   55.6870 H   0  0  0  0  0  0  0  0  0  0  0  0
  1 16  1  1  0  0  0
  1  2  1  0  0  0  0
  2  9  1  6  0  0  0
  3  2  1  0  0  0  0
  4  3  1  0  0  0  0
  5 18  1  1  0  0  0
  5  4  1  0  0  0  0
  5  6  1  0  0  0  0
  6 20  1  6  0  0  0
  6  1  1  0  0  0  0
  7 13  1  0  0  0  0
  8  7  1  0  0  0  0
  8 14  1  0  0  0  0
  9  8  2  0  0  0  0
 10 11  2  0  0  0  0
 10  9  1  0  0  0  0
 11 12  1  0  0  0  0
 12  7  2  0  0  0  0
 15 11  1  0  0  0  0
 16 17  1  0  0  0  0
 18 19  1  0  0  0  0
 21 20  1  0  0  0  0
M  END
>  <minimizedAffinity>
-4.92517519

$$$$

 OpenBabel03212520243D

 21 22  0  0  1  0  0  0  0  0999 V2000
   38.3350   73.2680   57.3020 C   0  0  2  0  0  3  0  0  0  0  0  0
   38.8270   74.7050   57.3700 C   0  0  2  0  0  3  0  0  0  0  0  0
   40.1130   74.7290   56.8250 O   0  0  0  0  0  0  0  0  0  0  0  0
   40.7930   73.6350   57.3630 C   0  0  0  0  0  2  0  0  0  0  0  0
   40.5010   72.4880   56.3980 C   0  0  1  0  0  3  0  0  0  0  0  0
   39.0000   72.5470   56.1440 C   0  0  1  0  0  3  0  0  0  0  0  0
   39.7400   76.7820   60.3630 C   0  0  0  0  0  0  0  0  0  0  0  0
   39.6110   76.3650   59.0270 C   0  0  0  0  0  0  0  0  0  0  0  0
   38.9660   75.1530   58.7850 C   0  0  0  0  0  0  0  0  0  0  0  0
   38.4970   74.4400   59.8450 N   0  0  0  0  0  0  0  0  0  0  0  0
   38.6330   74.8630   61.1130 C   0  0  0  0  0  0  0  0  0  0  0  0
   39.2550   76.0370   61.3830 N   0  0  0  0  0  0  0  0  0  0  0  0
   40.2520   77.7360   60.4930 H   0  0  0  0  0  0  0  0  0  0  0  0
   39.9910   76.9460   58.2040 H   0  0  0  0  0  0  0  0  0  0  0  0
   38.2340   74.2430   61.9100 H   0  0  0  0  0  0  0  0  0  0  0  0
   36.9670   73.3560   56.9600 O   0  0  0  0  0  0  0  0  0  0  0  0
   36.9470   73.7830   56.0630 H   0  0  0  0  0  0  0  0  0  0  0  0
   41.2260   72.7850   55.2260 O   0  0  0  0  0  0  0  0  0  0  0  0
   42.0160   73.3480   55.4450 H   0  0  0  0  0  0  0  0  0  0  0  0
   38.4500   71.3050   55.9610 O   0  0  0  0  0  0  0  0  0  0  0  0
   39.1170   70.5930   55.7810 H   0  0  0  0  0  0  0  0  0  0  0  0
  1 16  1  6  0  0  0
  1  2  1  0  0  0  0
  2  9  1  1  0  0  0
  3  4  1  0  0  0  0
  3  2  1  0  0  0  0
  5 18  1  6  0  0  0
  5  4  1  0  0  0  0
  6 20  1  1  0  0  0
  6  5  1  0  0  0  0
  6  1  1  0  0  0  0
  7 13  1  0  0  0  0
  7 12  1  0  0  0  0
  8  7  2  0  0  0  0
  9  8  1  0  0  0  0
  9 10  2  0  0  0  0
 10 11  1  0  0  0  0
 11 12  2  0  0  0  0
 11 15  1  0  0  0  0
 14  8  1  0  0  0  0
 17 16  1  0  0  0  0
 18 19  1  0  0  0  0
 21 20  1  0  0  0  0
M  END
>  <minimizedAffinity>
-4.92363214

$$$$

 OpenBabel03212520243D

 21 22  0  0  1  0  0  0  0  0999 V2000
   37.7040   74.3160   56.5640 C   0  0  2  0  0  3  0  0  0  0  0  0
   37.7280   75.1380   57.8430 C   0  0  2  0  0  3  0  0  0  0  0  0
   38.3000   76.3740   57.5310 O   0  0  0  0  0  0  0  0  0  0  0  0
   39.4210   76.1050   56.7440 C   0  0  0  0  0  2  0  0  0  0  0  0
   38.8910   76.0890   55.3120 C   0  0  1  0  0  3  0  0  0  0  0  0
   37.6300   75.2360   55.3590 C   0  0  1  0  0  3  0  0  0  0  0  0
   39.7890   74.6650   60.9460 C   0  0  0  0  0  0  0  0  0  0  0  0
   38.9490   75.2600   59.9900 C   0  0  0  0  0  0  0  0  0  0  0  0
   38.6180   74.5120   58.8610 C   0  0  0  0  0  0  0  0  0  0  0  0
   39.1220   73.2530   58.7420 N   0  0  0  0  0  0  0  0  0  0  0  0
   39.9240   72.7080   59.6720 C   0  0  0  0  0  0  0  0  0  0  0  0
   40.2640   73.4090   60.7830 N   0  0  0  0  0  0  0  0  0  0  0  0
   40.0140   75.2950   61.8080 H   0  0  0  0  0  0  0  0  0  0  0  0
   38.5630   76.2590   60.1060 H   0  0  0  0  0  0  0  0  0  0  0  0
   40.2890   71.6980   59.5120 H   0  0  0  0  0  0  0  0  0  0  0  0
   36.4750   73.6200   56.5880 O   0  0  0  0  0  0  0  0  0  0  0  0
   35.7730   74.3240   56.5730 H   0  0  0  0  0  0  0  0  0  0  0  0
   38.5850   77.4300   55.0060 O   0  0  0  0  0  0  0  0  0  0  0  0
   39.1480   78.0430   55.5500 H   0  0  0  0  0  0  0  0  0  0  0  0
   37.4400   74.5170   54.2070 O   0  0  0  0  0  0  0  0  0  0  0  0
   37.9910   74.8280   53.4440 H   0  0  0  0  0  0  0  0  0  0  0  0
  1 16  1  1  0  0  0
  1  2  1  0  0  0  0
  2  9  1  1  0  0  0
  3  2  1  0  0  0  0
  4  3  1  0  0  0  0
  5 18  1  1  0  0  0
  5  6  1  0  0  0  0
  5  4  1  0  0  0  0
  6 20  1  6  0  0  0
  6  1  1  0  0  0  0
  7 13  1  0  0  0  0
  8 14  1  0  0  0  0
  8  7  2  0  0  0  0
  9  8  1  0  0  0  0
 10  9  2  0  0  0  0
 10 11  1  0  0  0  0
 11 12  2  0  0  0  0
 12  7  1  0  0  0  0
 15 11  1  0  0  0  0
 17 16  1  0  0  0  0
 18 19  1  0  0  0  0
 21 20  1  0  0  0  0
M  END
>  <minimizedAffinity>
-4.78800821

$$$$

 OpenBabel03212520243D

 21 22  0  0  1  0  0  0  0  0999 V2000
   39.9870   71.5600   57.9090 C   0  0  2  0  0  3  0  0  0  0  0  0
   40.3220   71.9930   59.3270 C   0  0  2  0  0  3  0  0  0  0  0  0
   39.5850   73.1490   59.5930 O   0  0  0  0  0  0  0  0  0  0  0  0
   39.7070   73.9670   58.4680 C   0  0  0  0  0  2  0  0  0  0  0  0
   38.5540   73.5460   57.5590 C   0  0  1  0  0  3  0  0  0  0  0  0
   38.5880   72.0230   57.5430 C   0  0  1  0  0  3  0  0  0  0  0  0
   43.5410   73.3270   60.7300 C   0  0  0  0  0  0  0  0  0  0  0  0
   42.1860   72.9640   60.6300 C   0  0  0  0  0  0  0  0  0  0  0  0
   41.7570   72.3800   59.4390 C   0  0  0  0  0  0  0  0  0  0  0  0
   42.6640   72.1910   58.4410 N   0  0  0  0  0  0  0  0  0  0  0  0
   43.9530   72.5470   58.5640 C   0  0  0  0  0  0  0  0  0  0  0  0
   44.4030   73.1180   59.7090 N   0  0  0  0  0  0  0  0  0  0  0  0
   43.8200   73.7790   61.6820 H   0  0  0  0  0  0  0  0  0  0  0  0
   41.4870   73.1240   61.4340 H   0  0  0  0  0  0  0  0  0  0  0  0
   44.6210   72.3670   57.7270 H   0  0  0  0  0  0  0  0  0  0  0  0
   39.9210   70.1500   57.9530 O   0  0  0  0  0  0  0  0  0  0  0  0
   39.1760   69.9400   58.5760 H   0  0  0  0  0  0  0  0  0  0  0  0
   37.3850   74.0210   58.1880 O   0  0  0  0  0  0  0  0  0  0  0  0
   37.5960   74.8120   58.7520 H   0  0  0  0  0  0  0  0  0  0  0  0
   38.2020   71.5040   56.3350 O   0  0  0  0  0  0  0  0  0  0  0  0
   37.7380   72.1540   55.7490 H   0  0  0  0  0  0  0  0  0  0  0  0
  1 16  1  1  0  0  0
  1  2  1  0  0  0  0
  2  9  1  6  0  0  0
  2  3  1  0  0  0  0
  4  3  1  0  0  0  0
  5 18  1  1  0  0  0
  5  4  1  0  0  0  0
  6 20  1  6  0  0  0
  6  5  1  0  0  0  0
  6  1  1  0  0  0  0
  7 13  1  0  0  0  0
  8  7  1  0  0  0  0
  8 14  1  0  0  0  0
  9  8  2  0  0  0  0
 10 11  2  0  0  0  0
 10  9  1  0  0  0  0
 11 12  1  0  0  0  0
 12  7  2  0  0  0  0
 15 11  1  0  0  0  0
 16 17  1  0  0  0  0
 18 19  1  0  0  0  0
 21 20  1  0  0  0  0
M  END
>  <minimizedAffinity>
-4.78125906

$$$$

 OpenBabel03212520243D

 21 22  0  0  1  0  0  0  0  0999 V2000
   38.6100   73.1080   57.0420 C   0  0  2  0  0  3  0  0  0  0  0  0
   38.1990   73.2370   58.5000 C   0  0  2  0  0  3  0  0  0  0  0  0
   37.8510   74.5730   58.7160 O   0  0  0  0  0  0  0  0  0  0  0  0
   38.8390   75.3450   58.1030 C   0  0  0  0  0  2  0  0  0  0  0  0
   38.3430   75.5400   56.6720 C   0  0  1  0  0  3  0  0  0  0  0  0
   37.8980   74.1580   56.2080 C   0  0  1  0  0  3  0  0  0  0  0  0
   41.5780   72.1260   59.7050 C   0  0  0  0  0  0  0  0  0  0  0  0
   40.4970   72.3910   58.8470 C   0  0  0  0  0  0  0  0  0  0  0  0
   39.3500   72.9550   59.4040 C   0  0  0  0  0  0  0  0  0  0  0  0
   39.3340   73.2190   60.7390 N   0  0  0  0  0  0  0  0  0  0  0  0
   40.3840   72.9570   61.5360 C   0  0  0  0  0  0  0  0  0  0  0  0
   41.5150   72.4080   61.0270 N   0  0  0  0  0  0  0  0  0  0  0  0
   42.4480   71.6860   59.2170 H   0  0  0  0  0  0  0  0  0  0  0  0
   40.5320   72.1720   57.7930 H   0  0  0  0  0  0  0  0  0  0  0  0
   40.3020   73.1940   62.5930 H   0  0  0  0  0  0  0  0  0  0  0  0
   38.0910   71.8660   56.6140 O   0  0  0  0  0  0  0  0  0  0  0  0
   37.1040   71.9490   56.7010 H   0  0  0  0  0  0  0  0  0  0  0  0
   37.2460   76.4200   56.7680 O   0  0  0  0  0  0  0  0  0  0  0  0
   37.3370   76.9940   57.5740 H   0  0  0  0  0  0  0  0  0  0  0  0
   38.1240   73.9560   54.8720 O   0  0  0  0  0  0  0  0  0  0  0  0
   38.3080   74.7890   54.3650 H   0  0  0  0  0  0  0  0  0  0  0  0
  1 16  1  6  0  0  0
  1  2  1  0  0  0  0
  2  3  1  0  0  0  0
  2  9  1  1  0  0  0
  4  3  1  0  0  0  0
  5 18  1  1  0  0  0
  5  4  1  0  0  0  0
  6 20  1  6  0  0  0
  6  5  1  0  0  0  0
  6  1  1  0  0  0  0
  7 12  1  0  0  0  0
  8  9  1  0  0  0  0
  8  7  2  0  0  0  0
  9 10  2  0  0  0  0
 10 11  1  0  0  0  0
 11 15  1  0  0  0  0
 12 11  2  0  0  0  0
 13  7  1  0  0  0  0
 14  8  1  0  0  0  0
 16 17  1  0  0  0  0
 18 19  1  0  0  0  0
 21 20  1  0  0  0  0
M  END
>  <minimizedAffinity>
-4.69260645

$$$$

 OpenBabel03212520243D

 21 22  0  0  1  0  0  0  0  0999 V2000
   38.5060   73.8470   58.4460 C   0  0  2  0  0  3  0  0  0  0  0  0
   40.0230   73.9420   58.4330 C   0  0  2  0  0  3  0  0  0  0  0  0
   40.4870   73.0520   57.4620 O   0  0  0  0  0  0  0  0  0  0  0  0
   39.7710   71.8660   57.6360 C   0  0  0  0  0  2  0  0  0  0  0  0
   38.5300   72.0340   56.7630 C   0  0  1  0  0  3  0  0  0  0  0  0
   38.0030   73.4280   57.0760 C   0  0  1  0  0  3  0  0  0  0  0  0
   42.5170   72.9850   61.0740 C   0  0  0  0  0  0  0  0  0  0  0  0
   41.9830   73.4230   59.8500 C   0  0  0  0  0  0  0  0  0  0  0  0
   40.5950   73.4790   59.7300 C   0  0  0  0  0  0  0  0  0  0  0  0
   39.8320   73.1090   60.7950 N   0  0  0  0  0  0  0  0  0  0  0  0
   40.3690   72.6950   61.9550 C   0  0  0  0  0  0  0  0  0  0  0  0
   41.7160   72.6290   62.1050 N   0  0  0  0  0  0  0  0  0  0  0  0
   43.6060   72.9620   61.1120 H   0  0  0  0  0  0  0  0  0  0  0  0
   42.6070   73.7100   59.0210 H   0  0  0  0  0  0  0  0  0  0  0  0
   39.7000   72.4160   62.7630 H   0  0  0  0  0  0  0  0  0  0  0  0
   38.0490   75.1710   58.6310 O   0  0  0  0  0  0  0  0  0  0  0  0
   38.3690   75.6740   57.8350 H   0  0  0  0  0  0  0  0  0  0  0  0
   38.9890   71.9520   55.4330 O   0  0  0  0  0  0  0  0  0  0  0  0
   39.8220   71.4100   55.3900 H   0  0  0  0  0  0  0  0  0  0  0  0
   36.6350   73.4970   57.0160 O   0  0  0  0  0  0  0  0  0  0  0  0
   36.2140   72.7270   56.5560 H   0  0  0  0  0  0  0  0  0  0  0  0
  1 16  1  6  0  0  0
  2  1  1  0  0  0  0
  2  9  1  1  0  0  0
  3  4  1  0  0  0  0
  3  2  1  0  0  0  0
  5 18  1  6  0  0  0
  5  6  1  0  0  0  0
  5  4  1  0  0  0  0
  6 20  1  1  0  0  0
  6  1  1  0  0  0  0
  7 13  1  0  0  0  0
  7 12  1  0  0  0  0
  8  7  2  0  0  0  0
  9  8  1  0  0  0  0
  9 10  2  0  0  0  0
 10 11  1  0  0  0  0
 11 12  2  0  0  0  0
 11 15  1  0  0  0  0
 14  8  1  0  0  0  0
 17 16  1  0  0  0  0
 19 18  1  0  0  0  0
 21 20  1  0  0  0  0
M  END
>  <minimizedAffinity>
-4.65551996

$$$$

 OpenBabel03212520243D

 21 22  0  0  1  0  0  0  0  0999 V2000
   39.5890   74.6510   60.4790 C   0  0  2  0  0  3  0  0  0  0  0  0
   40.6890   75.2430   59.6150 C   0  0  2  0  0  3  0  0  0  0  0  0
   40.3540   74.9870   58.2830 O   0  0  0  0  0  0  0  0  0  0  0  0
   39.9370   73.6550   58.2280 C   0  0  0  0  0  2  0  0  0  0  0  0
   38.4360   73.7110   58.5030 C   0  0  1  0  0  3  0  0  0  0  0  0
   38.2810   74.6280   59.7090 C   0  0  1  0  0  3  0  0  0  0  0  0
   44.3350   74.3600   59.4130 C   0  0  0  0  0  0  0  0  0  0  0  0
   43.1130   75.0160   59.1800 C   0  0  0  0  0  0  0  0  0  0  0  0
   41.9870   74.5520   59.8580 C   0  0  0  0  0  0  0  0  0  0  0  0
   42.1250   73.4950   60.7050 N   0  0  0  0  0  0  0  0  0  0  0  0
   43.3050   72.8860   60.9100 C   0  0  0  0  0  0  0  0  0  0  0  0
   44.4200   73.3130   60.2660 N   0  0  0  0  0  0  0  0  0  0  0  0
   45.1810   74.7650   58.8570 H   0  0  0  0  0  0  0  0  0  0  0  0
   43.0300   75.8510   58.5050 H   0  0  0  0  0  0  0  0  0  0  0  0
   43.3410   72.0490   61.6000 H   0  0  0  0  0  0  0  0  0  0  0  0
   39.3970   75.5770   61.5290 O   0  0  0  0  0  0  0  0  0  0  0  0
   39.0930   76.4150   61.0880 H   0  0  0  0  0  0  0  0  0  0  0  0
   37.8610   74.2860   57.3510 O   0  0  0  0  0  0  0  0  0  0  0  0
   38.4340   74.1110   56.5580 H   0  0  0  0  0  0  0  0  0  0  0  0
   37.2420   74.2540   60.5220 O   0  0  0  0  0  0  0  0  0  0  0  0
   36.6110   73.6170   60.0990 H   0  0  0  0  0  0  0  0  0  0  0  0
  1 16  1  1  0  0  0
  2  9  1  1  0  0  0
  2  1  1  0  0  0  0
  3  2  1  0  0  0  0
  4  3  1  0  0  0  0
  4  5  1  0  0  0  0
  5 18  1  6  0  0  0
  5  6  1  0  0  0  0
  6  1  1  0  0  0  0
  6 20  1  1  0  0  0
  7 12  1  0  0  0  0
  8  7  2  0  0  0  0
  8  9  1  0  0  0  0
  9 10  2  0  0  0  0
 10 11  1  0  0  0  0
 11 15  1  0  0  0  0
 12 11  2  0  0  0  0
 13  7  1  0  0  0  0
 14  8  1  0  0  0  0
 17 16  1  0  0  0  0
 19 18  1  0  0  0  0
 21 20  1  0  0  0  0
M  END
>  <minimizedAffinity>
-4.65017843

$$$$
