
 OpenBabel03212520443D

 21 22  0  0  1  0  0  0  0  0999 V2000
   40.3530   80.0150   59.6520 C   0  0  2  0  0  3  0  0  0  0  0  0
   40.9320   80.8650   60.7380 C   0  0  1  0  0  3  0  0  0  0  0  0
   42.2860   81.0030   60.5700 O   0  0  0  0  0  0  0  0  0  0  0  0
   42.9020   79.7700   60.7710 C   0  0  0  0  0  2  0  0  0  0  0  0
   42.4910   78.7650   59.7040 C   0  0  1  0  0  3  0  0  0  0  0  0
   41.4090   79.3050   58.8270 C   0  0  2  0  0  3  0  0  0  0  0  0
   40.2140   82.1560   60.8210 C   0  0  0  0  0  0  0  0  0  0  0  0
   40.3880   83.0750   59.7680 C   0  0  0  0  0  0  0  0  0  0  0  0
   39.7150   84.2990   59.8320 C   0  0  0  0  0  0  0  0  0  0  0  0
   38.9200   84.5390   60.9220 N   0  0  0  0  0  0  0  0  0  0  0  0
   38.7780   83.6310   61.9130 C   0  0  0  0  0  0  0  0  0  0  0  0
   39.4190   82.4550   61.8610 N   0  0  0  0  0  0  0  0  0  0  0  0
   41.0110   82.9020   58.8990 H   0  0  0  0  0  0  0  0  0  0  0  0
   39.7750   85.0770   59.0810 H   0  0  0  0  0  0  0  0  0  0  0  0
   38.1460   83.8300   62.7740 H   0  0  0  0  0  0  0  0  0  0  0  0
   39.5800   80.7280   58.7290 O   0  0  0  0  0  0  0  0  0  0  0  0
   38.8950   80.1120   58.3680 H   0  0  0  0  0  0  0  0  0  0  0  0
   43.5860   78.4420   58.9100 O   0  0  0  0  0  0  0  0  0  0  0  0
   43.5310   77.4510   58.7230 H   0  0  0  0  0  0  0  0  0  0  0  0
   41.8700   80.0910   57.7750 O   0  0  0  0  0  0  0  0  0  0  0  0
   41.5820   79.7550   56.8890 H   0  0  0  0  0  0  0  0  0  0  0  0
  1 16  1  6  0  0  0
  1  2  1  0  0  0  0
  2  7  1  6  0  0  0
  3  2  1  0  0  0  0
  3  4  1  0  0  0  0
  5 18  1  6  0  0  0
  5  4  1  0  0  0  0
  6 20  1  6  0  0  0
  6  1  1  0  0  0  0
  6  5  1  0  0  0  0
  7 12  1  0  0  0  0
  8  9  1  0  0  0  0
  8  7  2  0  0  0  0
  9 10  2  0  0  0  0
 10 11  1  0  0  0  0
 11 15  1  0  0  0  0
 12 11  2  0  0  0  0
 13  8  1  0  0  0  0
 14  9  1  0  0  0  0
 17 16  1  0  0  0  0
 19 18  1  0  0  0  0
 21 20  1  0  0  0  0
M  END
>  <minimizedAffinity>
-4.13968372

>  <minimizedRMSD>
0.575794935

$$$$
