
 OpenBabel03212520233D

 21 22  0  0  1  0  0  0  0  0999 V2000
   40.2670   83.8520   60.8590 C   0  0  2  0  0  0  0  0  0  0  0  0
   40.4800   84.4450   59.4760 C   0  0  2  0  0  0  0  0  0  0  0  0
   40.6850   83.3800   58.5950 O   0  0  0  0  0  0  0  0  0  0  0  0
   41.5750   82.5090   59.2260 C   0  0  0  0  0  0  0  0  0  0  0  0
   40.6840   81.5600   60.0250 C   0  0  1  0  0  0  0  0  0  0  0  0
   39.6800   82.4570   60.7400 C   0  0  1  0  0  0  0  0  0  0  0  0
   43.7430   86.0010   60.4960 C   0  0  0  0  0  0  0  0  0  0  0  0
   42.5720   85.2250   60.5400 C   0  0  0  0  0  0  0  0  0  0  0  0
   41.7240   85.2650   59.4350 C   0  0  0  0  0  0  0  0  0  0  0  0
   42.0680   86.0490   58.3760 N   0  0  0  0  0  0  0  0  0  0  0  0
   43.1950   86.7810   58.3600 C   0  0  0  0  0  0  0  0  0  0  0  0
   44.0420   86.7640   59.4190 N   0  0  0  0  0  0  0  0  0  0  0  0
   44.3680   85.9310   61.3870 H   0  0  0  0  0  0  0  0  0  0  0  0
   42.3200   84.6130   61.3900 H   0  0  0  0  0  0  0  0  0  0  0  0
   43.4070   87.3820   57.4810 H   0  0  0  0  0  0  0  0  0  0  0  0
   39.2570   84.6400   61.4540 O   0  0  0  0  0  0  0  0  0  0  0  0
   38.4530   84.5120   60.8830 H   0  0  0  0  0  0  0  0  0  0  0  0
   40.0440   80.7460   59.0680 O   0  0  0  0  0  0  0  0  0  0  0  0
   40.6020   80.6780   58.2480 H   0  0  0  0  0  0  0  0  0  0  0  0
   39.3260   81.9690   61.9710 O   0  0  0  0  0  0  0  0  0  0  0  0
   39.5710   81.0190   62.1110 H   0  0  0  0  0  0  0  0  0  0  0  0
  1 16  1  1  0  0  0
  2  9  1  1  0  0  0
  2  1  1  0  0  0  0
  3  4  1  0  0  0  0
  3  2  1  0  0  0  0
  4  5  1  0  0  0  0
  5 18  1  6  0  0  0
  5  6  1  0  0  0  0
  6  1  1  0  0  0  0
  6 20  1  1  0  0  0
  7  8  1  0  0  0  0
  7 13  1  0  0  0  0
  8 14  1  0  0  0  0
  9  8  2  0  0  0  0
 10  9  1  0  0  0  0
 11 10  2  0  0  0  0
 11 12  1  0  0  0  0
 12  7  2  0  0  0  0
 15 11  1  0  0  0  0
 17 16  1  0  0  0  0
 19 18  1  0  0  0  0
 20 21  1  0  0  0  0
M  END
>  <minimizedAffinity>
-4.5422163

>  <minimizedRMSD>
5.0682292

$$$$
