
 OpenBabel03212520443D

 21 22  0  0  1  0  0  0  0  0999 V2000
   41.6990   80.1350   60.5030 C   0  0  2  0  0  3  0  0  0  0  0  0
   40.4860   80.5230   61.2870 C   0  0  1  0  0  3  0  0  0  0  0  0
   40.6110   80.1250   62.5940 O   0  0  0  0  0  0  0  0  0  0  0  0
   40.5950   78.7340   62.6550 C   0  0  0  0  0  2  0  0  0  0  0  0
   41.8100   78.1360   61.9630 C   0  0  1  0  0  3  0  0  0  0  0  0
   42.6090   79.1810   61.2510 C   0  0  2  0  0  3  0  0  0  0  0  0
   40.2130   81.9690   61.1350 C   0  0  0  0  0  0  0  0  0  0  0  0
   40.2200   82.7660   62.2950 C   0  0  0  0  0  0  0  0  0  0  0  0
   39.9650   84.1350   62.1650 C   0  0  0  0  0  0  0  0  0  0  0  0
   39.7210   84.6280   60.9100 N   0  0  0  0  0  0  0  0  0  0  0  0
   39.7230   83.8300   59.8200 C   0  0  0  0  0  0  0  0  0  0  0  0
   39.9660   82.5170   59.9340 N   0  0  0  0  0  0  0  0  0  0  0  0
   40.4110   82.3950   63.2940 H   0  0  0  0  0  0  0  0  0  0  0  0
   39.9450   84.8410   62.9880 H   0  0  0  0  0  0  0  0  0  0  0  0
   39.5280   84.2290   58.8280 H   0  0  0  0  0  0  0  0  0  0  0  0
   42.5100   81.2180   60.1480 O   0  0  0  0  0  0  0  0  0  0  0  0
   42.9730   80.9850   59.3040 H   0  0  0  0  0  0  0  0  0  0  0  0
   42.6290   77.5110   62.8970 O   0  0  0  0  0  0  0  0  0  0  0  0
   42.9690   76.6630   62.4690 H   0  0  0  0  0  0  0  0  0  0  0  0
   43.5200   79.8500   62.0640 O   0  0  0  0  0  0  0  0  0  0  0  0
   44.4520   79.7820   61.7340 H   0  0  0  0  0  0  0  0  0  0  0  0
  1 16  1  1  0  0  0
  1  6  1  0  0  0  0
  1  2  1  0  0  0  0
  2  7  1  1  0  0  0
  2  3  1  0  0  0  0
  3  4  1  0  0  0  0
  5  4  1  0  0  0  0
  5 18  1  1  0  0  0
  6  5  1  0  0  0  0
  6 20  1  1  0  0  0
  7  8  1  0  0  0  0
  8 13  1  0  0  0  0
  9  8  2  0  0  0  0
  9 14  1  0  0  0  0
 10  9  1  0  0  0  0
 11 12  1  0  0  0  0
 11 10  2  0  0  0  0
 12  7  2  0  0  0  0
 15 11  1  0  0  0  0
 17 16  1  0  0  0  0
 19 18  1  0  0  0  0
 21 20  1  0  0  0  0
M  END
>  <minimizedAffinity>
-4.48722315

>  <minimizedRMSD>
2.80170417

$$$$
