
 OpenBabel03212520443D

 21 22  0  0  1  0  0  0  0  0999 V2000
   41.0970   80.2020   62.2850 C   0  0  2  0  0  3  0  0  0  0  0  0
   41.7470   81.5290   62.0530 C   0  0  1  0  0  3  0  0  0  0  0  0
   42.7760   81.4090   61.1550 O   0  0  0  0  0  0  0  0  0  0  0  0
   43.7970   80.6530   61.7240 C   0  0  0  0  0  2  0  0  0  0  0  0
   43.3520   79.2210   61.9760 C   0  0  1  0  0  3  0  0  0  0  0  0
   41.8910   79.0440   61.7110 C   0  0  2  0  0  3  0  0  0  0  0  0
   40.7370   82.5360   61.6610 C   0  0  0  0  0  0  0  0  0  0  0  0
   40.9060   83.1920   60.4270 C   0  0  0  0  0  0  0  0  0  0  0  0
   39.9570   84.1460   60.0430 C   0  0  0  0  0  0  0  0  0  0  0  0
   38.9120   84.3920   60.8930 N   0  0  0  0  0  0  0  0  0  0  0  0
   38.7840   83.7400   62.0710 C   0  0  0  0  0  0  0  0  0  0  0  0
   39.6870   82.8250   62.4470 N   0  0  0  0  0  0  0  0  0  0  0  0
   41.7240   83.0110   59.7420 H   0  0  0  0  0  0  0  0  0  0  0  0
   39.9880   84.7100   59.1180 H   0  0  0  0  0  0  0  0  0  0  0  0
   37.9520   83.9420   62.7390 H   0  0  0  0  0  0  0  0  0  0  0  0
   39.8220   80.0910   61.7210 O   0  0  0  0  0  0  0  0  0  0  0  0
   39.3020   79.4520   62.2700 H   0  0  0  0  0  0  0  0  0  0  0  0
   44.0600   78.3520   61.1540 O   0  0  0  0  0  0  0  0  0  0  0  0
   44.2720   77.5330   61.7060 H   0  0  0  0  0  0  0  0  0  0  0  0
   41.5820   78.8050   60.3760 O   0  0  0  0  0  0  0  0  0  0  0  0
   41.0870   77.9570   60.2410 H   0  0  0  0  0  0  0  0  0  0  0  0
  1 16  1  6  0  0  0
  2  7  1  6  0  0  0
  2  1  1  0  0  0  0
  3  4  1  0  0  0  0
  3  2  1  0  0  0  0
  4  5  1  0  0  0  0
  5 18  1  6  0  0  0
  6 20  1  6  0  0  0
  6  5  1  0  0  0  0
  6  1  1  0  0  0  0
  7 12  1  0  0  0  0
  8  7  2  0  0  0  0
  9  8  1  0  0  0  0
  9 10  2  0  0  0  0
 10 11  1  0  0  0  0
 11 12  2  0  0  0  0
 11 15  1  0  0  0  0
 13  8  1  0  0  0  0
 14  9  1  0  0  0  0
 16 17  1  0  0  0  0
 18 19  1  0  0  0  0
 21 20  1  0  0  0  0
M  END
>  <minimizedAffinity>
-4.602633

>  <minimizedRMSD>
2.17556381

$$$$
