
 OpenBabel03212520443D

 21 22  0  0  1  0  0  0  0  0999 V2000
   41.4390   80.4100   61.9010 C   0  0  2  0  0  3  0  0  0  0  0  0
   40.6730   80.7220   60.6540 C   0  0  1  0  0  3  0  0  0  0  0  0
   39.7760   79.7210   60.3790 O   0  0  0  0  0  0  0  0  0  0  0  0
   40.4700   78.5630   60.0420 C   0  0  0  0  0  2  0  0  0  0  0  0
   41.2710   78.0340   61.2220 C   0  0  1  0  0  3  0  0  0  0  0  0
   41.2440   78.9850   62.3760 C   0  0  2  0  0  3  0  0  0  0  0  0
   40.0510   82.0610   60.7510 C   0  0  0  0  0  0  0  0  0  0  0  0
   40.2260   82.9480   59.6710 C   0  0  0  0  0  0  0  0  0  0  0  0
   39.6430   84.2170   59.7500 C   0  0  0  0  0  0  0  0  0  0  0  0
   38.9310   84.5300   60.8780 N   0  0  0  0  0  0  0  0  0  0  0  0
   38.7860   83.6500   61.8940 C   0  0  0  0  0  0  0  0  0  0  0  0
   39.3400   82.4320   61.8280 N   0  0  0  0  0  0  0  0  0  0  0  0
   40.7840   82.7190   58.7720 H   0  0  0  0  0  0  0  0  0  0  0  0
   39.7120   84.9770   58.9810 H   0  0  0  0  0  0  0  0  0  0  0  0
   38.2200   83.9060   62.7850 H   0  0  0  0  0  0  0  0  0  0  0  0
   41.0910   81.2150   62.9910 O   0  0  0  0  0  0  0  0  0  0  0  0
   41.8860   81.2930   63.5750 H   0  0  0  0  0  0  0  0  0  0  0  0
   40.7490   76.8140   61.6410 O   0  0  0  0  0  0  0  0  0  0  0  0
   41.5350   76.2250   61.8760 H   0  0  0  0  0  0  0  0  0  0  0  0
   40.1270   78.8510   63.1960 O   0  0  0  0  0  0  0  0  0  0  0  0
   40.3610   78.6670   64.1400 H   0  0  0  0  0  0  0  0  0  0  0  0
  1  6  1  0  0  0  0
  1 16  1  1  0  0  0
  2  7  1  1  0  0  0
  2  1  1  0  0  0  0
  3  2  1  0  0  0  0
  4  3  1  0  0  0  0
  4  5  1  0  0  0  0
  5 18  1  1  0  0  0
  5  6  1  0  0  0  0
  6 20  1  6  0  0  0
  7 12  1  0  0  0  0
  8  9  1  0  0  0  0
  8  7  2  0  0  0  0
  9 10  2  0  0  0  0
 10 11  1  0  0  0  0
 11 15  1  0  0  0  0
 12 11  2  0  0  0  0
 13  8  1  0  0  0  0
 14  9  1  0  0  0  0
 16 17  1  0  0  0  0
 18 19  1  0  0  0  0
 20 21  1  0  0  0  0
M  END
>  <minimizedAffinity>
-5.46782589

>  <minimizedRMSD>
0.922691405

$$$$
