
 OpenBabel03212520443D

 21 22  0  0  1  0  0  0  0  0999 V2000
   40.3320   79.6380   60.5710 C   0  0  2  0  0  3  0  0  0  0  0  0
   40.9000   80.1610   61.8520 C   0  0  1  0  0  3  0  0  0  0  0  0
   42.2130   79.7880   61.9830 O   0  0  0  0  0  0  0  0  0  0  0  0
   42.2830   78.4070   62.1480 C   0  0  0  0  0  2  0  0  0  0  0  0
   41.8090   77.6760   60.9010 C   0  0  1  0  0  3  0  0  0  0  0  0
   41.2300   78.6190   59.8960 C   0  0  2  0  0  3  0  0  0  0  0  0
   40.6900   81.6220   61.9500 C   0  0  0  0  0  0  0  0  0  0  0  0
   41.8260   82.4430   62.0870 C   0  0  0  0  0  0  0  0  0  0  0  0
   41.6420   83.8270   62.1800 C   0  0  0  0  0  0  0  0  0  0  0  0
   40.3610   84.3100   62.1330 N   0  0  0  0  0  0  0  0  0  0  0  0
   39.2950   83.4890   62.0010 C   0  0  0  0  0  0  0  0  0  0  0  0
   39.4610   82.1620   61.9110 N   0  0  0  0  0  0  0  0  0  0  0  0
   42.8450   82.0800   62.1240 H   0  0  0  0  0  0  0  0  0  0  0  0
   42.4410   84.5500   62.2870 H   0  0  0  0  0  0  0  0  0  0  0  0
   38.2820   83.8810   61.9660 H   0  0  0  0  0  0  0  0  0  0  0  0
   40.1060   80.6270   59.6080 O   0  0  0  0  0  0  0  0  0  0  0  0
   39.3530   80.3280   59.0390 H   0  0  0  0  0  0  0  0  0  0  0  0
   42.8720   77.0000   60.3130 O   0  0  0  0  0  0  0  0  0  0  0  0
   42.5150   76.1120   59.9940 H   0  0  0  0  0  0  0  0  0  0  0  0
   42.1760   79.2180   59.0690 O   0  0  0  0  0  0  0  0  0  0  0  0
   42.0070   79.0530   58.1070 H   0  0  0  0  0  0  0  0  0  0  0  0
  1 16  1  6  0  0  0
  1  2  1  0  0  0  0
  2  7  1  6  0  0  0
  2  3  1  0  0  0  0
  3  4  1  0  0  0  0
  5 18  1  6  0  0  0
  5  4  1  0  0  0  0
  6 20  1  1  0  0  0
  6  1  1  0  0  0  0
  6  5  1  0  0  0  0
  7  8  1  0  0  0  0
  8 13  1  0  0  0  0
  8  9  2  0  0  0  0
  9 14  1  0  0  0  0
 10  9  1  0  0  0  0
 11 10  2  0  0  0  0
 12  7  2  0  0  0  0
 12 11  1  0  0  0  0
 15 11  1  0  0  0  0
 17 16  1  0  0  0  0
 19 18  1  0  0  0  0
 21 20  1  0  0  0  0
M  END
>  <minimizedAffinity>
-3.97765613

>  <minimizedRMSD>
2.04794645

$$$$
