
 OpenBabel03212520453D

 21 22  0  0  1  0  0  0  0  0999 V2000
   40.7500   80.1950   59.7060 C   0  0  2  0  0  3  0  0  0  0  0  0
   41.4250   81.2570   60.5150 C   0  0  1  0  0  3  0  0  0  0  0  0
   42.6130   81.6220   59.9330 O   0  0  0  0  0  0  0  0  0  0  0  0
   43.5050   80.5550   60.0050 C   0  0  0  0  0  2  0  0  0  0  0  0
   43.0260   79.3750   59.1710 C   0  0  1  0  0  3  0  0  0  0  0  0
   41.6470   79.6010   58.6390 C   0  0  2  0  0  3  0  0  0  0  0  0
   40.5070   82.3950   60.7420 C   0  0  0  0  0  0  0  0  0  0  0  0
   40.5660   83.4780   59.8440 C   0  0  0  0  0  0  0  0  0  0  0  0
   39.7030   84.5600   60.0470 C   0  0  0  0  0  0  0  0  0  0  0  0
   38.8440   84.5070   61.1120 N   0  0  0  0  0  0  0  0  0  0  0  0
   38.8170   83.4480   61.9520 C   0  0  0  0  0  0  0  0  0  0  0  0
   39.6400   82.4070   61.7670 N   0  0  0  0  0  0  0  0  0  0  0  0
   41.2370   83.5370   58.9970 H   0  0  0  0  0  0  0  0  0  0  0  0
   39.6620   85.4430   59.4200 H   0  0  0  0  0  0  0  0  0  0  0  0
   38.1320   83.4150   62.7960 H   0  0  0  0  0  0  0  0  0  0  0  0
   39.6120   80.6420   59.0270 O   0  0  0  0  0  0  0  0  0  0  0  0
   38.9970   79.8730   58.9270 H   0  0  0  0  0  0  0  0  0  0  0  0
   43.8860   79.1700   58.0990 O   0  0  0  0  0  0  0  0  0  0  0  0
   43.9900   78.1700   57.9930 H   0  0  0  0  0  0  0  0  0  0  0  0
   41.6090   80.3310   57.4550 O   0  0  0  0  0  0  0  0  0  0  0  0
   41.1560   79.8470   56.7180 H   0  0  0  0  0  0  0  0  0  0  0  0
  1 16  1  6  0  0  0
  1  2  1  0  0  0  0
  2  7  1  6  0  0  0
  3  4  1  0  0  0  0
  3  2  1  0  0  0  0
  5 18  1  6  0  0  0
  5  4  1  0  0  0  0
  6 20  1  6  0  0  0
  6  5  1  0  0  0  0
  6  1  1  0  0  0  0
  7 12  1  0  0  0  0
  8  9  1  0  0  0  0
  8  7  2  0  0  0  0
  9 10  2  0  0  0  0
 10 11  1  0  0  0  0
 11 15  1  0  0  0  0
 12 11  2  0  0  0  0
 13  8  1  0  0  0  0
 14  9  1  0  0  0  0
 17 16  1  0  0  0  0
 19 18  1  0  0  0  0
 21 20  1  0  0  0  0
M  END
>  <minimizedAffinity>
-3.70815396

>  <minimizedRMSD>
0.930181623

$$$$
