
 OpenBabel03212520443D

 21 22  0  0  1  0  0  0  0  0999 V2000
   40.6580   80.2550   59.3530 C   0  0  2  0  0  3  0  0  0  0  0  0
   41.3810   81.2650   60.1870 C   0  0  1  0  0  3  0  0  0  0  0  0
   42.5380   81.6620   59.5650 O   0  0  0  0  0  0  0  0  0  0  0  0
   43.4270   80.5910   59.5230 C   0  0  0  0  0  2  0  0  0  0  0  0
   42.8980   79.4660   58.6470 C   0  0  1  0  0  3  0  0  0  0  0  0
   41.4940   79.7260   58.2040 C   0  0  2  0  0  3  0  0  0  0  0  0
   40.4820   82.3880   60.5310 C   0  0  0  0  0  0  0  0  0  0  0  0
   40.4790   83.5130   59.6830 C   0  0  0  0  0  0  0  0  0  0  0  0
   39.6330   84.5820   59.9970 C   0  0  0  0  0  0  0  0  0  0  0  0
   38.8510   84.4770   61.1160 N   0  0  0  0  0  0  0  0  0  0  0  0
   38.8820   83.3800   61.9050 C   0  0  0  0  0  0  0  0  0  0  0  0
   39.6890   82.3500   61.6140 N   0  0  0  0  0  0  0  0  0  0  0  0
   41.0890   83.6140   58.7950 H   0  0  0  0  0  0  0  0  0  0  0  0
   39.5500   85.4930   59.4170 H   0  0  0  0  0  0  0  0  0  0  0  0
   38.2590   83.3050   62.7920 H   0  0  0  0  0  0  0  0  0  0  0  0
   39.4880   80.7440   58.7630 O   0  0  0  0  0  0  0  0  0  0  0  0
   38.8650   79.9830   58.6500 H   0  0  0  0  0  0  0  0  0  0  0  0
   43.7000   79.3240   57.5200 O   0  0  0  0  0  0  0  0  0  0  0  0
   43.7920   78.3320   57.3490 H   0  0  0  0  0  0  0  0  0  0  0  0
   41.3970   80.5260   57.0700 O   0  0  0  0  0  0  0  0  0  0  0  0
   40.9020   80.0890   56.3310 H   0  0  0  0  0  0  0  0  0  0  0  0
  1 16  1  6  0  0  0
  1  2  1  0  0  0  0
  2  7  1  6  0  0  0
  3  2  1  0  0  0  0
  4  3  1  0  0  0  0
  5 18  1  6  0  0  0
  5  4  1  0  0  0  0
  6 20  1  6  0  0  0
  6  5  1  0  0  0  0
  6  1  1  0  0  0  0
  7 12  1  0  0  0  0
  8  9  1  0  0  0  0
  8  7  2  0  0  0  0
  9 10  2  0  0  0  0
 10 11  1  0  0  0  0
 11 15  1  0  0  0  0
 12 11  2  0  0  0  0
 13  8  1  0  0  0  0
 14  9  1  0  0  0  0
 17 16  1  0  0  0  0
 19 18  1  0  0  0  0
 21 20  1  0  0  0  0
M  END
>  <minimizedAffinity>
-3.75142789

>  <minimizedRMSD>
1.14423108

$$$$
