
 OpenBabel03212520453D

 21 22  0  0  1  0  0  0  0  0999 V2000
   41.8190   80.4270   60.4780 C   0  0  2  0  0  3  0  0  0  0  0  0
   40.4150   80.5110   60.9890 C   0  0  1  0  0  3  0  0  0  0  0  0
   40.3240   79.9430   62.2350 O   0  0  0  0  0  0  0  0  0  0  0  0
   40.5410   78.5720   62.1320 C   0  0  0  0  0  2  0  0  0  0  0  0
   41.9640   78.2690   61.6860 C   0  0  1  0  0  3  0  0  0  0  0  0
   42.7000   79.5140   61.3080 C   0  0  2  0  0  3  0  0  0  0  0  0
   39.9320   81.9080   60.9410 C   0  0  0  0  0  0  0  0  0  0  0  0
   40.0680   82.6100   59.7290 C   0  0  0  0  0  0  0  0  0  0  0  0
   39.6140   83.9320   59.6690 C   0  0  0  0  0  0  0  0  0  0  0  0
   39.0590   84.4740   60.7980 N   0  0  0  0  0  0  0  0  0  0  0  0
   38.9450   83.7660   61.9440 C   0  0  0  0  0  0  0  0  0  0  0  0
   39.3780   82.4990   62.0120 N   0  0  0  0  0  0  0  0  0  0  0  0
   40.5030   82.1990   58.8260 H   0  0  0  0  0  0  0  0  0  0  0  0
   39.6690   84.5640   58.7910 H   0  0  0  0  0  0  0  0  0  0  0  0
   38.5050   84.2040   62.8360 H   0  0  0  0  0  0  0  0  0  0  0  0
   42.4840   81.6580   60.4510 O   0  0  0  0  0  0  0  0  0  0  0  0
   43.1510   81.6250   59.7200 H   0  0  0  0  0  0  0  0  0  0  0  0
   42.6590   77.6370   62.7110 O   0  0  0  0  0  0  0  0  0  0  0  0
   43.2280   76.9210   62.2830 H   0  0  0  0  0  0  0  0  0  0  0  0
   43.2800   80.1790   62.3840 O   0  0  0  0  0  0  0  0  0  0  0  0
   44.2580   80.2990   62.2810 H   0  0  0  0  0  0  0  0  0  0  0  0
  1 16  1  1  0  0  0
  1  2  1  0  0  0  0
  1  6  1  0  0  0  0
  2  7  1  1  0  0  0
  2  3  1  0  0  0  0
  4  3  1  0  0  0  0
  5  4  1  0  0  0  0
  5 18  1  1  0  0  0
  6  5  1  0  0  0  0
  6 20  1  1  0  0  0
  7 12  1  0  0  0  0
  8  7  2  0  0  0  0
  9  8  1  0  0  0  0
  9 10  2  0  0  0  0
 10 11  1  0  0  0  0
 11 12  2  0  0  0  0
 11 15  1  0  0  0  0
 13  8  1  0  0  0  0
 14  9  1  0  0  0  0
 17 16  1  0  0  0  0
 19 18  1  0  0  0  0
 21 20  1  0  0  0  0
M  END
>  <minimizedAffinity>
-5.12981272

>  <minimizedRMSD>
1.16651118

$$$$
