
 OpenBabel03212520443D

 21 22  0  0  1  0  0  0  0  0999 V2000
   41.4400   80.4120   61.9000 C   0  0  2  0  0  3  0  0  0  0  0  0
   40.6740   80.7240   60.6540 C   0  0  1  0  0  3  0  0  0  0  0  0
   39.7770   79.7230   60.3790 O   0  0  0  0  0  0  0  0  0  0  0  0
   40.4720   78.5640   60.0420 C   0  0  0  0  0  2  0  0  0  0  0  0
   41.2730   78.0360   61.2230 C   0  0  1  0  0  3  0  0  0  0  0  0
   41.2450   78.9870   62.3770 C   0  0  2  0  0  3  0  0  0  0  0  0
   40.0520   82.0620   60.7510 C   0  0  0  0  0  0  0  0  0  0  0  0
   40.2260   82.9490   59.6710 C   0  0  0  0  0  0  0  0  0  0  0  0
   39.6420   84.2180   59.7490 C   0  0  0  0  0  0  0  0  0  0  0  0
   38.9310   84.5300   60.8770 N   0  0  0  0  0  0  0  0  0  0  0  0
   38.7850   83.6510   61.8930 C   0  0  0  0  0  0  0  0  0  0  0  0
   39.3410   82.4330   61.8280 N   0  0  0  0  0  0  0  0  0  0  0  0
   40.7840   82.7200   58.7720 H   0  0  0  0  0  0  0  0  0  0  0  0
   39.7120   84.9780   58.9800 H   0  0  0  0  0  0  0  0  0  0  0  0
   38.2200   83.9070   62.7850 H   0  0  0  0  0  0  0  0  0  0  0  0
   41.0920   81.2170   62.9920 O   0  0  0  0  0  0  0  0  0  0  0  0
   41.8870   81.2950   63.5750 H   0  0  0  0  0  0  0  0  0  0  0  0
   40.7530   76.8160   61.6420 O   0  0  0  0  0  0  0  0  0  0  0  0
   41.5380   76.2270   61.8760 H   0  0  0  0  0  0  0  0  0  0  0  0
   40.1280   78.8530   63.1950 O   0  0  0  0  0  0  0  0  0  0  0  0
   40.3630   78.6690   64.1410 H   0  0  0  0  0  0  0  0  0  0  0  0
  1  6  1  0  0  0  0
  1 16  1  1  0  0  0
  2  7  1  1  0  0  0
  2  1  1  0  0  0  0
  3  2  1  0  0  0  0
  4  3  1  0  0  0  0
  4  5  1  0  0  0  0
  5 18  1  1  0  0  0
  5  6  1  0  0  0  0
  6 20  1  6  0  0  0
  7 12  1  0  0  0  0
  8  9  1  0  0  0  0
  8  7  2  0  0  0  0
  9 10  2  0  0  0  0
 10 11  1  0  0  0  0
 11 15  1  0  0  0  0
 12 11  2  0  0  0  0
 13  8  1  0  0  0  0
 14  9  1  0  0  0  0
 16 17  1  0  0  0  0
 18 19  1  0  0  0  0
 20 21  1  0  0  0  0
M  END
>  <minimizedAffinity>
-5.46687746

>  <minimizedRMSD>
0.179480761

$$$$
