
 OpenBabel03212520453D

 21 22  0  0  1  0  0  0  0  0999 V2000
   39.2590   75.7920   55.9820 C   0  0  2  0  0  3  0  0  0  0  0  0
   38.3790   76.5710   56.9080 C   0  0  1  0  0  3  0  0  0  0  0  0
   37.0730   76.1790   56.7710 O   0  0  0  0  0  0  0  0  0  0  0  0
   36.6110   76.5480   55.5110 C   0  0  0  0  0  2  0  0  0  0  0  0
   37.3440   75.7950   54.4110 C   0  0  1  0  0  3  0  0  0  0  0  0
   38.4810   74.9920   54.9560 C   0  0  2  0  0  3  0  0  0  0  0  0
   38.8810   76.4790   58.2960 C   0  0  0  0  0  0  0  0  0  0  0  0
   39.6400   77.5550   58.7950 C   0  0  0  0  0  0  0  0  0  0  0  0
   40.1200   77.4820   60.1070 C   0  0  0  0  0  0  0  0  0  0  0  0
   39.8250   76.3620   60.8380 N   0  0  0  0  0  0  0  0  0  0  0  0
   39.0930   75.3490   60.3230 C   0  0  0  0  0  0  0  0  0  0  0  0
   38.6280   75.4090   59.0680 N   0  0  0  0  0  0  0  0  0  0  0  0
   39.8820   78.4480   58.2330 H   0  0  0  0  0  0  0  0  0  0  0  0
   40.7120   78.2490   60.5910 H   0  0  0  0  0  0  0  0  0  0  0  0
   38.8640   74.4640   60.9100 H   0  0  0  0  0  0  0  0  0  0  0  0
   40.0780   74.8610   56.6330 O   0  0  0  0  0  0  0  0  0  0  0  0
   40.8970   74.7480   56.0890 H   0  0  0  0  0  0  0  0  0  0  0  0
   36.4680   74.9360   53.7570 O   0  0  0  0  0  0  0  0  0  0  0  0
   36.6940   74.9780   52.7740 H   0  0  0  0  0  0  0  0  0  0  0  0
   38.1110   73.7390   55.4360 O   0  0  0  0  0  0  0  0  0  0  0  0
   38.5990   72.9980   54.9940 H   0  0  0  0  0  0  0  0  0  0  0  0
  1 16  1  1  0  0  0
  1  2  1  0  0  0  0
  2  7  1  1  0  0  0
  3  2  1  0  0  0  0
  4  3  1  0  0  0  0
  5 18  1  1  0  0  0
  5  6  1  0  0  0  0
  5  4  1  0  0  0  0
  6 20  1  1  0  0  0
  6  1  1  0  0  0  0
  7  8  2  0  0  0  0
  7 12  1  0  0  0  0
  8  9  1  0  0  0  0
  9 14  1  0  0  0  0
  9 10  2  0  0  0  0
 11 10  1  0  0  0  0
 11 15  1  0  0  0  0
 12 11  2  0  0  0  0
 13  8  1  0  0  0  0
 17 16  1  0  0  0  0
 19 18  1  0  0  0  0
 21 20  1  0  0  0  0
M  END
>  <minimizedAffinity>
-5.29055643

$$$$

 OpenBabel03212520453D

 21 22  0  0  1  0  0  0  0  0999 V2000
   37.7980   73.5940   57.3170 C   0  0  2  0  0  3  0  0  0  0  0  0
   38.6870   74.5950   56.6490 C   0  0  1  0  0  3  0  0  0  0  0  0
   39.7500   73.9700   56.0510 O   0  0  0  0  0  0  0  0  0  0  0  0
   40.5720   73.4210   57.0320 C   0  0  0  0  0  2  0  0  0  0  0  0
   39.8630   72.3100   57.7910 C   0  0  1  0  0  3  0  0  0  0  0  0
   38.4210   72.2150   57.4070 C   0  0  2  0  0  3  0  0  0  0  0  0
   37.9050   75.4440   55.7240 C   0  0  0  0  0  0  0  0  0  0  0  0
   37.4590   76.6940   56.1940 C   0  0  0  0  0  0  0  0  0  0  0  0
   36.7190   77.5070   55.3290 C   0  0  0  0  0  0  0  0  0  0  0  0
   36.4670   77.0410   54.0660 N   0  0  0  0  0  0  0  0  0  0  0  0
   36.9130   75.8340   53.6510 C   0  0  0  0  0  0  0  0  0  0  0  0
   37.6230   75.0480   54.4720 N   0  0  0  0  0  0  0  0  0  0  0  0
   37.6490   77.0790   57.1880 H   0  0  0  0  0  0  0  0  0  0  0  0
   36.3270   78.4840   55.5850 H   0  0  0  0  0  0  0  0  0  0  0  0
   36.7080   75.4720   52.6480 H   0  0  0  0  0  0  0  0  0  0  0  0
   36.5740   73.4050   56.6640 O   0  0  0  0  0  0  0  0  0  0  0  0
   35.9070   73.1400   57.3460 H   0  0  0  0  0  0  0  0  0  0  0  0
   40.4730   71.0890   57.5270 O   0  0  0  0  0  0  0  0  0  0  0  0
   40.4920   70.5760   58.3960 H   0  0  0  0  0  0  0  0  0  0  0  0
   38.1860   71.4550   56.2660 O   0  0  0  0  0  0  0  0  0  0  0  0
   37.5640   70.7020   56.4250 H   0  0  0  0  0  0  0  0  0  0  0  0
  1 16  1  6  0  0  0
  1  6  1  0  0  0  0
  2  7  1  6  0  0  0
  2  1  1  0  0  0  0
  3  2  1  0  0  0  0
  3  4  1  0  0  0  0
  4  5  1  0  0  0  0
  5 18  1  6  0  0  0
  6 20  1  6  0  0  0
  6  5  1  0  0  0  0
  7  8  1  0  0  0  0
  8 13  1  0  0  0  0
  9 14  1  0  0  0  0
  9  8  2  0  0  0  0
 10  9  1  0  0  0  0
 11 10  2  0  0  0  0
 11 12  1  0  0  0  0
 12  7  2  0  0  0  0
 15 11  1  0  0  0  0
 16 17  1  0  0  0  0
 18 19  1  0  0  0  0
 20 21  1  0  0  0  0
M  END
>  <minimizedAffinity>
-5.0431366

$$$$

 OpenBabel03212520453D

 21 22  0  0  1  0  0  0  0  0999 V2000
   38.3790   73.3910   58.7270 C   0  0  2  0  0  3  0  0  0  0  0  0
   39.8170   73.8000   58.6680 C   0  0  1  0  0  3  0  0  0  0  0  0
   40.2930   73.6950   57.3870 O   0  0  0  0  0  0  0  0  0  0  0  0
   40.3310   72.3520   57.0190 C   0  0  0  0  0  2  0  0  0  0  0  0
   38.9320   71.7580   56.9480 C   0  0  1  0  0  3  0  0  0  0  0  0
   37.9010   72.7140   57.4580 C   0  0  2  0  0  3  0  0  0  0  0  0
   39.9950   75.1470   59.2540 C   0  0  0  0  0  0  0  0  0  0  0  0
   40.5400   76.1550   58.4360 C   0  0  0  0  0  0  0  0  0  0  0  0
   40.7130   77.4330   58.9780 C   0  0  0  0  0  0  0  0  0  0  0  0
   40.3420   77.6350   60.2810 N   0  0  0  0  0  0  0  0  0  0  0  0
   39.8220   76.6410   61.0350 C   0  0  0  0  0  0  0  0  0  0  0  0
   39.6520   75.4130   60.5250 N   0  0  0  0  0  0  0  0  0  0  0  0
   40.8380   76.0140   57.4050 H   0  0  0  0  0  0  0  0  0  0  0  0
   41.1220   78.2810   58.4410 H   0  0  0  0  0  0  0  0  0  0  0  0
   39.5310   76.8100   62.0680 H   0  0  0  0  0  0  0  0  0  0  0  0
   37.4970   74.4600   58.9310 O   0  0  0  0  0  0  0  0  0  0  0  0
   36.7040   74.1090   59.4070 H   0  0  0  0  0  0  0  0  0  0  0  0
   38.6200   71.4300   55.6340 O   0  0  0  0  0  0  0  0  0  0  0  0
   38.1220   70.5520   55.6610 H   0  0  0  0  0  0  0  0  0  0  0  0
   37.4580   73.6290   56.5080 O   0  0  0  0  0  0  0  0  0  0  0  0
   36.4770   73.5960   56.3700 H   0  0  0  0  0  0  0  0  0  0  0  0
  1 16  1  6  0  0  0
  2  1  1  0  0  0  0
  2  7  1  6  0  0  0
  3  2  1  0  0  0  0
  4  3  1  0  0  0  0
  5 18  1  6  0  0  0
  5  4  1  0  0  0  0
  5  6  1  0  0  0  0
  6 20  1  6  0  0  0
  6  1  1  0  0  0  0
  7 12  1  0  0  0  0
  8  9  1  0  0  0  0
  8  7  2  0  0  0  0
  9 10  2  0  0  0  0
 10 11  1  0  0  0  0
 11 15  1  0  0  0  0
 12 11  2  0  0  0  0
 13  8  1  0  0  0  0
 14  9  1  0  0  0  0
 16 17  1  0  0  0  0
 18 19  1  0  0  0  0
 21 20  1  0  0  0  0
M  END
>  <minimizedAffinity>
-4.83151293

$$$$

 OpenBabel03212520453D

 21 22  0  0  1  0  0  0  0  0999 V2000
   39.9360   75.4070   59.7500 C   0  0  2  0  0  3  0  0  0  0  0  0
   39.7030   74.6000   58.5120 C   0  0  1  0  0  3  0  0  0  0  0  0
   39.3790   73.3080   58.8360 O   0  0  0  0  0  0  0  0  0  0  0  0
   40.4830   72.6880   59.4150 C   0  0  0  0  0  2  0  0  0  0  0  0
   40.8420   73.3290   60.7470 C   0  0  1  0  0  3  0  0  0  0  0  0
   40.0320   74.5600   61.0030 C   0  0  2  0  0  3  0  0  0  0  0  0
   38.7020   75.2600   57.6450 C   0  0  0  0  0  0  0  0  0  0  0  0
   37.5640   74.5200   57.2720 C   0  0  0  0  0  0  0  0  0  0  0  0
   36.6090   75.1320   56.4530 C   0  0  0  0  0  0  0  0  0  0  0  0
   36.8350   76.4240   56.0570 N   0  0  0  0  0  0  0  0  0  0  0  0
   37.9400   77.1020   56.4380 C   0  0  0  0  0  0  0  0  0  0  0  0
   38.8610   76.5240   57.2210 N   0  0  0  0  0  0  0  0  0  0  0  0
   37.3690   73.4990   57.5750 H   0  0  0  0  0  0  0  0  0  0  0  0
   35.6990   74.6580   56.1060 H   0  0  0  0  0  0  0  0  0  0  0  0
   38.1120   78.1260   56.1180 H   0  0  0  0  0  0  0  0  0  0  0  0
   38.9260   76.3410   60.0110 O   0  0  0  0  0  0  0  0  0  0  0  0
   39.3340   77.0980   60.5020 H   0  0  0  0  0  0  0  0  0  0  0  0
   40.6190   72.4290   61.7840 O   0  0  0  0  0  0  0  0  0  0  0  0
   41.3800   72.5410   62.4380 H   0  0  0  0  0  0  0  0  0  0  0  0
   38.7850   74.3110   61.5660 O   0  0  0  0  0  0  0  0  0  0  0  0
   38.6500   74.7820   62.4270 H   0  0  0  0  0  0  0  0  0  0  0  0
  1 16  1  1  0  0  0
  1  6  1  0  0  0  0
  2  7  1  1  0  0  0
  2  3  1  0  0  0  0
  2  1  1  0  0  0  0
  3  4  1  0  0  0  0
  4  5  1  0  0  0  0
  5  6  1  0  0  0  0
  5 18  1  1  0  0  0
  6 20  1  6  0  0  0
  8 13  1  0  0  0  0
  8  7  1  0  0  0  0
  9  8  2  0  0  0  0
 10 11  2  0  0  0  0
 10  9  1  0  0  0  0
 11 12  1  0  0  0  0
 12  7  2  0  0  0  0
 14  9  1  0  0  0  0
 15 11  1  0  0  0  0
 16 17  1  0  0  0  0
 18 19  1  0  0  0  0
 20 21  1  0  0  0  0
M  END
>  <minimizedAffinity>
-4.77786779

$$$$

 OpenBabel03212520453D

 21 22  0  0  1  0  0  0  0  0999 V2000
   39.7670   73.7020   58.7040 C   0  0  2  0  0  3  0  0  0  0  0  0
   38.4910   74.4130   59.0290 C   0  0  1  0  0  3  0  0  0  0  0  0
   38.5620   74.9820   60.2730 O   0  0  0  0  0  0  0  0  0  0  0  0
   38.6180   73.9780   61.2360 C   0  0  0  0  0  2  0  0  0  0  0  0
   39.9030   73.1710   61.1200 C   0  0  1  0  0  3  0  0  0  0  0  0
   40.6840   73.5500   59.9020 C   0  0  2  0  0  3  0  0  0  0  0  0
   38.1500   75.3750   57.9580 C   0  0  0  0  0  0  0  0  0  0  0  0
   37.2010   74.9800   56.9960 C   0  0  0  0  0  0  0  0  0  0  0  0
   36.8680   75.8800   55.9780 C   0  0  0  0  0  0  0  0  0  0  0  0
   37.4870   77.1030   55.9730 N   0  0  0  0  0  0  0  0  0  0  0  0
   38.3920   77.4450   56.9160 C   0  0  0  0  0  0  0  0  0  0  0  0
   38.7180   76.5900   57.8950 N   0  0  0  0  0  0  0  0  0  0  0  0
   36.7020   74.0190   56.9830 H   0  0  0  0  0  0  0  0  0  0  0  0
   36.1540   75.6820   55.1880 H   0  0  0  0  0  0  0  0  0  0  0  0
   38.8790   78.4170   56.9040 H   0  0  0  0  0  0  0  0  0  0  0  0
   40.5380   74.3450   57.7280 O   0  0  0  0  0  0  0  0  0  0  0  0
   41.0600   73.6530   57.2510 H   0  0  0  0  0  0  0  0  0  0  0  0
   40.7000   73.3810   62.2400 O   0  0  0  0  0  0  0  0  0  0  0  0
   41.1090   72.4900   62.4810 H   0  0  0  0  0  0  0  0  0  0  0  0
   41.5070   74.6580   60.0790 O   0  0  0  0  0  0  0  0  0  0  0  0
   42.4590   74.4650   59.8820 H   0  0  0  0  0  0  0  0  0  0  0  0
  1 16  1  6  0  0  0
  1  2  1  0  0  0  0
  1  6  1  0  0  0  0
  2  7  1  6  0  0  0
  2  3  1  0  0  0  0
  3  4  1  0  0  0  0
  5  4  1  0  0  0  0
  5 18  1  1  0  0  0
  6 20  1  1  0  0  0
  6  5  1  0  0  0  0
  8  7  2  0  0  0  0
  9  8  1  0  0  0  0
 10  9  2  0  0  0  0
 10 11  1  0  0  0  0
 11 12  2  0  0  0  0
 12  7  1  0  0  0  0
 13  8  1  0  0  0  0
 14  9  1  0  0  0  0
 15 11  1  0  0  0  0
 17 16  1  0  0  0  0
 18 19  1  0  0  0  0
 21 20  1  0  0  0  0
M  END
>  <minimizedAffinity>
-4.76443958

$$$$

 OpenBabel03212520453D

 21 22  0  0  1  0  0  0  0  0999 V2000
   40.2870   73.0580   57.8230 C   0  0  2  0  0  3  0  0  0  0  0  0
   40.0420   73.8120   59.0920 C   0  0  1  0  0  3  0  0  0  0  0  0
   38.7160   73.7540   59.4350 O   0  0  0  0  0  0  0  0  0  0  0  0
   37.9660   74.4590   58.4980 C   0  0  0  0  0  2  0  0  0  0  0  0
   38.0270   73.7980   57.1290 C   0  0  1  0  0  3  0  0  0  0  0  0
   39.0090   72.6710   57.1050 C   0  0  2  0  0  3  0  0  0  0  0  0
   40.9490   73.3370   60.1590 C   0  0  0  0  0  0  0  0  0  0  0  0
   40.3700   72.8010   61.3260 C   0  0  0  0  0  0  0  0  0  0  0  0
   41.2170   72.3470   62.3420 C   0  0  0  0  0  0  0  0  0  0  0  0
   42.5690   72.4490   62.1470 N   0  0  0  0  0  0  0  0  0  0  0  0
   43.0870   72.9690   61.0120 C   0  0  0  0  0  0  0  0  0  0  0  0
   42.2840   73.4070   60.0320 N   0  0  0  0  0  0  0  0  0  0  0  0
   39.3050   72.7120   61.4970 H   0  0  0  0  0  0  0  0  0  0  0  0
   40.8820   71.9190   63.2790 H   0  0  0  0  0  0  0  0  0  0  0  0
   44.1600   73.0470   60.8660 H   0  0  0  0  0  0  0  0  0  0  0  0
   40.9860   71.8590   58.0070 O   0  0  0  0  0  0  0  0  0  0  0  0
   41.4970   71.6780   57.1790 H   0  0  0  0  0  0  0  0  0  0  0  0
   36.7750   73.3020   56.7840 O   0  0  0  0  0  0  0  0  0  0  0  0
   36.6470   73.4870   55.8000 H   0  0  0  0  0  0  0  0  0  0  0  0
   38.4960   71.4610   57.5620 O   0  0  0  0  0  0  0  0  0  0  0  0
   38.5700   70.7340   56.8930 H   0  0  0  0  0  0  0  0  0  0  0  0
  1 16  1  1  0  0  0
  1  2  1  0  0  0  0
  2  3  1  0  0  0  0
  2  7  1  1  0  0  0
  4  3  1  0  0  0  0
  5 18  1  1  0  0  0
  5  4  1  0  0  0  0
  6  5  1  0  0  0  0
  6 20  1  1  0  0  0
  6  1  1  0  0  0  0
  7  8  1  0  0  0  0
  8 13  1  0  0  0  0
  8  9  2  0  0  0  0
  9 14  1  0  0  0  0
 10  9  1  0  0  0  0
 11 10  2  0  0  0  0
 12  7  2  0  0  0  0
 12 11  1  0  0  0  0
 15 11  1  0  0  0  0
 17 16  1  0  0  0  0
 19 18  1  0  0  0  0
 21 20  1  0  0  0  0
M  END
>  <minimizedAffinity>
-4.73044682

$$$$

 OpenBabel03212520453D

 21 22  0  0  1  0  0  0  0  0999 V2000
   38.8710   74.3420   57.0850 C   0  0  2  0  0  3  0  0  0  0  0  0
   39.4260   75.2490   58.1370 C   0  0  1  0  0  3  0  0  0  0  0  0
   38.5300   76.2420   58.4350 O   0  0  0  0  0  0  0  0  0  0  0  0
   38.3920   77.0830   57.3340 C   0  0  0  0  0  2  0  0  0  0  0  0
   37.7630   76.3530   56.1560 C   0  0  1  0  0  3  0  0  0  0  0  0
   37.6200   74.8890   56.4280 C   0  0  2  0  0  3  0  0  0  0  0  0
   39.8550   74.4680   59.3180 C   0  0  0  0  0  0  0  0  0  0  0  0
   41.2310   74.2120   59.4730 C   0  0  0  0  0  0  0  0  0  0  0  0
   41.6510   73.4750   60.5860 C   0  0  0  0  0  0  0  0  0  0  0  0
   40.6970   73.0410   61.4680 N   0  0  0  0  0  0  0  0  0  0  0  0
   39.3850   73.3080   61.2840 C   0  0  0  0  0  0  0  0  0  0  0  0
   38.9720   74.0120   60.2210 N   0  0  0  0  0  0  0  0  0  0  0  0
   41.9990   74.5470   58.7880 H   0  0  0  0  0  0  0  0  0  0  0  0
   42.6810   73.2200   60.8040 H   0  0  0  0  0  0  0  0  0  0  0  0
   38.6340   72.9590   61.9880 H   0  0  0  0  0  0  0  0  0  0  0  0
   38.5130   73.0760   57.5650 O   0  0  0  0  0  0  0  0  0  0  0  0
   38.6130   72.4320   56.8200 H   0  0  0  0  0  0  0  0  0  0  0  0
   36.5050   76.8790   55.8870 O   0  0  0  0  0  0  0  0  0  0  0  0
   36.4100   76.9150   54.8830 H   0  0  0  0  0  0  0  0  0  0  0  0
   36.4670   74.5530   57.1290 O   0  0  0  0  0  0  0  0  0  0  0  0
   35.9000   73.8980   56.6480 H   0  0  0  0  0  0  0  0  0  0  0  0
  1 16  1  1  0  0  0
  1  2  1  0  0  0  0
  2  3  1  0  0  0  0
  2  7  1  1  0  0  0
  4  3  1  0  0  0  0
  5 18  1  1  0  0  0
  5  6  1  0  0  0  0
  5  4  1  0  0  0  0
  6  1  1  0  0  0  0
  6 20  1  1  0  0  0
  7  8  2  0  0  0  0
  7 12  1  0  0  0  0
  8  9  1  0  0  0  0
  9 14  1  0  0  0  0
  9 10  2  0  0  0  0
 11 10  1  0  0  0  0
 11 15  1  0  0  0  0
 12 11  2  0  0  0  0
 13  8  1  0  0  0  0
 17 16  1  0  0  0  0
 19 18  1  0  0  0  0
 21 20  1  0  0  0  0
M  END
>  <minimizedAffinity>
-4.66601753

$$$$

 OpenBabel03212520453D

 21 22  0  0  1  0  0  0  0  0999 V2000
   40.4520   71.4850   57.1310 C   0  0  2  0  0  3  0  0  0  0  0  0
   40.7370   72.8000   57.7840 C   0  0  1  0  0  3  0  0  0  0  0  0
   39.9230   73.7760   57.2720 O   0  0  0  0  0  0  0  0  0  0  0  0
   40.2600   74.0050   55.9400 C   0  0  0  0  0  2  0  0  0  0  0  0
   39.9690   72.7850   55.0790 C   0  0  1  0  0  3  0  0  0  0  0  0
   39.5650   71.6080   55.9080 C   0  0  2  0  0  3  0  0  0  0  0  0
   40.6540   72.6750   59.2560 C   0  0  0  0  0  0  0  0  0  0  0  0
   39.6230   73.3680   59.9190 C   0  0  0  0  0  0  0  0  0  0  0  0
   39.5330   73.2580   61.3100 C   0  0  0  0  0  0  0  0  0  0  0  0
   40.4570   72.4790   61.9550 N   0  0  0  0  0  0  0  0  0  0  0  0
   41.4320   71.8280   61.2830 C   0  0  0  0  0  0  0  0  0  0  0  0
   41.5280   71.9280   59.9500 N   0  0  0  0  0  0  0  0  0  0  0  0
   38.8840   73.9870   59.4260 H   0  0  0  0  0  0  0  0  0  0  0  0
   38.7820   73.7460   61.9210 H   0  0  0  0  0  0  0  0  0  0  0  0
   42.1620   71.2130   61.8030 H   0  0  0  0  0  0  0  0  0  0  0  0
   39.8030   70.5690   57.9680 O   0  0  0  0  0  0  0  0  0  0  0  0
   40.0630   69.6590   57.6790 H   0  0  0  0  0  0  0  0  0  0  0  0
   38.9440   73.0680   54.1830 O   0  0  0  0  0  0  0  0  0  0  0  0
   39.1910   72.6310   53.3070 H   0  0  0  0  0  0  0  0  0  0  0  0
   38.2130   71.5820   56.2350 O   0  0  0  0  0  0  0  0  0  0  0  0
   37.7600   70.7530   55.9350 H   0  0  0  0  0  0  0  0  0  0  0  0
  1  2  1  0  0  0  0
  1 16  1  1  0  0  0
  2  7  1  1  0  0  0
  3  2  1  0  0  0  0
  4  3  1  0  0  0  0
  5 18  1  6  0  0  0
  5  6  1  0  0  0  0
  5  4  1  0  0  0  0
  6 20  1  1  0  0  0
  6  1  1  0  0  0  0
  7  8  2  0  0  0  0
  7 12  1  0  0  0  0
  8  9  1  0  0  0  0
  9 14  1  0  0  0  0
  9 10  2  0  0  0  0
 11 15  1  0  0  0  0
 11 10  1  0  0  0  0
 12 11  2  0  0  0  0
 13  8  1  0  0  0  0
 17 16  1  0  0  0  0
 19 18  1  0  0  0  0
 21 20  1  0  0  0  0
M  END
>  <minimizedAffinity>
-4.60493708

$$$$

 OpenBabel03212520453D

 21 22  0  0  1  0  0  0  0  0999 V2000
   40.0060   75.6250   57.9390 C   0  0  2  0  0  3  0  0  0  0  0  0
   38.7580   74.8480   57.6630 C   0  0  1  0  0  3  0  0  0  0  0  0
   37.9740   74.7830   58.7860 O   0  0  0  0  0  0  0  0  0  0  0  0
   38.6180   74.0140   59.7520 C   0  0  0  0  0  2  0  0  0  0  0  0
   39.8990   74.6830   60.2280 C   0  0  1  0  0  3  0  0  0  0  0  0
   40.2230   75.8960   59.4150 C   0  0  2  0  0  3  0  0  0  0  0  0
   38.0560   75.4010   56.4840 C   0  0  0  0  0  0  0  0  0  0  0  0
   38.2390   74.7580   55.2460 C   0  0  0  0  0  0  0  0  0  0  0  0
   37.5800   75.2700   54.1230 C   0  0  0  0  0  0  0  0  0  0  0  0
   36.7890   76.3760   54.2910 N   0  0  0  0  0  0  0  0  0  0  0  0
   36.6380   76.9660   55.4970 C   0  0  0  0  0  0  0  0  0  0  0  0
   37.2650   76.4830   56.5790 N   0  0  0  0  0  0  0  0  0  0  0  0
   38.8600   73.8830   55.0940 H   0  0  0  0  0  0  0  0  0  0  0  0
   37.6490   74.8560   53.1240 H   0  0  0  0  0  0  0  0  0  0  0  0
   36.0090   77.8430   55.6210 H   0  0  0  0  0  0  0  0  0  0  0  0
   40.0340   76.8830   57.3250 O   0  0  0  0  0  0  0  0  0  0  0  0
   40.9810   77.1130   57.1510 H   0  0  0  0  0  0  0  0  0  0  0  0
   39.7720   75.0630   61.5590 O   0  0  0  0  0  0  0  0  0  0  0  0
   40.6560   74.8690   62.0060 H   0  0  0  0  0  0  0  0  0  0  0  0
   39.5750   77.0510   59.8380 O   0  0  0  0  0  0  0  0  0  0  0  0
   40.2020   77.7840   60.0640 H   0  0  0  0  0  0  0  0  0  0  0  0
  1 16  1  6  0  0  0
  1  6  1  0  0  0  0
  2  7  1  6  0  0  0
  2  1  1  0  0  0  0
  2  3  1  0  0  0  0
  3  4  1  0  0  0  0
  4  5  1  0  0  0  0
  5 18  1  1  0  0  0
  6 20  1  1  0  0  0
  6  5  1  0  0  0  0
  7 12  1  0  0  0  0
  8  7  2  0  0  0  0
  9 10  2  0  0  0  0
  9  8  1  0  0  0  0
 10 11  1  0  0  0  0
 11 15  1  0  0  0  0
 11 12  2  0  0  0  0
 13  8  1  0  0  0  0
 14  9  1  0  0  0  0
 17 16  1  0  0  0  0
 18 19  1  0  0  0  0
 20 21  1  0  0  0  0
M  END
>  <minimizedAffinity>
-4.55886889

$$$$
