
 OpenBabel03212520443D

 21 22  0  0  1  0  0  0  0  0999 V2000
   41.9140   80.1760   60.7270 C   0  0  2  0  0  3  0  0  0  0  0  0
   40.5980   80.3270   61.4210 C   0  0  1  0  0  3  0  0  0  0  0  0
   40.4690   79.3890   62.4140 O   0  0  0  0  0  0  0  0  0  0  0  0
   40.3800   78.1240   61.8400 C   0  0  0  0  0  2  0  0  0  0  0  0
   41.6720   77.7440   61.1330 C   0  0  1  0  0  3  0  0  0  0  0  0
   42.6310   78.8910   61.0870 C   0  0  2  0  0  3  0  0  0  0  0  0
   40.4220   81.7170   61.8970 C   0  0  0  0  0  0  0  0  0  0  0  0
   39.7620   82.6250   61.0480 C   0  0  0  0  0  0  0  0  0  0  0  0
   39.5890   83.9430   61.4860 C   0  0  0  0  0  0  0  0  0  0  0  0
   40.0730   84.2780   62.7220 N   0  0  0  0  0  0  0  0  0  0  0  0
   40.7010   83.3770   63.5090 C   0  0  0  0  0  0  0  0  0  0  0  0
   40.8730   82.1120   63.0990 N   0  0  0  0  0  0  0  0  0  0  0  0
   39.3720   82.3780   60.0680 H   0  0  0  0  0  0  0  0  0  0  0  0
   39.0970   84.7230   60.9170 H   0  0  0  0  0  0  0  0  0  0  0  0
   41.0830   83.6520   64.4880 H   0  0  0  0  0  0  0  0  0  0  0  0
   42.8230   81.2000   61.0140 O   0  0  0  0  0  0  0  0  0  0  0  0
   43.4200   81.3030   60.2310 H   0  0  0  0  0  0  0  0  0  0  0  0
   42.2810   76.6830   61.7930 O   0  0  0  0  0  0  0  0  0  0  0  0
   42.6530   76.0700   61.0820 H   0  0  0  0  0  0  0  0  0  0  0  0
   43.4090   79.0250   62.2340 O   0  0  0  0  0  0  0  0  0  0  0  0
   44.3820   78.9960   62.0450 H   0  0  0  0  0  0  0  0  0  0  0  0
  1 16  1  1  0  0  0
  1  6  1  0  0  0  0
  1  2  1  0  0  0  0
  2  7  1  1  0  0  0
  2  3  1  0  0  0  0
  4  3  1  0  0  0  0
  5 18  1  1  0  0  0
  5  4  1  0  0  0  0
  6  5  1  0  0  0  0
  6 20  1  1  0  0  0
  7 12  1  0  0  0  0
  8  9  1  0  0  0  0
  8  7  2  0  0  0  0
  9 10  2  0  0  0  0
 10 11  1  0  0  0  0
 11 15  1  0  0  0  0
 12 11  2  0  0  0  0
 13  8  1  0  0  0  0
 14  9  1  0  0  0  0
 17 16  1  0  0  0  0
 19 18  1  0  0  0  0
 21 20  1  0  0  0  0
M  END
>  <minimizedAffinity>
-4.4513216

>  <minimizedRMSD>
1.98817348

$$$$
