
 OpenBabel03212520443D

 21 22  0  0  1  0  0  0  0  0999 V2000
   42.0180   80.5880   60.7110 C   0  0  2  0  0  3  0  0  0  0  0  0
   40.6940   80.7560   60.0340 C   0  0  1  0  0  3  0  0  0  0  0  0
   39.8890   79.6730   60.2800 O   0  0  0  0  0  0  0  0  0  0  0  0
   40.4230   78.5520   59.6510 C   0  0  0  0  0  2  0  0  0  0  0  0
   41.7650   78.1660   60.2570 C   0  0  1  0  0  3  0  0  0  0  0  0
   42.2390   79.1850   61.2420 C   0  0  2  0  0  3  0  0  0  0  0  0
   40.0800   82.0470   60.4170 C   0  0  0  0  0  0  0  0  0  0  0  0
   40.1130   83.0960   59.4790 C   0  0  0  0  0  0  0  0  0  0  0  0
   39.5350   84.3210   59.8270 C   0  0  0  0  0  0  0  0  0  0  0  0
   38.9670   84.4340   61.0690 N   0  0  0  0  0  0  0  0  0  0  0  0
   38.9560   83.4030   61.9430 C   0  0  0  0  0  0  0  0  0  0  0  0
   39.5070   82.2250   61.6180 N   0  0  0  0  0  0  0  0  0  0  0  0
   40.5560   83.0250   58.4940 H   0  0  0  0  0  0  0  0  0  0  0  0
   39.5030   85.1930   59.1860 H   0  0  0  0  0  0  0  0  0  0  0  0
   38.5040   83.5020   62.9260 H   0  0  0  0  0  0  0  0  0  0  0  0
   42.2000   81.4330   61.8110 O   0  0  0  0  0  0  0  0  0  0  0  0
   43.1710   81.6100   61.8980 H   0  0  0  0  0  0  0  0  0  0  0  0
   41.6590   76.9390   60.9040 O   0  0  0  0  0  0  0  0  0  0  0  0
   42.5080   76.4290   60.7080 H   0  0  0  0  0  0  0  0  0  0  0  0
   41.7210   79.0200   62.5230 O   0  0  0  0  0  0  0  0  0  0  0  0
   42.4240   78.9170   63.2120 H   0  0  0  0  0  0  0  0  0  0  0  0
  1  6  1  0  0  0  0
  1 16  1  1  0  0  0
  2  3  1  0  0  0  0
  2  7  1  1  0  0  0
  2  1  1  0  0  0  0
  4  5  1  0  0  0  0
  4  3  1  0  0  0  0
  5 18  1  1  0  0  0
  5  6  1  0  0  0  0
  6 20  1  1  0  0  0
  7 12  1  0  0  0  0
  8  9  1  0  0  0  0
  8  7  2  0  0  0  0
  9 10  2  0  0  0  0
 10 11  1  0  0  0  0
 11 15  1  0  0  0  0
 12 11  2  0  0  0  0
 13  8  1  0  0  0  0
 14  9  1  0  0  0  0
 16 17  1  0  0  0  0
 19 18  1  0  0  0  0
 20 21  1  0  0  0  0
M  END
>  <minimizedAffinity>
-4.49503994

>  <minimizedRMSD>
0.912895739

$$$$
