
 OpenBabel03212520283D

 33 35  0  0  0  0  0  0  0  0999 V2000
   43.3460   85.1390   59.2760 C   0  0  0  0  0  0  0  0  0  0  0  0
   43.4800   84.5800   58.3080 H   0  0  0  0  0  0  0  0  0  0  0  0
   44.2880   85.6990   59.4500 H   0  0  0  0  0  0  0  0  0  0  0  0
   43.1260   82.3080   61.4240 C   0  0  0  0  0  0  0  0  0  0  0  0
   42.6470   83.2580   62.3340 C   0  0  0  0  0  0  0  0  0  0  0  0
   42.6980   84.4280   61.5640 C   0  0  0  0  0  0  0  0  0  0  0  0
   43.1670   84.1600   60.3220 N   0  0  0  0  0  0  0  0  0  0  0  0
   43.4180   82.8630   60.2670 N   0  0  0  0  0  0  0  0  0  0  0  0
   42.3150   83.1690   63.3600 H   0  0  0  0  0  0  0  0  0  0  0  0
   42.4010   85.4170   61.9190 H   0  0  0  0  0  0  0  0  0  0  0  0
   44.6260   79.0270   62.3870 C   0  0  0  0  0  0  0  0  0  0  0  0
   44.4980   80.3800   62.0890 C   0  0  0  0  0  0  0  0  0  0  0  0
   43.2720   80.9010   61.7370 C   0  0  0  0  0  0  0  0  0  0  0  0
   42.1970   80.0760   61.6880 N   0  0  0  0  0  0  0  0  0  0  0  0
   42.3730   78.7480   61.9920 C   0  0  0  0  0  0  0  0  0  0  0  0
   43.5570   78.2430   62.3300 N   0  0  0  0  0  0  0  0  0  0  0  0
   45.6280   78.7070   62.6530 H   0  0  0  0  0  0  0  0  0  0  0  0
   45.3590   81.0440   62.1270 H   0  0  0  0  0  0  0  0  0  0  0  0
   41.5070   78.0950   61.9500 H   0  0  0  0  0  0  0  0  0  0  0  0
   42.2720   85.9870   59.1760 O   0  0  0  0  0  0  0  0  0  0  0  0
   40.9350   86.3390   56.9670 O   0  0  0  0  0  0  0  0  0  0  0  0
   41.0180   85.4570   58.2120 P   0  0  2  0  0  0  0  0  0  0  0  0
   39.5770   85.6010   59.0450 O   0  0  0  0  0  0  0  0  0  0  0  0
   39.4480   86.5720   59.2870 H   0  0  0  0  0  0  0  0  0  0  0  0
   41.2250   83.8600   57.7410 O   0  0  0  0  0  0  0  0  0  0  0  0
   40.7000   82.7700   58.4220 C   0  0  0  0  0  0  0  0  0  0  0  0
   40.8310   81.5250   57.7960 C   0  0  0  0  0  0  0  0  0  0  0  0
   41.2630   81.1960   56.8680 H   0  0  0  0  0  0  0  0  0  0  0  0
   40.2420   80.5920   58.6460 C   0  0  0  0  0  0  0  0  0  0  0  0
   40.1120   79.5240   58.5770 H   0  0  0  0  0  0  0  0  0  0  0  0
   39.7890   81.2700   59.7220 N   0  0  0  0  0  0  0  0  0  0  0  0
   39.2820   81.0030   60.6150 H   0  0  0  0  0  0  0  0  0  0  0  0
   40.0600   82.5510   59.5850 N   0  0  0  0  0  0  0  0  0  0  0  0
  1  3  1  0  0  0  0
  1  7  1  0  0  0  0
  2  1  1  0  0  0  0
  4 13  1  0  0  0  0
  4  5  1  0  0  0  0
  5  9  1  0  0  0  0
  6 10  1  0  0  0  0
  6  5  2  0  0  0  0
  7  6  1  0  0  0  0
  8  7  1  0  0  0  0
  8  4  2  0  0  0  0
 11 17  1  0  0  0  0
 12 18  1  0  0  0  0
 12 11  2  0  0  0  0
 13 12  1  0  0  0  0
 14 13  2  0  0  0  0
 14 15  1  0  0  0  0
 15 16  2  0  0  0  0
 16 11  1  0  0  0  0
 19 15  1  0  0  0  0
 20  1  1  0  0  0  0
 22 21  2  6  0  0  0
 22 23  1  0  0  0  0
 22 20  1  0  0  0  0
 23 24  1  0  0  0  0
 25 22  1  0  0  0  0
 25 26  1  0  0  0  0
 26 33  2  0  0  0  0
 27 26  1  0  0  0  0
 27 29  2  0  0  0  0
 28 27  1  0  0  0  0
 29 31  1  0  0  0  0
 30 29  1  0  0  0  0
 31 32  1  0  0  0  0
 33 31  1  0  0  0  0
M  END
>  <minimizedAffinity>
-4.60315275

>  <minimizedRMSD>
4.94332504

$$$$
