
 OpenBabel03212520283D

 33 35  0  0  0  0  0  0  0  0999 V2000
   45.4490   85.6370   60.0900 C   0  0  0  0  0  0  0  0  0  0  0  0
   45.5270   85.0660   59.1230 H   0  0  0  0  0  0  0  0  0  0  0  0
   46.3910   85.4470   60.6450 H   0  0  0  0  0  0  0  0  0  0  0  0
   42.7340   83.8100   61.4910 C   0  0  0  0  0  0  0  0  0  0  0  0
   42.7080   84.8810   62.3910 C   0  0  0  0  0  0  0  0  0  0  0  0
   43.7630   85.6700   61.9110 C   0  0  0  0  0  0  0  0  0  0  0  0
   44.3360   85.0900   60.8290 N   0  0  0  0  0  0  0  0  0  0  0  0
   43.6880   83.9600   60.5980 N   0  0  0  0  0  0  0  0  0  0  0  0
   42.0720   85.0940   63.2400 H   0  0  0  0  0  0  0  0  0  0  0  0
   44.0770   86.6190   62.3500 H   0  0  0  0  0  0  0  0  0  0  0  0
   41.3170   80.4190   62.1600 C   0  0  0  0  0  0  0  0  0  0  0  0
   42.2070   81.4880   62.1060 C   0  0  0  0  0  0  0  0  0  0  0  0
   41.8170   82.6890   61.5540 C   0  0  0  0  0  0  0  0  0  0  0  0
   40.5560   82.8100   61.0680 N   0  0  0  0  0  0  0  0  0  0  0  0
   39.7150   81.7270   61.1450 C   0  0  0  0  0  0  0  0  0  0  0  0
   40.0910   80.5660   61.6770 N   0  0  0  0  0  0  0  0  0  0  0  0
   41.7120   79.5150   62.6110 H   0  0  0  0  0  0  0  0  0  0  0  0
   43.2190   81.3930   62.4950 H   0  0  0  0  0  0  0  0  0  0  0  0
   38.7090   81.8340   60.7530 H   0  0  0  0  0  0  0  0  0  0  0  0
   45.2840   86.9730   59.8250 O   0  0  0  0  0  0  0  0  0  0  0  0
   45.8520   87.8980   57.4570 O   0  0  0  0  0  0  0  0  0  0  0  0
   44.7080   87.3440   58.3040 P   0  0  2  0  0  0  0  0  0  0  0  0
   43.5360   88.5290   58.4280 O   0  0  0  0  0  0  0  0  0  0  0  0
   43.9530   89.3430   58.8550 H   0  0  0  0  0  0  0  0  0  0  0  0
   44.0570   86.0020   57.5390 O   0  0  0  0  0  0  0  0  0  0  0  0
   42.8090   85.4660   57.8280 C   0  0  0  0  0  0  0  0  0  0  0  0
   42.5380   84.2020   57.2940 C   0  0  0  0  0  0  0  0  0  0  0  0
   43.0920   83.5130   56.6820 H   0  0  0  0  0  0  0  0  0  0  0  0
   41.2500   83.8660   57.7060 C   0  0  0  0  0  0  0  0  0  0  0  0
   40.6330   82.9990   57.5370 H   0  0  0  0  0  0  0  0  0  0  0  0
   40.7940   84.8970   58.4510 N   0  0  0  0  0  0  0  0  0  0  0  0
   39.8920   85.1030   58.9700 H   0  0  0  0  0  0  0  0  0  0  0  0
   41.7150   85.8350   58.5200 N   0  0  0  0  0  0  0  0  0  0  0  0
  1  3  1  0  0  0  0
  1  7  1  0  0  0  0
  2  1  1  0  0  0  0
  4 13  1  0  0  0  0
  4  5  1  0  0  0  0
  5  9  1  0  0  0  0
  6 10  1  0  0  0  0
  6  5  2  0  0  0  0
  7  6  1  0  0  0  0
  8  7  1  0  0  0  0
  8  4  2  0  0  0  0
 11 17  1  0  0  0  0
 12 11  1  0  0  0  0
 12 18  1  0  0  0  0
 13 12  2  0  0  0  0
 14 15  2  0  0  0  0
 14 13  1  0  0  0  0
 15 16  1  0  0  0  0
 16 11  2  0  0  0  0
 19 15  1  0  0  0  0
 20  1  1  0  0  0  0
 22 21  2  6  0  0  0
 22 23  1  0  0  0  0
 22 20  1  0  0  0  0
 23 24  1  0  0  0  0
 25 26  1  0  0  0  0
 25 22  1  0  0  0  0
 26 33  2  0  0  0  0
 27 29  2  0  0  0  0
 27 26  1  0  0  0  0
 28 27  1  0  0  0  0
 29 31  1  0  0  0  0
 30 29  1  0  0  0  0
 31 33  1  0  0  0  0
 31 32  1  0  0  0  0
M  END
>  <minimizedAffinity>
-4.18133497

>  <minimizedRMSD>
2.45577645

$$$$
