
 OpenBabel03212520543D

 34 37  0  0  0  0  0  0  0  0999 V2000
   39.6880   77.1870   59.1450 C   0  0  0  0  0  0  0  0  0  0  0  0
   40.3530   76.0280   58.8850 C   0  0  0  0  0  0  0  0  0  0  0  0
   39.7920   75.3180   57.8100 C   0  0  0  0  0  0  0  0  0  0  0  0
   38.7150   75.7270   57.1050 N   0  0  0  0  0  0  0  0  0  0  0  0
   38.1280   76.8950   57.4440 C   0  0  0  0  0  0  0  0  0  0  0  0
   38.6160   77.6370   58.4740 N   0  0  0  0  0  0  0  0  0  0  0  0
   41.2080   75.6490   59.4040 H   0  0  0  0  0  0  0  0  0  0  0  0
   40.2150   74.3620   57.4780 H   0  0  0  0  0  0  0  0  0  0  0  0
   40.9500   80.1470   61.6550 C   0  0  0  0  0  0  0  0  0  0  0  0
   40.8900   78.9180   62.2850 C   0  0  0  0  0  0  0  0  0  0  0  0
   40.4860   77.8590   61.5570 C   0  0  0  0  0  0  0  0  0  0  0  0
   40.1480   78.0250   60.2220 C   0  0  0  0  0  0  0  0  0  0  0  0
   40.4190   79.8420   59.9470 S   0  0  0  0  0  0  0  0  0  0  0  0
   41.1540   78.7890   63.3280 H   0  0  0  0  0  0  0  0  0  0  0  0
   40.3730   76.8260   61.8580 H   0  0  0  0  0  0  0  0  0  0  0  0
   43.0750   82.9340   62.7340 C   0  0  0  0  0  0  0  0  0  0  0  0
   42.1870   83.7240   63.5290 C   0  0  0  0  0  0  0  0  0  0  0  0
   40.8710   83.2880   63.6820 C   0  0  0  0  0  0  0  0  0  0  0  0
   40.5240   82.1380   63.0630 N   0  0  0  0  0  0  0  0  0  0  0  0
   41.3760   81.4110   62.3200 C   0  0  0  0  0  0  0  0  0  0  0  0
   42.6290   81.8090   62.1630 N   0  0  0  0  0  0  0  0  0  0  0  0
   44.0790   83.2770   62.6230 H   0  0  0  0  0  0  0  0  0  0  0  0
   42.4880   84.6370   64.0130 H   0  0  0  0  0  0  0  0  0  0  0  0
   40.1280   83.8030   64.2540 H   0  0  0  0  0  0  0  0  0  0  0  0
   36.9750   77.3270   56.6850 C   0  0  0  0  0  0  0  0  0  0  0  0
   35.8330   77.1330   57.2010 O   0  0  0  0  0  0  0  0  0  0  0  0
   37.0490   77.9660   55.3760 C   0  0  0  0  0  0  0  0  0  0  0  0
   37.4760   79.2680   55.2110 C   0  0  0  0  0  0  0  0  0  0  0  0
   37.8110   80.0310   55.8820 H   0  0  0  0  0  0  0  0  0  0  0  0
   37.4180   79.5350   53.8530 C   0  0  0  0  0  0  0  0  0  0  0  0
   37.6290   80.3610   53.2040 H   0  0  0  0  0  0  0  0  0  0  0  0
   36.9620   78.3940   53.2580 N   0  0  0  0  0  0  0  0  0  0  0  0
   36.7750   78.1670   52.2650 H   0  0  0  0  0  0  0  0  0  0  0  0
   36.7430   77.4540   54.1850 N   0  0  0  0  0  0  0  0  0  0  0  0
  1 12  1  0  0  0  0
  2  1  1  0  0  0  0
  2  7  1  0  0  0  0
  3  2  2  0  0  0  0
  4  5  2  0  0  0  0
  4  3  1  0  0  0  0
  5  6  1  0  0  0  0
  6  1  2  0  0  0  0
  8  3  1  0  0  0  0
  9 10  2  0  0  0  0
  9 20  1  0  0  0  0
 10 14  1  0  0  0  0
 11 15  1  0  0  0  0
 11 10  1  0  0  0  0
 12 11  2  0  0  0  0
 13 12  1  0  0  0  0
 13  9  1  0  0  0  0
 16 17  1  0  0  0  0
 17 18  2  0  0  0  0
 17 23  1  0  0  0  0
 18 24  1  0  0  0  0
 19 18  1  0  0  0  0
 20 19  2  0  0  0  0
 21 20  1  0  0  0  0
 21 16  2  0  0  0  0
 22 16  1  0  0  0  0
 25 26  2  0  0  0  0
 25  5  1  0  0  0  0
 27 25  1  0  0  0  0
 28 27  1  0  0  0  0
 28 29  1  0  0  0  0
 30 28  2  0  0  0  0
 31 30  1  0  0  0  0
 32 30  1  0  0  0  0
 32 34  1  0  0  0  0
 33 32  1  0  0  0  0
 34 27  2  0  0  0  0
M  END
>  <minimizedAffinity>
-6.3300581

>  <minimizedRMSD>
0.353096664

$$$$
