
 OpenBabel03212520553D

 34 37  0  0  0  0  0  0  0  0999 V2000
   39.7090   77.1900   59.1520 C   0  0  0  0  0  0  0  0  0  0  0  0
   40.3820   76.0350   58.8960 C   0  0  0  0  0  0  0  0  0  0  0  0
   39.8290   75.3200   57.8190 C   0  0  0  0  0  0  0  0  0  0  0  0
   38.7530   75.7220   57.1090 N   0  0  0  0  0  0  0  0  0  0  0  0
   38.1580   76.8870   57.4450 C   0  0  0  0  0  0  0  0  0  0  0  0
   38.6370   77.6330   58.4760 N   0  0  0  0  0  0  0  0  0  0  0  0
   41.2370   75.6610   59.4190 H   0  0  0  0  0  0  0  0  0  0  0  0
   40.2590   74.3660   57.4900 H   0  0  0  0  0  0  0  0  0  0  0  0
   40.9480   80.1580   61.6630 C   0  0  0  0  0  0  0  0  0  0  0  0
   40.8840   78.9310   62.2960 C   0  0  0  0  0  0  0  0  0  0  0  0
   40.4880   77.8700   61.5680 C   0  0  0  0  0  0  0  0  0  0  0  0
   40.1590   78.0310   60.2300 C   0  0  0  0  0  0  0  0  0  0  0  0
   40.4300   79.8480   59.9520 S   0  0  0  0  0  0  0  0  0  0  0  0
   41.1410   78.8060   63.3410 H   0  0  0  0  0  0  0  0  0  0  0  0
   40.3740   76.8380   61.8710 H   0  0  0  0  0  0  0  0  0  0  0  0
   43.0580   82.9580   62.7390 C   0  0  0  0  0  0  0  0  0  0  0  0
   42.1660   83.7430   63.5350 C   0  0  0  0  0  0  0  0  0  0  0  0
   40.8530   83.2990   63.6910 C   0  0  0  0  0  0  0  0  0  0  0  0
   40.5120   82.1470   63.0720 N   0  0  0  0  0  0  0  0  0  0  0  0
   41.3680   81.4250   62.3270 C   0  0  0  0  0  0  0  0  0  0  0  0
   42.6180   81.8310   62.1680 N   0  0  0  0  0  0  0  0  0  0  0  0
   44.0600   83.3070   62.6270 H   0  0  0  0  0  0  0  0  0  0  0  0
   42.4620   84.6570   64.0190 H   0  0  0  0  0  0  0  0  0  0  0  0
   40.1080   83.8090   64.2640 H   0  0  0  0  0  0  0  0  0  0  0  0
   37.0050   77.3110   56.6810 C   0  0  0  0  0  0  0  0  0  0  0  0
   35.8610   77.0430   57.1560 O   0  0  0  0  0  0  0  0  0  0  0  0
   37.0830   78.0240   55.4100 C   0  0  0  0  0  0  0  0  0  0  0  0
   36.7520   77.4330   54.2080 C   0  0  0  0  0  0  0  0  0  0  0  0
   36.4080   76.4590   53.9290 H   0  0  0  0  0  0  0  0  0  0  0  0
   36.9430   78.3930   53.2270 C   0  0  0  0  0  0  0  0  0  0  0  0
   36.8390   78.4610   52.1640 H   0  0  0  0  0  0  0  0  0  0  0  0
   37.3780   79.5150   53.8710 N   0  0  0  0  0  0  0  0  0  0  0  0
   37.6350   80.4520   53.5160 H   0  0  0  0  0  0  0  0  0  0  0  0
   37.4580   79.2830   55.1870 N   0  0  0  0  0  0  0  0  0  0  0  0
  1 12  1  0  0  0  0
  2  1  1  0  0  0  0
  2  7  1  0  0  0  0
  3  2  2  0  0  0  0
  4  5  2  0  0  0  0
  4  3  1  0  0  0  0
  5  6  1  0  0  0  0
  6  1  2  0  0  0  0
  8  3  1  0  0  0  0
  9 10  2  0  0  0  0
  9 20  1  0  0  0  0
 10 14  1  0  0  0  0
 11 15  1  0  0  0  0
 11 10  1  0  0  0  0
 12 11  2  0  0  0  0
 13 12  1  0  0  0  0
 13  9  1  0  0  0  0
 16 17  1  0  0  0  0
 17 18  2  0  0  0  0
 17 23  1  0  0  0  0
 18 24  1  0  0  0  0
 19 18  1  0  0  0  0
 20 19  2  0  0  0  0
 21 20  1  0  0  0  0
 21 16  2  0  0  0  0
 22 16  1  0  0  0  0
 25 26  2  0  0  0  0
 25  5  1  0  0  0  0
 27 25  1  0  0  0  0
 28 27  1  0  0  0  0
 29 28  1  0  0  0  0
 30 32  1  0  0  0  0
 30 28  2  0  0  0  0
 31 30  1  0  0  0  0
 32 34  1  0  0  0  0
 33 32  1  0  0  0  0
 34 27  2  0  0  0  0
M  END
>  <minimizedAffinity>
-6.28168678

>  <minimizedRMSD>
0.402358979

$$$$
