
 OpenBabel03212520553D

 34 37  0  0  0  0  0  0  0  0999 V2000
   39.7080   77.1880   59.1510 C   0  0  0  0  0  0  0  0  0  0  0  0
   40.3800   76.0320   58.8960 C   0  0  0  0  0  0  0  0  0  0  0  0
   39.8260   75.3180   57.8190 C   0  0  0  0  0  0  0  0  0  0  0  0
   38.7500   75.7200   57.1090 N   0  0  0  0  0  0  0  0  0  0  0  0
   38.1560   76.8860   57.4450 C   0  0  0  0  0  0  0  0  0  0  0  0
   38.6360   77.6320   58.4750 N   0  0  0  0  0  0  0  0  0  0  0  0
   41.2340   75.6580   59.4180 H   0  0  0  0  0  0  0  0  0  0  0  0
   40.2550   74.3630   57.4900 H   0  0  0  0  0  0  0  0  0  0  0  0
   40.9490   80.1550   61.6620 C   0  0  0  0  0  0  0  0  0  0  0  0
   40.8850   78.9280   62.2950 C   0  0  0  0  0  0  0  0  0  0  0  0
   40.4880   77.8670   61.5670 C   0  0  0  0  0  0  0  0  0  0  0  0
   40.1590   78.0290   60.2290 C   0  0  0  0  0  0  0  0  0  0  0  0
   40.4310   79.8460   59.9510 S   0  0  0  0  0  0  0  0  0  0  0  0
   41.1420   78.8030   63.3400 H   0  0  0  0  0  0  0  0  0  0  0  0
   40.3730   76.8350   61.8700 H   0  0  0  0  0  0  0  0  0  0  0  0
   43.0610   82.9540   62.7390 C   0  0  0  0  0  0  0  0  0  0  0  0
   42.1690   83.7390   63.5340 C   0  0  0  0  0  0  0  0  0  0  0  0
   40.8560   83.2970   63.6890 C   0  0  0  0  0  0  0  0  0  0  0  0
   40.5140   82.1450   63.0700 N   0  0  0  0  0  0  0  0  0  0  0  0
   41.3690   81.4220   62.3260 C   0  0  0  0  0  0  0  0  0  0  0  0
   42.6200   81.8260   62.1680 N   0  0  0  0  0  0  0  0  0  0  0  0
   44.0630   83.3020   62.6270 H   0  0  0  0  0  0  0  0  0  0  0  0
   42.4660   84.6540   64.0180 H   0  0  0  0  0  0  0  0  0  0  0  0
   40.1110   83.8080   64.2610 H   0  0  0  0  0  0  0  0  0  0  0  0
   37.0040   77.3110   56.6810 C   0  0  0  0  0  0  0  0  0  0  0  0
   35.8600   77.0430   57.1560 O   0  0  0  0  0  0  0  0  0  0  0  0
   37.0820   78.0240   55.4100 C   0  0  0  0  0  0  0  0  0  0  0  0
   36.7520   77.4330   54.2080 C   0  0  0  0  0  0  0  0  0  0  0  0
   36.4100   76.4590   53.9270 H   0  0  0  0  0  0  0  0  0  0  0  0
   36.9440   78.3930   53.2270 C   0  0  0  0  0  0  0  0  0  0  0  0
   36.8410   78.4630   52.1640 H   0  0  0  0  0  0  0  0  0  0  0  0
   37.3770   79.5170   53.8710 N   0  0  0  0  0  0  0  0  0  0  0  0
   37.6340   80.4540   53.5160 H   0  0  0  0  0  0  0  0  0  0  0  0
   37.4570   79.2820   55.1880 N   0  0  0  0  0  0  0  0  0  0  0  0
  1 12  1  0  0  0  0
  2  1  1  0  0  0  0
  2  7  1  0  0  0  0
  3  2  2  0  0  0  0
  4  5  2  0  0  0  0
  4  3  1  0  0  0  0
  5  6  1  0  0  0  0
  6  1  2  0  0  0  0
  8  3  1  0  0  0  0
  9 10  2  0  0  0  0
  9 20  1  0  0  0  0
 10 14  1  0  0  0  0
 11 15  1  0  0  0  0
 11 10  1  0  0  0  0
 12 11  2  0  0  0  0
 13 12  1  0  0  0  0
 13  9  1  0  0  0  0
 16 17  1  0  0  0  0
 17 18  2  0  0  0  0
 17 23  1  0  0  0  0
 18 24  1  0  0  0  0
 19 18  1  0  0  0  0
 20 19  2  0  0  0  0
 21 20  1  0  0  0  0
 21 16  2  0  0  0  0
 22 16  1  0  0  0  0
 25 26  2  0  0  0  0
 25  5  1  0  0  0  0
 27 25  1  0  0  0  0
 28 27  1  0  0  0  0
 29 28  1  0  0  0  0
 30 32  1  0  0  0  0
 30 28  2  0  0  0  0
 31 30  1  0  0  0  0
 32 34  1  0  0  0  0
 33 32  1  0  0  0  0
 34 27  2  0  0  0  0
M  END
>  <minimizedAffinity>
-6.2815423

>  <minimizedRMSD>
0.533132851

$$$$
