
 OpenBabel03212520553D

 34 37  0  0  0  0  0  0  0  0999 V2000
   39.6930   77.1910   59.0650 C   0  0  0  0  0  0  0  0  0  0  0  0
   40.4140   76.0790   58.7520 C   0  0  0  0  0  0  0  0  0  0  0  0
   39.8610   75.3690   57.6720 C   0  0  0  0  0  0  0  0  0  0  0  0
   38.7430   75.7370   57.0100 N   0  0  0  0  0  0  0  0  0  0  0  0
   38.1020   76.8590   57.4010 C   0  0  0  0  0  0  0  0  0  0  0  0
   38.5780   77.5980   58.4380 N   0  0  0  0  0  0  0  0  0  0  0  0
   41.3030   75.7340   59.2350 H   0  0  0  0  0  0  0  0  0  0  0  0
   40.3270   74.4480   57.3000 H   0  0  0  0  0  0  0  0  0  0  0  0
   40.9340   80.1320   61.6080 C   0  0  0  0  0  0  0  0  0  0  0  0
   40.8390   78.9040   62.2350 C   0  0  0  0  0  0  0  0  0  0  0  0
   40.4390   77.8510   61.4970 C   0  0  0  0  0  0  0  0  0  0  0  0
   40.1370   78.0220   60.1540 C   0  0  0  0  0  0  0  0  0  0  0  0
   40.4420   79.8350   59.8860 S   0  0  0  0  0  0  0  0  0  0  0  0
   41.0750   78.7720   63.2850 H   0  0  0  0  0  0  0  0  0  0  0  0
   40.3030   76.8200   61.7950 H   0  0  0  0  0  0  0  0  0  0  0  0
   43.0640   82.9040   62.7160 C   0  0  0  0  0  0  0  0  0  0  0  0
   42.1740   83.6920   63.5120 C   0  0  0  0  0  0  0  0  0  0  0  0
   40.8560   83.2590   63.6560 C   0  0  0  0  0  0  0  0  0  0  0  0
   40.5080   82.1150   63.0270 N   0  0  0  0  0  0  0  0  0  0  0  0
   41.3610   81.3900   62.2830 C   0  0  0  0  0  0  0  0  0  0  0  0
   42.6160   81.7850   62.1350 N   0  0  0  0  0  0  0  0  0  0  0  0
   44.0690   83.2440   62.6130 H   0  0  0  0  0  0  0  0  0  0  0  0
   42.4760   84.6000   64.0040 H   0  0  0  0  0  0  0  0  0  0  0  0
   40.1120   83.7730   64.2280 H   0  0  0  0  0  0  0  0  0  0  0  0
   36.9050   77.2470   56.6880 C   0  0  0  0  0  0  0  0  0  0  0  0
   35.7960   77.0790   57.2790 O   0  0  0  0  0  0  0  0  0  0  0  0
   36.9000   77.8150   55.3430 C   0  0  0  0  0  0  0  0  0  0  0  0
   37.4280   79.0600   55.0630 C   0  0  0  0  0  0  0  0  0  0  0  0
   37.9020   79.8150   55.6530 H   0  0  0  0  0  0  0  0  0  0  0  0
   37.2520   79.2680   53.7050 C   0  0  0  0  0  0  0  0  0  0  0  0
   37.4700   80.0380   52.9940 H   0  0  0  0  0  0  0  0  0  0  0  0
   36.6300   78.1510   53.2240 N   0  0  0  0  0  0  0  0  0  0  0  0
   36.3180   77.8980   52.2700 H   0  0  0  0  0  0  0  0  0  0  0  0
   36.4230   77.2810   54.2200 N   0  0  0  0  0  0  0  0  0  0  0  0
  1 12  1  0  0  0  0
  2  1  1  0  0  0  0
  2  7  1  0  0  0  0
  3  2  2  0  0  0  0
  4  5  2  0  0  0  0
  4  3  1  0  0  0  0
  5  6  1  0  0  0  0
  6  1  2  0  0  0  0
  8  3  1  0  0  0  0
  9 10  2  0  0  0  0
  9 20  1  0  0  0  0
 10 14  1  0  0  0  0
 11 15  1  0  0  0  0
 11 10  1  0  0  0  0
 12 11  2  0  0  0  0
 13 12  1  0  0  0  0
 13  9  1  0  0  0  0
 16 17  1  0  0  0  0
 17 18  2  0  0  0  0
 17 23  1  0  0  0  0
 18 24  1  0  0  0  0
 19 18  1  0  0  0  0
 20 19  2  0  0  0  0
 21 20  1  0  0  0  0
 21 16  2  0  0  0  0
 22 16  1  0  0  0  0
 25 26  2  0  0  0  0
 25  5  1  0  0  0  0
 27 25  1  0  0  0  0
 28 27  1  0  0  0  0
 28 29  1  0  0  0  0
 30 28  2  0  0  0  0
 31 30  1  0  0  0  0
 32 30  1  0  0  0  0
 32 34  1  0  0  0  0
 33 32  1  0  0  0  0
 34 27  2  0  0  0  0
M  END
>  <minimizedAffinity>
-6.43480492

>  <minimizedRMSD>
0.455217302

$$$$
