
 OpenBabel03212520543D

 34 37  0  0  0  0  0  0  0  0999 V2000
   39.6970   77.1850   59.0630 C   0  0  0  0  0  0  0  0  0  0  0  0
   40.4130   76.0710   58.7500 C   0  0  0  0  0  0  0  0  0  0  0  0
   39.8570   75.3620   57.6710 C   0  0  0  0  0  0  0  0  0  0  0  0
   38.7390   75.7320   57.0110 N   0  0  0  0  0  0  0  0  0  0  0  0
   38.1020   76.8570   57.4010 C   0  0  0  0  0  0  0  0  0  0  0  0
   38.5820   77.5950   58.4380 N   0  0  0  0  0  0  0  0  0  0  0  0
   41.3030   75.7230   59.2320 H   0  0  0  0  0  0  0  0  0  0  0  0
   40.3190   74.4390   57.2990 H   0  0  0  0  0  0  0  0  0  0  0  0
   40.9410   80.1260   61.6040 C   0  0  0  0  0  0  0  0  0  0  0  0
   40.8600   78.8950   62.2290 C   0  0  0  0  0  0  0  0  0  0  0  0
   40.4600   77.8420   61.4910 C   0  0  0  0  0  0  0  0  0  0  0  0
   40.1450   78.0150   60.1510 C   0  0  0  0  0  0  0  0  0  0  0  0
   40.4360   79.8310   59.8860 S   0  0  0  0  0  0  0  0  0  0  0  0
   41.1050   78.7620   63.2750 H   0  0  0  0  0  0  0  0  0  0  0  0
   40.3330   76.8100   61.7860 H   0  0  0  0  0  0  0  0  0  0  0  0
   43.0670   82.9000   62.7140 C   0  0  0  0  0  0  0  0  0  0  0  0
   42.1750   83.6870   63.5090 C   0  0  0  0  0  0  0  0  0  0  0  0
   40.8570   83.2530   63.6520 C   0  0  0  0  0  0  0  0  0  0  0  0
   40.5110   82.1090   63.0230 N   0  0  0  0  0  0  0  0  0  0  0  0
   41.3660   81.3840   62.2790 C   0  0  0  0  0  0  0  0  0  0  0  0
   42.6210   81.7800   62.1330 N   0  0  0  0  0  0  0  0  0  0  0  0
   44.0720   83.2410   62.6120 H   0  0  0  0  0  0  0  0  0  0  0  0
   42.4750   84.5960   64.0010 H   0  0  0  0  0  0  0  0  0  0  0  0
   40.1120   83.7670   64.2230 H   0  0  0  0  0  0  0  0  0  0  0  0
   36.9060   77.2480   56.6900 C   0  0  0  0  0  0  0  0  0  0  0  0
   35.7970   77.0840   57.2820 O   0  0  0  0  0  0  0  0  0  0  0  0
   36.9010   77.8160   55.3450 C   0  0  0  0  0  0  0  0  0  0  0  0
   37.4280   79.0590   55.0650 C   0  0  0  0  0  0  0  0  0  0  0  0
   37.9020   79.8160   55.6550 H   0  0  0  0  0  0  0  0  0  0  0  0
   37.2530   79.2680   53.7070 C   0  0  0  0  0  0  0  0  0  0  0  0
   37.4700   80.0370   52.9950 H   0  0  0  0  0  0  0  0  0  0  0  0
   36.6310   78.1510   53.2260 N   0  0  0  0  0  0  0  0  0  0  0  0
   36.3200   77.8980   52.2710 H   0  0  0  0  0  0  0  0  0  0  0  0
   36.4240   77.2810   54.2230 N   0  0  0  0  0  0  0  0  0  0  0  0
  1 12  1  0  0  0  0
  2  1  1  0  0  0  0
  2  7  1  0  0  0  0
  3  2  2  0  0  0  0
  4  5  2  0  0  0  0
  4  3  1  0  0  0  0
  5  6  1  0  0  0  0
  6  1  2  0  0  0  0
  8  3  1  0  0  0  0
  9 10  2  0  0  0  0
  9 20  1  0  0  0  0
 10 14  1  0  0  0  0
 11 15  1  0  0  0  0
 11 10  1  0  0  0  0
 12 11  2  0  0  0  0
 13 12  1  0  0  0  0
 13  9  1  0  0  0  0
 16 17  1  0  0  0  0
 17 18  2  0  0  0  0
 17 23  1  0  0  0  0
 18 24  1  0  0  0  0
 19 18  1  0  0  0  0
 20 19  2  0  0  0  0
 21 20  1  0  0  0  0
 21 16  2  0  0  0  0
 22 16  1  0  0  0  0
 25 26  2  0  0  0  0
 25  5  1  0  0  0  0
 27 25  1  0  0  0  0
 28 27  1  0  0  0  0
 28 29  1  0  0  0  0
 30 28  2  0  0  0  0
 31 30  1  0  0  0  0
 32 30  1  0  0  0  0
 32 34  1  0  0  0  0
 33 32  1  0  0  0  0
 34 27  2  0  0  0  0
M  END
>  <minimizedAffinity>
-6.43067455

>  <minimizedRMSD>
0.688965797

$$$$
