
 OpenBabel03212520543D

 34 37  0  0  0  0  0  0  0  0999 V2000
   39.7060   77.1840   59.1520 C   0  0  0  0  0  0  0  0  0  0  0  0
   40.3750   76.0260   58.8980 C   0  0  0  0  0  0  0  0  0  0  0  0
   39.8200   75.3120   57.8210 C   0  0  0  0  0  0  0  0  0  0  0  0
   38.7450   75.7170   57.1110 N   0  0  0  0  0  0  0  0  0  0  0  0
   38.1530   76.8840   57.4450 C   0  0  0  0  0  0  0  0  0  0  0  0
   38.6350   77.6290   58.4750 N   0  0  0  0  0  0  0  0  0  0  0  0
   41.2290   75.6500   59.4210 H   0  0  0  0  0  0  0  0  0  0  0  0
   40.2470   74.3560   57.4940 H   0  0  0  0  0  0  0  0  0  0  0  0
   40.9500   80.1520   61.6610 C   0  0  0  0  0  0  0  0  0  0  0  0
   40.8880   78.9240   62.2930 C   0  0  0  0  0  0  0  0  0  0  0  0
   40.4910   77.8630   61.5660 C   0  0  0  0  0  0  0  0  0  0  0  0
   40.1580   78.0250   60.2300 C   0  0  0  0  0  0  0  0  0  0  0  0
   40.4280   79.8420   59.9510 S   0  0  0  0  0  0  0  0  0  0  0  0
   41.1480   78.7990   63.3380 H   0  0  0  0  0  0  0  0  0  0  0  0
   40.3780   76.8310   61.8690 H   0  0  0  0  0  0  0  0  0  0  0  0
   43.0630   82.9500   62.7370 C   0  0  0  0  0  0  0  0  0  0  0  0
   42.1710   83.7360   63.5320 C   0  0  0  0  0  0  0  0  0  0  0  0
   40.8570   83.2940   63.6860 C   0  0  0  0  0  0  0  0  0  0  0  0
   40.5150   82.1420   63.0670 N   0  0  0  0  0  0  0  0  0  0  0  0
   41.3710   81.4180   62.3240 C   0  0  0  0  0  0  0  0  0  0  0  0
   42.6210   81.8220   62.1670 N   0  0  0  0  0  0  0  0  0  0  0  0
   44.0650   83.2970   62.6260 H   0  0  0  0  0  0  0  0  0  0  0  0
   42.4680   84.6510   64.0150 H   0  0  0  0  0  0  0  0  0  0  0  0
   40.1120   83.8070   64.2570 H   0  0  0  0  0  0  0  0  0  0  0  0
   37.0020   77.3110   56.6810 C   0  0  0  0  0  0  0  0  0  0  0  0
   35.8570   77.0450   57.1560 O   0  0  0  0  0  0  0  0  0  0  0  0
   37.0820   78.0230   55.4090 C   0  0  0  0  0  0  0  0  0  0  0  0
   36.7530   77.4320   54.2070 C   0  0  0  0  0  0  0  0  0  0  0  0
   36.4090   76.4590   53.9280 H   0  0  0  0  0  0  0  0  0  0  0  0
   36.9460   78.3920   53.2270 C   0  0  0  0  0  0  0  0  0  0  0  0
   36.8440   78.4600   52.1630 H   0  0  0  0  0  0  0  0  0  0  0  0
   37.3800   79.5140   53.8710 N   0  0  0  0  0  0  0  0  0  0  0  0
   37.6390   80.4510   53.5150 H   0  0  0  0  0  0  0  0  0  0  0  0
   37.4590   79.2810   55.1880 N   0  0  0  0  0  0  0  0  0  0  0  0
  1 12  1  0  0  0  0
  2  1  1  0  0  0  0
  2  7  1  0  0  0  0
  3  2  2  0  0  0  0
  4  5  2  0  0  0  0
  4  3  1  0  0  0  0
  5  6  1  0  0  0  0
  6  1  2  0  0  0  0
  8  3  1  0  0  0  0
  9 10  2  0  0  0  0
  9 20  1  0  0  0  0
 10 14  1  0  0  0  0
 11 15  1  0  0  0  0
 11 10  1  0  0  0  0
 12 11  2  0  0  0  0
 13 12  1  0  0  0  0
 13  9  1  0  0  0  0
 16 17  1  0  0  0  0
 17 18  2  0  0  0  0
 17 23  1  0  0  0  0
 18 24  1  0  0  0  0
 19 18  1  0  0  0  0
 20 19  2  0  0  0  0
 21 20  1  0  0  0  0
 21 16  2  0  0  0  0
 22 16  1  0  0  0  0
 25 26  2  0  0  0  0
 25  5  1  0  0  0  0
 27 25  1  0  0  0  0
 28 27  1  0  0  0  0
 29 28  1  0  0  0  0
 30 32  1  0  0  0  0
 30 28  2  0  0  0  0
 31 30  1  0  0  0  0
 32 34  1  0  0  0  0
 33 32  1  0  0  0  0
 34 27  2  0  0  0  0
M  END
>  <minimizedAffinity>
-6.28129911

>  <minimizedRMSD>
0.40283972

$$$$
