
 OpenBabel03212520543D

 34 37  0  0  0  0  0  0  0  0999 V2000
   39.6940   77.1830   59.1570 C   0  0  0  0  0  0  0  0  0  0  0  0
   40.3550   76.0200   58.9060 C   0  0  0  0  0  0  0  0  0  0  0  0
   39.7970   75.3080   57.8310 C   0  0  0  0  0  0  0  0  0  0  0  0
   38.7250   75.7180   57.1180 N   0  0  0  0  0  0  0  0  0  0  0  0
   38.1410   76.8900   57.4490 C   0  0  0  0  0  0  0  0  0  0  0  0
   38.6270   77.6350   58.4780 N   0  0  0  0  0  0  0  0  0  0  0  0
   41.2060   75.6390   59.4310 H   0  0  0  0  0  0  0  0  0  0  0  0
   40.2170   74.3480   57.5050 H   0  0  0  0  0  0  0  0  0  0  0  0
   40.9510   80.1480   61.6630 C   0  0  0  0  0  0  0  0  0  0  0  0
   40.8900   78.9210   62.2950 C   0  0  0  0  0  0  0  0  0  0  0  0
   40.4880   77.8600   61.5690 C   0  0  0  0  0  0  0  0  0  0  0  0
   40.1520   78.0230   60.2330 C   0  0  0  0  0  0  0  0  0  0  0  0
   40.4230   79.8400   59.9540 S   0  0  0  0  0  0  0  0  0  0  0  0
   41.1520   78.7950   63.3390 H   0  0  0  0  0  0  0  0  0  0  0  0
   40.3750   76.8290   61.8720 H   0  0  0  0  0  0  0  0  0  0  0  0
   43.0730   82.9410   62.7350 C   0  0  0  0  0  0  0  0  0  0  0  0
   42.1840   83.7310   63.5300 C   0  0  0  0  0  0  0  0  0  0  0  0
   40.8690   83.2920   63.6850 C   0  0  0  0  0  0  0  0  0  0  0  0
   40.5230   82.1410   63.0680 N   0  0  0  0  0  0  0  0  0  0  0  0
   41.3760   81.4140   62.3250 C   0  0  0  0  0  0  0  0  0  0  0  0
   42.6280   81.8150   62.1660 N   0  0  0  0  0  0  0  0  0  0  0  0
   44.0760   83.2860   62.6230 H   0  0  0  0  0  0  0  0  0  0  0  0
   42.4830   84.6450   64.0120 H   0  0  0  0  0  0  0  0  0  0  0  0
   40.1260   83.8070   64.2570 H   0  0  0  0  0  0  0  0  0  0  0  0
   36.9940   77.3240   56.6830 C   0  0  0  0  0  0  0  0  0  0  0  0
   35.8470   77.0710   57.1590 O   0  0  0  0  0  0  0  0  0  0  0  0
   37.0810   78.0280   55.4070 C   0  0  0  0  0  0  0  0  0  0  0  0
   36.7510   77.4310   54.2080 C   0  0  0  0  0  0  0  0  0  0  0  0
   36.4030   76.4570   53.9330 H   0  0  0  0  0  0  0  0  0  0  0  0
   36.9510   78.3830   53.2220 C   0  0  0  0  0  0  0  0  0  0  0  0
   36.8510   78.4450   52.1590 H   0  0  0  0  0  0  0  0  0  0  0  0
   37.3890   79.5080   53.8600 N   0  0  0  0  0  0  0  0  0  0  0  0
   37.6530   80.4410   53.5000 H   0  0  0  0  0  0  0  0  0  0  0  0
   37.4640   79.2830   55.1790 N   0  0  0  0  0  0  0  0  0  0  0  0
  1 12  1  0  0  0  0
  2  1  1  0  0  0  0
  2  7  1  0  0  0  0
  3  2  2  0  0  0  0
  4  5  2  0  0  0  0
  4  3  1  0  0  0  0
  5  6  1  0  0  0  0
  6  1  2  0  0  0  0
  8  3  1  0  0  0  0
  9 10  2  0  0  0  0
  9 20  1  0  0  0  0
 10 14  1  0  0  0  0
 11 15  1  0  0  0  0
 11 10  1  0  0  0  0
 12 11  2  0  0  0  0
 13 12  1  0  0  0  0
 13  9  1  0  0  0  0
 16 17  1  0  0  0  0
 17 18  2  0  0  0  0
 17 23  1  0  0  0  0
 18 24  1  0  0  0  0
 19 18  1  0  0  0  0
 20 19  2  0  0  0  0
 21 20  1  0  0  0  0
 21 16  2  0  0  0  0
 22 16  1  0  0  0  0
 25 26  2  0  0  0  0
 25  5  1  0  0  0  0
 27 25  1  0  0  0  0
 28 27  1  0  0  0  0
 29 28  1  0  0  0  0
 30 32  1  0  0  0  0
 30 28  2  0  0  0  0
 31 30  1  0  0  0  0
 32 34  1  0  0  0  0
 33 32  1  0  0  0  0
 34 27  2  0  0  0  0
M  END
>  <minimizedAffinity>
-6.28577375

>  <minimizedRMSD>
0.433458

$$$$
