
 OpenBabel03212520553D

 34 37  0  0  0  0  0  0  0  0999 V2000
   39.6970   77.1840   59.0620 C   0  0  0  0  0  0  0  0  0  0  0  0
   40.4120   76.0690   58.7500 C   0  0  0  0  0  0  0  0  0  0  0  0
   39.8550   75.3600   57.6710 C   0  0  0  0  0  0  0  0  0  0  0  0
   38.7380   75.7310   57.0100 N   0  0  0  0  0  0  0  0  0  0  0  0
   38.1020   76.8570   57.4010 C   0  0  0  0  0  0  0  0  0  0  0  0
   38.5820   77.5950   58.4370 N   0  0  0  0  0  0  0  0  0  0  0  0
   41.3010   75.7210   59.2310 H   0  0  0  0  0  0  0  0  0  0  0  0
   40.3170   74.4370   57.2990 H   0  0  0  0  0  0  0  0  0  0  0  0
   40.9410   80.1250   61.6030 C   0  0  0  0  0  0  0  0  0  0  0  0
   40.8620   78.8940   62.2270 C   0  0  0  0  0  0  0  0  0  0  0  0
   40.4620   77.8410   61.4890 C   0  0  0  0  0  0  0  0  0  0  0  0
   40.1450   78.0140   60.1500 C   0  0  0  0  0  0  0  0  0  0  0  0
   40.4350   79.8300   59.8850 S   0  0  0  0  0  0  0  0  0  0  0  0
   41.1090   78.7600   63.2740 H   0  0  0  0  0  0  0  0  0  0  0  0
   40.3360   76.8080   61.7850 H   0  0  0  0  0  0  0  0  0  0  0  0
   43.0670   82.8990   62.7140 C   0  0  0  0  0  0  0  0  0  0  0  0
   42.1750   83.6860   63.5080 C   0  0  0  0  0  0  0  0  0  0  0  0
   40.8570   83.2530   63.6500 C   0  0  0  0  0  0  0  0  0  0  0  0
   40.5110   82.1080   63.0210 N   0  0  0  0  0  0  0  0  0  0  0  0
   41.3660   81.3830   62.2790 C   0  0  0  0  0  0  0  0  0  0  0  0
   42.6210   81.7790   62.1320 N   0  0  0  0  0  0  0  0  0  0  0  0
   44.0720   83.2400   62.6120 H   0  0  0  0  0  0  0  0  0  0  0  0
   42.4750   84.5950   64.0010 H   0  0  0  0  0  0  0  0  0  0  0  0
   40.1120   83.7660   64.2210 H   0  0  0  0  0  0  0  0  0  0  0  0
   36.9050   77.2490   56.6890 C   0  0  0  0  0  0  0  0  0  0  0  0
   35.7960   77.0850   57.2820 O   0  0  0  0  0  0  0  0  0  0  0  0
   36.9000   77.8160   55.3450 C   0  0  0  0  0  0  0  0  0  0  0  0
   37.4280   79.0600   55.0640 C   0  0  0  0  0  0  0  0  0  0  0  0
   37.9020   79.8160   55.6530 H   0  0  0  0  0  0  0  0  0  0  0  0
   37.2520   79.2680   53.7050 C   0  0  0  0  0  0  0  0  0  0  0  0
   37.4700   80.0370   52.9940 H   0  0  0  0  0  0  0  0  0  0  0  0
   36.6310   78.1510   53.2250 N   0  0  0  0  0  0  0  0  0  0  0  0
   36.3190   77.8970   52.2710 H   0  0  0  0  0  0  0  0  0  0  0  0
   36.4230   77.2810   54.2220 N   0  0  0  0  0  0  0  0  0  0  0  0
  1 12  1  0  0  0  0
  2  1  1  0  0  0  0
  2  7  1  0  0  0  0
  3  2  2  0  0  0  0
  4  5  2  0  0  0  0
  4  3  1  0  0  0  0
  5  6  1  0  0  0  0
  6  1  2  0  0  0  0
  8  3  1  0  0  0  0
  9 10  2  0  0  0  0
  9 20  1  0  0  0  0
 10 14  1  0  0  0  0
 11 15  1  0  0  0  0
 11 10  1  0  0  0  0
 12 11  2  0  0  0  0
 13 12  1  0  0  0  0
 13  9  1  0  0  0  0
 16 17  1  0  0  0  0
 17 18  2  0  0  0  0
 17 23  1  0  0  0  0
 18 24  1  0  0  0  0
 19 18  1  0  0  0  0
 20 19  2  0  0  0  0
 21 20  1  0  0  0  0
 21 16  2  0  0  0  0
 22 16  1  0  0  0  0
 25 26  2  0  0  0  0
 25  5  1  0  0  0  0
 27 25  1  0  0  0  0
 28 27  1  0  0  0  0
 28 29  1  0  0  0  0
 30 28  2  0  0  0  0
 31 30  1  0  0  0  0
 32 30  1  0  0  0  0
 32 34  1  0  0  0  0
 33 32  1  0  0  0  0
 34 27  2  0  0  0  0
M  END
>  <minimizedAffinity>
-6.42800617

>  <minimizedRMSD>
0.508819401

$$$$
