
 OpenBabel03212520543D

 34 37  0  0  0  0  0  0  0  0999 V2000
   39.7100   77.1940   59.1530 C   0  0  0  0  0  0  0  0  0  0  0  0
   40.3850   76.0410   58.8970 C   0  0  0  0  0  0  0  0  0  0  0  0
   39.8340   75.3250   57.8200 C   0  0  0  0  0  0  0  0  0  0  0  0
   38.7570   75.7260   57.1100 N   0  0  0  0  0  0  0  0  0  0  0  0
   38.1600   76.8890   57.4460 C   0  0  0  0  0  0  0  0  0  0  0  0
   38.6370   77.6360   58.4770 N   0  0  0  0  0  0  0  0  0  0  0  0
   41.2410   75.6680   59.4200 H   0  0  0  0  0  0  0  0  0  0  0  0
   40.2660   74.3720   57.4900 H   0  0  0  0  0  0  0  0  0  0  0  0
   40.9460   80.1630   61.6660 C   0  0  0  0  0  0  0  0  0  0  0  0
   40.8800   78.9360   62.2990 C   0  0  0  0  0  0  0  0  0  0  0  0
   40.4840   77.8750   61.5710 C   0  0  0  0  0  0  0  0  0  0  0  0
   40.1590   78.0360   60.2320 C   0  0  0  0  0  0  0  0  0  0  0  0
   40.4330   79.8520   59.9530 S   0  0  0  0  0  0  0  0  0  0  0  0
   41.1330   78.8120   63.3450 H   0  0  0  0  0  0  0  0  0  0  0  0
   40.3680   76.8430   61.8750 H   0  0  0  0  0  0  0  0  0  0  0  0
   43.0550   82.9640   62.7410 C   0  0  0  0  0  0  0  0  0  0  0  0
   42.1640   83.7470   63.5380 C   0  0  0  0  0  0  0  0  0  0  0  0
   40.8510   83.3020   63.6950 C   0  0  0  0  0  0  0  0  0  0  0  0
   40.5100   82.1510   63.0760 N   0  0  0  0  0  0  0  0  0  0  0  0
   41.3660   81.4300   62.3300 C   0  0  0  0  0  0  0  0  0  0  0  0
   42.6150   81.8360   62.1700 N   0  0  0  0  0  0  0  0  0  0  0  0
   44.0570   83.3140   62.6280 H   0  0  0  0  0  0  0  0  0  0  0  0
   42.4590   84.6620   64.0230 H   0  0  0  0  0  0  0  0  0  0  0  0
   40.1060   83.8120   64.2690 H   0  0  0  0  0  0  0  0  0  0  0  0
   37.0070   77.3120   56.6820 C   0  0  0  0  0  0  0  0  0  0  0  0
   35.8630   77.0420   57.1580 O   0  0  0  0  0  0  0  0  0  0  0  0
   37.0830   78.0250   55.4110 C   0  0  0  0  0  0  0  0  0  0  0  0
   36.7530   77.4320   54.2090 C   0  0  0  0  0  0  0  0  0  0  0  0
   36.4100   76.4580   53.9300 H   0  0  0  0  0  0  0  0  0  0  0  0
   36.9430   78.3920   53.2280 C   0  0  0  0  0  0  0  0  0  0  0  0
   36.8390   78.4610   52.1650 H   0  0  0  0  0  0  0  0  0  0  0  0
   37.3760   79.5160   53.8710 N   0  0  0  0  0  0  0  0  0  0  0  0
   37.6320   80.4540   53.5160 H   0  0  0  0  0  0  0  0  0  0  0  0
   37.4570   79.2830   55.1880 N   0  0  0  0  0  0  0  0  0  0  0  0
  1 12  1  0  0  0  0
  2  1  1  0  0  0  0
  2  7  1  0  0  0  0
  3  2  2  0  0  0  0
  4  5  2  0  0  0  0
  4  3  1  0  0  0  0
  5  6  1  0  0  0  0
  6  1  2  0  0  0  0
  8  3  1  0  0  0  0
  9 10  2  0  0  0  0
  9 20  1  0  0  0  0
 10 14  1  0  0  0  0
 11 15  1  0  0  0  0
 11 10  1  0  0  0  0
 12 11  2  0  0  0  0
 13 12  1  0  0  0  0
 13  9  1  0  0  0  0
 16 17  1  0  0  0  0
 17 18  2  0  0  0  0
 17 23  1  0  0  0  0
 18 24  1  0  0  0  0
 19 18  1  0  0  0  0
 20 19  2  0  0  0  0
 21 20  1  0  0  0  0
 21 16  2  0  0  0  0
 22 16  1  0  0  0  0
 25 26  2  0  0  0  0
 25  5  1  0  0  0  0
 27 25  1  0  0  0  0
 28 27  1  0  0  0  0
 29 28  1  0  0  0  0
 30 32  1  0  0  0  0
 30 28  2  0  0  0  0
 31 30  1  0  0  0  0
 32 34  1  0  0  0  0
 33 32  1  0  0  0  0
 34 27  2  0  0  0  0
M  END
>  <minimizedAffinity>
-6.28411007

>  <minimizedRMSD>
0.43308869

$$$$
