
 OpenBabel03212520543D

 34 37  0  0  0  0  0  0  0  0999 V2000
   39.7080   77.1890   59.1510 C   0  0  0  0  0  0  0  0  0  0  0  0
   40.3810   76.0340   58.8960 C   0  0  0  0  0  0  0  0  0  0  0  0
   39.8270   75.3190   57.8190 C   0  0  0  0  0  0  0  0  0  0  0  0
   38.7510   75.7210   57.1090 N   0  0  0  0  0  0  0  0  0  0  0  0
   38.1570   76.8870   57.4450 C   0  0  0  0  0  0  0  0  0  0  0  0
   38.6360   77.6330   58.4760 N   0  0  0  0  0  0  0  0  0  0  0  0
   41.2350   75.6590   59.4180 H   0  0  0  0  0  0  0  0  0  0  0  0
   40.2570   74.3650   57.4900 H   0  0  0  0  0  0  0  0  0  0  0  0
   40.9490   80.1570   61.6630 C   0  0  0  0  0  0  0  0  0  0  0  0
   40.8850   78.9290   62.2950 C   0  0  0  0  0  0  0  0  0  0  0  0
   40.4880   77.8680   61.5680 C   0  0  0  0  0  0  0  0  0  0  0  0
   40.1590   78.0300   60.2300 C   0  0  0  0  0  0  0  0  0  0  0  0
   40.4300   79.8470   59.9510 S   0  0  0  0  0  0  0  0  0  0  0  0
   41.1420   78.8050   63.3400 H   0  0  0  0  0  0  0  0  0  0  0  0
   40.3750   76.8370   61.8710 H   0  0  0  0  0  0  0  0  0  0  0  0
   43.0590   82.9560   62.7400 C   0  0  0  0  0  0  0  0  0  0  0  0
   42.1670   83.7410   63.5350 C   0  0  0  0  0  0  0  0  0  0  0  0
   40.8540   83.2980   63.6900 C   0  0  0  0  0  0  0  0  0  0  0  0
   40.5120   82.1460   63.0710 N   0  0  0  0  0  0  0  0  0  0  0  0
   41.3680   81.4240   62.3270 C   0  0  0  0  0  0  0  0  0  0  0  0
   42.6190   81.8290   62.1680 N   0  0  0  0  0  0  0  0  0  0  0  0
   44.0610   83.3050   62.6270 H   0  0  0  0  0  0  0  0  0  0  0  0
   42.4630   84.6560   64.0190 H   0  0  0  0  0  0  0  0  0  0  0  0
   40.1090   83.8090   64.2630 H   0  0  0  0  0  0  0  0  0  0  0  0
   37.0040   77.3120   56.6810 C   0  0  0  0  0  0  0  0  0  0  0  0
   35.8600   77.0430   57.1560 O   0  0  0  0  0  0  0  0  0  0  0  0
   37.0820   78.0250   55.4100 C   0  0  0  0  0  0  0  0  0  0  0  0
   36.7530   77.4330   54.2080 C   0  0  0  0  0  0  0  0  0  0  0  0
   36.4090   76.4590   53.9290 H   0  0  0  0  0  0  0  0  0  0  0  0
   36.9430   78.3930   53.2270 C   0  0  0  0  0  0  0  0  0  0  0  0
   36.8400   78.4620   52.1650 H   0  0  0  0  0  0  0  0  0  0  0  0
   37.3770   79.5170   53.8710 N   0  0  0  0  0  0  0  0  0  0  0  0
   37.6350   80.4530   53.5160 H   0  0  0  0  0  0  0  0  0  0  0  0
   37.4580   79.2830   55.1880 N   0  0  0  0  0  0  0  0  0  0  0  0
  1 12  1  0  0  0  0
  2  1  1  0  0  0  0
  2  7  1  0  0  0  0
  3  2  2  0  0  0  0
  4  5  2  0  0  0  0
  4  3  1  0  0  0  0
  5  6  1  0  0  0  0
  6  1  2  0  0  0  0
  8  3  1  0  0  0  0
  9 10  2  0  0  0  0
  9 20  1  0  0  0  0
 10 14  1  0  0  0  0
 11 15  1  0  0  0  0
 11 10  1  0  0  0  0
 12 11  2  0  0  0  0
 13 12  1  0  0  0  0
 13  9  1  0  0  0  0
 16 17  1  0  0  0  0
 17 18  2  0  0  0  0
 17 23  1  0  0  0  0
 18 24  1  0  0  0  0
 19 18  1  0  0  0  0
 20 19  2  0  0  0  0
 21 20  1  0  0  0  0
 21 16  2  0  0  0  0
 22 16  1  0  0  0  0
 25 26  2  0  0  0  0
 25  5  1  0  0  0  0
 27 25  1  0  0  0  0
 28 27  1  0  0  0  0
 29 28  1  0  0  0  0
 30 32  1  0  0  0  0
 30 28  2  0  0  0  0
 31 30  1  0  0  0  0
 32 34  1  0  0  0  0
 33 32  1  0  0  0  0
 34 27  2  0  0  0  0
M  END
>  <minimizedAffinity>
-6.28155756

>  <minimizedRMSD>
0.643151581

$$$$
