
 OpenBabel03212521093D

 19 20  0  0  0  0  0  0  0  0999 V2000
   40.0650   85.1000   59.0390 C   0  0  0  0  0  0  0  0  0  0  0  0
   39.2400   85.9380   58.5580 O   0  0  0  0  0  0  0  0  0  0  0  0
   39.9670   81.9300   60.9360 C   0  0  0  0  0  0  0  0  0  0  0  0
   40.2720   82.8550   59.9360 C   0  0  0  0  0  0  0  0  0  0  0  0
   39.7610   84.1340   60.0580 C   0  0  0  0  0  0  0  0  0  0  0  0
   38.9910   84.4240   61.1420 N   0  0  0  0  0  0  0  0  0  0  0  0
   38.7040   83.5130   62.1050 C   0  0  0  0  0  0  0  0  0  0  0  0
   39.2030   82.2500   61.9950 N   0  0  0  0  0  0  0  0  0  0  0  0
   40.3510   80.9170   60.8730 H   0  0  0  0  0  0  0  0  0  0  0  0
   40.8870   82.4910   59.1400 H   0  0  0  0  0  0  0  0  0  0  0  0
   38.0810   83.9280   62.8840 H   0  0  0  0  0  0  0  0  0  0  0  0
   41.4060   85.2020   58.4480 C   0  0  0  0  0  0  0  0  0  0  0  0
   41.7930   84.6610   57.2380 C   0  0  0  0  0  0  0  0  0  0  0  0
   41.2050   84.0760   56.5150 H   0  0  0  0  0  0  0  0  0  0  0  0
   43.1320   84.9370   56.9630 C   0  0  0  0  0  0  0  0  0  0  0  0
   43.6980   84.6370   56.0880 H   0  0  0  0  0  0  0  0  0  0  0  0
   43.5190   85.6500   58.0370 N   0  0  0  0  0  0  0  0  0  0  0  0
   44.4840   86.0280   58.1640 H   0  0  0  0  0  0  0  0  0  0  0  0
   42.5250   85.8020   58.8920 N   0  0  0  0  0  0  0  0  0  0  0  0
  1  5  1  0  0  0  0
  2  1  2  0  0  0  0
  3  8  1  0  0  0  0
  4  5  1  0  0  0  0
  4  3  2  0  0  0  0
  5  6  2  0  0  0  0
  6  7  1  0  0  0  0
  7 11  1  0  0  0  0
  8  7  2  0  0  0  0
  9  3  1  0  0  0  0
 10  4  1  0  0  0  0
 12 19  2  0  0  0  0
 12  1  1  0  0  0  0
 13 12  1  0  0  0  0
 14 13  1  0  0  0  0
 15 13  2  0  0  0  0
 15 17  1  0  0  0  0
 16 15  1  0  0  0  0
 17 18  1  0  0  0  0
 17 19  1  0  0  0  0
M  END
>  <minimizedAffinity>
-4.14429235

>  <minimizedRMSD>
1.01705468

$$$$
