
 OpenBabel03212521093D

 19 20  0  0  0  0  0  0  0  0999 V2000
   39.8130   85.2060   59.1440 C   0  0  0  0  0  0  0  0  0  0  0  0
   38.9160   86.0290   58.7770 O   0  0  0  0  0  0  0  0  0  0  0  0
   39.9540   81.8910   60.7700 C   0  0  0  0  0  0  0  0  0  0  0  0
   40.1460   82.9020   59.8270 C   0  0  0  0  0  0  0  0  0  0  0  0
   39.6250   84.1530   60.1020 C   0  0  0  0  0  0  0  0  0  0  0  0
   38.9550   84.3340   61.2730 N   0  0  0  0  0  0  0  0  0  0  0  0
   38.7780   83.3400   62.1800 C   0  0  0  0  0  0  0  0  0  0  0  0
   39.2880   82.1040   61.9190 N   0  0  0  0  0  0  0  0  0  0  0  0
   40.3500   80.8970   60.5880 H   0  0  0  0  0  0  0  0  0  0  0  0
   40.6900   82.6210   58.9510 H   0  0  0  0  0  0  0  0  0  0  0  0
   38.2230   83.6740   63.0450 H   0  0  0  0  0  0  0  0  0  0  0  0
   41.1070   85.4270   58.4840 C   0  0  0  0  0  0  0  0  0  0  0  0
   42.3010   85.6930   59.1250 C   0  0  0  0  0  0  0  0  0  0  0  0
   42.5090   85.7880   60.2010 H   0  0  0  0  0  0  0  0  0  0  0  0
   43.3420   85.8520   58.2110 C   0  0  0  0  0  0  0  0  0  0  0  0
   44.3820   86.0660   58.4330 H   0  0  0  0  0  0  0  0  0  0  0  0
   42.7340   85.6720   57.0260 N   0  0  0  0  0  0  0  0  0  0  0  0
   43.2280   85.7220   56.1070 H   0  0  0  0  0  0  0  0  0  0  0  0
   41.4470   85.4280   57.1820 N   0  0  0  0  0  0  0  0  0  0  0  0
  1  5  1  0  0  0  0
  2  1  2  0  0  0  0
  3  8  1  0  0  0  0
  4  5  1  0  0  0  0
  4  3  2  0  0  0  0
  5  6  2  0  0  0  0
  6  7  1  0  0  0  0
  7 11  1  0  0  0  0
  8  7  2  0  0  0  0
  9  3  1  0  0  0  0
 10  4  1  0  0  0  0
 12 13  1  0  0  0  0
 12  1  1  0  0  0  0
 13 14  1  0  0  0  0
 15 16  1  0  0  0  0
 15 13  2  0  0  0  0
 17 19  1  0  0  0  0
 17 15  1  0  0  0  0
 18 17  1  0  0  0  0
 19 12  2  0  0  0  0
M  END
>  <minimizedAffinity>
-4.69121552

>  <minimizedRMSD>
0.767260551

$$$$
