
 OpenBabel03212521093D

 19 20  0  0  0  0  0  0  0  0999 V2000
   39.9280   85.1430   59.0090 C   0  0  0  0  0  0  0  0  0  0  0  0
   39.0720   85.9900   58.6010 O   0  0  0  0  0  0  0  0  0  0  0  0
   39.9930   81.9560   60.8780 C   0  0  0  0  0  0  0  0  0  0  0  0
   40.2300   82.8970   59.8740 C   0  0  0  0  0  0  0  0  0  0  0  0
   39.6940   84.1610   60.0310 C   0  0  0  0  0  0  0  0  0  0  0  0
   38.9680   84.4240   61.1530 N   0  0  0  0  0  0  0  0  0  0  0  0
   38.7480   83.4970   62.1200 C   0  0  0  0  0  0  0  0  0  0  0  0
   39.2710   82.2490   61.9740 N   0  0  0  0  0  0  0  0  0  0  0  0
   40.3980   80.9530   60.7890 H   0  0  0  0  0  0  0  0  0  0  0  0
   40.8150   82.5550   59.0480 H   0  0  0  0  0  0  0  0  0  0  0  0
   38.1510   83.8910   62.9300 H   0  0  0  0  0  0  0  0  0  0  0  0
   41.2230   85.2530   58.3260 C   0  0  0  0  0  0  0  0  0  0  0  0
   41.6340   84.4840   57.2550 C   0  0  0  0  0  0  0  0  0  0  0  0
   41.1000   83.6780   56.7290 H   0  0  0  0  0  0  0  0  0  0  0  0
   42.9160   84.8380   56.8380 C   0  0  0  0  0  0  0  0  0  0  0  0
   43.4850   84.4040   56.0230 H   0  0  0  0  0  0  0  0  0  0  0  0
   43.2470   85.8280   57.6870 N   0  0  0  0  0  0  0  0  0  0  0  0
   44.1590   86.3340   57.6600 H   0  0  0  0  0  0  0  0  0  0  0  0
   42.2720   86.0670   58.5430 N   0  0  0  0  0  0  0  0  0  0  0  0
  1  5  1  0  0  0  0
  2  1  2  0  0  0  0
  3  8  1  0  0  0  0
  4  5  1  0  0  0  0
  4  3  2  0  0  0  0
  5  6  2  0  0  0  0
  6  7  1  0  0  0  0
  7 11  1  0  0  0  0
  8  7  2  0  0  0  0
  9  3  1  0  0  0  0
 10  4  1  0  0  0  0
 12 19  2  0  0  0  0
 12  1  1  0  0  0  0
 13 12  1  0  0  0  0
 14 13  1  0  0  0  0
 15 13  2  0  0  0  0
 15 17  1  0  0  0  0
 16 15  1  0  0  0  0
 17 19  1  0  0  0  0
 18 17  1  0  0  0  0
M  END
>  <minimizedAffinity>
-4.40515423

>  <minimizedRMSD>
0.850168586

$$$$
