
 OpenBabel03212520363D

 35 38  0  0  0  0  0  0  0  0999 V2000
   41.5530   71.0530   60.2660 C   0  0  0  0  0  0  0  0  0  0  0  0
   41.3630   72.1350   61.1490 C   0  0  0  0  0  0  0  0  0  0  0  0
   41.7500   71.9950   62.5360 C   0  0  0  0  0  0  0  0  0  0  0  0
   42.2840   70.7960   62.8960 N   0  0  0  0  0  0  0  0  0  0  0  0
   42.4530   69.7670   61.9910 C   0  0  0  0  0  0  0  0  0  0  0  0
   42.0880   69.9060   60.6950 N   0  0  0  0  0  0  0  0  0  0  0  0
   41.2270   71.0640   59.2620 H   0  0  0  0  0  0  0  0  0  0  0  0
   41.6950   72.6860   63.3410 H   0  0  0  0  0  0  0  0  0  0  0  0
   40.7980   73.4380   60.8670 C   0  0  0  0  0  0  0  0  0  0  0  0
   39.4600   73.5860   61.2900 C   0  0  0  0  0  0  0  0  0  0  0  0
   38.7120   74.6970   61.0670 C   0  0  0  0  0  0  0  0  0  0  0  0
   39.2710   75.7700   60.3810 C   0  0  0  0  0  0  0  0  0  0  0  0
   40.5760   75.6480   59.9620 C   0  0  0  0  0  0  0  0  0  0  0  0
   41.2160   76.6500   59.2850 C   0  0  0  0  0  0  0  0  0  0  0  0
   42.5400   76.5140   58.8740 C   0  0  0  0  0  0  0  0  0  0  0  0
   43.2710   75.3600   59.1330 C   0  0  0  0  0  0  0  0  0  0  0  0
   42.6240   74.3460   59.8170 C   0  0  0  0  0  0  0  0  0  0  0  0
   41.3370   74.5110   60.1950 C   0  0  0  0  0  0  0  0  0  0  0  0
   38.8640   72.8570   61.8240 H   0  0  0  0  0  0  0  0  0  0  0  0
   37.6900   74.8670   61.3630 H   0  0  0  0  0  0  0  0  0  0  0  0
   38.7980   76.7090   60.1320 H   0  0  0  0  0  0  0  0  0  0  0  0
   40.6700   77.5580   59.0730 H   0  0  0  0  0  0  0  0  0  0  0  0
   42.9500   77.3760   58.3410 H   0  0  0  0  0  0  0  0  0  0  0  0
   44.2770   75.3590   58.7770 H   0  0  0  0  0  0  0  0  0  0  0  0
   43.3080   73.5560   60.0040 H   0  0  0  0  0  0  0  0  0  0  0  0
   43.0340   68.4870   62.4110 C   0  0  0  0  0  0  0  0  0  0  0  0
   44.2680   68.2890   62.4270 O   0  0  0  0  0  0  0  0  0  0  0  0
   42.1570   67.4000   62.8250 C   0  0  0  0  0  0  0  0  0  0  0  0
   40.8680   67.5610   63.2940 C   0  0  0  0  0  0  0  0  0  0  0  0
   40.3340   68.4900   63.4210 H   0  0  0  0  0  0  0  0  0  0  0  0
   40.3300   66.3260   63.5930 C   0  0  0  0  0  0  0  0  0  0  0  0
   39.3480   66.0740   63.9800 H   0  0  0  0  0  0  0  0  0  0  0  0
   41.3220   65.4380   63.2920 N   0  0  0  0  0  0  0  0  0  0  0  0
   41.1770   64.4100   63.4270 H   0  0  0  0  0  0  0  0  0  0  0  0
   42.3990   66.0720   62.8390 N   0  0  0  0  0  0  0  0  0  0  0  0
  1  6  2  0  0  0  0
  1  2  1  0  0  0  0
  2  3  2  0  0  0  0
  3  4  1  0  0  0  0
  3  8  1  0  0  0  0
  5 26  1  0  0  0  0
  5  4  2  0  0  0  0
  6  5  1  0  0  0  0
  7  1  1  0  0  0  0
  9  2  1  0  0  0  0
  9 10  1  0  0  0  0
 10 19  1  0  0  0  0
 11 10  2  0  0  0  0
 11 20  1  0  0  0  0
 12 11  1  0  0  0  0
 13 18  1  0  0  0  0
 13 12  2  0  0  0  0
 14 13  1  0  0  0  0
 15 16  1  0  0  0  0
 15 14  2  0  0  0  0
 16 17  2  0  0  0  0
 17 25  1  0  0  0  0
 17 18  1  0  0  0  0
 18  9  2  0  0  0  0
 21 12  1  0  0  0  0
 22 14  1  0  0  0  0
 23 15  1  0  0  0  0
 24 16  1  0  0  0  0
 26 27  2  0  0  0  0
 26 28  1  0  0  0  0
 28 35  2  0  0  0  0
 28 29  1  0  0  0  0
 29 30  1  0  0  0  0
 29 31  2  0  0  0  0
 31 32  1  0  0  0  0
 33 34  1  0  0  0  0
 33 31  1  0  0  0  0
 35 33  1  0  0  0  0
M  END
>  <minimizedAffinity>
-6.77985764

$$$$

 OpenBabel03212520363D

 35 38  0  0  0  0  0  0  0  0999 V2000
   42.1120   72.0020   62.5940 C   0  0  0  0  0  0  0  0  0  0  0  0
   42.1240   72.1870   61.1980 C   0  0  0  0  0  0  0  0  0  0  0  0
   42.0260   71.0350   60.3280 C   0  0  0  0  0  0  0  0  0  0  0  0
   41.9250   69.8240   60.9390 N   0  0  0  0  0  0  0  0  0  0  0  0
   41.9130   69.6950   62.3140 C   0  0  0  0  0  0  0  0  0  0  0  0
   42.0070   70.7780   63.1210 N   0  0  0  0  0  0  0  0  0  0  0  0
   42.2520   72.7900   63.2820 H   0  0  0  0  0  0  0  0  0  0  0  0
   42.0100   70.9710   59.2680 H   0  0  0  0  0  0  0  0  0  0  0  0
   42.2370   73.4260   60.4560 C   0  0  0  0  0  0  0  0  0  0  0  0
   43.5090   73.6360   59.8810 C   0  0  0  0  0  0  0  0  0  0  0  0
   43.8590   74.7590   59.2030 C   0  0  0  0  0  0  0  0  0  0  0  0
   42.9290   75.7820   59.0500 C   0  0  0  0  0  0  0  0  0  0  0  0
   41.6810   75.5970   59.5990 C   0  0  0  0  0  0  0  0  0  0  0  0
   40.6980   76.5410   59.4980 C   0  0  0  0  0  0  0  0  0  0  0  0
   39.4360   76.3350   60.0530 C   0  0  0  0  0  0  0  0  0  0  0  0
   39.1190   75.1650   60.7320 C   0  0  0  0  0  0  0  0  0  0  0  0
   40.1140   74.2080   60.8360 C   0  0  0  0  0  0  0  0  0  0  0  0
   41.3270   74.4450   60.2890 C   0  0  0  0  0  0  0  0  0  0  0  0
   44.3530   72.9590   59.9090 H   0  0  0  0  0  0  0  0  0  0  0  0
   44.8100   74.9750   58.7460 H   0  0  0  0  0  0  0  0  0  0  0  0
   43.0680   76.7240   58.5400 H   0  0  0  0  0  0  0  0  0  0  0  0
   40.9190   77.4590   58.9730 H   0  0  0  0  0  0  0  0  0  0  0  0
   38.7290   77.1570   59.9120 H   0  0  0  0  0  0  0  0  0  0  0  0
   38.1260   75.1060   61.1170 H   0  0  0  0  0  0  0  0  0  0  0  0
   39.7240   73.3460   61.3170 H   0  0  0  0  0  0  0  0  0  0  0  0
   41.8010   68.3740   62.9420 C   0  0  0  0  0  0  0  0  0  0  0  0
   40.7360   67.9670   63.4530 O   0  0  0  0  0  0  0  0  0  0  0  0
   42.9630   67.4950   62.9810 C   0  0  0  0  0  0  0  0  0  0  0  0
   44.1990   67.8420   63.4880 C   0  0  0  0  0  0  0  0  0  0  0  0
   44.4820   68.7910   63.9180 H   0  0  0  0  0  0  0  0  0  0  0  0
   45.0640   66.7730   63.3660 C   0  0  0  0  0  0  0  0  0  0  0  0
   46.1050   66.6900   63.6560 H   0  0  0  0  0  0  0  0  0  0  0  0
   44.3150   65.7940   62.7810 N   0  0  0  0  0  0  0  0  0  0  0  0
   44.7340   64.8570   62.5700 H   0  0  0  0  0  0  0  0  0  0  0  0
   43.0760   66.2190   62.5530 N   0  0  0  0  0  0  0  0  0  0  0  0
  1  6  1  0  0  0  0
  1  7  1  0  0  0  0
  2  1  2  0  0  0  0
  3  4  2  0  0  0  0
  3  2  1  0  0  0  0
  4  5  1  0  0  0  0
  5 26  1  0  0  0  0
  5  6  2  0  0  0  0
  8  3  1  0  0  0  0
  9  2  1  0  0  0  0
 10 19  1  0  0  0  0
 10  9  2  0  0  0  0
 11 10  1  0  0  0  0
 12 11  2  0  0  0  0
 12 13  1  0  0  0  0
 13 18  1  0  0  0  0
 14 13  2  0  0  0  0
 14 15  1  0  0  0  0
 15 16  2  0  0  0  0
 16 17  1  0  0  0  0
 16 24  1  0  0  0  0
 17 25  1  0  0  0  0
 18  9  1  0  0  0  0
 18 17  2  0  0  0  0
 20 11  1  0  0  0  0
 21 12  1  0  0  0  0
 22 14  1  0  0  0  0
 23 15  1  0  0  0  0
 26 28  1  0  0  0  0
 26 27  2  0  0  0  0
 28 29  1  0  0  0  0
 29 30  1  0  0  0  0
 31 29  2  0  0  0  0
 31 32  1  0  0  0  0
 33 31  1  0  0  0  0
 34 33  1  0  0  0  0
 35 33  1  0  0  0  0
 35 28  2  0  0  0  0
M  END
>  <minimizedAffinity>
-6.5582242

$$$$

 OpenBabel03212520363D

 35 38  0  0  0  0  0  0  0  0999 V2000
   41.5150   71.0560   59.3150 C   0  0  0  0  0  0  0  0  0  0  0  0
   42.1800   72.1240   59.9490 C   0  0  0  0  0  0  0  0  0  0  0  0
   42.9900   71.8620   61.1190 C   0  0  0  0  0  0  0  0  0  0  0  0
   43.0530   70.5670   61.5320 N   0  0  0  0  0  0  0  0  0  0  0  0
   42.3850   69.5540   60.8730 C   0  0  0  0  0  0  0  0  0  0  0  0
   41.6290   69.8080   59.7800 N   0  0  0  0  0  0  0  0  0  0  0  0
   40.8530   71.1880   58.5040 H   0  0  0  0  0  0  0  0  0  0  0  0
   43.5650   72.5220   61.7220 H   0  0  0  0  0  0  0  0  0  0  0  0
   42.1680   73.5280   59.5940 C   0  0  0  0  0  0  0  0  0  0  0  0
   43.2790   73.9340   58.8240 C   0  0  0  0  0  0  0  0  0  0  0  0
   43.5090   75.2150   58.4400 C   0  0  0  0  0  0  0  0  0  0  0  0
   42.6120   76.2110   58.8130 C   0  0  0  0  0  0  0  0  0  0  0  0
   41.5200   75.8380   59.5610 C   0  0  0  0  0  0  0  0  0  0  0  0
   40.5800   76.7420   59.9720 C   0  0  0  0  0  0  0  0  0  0  0  0
   39.4750   76.3460   60.7240 C   0  0  0  0  0  0  0  0  0  0  0  0
   39.2760   75.0190   61.0880 C   0  0  0  0  0  0  0  0  0  0  0  0
   40.2270   74.1040   60.6720 C   0  0  0  0  0  0  0  0  0  0  0  0
   41.2880   74.5250   59.9500 C   0  0  0  0  0  0  0  0  0  0  0  0
   44.0780   73.3040   58.4550 H   0  0  0  0  0  0  0  0  0  0  0  0
   44.3360   75.5840   57.8550 H   0  0  0  0  0  0  0  0  0  0  0  0
   42.6670   77.2650   58.5820 H   0  0  0  0  0  0  0  0  0  0  0  0
   40.7110   77.7790   59.7010 H   0  0  0  0  0  0  0  0  0  0  0  0
   38.7890   77.1520   60.9980 H   0  0  0  0  0  0  0  0  0  0  0  0
   38.3980   74.8220   61.6600 H   0  0  0  0  0  0  0  0  0  0  0  0
   39.9240   73.1270   60.9590 H   0  0  0  0  0  0  0  0  0  0  0  0
   42.4750   68.1670   61.3440 C   0  0  0  0  0  0  0  0  0  0  0  0
   43.4590   67.4400   61.0890 O   0  0  0  0  0  0  0  0  0  0  0  0
   41.3890   67.6040   62.1350 C   0  0  0  0  0  0  0  0  0  0  0  0
   40.6830   66.4630   61.8070 C   0  0  0  0  0  0  0  0  0  0  0  0
   40.8260   65.8370   60.9390 H   0  0  0  0  0  0  0  0  0  0  0  0
   39.7290   66.2190   62.7730 C   0  0  0  0  0  0  0  0  0  0  0  0
   39.0020   65.4160   62.8410 H   0  0  0  0  0  0  0  0  0  0  0  0
   39.8860   67.2320   63.6730 N   0  0  0  0  0  0  0  0  0  0  0  0
   39.2770   67.2900   64.5240 H   0  0  0  0  0  0  0  0  0  0  0  0
   40.8650   68.0490   63.2970 N   0  0  0  0  0  0  0  0  0  0  0  0
  1  6  2  0  0  0  0
  1  2  1  0  0  0  0
  2  3  2  0  0  0  0
  3  4  1  0  0  0  0
  3  8  1  0  0  0  0
  5 26  1  0  0  0  0
  5  4  2  0  0  0  0
  6  5  1  0  0  0  0
  7  1  1  0  0  0  0
  9  2  1  0  0  0  0
  9 18  1  0  0  0  0
 10  9  2  0  0  0  0
 11 12  2  0  0  0  0
 11 10  1  0  0  0  0
 12 13  1  0  0  0  0
 13 18  2  0  0  0  0
 13 14  1  0  0  0  0
 14 15  2  0  0  0  0
 15 23  1  0  0  0  0
 15 16  1  0  0  0  0
 16 24  1  0  0  0  0
 17 25  1  0  0  0  0
 17 16  2  0  0  0  0
 18 17  1  0  0  0  0
 19 10  1  0  0  0  0
 20 11  1  0  0  0  0
 21 12  1  0  0  0  0
 22 14  1  0  0  0  0
 26 28  1  0  0  0  0
 27 26  2  0  0  0  0
 28 35  2  0  0  0  0
 29 28  1  0  0  0  0
 29 31  2  0  0  0  0
 30 29  1  0  0  0  0
 31 32  1  0  0  0  0
 31 33  1  0  0  0  0
 33 34  1  0  0  0  0
 35 33  1  0  0  0  0
M  END
>  <minimizedAffinity>
-6.36966467

$$$$

 OpenBabel03212520363D

 35 38  0  0  0  0  0  0  0  0999 V2000
   39.7190   76.3890   58.6510 C   0  0  0  0  0  0  0  0  0  0  0  0
   40.5500   75.2880   58.3660 C   0  0  0  0  0  0  0  0  0  0  0  0
   40.3510   74.5480   57.1390 C   0  0  0  0  0  0  0  0  0  0  0  0
   39.3490   74.9830   56.3270 N   0  0  0  0  0  0  0  0  0  0  0  0
   38.5630   76.0720   56.6510 C   0  0  0  0  0  0  0  0  0  0  0  0
   38.7560   76.7580   57.8010 N   0  0  0  0  0  0  0  0  0  0  0  0
   39.7640   76.9260   59.5590 H   0  0  0  0  0  0  0  0  0  0  0  0
   40.8700   73.7080   56.7480 H   0  0  0  0  0  0  0  0  0  0  0  0
   41.6290   74.7440   59.1640 C   0  0  0  0  0  0  0  0  0  0  0  0
   42.9160   75.0950   58.7020 C   0  0  0  0  0  0  0  0  0  0  0  0
   44.0700   74.6420   59.2540 C   0  0  0  0  0  0  0  0  0  0  0  0
   44.0130   73.7770   60.3420 C   0  0  0  0  0  0  0  0  0  0  0  0
   42.7690   73.4240   60.8110 C   0  0  0  0  0  0  0  0  0  0  0  0
   42.6080   72.5840   61.8780 C   0  0  0  0  0  0  0  0  0  0  0  0
   41.3410   72.2420   62.3460 C   0  0  0  0  0  0  0  0  0  0  0  0
   40.1850   72.7380   61.7540 C   0  0  0  0  0  0  0  0  0  0  0  0
   40.3470   73.5880   60.6740 C   0  0  0  0  0  0  0  0  0  0  0  0
   41.5910   73.8930   60.2440 C   0  0  0  0  0  0  0  0  0  0  0  0
   43.1510   75.7430   57.8670 H   0  0  0  0  0  0  0  0  0  0  0  0
   45.0770   74.8720   58.9450 H   0  0  0  0  0  0  0  0  0  0  0  0
   44.8430   73.3390   60.8770 H   0  0  0  0  0  0  0  0  0  0  0  0
   43.4910   72.1860   62.3570 H   0  0  0  0  0  0  0  0  0  0  0  0
   41.3310   71.5640   63.2030 H   0  0  0  0  0  0  0  0  0  0  0  0
   39.2660   72.4170   62.1900 H   0  0  0  0  0  0  0  0  0  0  0  0
   39.3960   73.9420   60.3590 H   0  0  0  0  0  0  0  0  0  0  0  0
   37.4920   76.5160   55.7530 C   0  0  0  0  0  0  0  0  0  0  0  0
   36.5130   77.1790   56.1600 O   0  0  0  0  0  0  0  0  0  0  0  0
   37.5560   76.1820   54.3360 C   0  0  0  0  0  0  0  0  0  0  0  0
   38.3560   76.8200   53.4090 C   0  0  0  0  0  0  0  0  0  0  0  0
   39.0350   77.6400   53.5920 H   0  0  0  0  0  0  0  0  0  0  0  0
   38.1660   76.2500   52.1670 C   0  0  0  0  0  0  0  0  0  0  0  0
   38.6260   76.4950   51.2150 H   0  0  0  0  0  0  0  0  0  0  0  0
   37.2430   75.2670   52.3790 N   0  0  0  0  0  0  0  0  0  0  0  0
   36.9120   74.6660   51.5880 H   0  0  0  0  0  0  0  0  0  0  0  0
   36.8830   75.2270   53.6580 N   0  0  0  0  0  0  0  0  0  0  0  0
  1  7  1  0  0  0  0
  2  1  1  0  0  0  0
  2  9  1  0  0  0  0
  3  2  2  0  0  0  0
  4  5  2  0  0  0  0
  4  3  1  0  0  0  0
  5  6  1  0  0  0  0
  6  1  2  0  0  0  0
  8  3  1  0  0  0  0
  9 18  1  0  0  0  0
 10  9  2  0  0  0  0
 10 11  1  0  0  0  0
 11 12  2  0  0  0  0
 12 13  1  0  0  0  0
 12 21  1  0  0  0  0
 13 14  1  0  0  0  0
 14 15  2  0  0  0  0
 14 22  1  0  0  0  0
 15 23  1  0  0  0  0
 16 24  1  0  0  0  0
 16 15  1  0  0  0  0
 17 16  2  0  0  0  0
 18 17  1  0  0  0  0
 18 13  2  0  0  0  0
 19 10  1  0  0  0  0
 20 11  1  0  0  0  0
 25 17  1  0  0  0  0
 26 27  2  0  0  0  0
 26  5  1  0  0  0  0
 28 26  1  0  0  0  0
 29 30  1  0  0  0  0
 29 28  1  0  0  0  0
 31 33  1  0  0  0  0
 31 29  2  0  0  0  0
 32 31  1  0  0  0  0
 33 35  1  0  0  0  0
 34 33  1  0  0  0  0
 35 28  2  0  0  0  0
M  END
>  <minimizedAffinity>
-6.30970764

$$$$

 OpenBabel03212520363D

 35 38  0  0  0  0  0  0  0  0999 V2000
   41.5140   71.0490   60.2330 C   0  0  0  0  0  0  0  0  0  0  0  0
   41.2500   72.0990   61.1340 C   0  0  0  0  0  0  0  0  0  0  0  0
   41.4660   71.8910   62.5500 C   0  0  0  0  0  0  0  0  0  0  0  0
   41.9230   70.6620   62.9160 N   0  0  0  0  0  0  0  0  0  0  0  0
   42.1710   69.6660   61.9920 C   0  0  0  0  0  0  0  0  0  0  0  0
   41.9640   69.8690   60.6700 N   0  0  0  0  0  0  0  0  0  0  0  0
   41.3100   71.1110   59.1990 H   0  0  0  0  0  0  0  0  0  0  0  0
   41.3350   72.5500   63.3720 H   0  0  0  0  0  0  0  0  0  0  0  0
   40.7570   73.4290   60.8460 C   0  0  0  0  0  0  0  0  0  0  0  0
   39.4320   73.6550   61.2770 C   0  0  0  0  0  0  0  0  0  0  0  0
   38.7460   74.8050   61.0500 C   0  0  0  0  0  0  0  0  0  0  0  0
   39.3590   75.8400   60.3520 C   0  0  0  0  0  0  0  0  0  0  0  0
   40.6520   75.6420   59.9250 C   0  0  0  0  0  0  0  0  0  0  0  0
   41.3420   76.6010   59.2370 C   0  0  0  0  0  0  0  0  0  0  0  0
   42.6540   76.3890   58.8180 C   0  0  0  0  0  0  0  0  0  0  0  0
   43.3210   75.1980   59.0810 C   0  0  0  0  0  0  0  0  0  0  0  0
   42.6230   74.2270   59.7770 C   0  0  0  0  0  0  0  0  0  0  0  0
   41.3510   74.4660   60.1630 C   0  0  0  0  0  0  0  0  0  0  0  0
   38.8000   72.9650   61.8200 H   0  0  0  0  0  0  0  0  0  0  0  0
   37.7370   75.0340   61.3520 H   0  0  0  0  0  0  0  0  0  0  0  0
   38.9370   76.8020   60.0990 H   0  0  0  0  0  0  0  0  0  0  0  0
   40.8460   77.5370   59.0220 H   0  0  0  0  0  0  0  0  0  0  0  0
   43.1080   77.2230   58.2750 H   0  0  0  0  0  0  0  0  0  0  0  0
   44.3230   75.1380   58.7190 H   0  0  0  0  0  0  0  0  0  0  0  0
   43.2640   73.4000   59.9650 H   0  0  0  0  0  0  0  0  0  0  0  0
   42.6640   68.3520   62.4200 C   0  0  0  0  0  0  0  0  0  0  0  0
   41.9690   67.5700   63.1030 O   0  0  0  0  0  0  0  0  0  0  0  0
   44.0080   67.9320   62.0460 C   0  0  0  0  0  0  0  0  0  0  0  0
   44.7470   66.9720   62.7080 C   0  0  0  0  0  0  0  0  0  0  0  0
   44.4490   66.4070   63.5780 H   0  0  0  0  0  0  0  0  0  0  0  0
   45.9710   66.8240   62.0870 C   0  0  0  0  0  0  0  0  0  0  0  0
   46.7970   66.1650   62.3330 H   0  0  0  0  0  0  0  0  0  0  0  0
   45.9370   67.7110   61.0500 N   0  0  0  0  0  0  0  0  0  0  0  0
   46.7550   67.8070   60.4030 H   0  0  0  0  0  0  0  0  0  0  0  0
   44.7800   68.3640   61.0260 N   0  0  0  0  0  0  0  0  0  0  0  0
  1  6  2  0  0  0  0
  1  2  1  0  0  0  0
  2  3  2  0  0  0  0
  3  4  1  0  0  0  0
  3  8  1  0  0  0  0
  5 26  1  0  0  0  0
  5  4  2  0  0  0  0
  6  5  1  0  0  0  0
  7  1  1  0  0  0  0
  9  2  1  0  0  0  0
  9 10  1  0  0  0  0
 10 19  1  0  0  0  0
 11 10  2  0  0  0  0
 11 20  1  0  0  0  0
 12 11  1  0  0  0  0
 13 18  1  0  0  0  0
 13 12  2  0  0  0  0
 14 13  1  0  0  0  0
 15 16  1  0  0  0  0
 15 14  2  0  0  0  0
 16 17  2  0  0  0  0
 17 25  1  0  0  0  0
 17 18  1  0  0  0  0
 18  9  2  0  0  0  0
 21 12  1  0  0  0  0
 22 14  1  0  0  0  0
 23 15  1  0  0  0  0
 24 16  1  0  0  0  0
 26 27  2  0  0  0  0
 28 26  1  0  0  0  0
 28 29  1  0  0  0  0
 29 30  1  0  0  0  0
 31 32  1  0  0  0  0
 31 29  2  0  0  0  0
 33 31  1  0  0  0  0
 34 33  1  0  0  0  0
 35 33  1  0  0  0  0
 35 28  2  0  0  0  0
M  END
>  <minimizedAffinity>
-6.26862383

$$$$

 OpenBabel03212520363D

 35 38  0  0  0  0  0  0  0  0999 V2000
   41.1120   71.2900   59.1480 C   0  0  0  0  0  0  0  0  0  0  0  0
   41.1070   72.1070   60.2950 C   0  0  0  0  0  0  0  0  0  0  0  0
   41.6460   71.5930   61.5360 C   0  0  0  0  0  0  0  0  0  0  0  0
   42.1330   70.3230   61.5010 N   0  0  0  0  0  0  0  0  0  0  0  0
   42.1190   69.5630   60.3480 C   0  0  0  0  0  0  0  0  0  0  0  0
   41.6120   70.0520   59.1930 N   0  0  0  0  0  0  0  0  0  0  0  0
   40.6700   71.5770   58.2330 H   0  0  0  0  0  0  0  0  0  0  0  0
   41.7370   72.0500   62.4900 H   0  0  0  0  0  0  0  0  0  0  0  0
   40.6060   73.4590   60.4340 C   0  0  0  0  0  0  0  0  0  0  0  0
   39.3210   73.5370   61.0110 C   0  0  0  0  0  0  0  0  0  0  0  0
   38.6300   74.6950   61.1720 C   0  0  0  0  0  0  0  0  0  0  0  0
   39.1990   75.8940   60.7530 C   0  0  0  0  0  0  0  0  0  0  0  0
   40.4540   75.8410   60.1900 C   0  0  0  0  0  0  0  0  0  0  0  0
   41.0990   76.9640   59.7520 C   0  0  0  0  0  0  0  0  0  0  0  0
   42.3730   76.8950   59.1910 C   0  0  0  0  0  0  0  0  0  0  0  0
   43.0460   75.6870   59.0530 C   0  0  0  0  0  0  0  0  0  0  0  0
   42.3940   74.5500   59.4970 C   0  0  0  0  0  0  0  0  0  0  0  0
   41.1560   74.6540   60.0300 C   0  0  0  0  0  0  0  0  0  0  0  0
   38.7250   72.7140   61.3820 H   0  0  0  0  0  0  0  0  0  0  0  0
   37.6500   74.8170   61.6020 H   0  0  0  0  0  0  0  0  0  0  0  0
   38.7690   76.8830   60.8160 H   0  0  0  0  0  0  0  0  0  0  0  0
   40.5970   77.9160   59.8490 H   0  0  0  0  0  0  0  0  0  0  0  0
   42.7920   77.8540   58.8740 H   0  0  0  0  0  0  0  0  0  0  0  0
   44.0160   75.7440   58.6140 H   0  0  0  0  0  0  0  0  0  0  0  0
   43.0380   73.7120   59.3930 H   0  0  0  0  0  0  0  0  0  0  0  0
   42.6530   68.1970   60.3450 C   0  0  0  0  0  0  0  0  0  0  0  0
   42.6940   67.5000   59.3080 O   0  0  0  0  0  0  0  0  0  0  0  0
   43.1570   67.6180   61.5840 C   0  0  0  0  0  0  0  0  0  0  0  0
   44.4790   67.6350   61.9820 C   0  0  0  0  0  0  0  0  0  0  0  0
   45.3130   68.0660   61.4500 H   0  0  0  0  0  0  0  0  0  0  0  0
   44.6000   67.0000   63.2020 C   0  0  0  0  0  0  0  0  0  0  0  0
   45.4830   66.8280   63.8080 H   0  0  0  0  0  0  0  0  0  0  0  0
   43.3290   66.6110   63.5130 N   0  0  0  0  0  0  0  0  0  0  0  0
   43.1310   66.0980   64.4040 H   0  0  0  0  0  0  0  0  0  0  0  0
   42.4780   66.9760   62.5590 N   0  0  0  0  0  0  0  0  0  0  0  0
  1  6  2  0  0  0  0
  1  2  1  0  0  0  0
  2  9  1  0  0  0  0
  2  3  2  0  0  0  0
  3  8  1  0  0  0  0
  4  3  1  0  0  0  0
  5  4  2  0  0  0  0
  6  5  1  0  0  0  0
  7  1  1  0  0  0  0
  9 10  1  0  0  0  0
 10 11  2  0  0  0  0
 10 19  1  0  0  0  0
 11 20  1  0  0  0  0
 12 21  1  0  0  0  0
 12 11  1  0  0  0  0
 13 12  2  0  0  0  0
 14 22  1  0  0  0  0
 14 13  1  0  0  0  0
 15 14  2  0  0  0  0
 16 15  1  0  0  0  0
 16 17  2  0  0  0  0
 17 18  1  0  0  0  0
 18 13  1  0  0  0  0
 18  9  2  0  0  0  0
 23 15  1  0  0  0  0
 24 16  1  0  0  0  0
 25 17  1  0  0  0  0
 26  5  1  0  0  0  0
 26 28  1  0  0  0  0
 27 26  2  0  0  0  0
 28 29  1  0  0  0  0
 28 35  2  0  0  0  0
 29 31  2  0  0  0  0
 30 29  1  0  0  0  0
 31 33  1  0  0  0  0
 31 32  1  0  0  0  0
 33 34  1  0  0  0  0
 35 33  1  0  0  0  0
M  END
>  <minimizedAffinity>
-6.24637938

$$$$

 OpenBabel03212520363D

 35 38  0  0  0  0  0  0  0  0999 V2000
   41.6970   71.1630   62.9320 C   0  0  0  0  0  0  0  0  0  0  0  0
   41.9870   70.1710   61.9760 C   0  0  0  0  0  0  0  0  0  0  0  0
   41.8070   70.4640   60.5710 C   0  0  0  0  0  0  0  0  0  0  0  0
   41.3610   71.7140   60.2680 N   0  0  0  0  0  0  0  0  0  0  0  0
   41.0940   72.6540   61.2430 C   0  0  0  0  0  0  0  0  0  0  0  0
   41.2640   72.3700   62.5560 N   0  0  0  0  0  0  0  0  0  0  0  0
   41.7380   70.9910   63.9730 H   0  0  0  0  0  0  0  0  0  0  0  0
   41.9760   69.8610   59.7130 H   0  0  0  0  0  0  0  0  0  0  0  0
   42.4550   68.8180   62.1970 C   0  0  0  0  0  0  0  0  0  0  0  0
   43.8320   68.6390   61.9410 C   0  0  0  0  0  0  0  0  0  0  0  0
   44.4680   67.4420   62.0150 C   0  0  0  0  0  0  0  0  0  0  0  0
   43.7450   66.3050   62.3610 C   0  0  0  0  0  0  0  0  0  0  0  0
   42.4020   66.4570   62.6170 C   0  0  0  0  0  0  0  0  0  0  0  0
   41.6080   65.4010   62.9700 C   0  0  0  0  0  0  0  0  0  0  0  0
   40.2510   65.5720   63.2340 C   0  0  0  0  0  0  0  0  0  0  0  0
   39.6430   66.8200   63.1540 C   0  0  0  0  0  0  0  0  0  0  0  0
   40.4460   67.8890   62.7970 C   0  0  0  0  0  0  0  0  0  0  0  0
   41.7570   67.6840   62.5430 C   0  0  0  0  0  0  0  0  0  0  0  0
   44.5420   69.4020   61.6520 H   0  0  0  0  0  0  0  0  0  0  0  0
   45.5110   67.2440   61.8310 H   0  0  0  0  0  0  0  0  0  0  0  0
   44.1160   65.2950   62.4560 H   0  0  0  0  0  0  0  0  0  0  0  0
   42.0570   64.4210   63.0410 H   0  0  0  0  0  0  0  0  0  0  0  0
   39.7130   64.6600   63.5050 H   0  0  0  0  0  0  0  0  0  0  0  0
   38.6000   66.8430   63.3780 H   0  0  0  0  0  0  0  0  0  0  0  0
   39.8760   68.7850   62.8350 H   0  0  0  0  0  0  0  0  0  0  0  0
   40.6150   73.9930   60.8830 C   0  0  0  0  0  0  0  0  0  0  0  0
   39.4930   74.4160   61.2350 O   0  0  0  0  0  0  0  0  0  0  0  0
   41.4630   74.8700   60.0860 C   0  0  0  0  0  0  0  0  0  0  0  0
   41.0860   76.1080   59.6040 C   0  0  0  0  0  0  0  0  0  0  0  0
   40.1320   76.5950   59.7400 H   0  0  0  0  0  0  0  0  0  0  0  0
   42.1310   76.6630   58.8930 C   0  0  0  0  0  0  0  0  0  0  0  0
   42.1880   77.6160   58.3790 H   0  0  0  0  0  0  0  0  0  0  0  0
   43.1260   75.7320   58.9670 N   0  0  0  0  0  0  0  0  0  0  0  0
   44.0500   75.9020   58.5040 H   0  0  0  0  0  0  0  0  0  0  0  0
   42.7330   74.6750   59.6700 N   0  0  0  0  0  0  0  0  0  0  0  0
  1  7  1  0  0  0  0
  2  9  1  0  0  0  0
  2  1  2  0  0  0  0
  3  2  1  0  0  0  0
  4  3  2  0  0  0  0
  4  5  1  0  0  0  0
  5  6  2  0  0  0  0
  6  1  1  0  0  0  0
  8  3  1  0  0  0  0
  9 18  1  0  0  0  0
 10 11  1  0  0  0  0
 10  9  2  0  0  0  0
 11 12  2  0  0  0  0
 12 21  1  0  0  0  0
 12 13  1  0  0  0  0
 13 14  1  0  0  0  0
 14 22  1  0  0  0  0
 14 15  2  0  0  0  0
 15 23  1  0  0  0  0
 16 15  1  0  0  0  0
 16 24  1  0  0  0  0
 17 25  1  0  0  0  0
 17 16  2  0  0  0  0
 18 13  2  0  0  0  0
 18 17  1  0  0  0  0
 19 10  1  0  0  0  0
 20 11  1  0  0  0  0
 26 27  2  0  0  0  0
 26  5  1  0  0  0  0
 28 26  1  0  0  0  0
 29 30  1  0  0  0  0
 29 28  1  0  0  0  0
 31 33  1  0  0  0  0
 31 29  2  0  0  0  0
 32 31  1  0  0  0  0
 33 35  1  0  0  0  0
 34 33  1  0  0  0  0
 35 28  2  0  0  0  0
M  END
>  <minimizedAffinity>
-6.1097846

$$$$

 OpenBabel03212520363D

 35 38  0  0  0  0  0  0  0  0999 V2000
   41.8150   72.2170   62.6530 C   0  0  0  0  0  0  0  0  0  0  0  0
   41.3800   72.4320   61.3310 C   0  0  0  0  0  0  0  0  0  0  0  0
   41.5670   71.3910   60.3430 C   0  0  0  0  0  0  0  0  0  0  0  0
   42.1640   70.2480   60.7780 N   0  0  0  0  0  0  0  0  0  0  0  0
   42.5700   70.0840   62.0880 C   0  0  0  0  0  0  0  0  0  0  0  0
   42.3920   71.0640   63.0040 N   0  0  0  0  0  0  0  0  0  0  0  0
   41.7750   72.9600   63.4020 H   0  0  0  0  0  0  0  0  0  0  0  0
   41.3040   71.3600   59.3150 H   0  0  0  0  0  0  0  0  0  0  0  0
   40.7470   73.6090   60.7720 C   0  0  0  0  0  0  0  0  0  0  0  0
   39.3600   73.6860   61.0220 C   0  0  0  0  0  0  0  0  0  0  0  0
   38.5550   74.6640   60.5340 C   0  0  0  0  0  0  0  0  0  0  0  0
   39.1010   75.6640   59.7360 C   0  0  0  0  0  0  0  0  0  0  0  0
   40.4520   75.6100   59.4820 C   0  0  0  0  0  0  0  0  0  0  0  0
   41.0830   76.5490   58.7140 C   0  0  0  0  0  0  0  0  0  0  0  0
   42.4540   76.4840   58.4720 C   0  0  0  0  0  0  0  0  0  0  0  0
   43.2420   75.4680   59.0000 C   0  0  0  0  0  0  0  0  0  0  0  0
   42.6040   74.5170   59.7770 C   0  0  0  0  0  0  0  0  0  0  0  0
   41.2720   74.6090   59.9850 C   0  0  0  0  0  0  0  0  0  0  0  0
   38.7670   72.9960   61.6070 H   0  0  0  0  0  0  0  0  0  0  0  0
   37.4940   74.7750   60.6890 H   0  0  0  0  0  0  0  0  0  0  0  0
   38.5850   76.4980   59.2820 H   0  0  0  0  0  0  0  0  0  0  0  0
   40.4930   77.3510   58.2940 H   0  0  0  0  0  0  0  0  0  0  0  0
   42.8520   77.2860   57.8440 H   0  0  0  0  0  0  0  0  0  0  0  0
   44.2790   75.5120   58.7570 H   0  0  0  0  0  0  0  0  0  0  0  0
   43.3240   73.8410   60.1670 H   0  0  0  0  0  0  0  0  0  0  0  0
   43.2090   68.8380   62.5240 C   0  0  0  0  0  0  0  0  0  0  0  0
   43.7940   68.7390   63.6250 O   0  0  0  0  0  0  0  0  0  0  0  0
   43.1720   67.6680   61.6570 C   0  0  0  0  0  0  0  0  0  0  0  0
   42.0730   66.8530   61.4780 C   0  0  0  0  0  0  0  0  0  0  0  0
   41.1040   66.9570   61.9420 H   0  0  0  0  0  0  0  0  0  0  0  0
   42.3880   65.8430   60.5920 C   0  0  0  0  0  0  0  0  0  0  0  0
   41.7720   65.0290   60.2220 H   0  0  0  0  0  0  0  0  0  0  0  0
   43.6880   66.0790   60.2530 N   0  0  0  0  0  0  0  0  0  0  0  0
   44.1870   65.4500   59.5800 H   0  0  0  0  0  0  0  0  0  0  0  0
   44.1510   67.1550   60.8810 N   0  0  0  0  0  0  0  0  0  0  0  0
  1  6  1  0  0  0  0
  1  7  1  0  0  0  0
  2  1  2  0  0  0  0
  3  4  2  0  0  0  0
  3  2  1  0  0  0  0
  4  5  1  0  0  0  0
  5 26  1  0  0  0  0
  5  6  2  0  0  0  0
  8  3  1  0  0  0  0
  9 10  1  0  0  0  0
  9  2  1  0  0  0  0
 10 19  1  0  0  0  0
 11 20  1  0  0  0  0
 11 10  2  0  0  0  0
 12 11  1  0  0  0  0
 13 12  2  0  0  0  0
 13 18  1  0  0  0  0
 14 13  1  0  0  0  0
 15 14  2  0  0  0  0
 15 16  1  0  0  0  0
 16 17  2  0  0  0  0
 17 18  1  0  0  0  0
 17 25  1  0  0  0  0
 18  9  2  0  0  0  0
 21 12  1  0  0  0  0
 22 14  1  0  0  0  0
 23 15  1  0  0  0  0
 24 16  1  0  0  0  0
 26 27  2  0  0  0  0
 28 26  1  0  0  0  0
 29 28  1  0  0  0  0
 29 30  1  0  0  0  0
 31 29  2  0  0  0  0
 32 31  1  0  0  0  0
 33 31  1  0  0  0  0
 33 35  1  0  0  0  0
 34 33  1  0  0  0  0
 35 28  2  0  0  0  0
M  END
>  <minimizedAffinity>
-6.10539198

$$$$

 OpenBabel03212520363D

 35 38  0  0  0  0  0  0  0  0999 V2000
   40.1790   73.2290   61.6540 C   0  0  0  0  0  0  0  0  0  0  0  0
   40.1340   73.2750   60.2470 C   0  0  0  0  0  0  0  0  0  0  0  0
   40.8590   72.2840   59.4810 C   0  0  0  0  0  0  0  0  0  0  0  0
   41.5490   71.3540   60.1960 N   0  0  0  0  0  0  0  0  0  0  0  0
   41.5580   71.3500   61.5770 C   0  0  0  0  0  0  0  0  0  0  0  0
   40.8790   72.2810   62.2860 N   0  0  0  0  0  0  0  0  0  0  0  0
   39.7340   73.9620   62.2700 H   0  0  0  0  0  0  0  0  0  0  0  0
   40.9400   72.1480   58.4300 H   0  0  0  0  0  0  0  0  0  0  0  0
   39.4410   74.2230   59.3990 C   0  0  0  0  0  0  0  0  0  0  0  0
   38.4530   73.6400   58.5770 C   0  0  0  0  0  0  0  0  0  0  0  0
   37.7300   74.3280   57.6560 C   0  0  0  0  0  0  0  0  0  0  0  0
   37.9560   75.6900   57.4900 C   0  0  0  0  0  0  0  0  0  0  0  0
   38.9130   76.2790   58.2840 C   0  0  0  0  0  0  0  0  0  0  0  0
   39.2030   77.6130   58.1990 C   0  0  0  0  0  0  0  0  0  0  0  0
   40.1700   78.1960   59.0160 C   0  0  0  0  0  0  0  0  0  0  0  0
   40.8800   77.4540   59.9520 C   0  0  0  0  0  0  0  0  0  0  0  0
   40.5870   76.1040   60.0380 C   0  0  0  0  0  0  0  0  0  0  0  0
   39.6470   75.5720   59.2260 C   0  0  0  0  0  0  0  0  0  0  0  0
   38.1530   72.6010   58.5600 H   0  0  0  0  0  0  0  0  0  0  0  0
   36.9670   73.9390   57.0020 H   0  0  0  0  0  0  0  0  0  0  0  0
   37.4610   76.3590   56.8000 H   0  0  0  0  0  0  0  0  0  0  0  0
   38.6640   78.2120   57.4800 H   0  0  0  0  0  0  0  0  0  0  0  0
   40.3200   79.2690   58.8620 H   0  0  0  0  0  0  0  0  0  0  0  0
   41.5960   77.9960   60.5280 H   0  0  0  0  0  0  0  0  0  0  0  0
   41.1490   75.6720   60.8290 H   0  0  0  0  0  0  0  0  0  0  0  0
   42.3120   70.3320   62.3180 C   0  0  0  0  0  0  0  0  0  0  0  0
   42.7050   70.5160   63.4900 O   0  0  0  0  0  0  0  0  0  0  0  0
   42.6200   69.0590   61.6800 C   0  0  0  0  0  0  0  0  0  0  0  0
   43.8920   68.6150   61.3780 C   0  0  0  0  0  0  0  0  0  0  0  0
   44.8220   69.1320   61.5630 H   0  0  0  0  0  0  0  0  0  0  0  0
   43.8170   67.3730   60.7810 C   0  0  0  0  0  0  0  0  0  0  0  0
   44.6120   66.7320   60.4160 H   0  0  0  0  0  0  0  0  0  0  0  0
   42.4810   67.0950   60.7390 N   0  0  0  0  0  0  0  0  0  0  0  0
   42.1370   66.1950   60.3270 H   0  0  0  0  0  0  0  0  0  0  0  0
   41.7760   68.0890   61.2690 N   0  0  0  0  0  0  0  0  0  0  0  0
  1  7  1  0  0  0  0
  1  6  1  0  0  0  0
  2  1  2  0  0  0  0
  3  4  2  0  0  0  0
  3  2  1  0  0  0  0
  4  5  1  0  0  0  0
  5  6  2  0  0  0  0
  5 26  1  0  0  0  0
  8  3  1  0  0  0  0
  9  2  1  0  0  0  0
 10  9  2  0  0  0  0
 11 10  1  0  0  0  0
 12 11  2  0  0  0  0
 12 13  1  0  0  0  0
 13 18  1  0  0  0  0
 14 13  2  0  0  0  0
 14 15  1  0  0  0  0
 15 16  2  0  0  0  0
 16 17  1  0  0  0  0
 16 24  1  0  0  0  0
 17 25  1  0  0  0  0
 18  9  1  0  0  0  0
 18 17  2  0  0  0  0
 19 10  1  0  0  0  0
 20 11  1  0  0  0  0
 21 12  1  0  0  0  0
 22 14  1  0  0  0  0
 23 15  1  0  0  0  0
 26 27  2  0  0  0  0
 28 26  1  0  0  0  0
 29 30  1  0  0  0  0
 29 28  1  0  0  0  0
 31 29  2  0  0  0  0
 32 31  1  0  0  0  0
 33 31  1  0  0  0  0
 33 35  1  0  0  0  0
 34 33  1  0  0  0  0
 35 28  2  0  0  0  0
M  END
>  <minimizedAffinity>
-5.96839714

$$$$
