
 OpenBabel03212521093D

 19 20  0  0  0  0  0  0  0  0999 V2000
   39.9280   85.1430   59.0090 C   0  0  0  0  0  0  0  0  0  0  0  0
   39.0720   85.9900   58.6010 O   0  0  0  0  0  0  0  0  0  0  0  0
   39.9930   81.9560   60.8780 C   0  0  0  0  0  0  0  0  0  0  0  0
   40.2300   82.8970   59.8730 C   0  0  0  0  0  0  0  0  0  0  0  0
   39.6940   84.1610   60.0310 C   0  0  0  0  0  0  0  0  0  0  0  0
   38.9680   84.4240   61.1520 N   0  0  0  0  0  0  0  0  0  0  0  0
   38.7490   83.4980   62.1190 C   0  0  0  0  0  0  0  0  0  0  0  0
   39.2720   82.2490   61.9740 N   0  0  0  0  0  0  0  0  0  0  0  0
   40.3980   80.9530   60.7880 H   0  0  0  0  0  0  0  0  0  0  0  0
   40.8150   82.5550   59.0470 H   0  0  0  0  0  0  0  0  0  0  0  0
   38.1520   83.8910   62.9300 H   0  0  0  0  0  0  0  0  0  0  0  0
   41.2230   85.2530   58.3260 C   0  0  0  0  0  0  0  0  0  0  0  0
   41.6340   84.4840   57.2560 C   0  0  0  0  0  0  0  0  0  0  0  0
   41.1010   83.6780   56.7290 H   0  0  0  0  0  0  0  0  0  0  0  0
   42.9170   84.8380   56.8380 C   0  0  0  0  0  0  0  0  0  0  0  0
   43.4860   84.4030   56.0240 H   0  0  0  0  0  0  0  0  0  0  0  0
   43.2470   85.8290   57.6870 N   0  0  0  0  0  0  0  0  0  0  0  0
   44.1590   86.3340   57.6600 H   0  0  0  0  0  0  0  0  0  0  0  0
   42.2720   86.0670   58.5440 N   0  0  0  0  0  0  0  0  0  0  0  0
  1  5  1  0  0  0  0
  2  1  2  0  0  0  0
  3  8  1  0  0  0  0
  4  5  1  0  0  0  0
  4  3  2  0  0  0  0
  5  6  2  0  0  0  0
  6  7  1  0  0  0  0
  7 11  1  0  0  0  0
  8  7  2  0  0  0  0
  9  3  1  0  0  0  0
 10  4  1  0  0  0  0
 12 19  2  0  0  0  0
 12  1  1  0  0  0  0
 13 12  1  0  0  0  0
 14 13  1  0  0  0  0
 15 13  2  0  0  0  0
 15 17  1  0  0  0  0
 16 15  1  0  0  0  0
 17 19  1  0  0  0  0
 18 17  1  0  0  0  0
M  END
>  <minimizedAffinity>
-4.4053483

>  <minimizedRMSD>
1.03912282

$$$$
