
 OpenBabel03212521093D

 19 20  0  0  0  0  0  0  0  0999 V2000
   39.6920   85.1760   59.0400 C   0  0  0  0  0  0  0  0  0  0  0  0
   38.8190   86.0610   58.7710 O   0  0  0  0  0  0  0  0  0  0  0  0
   39.9800   81.9590   60.8340 C   0  0  0  0  0  0  0  0  0  0  0  0
   40.1160   82.9240   59.8340 C   0  0  0  0  0  0  0  0  0  0  0  0
   39.5610   84.1700   60.0560 C   0  0  0  0  0  0  0  0  0  0  0  0
   38.9150   84.3930   61.2340 N   0  0  0  0  0  0  0  0  0  0  0  0
   38.7930   83.4440   62.1960 C   0  0  0  0  0  0  0  0  0  0  0  0
   39.3350   82.2120   61.9870 N   0  0  0  0  0  0  0  0  0  0  0  0
   40.4020   80.9690   60.6940 H   0  0  0  0  0  0  0  0  0  0  0  0
   40.6460   82.6130   58.9590 H   0  0  0  0  0  0  0  0  0  0  0  0
   38.2490   83.8060   63.0560 H   0  0  0  0  0  0  0  0  0  0  0  0
   40.8910   85.2690   58.1950 C   0  0  0  0  0  0  0  0  0  0  0  0
   41.5790   84.1990   57.6570 C   0  0  0  0  0  0  0  0  0  0  0  0
   41.3780   83.1220   57.7510 H   0  0  0  0  0  0  0  0  0  0  0  0
   42.6700   84.6270   56.9030 C   0  0  0  0  0  0  0  0  0  0  0  0
   43.3820   84.0070   56.3690 H   0  0  0  0  0  0  0  0  0  0  0  0
   42.6060   85.9660   57.0100 N   0  0  0  0  0  0  0  0  0  0  0  0
   43.2850   86.6180   56.5570 H   0  0  0  0  0  0  0  0  0  0  0  0
   41.5810   86.3360   57.7540 N   0  0  0  0  0  0  0  0  0  0  0  0
  1  5  1  0  0  0  0
  2  1  2  0  0  0  0
  3  8  1  0  0  0  0
  4  5  1  0  0  0  0
  4  3  2  0  0  0  0
  5  6  2  0  0  0  0
  6  7  1  0  0  0  0
  7 11  1  0  0  0  0
  8  7  2  0  0  0  0
  9  3  1  0  0  0  0
 10  4  1  0  0  0  0
 12  1  1  0  0  0  0
 13 14  1  0  0  0  0
 13 12  1  0  0  0  0
 15 17  1  0  0  0  0
 15 13  2  0  0  0  0
 16 15  1  0  0  0  0
 17 19  1  0  0  0  0
 18 17  1  0  0  0  0
 19 12  2  0  0  0  0
M  END
>  <minimizedAffinity>
-4.60142469

>  <minimizedRMSD>
0.388235748

$$$$
