
 OpenBabel03212520353D

 35 38  0  0  0  0  0  0  0  0999 V2000
   40.3500   82.7340   58.3090 C   0  0  0  0  0  0  0  0  0  0  0  0
   40.3330   81.3410   58.0990 C   0  0  0  0  0  0  0  0  0  0  0  0
   40.1810   80.4540   59.2320 C   0  0  0  0  0  0  0  0  0  0  0  0
   40.0600   81.0470   60.4510 N   0  0  0  0  0  0  0  0  0  0  0  0
   40.0790   82.4190   60.6040 C   0  0  0  0  0  0  0  0  0  0  0  0
   40.2230   83.2420   59.5390 N   0  0  0  0  0  0  0  0  0  0  0  0
   40.5300   83.4320   57.5380 H   0  0  0  0  0  0  0  0  0  0  0  0
   40.1370   79.3940   59.2770 H   0  0  0  0  0  0  0  0  0  0  0  0
   40.4630   80.6180   56.8510 C   0  0  0  0  0  0  0  0  0  0  0  0
   41.7890   80.2540   56.5350 C   0  0  0  0  0  0  0  0  0  0  0  0
   42.1520   79.6330   55.3830 C   0  0  0  0  0  0  0  0  0  0  0  0
   41.1790   79.3250   54.4380 C   0  0  0  0  0  0  0  0  0  0  0  0
   39.8780   79.6680   54.7270 C   0  0  0  0  0  0  0  0  0  0  0  0
   38.8500   79.4020   53.8650 C   0  0  0  0  0  0  0  0  0  0  0  0
   37.5370   79.7490   54.1760 C   0  0  0  0  0  0  0  0  0  0  0  0
   37.2100   80.3770   55.3730 C   0  0  0  0  0  0  0  0  0  0  0  0
   38.2510   80.6460   56.2460 C   0  0  0  0  0  0  0  0  0  0  0  0
   39.5120   80.3000   55.9080 C   0  0  0  0  0  0  0  0  0  0  0  0
   42.6700   80.4220   57.1400 H   0  0  0  0  0  0  0  0  0  0  0  0
   43.1430   79.3330   55.0870 H   0  0  0  0  0  0  0  0  0  0  0  0
   41.3200   78.8370   53.4840 H   0  0  0  0  0  0  0  0  0  0  0  0
   39.0770   78.9130   52.9290 H   0  0  0  0  0  0  0  0  0  0  0  0
   36.7970   79.4900   53.4140 H   0  0  0  0  0  0  0  0  0  0  0  0
   36.1770   80.5970   55.5140 H   0  0  0  0  0  0  0  0  0  0  0  0
   37.8590   81.0650   57.1400 H   0  0  0  0  0  0  0  0  0  0  0  0
   39.9440   83.0270   61.9320 C   0  0  0  0  0  0  0  0  0  0  0  0
   38.8310   83.2470   62.4550 O   0  0  0  0  0  0  0  0  0  0  0  0
   41.1400   83.3940   62.6800 C   0  0  0  0  0  0  0  0  0  0  0  0
   42.3990   82.8710   62.4600 C   0  0  0  0  0  0  0  0  0  0  0  0
   42.6770   82.1330   61.7230 H   0  0  0  0  0  0  0  0  0  0  0  0
   43.2940   83.4390   63.3450 C   0  0  0  0  0  0  0  0  0  0  0  0
   44.3590   83.2670   63.4580 H   0  0  0  0  0  0  0  0  0  0  0  0
   42.5400   84.3030   64.0860 N   0  0  0  0  0  0  0  0  0  0  0  0
   42.9780   84.8760   64.8450 H   0  0  0  0  0  0  0  0  0  0  0  0
   41.2700   84.2760   63.6940 N   0  0  0  0  0  0  0  0  0  0  0  0
  1  6  1  0  0  0  0
  2  1  2  0  0  0  0
  2  3  1  0  0  0  0
  3  8  1  0  0  0  0
  3  4  2  0  0  0  0
  4  5  1  0  0  0  0
  5 26  1  0  0  0  0
  6  5  2  0  0  0  0
  7  1  1  0  0  0  0
  9  2  1  0  0  0  0
 10  9  1  0  0  0  0
 10 19  1  0  0  0  0
 11 10  2  0  0  0  0
 12 13  2  0  0  0  0
 12 11  1  0  0  0  0
 13 18  1  0  0  0  0
 14 15  2  0  0  0  0
 14 13  1  0  0  0  0
 15 16  1  0  0  0  0
 16 24  1  0  0  0  0
 16 17  2  0  0  0  0
 17 25  1  0  0  0  0
 18 17  1  0  0  0  0
 18  9  2  0  0  0  0
 20 11  1  0  0  0  0
 21 12  1  0  0  0  0
 22 14  1  0  0  0  0
 23 15  1  0  0  0  0
 26 27  2  0  0  0  0
 26 28  1  0  0  0  0
 28 35  2  0  0  0  0
 29 28  1  0  0  0  0
 29 31  2  0  0  0  0
 30 29  1  0  0  0  0
 31 32  1  0  0  0  0
 31 33  1  0  0  0  0
 33 34  1  0  0  0  0
 35 33  1  0  0  0  0
M  END
>  <minimizedAffinity>
-6.01182938

>  <minimizedRMSD>
3.39406252

$$$$
