
 OpenBabel03212521093D

 19 20  0  0  0  0  0  0  0  0999 V2000
   39.9130   85.2160   59.0190 C   0  0  0  0  0  0  0  0  0  0  0  0
   39.0350   86.0350   58.6020 O   0  0  0  0  0  0  0  0  0  0  0  0
   39.9630   81.9470   60.7430 C   0  0  0  0  0  0  0  0  0  0  0  0
   40.1920   82.9280   59.7750 C   0  0  0  0  0  0  0  0  0  0  0  0
   39.6850   84.1940   60.0030 C   0  0  0  0  0  0  0  0  0  0  0  0
   38.9930   84.4190   61.1530 N   0  0  0  0  0  0  0  0  0  0  0  0
   38.7800   83.4550   62.0830 C   0  0  0  0  0  0  0  0  0  0  0  0
   39.2750   82.2040   61.8690 N   0  0  0  0  0  0  0  0  0  0  0  0
   40.3460   80.9430   60.5980 H   0  0  0  0  0  0  0  0  0  0  0  0
   40.7500   82.6130   58.9200 H   0  0  0  0  0  0  0  0  0  0  0  0
   38.2120   83.8220   62.9260 H   0  0  0  0  0  0  0  0  0  0  0  0
   41.2270   85.4050   58.3920 C   0  0  0  0  0  0  0  0  0  0  0  0
   42.3930   85.7350   59.0540 C   0  0  0  0  0  0  0  0  0  0  0  0
   42.5600   85.9120   60.1270 H   0  0  0  0  0  0  0  0  0  0  0  0
   43.4670   85.8400   58.1710 C   0  0  0  0  0  0  0  0  0  0  0  0
   44.4950   86.0850   58.4130 H   0  0  0  0  0  0  0  0  0  0  0  0
   42.9050   85.5650   56.9800 N   0  0  0  0  0  0  0  0  0  0  0  0
   43.4320   85.5540   56.0790 H   0  0  0  0  0  0  0  0  0  0  0  0
   41.6160   85.3150   57.1070 N   0  0  0  0  0  0  0  0  0  0  0  0
  1  5  1  0  0  0  0
  2  1  2  0  0  0  0
  3  8  1  0  0  0  0
  4  5  1  0  0  0  0
  4  3  2  0  0  0  0
  5  6  2  0  0  0  0
  6  7  1  0  0  0  0
  7 11  1  0  0  0  0
  8  7  2  0  0  0  0
  9  3  1  0  0  0  0
 10  4  1  0  0  0  0
 12  1  1  0  0  0  0
 12 13  1  0  0  0  0
 13 14  1  0  0  0  0
 15 16  1  0  0  0  0
 15 13  2  0  0  0  0
 17 19  1  0  0  0  0
 17 15  1  0  0  0  0
 18 17  1  0  0  0  0
 19 12  2  0  0  0  0
M  END
>  <minimizedAffinity>
-4.68940926

>  <minimizedRMSD>
0.904450119

$$$$
