
 OpenBabel03212521093D

 19 20  0  0  0  0  0  0  0  0999 V2000
   39.6690   85.0980   59.0000 C   0  0  0  0  0  0  0  0  0  0  0  0
   38.9050   86.1040   58.8550 O   0  0  0  0  0  0  0  0  0  0  0  0
   39.9910   81.9300   60.8740 C   0  0  0  0  0  0  0  0  0  0  0  0
   40.1090   82.8680   59.8470 C   0  0  0  0  0  0  0  0  0  0  0  0
   39.5560   84.1190   60.0450 C   0  0  0  0  0  0  0  0  0  0  0  0
   38.9270   84.3710   61.2250 N   0  0  0  0  0  0  0  0  0  0  0  0
   38.8210   83.4480   62.2140 C   0  0  0  0  0  0  0  0  0  0  0  0
   39.3630   82.2120   62.0290 N   0  0  0  0  0  0  0  0  0  0  0  0
   40.4130   80.9370   60.7530 H   0  0  0  0  0  0  0  0  0  0  0  0
   40.6270   82.5350   58.9730 H   0  0  0  0  0  0  0  0  0  0  0  0
   38.2890   83.8320   63.0720 H   0  0  0  0  0  0  0  0  0  0  0  0
   40.7180   85.0140   57.9740 C   0  0  0  0  0  0  0  0  0  0  0  0
   41.4900   83.9030   57.7030 C   0  0  0  0  0  0  0  0  0  0  0  0
   41.4770   82.9100   58.1790 H   0  0  0  0  0  0  0  0  0  0  0  0
   42.3920   84.1510   56.6700 C   0  0  0  0  0  0  0  0  0  0  0  0
   43.1180   83.4610   56.2520 H   0  0  0  0  0  0  0  0  0  0  0  0
   42.1310   85.4290   56.3420 N   0  0  0  0  0  0  0  0  0  0  0  0
   42.6330   85.9480   55.5890 H   0  0  0  0  0  0  0  0  0  0  0  0
   41.1670   85.9260   57.0920 N   0  0  0  0  0  0  0  0  0  0  0  0
  1  5  1  0  0  0  0
  2  1  2  0  0  0  0
  3  8  1  0  0  0  0
  4  5  1  0  0  0  0
  4  3  2  0  0  0  0
  5  6  2  0  0  0  0
  6  7  1  0  0  0  0
  7 11  1  0  0  0  0
  8  7  2  0  0  0  0
  9  3  1  0  0  0  0
 10  4  1  0  0  0  0
 12  1  1  0  0  0  0
 13 12  1  0  0  0  0
 13 14  1  0  0  0  0
 15 13  2  0  0  0  0
 16 15  1  0  0  0  0
 17 15  1  0  0  0  0
 17 19  1  0  0  0  0
 18 17  1  0  0  0  0
 19 12  2  0  0  0  0
M  END
>  <minimizedAffinity>
-4.87809372

>  <minimizedRMSD>
0.462585568

$$$$
