
 OpenBabel03212521093D

 19 20  0  0  0  0  0  0  0  0999 V2000
   39.7570   85.2970   59.1990 C   0  0  0  0  0  0  0  0  0  0  0  0
   38.8020   85.9760   58.7080 O   0  0  0  0  0  0  0  0  0  0  0  0
   39.9560   81.8940   60.6260 C   0  0  0  0  0  0  0  0  0  0  0  0
   40.1130   82.9580   59.7350 C   0  0  0  0  0  0  0  0  0  0  0  0
   39.6040   84.1900   60.1010 C   0  0  0  0  0  0  0  0  0  0  0  0
   38.9790   84.3020   61.3050 N   0  0  0  0  0  0  0  0  0  0  0  0
   38.8350   83.2580   62.1590 C   0  0  0  0  0  0  0  0  0  0  0  0
   39.3330   82.0400   61.8090 N   0  0  0  0  0  0  0  0  0  0  0  0
   40.3430   80.9120   60.3720 H   0  0  0  0  0  0  0  0  0  0  0  0
   40.6230   82.7280   58.8250 H   0  0  0  0  0  0  0  0  0  0  0  0
   38.3130   83.5410   63.0620 H   0  0  0  0  0  0  0  0  0  0  0  0
   41.0810   85.7510   58.7530 C   0  0  0  0  0  0  0  0  0  0  0  0
   42.2680   85.5550   59.4290 C   0  0  0  0  0  0  0  0  0  0  0  0
   42.4490   85.0470   60.3890 H   0  0  0  0  0  0  0  0  0  0  0  0
   43.3440   86.1080   58.7370 C   0  0  0  0  0  0  0  0  0  0  0  0
   44.3880   86.1020   59.0330 H   0  0  0  0  0  0  0  0  0  0  0  0
   42.7630   86.6290   57.6420 N   0  0  0  0  0  0  0  0  0  0  0  0
   43.2860   87.1300   56.8900 H   0  0  0  0  0  0  0  0  0  0  0  0
   41.4600   86.4240   57.6510 N   0  0  0  0  0  0  0  0  0  0  0  0
  1  5  1  0  0  0  0
  2  1  2  0  0  0  0
  3  8  1  0  0  0  0
  4  5  1  0  0  0  0
  4  3  2  0  0  0  0
  5  6  2  0  0  0  0
  6  7  1  0  0  0  0
  7 11  1  0  0  0  0
  8  7  2  0  0  0  0
  9  3  1  0  0  0  0
 10  4  1  0  0  0  0
 12  1  1  0  0  0  0
 12 13  1  0  0  0  0
 13 14  1  0  0  0  0
 15 16  1  0  0  0  0
 15 13  2  0  0  0  0
 17 19  1  0  0  0  0
 17 15  1  0  0  0  0
 18 17  1  0  0  0  0
 19 12  2  0  0  0  0
M  END
>  <minimizedAffinity>
-4.87720394

>  <minimizedRMSD>
0.97509253

$$$$
