
 OpenBabel03212520123D

 30 32  0  0  0  0  0  0  0  0999 V2000
   42.8470   84.4900   58.6520 Cl  0  0  0  0  0  0  0  0  0  0  0  0
   41.8200   83.1100   58.2780 C   0  0  0  0  0  0  0  0  0  0  0  0
   41.0950   82.4350   59.2370 C   0  0  0  0  0  0  0  0  0  0  0  0
   40.3360   81.3730   58.7810 C   0  0  0  0  0  0  0  0  0  0  0  0
   40.2510   80.9480   57.4640 C   0  0  0  0  0  0  0  0  0  0  0  0
   40.9810   81.6420   56.5550 C   0  0  0  0  0  0  0  0  0  0  0  0
   40.9400   81.1780   54.8520 Cl  0  0  0  0  0  0  0  0  0  0  0  0
   41.7620   82.7170   56.9540 C   0  0  0  0  0  0  0  0  0  0  0  0
   39.7620   80.8320   59.5230 H   0  0  0  0  0  0  0  0  0  0  0  0
   39.6320   80.1060   57.1940 H   0  0  0  0  0  0  0  0  0  0  0  0
   42.1270   82.4820   61.5540 C   0  0  0  0  0  0  0  0  0  0  0  0
   41.1700   82.8570   60.5980 C   0  0  0  0  0  0  0  0  0  0  0  0
   40.1670   83.7410   61.0010 C   0  0  0  0  0  0  0  0  0  0  0  0
   40.1970   84.1730   62.2920 N   0  0  0  0  0  0  0  0  0  0  0  0
   41.1200   83.7990   63.1820 C   0  0  0  0  0  0  0  0  0  0  0  0
   42.0930   82.9460   62.8070 N   0  0  0  0  0  0  0  0  0  0  0  0
   42.8840   81.7930   61.1930 H   0  0  0  0  0  0  0  0  0  0  0  0
   39.3890   84.0830   60.3270 H   0  0  0  0  0  0  0  0  0  0  0  0
   40.9930   84.3730   64.5510 C   0  0  0  0  0  0  0  0  0  0  0  0
   40.6010   85.6900   64.5180 F   0  0  0  0  0  0  0  0  0  0  0  0
   40.0460   83.6600   65.2560 F   0  0  0  0  0  0  0  0  0  0  0  0
   42.2140   84.3520   65.2200 F   0  0  0  0  0  0  0  0  0  0  0  0
   42.5190   83.4160   55.9200 C   0  0  0  0  0  0  0  0  0  0  0  0
   43.7580   82.9120   55.5820 C   0  0  0  0  0  0  0  0  0  0  0  0
   44.3450   82.0850   55.9060 H   0  0  0  0  0  0  0  0  0  0  0  0
   44.2580   83.7560   54.5830 C   0  0  0  0  0  0  0  0  0  0  0  0
   45.1730   83.7970   53.9930 H   0  0  0  0  0  0  0  0  0  0  0  0
   43.3210   84.7220   54.3570 N   0  0  0  0  0  0  0  0  0  0  0  0
   43.2550   85.5520   53.7140 H   0  0  0  0  0  0  0  0  0  0  0  0
   42.2920   84.5100   55.1550 N   0  0  0  0  0  0  0  0  0  0  0  0
  2  1  1  0  0  0  0
  2  3  1  0  0  0  0
  3 12  1  0  0  0  0
  4  3  2  0  0  0  0
  4  9  1  0  0  0  0
  5  4  1  0  0  0  0
  6  8  1  0  0  0  0
  6  5  2  0  0  0  0
  7  6  1  0  0  0  0
  8  2  2  0  0  0  0
 10  5  1  0  0  0  0
 11 16  1  0  0  0  0
 12 13  1  0  0  0  0
 12 11  2  0  0  0  0
 13 14  2  0  0  0  0
 14 15  1  0  0  0  0
 15 19  1  0  0  0  0
 16 15  2  0  0  0  0
 17 11  1  0  0  0  0
 18 13  1  0  0  0  0
 19 22  1  0  0  0  0
 19 21  1  0  0  0  0
 20 19  1  0  0  0  0
 23  8  1  0  0  0  0
 24 25  1  0  0  0  0
 24 23  1  0  0  0  0
 26 24  2  0  0  0  0
 27 26  1  0  0  0  0
 28 26  1  0  0  0  0
 28 30  1  0  0  0  0
 29 28  1  0  0  0  0
 30 23  2  0  0  0  0
M  END
>  <minimizedAffinity>
-5.64532423

>  <minimizedRMSD>
0.984844804

$$$$
