
 OpenBabel03212520123D

 30 31  0  0  0  0  0  0  0  0999 V2000
   42.2890   83.8670   58.3280 Cl  0  0  0  0  0 15  0  0  0  0  0  0
   41.2600   82.4440   58.1920 C   0  0  0  0  0  3  0  0  0  0  0  0
   40.6610   81.8480   59.2810 C   0  0  0  0  0  0  0  0  0  0  0  0
   39.8830   80.7380   59.0060 C   0  0  0  0  0  0  0  0  0  0  0  0
   39.6650   80.1950   57.7490 C   0  0  0  0  0  0  0  0  0  0  0  0
   40.2750   80.8150   56.7070 C   0  0  0  0  0  0  0  0  0  0  0  0
   40.0590   80.2010   55.0670 Cl  0  0  0  0  0  0  0  0  0  0  0  0
   41.0680   81.9330   56.9210 C   0  0  0  0  0  0  0  0  0  0  0  0
   39.4060   80.2580   59.8520 H   0  0  0  0  0  0  0  0  0  0  0  0
   39.0400   79.3230   57.6240 H   0  0  0  0  0  0  0  0  0  0  0  0
   41.9440   82.1270   61.4510 C   0  0  0  0  0  0  0  0  0  0  0  0
   40.8730   82.3910   60.5830 C   0  0  0  0  0  0  0  0  0  0  0  0
   39.8910   83.2820   61.0220 C   0  0  0  0  0  0  0  0  0  0  0  0
   40.0510   83.8270   62.2590 N   0  0  0  0  0  0  0  0  0  0  0  0
   41.0810   83.5580   63.0650 C   0  0  0  0  0  0  0  0  0  0  0  0
   42.0360   82.7000   62.6550 N   0  0  0  0  0  0  0  0  0  0  0  0
   42.6800   81.4290   61.0650 H   0  0  0  0  0  0  0  0  0  0  0  0
   39.0300   83.5420   60.4150 H   0  0  0  0  0  0  0  0  0  0  0  0
   41.0880   84.2480   64.3850 C   0  0  0  0  0  0  0  0  0  0  0  0
   40.7760   85.5810   64.2660 F   0  0  0  0  0  0  0  0  0  0  0  0
   40.1530   83.6600   65.2110 F   0  0  0  0  0  0  0  0  0  0  0  0
   42.3510   84.2000   64.9700 F   0  0  0  0  0  0  0  0  0  0  0  0
   41.6900   82.5470   55.7530 C   0  0  0  0  0  0  0  0  0  0  0  0
   42.2370   83.8040   55.9030 C   0  0  0  0  0  0  0  0  0  0  0  0
   42.3270   84.4900   56.7130 H   0  0  0  0  0  0  0  0  0  0  0  0
   42.7590   84.1510   54.6520 C   0  0  0  0  0  0  0  0  0  0  0  0
   43.2820   85.0170   54.2450 H   0  0  0  0  0  0  0  0  0  0  0  0
   42.5130   83.1100   53.8050 N   0  0  0  0  0  0  0  0  0  0  0  0
   42.7150   82.9200   52.7900 H   0  0  0  0  0  0  0  0  0  0  0  0
   41.8780   82.1630   54.4690 N   0  0  0  0  0  0  0  0  0  0  0  0
  2  3  1  0  0  0  0
  3 12  1  0  0  0  0
  4  3  2  0  0  0  0
  4  9  1  0  0  0  0
  5  4  1  0  0  0  0
  6  8  1  0  0  0  0
  6  5  2  0  0  0  0
  7  6  1  0  0  0  0
  8  2  2  0  0  0  0
 10  5  1  0  0  0  0
 11 16  1  0  0  0  0
 12 13  1  0  0  0  0
 12 11  2  0  0  0  0
 13 14  2  0  0  0  0
 14 15  1  0  0  0  0
 15 19  1  0  0  0  0
 16 15  2  0  0  0  0
 17 11  1  0  0  0  0
 18 13  1  0  0  0  0
 19 22  1  0  0  0  0
 19 21  1  0  0  0  0
 20 19  1  0  0  0  0
 23 24  1  0  0  0  0
 23  8  1  0  0  0  0
 24 25  1  0  0  0  0
 26 24  2  0  0  0  0
 27 26  1  0  0  0  0
 28 30  1  0  0  0  0
 28 26  1  0  0  0  0
 29 28  1  0  0  0  0
 30 23  2  0  0  0  0
M  END
>  <minimizedAffinity>
-5.63535833

>  <minimizedRMSD>
0.336422116

$$$$
