
 OpenBabel03212520123D

 30 32  0  0  0  0  0  0  0  0999 V2000
   42.8490   84.4860   58.6500 Cl  0  0  0  0  0  0  0  0  0  0  0  0
   41.8210   83.1070   58.2740 C   0  0  0  0  0  0  0  0  0  0  0  0
   41.0960   82.4310   59.2330 C   0  0  0  0  0  0  0  0  0  0  0  0
   40.3370   81.3690   58.7760 C   0  0  0  0  0  0  0  0  0  0  0  0
   40.2520   80.9450   57.4590 C   0  0  0  0  0  0  0  0  0  0  0  0
   40.9820   81.6400   56.5500 C   0  0  0  0  0  0  0  0  0  0  0  0
   40.9410   81.1770   54.8470 Cl  0  0  0  0  0  0  0  0  0  0  0  0
   41.7630   82.7150   56.9500 C   0  0  0  0  0  0  0  0  0  0  0  0
   39.7620   80.8280   59.5170 H   0  0  0  0  0  0  0  0  0  0  0  0
   39.6320   80.1030   57.1880 H   0  0  0  0  0  0  0  0  0  0  0  0
   42.1200   82.4660   61.5540 C   0  0  0  0  0  0  0  0  0  0  0  0
   41.1710   82.8520   60.5940 C   0  0  0  0  0  0  0  0  0  0  0  0
   40.1770   83.7470   60.9940 C   0  0  0  0  0  0  0  0  0  0  0  0
   40.2070   84.1780   62.2850 N   0  0  0  0  0  0  0  0  0  0  0  0
   41.1230   83.7950   63.1780 C   0  0  0  0  0  0  0  0  0  0  0  0
   42.0880   82.9310   62.8060 N   0  0  0  0  0  0  0  0  0  0  0  0
   42.8720   81.7700   61.1950 H   0  0  0  0  0  0  0  0  0  0  0  0
   39.4040   84.0970   60.3170 H   0  0  0  0  0  0  0  0  0  0  0  0
   40.9970   84.3690   64.5460 C   0  0  0  0  0  0  0  0  0  0  0  0
   40.6030   85.6860   64.5130 F   0  0  0  0  0  0  0  0  0  0  0  0
   40.0520   83.6560   65.2540 F   0  0  0  0  0  0  0  0  0  0  0  0
   42.2190   84.3510   65.2130 F   0  0  0  0  0  0  0  0  0  0  0  0
   42.5200   83.4140   55.9160 C   0  0  0  0  0  0  0  0  0  0  0  0
   43.7590   82.9110   55.5780 C   0  0  0  0  0  0  0  0  0  0  0  0
   44.3450   82.0820   55.9010 H   0  0  0  0  0  0  0  0  0  0  0  0
   44.2600   83.7550   54.5810 C   0  0  0  0  0  0  0  0  0  0  0  0
   45.1750   83.7970   53.9910 H   0  0  0  0  0  0  0  0  0  0  0  0
   43.3240   84.7230   54.3570 N   0  0  0  0  0  0  0  0  0  0  0  0
   43.2590   85.5540   53.7160 H   0  0  0  0  0  0  0  0  0  0  0  0
   42.2960   84.5100   55.1550 N   0  0  0  0  0  0  0  0  0  0  0  0
  2  1  1  0  0  0  0
  2  3  1  0  0  0  0
  3 12  1  0  0  0  0
  4  3  2  0  0  0  0
  4  9  1  0  0  0  0
  5  4  1  0  0  0  0
  6  8  1  0  0  0  0
  6  5  2  0  0  0  0
  7  6  1  0  0  0  0
  8  2  2  0  0  0  0
 10  5  1  0  0  0  0
 11 16  1  0  0  0  0
 12 13  1  0  0  0  0
 12 11  2  0  0  0  0
 13 14  2  0  0  0  0
 14 15  1  0  0  0  0
 15 19  1  0  0  0  0
 16 15  2  0  0  0  0
 17 11  1  0  0  0  0
 18 13  1  0  0  0  0
 19 22  1  0  0  0  0
 19 21  1  0  0  0  0
 20 19  1  0  0  0  0
 23  8  1  0  0  0  0
 24 25  1  0  0  0  0
 24 23  1  0  0  0  0
 26 24  2  0  0  0  0
 27 26  1  0  0  0  0
 28 26  1  0  0  0  0
 28 30  1  0  0  0  0
 29 28  1  0  0  0  0
 30 23  2  0  0  0  0
M  END
>  <minimizedAffinity>
-5.64800882

>  <minimizedRMSD>
1.10764921

$$$$
