
 OpenBabel03212520123D

 30 32  0  0  0  0  0  0  0  0999 V2000
   43.0970   84.7110   59.4080 Cl  0  0  0  0  0  0  0  0  0  0  0  0
   42.0260   83.3370   59.1540 C   0  0  0  0  0  0  0  0  0  0  0  0
   41.8280   82.7620   57.9170 C   0  0  0  0  0  0  0  0  0  0  0  0
   40.9560   81.6890   57.8850 C   0  0  0  0  0  0  0  0  0  0  0  0
   40.2840   81.1610   58.9760 C   0  0  0  0  0  0  0  0  0  0  0  0
   40.5100   81.7590   60.1740 C   0  0  0  0  0  0  0  0  0  0  0  0
   39.7020   81.1600   61.6240 Cl  0  0  0  0  0  0  0  0  0  0  0  0
   41.3750   82.8400   60.2680 C   0  0  0  0  0  0  0  0  0  0  0  0
   40.7890   81.2270   56.9190 H   0  0  0  0  0  0  0  0  0  0  0  0
   39.6190   80.3180   58.8620 H   0  0  0  0  0  0  0  0  0  0  0  0
   42.1000   84.3560   55.9620 C   0  0  0  0  0  0  0  0  0  0  0  0
   42.5100   83.2910   56.7800 C   0  0  0  0  0  0  0  0  0  0  0  0
   43.7150   82.6620   56.4650 C   0  0  0  0  0  0  0  0  0  0  0  0
   44.4030   83.1330   55.3880 N   0  0  0  0  0  0  0  0  0  0  0  0
   43.9900   84.1490   54.6270 C   0  0  0  0  0  0  0  0  0  0  0  0
   42.8280   84.7650   54.9180 N   0  0  0  0  0  0  0  0  0  0  0  0
   41.1580   84.8120   56.2470 H   0  0  0  0  0  0  0  0  0  0  0  0
   44.1050   81.8310   57.0440 H   0  0  0  0  0  0  0  0  0  0  0  0
   44.8730   84.5260   53.4880 C   0  0  0  0  0  0  0  0  0  0  0  0
   46.1780   84.6920   53.8870 F   0  0  0  0  0  0  0  0  0  0  0  0
   44.8400   83.5270   52.5360 F   0  0  0  0  0  0  0  0  0  0  0  0
   44.4840   85.7410   52.9310 F   0  0  0  0  0  0  0  0  0  0  0  0
   41.5690   83.4300   61.5880 C   0  0  0  0  0  0  0  0  0  0  0  0
   42.6460   82.9960   62.3330 C   0  0  0  0  0  0  0  0  0  0  0  0
   43.4260   82.2880   62.1800 H   0  0  0  0  0  0  0  0  0  0  0  0
   42.5970   83.7110   63.5350 C   0  0  0  0  0  0  0  0  0  0  0  0
   43.2020   83.7420   64.4410 H   0  0  0  0  0  0  0  0  0  0  0  0
   41.5130   84.5380   63.4740 N   0  0  0  0  0  0  0  0  0  0  0  0
   41.0850   85.2450   64.1260 H   0  0  0  0  0  0  0  0  0  0  0  0
   40.9100   84.3640   62.3150 N   0  0  0  0  0  0  0  0  0  0  0  0
  2  1  1  0  0  0  0
  2  8  1  0  0  0  0
  3  2  2  0  0  0  0
  4  3  1  0  0  0  0
  4  5  2  0  0  0  0
  5  6  1  0  0  0  0
  6  8  2  0  0  0  0
  6  7  1  0  0  0  0
  8 23  1  0  0  0  0
  9  4  1  0  0  0  0
 10  5  1  0  0  0  0
 11 17  1  0  0  0  0
 11 12  1  0  0  0  0
 12  3  1  0  0  0  0
 13 12  2  0  0  0  0
 13 18  1  0  0  0  0
 14 13  1  0  0  0  0
 15 16  1  0  0  0  0
 15 14  2  0  0  0  0
 16 11  2  0  0  0  0
 19 20  1  0  0  0  0
 19 15  1  0  0  0  0
 21 19  1  0  0  0  0
 22 19  1  0  0  0  0
 23 30  2  0  0  0  0
 23 24  1  0  0  0  0
 24 26  2  0  0  0  0
 25 24  1  0  0  0  0
 26 27  1  0  0  0  0
 28 26  1  0  0  0  0
 28 29  1  0  0  0  0
 30 28  1  0  0  0  0
M  END
>  <minimizedAffinity>
-4.11670828

>  <minimizedRMSD>
7.59620285

$$$$
