
 OpenBabel03212520123D

 30 32  0  0  0  0  0  0  0  0999 V2000
   42.8480   84.4870   58.6510 Cl  0  0  0  0  0  0  0  0  0  0  0  0
   41.8200   83.1080   58.2760 C   0  0  0  0  0  0  0  0  0  0  0  0
   41.0950   82.4330   59.2350 C   0  0  0  0  0  0  0  0  0  0  0  0
   40.3360   81.3710   58.7790 C   0  0  0  0  0  0  0  0  0  0  0  0
   40.2500   80.9460   57.4620 C   0  0  0  0  0  0  0  0  0  0  0  0
   40.9810   81.6400   56.5530 C   0  0  0  0  0  0  0  0  0  0  0  0
   40.9400   81.1770   54.8500 Cl  0  0  0  0  0  0  0  0  0  0  0  0
   41.7620   82.7150   56.9520 C   0  0  0  0  0  0  0  0  0  0  0  0
   39.7610   80.8310   59.5210 H   0  0  0  0  0  0  0  0  0  0  0  0
   39.6310   80.1040   57.1910 H   0  0  0  0  0  0  0  0  0  0  0  0
   42.1240   82.4750   61.5540 C   0  0  0  0  0  0  0  0  0  0  0  0
   41.1700   82.8550   60.5970 C   0  0  0  0  0  0  0  0  0  0  0  0
   40.1710   83.7440   60.9980 C   0  0  0  0  0  0  0  0  0  0  0  0
   40.2010   84.1750   62.2890 N   0  0  0  0  0  0  0  0  0  0  0  0
   41.1210   83.7970   63.1800 C   0  0  0  0  0  0  0  0  0  0  0  0
   42.0910   82.9390   62.8070 N   0  0  0  0  0  0  0  0  0  0  0  0
   42.8790   81.7830   61.1940 H   0  0  0  0  0  0  0  0  0  0  0  0
   39.3950   84.0890   60.3230 H   0  0  0  0  0  0  0  0  0  0  0  0
   40.9950   84.3710   64.5490 C   0  0  0  0  0  0  0  0  0  0  0  0
   40.6020   85.6880   64.5160 F   0  0  0  0  0  0  0  0  0  0  0  0
   40.0490   83.6580   65.2560 F   0  0  0  0  0  0  0  0  0  0  0  0
   42.2160   84.3510   65.2170 F   0  0  0  0  0  0  0  0  0  0  0  0
   42.5190   83.4140   55.9180 C   0  0  0  0  0  0  0  0  0  0  0  0
   43.7580   82.9110   55.5800 C   0  0  0  0  0  0  0  0  0  0  0  0
   44.3450   82.0840   55.9030 H   0  0  0  0  0  0  0  0  0  0  0  0
   44.2600   83.7550   54.5830 C   0  0  0  0  0  0  0  0  0  0  0  0
   45.1740   83.7970   53.9930 H   0  0  0  0  0  0  0  0  0  0  0  0
   43.3230   84.7230   54.3570 N   0  0  0  0  0  0  0  0  0  0  0  0
   43.2570   85.5530   53.7160 H   0  0  0  0  0  0  0  0  0  0  0  0
   42.2930   84.5100   55.1560 N   0  0  0  0  0  0  0  0  0  0  0  0
  2  1  1  0  0  0  0
  2  3  1  0  0  0  0
  3 12  1  0  0  0  0
  4  3  2  0  0  0  0
  4  9  1  0  0  0  0
  5  4  1  0  0  0  0
  6  8  1  0  0  0  0
  6  5  2  0  0  0  0
  7  6  1  0  0  0  0
  8  2  2  0  0  0  0
 10  5  1  0  0  0  0
 11 16  1  0  0  0  0
 12 13  1  0  0  0  0
 12 11  2  0  0  0  0
 13 14  2  0  0  0  0
 14 15  1  0  0  0  0
 15 19  1  0  0  0  0
 16 15  2  0  0  0  0
 17 11  1  0  0  0  0
 18 13  1  0  0  0  0
 19 22  1  0  0  0  0
 19 21  1  0  0  0  0
 20 19  1  0  0  0  0
 23  8  1  0  0  0  0
 24 25  1  0  0  0  0
 24 23  1  0  0  0  0
 26 24  2  0  0  0  0
 27 26  1  0  0  0  0
 28 26  1  0  0  0  0
 28 30  1  0  0  0  0
 29 28  1  0  0  0  0
 30 23  2  0  0  0  0
M  END
>  <minimizedAffinity>
-5.64542389

>  <minimizedRMSD>
1.18853545

$$$$
