
 OpenBabel03212520123D

 30 32  0  0  0  0  0  0  0  0999 V2000
   43.1600   83.8770   58.5710 Cl  0  0  0  0  0  0  0  0  0  0  0  0
   41.8930   82.7190   58.1820 C   0  0  0  0  0  0  0  0  0  0  0  0
   41.0110   82.2320   59.1230 C   0  0  0  0  0  0  0  0  0  0  0  0
   40.0730   81.3280   58.6570 C   0  0  0  0  0  0  0  0  0  0  0  0
   39.9550   80.8890   57.3480 C   0  0  0  0  0  0  0  0  0  0  0  0
   40.8440   81.3970   56.4560 C   0  0  0  0  0  0  0  0  0  0  0  0
   40.7760   80.9000   54.7640 Cl  0  0  0  0  0  0  0  0  0  0  0  0
   41.8080   82.3060   56.8650 C   0  0  0  0  0  0  0  0  0  0  0  0
   39.3740   80.9350   59.3850 H   0  0  0  0  0  0  0  0  0  0  0  0
   39.1900   80.1800   57.0690 H   0  0  0  0  0  0  0  0  0  0  0  0
   41.9520   82.1500   61.4780 C   0  0  0  0  0  0  0  0  0  0  0  0
   41.1160   82.6710   60.4770 C   0  0  0  0  0  0  0  0  0  0  0  0
   40.2850   83.7380   60.8200 C   0  0  0  0  0  0  0  0  0  0  0  0
   40.3510   84.1930   62.1020 N   0  0  0  0  0  0  0  0  0  0  0  0
   41.1560   83.6790   63.0350 C   0  0  0  0  0  0  0  0  0  0  0  0
   41.9630   82.6470   62.7180 N   0  0  0  0  0  0  0  0  0  0  0  0
   42.5780   81.3220   61.1620 H   0  0  0  0  0  0  0  0  0  0  0  0
   39.6090   84.2010   60.1090 H   0  0  0  0  0  0  0  0  0  0  0  0
   41.0910   84.3050   64.3860 C   0  0  0  0  0  0  0  0  0  0  0  0
   40.7510   85.6350   64.3160 F   0  0  0  0  0  0  0  0  0  0  0  0
   40.1370   83.6570   65.1420 F   0  0  0  0  0  0  0  0  0  0  0  0
   42.3290   84.2570   65.0210 F   0  0  0  0  0  0  0  0  0  0  0  0
   42.7280   82.8090   55.8500 C   0  0  0  0  0  0  0  0  0  0  0  0
   42.3830   83.9680   55.1890 C   0  0  0  0  0  0  0  0  0  0  0  0
   41.5570   84.6380   55.2330 H   0  0  0  0  0  0  0  0  0  0  0  0
   43.4220   84.2220   54.2850 C   0  0  0  0  0  0  0  0  0  0  0  0
   43.6320   84.9950   53.5460 H   0  0  0  0  0  0  0  0  0  0  0  0
   44.3420   83.2250   54.4320 N   0  0  0  0  0  0  0  0  0  0  0  0
   45.2650   82.9990   53.9800 H   0  0  0  0  0  0  0  0  0  0  0  0
   43.9210   82.3910   55.3630 N   0  0  0  0  0  0  0  0  0  0  0  0
  2  1  1  0  0  0  0
  2  3  1  0  0  0  0
  3 12  1  0  0  0  0
  4  3  2  0  0  0  0
  4  9  1  0  0  0  0
  5  4  1  0  0  0  0
  6  8  1  0  0  0  0
  6  5  2  0  0  0  0
  7  6  1  0  0  0  0
  8  2  2  0  0  0  0
 10  5  1  0  0  0  0
 11 16  1  0  0  0  0
 12 13  1  0  0  0  0
 12 11  2  0  0  0  0
 13 14  2  0  0  0  0
 14 15  1  0  0  0  0
 15 19  1  0  0  0  0
 16 15  2  0  0  0  0
 17 11  1  0  0  0  0
 18 13  1  0  0  0  0
 19 22  1  0  0  0  0
 19 21  1  0  0  0  0
 20 19  1  0  0  0  0
 23  8  1  0  0  0  0
 24 25  1  0  0  0  0
 24 23  1  0  0  0  0
 26 28  1  0  0  0  0
 26 24  2  0  0  0  0
 27 26  1  0  0  0  0
 28 30  1  0  0  0  0
 29 28  1  0  0  0  0
 30 23  2  0  0  0  0
M  END
>  <minimizedAffinity>
-5.20448446

>  <minimizedRMSD>
1.03889012

$$$$
