
 OpenBabel03212520143D

 30 32  0  0  0  0  0  0  0  0999 V2000
   42.3810   71.1760   62.2570 Cl  0  0  0  0  0  0  0  0  0  0  0  0
   41.9100   70.4190   60.7390 C   0  0  0  0  0  0  0  0  0  0  0  0
   41.3630   71.1250   59.6890 C   0  0  0  0  0  0  0  0  0  0  0  0
   41.0460   70.3840   58.5650 C   0  0  0  0  0  0  0  0  0  0  0  0
   41.2350   69.0180   58.4190 C   0  0  0  0  0  0  0  0  0  0  0  0
   41.7770   68.3650   59.4780 C   0  0  0  0  0  0  0  0  0  0  0  0
   42.0570   66.6240   59.3900 Cl  0  0  0  0  0  0  0  0  0  0  0  0
   42.1140   69.0550   60.6330 C   0  0  0  0  0  0  0  0  0  0  0  0
   40.6150   70.9250   57.7320 H   0  0  0  0  0  0  0  0  0  0  0  0
   40.9590   68.5160   57.5030 H   0  0  0  0  0  0  0  0  0  0  0  0
   42.0770   73.5540   59.5310 C   0  0  0  0  0  0  0  0  0  0  0  0
   41.1600   72.5310   59.8200 C   0  0  0  0  0  0  0  0  0  0  0  0
   39.9010   72.9080   60.2910 C   0  0  0  0  0  0  0  0  0  0  0  0
   39.6590   74.2410   60.4310 N   0  0  0  0  0  0  0  0  0  0  0  0
   40.5510   75.1930   60.1480 C   0  0  0  0  0  0  0  0  0  0  0  0
   41.7710   74.8450   59.6940 N   0  0  0  0  0  0  0  0  0  0  0  0
   43.0410   73.2110   59.1680 H   0  0  0  0  0  0  0  0  0  0  0  0
   39.1320   72.1830   60.5380 H   0  0  0  0  0  0  0  0  0  0  0  0
   40.1110   76.6000   60.3650 C   0  0  0  0  0  0  0  0  0  0  0  0
   39.1670   76.9870   59.4440 F   0  0  0  0  0  0  0  0  0  0  0  0
   39.5560   76.7150   61.6230 F   0  0  0  0  0  0  0  0  0  0  0  0
   41.1740   77.4870   60.2210 F   0  0  0  0  0  0  0  0  0  0  0  0
   42.6930   68.2860   61.7290 C   0  0  0  0  0  0  0  0  0  0  0  0
   44.0680   68.2010   61.7980 C   0  0  0  0  0  0  0  0  0  0  0  0
   44.8730   68.5820   61.2130 H   0  0  0  0  0  0  0  0  0  0  0  0
   44.3520   67.4190   62.9230 C   0  0  0  0  0  0  0  0  0  0  0  0
   45.2610   67.0610   63.4070 H   0  0  0  0  0  0  0  0  0  0  0  0
   43.1590   67.0640   63.4850 N   0  0  0  0  0  0  0  0  0  0  0  0
   42.8780   66.4950   64.3230 H   0  0  0  0  0  0  0  0  0  0  0  0
   42.1810   67.5850   62.7690 N   0  0  0  0  0  0  0  0  0  0  0  0
  2  1  1  0  0  0  0
  3 12  1  0  0  0  0
  3  2  2  0  0  0  0
  4  3  1  0  0  0  0
  5  4  2  0  0  0  0
  5  6  1  0  0  0  0
  6  8  2  0  0  0  0
  7  6  1  0  0  0  0
  8  2  1  0  0  0  0
  8 23  1  0  0  0  0
  9  4  1  0  0  0  0
 10  5  1  0  0  0  0
 11 16  2  0  0  0  0
 11 12  1  0  0  0  0
 12 13  2  0  0  0  0
 13 14  1  0  0  0  0
 13 18  1  0  0  0  0
 15 19  1  0  0  0  0
 15 14  2  0  0  0  0
 16 15  1  0  0  0  0
 17 11  1  0  0  0  0
 19 21  1  0  0  0  0
 20 19  1  0  0  0  0
 22 19  1  0  0  0  0
 23 24  1  0  0  0  0
 23 30  2  0  0  0  0
 24 26  2  0  0  0  0
 25 24  1  0  0  0  0
 26 27  1  0  0  0  0
 26 28  1  0  0  0  0
 28 29  1  0  0  0  0
 30 28  1  0  0  0  0
M  END
>  <minimizedAffinity>
-5.78708982

$$$$

 OpenBabel03212520143D

 30 32  0  0  0  0  0  0  0  0999 V2000
   39.6540   72.6110   60.2800 Cl  0  0  0  0  0  0  0  0  0  0  0  0
   41.2890   73.2460   60.1340 C   0  0  0  0  0  0  0  0  0  0  0  0
   42.3960   72.5770   60.6110 C   0  0  0  0  0  0  0  0  0  0  0  0
   43.6110   73.2100   60.4180 C   0  0  0  0  0  0  0  0  0  0  0  0
   43.7940   74.4350   59.7970 C   0  0  0  0  0  0  0  0  0  0  0  0
   42.6760   75.0570   59.3440 C   0  0  0  0  0  0  0  0  0  0  0  0
   42.8030   76.6230   58.5380 Cl  0  0  0  0  0  0  0  0  0  0  0  0
   41.4290   74.4710   59.5080 C   0  0  0  0  0  0  0  0  0  0  0  0
   44.4900   72.6970   60.7880 H   0  0  0  0  0  0  0  0  0  0  0  0
   44.7810   74.8590   59.6880 H   0  0  0  0  0  0  0  0  0  0  0  0
   42.0300   71.0770   62.6230 C   0  0  0  0  0  0  0  0  0  0  0  0
   42.2300   71.3140   61.2540 C   0  0  0  0  0  0  0  0  0  0  0  0
   42.2760   70.2060   60.4070 C   0  0  0  0  0  0  0  0  0  0  0  0
   42.1200   68.9780   60.9750 N   0  0  0  0  0  0  0  0  0  0  0  0
   41.9310   68.7810   62.2820 C   0  0  0  0  0  0  0  0  0  0  0  0
   41.8850   69.8410   63.1120 N   0  0  0  0  0  0  0  0  0  0  0  0
   42.0020   71.9690   63.2400 H   0  0  0  0  0  0  0  0  0  0  0  0
   42.4260   70.2990   59.3360 H   0  0  0  0  0  0  0  0  0  0  0  0
   41.7820   67.3660   62.7250 C   0  0  0  0  0  0  0  0  0  0  0  0
   42.8500   66.9550   63.4870 F   0  0  0  0  0  0  0  0  0  0  0  0
   40.6380   67.2450   63.4860 F   0  0  0  0  0  0  0  0  0  0  0  0
   41.7340   66.5010   61.6350 F   0  0  0  0  0  0  0  0  0  0  0  0
   40.2730   75.1980   58.9950 C   0  0  0  0  0  0  0  0  0  0  0  0
   39.9010   74.9710   57.6870 C   0  0  0  0  0  0  0  0  0  0  0  0
   40.2680   74.3540   56.8990 H   0  0  0  0  0  0  0  0  0  0  0  0
   38.7840   75.7810   57.4540 C   0  0  0  0  0  0  0  0  0  0  0  0
   38.1270   75.9690   56.6050 H   0  0  0  0  0  0  0  0  0  0  0  0
   38.5250   76.4590   58.6110 N   0  0  0  0  0  0  0  0  0  0  0  0
   37.8030   77.1640   58.9080 H   0  0  0  0  0  0  0  0  0  0  0  0
   39.4150   76.1060   59.5190 N   0  0  0  0  0  0  0  0  0  0  0  0
  2  1  1  0  0  0  0
  2  3  1  0  0  0  0
  3 12  1  0  0  0  0
  4  3  2  0  0  0  0
  4  9  1  0  0  0  0
  5  4  1  0  0  0  0
  6  8  1  0  0  0  0
  6  5  2  0  0  0  0
  7  6  1  0  0  0  0
  8  2  2  0  0  0  0
 10  5  1  0  0  0  0
 11 16  1  0  0  0  0
 11 17  1  0  0  0  0
 12 11  2  0  0  0  0
 13 14  2  0  0  0  0
 13 12  1  0  0  0  0
 14 15  1  0  0  0  0
 15 19  1  0  0  0  0
 15 16  2  0  0  0  0
 18 13  1  0  0  0  0
 19 21  1  0  0  0  0
 19 20  1  0  0  0  0
 22 19  1  0  0  0  0
 23  8  1  0  0  0  0
 23 30  2  0  0  0  0
 24 23  1  0  0  0  0
 25 24  1  0  0  0  0
 26 24  2  0  0  0  0
 26 28  1  0  0  0  0
 27 26  1  0  0  0  0
 28 29  1  0  0  0  0
 28 30  1  0  0  0  0
M  END
>  <minimizedAffinity>
-5.6819191

$$$$

 OpenBabel03212520143D

 30 32  0  0  0  0  0  0  0  0999 V2000
   39.1770   72.4490   57.8960 Cl  0  0  0  0  0  0  0  0  0  0  0  0
   39.6500   73.9980   58.5840 C   0  0  0  0  0  0  0  0  0  0  0  0
   40.4840   74.1080   59.6770 C   0  0  0  0  0  0  0  0  0  0  0  0
   40.7600   75.3960   60.0970 C   0  0  0  0  0  0  0  0  0  0  0  0
   40.2750   76.5570   59.5140 C   0  0  0  0  0  0  0  0  0  0  0  0
   39.4590   76.4010   58.4410 C   0  0  0  0  0  0  0  0  0  0  0  0
   38.7890   77.8180   57.6300 Cl  0  0  0  0  0  0  0  0  0  0  0  0
   39.1450   75.1320   57.9750 C   0  0  0  0  0  0  0  0  0  0  0  0
   41.4130   75.4980   60.9550 H   0  0  0  0  0  0  0  0  0  0  0  0
   40.5420   77.5270   59.9070 H   0  0  0  0  0  0  0  0  0  0  0  0
   41.8510   71.9710   59.7200 C   0  0  0  0  0  0  0  0  0  0  0  0
   40.9940   72.9250   60.2910 C   0  0  0  0  0  0  0  0  0  0  0  0
   40.5790   72.7130   61.6070 C   0  0  0  0  0  0  0  0  0  0  0  0
   41.0410   71.5970   62.2360 N   0  0  0  0  0  0  0  0  0  0  0  0
   41.8560   70.7060   61.6680 C   0  0  0  0  0  0  0  0  0  0  0  0
   42.2650   70.8970   60.3980 N   0  0  0  0  0  0  0  0  0  0  0  0
   42.1460   72.1800   58.6960 H   0  0  0  0  0  0  0  0  0  0  0  0
   39.9170   73.4000   62.1250 H   0  0  0  0  0  0  0  0  0  0  0  0
   42.2570   69.5430   62.5090 C   0  0  0  0  0  0  0  0  0  0  0  0
   43.4670   69.7530   63.1270 F   0  0  0  0  0  0  0  0  0  0  0  0
   41.3060   69.3390   63.4870 F   0  0  0  0  0  0  0  0  0  0  0  0
   42.4140   68.3950   61.7380 F   0  0  0  0  0  0  0  0  0  0  0  0
   38.2620   75.0430   56.8170 C   0  0  0  0  0  0  0  0  0  0  0  0
   38.8430   75.0390   55.5660 C   0  0  0  0  0  0  0  0  0  0  0  0
   39.8440   75.0870   55.2040 H   0  0  0  0  0  0  0  0  0  0  0  0
   37.7900   74.9480   54.6500 C   0  0  0  0  0  0  0  0  0  0  0  0
   37.7100   74.9090   53.5630 H   0  0  0  0  0  0  0  0  0  0  0  0
   36.6280   74.9020   55.3670 N   0  0  0  0  0  0  0  0  0  0  0  0
   35.6090   74.8330   55.1180 H   0  0  0  0  0  0  0  0  0  0  0  0
   36.9210   74.9580   56.6520 N   0  0  0  0  0  0  0  0  0  0  0  0
  1  2  1  0  0  0  0
  2  3  1  0  0  0  0
  3  4  2  0  0  0  0
  3 12  1  0  0  0  0
  4  9  1  0  0  0  0
  5 10  1  0  0  0  0
  5  4  1  0  0  0  0
  6  5  2  0  0  0  0
  7  6  1  0  0  0  0
  8  6  1  0  0  0  0
  8  2  2  0  0  0  0
 11 12  2  0  0  0  0
 11 16  1  0  0  0  0
 12 13  1  0  0  0  0
 13 18  1  0  0  0  0
 13 14  2  0  0  0  0
 15 14  1  0  0  0  0
 15 19  1  0  0  0  0
 16 15  2  0  0  0  0
 17 11  1  0  0  0  0
 19 20  1  0  0  0  0
 19 21  1  0  0  0  0
 22 19  1  0  0  0  0
 23  8  1  0  0  0  0
 24 23  1  0  0  0  0
 25 24  1  0  0  0  0
 26 28  1  0  0  0  0
 26 24  2  0  0  0  0
 27 26  1  0  0  0  0
 28 30  1  0  0  0  0
 29 28  1  0  0  0  0
 30 23  2  0  0  0  0
M  END
>  <minimizedAffinity>
-5.62702322

$$$$

 OpenBabel03212520143D

 30 32  0  0  0  0  0  0  0  0999 V2000
   41.5700   70.8890   58.5920 Cl  0  0  0  0  0  0  0  0  0  0  0  0
   41.6840   71.0360   60.3430 C   0  0  0  0  0  0  0  0  0  0  0  0
   41.3560   72.1920   61.0190 C   0  0  0  0  0  0  0  0  0  0  0  0
   41.5000   72.1460   62.3940 C   0  0  0  0  0  0  0  0  0  0  0  0
   41.9370   71.0520   63.1240 C   0  0  0  0  0  0  0  0  0  0  0  0
   42.2490   69.9360   62.4160 C   0  0  0  0  0  0  0  0  0  0  0  0
   42.8150   68.4900   63.2550 Cl  0  0  0  0  0  0  0  0  0  0  0  0
   42.1250   69.9230   61.0350 C   0  0  0  0  0  0  0  0  0  0  0  0
   41.2460   73.0470   62.9390 H   0  0  0  0  0  0  0  0  0  0  0  0
   42.0210   71.1020   64.2000 H   0  0  0  0  0  0  0  0  0  0  0  0
   41.6880   74.3630   59.7500 C   0  0  0  0  0  0  0  0  0  0  0  0
   40.9040   73.3290   60.2860 C   0  0  0  0  0  0  0  0  0  0  0  0
   39.5230   73.4000   60.0920 C   0  0  0  0  0  0  0  0  0  0  0  0
   39.0440   74.4690   59.3960 N   0  0  0  0  0  0  0  0  0  0  0  0
   39.8140   75.4390   58.8980 C   0  0  0  0  0  0  0  0  0  0  0  0
   41.1480   75.3840   59.0770 N   0  0  0  0  0  0  0  0  0  0  0  0
   42.7540   74.2630   59.9270 H   0  0  0  0  0  0  0  0  0  0  0  0
   38.8440   72.6440   60.4720 H   0  0  0  0  0  0  0  0  0  0  0  0
   39.1140   76.5310   58.1650 C   0  0  0  0  0  0  0  0  0  0  0  0
   39.7220   76.8130   56.9660 F   0  0  0  0  0  0  0  0  0  0  0  0
   37.8140   76.1450   57.9070 F   0  0  0  0  0  0  0  0  0  0  0  0
   39.1320   77.7170   58.8940 F   0  0  0  0  0  0  0  0  0  0  0  0
   42.4770   68.6880   60.3420 C   0  0  0  0  0  0  0  0  0  0  0  0
   41.4860   67.7450   60.1690 C   0  0  0  0  0  0  0  0  0  0  0  0
   40.4550   67.6830   60.4290 H   0  0  0  0  0  0  0  0  0  0  0  0
   42.0820   66.6770   59.4880 C   0  0  0  0  0  0  0  0  0  0  0  0
   41.7440   65.7090   59.1190 H   0  0  0  0  0  0  0  0  0  0  0  0
   43.3910   67.0070   59.2790 N   0  0  0  0  0  0  0  0  0  0  0  0
   44.2090   66.5300   58.8200 H   0  0  0  0  0  0  0  0  0  0  0  0
   43.6140   68.2030   59.7890 N   0  0  0  0  0  0  0  0  0  0  0  0
  1  2  1  0  0  0  0
  2  3  2  0  0  0  0
  2  8  1  0  0  0  0
  3  4  1  0  0  0  0
  4  9  1  0  0  0  0
  4  5  2  0  0  0  0
  5 10  1  0  0  0  0
  6  5  1  0  0  0  0
  6  7  1  0  0  0  0
  8  6  2  0  0  0  0
 11 17  1  0  0  0  0
 11 12  1  0  0  0  0
 12  3  1  0  0  0  0
 13 12  2  0  0  0  0
 13 18  1  0  0  0  0
 14 13  1  0  0  0  0
 15 16  1  0  0  0  0
 15 14  2  0  0  0  0
 16 11  2  0  0  0  0
 19 22  1  0  0  0  0
 19 15  1  0  0  0  0
 20 19  1  0  0  0  0
 21 19  1  0  0  0  0
 23  8  1  0  0  0  0
 24 23  1  0  0  0  0
 24 25  1  0  0  0  0
 26 24  2  0  0  0  0
 27 26  1  0  0  0  0
 28 26  1  0  0  0  0
 28 30  1  0  0  0  0
 29 28  1  0  0  0  0
 30 23  2  0  0  0  0
M  END
>  <minimizedAffinity>
-5.53519106

$$$$

 OpenBabel03212520143D

 30 32  0  0  0  0  0  0  0  0999 V2000
   39.5230   72.5120   57.8800 Cl  0  0  0  0  0  0  0  0  0  0  0  0
   40.7950   71.8870   58.9230 C   0  0  0  0  0  0  0  0  0  0  0  0
   41.6460   70.8720   58.5390 C   0  0  0  0  0  0  0  0  0  0  0  0
   42.5930   70.4940   59.4740 C   0  0  0  0  0  0  0  0  0  0  0  0
   42.7480   71.0480   60.7350 C   0  0  0  0  0  0  0  0  0  0  0  0
   41.8890   72.0440   61.0690 C   0  0  0  0  0  0  0  0  0  0  0  0
   42.0050   72.8140   62.6540 Cl  0  0  0  0  0  0  0  0  0  0  0  0
   40.9180   72.4650   60.1730 C   0  0  0  0  0  0  0  0  0  0  0  0
   43.2680   69.6970   59.1870 H   0  0  0  0  0  0  0  0  0  0  0  0
   43.5170   70.6920   61.4050 H   0  0  0  0  0  0  0  0  0  0  0  0
   41.4450   70.9570   56.0120 C   0  0  0  0  0  0  0  0  0  0  0  0
   41.5020   70.2880   57.2450 C   0  0  0  0  0  0  0  0  0  0  0  0
   41.4100   68.8950   57.2290 C   0  0  0  0  0  0  0  0  0  0  0  0
   41.2730   68.2930   56.0150 N   0  0  0  0  0  0  0  0  0  0  0  0
   41.2220   68.9540   54.8560 C   0  0  0  0  0  0  0  0  0  0  0  0
   41.3090   70.2980   54.8570 N   0  0  0  0  0  0  0  0  0  0  0  0
   41.5210   72.0380   56.0770 H   0  0  0  0  0  0  0  0  0  0  0  0
   41.4460   68.3000   58.1350 H   0  0  0  0  0  0  0  0  0  0  0  0
   41.0670   68.1270   53.6270 C   0  0  0  0  0  0  0  0  0  0  0  0
   41.7200   66.9220   53.7370 F   0  0  0  0  0  0  0  0  0  0  0  0
   39.7280   67.8710   53.4160 F   0  0  0  0  0  0  0  0  0  0  0  0
   41.6200   68.7640   52.5200 F   0  0  0  0  0  0  0  0  0  0  0  0
   40.0310   73.5420   60.6020 C   0  0  0  0  0  0  0  0  0  0  0  0
   40.4260   74.8380   60.3460 C   0  0  0  0  0  0  0  0  0  0  0  0
   41.2730   75.2860   59.8820 H   0  0  0  0  0  0  0  0  0  0  0  0
   39.4110   75.6590   60.8530 C   0  0  0  0  0  0  0  0  0  0  0  0
   39.2390   76.7340   60.9040 H   0  0  0  0  0  0  0  0  0  0  0  0
   38.4560   74.8430   61.3880 N   0  0  0  0  0  0  0  0  0  0  0  0
   37.5340   75.0020   61.8700 H   0  0  0  0  0  0  0  0  0  0  0  0
   38.8340   73.5880   61.2340 N   0  0  0  0  0  0  0  0  0  0  0  0
  1  2  1  0  0  0  0
  2  8  1  0  0  0  0
  3  2  2  0  0  0  0
  3  4  1  0  0  0  0
  4  5  2  0  0  0  0
  5  6  1  0  0  0  0
  5 10  1  0  0  0  0
  6  7  1  0  0  0  0
  8 23  1  0  0  0  0
  8  6  2  0  0  0  0
  9  4  1  0  0  0  0
 11 17  1  0  0  0  0
 11 12  1  0  0  0  0
 12  3  1  0  0  0  0
 13 12  2  0  0  0  0
 13 18  1  0  0  0  0
 14 13  1  0  0  0  0
 15 16  1  0  0  0  0
 15 14  2  0  0  0  0
 16 11  2  0  0  0  0
 19 20  1  0  0  0  0
 19 15  1  0  0  0  0
 21 19  1  0  0  0  0
 22 19  1  0  0  0  0
 23 30  2  0  0  0  0
 24 23  1  0  0  0  0
 24 26  2  0  0  0  0
 25 24  1  0  0  0  0
 26 27  1  0  0  0  0
 26 28  1  0  0  0  0
 28 29  1  0  0  0  0
 30 28  1  0  0  0  0
M  END
>  <minimizedAffinity>
-5.45302439

$$$$

 OpenBabel03212520143D

 30 32  0  0  0  0  0  0  0  0999 V2000
   41.6640   71.0680   58.4780 Cl  0  0  0  0  0  0  0  0  0  0  0  0
   41.7550   71.2250   60.2290 C   0  0  0  0  0  0  0  0  0  0  0  0
   41.2150   72.2940   60.9130 C   0  0  0  0  0  0  0  0  0  0  0  0
   41.3710   72.2700   62.2870 C   0  0  0  0  0  0  0  0  0  0  0  0
   42.0110   71.2760   63.0100 C   0  0  0  0  0  0  0  0  0  0  0  0
   42.5260   70.2430   62.2950 C   0  0  0  0  0  0  0  0  0  0  0  0
   43.3600   68.9270   63.1240 Cl  0  0  0  0  0  0  0  0  0  0  0  0
   42.4020   70.2130   60.9130 C   0  0  0  0  0  0  0  0  0  0  0  0
   40.9530   73.1040   62.8380 H   0  0  0  0  0  0  0  0  0  0  0  0
   42.0880   71.3350   64.0850 H   0  0  0  0  0  0  0  0  0  0  0  0
   39.1990   73.3760   59.8170 C   0  0  0  0  0  0  0  0  0  0  0  0
   40.5530   73.3290   60.1870 C   0  0  0  0  0  0  0  0  0  0  0  0
   41.3610   74.4030   59.8120 C   0  0  0  0  0  0  0  0  0  0  0  0
   40.7730   75.4160   59.1180 N   0  0  0  0  0  0  0  0  0  0  0  0
   39.4810   75.4350   58.7800 C   0  0  0  0  0  0  0  0  0  0  0  0
   38.6890   74.4050   59.1340 N   0  0  0  0  0  0  0  0  0  0  0  0
   38.6120   72.5180   60.1310 H   0  0  0  0  0  0  0  0  0  0  0  0
   42.4180   74.4480   60.0570 H   0  0  0  0  0  0  0  0  0  0  0  0
   39.0130   76.6270   58.0180 C   0  0  0  0  0  0  0  0  0  0  0  0
   39.8070   76.8790   56.9250 F   0  0  0  0  0  0  0  0  0  0  0  0
   37.7270   76.4040   57.5720 F   0  0  0  0  0  0  0  0  0  0  0  0
   39.0630   77.7760   58.8020 F   0  0  0  0  0  0  0  0  0  0  0  0
   42.9790   69.0710   60.2130 C   0  0  0  0  0  0  0  0  0  0  0  0
   42.1720   67.9730   60.0000 C   0  0  0  0  0  0  0  0  0  0  0  0
   41.1620   67.7300   60.2320 H   0  0  0  0  0  0  0  0  0  0  0  0
   42.9610   67.0380   59.3210 C   0  0  0  0  0  0  0  0  0  0  0  0
   42.8050   66.0330   58.9290 H   0  0  0  0  0  0  0  0  0  0  0  0
   44.1970   67.5930   59.1510 N   0  0  0  0  0  0  0  0  0  0  0  0
   45.0960   67.2750   58.7080 H   0  0  0  0  0  0  0  0  0  0  0  0
   44.1970   68.8000   59.6840 N   0  0  0  0  0  0  0  0  0  0  0  0
  1  2  1  0  0  0  0
  2  8  2  0  0  0  0
  2  3  1  0  0  0  0
  3  4  2  0  0  0  0
  4  9  1  0  0  0  0
  4  5  1  0  0  0  0
  5 10  1  0  0  0  0
  6  5  2  0  0  0  0
  6  7  1  0  0  0  0
  8  6  1  0  0  0  0
 11 17  1  0  0  0  0
 11 12  1  0  0  0  0
 12  3  1  0  0  0  0
 13 18  1  0  0  0  0
 13 12  2  0  0  0  0
 14 13  1  0  0  0  0
 15 14  2  0  0  0  0
 15 16  1  0  0  0  0
 16 11  2  0  0  0  0
 19 15  1  0  0  0  0
 19 22  1  0  0  0  0
 20 19  1  0  0  0  0
 21 19  1  0  0  0  0
 23  8  1  0  0  0  0
 24 23  1  0  0  0  0
 24 25  1  0  0  0  0
 26 24  2  0  0  0  0
 27 26  1  0  0  0  0
 28 26  1  0  0  0  0
 28 30  1  0  0  0  0
 29 28  1  0  0  0  0
 30 23  2  0  0  0  0
M  END
>  <minimizedAffinity>
-5.41818857

$$$$

 OpenBabel03212520143D

 30 32  0  0  0  0  0  0  0  0999 V2000
   41.9550   70.5570   58.9420 Cl  0  0  0  0  0  0  0  0  0  0  0  0
   41.9430   70.5730   60.7020 C   0  0  0  0  0  0  0  0  0  0  0  0
   41.8610   71.7360   61.4380 C   0  0  0  0  0  0  0  0  0  0  0  0
   41.8620   71.5800   62.8120 C   0  0  0  0  0  0  0  0  0  0  0  0
   41.9360   70.3710   63.4870 C   0  0  0  0  0  0  0  0  0  0  0  0
   42.0150   69.2530   62.7220 C   0  0  0  0  0  0  0  0  0  0  0  0
   42.1130   67.6660   63.4870 Cl  0  0  0  0  0  0  0  0  0  0  0  0
   42.0180   69.3480   61.3370 C   0  0  0  0  0  0  0  0  0  0  0  0
   41.7990   72.4840   63.4040 H   0  0  0  0  0  0  0  0  0  0  0  0
   41.9310   70.3390   64.5670 H   0  0  0  0  0  0  0  0  0  0  0  0
   40.6340   73.7600   60.5230 C   0  0  0  0  0  0  0  0  0  0  0  0
   41.7840   72.9910   60.7620 C   0  0  0  0  0  0  0  0  0  0  0  0
   43.0020   73.4880   60.2940 C   0  0  0  0  0  0  0  0  0  0  0  0
   42.9790   74.6840   59.6430 N   0  0  0  0  0  0  0  0  0  0  0  0
   41.8700   75.3950   59.4300 C   0  0  0  0  0  0  0  0  0  0  0  0
   40.6870   74.9270   59.8750 N   0  0  0  0  0  0  0  0  0  0  0  0
   39.7130   73.3310   60.9060 H   0  0  0  0  0  0  0  0  0  0  0  0
   43.9380   72.9590   60.4360 H   0  0  0  0  0  0  0  0  0  0  0  0
   42.0370   76.6810   58.6970 C   0  0  0  0  0  0  0  0  0  0  0  0
   40.8660   77.0850   58.1010 F   0  0  0  0  0  0  0  0  0  0  0  0
   42.4280   77.6630   59.5840 F   0  0  0  0  0  0  0  0  0  0  0  0
   42.9670   76.5570   57.6690 F   0  0  0  0  0  0  0  0  0  0  0  0
   42.1040   68.1030   60.5810 C   0  0  0  0  0  0  0  0  0  0  0  0
   43.3590   67.6500   60.2330 C   0  0  0  0  0  0  0  0  0  0  0  0
   44.3520   68.0000   60.3880 H   0  0  0  0  0  0  0  0  0  0  0  0
   43.1580   66.4590   59.5250 C   0  0  0  0  0  0  0  0  0  0  0  0
   43.8050   65.7260   59.0440 H   0  0  0  0  0  0  0  0  0  0  0  0
   41.8110   66.2400   59.4700 N   0  0  0  0  0  0  0  0  0  0  0  0
   41.2000   65.4920   59.0530 H   0  0  0  0  0  0  0  0  0  0  0  0
   41.1950   67.2220   60.1000 N   0  0  0  0  0  0  0  0  0  0  0  0
  1  2  1  0  0  0  0
  2  8  2  0  0  0  0
  2  3  1  0  0  0  0
  3  4  2  0  0  0  0
  4  9  1  0  0  0  0
  4  5  1  0  0  0  0
  5 10  1  0  0  0  0
  6  7  1  0  0  0  0
  6  5  2  0  0  0  0
  8  6  1  0  0  0  0
 11 12  1  0  0  0  0
 11 17  1  0  0  0  0
 12  3  1  0  0  0  0
 13 18  1  0  0  0  0
 13 12  2  0  0  0  0
 14 13  1  0  0  0  0
 15 14  2  0  0  0  0
 15 16  1  0  0  0  0
 16 11  2  0  0  0  0
 19 15  1  0  0  0  0
 19 21  1  0  0  0  0
 20 19  1  0  0  0  0
 22 19  1  0  0  0  0
 23  8  1  0  0  0  0
 24 25  1  0  0  0  0
 24 23  1  0  0  0  0
 26 24  2  0  0  0  0
 27 26  1  0  0  0  0
 28 26  1  0  0  0  0
 28 30  1  0  0  0  0
 29 28  1  0  0  0  0
 30 23  2  0  0  0  0
M  END
>  <minimizedAffinity>
-5.38251925

$$$$

 OpenBabel03212520143D

 30 32  0  0  0  0  0  0  0  0999 V2000
   42.9290   70.9100   58.8150 Cl  0  0  0  0  0  0  0  0  0  0  0  0
   42.9520   70.4210   60.5060 C   0  0  0  0  0  0  0  0  0  0  0  0
   42.3850   71.1760   61.5100 C   0  0  0  0  0  0  0  0  0  0  0  0
   42.4870   70.6540   62.7870 C   0  0  0  0  0  0  0  0  0  0  0  0
   43.1010   69.4580   63.1230 C   0  0  0  0  0  0  0  0  0  0  0  0
   43.6450   68.7480   62.1020 C   0  0  0  0  0  0  0  0  0  0  0  0
   44.4490   67.2110   62.4280 Cl  0  0  0  0  0  0  0  0  0  0  0  0
   43.5740   69.2220   60.8000 C   0  0  0  0  0  0  0  0  0  0  0  0
   42.0470   71.2370   63.5870 H   0  0  0  0  0  0  0  0  0  0  0  0
   43.1360   69.1230   64.1490 H   0  0  0  0  0  0  0  0  0  0  0  0
   42.2730   73.4620   60.4150 C   0  0  0  0  0  0  0  0  0  0  0  0
   41.7480   72.4120   61.1850 C   0  0  0  0  0  0  0  0  0  0  0  0
   40.4610   72.5700   61.7020 C   0  0  0  0  0  0  0  0  0  0  0  0
   39.8130   73.7330   61.4170 N   0  0  0  0  0  0  0  0  0  0  0  0
   40.3360   74.7170   60.6810 C   0  0  0  0  0  0  0  0  0  0  0  0
   41.5770   74.5780   60.1760 N   0  0  0  0  0  0  0  0  0  0  0  0
   43.2750   73.2910   60.0360 H   0  0  0  0  0  0  0  0  0  0  0  0
   39.9800   71.8090   62.3070 H   0  0  0  0  0  0  0  0  0  0  0  0
   39.4800   75.9190   60.4750 C   0  0  0  0  0  0  0  0  0  0  0  0
   38.6590   75.7790   59.3810 F   0  0  0  0  0  0  0  0  0  0  0  0
   38.6850   76.1070   61.5870 F   0  0  0  0  0  0  0  0  0  0  0  0
   40.2520   77.0510   60.2330 F   0  0  0  0  0  0  0  0  0  0  0  0
   44.1800   68.4040   59.7550 C   0  0  0  0  0  0  0  0  0  0  0  0
   45.5060   68.6300   59.4530 C   0  0  0  0  0  0  0  0  0  0  0  0
   46.2550   69.2950   59.8140 H   0  0  0  0  0  0  0  0  0  0  0  0
   45.8310   67.7260   58.4340 C   0  0  0  0  0  0  0  0  0  0  0  0
   46.7270   67.5000   57.8570 H   0  0  0  0  0  0  0  0  0  0  0  0
   44.7080   66.9990   58.1610 N   0  0  0  0  0  0  0  0  0  0  0  0
   44.4740   66.2240   57.4890 H   0  0  0  0  0  0  0  0  0  0  0  0
   43.7340   67.4100   58.9510 N   0  0  0  0  0  0  0  0  0  0  0  0
  1  2  1  0  0  0  0
  2  8  2  0  0  0  0
  2  3  1  0  0  0  0
  3  4  2  0  0  0  0
  4  5  1  0  0  0  0
  4  9  1  0  0  0  0
  5 10  1  0  0  0  0
  6  7  1  0  0  0  0
  6  5  2  0  0  0  0
  8  6  1  0  0  0  0
 11 12  1  0  0  0  0
 12  3  1  0  0  0  0
 12 13  2  0  0  0  0
 13 18  1  0  0  0  0
 14 13  1  0  0  0  0
 15 14  2  0  0  0  0
 16 11  2  0  0  0  0
 16 15  1  0  0  0  0
 17 11  1  0  0  0  0
 19 15  1  0  0  0  0
 19 21  1  0  0  0  0
 20 19  1  0  0  0  0
 22 19  1  0  0  0  0
 23  8  1  0  0  0  0
 24 23  1  0  0  0  0
 24 25  1  0  0  0  0
 26 24  2  0  0  0  0
 27 26  1  0  0  0  0
 28 26  1  0  0  0  0
 28 30  1  0  0  0  0
 29 28  1  0  0  0  0
 30 23  2  0  0  0  0
M  END
>  <minimizedAffinity>
-5.36701918

$$$$

 OpenBabel03212520143D

 30 32  0  0  0  0  0  0  0  0999 V2000
   41.1430   72.1150   61.9670 Cl  0  0  0  0  0  0  0  0  0  0  0  0
   40.9250   71.9460   60.2280 C   0  0  0  0  0  0  0  0  0  0  0  0
   41.4650   70.9030   59.5050 C   0  0  0  0  0  0  0  0  0  0  0  0
   41.2030   70.9140   58.1470 C   0  0  0  0  0  0  0  0  0  0  0  0
   40.4550   71.8690   57.4760 C   0  0  0  0  0  0  0  0  0  0  0  0
   39.9430   72.8760   58.2290 C   0  0  0  0  0  0  0  0  0  0  0  0
   38.9760   74.1410   57.4670 Cl  0  0  0  0  0  0  0  0  0  0  0  0
   40.1730   72.9190   59.5960 C   0  0  0  0  0  0  0  0  0  0  0  0
   41.6210   70.1010   57.5650 H   0  0  0  0  0  0  0  0  0  0  0  0
   40.2980   71.8010   56.4100 H   0  0  0  0  0  0  0  0  0  0  0  0
   43.5950   69.9840   60.5320 C   0  0  0  0  0  0  0  0  0  0  0  0
   42.2380   69.9100   60.1770 C   0  0  0  0  0  0  0  0  0  0  0  0
   41.5470   68.7430   60.5060 C   0  0  0  0  0  0  0  0  0  0  0  0
   42.2440   67.7650   61.1500 N   0  0  0  0  0  0  0  0  0  0  0  0
   43.5350   67.8620   61.4770 C   0  0  0  0  0  0  0  0  0  0  0  0
   44.2150   68.9830   61.1640 N   0  0  0  0  0  0  0  0  0  0  0  0
   44.0870   70.9100   60.2550 H   0  0  0  0  0  0  0  0  0  0  0  0
   40.4980   68.6020   60.2690 H   0  0  0  0  0  0  0  0  0  0  0  0
   44.1310   66.6910   62.1780 C   0  0  0  0  0  0  0  0  0  0  0  0
   45.0800   66.0630   61.4060 F   0  0  0  0  0  0  0  0  0  0  0  0
   44.7380   67.1170   63.3410 F   0  0  0  0  0  0  0  0  0  0  0  0
   43.1660   65.7280   62.4590 F   0  0  0  0  0  0  0  0  0  0  0  0
   39.5900   74.0310   60.3400 C   0  0  0  0  0  0  0  0  0  0  0  0
   40.2830   75.2220   60.3600 C   0  0  0  0  0  0  0  0  0  0  0  0
   41.2010   75.5630   59.9400 H   0  0  0  0  0  0  0  0  0  0  0  0
   39.5160   76.1040   61.1290 C   0  0  0  0  0  0  0  0  0  0  0  0
   39.6140   77.1430   61.4450 H   0  0  0  0  0  0  0  0  0  0  0  0
   38.4050   75.4250   61.5420 N   0  0  0  0  0  0  0  0  0  0  0  0
   37.5650   75.6680   62.1260 H   0  0  0  0  0  0  0  0  0  0  0  0
   38.4590   74.1950   61.0670 N   0  0  0  0  0  0  0  0  0  0  0  0
  2  1  1  0  0  0  0
  3 12  1  0  0  0  0
  3  2  2  0  0  0  0
  4  3  1  0  0  0  0
  5  4  2  0  0  0  0
  5  6  1  0  0  0  0
  6  8  2  0  0  0  0
  7  6  1  0  0  0  0
  8  2  1  0  0  0  0
  8 23  1  0  0  0  0
  9  4  1  0  0  0  0
 10  5  1  0  0  0  0
 11 16  1  0  0  0  0
 12 13  1  0  0  0  0
 12 11  2  0  0  0  0
 13 14  2  0  0  0  0
 14 15  1  0  0  0  0
 15 19  1  0  0  0  0
 16 15  2  0  0  0  0
 17 11  1  0  0  0  0
 18 13  1  0  0  0  0
 19 22  1  0  0  0  0
 19 21  1  0  0  0  0
 20 19  1  0  0  0  0
 23 24  1  0  0  0  0
 23 30  2  0  0  0  0
 24 26  2  0  0  0  0
 25 24  1  0  0  0  0
 26 27  1  0  0  0  0
 26 28  1  0  0  0  0
 28 29  1  0  0  0  0
 30 28  1  0  0  0  0
M  END
>  <minimizedAffinity>
-5.28382254

$$$$
