
 OpenBabel03212520123D

 30 32  0  0  0  0  0  0  0  0999 V2000
   42.8430   84.4880   58.6520 Cl  0  0  0  0  0  0  0  0  0  0  0  0
   41.8170   83.1070   58.2780 C   0  0  0  0  0  0  0  0  0  0  0  0
   41.0930   82.4320   59.2380 C   0  0  0  0  0  0  0  0  0  0  0  0
   40.3350   81.3690   58.7830 C   0  0  0  0  0  0  0  0  0  0  0  0
   40.2490   80.9430   57.4660 C   0  0  0  0  0  0  0  0  0  0  0  0
   40.9780   81.6380   56.5560 C   0  0  0  0  0  0  0  0  0  0  0  0
   40.9360   81.1730   54.8540 Cl  0  0  0  0  0  0  0  0  0  0  0  0
   41.7580   82.7140   56.9540 C   0  0  0  0  0  0  0  0  0  0  0  0
   39.7610   80.8280   59.5250 H   0  0  0  0  0  0  0  0  0  0  0  0
   39.6300   80.1000   57.1970 H   0  0  0  0  0  0  0  0  0  0  0  0
   42.1250   82.4790   61.5550 C   0  0  0  0  0  0  0  0  0  0  0  0
   41.1680   82.8550   60.5990 C   0  0  0  0  0  0  0  0  0  0  0  0
   40.1660   83.7390   61.0020 C   0  0  0  0  0  0  0  0  0  0  0  0
   40.1970   84.1720   62.2930 N   0  0  0  0  0  0  0  0  0  0  0  0
   41.1200   83.7980   63.1820 C   0  0  0  0  0  0  0  0  0  0  0  0
   42.0920   82.9440   62.8080 N   0  0  0  0  0  0  0  0  0  0  0  0
   42.8820   81.7910   61.1940 H   0  0  0  0  0  0  0  0  0  0  0  0
   39.3880   84.0810   60.3280 H   0  0  0  0  0  0  0  0  0  0  0  0
   40.9930   84.3720   64.5510 C   0  0  0  0  0  0  0  0  0  0  0  0
   40.6010   85.6890   64.5180 F   0  0  0  0  0  0  0  0  0  0  0  0
   40.0460   83.6600   65.2570 F   0  0  0  0  0  0  0  0  0  0  0  0
   42.2140   84.3510   65.2200 F   0  0  0  0  0  0  0  0  0  0  0  0
   42.5140   83.4130   55.9200 C   0  0  0  0  0  0  0  0  0  0  0  0
   43.7550   82.9120   55.5830 C   0  0  0  0  0  0  0  0  0  0  0  0
   44.3440   82.0870   55.9080 H   0  0  0  0  0  0  0  0  0  0  0  0
   44.2540   83.7560   54.5850 C   0  0  0  0  0  0  0  0  0  0  0  0
   45.1690   83.8000   53.9950 H   0  0  0  0  0  0  0  0  0  0  0  0
   43.3140   84.7200   54.3570 N   0  0  0  0  0  0  0  0  0  0  0  0
   43.2470   85.5490   53.7130 H   0  0  0  0  0  0  0  0  0  0  0  0
   42.2850   84.5070   55.1560 N   0  0  0  0  0  0  0  0  0  0  0  0
  2  1  1  0  0  0  0
  2  3  1  0  0  0  0
  3 12  1  0  0  0  0
  4  3  2  0  0  0  0
  4  9  1  0  0  0  0
  5  4  1  0  0  0  0
  6  8  1  0  0  0  0
  6  5  2  0  0  0  0
  7  6  1  0  0  0  0
  8  2  2  0  0  0  0
 10  5  1  0  0  0  0
 11 16  1  0  0  0  0
 12 13  1  0  0  0  0
 12 11  2  0  0  0  0
 13 14  2  0  0  0  0
 14 15  1  0  0  0  0
 15 19  1  0  0  0  0
 16 15  2  0  0  0  0
 17 11  1  0  0  0  0
 18 13  1  0  0  0  0
 19 22  1  0  0  0  0
 19 21  1  0  0  0  0
 20 19  1  0  0  0  0
 23  8  1  0  0  0  0
 24 25  1  0  0  0  0
 24 23  1  0  0  0  0
 26 24  2  0  0  0  0
 27 26  1  0  0  0  0
 28 26  1  0  0  0  0
 28 30  1  0  0  0  0
 29 28  1  0  0  0  0
 30 23  2  0  0  0  0
M  END
>  <minimizedAffinity>
-5.64272356

>  <minimizedRMSD>
1.14633715

$$$$
