
 OpenBabel03212520123D

 30 31  0  0  0  0  0  0  0  0999 V2000
   42.1270   83.7570   58.2860 Cl  0  0  0  0  0 15  0  0  0  0  0  0
   41.1740   82.2790   58.2150 C   0  0  0  0  0  3  0  0  0  0  0  0
   40.6390   81.6800   59.3360 C   0  0  0  0  0  0  0  0  0  0  0  0
   39.9140   80.5230   59.1130 C   0  0  0  0  0  0  0  0  0  0  0  0
   39.6900   79.9370   57.8770 C   0  0  0  0  0  0  0  0  0  0  0  0
   40.2360   80.5620   56.8020 C   0  0  0  0  0  0  0  0  0  0  0  0
   40.0070   79.8930   55.1840 Cl  0  0  0  0  0  0  0  0  0  0  0  0
   40.9730   81.7250   56.9650 C   0  0  0  0  0  0  0  0  0  0  0  0
   39.4880   80.0410   59.9840 H   0  0  0  0  0  0  0  0  0  0  0  0
   39.1100   79.0300   57.7910 H   0  0  0  0  0  0  0  0  0  0  0  0
   41.9560   82.0660   61.4700 C   0  0  0  0  0  0  0  0  0  0  0  0
   40.8580   82.2670   60.6180 C   0  0  0  0  0  0  0  0  0  0  0  0
   39.8550   83.1360   61.0530 C   0  0  0  0  0  0  0  0  0  0  0  0
   40.0210   83.7220   62.2700 N   0  0  0  0  0  0  0  0  0  0  0  0
   41.0760   83.5120   63.0610 C   0  0  0  0  0  0  0  0  0  0  0  0
   42.0520   82.6760   62.6550 N   0  0  0  0  0  0  0  0  0  0  0  0
   42.7080   81.3830   61.0880 H   0  0  0  0  0  0  0  0  0  0  0  0
   38.9730   83.3480   60.4580 H   0  0  0  0  0  0  0  0  0  0  0  0
   41.0860   84.2390   64.3610 C   0  0  0  0  0  0  0  0  0  0  0  0
   40.7900   85.5720   64.2030 F   0  0  0  0  0  0  0  0  0  0  0  0
   40.1410   83.6860   65.1990 F   0  0  0  0  0  0  0  0  0  0  0  0
   42.3460   84.1940   64.9530 F   0  0  0  0  0  0  0  0  0  0  0  0
   41.5270   82.3410   55.7630 C   0  0  0  0  0  0  0  0  0  0  0  0
   42.2080   83.5310   55.9090 C   0  0  0  0  0  0  0  0  0  0  0  0
   42.4490   84.1620   56.7330 H   0  0  0  0  0  0  0  0  0  0  0  0
   42.6280   83.8960   54.6250 C   0  0  0  0  0  0  0  0  0  0  0  0
   43.1890   84.7290   54.2010 H   0  0  0  0  0  0  0  0  0  0  0  0
   42.1950   82.9300   53.7630 N   0  0  0  0  0  0  0  0  0  0  0  0
   42.2710   82.7770   52.7260 H   0  0  0  0  0  0  0  0  0  0  0  0
   41.5430   82.0120   54.4510 N   0  0  0  0  0  0  0  0  0  0  0  0
  2  3  1  0  0  0  0
  3 12  1  0  0  0  0
  4  3  2  0  0  0  0
  4  9  1  0  0  0  0
  5  4  1  0  0  0  0
  6  8  1  0  0  0  0
  6  5  2  0  0  0  0
  7  6  1  0  0  0  0
  8  2  2  0  0  0  0
 10  5  1  0  0  0  0
 11 16  1  0  0  0  0
 12 13  1  0  0  0  0
 12 11  2  0  0  0  0
 13 14  2  0  0  0  0
 14 15  1  0  0  0  0
 15 19  1  0  0  0  0
 16 15  2  0  0  0  0
 17 11  1  0  0  0  0
 18 13  1  0  0  0  0
 19 22  1  0  0  0  0
 19 21  1  0  0  0  0
 20 19  1  0  0  0  0
 23 24  1  0  0  0  0
 23  8  1  0  0  0  0
 24 25  1  0  0  0  0
 26 24  2  0  0  0  0
 27 26  1  0  0  0  0
 28 30  1  0  0  0  0
 28 26  1  0  0  0  0
 29 28  1  0  0  0  0
 30 23  2  0  0  0  0
M  END
>  <minimizedAffinity>
-5.64085913

>  <minimizedRMSD>
0.373455197

$$$$
