
 OpenBabel03212520123D

 30 32  0  0  0  0  0  0  0  0999 V2000
   42.8480   84.4870   58.6500 Cl  0  0  0  0  0  0  0  0  0  0  0  0
   41.8200   83.1080   58.2750 C   0  0  0  0  0  0  0  0  0  0  0  0
   41.0960   82.4330   59.2340 C   0  0  0  0  0  0  0  0  0  0  0  0
   40.3360   81.3700   58.7780 C   0  0  0  0  0  0  0  0  0  0  0  0
   40.2510   80.9450   57.4610 C   0  0  0  0  0  0  0  0  0  0  0  0
   40.9810   81.6400   56.5520 C   0  0  0  0  0  0  0  0  0  0  0  0
   40.9400   81.1770   54.8490 Cl  0  0  0  0  0  0  0  0  0  0  0  0
   41.7620   82.7150   56.9510 C   0  0  0  0  0  0  0  0  0  0  0  0
   39.7620   80.8290   59.5200 H   0  0  0  0  0  0  0  0  0  0  0  0
   39.6320   80.1030   57.1910 H   0  0  0  0  0  0  0  0  0  0  0  0
   42.1230   82.4730   61.5540 C   0  0  0  0  0  0  0  0  0  0  0  0
   41.1700   82.8540   60.5960 C   0  0  0  0  0  0  0  0  0  0  0  0
   40.1720   83.7440   60.9970 C   0  0  0  0  0  0  0  0  0  0  0  0
   40.2030   84.1750   62.2880 N   0  0  0  0  0  0  0  0  0  0  0  0
   41.1220   83.7960   63.1790 C   0  0  0  0  0  0  0  0  0  0  0  0
   42.0910   82.9370   62.8060 N   0  0  0  0  0  0  0  0  0  0  0  0
   42.8780   81.7800   61.1930 H   0  0  0  0  0  0  0  0  0  0  0  0
   39.3970   84.0900   60.3220 H   0  0  0  0  0  0  0  0  0  0  0  0
   40.9960   84.3710   64.5480 C   0  0  0  0  0  0  0  0  0  0  0  0
   40.6030   85.6870   64.5150 F   0  0  0  0  0  0  0  0  0  0  0  0
   40.0490   83.6580   65.2550 F   0  0  0  0  0  0  0  0  0  0  0  0
   42.2170   84.3510   65.2160 F   0  0  0  0  0  0  0  0  0  0  0  0
   42.5190   83.4140   55.9170 C   0  0  0  0  0  0  0  0  0  0  0  0
   43.7580   82.9110   55.5800 C   0  0  0  0  0  0  0  0  0  0  0  0
   44.3450   82.0850   55.9030 H   0  0  0  0  0  0  0  0  0  0  0  0
   44.2580   83.7570   54.5820 C   0  0  0  0  0  0  0  0  0  0  0  0
   45.1740   83.7990   53.9920 H   0  0  0  0  0  0  0  0  0  0  0  0
   43.3210   84.7230   54.3560 N   0  0  0  0  0  0  0  0  0  0  0  0
   43.2550   85.5530   53.7150 H   0  0  0  0  0  0  0  0  0  0  0  0
   42.2920   84.5100   55.1560 N   0  0  0  0  0  0  0  0  0  0  0  0
  2  1  1  0  0  0  0
  2  3  1  0  0  0  0
  3 12  1  0  0  0  0
  4  3  2  0  0  0  0
  4  9  1  0  0  0  0
  5  4  1  0  0  0  0
  6  8  1  0  0  0  0
  6  5  2  0  0  0  0
  7  6  1  0  0  0  0
  8  2  2  0  0  0  0
 10  5  1  0  0  0  0
 11 16  1  0  0  0  0
 12 13  1  0  0  0  0
 12 11  2  0  0  0  0
 13 14  2  0  0  0  0
 14 15  1  0  0  0  0
 15 19  1  0  0  0  0
 16 15  2  0  0  0  0
 17 11  1  0  0  0  0
 18 13  1  0  0  0  0
 19 22  1  0  0  0  0
 19 21  1  0  0  0  0
 20 19  1  0  0  0  0
 23  8  1  0  0  0  0
 24 25  1  0  0  0  0
 24 23  1  0  0  0  0
 26 24  2  0  0  0  0
 27 26  1  0  0  0  0
 28 26  1  0  0  0  0
 28 30  1  0  0  0  0
 29 28  1  0  0  0  0
 30 23  2  0  0  0  0
M  END
>  <minimizedAffinity>
-5.645998

>  <minimizedRMSD>
1.22331059

$$$$
