
 OpenBabel03212520483D

 27 29  0  0  0  0  0  0  0  0999 V2000
   41.5830   83.8840   61.4640 C   0  0  0  0  0  0  0  0  0  0  0  0
   40.9890   84.3190   62.6240 C   0  0  0  0  0  0  0  0  0  0  0  0
   40.5230   83.4380   63.6040 C   0  0  0  0  0  0  0  0  0  0  0  0
   40.6640   82.1110   63.4030 N   0  0  0  0  0  0  0  0  0  0  0  0
   41.2440   81.6990   62.2710 C   0  0  0  0  0  0  0  0  0  0  0  0
   41.7060   82.5460   61.2980 N   0  0  0  0  0  0  0  0  0  0  0  0
   40.8860   85.3860   62.7650 H   0  0  0  0  0  0  0  0  0  0  0  0
   40.0750   83.8550   64.4740 H   0  0  0  0  0  0  0  0  0  0  0  0
   43.6090   86.3710   59.6990 C   0  0  0  0  0  0  0  0  0  0  0  0
   42.9030   86.5090   58.4880 C   0  0  0  0  0  0  0  0  0  0  0  0
   41.7560   85.7580   58.2910 C   0  0  0  0  0  0  0  0  0  0  0  0
   41.3810   84.9210   59.3030 N   0  0  0  0  0  0  0  0  0  0  0  0
   42.0680   84.8080   60.4430 C   0  0  0  0  0  0  0  0  0  0  0  0
   43.1750   85.5210   60.6530 N   0  0  0  0  0  0  0  0  0  0  0  0
   44.7700   87.1930   59.7830 N   0  0  0  0  0  0  0  0  0  0  0  0
   43.1980   87.1650   57.6960 H   0  0  0  0  0  0  0  0  0  0  0  0
   41.1910   85.8330   57.3860 H   0  0  0  0  0  0  0  0  0  0  0  0
   45.0000   87.6230   60.7290 H   0  0  0  0  0  0  0  0  0  0  0  0
   45.3680   87.3650   58.9470 H   0  0  0  0  0  0  0  0  0  0  0  0
   41.3610   80.2510   62.1240 C   0  0  0  0  0  0  0  0  0  0  0  0
   42.1730   79.3030   61.5280 C   0  0  0  0  0  0  0  0  0  0  0  0
   43.0040   79.7380   60.9840 H   0  0  0  0  0  0  0  0  0  0  0  0
   41.6390   78.0630   61.8320 C   0  0  0  0  0  0  0  0  0  0  0  0
   42.1760   77.2180   61.4280 H   0  0  0  0  0  0  0  0  0  0  0  0
   40.5350   78.2680   62.5910 N   0  0  0  0  0  0  0  0  0  0  0  0
   39.9990   77.4330   62.9140 H   0  0  0  0  0  0  0  0  0  0  0  0
   40.3650   79.5780   62.7680 N   0  0  0  0  0  0  0  0  0  0  0  0
  1  2  1  0  0  0  0
  2  7  1  0  0  0  0
  2  3  2  0  0  0  0
  3  8  1  0  0  0  0
  4  3  1  0  0  0  0
  5  4  2  0  0  0  0
  6  1  2  0  0  0  0
  6  5  1  0  0  0  0
  9 15  1  0  0  0  0
  9 14  1  0  0  0  0
 10  9  2  0  0  0  0
 11 10  1  0  0  0  0
 11 12  2  0  0  0  0
 12 13  1  0  0  0  0
 13 14  2  0  0  0  0
 13  1  1  0  0  0  0
 15 18  1  0  0  0  0
 16 10  1  0  0  0  0
 17 11  1  0  0  0  0
 19 15  1  0  0  0  0
 20  5  1  0  0  0  0
 20 27  2  0  0  0  0
 21 23  2  0  0  0  0
 21 20  1  0  0  0  0
 22 21  1  0  0  0  0
 23 25  1  0  0  0  0
 24 23  1  0  0  0  0
 25 27  1  0  0  0  0
 25 26  1  0  0  0  0
M  END
>  <minimizedAffinity>
-5.48876619

>  <minimizedRMSD>
0.160163075

$$$$
