
 OpenBabel03212520473D

 27 29  0  0  0  0  0  0  0  0999 V2000
   41.5780   83.8230   61.4350 C   0  0  0  0  0  0  0  0  0  0  0  0
   41.2810   84.2070   62.7200 C   0  0  0  0  0  0  0  0  0  0  0  0
   40.8200   83.3060   63.6830 C   0  0  0  0  0  0  0  0  0  0  0  0
   40.6610   82.0110   63.3370 N   0  0  0  0  0  0  0  0  0  0  0  0
   40.9540   81.6490   62.0840 C   0  0  0  0  0  0  0  0  0  0  0  0
   41.4070   82.5160   61.1250 N   0  0  0  0  0  0  0  0  0  0  0  0
   41.4160   85.2480   62.9760 H   0  0  0  0  0  0  0  0  0  0  0  0
   40.6120   83.6830   64.6570 H   0  0  0  0  0  0  0  0  0  0  0  0
   43.5880   86.3620   59.7240 C   0  0  0  0  0  0  0  0  0  0  0  0
   42.8920   86.5080   58.5090 C   0  0  0  0  0  0  0  0  0  0  0  0
   41.7570   85.7450   58.2910 C   0  0  0  0  0  0  0  0  0  0  0  0
   41.3830   84.8890   59.2870 N   0  0  0  0  0  0  0  0  0  0  0  0
   42.0610   84.7690   60.4320 C   0  0  0  0  0  0  0  0  0  0  0  0
   43.1560   85.4920   60.6620 N   0  0  0  0  0  0  0  0  0  0  0  0
   44.7370   87.1980   59.8320 N   0  0  0  0  0  0  0  0  0  0  0  0
   43.1850   87.1790   57.7300 H   0  0  0  0  0  0  0  0  0  0  0  0
   41.1990   85.8260   57.3820 H   0  0  0  0  0  0  0  0  0  0  0  0
   44.9530   87.6160   60.7860 H   0  0  0  0  0  0  0  0  0  0  0  0
   45.3410   87.3890   59.0040 H   0  0  0  0  0  0  0  0  0  0  0  0
   40.7580   80.2340   61.7840 C   0  0  0  0  0  0  0  0  0  0  0  0
   40.6630   79.3780   60.7010 C   0  0  0  0  0  0  0  0  0  0  0  0
   40.7610   79.8860   59.7490 H   0  0  0  0  0  0  0  0  0  0  0  0
   40.4660   78.1050   61.2090 C   0  0  0  0  0  0  0  0  0  0  0  0
   40.3720   77.3230   60.4690 H   0  0  0  0  0  0  0  0  0  0  0  0
   40.4440   78.2010   62.5600 N   0  0  0  0  0  0  0  0  0  0  0  0
   40.3030   77.3270   63.1130 H   0  0  0  0  0  0  0  0  0  0  0  0
   40.6190   79.4740   62.9080 N   0  0  0  0  0  0  0  0  0  0  0  0
  1  2  1  0  0  0  0
  2  7  1  0  0  0  0
  2  3  2  0  0  0  0
  3  8  1  0  0  0  0
  4  3  1  0  0  0  0
  5  4  2  0  0  0  0
  6  1  2  0  0  0  0
  6  5  1  0  0  0  0
  9 15  1  0  0  0  0
  9 14  1  0  0  0  0
 10  9  2  0  0  0  0
 11 10  1  0  0  0  0
 11 12  2  0  0  0  0
 12 13  1  0  0  0  0
 13 14  2  0  0  0  0
 13  1  1  0  0  0  0
 15 18  1  0  0  0  0
 16 10  1  0  0  0  0
 17 11  1  0  0  0  0
 19 15  1  0  0  0  0
 20  5  1  0  0  0  0
 20 27  2  0  0  0  0
 21 23  2  0  0  0  0
 21 20  1  0  0  0  0
 22 21  1  0  0  0  0
 23 25  1  0  0  0  0
 24 23  1  0  0  0  0
 25 27  1  0  0  0  0
 25 26  1  0  0  0  0
M  END
>  <minimizedAffinity>
-5.50400734

>  <minimizedRMSD>
0.421739072

$$$$
