
 OpenBabel03212520103D

 17 18  0  0  0  0  0  0  0  0999 V2000
   38.9180   77.0130   57.9730 C   0  0  0  0  0  0  0  0  0  0  0  0
   38.4370   75.7560   58.3600 C   0  0  0  0  0  0  0  0  0  0  0  0
   37.4590   75.1600   57.5710 C   0  0  0  0  0  0  0  0  0  0  0  0
   37.0150   75.8310   56.4560 N   0  0  0  0  0  0  0  0  0  0  0  0
   37.5080   77.0450   56.1180 C   0  0  0  0  0  0  0  0  0  0  0  0
   38.4520   77.6270   56.8740 N   0  0  0  0  0  0  0  0  0  0  0  0
   39.6860   77.4870   58.5870 H   0  0  0  0  0  0  0  0  0  0  0  0
   37.0740   74.1890   57.8540 H   0  0  0  0  0  0  0  0  0  0  0  0
   37.1570   77.5570   55.2500 H   0  0  0  0  0  0  0  0  0  0  0  0
   38.9320   75.0950   59.5330 C   0  0  0  0  0  0  0  0  0  0  0  0
   38.9610   73.7560   59.7640 C   0  0  0  0  0  0  0  0  0  0  0  0
   38.5960   73.0040   59.0530 H   0  0  0  0  0  0  0  0  0  0  0  0
   39.5100   73.4700   61.0110 C   0  0  0  0  0  0  0  0  0  0  0  0
   39.6660   72.5000   61.4750 H   0  0  0  0  0  0  0  0  0  0  0  0
   39.8010   74.6910   61.4970 N   0  0  0  0  0  0  0  0  0  0  0  0
   40.2380   74.8500   62.4390 H   0  0  0  0  0  0  0  0  0  0  0  0
   39.4600   75.6420   60.6280 N   0  0  0  0  0  0  0  0  0  0  0  0
  1  2  1  0  0  0  0
  1  7  1  0  0  0  0
  2 10  1  0  0  0  0
  3  8  1  0  0  0  0
  3  2  2  0  0  0  0
  4  3  1  0  0  0  0
  5  4  2  0  0  0  0
  5  6  1  0  0  0  0
  6  1  2  0  0  0  0
  9  5  1  0  0  0  0
 10 11  1  0  0  0  0
 10 17  2  0  0  0  0
 11 13  2  0  0  0  0
 12 11  1  0  0  0  0
 13 14  1  0  0  0  0
 13 15  1  0  0  0  0
 15 16  1  0  0  0  0
 17 15  1  0  0  0  0
M  END
>  <minimizedAffinity>
-3.93120122

$$$$

 OpenBabel03212520103D

 17 18  0  0  0  0  0  0  0  0999 V2000
   39.0780   76.8420   58.6160 C   0  0  0  0  0  0  0  0  0  0  0  0
   38.3690   75.6820   58.2800 C   0  0  0  0  0  0  0  0  0  0  0  0
   38.3620   74.6330   59.1930 C   0  0  0  0  0  0  0  0  0  0  0  0
   39.0490   74.7860   60.3740 N   0  0  0  0  0  0  0  0  0  0  0  0
   39.7210   75.9250   60.6600 C   0  0  0  0  0  0  0  0  0  0  0  0
   39.7330   76.9420   59.7840 N   0  0  0  0  0  0  0  0  0  0  0  0
   39.0880   77.6700   57.9050 H   0  0  0  0  0  0  0  0  0  0  0  0
   37.8200   73.7280   58.9510 H   0  0  0  0  0  0  0  0  0  0  0  0
   40.2500   76.0340   61.5800 H   0  0  0  0  0  0  0  0  0  0  0  0
   37.6680   75.5690   57.0340 C   0  0  0  0  0  0  0  0  0  0  0  0
   37.5690   76.5160   56.0640 C   0  0  0  0  0  0  0  0  0  0  0  0
   38.0320   77.5090   56.1280 H   0  0  0  0  0  0  0  0  0  0  0  0
   36.8100   76.0620   54.9890 C   0  0  0  0  0  0  0  0  0  0  0  0
   36.5550   76.5850   54.0720 H   0  0  0  0  0  0  0  0  0  0  0  0
   36.4700   74.8160   55.3680 N   0  0  0  0  0  0  0  0  0  0  0  0
   35.8840   74.1710   54.7810 H   0  0  0  0  0  0  0  0  0  0  0  0
   36.9750   74.5300   56.5680 N   0  0  0  0  0  0  0  0  0  0  0  0
  1  6  1  0  0  0  0
  2  1  2  0  0  0  0
  2  3  1  0  0  0  0
  3  4  2  0  0  0  0
  4  5  1  0  0  0  0
  5  9  1  0  0  0  0
  6  5  2  0  0  0  0
  7  1  1  0  0  0  0
  8  3  1  0  0  0  0
 10  2  1  0  0  0  0
 11 12  1  0  0  0  0
 11 10  1  0  0  0  0
 13 15  1  0  0  0  0
 13 11  2  0  0  0  0
 14 13  1  0  0  0  0
 15 17  1  0  0  0  0
 16 15  1  0  0  0  0
 17 10  2  0  0  0  0
M  END
>  <minimizedAffinity>
-3.89559698

$$$$

 OpenBabel03212520103D

 17 18  0  0  0  0  0  0  0  0999 V2000
   37.5110   75.0180   57.4160 C   0  0  0  0  0  0  0  0  0  0  0  0
   38.3790   75.7250   58.2560 C   0  0  0  0  0  0  0  0  0  0  0  0
   38.7790   76.9970   57.8620 C   0  0  0  0  0  0  0  0  0  0  0  0
   38.3050   77.4950   56.6710 N   0  0  0  0  0  0  0  0  0  0  0  0
   37.4660   76.7770   55.8890 C   0  0  0  0  0  0  0  0  0  0  0  0
   37.0750   75.5480   56.2620 N   0  0  0  0  0  0  0  0  0  0  0  0
   37.1930   74.0190   57.7200 H   0  0  0  0  0  0  0  0  0  0  0  0
   39.4500   77.5590   58.4980 H   0  0  0  0  0  0  0  0  0  0  0  0
   37.1030   77.1730   54.9670 H   0  0  0  0  0  0  0  0  0  0  0  0
   38.8480   75.1630   59.4900 C   0  0  0  0  0  0  0  0  0  0  0  0
   38.8060   73.8560   59.8610 C   0  0  0  0  0  0  0  0  0  0  0  0
   38.3920   73.0560   59.2350 H   0  0  0  0  0  0  0  0  0  0  0  0
   39.3510   73.6720   61.1280 C   0  0  0  0  0  0  0  0  0  0  0  0
   39.4570   72.7490   61.6920 H   0  0  0  0  0  0  0  0  0  0  0  0
   39.7140   74.9190   61.4830 N   0  0  0  0  0  0  0  0  0  0  0  0
   40.1680   75.1510   62.4010 H   0  0  0  0  0  0  0  0  0  0  0  0
   39.4180   75.7910   60.5190 N   0  0  0  0  0  0  0  0  0  0  0  0
  1  7  1  0  0  0  0
  1  2  1  0  0  0  0
  2 10  1  0  0  0  0
  3  2  2  0  0  0  0
  3  8  1  0  0  0  0
  4  3  1  0  0  0  0
  5  6  1  0  0  0  0
  5  4  2  0  0  0  0
  6  1  2  0  0  0  0
  9  5  1  0  0  0  0
 10 11  1  0  0  0  0
 10 17  2  0  0  0  0
 11 13  2  0  0  0  0
 12 11  1  0  0  0  0
 13 15  1  0  0  0  0
 13 14  1  0  0  0  0
 15 16  1  0  0  0  0
 17 15  1  0  0  0  0
M  END
>  <minimizedAffinity>
-3.89295602

$$$$

 OpenBabel03212520103D

 17 18  0  0  0  0  0  0  0  0999 V2000
   38.3220   74.6770   59.0660 C   0  0  0  0  0  0  0  0  0  0  0  0
   38.3230   75.7330   58.1470 C   0  0  0  0  0  0  0  0  0  0  0  0
   39.0310   76.8840   58.4740 C   0  0  0  0  0  0  0  0  0  0  0  0
   39.6920   76.9270   59.6790 N   0  0  0  0  0  0  0  0  0  0  0  0
   39.6660   75.8820   60.5390 C   0  0  0  0  0  0  0  0  0  0  0  0
   38.9840   74.7680   60.2300 N   0  0  0  0  0  0  0  0  0  0  0  0
   37.7680   73.7690   58.8150 H   0  0  0  0  0  0  0  0  0  0  0  0
   39.0430   77.7110   57.7770 H   0  0  0  0  0  0  0  0  0  0  0  0
   40.1830   75.9270   61.4710 H   0  0  0  0  0  0  0  0  0  0  0  0
   37.6170   75.6400   56.9010 C   0  0  0  0  0  0  0  0  0  0  0  0
   37.4190   76.6370   55.9990 C   0  0  0  0  0  0  0  0  0  0  0  0
   37.7910   77.6620   56.1270 H   0  0  0  0  0  0  0  0  0  0  0  0
   36.6900   76.1880   54.9010 C   0  0  0  0  0  0  0  0  0  0  0  0
   36.3760   76.7470   54.0240 H   0  0  0  0  0  0  0  0  0  0  0  0
   36.4700   74.8940   55.1960 N   0  0  0  0  0  0  0  0  0  0  0  0
   35.9370   74.2400   54.5710 H   0  0  0  0  0  0  0  0  0  0  0  0
   37.0150   74.5750   56.3700 N   0  0  0  0  0  0  0  0  0  0  0  0
  1  6  1  0  0  0  0
  2  3  1  0  0  0  0
  2  1  2  0  0  0  0
  3  4  2  0  0  0  0
  4  5  1  0  0  0  0
  5  9  1  0  0  0  0
  6  5  2  0  0  0  0
  7  1  1  0  0  0  0
  8  3  1  0  0  0  0
 10  2  1  0  0  0  0
 11 12  1  0  0  0  0
 11 10  1  0  0  0  0
 13 15  1  0  0  0  0
 13 11  2  0  0  0  0
 14 13  1  0  0  0  0
 15 17  1  0  0  0  0
 16 15  1  0  0  0  0
 17 10  2  0  0  0  0
M  END
>  <minimizedAffinity>
-3.88606334

$$$$

 OpenBabel03212520103D

 17 18  0  0  0  0  0  0  0  0999 V2000
   37.9220   74.0300   58.0550 C   0  0  0  0  0  0  0  0  0  0  0  0
   38.8810   73.8840   59.0640 C   0  0  0  0  0  0  0  0  0  0  0  0
   39.6010   72.6960   59.1160 C   0  0  0  0  0  0  0  0  0  0  0  0
   39.3360   71.7270   58.1770 N   0  0  0  0  0  0  0  0  0  0  0  0
   38.3990   71.9090   57.2170 C   0  0  0  0  0  0  0  0  0  0  0  0
   37.7000   73.0530   57.1610 N   0  0  0  0  0  0  0  0  0  0  0  0
   37.3520   74.9600   58.0080 H   0  0  0  0  0  0  0  0  0  0  0  0
   40.3470   72.5650   59.8880 H   0  0  0  0  0  0  0  0  0  0  0  0
   38.2020   71.1500   56.4930 H   0  0  0  0  0  0  0  0  0  0  0  0
   39.1220   74.9250   60.0220 C   0  0  0  0  0  0  0  0  0  0  0  0
   39.8560   76.0540   59.8340 C   0  0  0  0  0  0  0  0  0  0  0  0
   40.3660   76.3030   58.8950 H   0  0  0  0  0  0  0  0  0  0  0  0
   39.8750   76.8410   60.9820 C   0  0  0  0  0  0  0  0  0  0  0  0
   40.3740   77.7940   61.1400 H   0  0  0  0  0  0  0  0  0  0  0  0
   39.1250   76.1310   61.8450 N   0  0  0  0  0  0  0  0  0  0  0  0
   38.9260   76.4400   62.8290 H   0  0  0  0  0  0  0  0  0  0  0  0
   38.6850   75.0080   61.2780 N   0  0  0  0  0  0  0  0  0  0  0  0
  1  2  1  0  0  0  0
  2  3  2  0  0  0  0
  2 10  1  0  0  0  0
  3  8  1  0  0  0  0
  4  3  1  0  0  0  0
  5  4  2  0  0  0  0
  6  5  1  0  0  0  0
  6  1  2  0  0  0  0
  7  1  1  0  0  0  0
  9  5  1  0  0  0  0
 10 17  2  0  0  0  0
 11 10  1  0  0  0  0
 11 13  2  0  0  0  0
 12 11  1  0  0  0  0
 13 14  1  0  0  0  0
 13 15  1  0  0  0  0
 15 16  1  0  0  0  0
 17 15  1  0  0  0  0
M  END
>  <minimizedAffinity>
-3.8858912

$$$$

 OpenBabel03212520103D

 17 18  0  0  0  0  0  0  0  0999 V2000
   43.1180   70.9010   61.1670 C   0  0  0  0  0  0  0  0  0  0  0  0
   42.8270   72.2440   61.4330 C   0  0  0  0  0  0  0  0  0  0  0  0
   42.0200   72.5340   62.5270 C   0  0  0  0  0  0  0  0  0  0  0  0
   41.5490   71.4920   63.2910 N   0  0  0  0  0  0  0  0  0  0  0  0
   41.8560   70.2060   62.9980 C   0  0  0  0  0  0  0  0  0  0  0  0
   42.6340   69.9190   61.9430 N   0  0  0  0  0  0  0  0  0  0  0  0
   43.7510   70.6660   60.3090 H   0  0  0  0  0  0  0  0  0  0  0  0
   41.7830   73.5670   62.7490 H   0  0  0  0  0  0  0  0  0  0  0  0
   41.4860   69.4050   63.5980 H   0  0  0  0  0  0  0  0  0  0  0  0
   43.3410   73.2980   60.6060 C   0  0  0  0  0  0  0  0  0  0  0  0
   42.6230   74.1490   59.8260 C   0  0  0  0  0  0  0  0  0  0  0  0
   41.5290   74.1230   59.7380 H   0  0  0  0  0  0  0  0  0  0  0  0
   43.4520   75.0480   59.1610 C   0  0  0  0  0  0  0  0  0  0  0  0
   43.1750   75.8410   58.4730 H   0  0  0  0  0  0  0  0  0  0  0  0
   44.6800   74.6910   59.5830 N   0  0  0  0  0  0  0  0  0  0  0  0
   45.5600   75.1710   59.2720 H   0  0  0  0  0  0  0  0  0  0  0  0
   44.6110   73.6650   60.4310 N   0  0  0  0  0  0  0  0  0  0  0  0
  1  2  2  0  0  0  0
  1  6  1  0  0  0  0
  2  3  1  0  0  0  0
  3  8  1  0  0  0  0
  3  4  2  0  0  0  0
  5  4  1  0  0  0  0
  5  9  1  0  0  0  0
  6  5  2  0  0  0  0
  7  1  1  0  0  0  0
 10  2  1  0  0  0  0
 11 10  1  0  0  0  0
 12 11  1  0  0  0  0
 13 15  1  0  0  0  0
 13 11  2  0  0  0  0
 14 13  1  0  0  0  0
 15 17  1  0  0  0  0
 16 15  1  0  0  0  0
 17 10  2  0  0  0  0
M  END
>  <minimizedAffinity>
-3.84340954

$$$$

 OpenBabel03212520103D

 17 18  0  0  0  0  0  0  0  0999 V2000
   41.6000   70.2220   63.3190 C   0  0  0  0  0  0  0  0  0  0  0  0
   42.2500   69.3870   62.4030 C   0  0  0  0  0  0  0  0  0  0  0  0
   42.9940   69.9810   61.3890 C   0  0  0  0  0  0  0  0  0  0  0  0
   43.0540   71.3540   61.3370 N   0  0  0  0  0  0  0  0  0  0  0  0
   42.4100   72.1250   62.2440 C   0  0  0  0  0  0  0  0  0  0  0  0
   41.6890   71.5580   63.2250 N   0  0  0  0  0  0  0  0  0  0  0  0
   41.0140   69.7620   64.1170 H   0  0  0  0  0  0  0  0  0  0  0  0
   43.5040   69.3520   60.6720 H   0  0  0  0  0  0  0  0  0  0  0  0
   42.4630   73.1890   62.1950 H   0  0  0  0  0  0  0  0  0  0  0  0
   42.1590   67.9580   62.4980 C   0  0  0  0  0  0  0  0  0  0  0  0
   41.1920   67.1650   61.9660 C   0  0  0  0  0  0  0  0  0  0  0  0
   40.3420   67.5420   61.3830 H   0  0  0  0  0  0  0  0  0  0  0  0
   41.4220   65.8230   62.2570 C   0  0  0  0  0  0  0  0  0  0  0  0
   40.8290   64.9580   61.9720 H   0  0  0  0  0  0  0  0  0  0  0  0
   42.5580   65.8630   62.9770 N   0  0  0  0  0  0  0  0  0  0  0  0
   43.0270   65.0080   63.3670 H   0  0  0  0  0  0  0  0  0  0  0  0
   42.9880   67.1170   63.1160 N   0  0  0  0  0  0  0  0  0  0  0  0
  1  7  1  0  0  0  0
  2 10  1  0  0  0  0
  2  1  2  0  0  0  0
  3  2  1  0  0  0  0
  4  3  2  0  0  0  0
  4  5  1  0  0  0  0
  5  6  2  0  0  0  0
  6  1  1  0  0  0  0
  8  3  1  0  0  0  0
  9  5  1  0  0  0  0
 10 17  2  0  0  0  0
 11 13  2  0  0  0  0
 11 10  1  0  0  0  0
 12 11  1  0  0  0  0
 13 15  1  0  0  0  0
 14 13  1  0  0  0  0
 15 17  1  0  0  0  0
 15 16  1  0  0  0  0
M  END
>  <minimizedAffinity>
-3.80314469

$$$$

 OpenBabel03212520103D

 17 18  0  0  0  0  0  0  0  0999 V2000
   42.1730   73.4450   60.6460 C   0  0  0  0  0  0  0  0  0  0  0  0
   40.8110   73.6060   60.9260 C   0  0  0  0  0  0  0  0  0  0  0  0
   40.2550   72.8290   61.9370 C   0  0  0  0  0  0  0  0  0  0  0  0
   41.0670   71.9450   62.6080 N   0  0  0  0  0  0  0  0  0  0  0  0
   42.3810   71.8210   62.3040 C   0  0  0  0  0  0  0  0  0  0  0  0
   42.9240   72.5670   61.3300 N   0  0  0  0  0  0  0  0  0  0  0  0
   42.6170   74.0510   59.8540 H   0  0  0  0  0  0  0  0  0  0  0  0
   39.2040   72.9390   62.1680 H   0  0  0  0  0  0  0  0  0  0  0  0
   43.0020   71.1320   62.8320 H   0  0  0  0  0  0  0  0  0  0  0  0
   40.0040   74.5420   60.1980 C   0  0  0  0  0  0  0  0  0  0  0  0
   40.3220   75.8260   59.8870 C   0  0  0  0  0  0  0  0  0  0  0  0
   41.2670   76.3080   60.1690 H   0  0  0  0  0  0  0  0  0  0  0  0
   39.2990   76.4410   59.1710 C   0  0  0  0  0  0  0  0  0  0  0  0
   39.2600   77.4570   58.7850 H   0  0  0  0  0  0  0  0  0  0  0  0
   38.3740   75.4690   59.0750 N   0  0  0  0  0  0  0  0  0  0  0  0
   37.4530   75.5930   58.5850 H   0  0  0  0  0  0  0  0  0  0  0  0
   38.7900   74.3560   59.6780 N   0  0  0  0  0  0  0  0  0  0  0  0
  1  2  2  0  0  0  0
  1  6  1  0  0  0  0
  2  3  1  0  0  0  0
  3  8  1  0  0  0  0
  3  4  2  0  0  0  0
  5  4  1  0  0  0  0
  5  9  1  0  0  0  0
  6  5  2  0  0  0  0
  7  1  1  0  0  0  0
 10  2  1  0  0  0  0
 11 12  1  0  0  0  0
 11 10  1  0  0  0  0
 13 11  2  0  0  0  0
 14 13  1  0  0  0  0
 15 13  1  0  0  0  0
 15 17  1  0  0  0  0
 16 15  1  0  0  0  0
 17 10  2  0  0  0  0
M  END
>  <minimizedAffinity>
-3.69081688

$$$$

 OpenBabel03212520103D

 17 18  0  0  0  0  0  0  0  0999 V2000
   41.8070   73.3080   60.1920 C   0  0  0  0  0  0  0  0  0  0  0  0
   40.4760   73.1520   60.5960 C   0  0  0  0  0  0  0  0  0  0  0  0
   40.2330   72.6620   61.8740 C   0  0  0  0  0  0  0  0  0  0  0  0
   41.3080   72.3550   62.6750 N   0  0  0  0  0  0  0  0  0  0  0  0
   42.5810   72.5210   62.2450 C   0  0  0  0  0  0  0  0  0  0  0  0
   42.8230   72.9930   61.0120 N   0  0  0  0  0  0  0  0  0  0  0  0
   42.0050   73.6930   59.1900 H   0  0  0  0  0  0  0  0  0  0  0  0
   39.2100   72.5340   62.2050 H   0  0  0  0  0  0  0  0  0  0  0  0
   43.4080   72.2800   62.8740 H   0  0  0  0  0  0  0  0  0  0  0  0
   39.3860   73.4870   59.7250 C   0  0  0  0  0  0  0  0  0  0  0  0
   39.1790   73.0270   58.4620 C   0  0  0  0  0  0  0  0  0  0  0  0
   39.8480   72.3240   57.9500 H   0  0  0  0  0  0  0  0  0  0  0  0
   38.0190   73.5640   57.9130 C   0  0  0  0  0  0  0  0  0  0  0  0
   37.5930   73.3890   56.9290 H   0  0  0  0  0  0  0  0  0  0  0  0
   37.5550   74.3520   58.9010 N   0  0  0  0  0  0  0  0  0  0  0  0
   36.6750   74.9200   58.8240 H   0  0  0  0  0  0  0  0  0  0  0  0
   38.3600   74.3040   59.9620 N   0  0  0  0  0  0  0  0  0  0  0  0
  1  2  2  0  0  0  0
  1  6  1  0  0  0  0
  2  3  1  0  0  0  0
  3  8  1  0  0  0  0
  3  4  2  0  0  0  0
  5  4  1  0  0  0  0
  5  9  1  0  0  0  0
  6  5  2  0  0  0  0
  7  1  1  0  0  0  0
 10 17  2  0  0  0  0
 10  2  1  0  0  0  0
 11 10  1  0  0  0  0
 12 11  1  0  0  0  0
 13 11  2  0  0  0  0
 13 15  1  0  0  0  0
 14 13  1  0  0  0  0
 15 17  1  0  0  0  0
 16 15  1  0  0  0  0
M  END
>  <minimizedAffinity>
-3.68710184

$$$$
