
 OpenBabel03212520483D

 27 29  0  0  0  0  0  0  0  0999 V2000
   41.6010   83.8620   61.4480 C   0  0  0  0  0  0  0  0  0  0  0  0
   41.1260   84.2660   62.6710 C   0  0  0  0  0  0  0  0  0  0  0  0
   40.6630   83.3610   63.6310 C   0  0  0  0  0  0  0  0  0  0  0  0
   40.6840   82.0430   63.3430 N   0  0  0  0  0  0  0  0  0  0  0  0
   41.1490   81.6620   62.1490 C   0  0  0  0  0  0  0  0  0  0  0  0
   41.6070   82.5320   61.1950 N   0  0  0  0  0  0  0  0  0  0  0  0
   41.1180   85.3260   62.8810 H   0  0  0  0  0  0  0  0  0  0  0  0
   40.3100   83.7550   64.5550 H   0  0  0  0  0  0  0  0  0  0  0  0
   43.6140   86.4050   59.7480 C   0  0  0  0  0  0  0  0  0  0  0  0
   42.9180   86.5570   58.5330 C   0  0  0  0  0  0  0  0  0  0  0  0
   41.7820   85.7970   58.3110 C   0  0  0  0  0  0  0  0  0  0  0  0
   41.4070   84.9370   59.3040 N   0  0  0  0  0  0  0  0  0  0  0  0
   42.0850   84.8110   60.4480 C   0  0  0  0  0  0  0  0  0  0  0  0
   43.1810   85.5330   60.6820 N   0  0  0  0  0  0  0  0  0  0  0  0
   44.7640   87.2400   59.8590 N   0  0  0  0  0  0  0  0  0  0  0  0
   43.2120   87.2310   57.7560 H   0  0  0  0  0  0  0  0  0  0  0  0
   41.2240   85.8810   57.4020 H   0  0  0  0  0  0  0  0  0  0  0  0
   44.9800   87.6540   60.8140 H   0  0  0  0  0  0  0  0  0  0  0  0
   45.3680   87.4340   59.0310 H   0  0  0  0  0  0  0  0  0  0  0  0
   41.1410   80.2210   61.9100 C   0  0  0  0  0  0  0  0  0  0  0  0
   40.6470   79.0520   62.4610 C   0  0  0  0  0  0  0  0  0  0  0  0
   40.0750   79.2190   63.3650 H   0  0  0  0  0  0  0  0  0  0  0  0
   41.0630   78.0150   61.6450 C   0  0  0  0  0  0  0  0  0  0  0  0
   40.7470   77.0280   61.9560 H   0  0  0  0  0  0  0  0  0  0  0  0
   41.7860   78.5520   60.6330 N   0  0  0  0  0  0  0  0  0  0  0  0
   42.1820   77.9060   59.9160 H   0  0  0  0  0  0  0  0  0  0  0  0
   41.8360   79.8740   60.7880 N   0  0  0  0  0  0  0  0  0  0  0  0
  1  2  1  0  0  0  0
  2  7  1  0  0  0  0
  2  3  2  0  0  0  0
  3  8  1  0  0  0  0
  4  3  1  0  0  0  0
  5  4  2  0  0  0  0
  6  1  2  0  0  0  0
  6  5  1  0  0  0  0
  9 15  1  0  0  0  0
  9 14  1  0  0  0  0
 10  9  2  0  0  0  0
 11 10  1  0  0  0  0
 11 12  2  0  0  0  0
 12 13  1  0  0  0  0
 13 14  2  0  0  0  0
 13  1  1  0  0  0  0
 15 18  1  0  0  0  0
 16 10  1  0  0  0  0
 17 11  1  0  0  0  0
 19 15  1  0  0  0  0
 20  5  1  0  0  0  0
 20 21  1  0  0  0  0
 21 22  1  0  0  0  0
 23 24  1  0  0  0  0
 23 21  2  0  0  0  0
 25 27  1  0  0  0  0
 25 23  1  0  0  0  0
 26 25  1  0  0  0  0
 27 20  2  0  0  0  0
M  END
>  <minimizedAffinity>
-5.0282526

>  <minimizedRMSD>
0.204232395

$$$$
