
 OpenBabel03212520473D

 27 29  0  0  0  0  0  0  0  0999 V2000
   41.6010   83.9230   61.4610 C   0  0  0  0  0  0  0  0  0  0  0  0
   41.0630   84.3530   62.6490 C   0  0  0  0  0  0  0  0  0  0  0  0
   40.5980   83.4680   63.6250 C   0  0  0  0  0  0  0  0  0  0  0  0
   40.6820   82.1420   63.3910 N   0  0  0  0  0  0  0  0  0  0  0  0
   41.2070   81.7340   62.2310 C   0  0  0  0  0  0  0  0  0  0  0  0
   41.6680   82.5850   61.2610 N   0  0  0  0  0  0  0  0  0  0  0  0
   41.0060   85.4190   62.8160 H   0  0  0  0  0  0  0  0  0  0  0  0
   40.1960   83.8820   64.5200 H   0  0  0  0  0  0  0  0  0  0  0  0
   43.6240   86.4200   59.7060 C   0  0  0  0  0  0  0  0  0  0  0  0
   42.9200   86.5600   58.4950 C   0  0  0  0  0  0  0  0  0  0  0  0
   41.7750   85.8070   58.2940 C   0  0  0  0  0  0  0  0  0  0  0  0
   41.4000   84.9660   59.3020 N   0  0  0  0  0  0  0  0  0  0  0  0
   42.0850   84.8520   60.4430 C   0  0  0  0  0  0  0  0  0  0  0  0
   43.1900   85.5660   60.6570 N   0  0  0  0  0  0  0  0  0  0  0  0
   44.7830   87.2450   59.7950 N   0  0  0  0  0  0  0  0  0  0  0  0
   43.2140   87.2190   57.7060 H   0  0  0  0  0  0  0  0  0  0  0  0
   41.2110   85.8840   57.3880 H   0  0  0  0  0  0  0  0  0  0  0  0
   45.0100   87.6710   60.7430 H   0  0  0  0  0  0  0  0  0  0  0  0
   45.3820   87.4200   58.9610 H   0  0  0  0  0  0  0  0  0  0  0  0
   41.2640   80.2870   62.0490 C   0  0  0  0  0  0  0  0  0  0  0  0
   40.4290   79.1850   62.0000 C   0  0  0  0  0  0  0  0  0  0  0  0
   39.3840   79.4380   62.1390 H   0  0  0  0  0  0  0  0  0  0  0  0
   41.2310   78.0780   61.7830 C   0  0  0  0  0  0  0  0  0  0  0  0
   40.7080   77.1340   61.7220 H   0  0  0  0  0  0  0  0  0  0  0  0
   42.5120   78.5100   61.7030 N   0  0  0  0  0  0  0  0  0  0  0  0
   43.2610   77.8020   61.5400 H   0  0  0  0  0  0  0  0  0  0  0  0
   42.5360   79.8330   61.8630 N   0  0  0  0  0  0  0  0  0  0  0  0
  1  2  1  0  0  0  0
  2  7  1  0  0  0  0
  2  3  2  0  0  0  0
  3  8  1  0  0  0  0
  4  3  1  0  0  0  0
  5  4  2  0  0  0  0
  6  1  2  0  0  0  0
  6  5  1  0  0  0  0
  9 15  1  0  0  0  0
  9 14  1  0  0  0  0
 10  9  2  0  0  0  0
 11 10  1  0  0  0  0
 11 12  2  0  0  0  0
 12 13  1  0  0  0  0
 13 14  2  0  0  0  0
 13  1  1  0  0  0  0
 15 18  1  0  0  0  0
 16 10  1  0  0  0  0
 17 11  1  0  0  0  0
 19 15  1  0  0  0  0
 20  5  1  0  0  0  0
 21 20  1  0  0  0  0
 21 22  1  0  0  0  0
 23 21  2  0  0  0  0
 24 23  1  0  0  0  0
 25 23  1  0  0  0  0
 25 27  1  0  0  0  0
 26 25  1  0  0  0  0
 27 20  2  0  0  0  0
M  END
>  <minimizedAffinity>
-5.07685757

>  <minimizedRMSD>
0.113574266

$$$$
