
 OpenBabel03212520463D

 19 20  0  0  0  0  0  0  0  0999 V2000
   39.4350   75.5660   60.3050 C   0  0  0  0  0  0  0  0  0  0  0  0
   40.0330   76.8310   60.2520 C   0  0  0  0  0  0  0  0  0  0  0  0
   39.8410   77.6350   59.1270 C   0  0  0  0  0  0  0  0  0  0  0  0
   39.0690   77.1260   58.1320 N   0  0  0  0  0  0  0  0  0  0  0  0
   38.5100   75.9120   58.2110 C   0  0  0  0  0  0  0  0  0  0  0  0
   38.6780   75.1200   59.2820 N   0  0  0  0  0  0  0  0  0  0  0  0
   39.7200   74.8720   61.5050 N   0  0  0  0  0  0  0  0  0  0  0  0
   40.6400   77.2560   61.0100 H   0  0  0  0  0  0  0  0  0  0  0  0
   40.2870   78.6100   59.0560 H   0  0  0  0  0  0  0  0  0  0  0  0
   40.6190   74.3830   61.2320 H   0  0  0  0  0  0  0  0  0  0  0  0
   39.0800   74.9530   62.3380 H   0  0  0  0  0  0  0  0  0  0  0  0
   37.7000   75.4740   57.0780 C   0  0  0  0  0  0  0  0  0  0  0  0
   37.6060   76.4250   56.0590 C   0  0  0  0  0  0  0  0  0  0  0  0
   37.9750   77.4380   55.8570 H   0  0  0  0  0  0  0  0  0  0  0  0
   36.8110   75.8720   55.0530 C   0  0  0  0  0  0  0  0  0  0  0  0
   36.4690   76.2450   54.0790 H   0  0  0  0  0  0  0  0  0  0  0  0
   36.4670   74.6520   55.4860 N   0  0  0  0  0  0  0  0  0  0  0  0
   35.8710   73.9440   54.9920 H   0  0  0  0  0  0  0  0  0  0  0  0
   36.9850   74.4100   56.6760 N   0  0  0  0  0  0  0  0  0  0  0  0
  1  7  1  0  0  0  0
  2  1  1  0  0  0  0
  2  8  1  0  0  0  0
  3  2  2  0  0  0  0
  4  5  2  0  0  0  0
  4  3  1  0  0  0  0
  5  6  1  0  0  0  0
  6  1  2  0  0  0  0
  7 11  1  0  0  0  0
  9  3  1  0  0  0  0
 10  7  1  0  0  0  0
 12  5  1  0  0  0  0
 13 12  1  0  0  0  0
 14 13  1  0  0  0  0
 15 17  1  0  0  0  0
 15 13  2  0  0  0  0
 16 15  1  0  0  0  0
 17 19  1  0  0  0  0
 18 17  1  0  0  0  0
 19 12  2  0  0  0  0
M  END
>  <minimizedAffinity>
-4.46529722

$$$$

 OpenBabel03212520463D

 19 20  0  0  0  0  0  0  0  0999 V2000
   39.2800   71.8350   57.3350 C   0  0  0  0  0  0  0  0  0  0  0  0
   40.3520   71.0060   57.6900 C   0  0  0  0  0  0  0  0  0  0  0  0
   41.0160   71.2210   58.8990 C   0  0  0  0  0  0  0  0  0  0  0  0
   40.5690   72.2440   59.6720 N   0  0  0  0  0  0  0  0  0  0  0  0
   39.5410   73.0190   59.3070 C   0  0  0  0  0  0  0  0  0  0  0  0
   38.8850   72.8340   58.1510 N   0  0  0  0  0  0  0  0  0  0  0  0
   38.7110   71.4940   56.0860 N   0  0  0  0  0  0  0  0  0  0  0  0
   40.7250   70.2020   57.1080 H   0  0  0  0  0  0  0  0  0  0  0  0
   41.8420   70.6030   59.1980 H   0  0  0  0  0  0  0  0  0  0  0  0
   39.3120   72.0770   55.4380 H   0  0  0  0  0  0  0  0  0  0  0  0
   37.9040   70.8180   56.0290 H   0  0  0  0  0  0  0  0  0  0  0  0
   39.1520   74.0880   60.2230 C   0  0  0  0  0  0  0  0  0  0  0  0
   39.9670   75.2190   60.1390 C   0  0  0  0  0  0  0  0  0  0  0  0
   40.8430   75.5480   59.5680 H   0  0  0  0  0  0  0  0  0  0  0  0
   39.4790   76.1460   61.0630 C   0  0  0  0  0  0  0  0  0  0  0  0
   39.7950   77.1590   61.3430 H   0  0  0  0  0  0  0  0  0  0  0  0
   38.4250   75.5620   61.6480 N   0  0  0  0  0  0  0  0  0  0  0  0
   37.8070   75.9620   62.3950 H   0  0  0  0  0  0  0  0  0  0  0  0
   38.2250   74.3510   61.1600 N   0  0  0  0  0  0  0  0  0  0  0  0
  1  2  2  0  0  0  0
  1  6  1  0  0  0  0
  2  3  1  0  0  0  0
  3  9  1  0  0  0  0
  3  4  2  0  0  0  0
  5  4  1  0  0  0  0
  5 12  1  0  0  0  0
  6  5  2  0  0  0  0
  7  1  1  0  0  0  0
  8  2  1  0  0  0  0
 10  7  1  0  0  0  0
 11  7  1  0  0  0  0
 12 19  2  0  0  0  0
 13 12  1  0  0  0  0
 13 15  2  0  0  0  0
 14 13  1  0  0  0  0
 15 16  1  0  0  0  0
 15 17  1  0  0  0  0
 17 18  1  0  0  0  0
 19 17  1  0  0  0  0
M  END
>  <minimizedAffinity>
-4.45015287

$$$$

 OpenBabel03212520463D

 19 20  0  0  0  0  0  0  0  0999 V2000
   37.2600   75.3820   56.3920 C   0  0  0  0  0  0  0  0  0  0  0  0
   37.5840   76.6740   55.9570 C   0  0  0  0  0  0  0  0  0  0  0  0
   38.3630   77.4980   56.7710 C   0  0  0  0  0  0  0  0  0  0  0  0
   38.7660   76.9810   57.9610 N   0  0  0  0  0  0  0  0  0  0  0  0
   38.4410   75.7430   58.3500 C   0  0  0  0  0  0  0  0  0  0  0  0
   37.6940   74.9310   57.5860 N   0  0  0  0  0  0  0  0  0  0  0  0
   36.4670   74.6700   55.4600 N   0  0  0  0  0  0  0  0  0  0  0  0
   37.2840   77.1040   55.0360 H   0  0  0  0  0  0  0  0  0  0  0  0
   38.6270   78.4930   56.4660 H   0  0  0  0  0  0  0  0  0  0  0  0
   35.4990   74.9650   55.7710 H   0  0  0  0  0  0  0  0  0  0  0  0
   36.9160   74.0600   54.7290 H   0  0  0  0  0  0  0  0  0  0  0  0
   38.9340   75.3000   59.6510 C   0  0  0  0  0  0  0  0  0  0  0  0
   38.8680   73.9160   59.8310 C   0  0  0  0  0  0  0  0  0  0  0  0
   38.5430   73.0380   59.2620 H   0  0  0  0  0  0  0  0  0  0  0  0
   39.3690   73.6440   61.1060 C   0  0  0  0  0  0  0  0  0  0  0  0
   39.5090   72.7140   61.6720 H   0  0  0  0  0  0  0  0  0  0  0  0
   39.7060   74.8300   61.6300 N   0  0  0  0  0  0  0  0  0  0  0  0
   40.1180   75.0160   62.5760 H   0  0  0  0  0  0  0  0  0  0  0  0
   39.4540   75.8100   60.7810 N   0  0  0  0  0  0  0  0  0  0  0  0
  1  6  1  0  0  0  0
  2  1  2  0  0  0  0
  2  3  1  0  0  0  0
  3  4  2  0  0  0  0
  4  5  1  0  0  0  0
  5 12  1  0  0  0  0
  6  5  2  0  0  0  0
  7 10  1  0  0  0  0
  7  1  1  0  0  0  0
  8  2  1  0  0  0  0
  9  3  1  0  0  0  0
 11  7  1  0  0  0  0
 12 13  1  0  0  0  0
 12 19  2  0  0  0  0
 13 15  2  0  0  0  0
 14 13  1  0  0  0  0
 15 17  1  0  0  0  0
 15 16  1  0  0  0  0
 17 18  1  0  0  0  0
 19 17  1  0  0  0  0
M  END
>  <minimizedAffinity>
-4.33291054

$$$$

 OpenBabel03212520463D

 19 20  0  0  0  0  0  0  0  0999 V2000
   41.5140   71.2180   62.5530 C   0  0  0  0  0  0  0  0  0  0  0  0
   42.7610   71.1760   61.9150 C   0  0  0  0  0  0  0  0  0  0  0  0
   43.0790   72.1490   60.9660 C   0  0  0  0  0  0  0  0  0  0  0  0
   42.1380   73.0950   60.7160 N   0  0  0  0  0  0  0  0  0  0  0  0
   40.9550   73.1100   61.3420 C   0  0  0  0  0  0  0  0  0  0  0  0
   40.6240   72.1870   62.2590 N   0  0  0  0  0  0  0  0  0  0  0  0
   41.3390   70.1690   63.4870 N   0  0  0  0  0  0  0  0  0  0  0  0
   43.5150   70.4520   62.0880 H   0  0  0  0  0  0  0  0  0  0  0  0
   44.0260   72.1430   60.4590 H   0  0  0  0  0  0  0  0  0  0  0  0
   40.9370   69.4190   62.8560 H   0  0  0  0  0  0  0  0  0  0  0  0
   41.6010   70.3010   64.4990 H   0  0  0  0  0  0  0  0  0  0  0  0
   40.0250   74.1780   60.9890 C   0  0  0  0  0  0  0  0  0  0  0  0
   40.5520   75.0980   60.0790 C   0  0  0  0  0  0  0  0  0  0  0  0
   41.4910   75.2570   59.5370 H   0  0  0  0  0  0  0  0  0  0  0  0
   39.5590   76.0500   59.8370 C   0  0  0  0  0  0  0  0  0  0  0  0
   39.5200   76.9460   59.2030 H   0  0  0  0  0  0  0  0  0  0  0  0
   38.5080   75.6840   60.5830 N   0  0  0  0  0  0  0  0  0  0  0  0
   37.5790   76.1640   60.6550 H   0  0  0  0  0  0  0  0  0  0  0  0
   38.7730   74.5840   61.2630 N   0  0  0  0  0  0  0  0  0  0  0  0
  1  7  1  0  0  0  0
  2  8  1  0  0  0  0
  2  1  2  0  0  0  0
  3  2  1  0  0  0  0
  4  3  2  0  0  0  0
  4  5  1  0  0  0  0
  5  6  2  0  0  0  0
  6  1  1  0  0  0  0
  7 11  1  0  0  0  0
  9  3  1  0  0  0  0
 10  7  1  0  0  0  0
 12 19  2  0  0  0  0
 12  5  1  0  0  0  0
 13 12  1  0  0  0  0
 14 13  1  0  0  0  0
 15 13  2  0  0  0  0
 15 17  1  0  0  0  0
 16 15  1  0  0  0  0
 17 18  1  0  0  0  0
 17 19  1  0  0  0  0
M  END
>  <minimizedAffinity>
-4.22086191

$$$$

 OpenBabel03212520463D

 19 20  0  0  0  0  0  0  0  0999 V2000
   44.3970   74.0030   59.7280 C   0  0  0  0  0  0  0  0  0  0  0  0
   43.5030   74.9040   59.1360 C   0  0  0  0  0  0  0  0  0  0  0  0
   42.1500   74.8520   59.4740 C   0  0  0  0  0  0  0  0  0  0  0  0
   41.7790   73.9080   60.3770 N   0  0  0  0  0  0  0  0  0  0  0  0
   42.6560   73.0600   60.9270 C   0  0  0  0  0  0  0  0  0  0  0  0
   43.9620   73.0890   60.6200 N   0  0  0  0  0  0  0  0  0  0  0  0
   45.7300   74.1790   59.2870 N   0  0  0  0  0  0  0  0  0  0  0  0
   43.7620   75.6500   58.4290 H   0  0  0  0  0  0  0  0  0  0  0  0
   41.4400   75.5280   59.0370 H   0  0  0  0  0  0  0  0  0  0  0  0
   45.7330   73.5480   58.4360 H   0  0  0  0  0  0  0  0  0  0  0  0
   46.3890   74.8150   59.8080 H   0  0  0  0  0  0  0  0  0  0  0  0
   42.1360   72.0890   61.8860 C   0  0  0  0  0  0  0  0  0  0  0  0
   42.8300   70.8760   61.8830 C   0  0  0  0  0  0  0  0  0  0  0  0
   43.6770   70.4270   61.3530 H   0  0  0  0  0  0  0  0  0  0  0  0
   42.2270   70.0570   62.8400 C   0  0  0  0  0  0  0  0  0  0  0  0
   42.4280   69.0330   63.1820 H   0  0  0  0  0  0  0  0  0  0  0  0
   41.2280   70.7780   63.3660 N   0  0  0  0  0  0  0  0  0  0  0  0
   40.5560   70.4860   64.1160 H   0  0  0  0  0  0  0  0  0  0  0  0
   41.1670   71.9750   62.8100 N   0  0  0  0  0  0  0  0  0  0  0  0
  1  6  1  0  0  0  0
  2  3  1  0  0  0  0
  2  1  2  0  0  0  0
  3  4  2  0  0  0  0
  4  5  1  0  0  0  0
  5 12  1  0  0  0  0
  6  5  2  0  0  0  0
  7  1  1  0  0  0  0
  7 11  1  0  0  0  0
  8  2  1  0  0  0  0
  9  3  1  0  0  0  0
 10  7  1  0  0  0  0
 12 19  2  0  0  0  0
 13 12  1  0  0  0  0
 13 15  2  0  0  0  0
 14 13  1  0  0  0  0
 15 16  1  0  0  0  0
 15 17  1  0  0  0  0
 17 18  1  0  0  0  0
 19 17  1  0  0  0  0
M  END
>  <minimizedAffinity>
-4.19752169

$$$$

 OpenBabel03212520463D

 19 20  0  0  0  0  0  0  0  0999 V2000
   42.1750   70.9510   60.5310 C   0  0  0  0  0  0  0  0  0  0  0  0
   42.4660   70.5080   61.8280 C   0  0  0  0  0  0  0  0  0  0  0  0
   41.8390   71.1150   62.9170 C   0  0  0  0  0  0  0  0  0  0  0  0
   40.9670   72.1190   62.6430 N   0  0  0  0  0  0  0  0  0  0  0  0
   40.7090   72.5210   61.3930 C   0  0  0  0  0  0  0  0  0  0  0  0
   41.2980   71.9540   60.3280 N   0  0  0  0  0  0  0  0  0  0  0  0
   42.8870   70.2410   59.5350 N   0  0  0  0  0  0  0  0  0  0  0  0
   43.1410   69.7280   62.0730 H   0  0  0  0  0  0  0  0  0  0  0  0
   42.0410   70.7980   63.9230 H   0  0  0  0  0  0  0  0  0  0  0  0
   43.7710   70.8210   59.4830 H   0  0  0  0  0  0  0  0  0  0  0  0
   42.4710   69.3840   59.0850 H   0  0  0  0  0  0  0  0  0  0  0  0
   39.7520   73.6110   61.2250 C   0  0  0  0  0  0  0  0  0  0  0  0
   40.3460   74.8230   60.8640 C   0  0  0  0  0  0  0  0  0  0  0  0
   41.3530   75.2070   60.6650 H   0  0  0  0  0  0  0  0  0  0  0  0
   39.3180   75.7620   60.7400 C   0  0  0  0  0  0  0  0  0  0  0  0
   39.3070   76.8280   60.4790 H   0  0  0  0  0  0  0  0  0  0  0  0
   38.1850   75.1050   61.0210 N   0  0  0  0  0  0  0  0  0  0  0  0
   37.2100   75.4910   61.0270 H   0  0  0  0  0  0  0  0  0  0  0  0
   38.4300   73.8400   61.3070 N   0  0  0  0  0  0  0  0  0  0  0  0
  1  2  1  0  0  0  0
  2  8  1  0  0  0  0
  2  3  2  0  0  0  0
  3  9  1  0  0  0  0
  4  3  1  0  0  0  0
  5  4  2  0  0  0  0
  6  1  2  0  0  0  0
  6  5  1  0  0  0  0
  7  1  1  0  0  0  0
 10  7  1  0  0  0  0
 11  7  1  0  0  0  0
 12 19  2  0  0  0  0
 12  5  1  0  0  0  0
 13 12  1  0  0  0  0
 14 13  1  0  0  0  0
 15 13  2  0  0  0  0
 15 17  1  0  0  0  0
 16 15  1  0  0  0  0
 17 18  1  0  0  0  0
 17 19  1  0  0  0  0
M  END
>  <minimizedAffinity>
-4.14352369

$$$$

 OpenBabel03212520463D

 19 20  0  0  0  0  0  0  0  0999 V2000
   38.8550   74.9160   60.5980 C   0  0  0  0  0  0  0  0  0  0  0  0
   39.5560   73.7540   60.9460 C   0  0  0  0  0  0  0  0  0  0  0  0
   39.8300   72.7980   59.9660 C   0  0  0  0  0  0  0  0  0  0  0  0
   39.3880   73.0640   58.7090 N   0  0  0  0  0  0  0  0  0  0  0  0
   38.7210   74.1840   58.4070 C   0  0  0  0  0  0  0  0  0  0  0  0
   38.4450   75.1180   59.3300 N   0  0  0  0  0  0  0  0  0  0  0  0
   38.6550   75.7870   61.6960 N   0  0  0  0  0  0  0  0  0  0  0  0
   39.9130   73.5190   61.9160 H   0  0  0  0  0  0  0  0  0  0  0  0
   40.3640   71.8970   60.2010 H   0  0  0  0  0  0  0  0  0  0  0  0
   37.7420   75.4070   62.0750 H   0  0  0  0  0  0  0  0  0  0  0  0
   39.3500   76.5490   61.9110 H   0  0  0  0  0  0  0  0  0  0  0  0
   38.2980   74.3560   57.0200 C   0  0  0  0  0  0  0  0  0  0  0  0
   37.1820   75.1840   56.8760 C   0  0  0  0  0  0  0  0  0  0  0  0
   36.5090   75.7600   57.5220 H   0  0  0  0  0  0  0  0  0  0  0  0
   36.8970   75.2550   55.5110 C   0  0  0  0  0  0  0  0  0  0  0  0
   36.1230   75.7780   54.9340 H   0  0  0  0  0  0  0  0  0  0  0  0
   37.8180   74.4940   54.9030 N   0  0  0  0  0  0  0  0  0  0  0  0
   37.9160   74.3120   53.8750 H   0  0  0  0  0  0  0  0  0  0  0  0
   38.6450   73.9620   55.7830 N   0  0  0  0  0  0  0  0  0  0  0  0
  1  2  1  0  0  0  0
  1  7  1  0  0  0  0
  2  8  1  0  0  0  0
  3  9  1  0  0  0  0
  3  2  2  0  0  0  0
  4  3  1  0  0  0  0
  5  4  2  0  0  0  0
  5  6  1  0  0  0  0
  6  1  2  0  0  0  0
  7 11  1  0  0  0  0
  7 10  1  0  0  0  0
 12  5  1  0  0  0  0
 13 12  1  0  0  0  0
 13 14  1  0  0  0  0
 15 13  2  0  0  0  0
 16 15  1  0  0  0  0
 17 15  1  0  0  0  0
 17 19  1  0  0  0  0
 18 17  1  0  0  0  0
 19 12  2  0  0  0  0
M  END
>  <minimizedAffinity>
-4.12413073

$$$$

 OpenBabel03212520463D

 19 20  0  0  0  0  0  0  0  0999 V2000
   39.6430   74.8510   61.0560 C   0  0  0  0  0  0  0  0  0  0  0  0
   40.3630   75.5580   60.0840 C   0  0  0  0  0  0  0  0  0  0  0  0
   41.5250   75.0000   59.5490 C   0  0  0  0  0  0  0  0  0  0  0  0
   41.8910   73.7780   60.0160 N   0  0  0  0  0  0  0  0  0  0  0  0
   41.1820   73.1260   60.9450 C   0  0  0  0  0  0  0  0  0  0  0  0
   40.0620   73.6400   61.4750 N   0  0  0  0  0  0  0  0  0  0  0  0
   38.4920   75.5440   61.5000 N   0  0  0  0  0  0  0  0  0  0  0  0
   40.1030   76.5120   59.7010 H   0  0  0  0  0  0  0  0  0  0  0  0
   42.0990   75.5180   58.8030 H   0  0  0  0  0  0  0  0  0  0  0  0
   38.9070   76.1130   62.2910 H   0  0  0  0  0  0  0  0  0  0  0  0
   37.5590   75.3930   61.0340 H   0  0  0  0  0  0  0  0  0  0  0  0
   41.6770   71.8190   61.3670 C   0  0  0  0  0  0  0  0  0  0  0  0
   41.7220   71.6610   62.7540 C   0  0  0  0  0  0  0  0  0  0  0  0
   41.4880   72.2530   63.6470 H   0  0  0  0  0  0  0  0  0  0  0  0
   42.2090   70.3760   63.0060 C   0  0  0  0  0  0  0  0  0  0  0  0
   42.4120   69.8210   63.9310 H   0  0  0  0  0  0  0  0  0  0  0  0
   42.4320   69.8260   61.8050 N   0  0  0  0  0  0  0  0  0  0  0  0
   42.8000   68.8650   61.6020 H   0  0  0  0  0  0  0  0  0  0  0  0
   42.1210   70.6670   60.8350 N   0  0  0  0  0  0  0  0  0  0  0  0
  1  6  1  0  0  0  0
  1  7  1  0  0  0  0
  2  1  2  0  0  0  0
  3  4  2  0  0  0  0
  3  2  1  0  0  0  0
  4  5  1  0  0  0  0
  5 12  1  0  0  0  0
  5  6  2  0  0  0  0
  7 10  1  0  0  0  0
  8  2  1  0  0  0  0
  9  3  1  0  0  0  0
 11  7  1  0  0  0  0
 12 13  1  0  0  0  0
 13 15  2  0  0  0  0
 13 14  1  0  0  0  0
 15 16  1  0  0  0  0
 17 15  1  0  0  0  0
 18 17  1  0  0  0  0
 19 12  2  0  0  0  0
 19 17  1  0  0  0  0
M  END
>  <minimizedAffinity>
-4.09063816

$$$$

 OpenBabel03212520463D

 19 20  0  0  0  0  0  0  0  0999 V2000
   40.9510   76.9860   59.0690 C   0  0  0  0  0  0  0  0  0  0  0  0
   40.6090   76.0960   60.0950 C   0  0  0  0  0  0  0  0  0  0  0  0
   39.3990   75.4020   60.0270 C   0  0  0  0  0  0  0  0  0  0  0  0
   38.6150   75.6400   58.9450 N   0  0  0  0  0  0  0  0  0  0  0  0
   38.9690   76.4960   57.9790 C   0  0  0  0  0  0  0  0  0  0  0  0
   40.1260   77.1760   58.0200 N   0  0  0  0  0  0  0  0  0  0  0  0
   42.2030   77.6120   59.2790 N   0  0  0  0  0  0  0  0  0  0  0  0
   41.1990   75.8900   60.9520 H   0  0  0  0  0  0  0  0  0  0  0  0
   39.1080   74.7140   60.7990 H   0  0  0  0  0  0  0  0  0  0  0  0
   41.9010   78.4560   59.8440 H   0  0  0  0  0  0  0  0  0  0  0  0
   43.0870   77.1900   58.8920 H   0  0  0  0  0  0  0  0  0  0  0  0
   38.0410   76.6680   56.8650 C   0  0  0  0  0  0  0  0  0  0  0  0
   38.4890   77.5740   55.9010 C   0  0  0  0  0  0  0  0  0  0  0  0
   39.3620   78.2160   55.7330 H   0  0  0  0  0  0  0  0  0  0  0  0
   37.5090   77.6340   54.9070 C   0  0  0  0  0  0  0  0  0  0  0  0
   37.4270   78.2010   53.9710 H   0  0  0  0  0  0  0  0  0  0  0  0
   36.5420   76.7920   55.2940 N   0  0  0  0  0  0  0  0  0  0  0  0
   35.6460   76.5770   54.7930 H   0  0  0  0  0  0  0  0  0  0  0  0
   36.8460   76.2190   56.4440 N   0  0  0  0  0  0  0  0  0  0  0  0
  1  7  1  0  0  0  0
  1  2  1  0  0  0  0
  2  8  1  0  0  0  0
  3  2  2  0  0  0  0
  3  9  1  0  0  0  0
  4  3  1  0  0  0  0
  5  6  1  0  0  0  0
  5  4  2  0  0  0  0
  6  1  2  0  0  0  0
  7 10  1  0  0  0  0
 11  7  1  0  0  0  0
 12  5  1  0  0  0  0
 13 12  1  0  0  0  0
 14 13  1  0  0  0  0
 15 17  1  0  0  0  0
 15 13  2  0  0  0  0
 16 15  1  0  0  0  0
 17 19  1  0  0  0  0
 18 17  1  0  0  0  0
 19 12  2  0  0  0  0
M  END
>  <minimizedAffinity>
-4.08199358

$$$$
