
 OpenBabel03212520483D

 27 29  0  0  0  0  0  0  0  0999 V2000
   41.5940   83.8470   61.4670 C   0  0  0  0  0  0  0  0  0  0  0  0
   41.0630   84.2700   62.6610 C   0  0  0  0  0  0  0  0  0  0  0  0
   40.6050   83.3780   63.6340 C   0  0  0  0  0  0  0  0  0  0  0  0
   40.6880   82.0540   63.3920 N   0  0  0  0  0  0  0  0  0  0  0  0
   41.2070   81.6530   62.2250 C   0  0  0  0  0  0  0  0  0  0  0  0
   41.6610   82.5110   61.2580 N   0  0  0  0  0  0  0  0  0  0  0  0
   41.0060   85.3350   62.8360 H   0  0  0  0  0  0  0  0  0  0  0  0
   40.2080   83.7860   64.5340 H   0  0  0  0  0  0  0  0  0  0  0  0
   43.5970   86.3670   59.7210 C   0  0  0  0  0  0  0  0  0  0  0  0
   42.8930   86.5040   58.5090 C   0  0  0  0  0  0  0  0  0  0  0  0
   41.7550   85.7420   58.3050 C   0  0  0  0  0  0  0  0  0  0  0  0
   41.3860   84.8950   59.3110 N   0  0  0  0  0  0  0  0  0  0  0  0
   42.0710   84.7830   60.4520 C   0  0  0  0  0  0  0  0  0  0  0  0
   43.1700   85.5070   60.6690 N   0  0  0  0  0  0  0  0  0  0  0  0
   44.7480   87.2020   59.8140 N   0  0  0  0  0  0  0  0  0  0  0  0
   43.1830   87.1680   57.7220 H   0  0  0  0  0  0  0  0  0  0  0  0
   41.1920   85.8150   57.3980 H   0  0  0  0  0  0  0  0  0  0  0  0
   44.9700   87.6290   60.7630 H   0  0  0  0  0  0  0  0  0  0  0  0
   45.3470   87.3850   58.9810 H   0  0  0  0  0  0  0  0  0  0  0  0
   41.2640   80.2070   62.0340 C   0  0  0  0  0  0  0  0  0  0  0  0
   41.9440   79.2570   61.2940 C   0  0  0  0  0  0  0  0  0  0  0  0
   42.6830   79.6880   60.6280 H   0  0  0  0  0  0  0  0  0  0  0  0
   41.4390   78.0220   61.6600 C   0  0  0  0  0  0  0  0  0  0  0  0
   41.8820   77.1750   61.1560 H   0  0  0  0  0  0  0  0  0  0  0  0
   40.4810   78.2320   62.5940 N   0  0  0  0  0  0  0  0  0  0  0  0
   39.9870   77.4000   62.9880 H   0  0  0  0  0  0  0  0  0  0  0  0
   40.3730   79.5400   62.8220 N   0  0  0  0  0  0  0  0  0  0  0  0
  1  2  1  0  0  0  0
  2  7  1  0  0  0  0
  2  3  2  0  0  0  0
  3  8  1  0  0  0  0
  4  3  1  0  0  0  0
  5  4  2  0  0  0  0
  6  1  2  0  0  0  0
  6  5  1  0  0  0  0
  9 15  1  0  0  0  0
  9 14  1  0  0  0  0
 10  9  2  0  0  0  0
 11 10  1  0  0  0  0
 11 12  2  0  0  0  0
 12 13  1  0  0  0  0
 13 14  2  0  0  0  0
 13  1  1  0  0  0  0
 15 18  1  0  0  0  0
 16 10  1  0  0  0  0
 17 11  1  0  0  0  0
 19 15  1  0  0  0  0
 20  5  1  0  0  0  0
 20 27  2  0  0  0  0
 21 23  2  0  0  0  0
 21 20  1  0  0  0  0
 22 21  1  0  0  0  0
 23 25  1  0  0  0  0
 24 23  1  0  0  0  0
 25 27  1  0  0  0  0
 25 26  1  0  0  0  0
M  END
>  <minimizedAffinity>
-5.48777914

>  <minimizedRMSD>
0.148415208

$$$$
