
 OpenBabel03212520483D

 27 29  0  0  0  0  0  0  0  0999 V2000
   41.6320   83.8600   61.5050 C   0  0  0  0  0  0  0  0  0  0  0  0
   41.2970   84.2520   62.7780 C   0  0  0  0  0  0  0  0  0  0  0  0
   40.8060   83.3580   63.7330 C   0  0  0  0  0  0  0  0  0  0  0  0
   40.6580   82.0610   63.3910 N   0  0  0  0  0  0  0  0  0  0  0  0
   40.9880   81.6900   62.1490 C   0  0  0  0  0  0  0  0  0  0  0  0
   41.4690   82.5510   61.1980 N   0  0  0  0  0  0  0  0  0  0  0  0
   41.4230   85.2950   63.0310 H   0  0  0  0  0  0  0  0  0  0  0  0
   40.5700   83.7410   64.6970 H   0  0  0  0  0  0  0  0  0  0  0  0
   43.6570   86.4300   59.8600 C   0  0  0  0  0  0  0  0  0  0  0  0
   43.0350   86.5220   58.6000 C   0  0  0  0  0  0  0  0  0  0  0  0
   41.9440   85.7130   58.3300 C   0  0  0  0  0  0  0  0  0  0  0  0
   41.5370   84.8670   59.3220 N   0  0  0  0  0  0  0  0  0  0  0  0
   42.1440   84.7990   60.5100 C   0  0  0  0  0  0  0  0  0  0  0  0
   43.1960   85.5670   60.7910 N   0  0  0  0  0  0  0  0  0  0  0  0
   44.7660   87.3100   60.0190 N   0  0  0  0  0  0  0  0  0  0  0  0
   43.3540   87.1850   57.8240 H   0  0  0  0  0  0  0  0  0  0  0  0
   41.4430   85.7520   57.3850 H   0  0  0  0  0  0  0  0  0  0  0  0
   44.9050   87.7580   60.9730 H   0  0  0  0  0  0  0  0  0  0  0  0
   45.4150   87.5040   59.2260 H   0  0  0  0  0  0  0  0  0  0  0  0
   40.8000   80.2730   61.8530 C   0  0  0  0  0  0  0  0  0  0  0  0
   40.9440   79.0320   62.4470 C   0  0  0  0  0  0  0  0  0  0  0  0
   41.3130   79.0900   63.4630 H   0  0  0  0  0  0  0  0  0  0  0  0
   40.5540   78.0890   61.5110 C   0  0  0  0  0  0  0  0  0  0  0  0
   40.6140   77.0610   61.8410 H   0  0  0  0  0  0  0  0  0  0  0  0
   40.1880   78.7520   60.3890 N   0  0  0  0  0  0  0  0  0  0  0  0
   39.8610   78.1900   59.5710 H   0  0  0  0  0  0  0  0  0  0  0  0
   40.3330   80.0610   60.5890 N   0  0  0  0  0  0  0  0  0  0  0  0
  1  2  1  0  0  0  0
  2  7  1  0  0  0  0
  2  3  2  0  0  0  0
  3  8  1  0  0  0  0
  4  3  1  0  0  0  0
  5  4  2  0  0  0  0
  6  1  2  0  0  0  0
  6  5  1  0  0  0  0
  9 15  1  0  0  0  0
  9 14  1  0  0  0  0
 10  9  2  0  0  0  0
 11 10  1  0  0  0  0
 11 12  2  0  0  0  0
 12 13  1  0  0  0  0
 13 14  2  0  0  0  0
 13  1  1  0  0  0  0
 15 18  1  0  0  0  0
 16 10  1  0  0  0  0
 17 11  1  0  0  0  0
 19 15  1  0  0  0  0
 20  5  1  0  0  0  0
 20 21  1  0  0  0  0
 21 22  1  0  0  0  0
 23 24  1  0  0  0  0
 23 21  2  0  0  0  0
 25 27  1  0  0  0  0
 25 23  1  0  0  0  0
 26 25  1  0  0  0  0
 27 20  2  0  0  0  0
M  END
>  <minimizedAffinity>
-5.25056648

>  <minimizedRMSD>
0.40530014

$$$$
