
 OpenBabel03212520483D

 27 29  0  0  0  0  0  0  0  0999 V2000
   41.6310   83.8620   61.5060 C   0  0  0  0  0  0  0  0  0  0  0  0
   41.2980   84.2560   62.7790 C   0  0  0  0  0  0  0  0  0  0  0  0
   40.8080   83.3620   63.7350 C   0  0  0  0  0  0  0  0  0  0  0  0
   40.6570   82.0660   63.3950 N   0  0  0  0  0  0  0  0  0  0  0  0
   40.9840   81.6940   62.1520 C   0  0  0  0  0  0  0  0  0  0  0  0
   41.4660   82.5530   61.2010 N   0  0  0  0  0  0  0  0  0  0  0  0
   41.4270   85.2990   63.0320 H   0  0  0  0  0  0  0  0  0  0  0  0
   40.5730   83.7470   64.7000 H   0  0  0  0  0  0  0  0  0  0  0  0
   43.6570   86.4290   59.8580 C   0  0  0  0  0  0  0  0  0  0  0  0
   43.0350   86.5200   58.5980 C   0  0  0  0  0  0  0  0  0  0  0  0
   41.9430   85.7110   58.3290 C   0  0  0  0  0  0  0  0  0  0  0  0
   41.5370   84.8670   59.3220 N   0  0  0  0  0  0  0  0  0  0  0  0
   42.1440   84.8000   60.5100 C   0  0  0  0  0  0  0  0  0  0  0  0
   43.1960   85.5680   60.7900 N   0  0  0  0  0  0  0  0  0  0  0  0
   44.7670   87.3090   60.0150 N   0  0  0  0  0  0  0  0  0  0  0  0
   43.3540   87.1820   57.8210 H   0  0  0  0  0  0  0  0  0  0  0  0
   41.4430   85.7490   57.3840 H   0  0  0  0  0  0  0  0  0  0  0  0
   44.9060   87.7590   60.9690 H   0  0  0  0  0  0  0  0  0  0  0  0
   45.4150   87.5020   59.2220 H   0  0  0  0  0  0  0  0  0  0  0  0
   40.7940   80.2770   61.8580 C   0  0  0  0  0  0  0  0  0  0  0  0
   40.9270   79.0370   62.4550 C   0  0  0  0  0  0  0  0  0  0  0  0
   41.2870   79.0950   63.4760 H   0  0  0  0  0  0  0  0  0  0  0  0
   40.5420   78.0930   61.5190 C   0  0  0  0  0  0  0  0  0  0  0  0
   40.5960   77.0650   61.8510 H   0  0  0  0  0  0  0  0  0  0  0  0
   40.1890   78.7550   60.3910 N   0  0  0  0  0  0  0  0  0  0  0  0
   39.8680   78.1930   59.5710 H   0  0  0  0  0  0  0  0  0  0  0  0
   40.3380   80.0630   60.5900 N   0  0  0  0  0  0  0  0  0  0  0  0
  1  2  1  0  0  0  0
  2  7  1  0  0  0  0
  2  3  2  0  0  0  0
  3  8  1  0  0  0  0
  4  3  1  0  0  0  0
  5  4  2  0  0  0  0
  6  1  2  0  0  0  0
  6  5  1  0  0  0  0
  9 15  1  0  0  0  0
  9 14  1  0  0  0  0
 10  9  2  0  0  0  0
 11 10  1  0  0  0  0
 11 12  2  0  0  0  0
 12 13  1  0  0  0  0
 13 14  2  0  0  0  0
 13  1  1  0  0  0  0
 15 18  1  0  0  0  0
 16 10  1  0  0  0  0
 17 11  1  0  0  0  0
 19 15  1  0  0  0  0
 20  5  1  0  0  0  0
 20 21  1  0  0  0  0
 21 22  1  0  0  0  0
 23 24  1  0  0  0  0
 23 21  2  0  0  0  0
 25 27  1  0  0  0  0
 25 23  1  0  0  0  0
 26 25  1  0  0  0  0
 27 20  2  0  0  0  0
M  END
>  <minimizedAffinity>
-5.25188971

>  <minimizedRMSD>
0.457065731

$$$$
