
 OpenBabel03212520483D

 27 29  0  0  0  0  0  0  0  0999 V2000
   41.4690   83.8670   61.3890 C   0  0  0  0  0  0  0  0  0  0  0  0
   40.9080   84.3130   62.5600 C   0  0  0  0  0  0  0  0  0  0  0  0
   40.4960   83.4430   63.5720 C   0  0  0  0  0  0  0  0  0  0  0  0
   40.6570   82.1160   63.3920 N   0  0  0  0  0  0  0  0  0  0  0  0
   41.2050   81.6920   62.2480 C   0  0  0  0  0  0  0  0  0  0  0  0
   41.6150   82.5290   61.2430 N   0  0  0  0  0  0  0  0  0  0  0  0
   40.7880   85.3800   62.6840 H   0  0  0  0  0  0  0  0  0  0  0  0
   40.0700   83.8680   64.4500 H   0  0  0  0  0  0  0  0  0  0  0  0
   43.4210   86.3010   59.4700 C   0  0  0  0  0  0  0  0  0  0  0  0
   42.6250   86.4630   58.3200 C   0  0  0  0  0  0  0  0  0  0  0  0
   41.4450   85.7470   58.2140 C   0  0  0  0  0  0  0  0  0  0  0  0
   41.1270   84.9180   59.2520 N   0  0  0  0  0  0  0  0  0  0  0  0
   41.8980   84.7810   60.3330 C   0  0  0  0  0  0  0  0  0  0  0  0
   43.0390   85.4600   60.4550 N   0  0  0  0  0  0  0  0  0  0  0  0
   44.6080   87.0890   59.4630 N   0  0  0  0  0  0  0  0  0  0  0  0
   42.8750   87.1140   57.5080 H   0  0  0  0  0  0  0  0  0  0  0  0
   40.8110   85.8410   57.3570 H   0  0  0  0  0  0  0  0  0  0  0  0
   44.9250   87.5080   60.3890 H   0  0  0  0  0  0  0  0  0  0  0  0
   45.1430   87.2460   58.5820 H   0  0  0  0  0  0  0  0  0  0  0  0
   41.3480   80.2450   62.1250 C   0  0  0  0  0  0  0  0  0  0  0  0
   42.1820   79.3010   61.5540 C   0  0  0  0  0  0  0  0  0  0  0  0
   43.0130   79.7400   61.0150 H   0  0  0  0  0  0  0  0  0  0  0  0
   41.6640   78.0570   61.8710 C   0  0  0  0  0  0  0  0  0  0  0  0
   42.2190   77.2140   61.4860 H   0  0  0  0  0  0  0  0  0  0  0  0
   40.5470   78.2560   62.6120 N   0  0  0  0  0  0  0  0  0  0  0  0
   40.0200   77.4170   62.9420 H   0  0  0  0  0  0  0  0  0  0  0  0
   40.3540   79.5650   62.7670 N   0  0  0  0  0  0  0  0  0  0  0  0
  1  2  1  0  0  0  0
  2  7  1  0  0  0  0
  2  3  2  0  0  0  0
  3  8  1  0  0  0  0
  4  3  1  0  0  0  0
  5  4  2  0  0  0  0
  6  1  2  0  0  0  0
  6  5  1  0  0  0  0
  9 14  1  0  0  0  0
 10  9  2  0  0  0  0
 11 10  1  0  0  0  0
 11 12  2  0  0  0  0
 12 13  1  0  0  0  0
 13 14  2  0  0  0  0
 13  1  1  0  0  0  0
 15  9  1  0  0  0  0
 15 18  1  0  0  0  0
 16 10  1  0  0  0  0
 17 11  1  0  0  0  0
 19 15  1  0  0  0  0
 20  5  1  0  0  0  0
 20 27  2  0  0  0  0
 21 23  2  0  0  0  0
 21 20  1  0  0  0  0
 22 21  1  0  0  0  0
 23 25  1  0  0  0  0
 24 23  1  0  0  0  0
 25 27  1  0  0  0  0
 25 26  1  0  0  0  0
M  END
>  <minimizedAffinity>
-5.46055222

>  <minimizedRMSD>
0.349815726

$$$$
