
 OpenBabel03212520473D

 27 29  0  0  0  0  0  0  0  0999 V2000
   41.6000   83.9210   61.4590 C   0  0  0  0  0  0  0  0  0  0  0  0
   41.0620   84.3520   62.6480 C   0  0  0  0  0  0  0  0  0  0  0  0
   40.5980   83.4670   63.6240 C   0  0  0  0  0  0  0  0  0  0  0  0
   40.6820   82.1410   63.3900 N   0  0  0  0  0  0  0  0  0  0  0  0
   41.2070   81.7330   62.2300 C   0  0  0  0  0  0  0  0  0  0  0  0
   41.6680   82.5840   61.2600 N   0  0  0  0  0  0  0  0  0  0  0  0
   41.0050   85.4180   62.8150 H   0  0  0  0  0  0  0  0  0  0  0  0
   40.1950   83.8800   64.5180 H   0  0  0  0  0  0  0  0  0  0  0  0
   43.6230   86.4190   59.7050 C   0  0  0  0  0  0  0  0  0  0  0  0
   42.9190   86.5590   58.4940 C   0  0  0  0  0  0  0  0  0  0  0  0
   41.7740   85.8060   58.2930 C   0  0  0  0  0  0  0  0  0  0  0  0
   41.3990   84.9650   59.3010 N   0  0  0  0  0  0  0  0  0  0  0  0
   42.0840   84.8510   60.4420 C   0  0  0  0  0  0  0  0  0  0  0  0
   43.1890   85.5650   60.6560 N   0  0  0  0  0  0  0  0  0  0  0  0
   44.7820   87.2440   59.7940 N   0  0  0  0  0  0  0  0  0  0  0  0
   43.2130   87.2190   57.7040 H   0  0  0  0  0  0  0  0  0  0  0  0
   41.2100   85.8820   57.3870 H   0  0  0  0  0  0  0  0  0  0  0  0
   45.0090   87.6710   60.7420 H   0  0  0  0  0  0  0  0  0  0  0  0
   45.3810   87.4200   58.9600 H   0  0  0  0  0  0  0  0  0  0  0  0
   41.2650   80.2850   62.0480 C   0  0  0  0  0  0  0  0  0  0  0  0
   40.4290   79.1840   62.0010 C   0  0  0  0  0  0  0  0  0  0  0  0
   39.3850   79.4370   62.1400 H   0  0  0  0  0  0  0  0  0  0  0  0
   41.2320   78.0770   61.7820 C   0  0  0  0  0  0  0  0  0  0  0  0
   40.7090   77.1330   61.7210 H   0  0  0  0  0  0  0  0  0  0  0  0
   42.5130   78.5100   61.7030 N   0  0  0  0  0  0  0  0  0  0  0  0
   43.2620   77.8010   61.5380 H   0  0  0  0  0  0  0  0  0  0  0  0
   42.5370   79.8320   61.8610 N   0  0  0  0  0  0  0  0  0  0  0  0
  1  2  1  0  0  0  0
  2  7  1  0  0  0  0
  2  3  2  0  0  0  0
  3  8  1  0  0  0  0
  4  3  1  0  0  0  0
  5  4  2  0  0  0  0
  6  1  2  0  0  0  0
  6  5  1  0  0  0  0
  9 15  1  0  0  0  0
  9 14  1  0  0  0  0
 10  9  2  0  0  0  0
 11 10  1  0  0  0  0
 11 12  2  0  0  0  0
 12 13  1  0  0  0  0
 13 14  2  0  0  0  0
 13  1  1  0  0  0  0
 15 18  1  0  0  0  0
 16 10  1  0  0  0  0
 17 11  1  0  0  0  0
 19 15  1  0  0  0  0
 20  5  1  0  0  0  0
 21 20  1  0  0  0  0
 21 22  1  0  0  0  0
 23 21  2  0  0  0  0
 24 23  1  0  0  0  0
 25 23  1  0  0  0  0
 25 27  1  0  0  0  0
 26 25  1  0  0  0  0
 27 20  2  0  0  0  0
M  END
>  <minimizedAffinity>
-5.07740545

>  <minimizedRMSD>
0.387299508

$$$$
