
 OpenBabel03212520483D

 27 29  0  0  0  0  0  0  0  0999 V2000
   41.5860   83.8650   61.4620 C   0  0  0  0  0  0  0  0  0  0  0  0
   41.2850   84.2650   62.7410 C   0  0  0  0  0  0  0  0  0  0  0  0
   40.8210   83.3770   63.7140 C   0  0  0  0  0  0  0  0  0  0  0  0
   40.6630   82.0780   63.3850 N   0  0  0  0  0  0  0  0  0  0  0  0
   40.9600   81.6990   62.1370 C   0  0  0  0  0  0  0  0  0  0  0  0
   41.4150   82.5540   61.1690 N   0  0  0  0  0  0  0  0  0  0  0  0
   41.4180   85.3100   62.9840 H   0  0  0  0  0  0  0  0  0  0  0  0
   40.6100   83.7660   64.6830 H   0  0  0  0  0  0  0  0  0  0  0  0
   43.6060   86.3740   59.7200 C   0  0  0  0  0  0  0  0  0  0  0  0
   42.9060   86.5120   58.5050 C   0  0  0  0  0  0  0  0  0  0  0  0
   41.7660   85.7540   58.2980 C   0  0  0  0  0  0  0  0  0  0  0  0
   41.3900   84.9100   59.3040 N   0  0  0  0  0  0  0  0  0  0  0  0
   42.0710   84.7970   60.4480 C   0  0  0  0  0  0  0  0  0  0  0  0
   43.1710   85.5160   60.6680 N   0  0  0  0  0  0  0  0  0  0  0  0
   44.7600   87.2040   59.8160 N   0  0  0  0  0  0  0  0  0  0  0  0
   43.2020   87.1740   57.7180 H   0  0  0  0  0  0  0  0  0  0  0  0
   41.2060   85.8290   57.3900 H   0  0  0  0  0  0  0  0  0  0  0  0
   44.9810   87.6300   60.7650 H   0  0  0  0  0  0  0  0  0  0  0  0
   45.3620   87.3830   58.9840 H   0  0  0  0  0  0  0  0  0  0  0  0
   40.7650   80.2800   61.8560 C   0  0  0  0  0  0  0  0  0  0  0  0
   40.8670   79.0460   62.4730 C   0  0  0  0  0  0  0  0  0  0  0  0
   41.1980   79.1150   63.5030 H   0  0  0  0  0  0  0  0  0  0  0  0
   40.5020   78.0940   61.5380 C   0  0  0  0  0  0  0  0  0  0  0  0
   40.5340   77.0710   61.8850 H   0  0  0  0  0  0  0  0  0  0  0  0
   40.1870   78.7450   60.3920 N   0  0  0  0  0  0  0  0  0  0  0  0
   39.8850   78.1750   59.5710 H   0  0  0  0  0  0  0  0  0  0  0  0
   40.3440   80.0550   60.5780 N   0  0  0  0  0  0  0  0  0  0  0  0
  1  2  1  0  0  0  0
  2  7  1  0  0  0  0
  2  3  2  0  0  0  0
  3  8  1  0  0  0  0
  4  3  1  0  0  0  0
  5  4  2  0  0  0  0
  6  1  2  0  0  0  0
  6  5  1  0  0  0  0
  9 15  1  0  0  0  0
  9 14  1  0  0  0  0
 10  9  2  0  0  0  0
 11 10  1  0  0  0  0
 11 12  2  0  0  0  0
 12 13  1  0  0  0  0
 13 14  2  0  0  0  0
 13  1  1  0  0  0  0
 15 18  1  0  0  0  0
 16 10  1  0  0  0  0
 17 11  1  0  0  0  0
 19 15  1  0  0  0  0
 20  5  1  0  0  0  0
 20 21  1  0  0  0  0
 21 22  1  0  0  0  0
 23 24  1  0  0  0  0
 23 21  2  0  0  0  0
 25 27  1  0  0  0  0
 25 23  1  0  0  0  0
 26 25  1  0  0  0  0
 27 20  2  0  0  0  0
M  END
>  <minimizedAffinity>
-5.26767969

>  <minimizedRMSD>
0.482879996

$$$$
