
 OpenBabel03212520483D

 27 29  0  0  0  0  0  0  0  0999 V2000
   41.5830   83.8840   61.4650 C   0  0  0  0  0  0  0  0  0  0  0  0
   40.9890   84.3190   62.6240 C   0  0  0  0  0  0  0  0  0  0  0  0
   40.5240   83.4390   63.6050 C   0  0  0  0  0  0  0  0  0  0  0  0
   40.6640   82.1120   63.4040 N   0  0  0  0  0  0  0  0  0  0  0  0
   41.2440   81.6990   62.2720 C   0  0  0  0  0  0  0  0  0  0  0  0
   41.7060   82.5460   61.2990 N   0  0  0  0  0  0  0  0  0  0  0  0
   40.8860   85.3860   62.7660 H   0  0  0  0  0  0  0  0  0  0  0  0
   40.0750   83.8560   64.4750 H   0  0  0  0  0  0  0  0  0  0  0  0
   43.6090   86.3710   59.6990 C   0  0  0  0  0  0  0  0  0  0  0  0
   42.9030   86.5080   58.4880 C   0  0  0  0  0  0  0  0  0  0  0  0
   41.7560   85.7570   58.2920 C   0  0  0  0  0  0  0  0  0  0  0  0
   41.3810   84.9210   59.3040 N   0  0  0  0  0  0  0  0  0  0  0  0
   42.0680   84.8080   60.4440 C   0  0  0  0  0  0  0  0  0  0  0  0
   43.1750   85.5210   60.6530 N   0  0  0  0  0  0  0  0  0  0  0  0
   44.7690   87.1940   59.7830 N   0  0  0  0  0  0  0  0  0  0  0  0
   43.1970   87.1640   57.6960 H   0  0  0  0  0  0  0  0  0  0  0  0
   41.1900   85.8320   57.3860 H   0  0  0  0  0  0  0  0  0  0  0  0
   44.9990   87.6230   60.7290 H   0  0  0  0  0  0  0  0  0  0  0  0
   45.3670   87.3650   58.9470 H   0  0  0  0  0  0  0  0  0  0  0  0
   41.3620   80.2510   62.1250 C   0  0  0  0  0  0  0  0  0  0  0  0
   42.1740   79.3030   61.5310 C   0  0  0  0  0  0  0  0  0  0  0  0
   43.0070   79.7370   60.9890 H   0  0  0  0  0  0  0  0  0  0  0  0
   41.6390   78.0630   61.8340 C   0  0  0  0  0  0  0  0  0  0  0  0
   42.1770   77.2170   61.4310 H   0  0  0  0  0  0  0  0  0  0  0  0
   40.5340   78.2690   62.5900 N   0  0  0  0  0  0  0  0  0  0  0  0
   39.9970   77.4340   62.9130 H   0  0  0  0  0  0  0  0  0  0  0  0
   40.3640   79.5780   62.7670 N   0  0  0  0  0  0  0  0  0  0  0  0
  1  2  1  0  0  0  0
  2  7  1  0  0  0  0
  2  3  2  0  0  0  0
  3  8  1  0  0  0  0
  4  3  1  0  0  0  0
  5  4  2  0  0  0  0
  6  1  2  0  0  0  0
  6  5  1  0  0  0  0
  9 15  1  0  0  0  0
  9 14  1  0  0  0  0
 10  9  2  0  0  0  0
 11 10  1  0  0  0  0
 11 12  2  0  0  0  0
 12 13  1  0  0  0  0
 13 14  2  0  0  0  0
 13  1  1  0  0  0  0
 15 18  1  0  0  0  0
 16 10  1  0  0  0  0
 17 11  1  0  0  0  0
 19 15  1  0  0  0  0
 20  5  1  0  0  0  0
 20 27  2  0  0  0  0
 21 23  2  0  0  0  0
 21 20  1  0  0  0  0
 22 21  1  0  0  0  0
 23 25  1  0  0  0  0
 24 23  1  0  0  0  0
 25 27  1  0  0  0  0
 25 26  1  0  0  0  0
M  END
>  <minimizedAffinity>
-5.48823833

>  <minimizedRMSD>
0.200348318

$$$$
