
 OpenBabel03212520503D

 27 29  0  0  0  0  0  0  0  0999 V2000
   40.6040   75.2870   59.7280 C   0  0  0  0  0  0  0  0  0  0  0  0
   40.8040   76.6160   60.0120 C   0  0  0  0  0  0  0  0  0  0  0  0
   40.0910   77.6340   59.3730 C   0  0  0  0  0  0  0  0  0  0  0  0
   39.1730   77.2990   58.4430 N   0  0  0  0  0  0  0  0  0  0  0  0
   38.9860   76.0020   58.1750 C   0  0  0  0  0  0  0  0  0  0  0  0
   39.6750   74.9890   58.7890 N   0  0  0  0  0  0  0  0  0  0  0  0
   41.5440   76.8630   60.7600 H   0  0  0  0  0  0  0  0  0  0  0  0
   40.3040   78.6400   59.6500 H   0  0  0  0  0  0  0  0  0  0  0  0
   41.4550   72.4690   61.9050 C   0  0  0  0  0  0  0  0  0  0  0  0
   42.8160   72.2730   61.6020 C   0  0  0  0  0  0  0  0  0  0  0  0
   43.4210   73.0970   60.6670 C   0  0  0  0  0  0  0  0  0  0  0  0
   42.6410   74.0610   60.0930 N   0  0  0  0  0  0  0  0  0  0  0  0
   41.3510   74.2270   60.3980 C   0  0  0  0  0  0  0  0  0  0  0  0
   40.7500   73.4440   61.2940 N   0  0  0  0  0  0  0  0  0  0  0  0
   40.9480   71.5610   62.8790 N   0  0  0  0  0  0  0  0  0  0  0  0
   43.4260   71.5180   62.0520 H   0  0  0  0  0  0  0  0  0  0  0  0
   44.4520   72.9820   60.4080 H   0  0  0  0  0  0  0  0  0  0  0  0
   40.2400   71.9370   63.5790 H   0  0  0  0  0  0  0  0  0  0  0  0
   41.2600   70.5670   62.9010 H   0  0  0  0  0  0  0  0  0  0  0  0
   37.9780   75.7160   57.1590 C   0  0  0  0  0  0  0  0  0  0  0  0
   37.4080   76.2850   56.0330 C   0  0  0  0  0  0  0  0  0  0  0  0
   37.8190   77.2600   55.7970 H   0  0  0  0  0  0  0  0  0  0  0  0
   36.4670   75.3880   55.5600 C   0  0  0  0  0  0  0  0  0  0  0  0
   35.9360   75.7030   54.6720 H   0  0  0  0  0  0  0  0  0  0  0  0
   36.4750   74.3120   56.3830 N   0  0  0  0  0  0  0  0  0  0  0  0
   35.8190   73.5280   56.1730 H   0  0  0  0  0  0  0  0  0  0  0  0
   37.3780   74.5050   57.3420 N   0  0  0  0  0  0  0  0  0  0  0  0
  1  2  1  0  0  0  0
  1 13  1  0  0  0  0
  2  7  1  0  0  0  0
  3  8  1  0  0  0  0
  3  2  2  0  0  0  0
  4  3  1  0  0  0  0
  5  4  2  0  0  0  0
  5  6  1  0  0  0  0
  6  1  2  0  0  0  0
  9 15  1  0  0  0  0
 10  9  1  0  0  0  0
 10 16  1  0  0  0  0
 11 10  2  0  0  0  0
 12 13  2  0  0  0  0
 12 11  1  0  0  0  0
 13 14  1  0  0  0  0
 14  9  2  0  0  0  0
 15 19  1  0  0  0  0
 15 18  1  0  0  0  0
 17 11  1  0  0  0  0
 20 27  2  0  0  0  0
 20  5  1  0  0  0  0
 21 20  1  0  0  0  0
 22 21  1  0  0  0  0
 23 21  2  0  0  0  0
 23 25  1  0  0  0  0
 24 23  1  0  0  0  0
 25 27  1  0  0  0  0
 26 25  1  0  0  0  0
M  END
>  <minimizedAffinity>
-5.67666864

$$$$

 OpenBabel03212520503D

 27 29  0  0  0  0  0  0  0  0999 V2000
   41.8100   74.6400   59.5850 C   0  0  0  0  0  0  0  0  0  0  0  0
   43.1220   74.9800   59.3680 C   0  0  0  0  0  0  0  0  0  0  0  0
   44.1830   74.2780   59.9450 C   0  0  0  0  0  0  0  0  0  0  0  0
   43.9070   73.2250   60.7430 N   0  0  0  0  0  0  0  0  0  0  0  0
   42.6250   72.9020   60.9460 C   0  0  0  0  0  0  0  0  0  0  0  0
   41.5710   73.5780   60.3910 N   0  0  0  0  0  0  0  0  0  0  0  0
   43.3220   75.8260   58.7260 H   0  0  0  0  0  0  0  0  0  0  0  0
   45.1730   74.6050   59.7280 H   0  0  0  0  0  0  0  0  0  0  0  0
   38.5290   75.4660   58.1820 C   0  0  0  0  0  0  0  0  0  0  0  0
   38.6940   76.8250   57.8490 C   0  0  0  0  0  0  0  0  0  0  0  0
   39.9100   77.4360   58.1060 C   0  0  0  0  0  0  0  0  0  0  0  0
   40.8840   76.6650   58.6730 N   0  0  0  0  0  0  0  0  0  0  0  0
   40.7040   75.3780   58.9790 C   0  0  0  0  0  0  0  0  0  0  0  0
   39.5410   74.7700   58.7420 N   0  0  0  0  0  0  0  0  0  0  0  0
   37.2370   74.9510   57.8710 N   0  0  0  0  0  0  0  0  0  0  0  0
   37.9300   77.4270   57.4040 H   0  0  0  0  0  0  0  0  0  0  0  0
   40.0760   78.4660   57.8690 H   0  0  0  0  0  0  0  0  0  0  0  0
   37.1810   73.9510   57.5120 H   0  0  0  0  0  0  0  0  0  0  0  0
   36.3830   75.5360   57.9920 H   0  0  0  0  0  0  0  0  0  0  0  0
   42.4050   71.7540   61.8200 C   0  0  0  0  0  0  0  0  0  0  0  0
   42.8900   70.4770   62.0440 C   0  0  0  0  0  0  0  0  0  0  0  0
   43.6960   70.2060   61.3730 H   0  0  0  0  0  0  0  0  0  0  0  0
   42.1590   69.9460   63.0930 C   0  0  0  0  0  0  0  0  0  0  0  0
   42.4310   68.9410   63.3820 H   0  0  0  0  0  0  0  0  0  0  0  0
   41.2620   70.8830   63.4830 N   0  0  0  0  0  0  0  0  0  0  0  0
   40.6190   70.6500   64.2720 H   0  0  0  0  0  0  0  0  0  0  0  0
   41.4060   71.9670   62.7220 N   0  0  0  0  0  0  0  0  0  0  0  0
  1  6  1  0  0  0  0
  2  1  2  0  0  0  0
  2  3  1  0  0  0  0
  3  4  2  0  0  0  0
  4  5  1  0  0  0  0
  5 20  1  0  0  0  0
  6  5  2  0  0  0  0
  7  2  1  0  0  0  0
  8  3  1  0  0  0  0
  9 14  1  0  0  0  0
 10 11  1  0  0  0  0
 10  9  2  0  0  0  0
 11 12  2  0  0  0  0
 12 13  1  0  0  0  0
 13  1  1  0  0  0  0
 14 13  2  0  0  0  0
 15 19  1  0  0  0  0
 15  9  1  0  0  0  0
 16 10  1  0  0  0  0
 17 11  1  0  0  0  0
 18 15  1  0  0  0  0
 20 21  1  0  0  0  0
 20 27  2  0  0  0  0
 21 23  2  0  0  0  0
 22 21  1  0  0  0  0
 23 24  1  0  0  0  0
 23 25  1  0  0  0  0
 25 26  1  0  0  0  0
 27 25  1  0  0  0  0
M  END
>  <minimizedAffinity>
-5.64097786

$$$$

 OpenBabel03212520503D

 27 29  0  0  0  0  0  0  0  0999 V2000
   38.9910   76.0620   57.8710 C   0  0  0  0  0  0  0  0  0  0  0  0
   39.2560   77.2520   58.5030 C   0  0  0  0  0  0  0  0  0  0  0  0
   39.9310   77.3180   59.7250 C   0  0  0  0  0  0  0  0  0  0  0  0
   40.3380   76.1690   60.3040 N   0  0  0  0  0  0  0  0  0  0  0  0
   40.0750   75.0160   59.6800 C   0  0  0  0  0  0  0  0  0  0  0  0
   39.4140   74.9300   58.4830 N   0  0  0  0  0  0  0  0  0  0  0  0
   38.9220   78.1600   58.0220 H   0  0  0  0  0  0  0  0  0  0  0  0
   40.0980   78.2800   60.1490 H   0  0  0  0  0  0  0  0  0  0  0  0
   38.0040   75.0860   54.4820 C   0  0  0  0  0  0  0  0  0  0  0  0
   36.9140   75.9440   54.2430 C   0  0  0  0  0  0  0  0  0  0  0  0
   36.5330   76.8360   55.2310 C   0  0  0  0  0  0  0  0  0  0  0  0
   37.2530   76.8220   56.3910 N   0  0  0  0  0  0  0  0  0  0  0  0
   38.2850   75.9980   56.5950 C   0  0  0  0  0  0  0  0  0  0  0  0
   38.6680   75.1310   55.6570 N   0  0  0  0  0  0  0  0  0  0  0  0
   38.3010   74.2150   53.3930 N   0  0  0  0  0  0  0  0  0  0  0  0
   36.3510   75.9540   53.3340 H   0  0  0  0  0  0  0  0  0  0  0  0
   35.7100   77.5040   55.0900 H   0  0  0  0  0  0  0  0  0  0  0  0
   39.3250   74.0070   53.1960 H   0  0  0  0  0  0  0  0  0  0  0  0
   37.5390   73.8010   52.8150 H   0  0  0  0  0  0  0  0  0  0  0  0
   40.5450   73.8160   60.3660 C   0  0  0  0  0  0  0  0  0  0  0  0
   40.7300   73.3250   61.6470 C   0  0  0  0  0  0  0  0  0  0  0  0
   40.4450   74.0310   62.4170 H   0  0  0  0  0  0  0  0  0  0  0  0
   41.2380   72.0440   61.5180 C   0  0  0  0  0  0  0  0  0  0  0  0
   41.4340   71.5300   62.4480 H   0  0  0  0  0  0  0  0  0  0  0  0
   41.3520   71.7790   60.1940 N   0  0  0  0  0  0  0  0  0  0  0  0
   41.7240   70.8460   59.9100 H   0  0  0  0  0  0  0  0  0  0  0  0
   40.9380   72.8380   59.5010 N   0  0  0  0  0  0  0  0  0  0  0  0
  1  6  2  0  0  0  0
  1  2  1  0  0  0  0
  2  3  2  0  0  0  0
  3  8  1  0  0  0  0
  3  4  1  0  0  0  0
  5  4  2  0  0  0  0
  5 20  1  0  0  0  0
  6  5  1  0  0  0  0
  7  2  1  0  0  0  0
  9 14  1  0  0  0  0
 10  9  2  0  0  0  0
 10 11  1  0  0  0  0
 11 12  2  0  0  0  0
 12 13  1  0  0  0  0
 13  1  1  0  0  0  0
 14 13  2  0  0  0  0
 15  9  1  0  0  0  0
 16 10  1  0  0  0  0
 17 11  1  0  0  0  0
 18 15  1  0  0  0  0
 19 15  1  0  0  0  0
 20 21  1  0  0  0  0
 21 22  1  0  0  0  0
 23 21  2  0  0  0  0
 23 24  1  0  0  0  0
 25 23  1  0  0  0  0
 26 25  1  0  0  0  0
 27 25  1  0  0  0  0
 27 20  2  0  0  0  0
M  END
>  <minimizedAffinity>
-5.19082689

$$$$

 OpenBabel03212520503D

 27 29  0  0  0  0  0  0  0  0999 V2000
   40.2500   74.0970   60.3200 C   0  0  0  0  0  0  0  0  0  0  0  0
   40.4280   75.3330   60.8920 C   0  0  0  0  0  0  0  0  0  0  0  0
   39.8000   76.4820   60.4040 C   0  0  0  0  0  0  0  0  0  0  0  0
   38.9900   76.3720   59.3310 N   0  0  0  0  0  0  0  0  0  0  0  0
   38.8240   75.1640   58.7810 C   0  0  0  0  0  0  0  0  0  0  0  0
   39.4310   74.0260   59.2440 N   0  0  0  0  0  0  0  0  0  0  0  0
   41.0800   75.3980   61.7510 H   0  0  0  0  0  0  0  0  0  0  0  0
   39.9890   77.4020   60.9050 H   0  0  0  0  0  0  0  0  0  0  0  0
   41.8780   70.8210   60.4930 C   0  0  0  0  0  0  0  0  0  0  0  0
   42.1300   70.6990   61.8730 C   0  0  0  0  0  0  0  0  0  0  0  0
   41.7440   71.7260   62.7190 C   0  0  0  0  0  0  0  0  0  0  0  0
   41.1360   72.8060   62.1460 N   0  0  0  0  0  0  0  0  0  0  0  0
   40.9080   72.8990   60.8330 C   0  0  0  0  0  0  0  0  0  0  0  0
   41.2720   71.9230   60.0010 N   0  0  0  0  0  0  0  0  0  0  0  0
   42.3200   69.7030   59.7270 N   0  0  0  0  0  0  0  0  0  0  0  0
   42.6060   69.8520   62.3200 H   0  0  0  0  0  0  0  0  0  0  0  0
   41.9170   71.6720   63.7730 H   0  0  0  0  0  0  0  0  0  0  0  0
   41.7150   69.4010   58.9060 H   0  0  0  0  0  0  0  0  0  0  0  0
   43.2030   69.2040   59.9670 H   0  0  0  0  0  0  0  0  0  0  0  0
   37.9350   75.1240   57.6250 C   0  0  0  0  0  0  0  0  0  0  0  0
   37.4650   75.9440   56.6120 C   0  0  0  0  0  0  0  0  0  0  0  0
   37.8670   76.9490   56.6610 H   0  0  0  0  0  0  0  0  0  0  0  0
   36.6070   75.1800   55.8410 C   0  0  0  0  0  0  0  0  0  0  0  0
   36.1590   75.6950   55.0020 H   0  0  0  0  0  0  0  0  0  0  0  0
   36.5650   73.9390   56.3800 N   0  0  0  0  0  0  0  0  0  0  0  0
   35.9590   73.2230   55.9210 H   0  0  0  0  0  0  0  0  0  0  0  0
   37.3590   73.9010   57.4490 N   0  0  0  0  0  0  0  0  0  0  0  0
  1 13  1  0  0  0  0
  1  2  1  0  0  0  0
  2  7  1  0  0  0  0
  3  2  2  0  0  0  0
  3  8  1  0  0  0  0
  4  3  1  0  0  0  0
  5  6  1  0  0  0  0
  5  4  2  0  0  0  0
  6  1  2  0  0  0  0
  9 10  1  0  0  0  0
 10 16  1  0  0  0  0
 10 11  2  0  0  0  0
 11 17  1  0  0  0  0
 12 11  1  0  0  0  0
 13 12  2  0  0  0  0
 14  9  2  0  0  0  0
 14 13  1  0  0  0  0
 15 19  1  0  0  0  0
 15  9  1  0  0  0  0
 18 15  1  0  0  0  0
 20  5  1  0  0  0  0
 21 22  1  0  0  0  0
 21 20  1  0  0  0  0
 23 25  1  0  0  0  0
 23 21  2  0  0  0  0
 24 23  1  0  0  0  0
 25 27  1  0  0  0  0
 26 25  1  0  0  0  0
 27 20  2  0  0  0  0
M  END
>  <minimizedAffinity>
-5.18741751

$$$$

 OpenBabel03212520503D

 27 29  0  0  0  0  0  0  0  0999 V2000
   42.3800   73.2700   60.0330 C   0  0  0  0  0  0  0  0  0  0  0  0
   43.3940   73.1770   59.1110 C   0  0  0  0  0  0  0  0  0  0  0  0
   44.2250   72.0570   59.0230 C   0  0  0  0  0  0  0  0  0  0  0  0
   44.0230   71.0300   59.8740 N   0  0  0  0  0  0  0  0  0  0  0  0
   43.0320   71.1320   60.7670 C   0  0  0  0  0  0  0  0  0  0  0  0
   42.2070   72.2200   60.8710 N   0  0  0  0  0  0  0  0  0  0  0  0
   43.5380   74.0110   58.4390 H   0  0  0  0  0  0  0  0  0  0  0  0
   44.9880   72.0620   58.2810 H   0  0  0  0  0  0  0  0  0  0  0  0
   39.6090   75.4930   60.9220 C   0  0  0  0  0  0  0  0  0  0  0  0
   39.9550   76.6720   60.2340 C   0  0  0  0  0  0  0  0  0  0  0  0
   41.1180   76.6940   59.4830 C   0  0  0  0  0  0  0  0  0  0  0  0
   41.8630   75.5490   59.4600 N   0  0  0  0  0  0  0  0  0  0  0  0
   41.5130   74.4430   60.1220 C   0  0  0  0  0  0  0  0  0  0  0  0
   40.3980   74.4000   60.8510 N   0  0  0  0  0  0  0  0  0  0  0  0
   38.3920   75.5940   61.6580 N   0  0  0  0  0  0  0  0  0  0  0  0
   39.3700   77.5680   60.2520 H   0  0  0  0  0  0  0  0  0  0  0  0
   41.4170   77.5690   58.9460 H   0  0  0  0  0  0  0  0  0  0  0  0
   37.7630   74.7360   61.6870 H   0  0  0  0  0  0  0  0  0  0  0  0
   38.1340   76.4760   62.1480 H   0  0  0  0  0  0  0  0  0  0  0  0
   42.8750   69.9830   61.6540 C   0  0  0  0  0  0  0  0  0  0  0  0
   43.0030   69.6420   62.9890 C   0  0  0  0  0  0  0  0  0  0  0  0
   43.3230   70.4710   63.6090 H   0  0  0  0  0  0  0  0  0  0  0  0
   42.6670   68.3030   63.0970 C   0  0  0  0  0  0  0  0  0  0  0  0
   42.7220   67.8940   64.0960 H   0  0  0  0  0  0  0  0  0  0  0  0
   42.3470   67.8590   61.8590 N   0  0  0  0  0  0  0  0  0  0  0  0
   42.0660   66.8590   61.7520 H   0  0  0  0  0  0  0  0  0  0  0  0
   42.4710   68.8620   60.9910 N   0  0  0  0  0  0  0  0  0  0  0  0
  1 13  1  0  0  0  0
  1  6  1  0  0  0  0
  2  1  2  0  0  0  0
  3  2  1  0  0  0  0
  3  4  2  0  0  0  0
  4  5  1  0  0  0  0
  5  6  2  0  0  0  0
  5 20  1  0  0  0  0
  7  2  1  0  0  0  0
  8  3  1  0  0  0  0
  9 15  1  0  0  0  0
 10 16  1  0  0  0  0
 10  9  2  0  0  0  0
 11 10  1  0  0  0  0
 12 11  2  0  0  0  0
 12 13  1  0  0  0  0
 13 14  2  0  0  0  0
 14  9  1  0  0  0  0
 15 18  1  0  0  0  0
 15 19  1  0  0  0  0
 17 11  1  0  0  0  0
 20 21  1  0  0  0  0
 21 23  2  0  0  0  0
 21 22  1  0  0  0  0
 23 24  1  0  0  0  0
 25 23  1  0  0  0  0
 26 25  1  0  0  0  0
 27 20  2  0  0  0  0
 27 25  1  0  0  0  0
M  END
>  <minimizedAffinity>
-5.08946085

$$$$

 OpenBabel03212520503D

 27 29  0  0  0  0  0  0  0  0999 V2000
   40.1360   73.8430   59.5640 C   0  0  0  0  0  0  0  0  0  0  0  0
   40.2410   74.5710   60.7230 C   0  0  0  0  0  0  0  0  0  0  0  0
   39.7480   75.8740   60.8370 C   0  0  0  0  0  0  0  0  0  0  0  0
   39.1460   76.4350   59.7680 N   0  0  0  0  0  0  0  0  0  0  0  0
   39.0490   75.7160   58.6440 C   0  0  0  0  0  0  0  0  0  0  0  0
   39.5260   74.4390   58.5120 N   0  0  0  0  0  0  0  0  0  0  0  0
   40.7260   74.1030   61.5680 H   0  0  0  0  0  0  0  0  0  0  0  0
   39.8690   76.3720   61.7700 H   0  0  0  0  0  0  0  0  0  0  0  0
   40.8820   70.4980   58.2740 C   0  0  0  0  0  0  0  0  0  0  0  0
   41.6540   69.9530   59.3180 C   0  0  0  0  0  0  0  0  0  0  0  0
   41.9070   70.7270   60.4380 C   0  0  0  0  0  0  0  0  0  0  0  0
   41.3820   71.9870   60.4540 N   0  0  0  0  0  0  0  0  0  0  0  0
   40.6530   72.4810   59.4500 C   0  0  0  0  0  0  0  0  0  0  0  0
   40.3970   71.7550   58.3630 N   0  0  0  0  0  0  0  0  0  0  0  0
   40.6900   69.6080   57.1770 N   0  0  0  0  0  0  0  0  0  0  0  0
   42.0640   68.9650   59.3050 H   0  0  0  0  0  0  0  0  0  0  0  0
   42.4890   70.3510   61.2540 H   0  0  0  0  0  0  0  0  0  0  0  0
   39.7440   69.6260   56.6900 H   0  0  0  0  0  0  0  0  0  0  0  0
   41.4500   68.9660   56.8680 H   0  0  0  0  0  0  0  0  0  0  0  0
   38.3860   76.3890   57.5310 C   0  0  0  0  0  0  0  0  0  0  0  0
   38.4820   77.5450   56.7750 C   0  0  0  0  0  0  0  0  0  0  0  0
   39.3050   78.1820   57.0770 H   0  0  0  0  0  0  0  0  0  0  0  0
   37.4580   77.5040   55.8450 C   0  0  0  0  0  0  0  0  0  0  0  0
   37.4090   78.3520   55.1760 H   0  0  0  0  0  0  0  0  0  0  0  0
   36.7700   76.3550   56.0420 N   0  0  0  0  0  0  0  0  0  0  0  0
   35.9530   76.1580   55.4220 H   0  0  0  0  0  0  0  0  0  0  0  0
   37.3230   75.6850   57.0520 N   0  0  0  0  0  0  0  0  0  0  0  0
  1  2  1  0  0  0  0
  2  3  2  0  0  0  0
  2  7  1  0  0  0  0
  3  8  1  0  0  0  0
  4  3  1  0  0  0  0
  5  4  2  0  0  0  0
  6  5  1  0  0  0  0
  6  1  2  0  0  0  0
  9 14  2  0  0  0  0
  9 10  1  0  0  0  0
 10 11  2  0  0  0  0
 11 12  1  0  0  0  0
 11 17  1  0  0  0  0
 13  1  1  0  0  0  0
 13 12  2  0  0  0  0
 14 13  1  0  0  0  0
 15  9  1  0  0  0  0
 16 10  1  0  0  0  0
 18 15  1  0  0  0  0
 19 15  1  0  0  0  0
 20  5  1  0  0  0  0
 21 22  1  0  0  0  0
 21 20  1  0  0  0  0
 23 25  1  0  0  0  0
 23 21  2  0  0  0  0
 24 23  1  0  0  0  0
 25 27  1  0  0  0  0
 26 25  1  0  0  0  0
 27 20  2  0  0  0  0
M  END
>  <minimizedAffinity>
-5.04383564

$$$$

 OpenBabel03212520503D

 27 29  0  0  0  0  0  0  0  0999 V2000
   41.3010   73.6650   59.6390 C   0  0  0  0  0  0  0  0  0  0  0  0
   42.5380   74.2610   59.6280 C   0  0  0  0  0  0  0  0  0  0  0  0
   43.6540   73.6840   60.2400 C   0  0  0  0  0  0  0  0  0  0  0  0
   43.5100   72.4970   60.8640 N   0  0  0  0  0  0  0  0  0  0  0  0
   42.3010   71.9250   60.8690 C   0  0  0  0  0  0  0  0  0  0  0  0
   41.1950   72.4740   60.2750 N   0  0  0  0  0  0  0  0  0  0  0  0
   42.6320   75.2120   59.1230 H   0  0  0  0  0  0  0  0  0  0  0  0
   44.5780   74.2100   60.1870 H   0  0  0  0  0  0  0  0  0  0  0  0
   38.1960   74.0920   57.7450 C   0  0  0  0  0  0  0  0  0  0  0  0
   37.9960   75.4830   57.8330 C   0  0  0  0  0  0  0  0  0  0  0  0
   38.9140   76.2500   58.5300 C   0  0  0  0  0  0  0  0  0  0  0  0
   39.9700   75.5940   59.0960 N   0  0  0  0  0  0  0  0  0  0  0  0
   40.1380   74.2720   58.9980 C   0  0  0  0  0  0  0  0  0  0  0  0
   39.2660   73.5140   58.3320 N   0  0  0  0  0  0  0  0  0  0  0  0
   37.1870   73.4120   57.0030 N   0  0  0  0  0  0  0  0  0  0  0  0
   37.1690   75.9960   57.3890 H   0  0  0  0  0  0  0  0  0  0  0  0
   38.7990   77.3100   58.6210 H   0  0  0  0  0  0  0  0  0  0  0  0
   37.4930   72.5970   56.3910 H   0  0  0  0  0  0  0  0  0  0  0  0
   36.1890   73.7060   57.0610 H   0  0  0  0  0  0  0  0  0  0  0  0
   42.2220   70.6430   61.5620 C   0  0  0  0  0  0  0  0  0  0  0  0
   42.1610   69.2860   61.2920 C   0  0  0  0  0  0  0  0  0  0  0  0
   42.1730   69.0650   60.2310 H   0  0  0  0  0  0  0  0  0  0  0  0
   42.1030   68.6340   62.5110 C   0  0  0  0  0  0  0  0  0  0  0  0
   42.0520   67.5560   62.4540 H   0  0  0  0  0  0  0  0  0  0  0  0
   42.1290   69.5770   63.4820 N   0  0  0  0  0  0  0  0  0  0  0  0
   42.0930   69.2600   64.4760 H   0  0  0  0  0  0  0  0  0  0  0  0
   42.2000   70.7810   62.9180 N   0  0  0  0  0  0  0  0  0  0  0  0
  1  6  1  0  0  0  0
  2  1  2  0  0  0  0
  2  3  1  0  0  0  0
  3  4  2  0  0  0  0
  4  5  1  0  0  0  0
  5 20  1  0  0  0  0
  6  5  2  0  0  0  0
  7  2  1  0  0  0  0
  8  3  1  0  0  0  0
  9 10  2  0  0  0  0
  9 14  1  0  0  0  0
 10 11  1  0  0  0  0
 11 17  1  0  0  0  0
 11 12  2  0  0  0  0
 13 12  1  0  0  0  0
 13  1  1  0  0  0  0
 14 13  2  0  0  0  0
 15 19  1  0  0  0  0
 15  9  1  0  0  0  0
 16 10  1  0  0  0  0
 18 15  1  0  0  0  0
 20 27  2  0  0  0  0
 21 20  1  0  0  0  0
 21 23  2  0  0  0  0
 22 21  1  0  0  0  0
 23 25  1  0  0  0  0
 24 23  1  0  0  0  0
 25 26  1  0  0  0  0
 27 25  1  0  0  0  0
M  END
>  <minimizedAffinity>
-5.02880478

$$$$

 OpenBabel03212520503D

 27 29  0  0  0  0  0  0  0  0999 V2000
   41.7510   70.8230   60.2960 C   0  0  0  0  0  0  0  0  0  0  0  0
   41.9140   70.7260   58.9360 C   0  0  0  0  0  0  0  0  0  0  0  0
   41.5150   71.7390   58.0590 C   0  0  0  0  0  0  0  0  0  0  0  0
   40.9500   72.8530   58.5690 N   0  0  0  0  0  0  0  0  0  0  0  0
   40.7970   72.9370   59.8950 C   0  0  0  0  0  0  0  0  0  0  0  0
   41.1800   71.9560   60.7710 N   0  0  0  0  0  0  0  0  0  0  0  0
   42.3690   69.8260   58.5480 H   0  0  0  0  0  0  0  0  0  0  0  0
   41.6760   71.5870   57.0180 H   0  0  0  0  0  0  0  0  0  0  0  0
   42.2100   67.5300   61.8290 C   0  0  0  0  0  0  0  0  0  0  0  0
   42.9920   67.8450   62.9570 C   0  0  0  0  0  0  0  0  0  0  0  0
   43.3490   69.1650   63.1780 C   0  0  0  0  0  0  0  0  0  0  0  0
   42.9110   70.0870   62.2710 N   0  0  0  0  0  0  0  0  0  0  0  0
   42.1700   69.7620   61.2080 C   0  0  0  0  0  0  0  0  0  0  0  0
   41.8150   68.4980   60.9760 N   0  0  0  0  0  0  0  0  0  0  0  0
   41.9070   66.1420   61.7100 N   0  0  0  0  0  0  0  0  0  0  0  0
   43.3340   67.1220   63.6680 H   0  0  0  0  0  0  0  0  0  0  0  0
   43.9420   69.4470   64.0230 H   0  0  0  0  0  0  0  0  0  0  0  0
   40.9430   65.8790   61.3450 H   0  0  0  0  0  0  0  0  0  0  0  0
   42.6080   65.4160   61.9720 H   0  0  0  0  0  0  0  0  0  0  0  0
   40.1780   74.1700   60.3730 C   0  0  0  0  0  0  0  0  0  0  0  0
   40.3730   75.5400   60.3430 C   0  0  0  0  0  0  0  0  0  0  0  0
   41.2620   75.8300   59.7960 H   0  0  0  0  0  0  0  0  0  0  0  0
   39.3270   76.1110   61.0460 C   0  0  0  0  0  0  0  0  0  0  0  0
   39.3460   77.1910   61.1070 H   0  0  0  0  0  0  0  0  0  0  0  0
   38.5300   75.1070   61.4840 N   0  0  0  0  0  0  0  0  0  0  0  0
   37.6830   75.3580   62.0400 H   0  0  0  0  0  0  0  0  0  0  0  0
   39.0370   73.9430   61.0830 N   0  0  0  0  0  0  0  0  0  0  0  0
  1  6  1  0  0  0  0
  1 13  1  0  0  0  0
  2  1  2  0  0  0  0
  3  4  2  0  0  0  0
  3  2  1  0  0  0  0
  4  5  1  0  0  0  0
  5 20  1  0  0  0  0
  5  6  2  0  0  0  0
  7  2  1  0  0  0  0
  8  3  1  0  0  0  0
  9 10  1  0  0  0  0
 10 11  2  0  0  0  0
 10 16  1  0  0  0  0
 11 17  1  0  0  0  0
 12 11  1  0  0  0  0
 13 12  2  0  0  0  0
 14 13  1  0  0  0  0
 14  9  2  0  0  0  0
 15  9  1  0  0  0  0
 15 19  1  0  0  0  0
 18 15  1  0  0  0  0
 20 27  2  0  0  0  0
 21 20  1  0  0  0  0
 21 23  2  0  0  0  0
 22 21  1  0  0  0  0
 23 24  1  0  0  0  0
 23 25  1  0  0  0  0
 25 26  1  0  0  0  0
 27 25  1  0  0  0  0
M  END
>  <minimizedAffinity>
-4.93369007

$$$$

 OpenBabel03212520503D

 27 29  0  0  0  0  0  0  0  0999 V2000
   41.1330   72.8880   59.8480 C   0  0  0  0  0  0  0  0  0  0  0  0
   40.9320   72.2440   58.6520 C   0  0  0  0  0  0  0  0  0  0  0  0
   41.2180   70.8870   58.4750 C   0  0  0  0  0  0  0  0  0  0  0  0
   41.7080   70.1860   59.5180 N   0  0  0  0  0  0  0  0  0  0  0  0
   41.8990   70.8240   60.6780 C   0  0  0  0  0  0  0  0  0  0  0  0
   41.6260   72.1520   60.8720 N   0  0  0  0  0  0  0  0  0  0  0  0
   40.5380   72.8240   57.8290 H   0  0  0  0  0  0  0  0  0  0  0  0
   41.0340   70.4620   57.5170 H   0  0  0  0  0  0  0  0  0  0  0  0
   41.3060   76.5400   59.6280 C   0  0  0  0  0  0  0  0  0  0  0  0
   40.2040   76.9270   60.4150 C   0  0  0  0  0  0  0  0  0  0  0  0
   39.4230   75.9470   61.0040 C   0  0  0  0  0  0  0  0  0  0  0  0
   39.7820   74.6480   60.7780 N   0  0  0  0  0  0  0  0  0  0  0  0
   40.8330   74.3060   60.0280 C   0  0  0  0  0  0  0  0  0  0  0  0
   41.5970   75.2330   59.4510 N   0  0  0  0  0  0  0  0  0  0  0  0
   42.0310   77.6350   59.0760 N   0  0  0  0  0  0  0  0  0  0  0  0
   39.9240   77.9440   60.5910 H   0  0  0  0  0  0  0  0  0  0  0  0
   38.5770   76.1980   61.6080 H   0  0  0  0  0  0  0  0  0  0  0  0
   43.0900   77.5440   59.0170 H   0  0  0  0  0  0  0  0  0  0  0  0
   41.5390   78.4920   58.7450 H   0  0  0  0  0  0  0  0  0  0  0  0
   42.4310   70.0000   61.7600 C   0  0  0  0  0  0  0  0  0  0  0  0
   42.5380   69.9940   63.1400 C   0  0  0  0  0  0  0  0  0  0  0  0
   42.0940   70.8670   63.6040 H   0  0  0  0  0  0  0  0  0  0  0  0
   43.2010   68.8300   63.4870 C   0  0  0  0  0  0  0  0  0  0  0  0
   43.3570   68.6870   64.5470 H   0  0  0  0  0  0  0  0  0  0  0  0
   43.4810   68.1610   62.3440 N   0  0  0  0  0  0  0  0  0  0  0  0
   43.9860   67.2490   62.4180 H   0  0  0  0  0  0  0  0  0  0  0  0
   43.0220   68.8590   61.3070 N   0  0  0  0  0  0  0  0  0  0  0  0
  1 13  1  0  0  0  0
  1  6  1  0  0  0  0
  2  1  2  0  0  0  0
  3  2  1  0  0  0  0
  3  4  2  0  0  0  0
  4  5  1  0  0  0  0
  5  6  2  0  0  0  0
  5 20  1  0  0  0  0
  7  2  1  0  0  0  0
  8  3  1  0  0  0  0
  9 10  1  0  0  0  0
 10 16  1  0  0  0  0
 10 11  2  0  0  0  0
 11 17  1  0  0  0  0
 12 11  1  0  0  0  0
 13 12  2  0  0  0  0
 14  9  2  0  0  0  0
 14 13  1  0  0  0  0
 15  9  1  0  0  0  0
 18 15  1  0  0  0  0
 19 15  1  0  0  0  0
 20 21  1  0  0  0  0
 21 23  2  0  0  0  0
 21 22  1  0  0  0  0
 23 24  1  0  0  0  0
 25 26  1  0  0  0  0
 25 23  1  0  0  0  0
 27 20  2  0  0  0  0
 27 25  1  0  0  0  0
M  END
>  <minimizedAffinity>
-4.90153456

$$$$
