
 OpenBabel03212521023D

 27 29  0  0  0  0  0  0  0  0999 V2000
   42.3740   84.4700   62.3640 C   0  0  0  0  0  0  0  0  0  0  0  0
   42.3020   84.4190   63.7450 C   0  0  0  0  0  0  0  0  0  0  0  0
   41.1400   84.0560   64.3990 C   0  0  0  0  0  0  0  0  0  0  0  0
   40.0040   83.7320   63.6460 C   0  0  0  0  0  0  0  0  0  0  0  0
   40.0830   83.7860   62.2410 C   0  0  0  0  0  0  0  0  0  0  0  0
   41.2540   84.1500   61.6140 C   0  0  0  0  0  0  0  0  0  0  0  0
   43.1950   84.6730   64.3040 H   0  0  0  0  0  0  0  0  0  0  0  0
   41.0840   84.0170   65.4770 H   0  0  0  0  0  0  0  0  0  0  0  0
   39.0930   83.4490   64.1670 H   0  0  0  0  0  0  0  0  0  0  0  0
   39.1960   83.5320   61.6780 H   0  0  0  0  0  0  0  0  0  0  0  0
   45.6760   84.2730   60.7900 C   0  0  0  0  0  0  0  0  0  0  0  0
   45.9880   85.6050   60.5320 C   0  0  0  0  0  0  0  0  0  0  0  0
   45.0500   86.5710   60.9050 C   0  0  0  0  0  0  0  0  0  0  0  0
   43.8920   86.1680   61.4950 N   0  0  0  0  0  0  0  0  0  0  0  0
   43.6260   84.8560   61.7300 C   0  0  0  0  0  0  0  0  0  0  0  0
   44.5120   83.9170   61.3790 N   0  0  0  0  0  0  0  0  0  0  0  0
   46.3680   83.4830   60.5220 H   0  0  0  0  0  0  0  0  0  0  0  0
   46.9290   85.8790   60.0570 H   0  0  0  0  0  0  0  0  0  0  0  0
   45.2640   87.6200   60.7160 H   0  0  0  0  0  0  0  0  0  0  0  0
   41.2750   84.1890   60.1630 C   0  0  0  0  0  0  0  0  0  0  0  0
   41.2190   85.1320   59.1490 C   0  0  0  0  0  0  0  0  0  0  0  0
   41.1320   86.1700   59.4600 H   0  0  0  0  0  0  0  0  0  0  0  0
   41.2940   84.4380   57.9530 C   0  0  0  0  0  0  0  0  0  0  0  0
   41.2680   84.9840   57.0300 H   0  0  0  0  0  0  0  0  0  0  0  0
   41.3920   83.1180   58.2560 N   0  0  0  0  0  0  0  0  0  0  0  0
   41.4630   82.3820   57.5100 H   0  0  0  0  0  0  0  0  0  0  0  0
   41.3810   82.9590   59.5770 N   0  0  0  0  0  0  0  0  0  0  0  0
  1  2  1  0  0  0  0
  2  7  1  0  0  0  0
  2  3  2  0  0  0  0
  3  8  1  0  0  0  0
  4  9  1  0  0  0  0
  4  3  1  0  0  0  0
  5  4  2  0  0  0  0
  6  5  1  0  0  0  0
  6  1  2  0  0  0  0
 10  5  1  0  0  0  0
 11 16  1  0  0  0  0
 12 11  2  0  0  0  0
 12 13  1  0  0  0  0
 13 14  2  0  0  0  0
 14 15  1  0  0  0  0
 15  1  1  0  0  0  0
 16 15  2  0  0  0  0
 17 11  1  0  0  0  0
 18 12  1  0  0  0  0
 19 13  1  0  0  0  0
 20  6  1  0  0  0  0
 21 22  1  0  0  0  0
 21 20  1  0  0  0  0
 23 25  1  0  0  0  0
 23 21  2  0  0  0  0
 24 23  1  0  0  0  0
 25 27  1  0  0  0  0
 26 25  1  0  0  0  0
 27 20  2  0  0  0  0
M  END
>  <minimizedAffinity>
-4.73053503

>  <minimizedRMSD>
2.28723049

$$$$
