
 OpenBabel03212520523D

 24 26  0  0  0  0  0  0  0  0999 V2000
   42.5110   82.6830   61.2650 C   0  0  0  0  0  0  0  0  0  0  0  0
   42.4080   81.2780   61.3400 C   0  0  0  0  0  0  0  0  0  0  0  0
   43.4350   80.5820   61.8950 C   0  0  0  0  0  0  0  0  0  0  0  0
   44.5620   81.2900   62.3730 C   0  0  0  0  0  0  0  0  0  0  0  0
   44.1270   83.0560   62.0090 S   0  0  0  0  0  0  0  0  0  0  0  0
   41.5330   80.7640   60.9640 H   0  0  0  0  0  0  0  0  0  0  0  0
   43.4830   79.5100   62.0120 H   0  0  0  0  0  0  0  0  0  0  0  0
   39.3010   84.3700   60.8290 C   0  0  0  0  0  0  0  0  0  0  0  0
   39.4920   85.1460   59.6630 C   0  0  0  0  0  0  0  0  0  0  0  0
   40.7540   85.0780   59.0270 C   0  0  0  0  0  0  0  0  0  0  0  0
   41.6840   84.2770   59.5810 N   0  0  0  0  0  0  0  0  0  0  0  0
   41.4690   83.5500   60.6920 C   0  0  0  0  0  0  0  0  0  0  0  0
   40.2970   83.5920   61.3130 N   0  0  0  0  0  0  0  0  0  0  0  0
   38.3270   84.4200   61.3240 H   0  0  0  0  0  0  0  0  0  0  0  0
   38.6950   85.7670   59.2800 H   0  0  0  0  0  0  0  0  0  0  0  0
   40.9350   85.6600   58.1320 H   0  0  0  0  0  0  0  0  0  0  0  0
   45.7460   80.8550   62.9810 C   0  0  0  0  0  0  0  0  0  0  0  0
   46.7540   81.6100   63.5780 C   0  0  0  0  0  0  0  0  0  0  0  0
   46.6730   82.6970   63.6110 H   0  0  0  0  0  0  0  0  0  0  0  0
   47.7230   80.7250   64.0360 C   0  0  0  0  0  0  0  0  0  0  0  0
   48.6110   81.0770   64.5400 H   0  0  0  0  0  0  0  0  0  0  0  0
   47.2770   79.5020   63.7080 N   0  0  0  0  0  0  0  0  0  0  0  0
   47.8300   78.6280   63.9440 H   0  0  0  0  0  0  0  0  0  0  0  0
   46.1130   79.5670   63.0860 N   0  0  0  0  0  0  0  0  0  0  0  0
  1  2  2  0  0  0  0
  1  5  1  0  0  0  0
  2  3  1  0  0  0  0
  3  7  1  0  0  0  0
  3  4  2  0  0  0  0
  4 17  1  0  0  0  0
  5  4  1  0  0  0  0
  6  2  1  0  0  0  0
  8 13  1  0  0  0  0
  8 14  1  0  0  0  0
  9  8  2  0  0  0  0
 10 11  2  0  0  0  0
 10  9  1  0  0  0  0
 11 12  1  0  0  0  0
 12  1  1  0  0  0  0
 12 13  2  0  0  0  0
 15  9  1  0  0  0  0
 16 10  1  0  0  0  0
 17 24  2  0  0  0  0
 17 18  1  0  0  0  0
 18 19  1  0  0  0  0
 18 20  2  0  0  0  0
 20 21  1  0  0  0  0
 22 23  1  0  0  0  0
 22 20  1  0  0  0  0
 24 22  1  0  0  0  0
M  END
>  <minimizedAffinity>
-4.19513035

>  <minimizedRMSD>
7.29486275

$$$$
