
 OpenBabel03212521023D

 27 29  0  0  0  0  0  0  0  0999 V2000
   42.3740   84.4700   62.3630 C   0  0  0  0  0  0  0  0  0  0  0  0
   42.3020   84.4190   63.7440 C   0  0  0  0  0  0  0  0  0  0  0  0
   41.1390   84.0560   64.3970 C   0  0  0  0  0  0  0  0  0  0  0  0
   40.0030   83.7320   63.6440 C   0  0  0  0  0  0  0  0  0  0  0  0
   40.0830   83.7860   62.2390 C   0  0  0  0  0  0  0  0  0  0  0  0
   41.2540   84.1500   61.6130 C   0  0  0  0  0  0  0  0  0  0  0  0
   43.1940   84.6740   64.3020 H   0  0  0  0  0  0  0  0  0  0  0  0
   41.0830   84.0180   65.4750 H   0  0  0  0  0  0  0  0  0  0  0  0
   39.0930   83.4490   64.1650 H   0  0  0  0  0  0  0  0  0  0  0  0
   39.1970   83.5320   61.6760 H   0  0  0  0  0  0  0  0  0  0  0  0
   45.6760   84.2730   60.7890 C   0  0  0  0  0  0  0  0  0  0  0  0
   45.9880   85.6060   60.5310 C   0  0  0  0  0  0  0  0  0  0  0  0
   45.0500   86.5710   60.9040 C   0  0  0  0  0  0  0  0  0  0  0  0
   43.8920   86.1680   61.4930 N   0  0  0  0  0  0  0  0  0  0  0  0
   43.6260   84.8560   61.7290 C   0  0  0  0  0  0  0  0  0  0  0  0
   44.5120   83.9170   61.3780 N   0  0  0  0  0  0  0  0  0  0  0  0
   46.3690   83.4830   60.5210 H   0  0  0  0  0  0  0  0  0  0  0  0
   46.9290   85.8800   60.0560 H   0  0  0  0  0  0  0  0  0  0  0  0
   45.2640   87.6200   60.7150 H   0  0  0  0  0  0  0  0  0  0  0  0
   41.2750   84.1880   60.1610 C   0  0  0  0  0  0  0  0  0  0  0  0
   41.2210   85.1320   59.1470 C   0  0  0  0  0  0  0  0  0  0  0  0
   41.1360   86.1700   59.4570 H   0  0  0  0  0  0  0  0  0  0  0  0
   41.2960   84.4360   57.9510 C   0  0  0  0  0  0  0  0  0  0  0  0
   41.2710   84.9840   57.0280 H   0  0  0  0  0  0  0  0  0  0  0  0
   41.3920   83.1180   58.2540 N   0  0  0  0  0  0  0  0  0  0  0  0
   41.4620   82.3810   57.5080 H   0  0  0  0  0  0  0  0  0  0  0  0
   41.3810   82.9590   59.5760 N   0  0  0  0  0  0  0  0  0  0  0  0
  1  2  1  0  0  0  0
  2  7  1  0  0  0  0
  2  3  2  0  0  0  0
  3  8  1  0  0  0  0
  4  9  1  0  0  0  0
  4  3  1  0  0  0  0
  5  4  2  0  0  0  0
  6  5  1  0  0  0  0
  6  1  2  0  0  0  0
 10  5  1  0  0  0  0
 11 16  1  0  0  0  0
 12 11  2  0  0  0  0
 12 13  1  0  0  0  0
 13 14  2  0  0  0  0
 14 15  1  0  0  0  0
 15  1  1  0  0  0  0
 16 15  2  0  0  0  0
 17 11  1  0  0  0  0
 18 12  1  0  0  0  0
 19 13  1  0  0  0  0
 20  6  1  0  0  0  0
 21 22  1  0  0  0  0
 21 20  1  0  0  0  0
 23 25  1  0  0  0  0
 23 21  2  0  0  0  0
 24 23  1  0  0  0  0
 25 27  1  0  0  0  0
 26 25  1  0  0  0  0
 27 20  2  0  0  0  0
M  END
>  <minimizedAffinity>
-4.73064089

>  <minimizedRMSD>
2.26226664

$$$$
