
 OpenBabel03212521023D

 27 29  0  0  0  0  0  0  0  0999 V2000
   41.7890   84.2770   61.4100 C   0  0  0  0  0  0  0  0  0  0  0  0
   41.3850   83.9910   62.7020 C   0  0  0  0  0  0  0  0  0  0  0  0
   40.0950   83.5830   62.9860 C   0  0  0  0  0  0  0  0  0  0  0  0
   39.1710   83.4570   61.9400 C   0  0  0  0  0  0  0  0  0  0  0  0
   39.5880   83.7490   60.6270 C   0  0  0  0  0  0  0  0  0  0  0  0
   40.8790   84.1530   60.3710 C   0  0  0  0  0  0  0  0  0  0  0  0
   42.1180   84.0960   63.4910 H   0  0  0  0  0  0  0  0  0  0  0  0
   39.7800   83.3610   63.9940 H   0  0  0  0  0  0  0  0  0  0  0  0
   38.1590   83.1360   62.1710 H   0  0  0  0  0  0  0  0  0  0  0  0
   38.8620   83.6450   59.8350 H   0  0  0  0  0  0  0  0  0  0  0  0
   45.3590   84.1870   60.5970 C   0  0  0  0  0  0  0  0  0  0  0  0
   45.7500   85.5180   60.7190 C   0  0  0  0  0  0  0  0  0  0  0  0
   44.7710   86.4460   61.0840 C   0  0  0  0  0  0  0  0  0  0  0  0
   43.5010   86.0100   61.2990 N   0  0  0  0  0  0  0  0  0  0  0  0
   43.1600   84.7000   61.1690 C   0  0  0  0  0  0  0  0  0  0  0  0
   44.0840   83.7970   60.8200 N   0  0  0  0  0  0  0  0  0  0  0  0
   46.0780   83.4260   60.3170 H   0  0  0  0  0  0  0  0  0  0  0  0
   46.7800   85.8200   60.5370 H   0  0  0  0  0  0  0  0  0  0  0  0
   45.0450   87.4930   61.1880 H   0  0  0  0  0  0  0  0  0  0  0  0
   41.2510   84.4420   58.9970 C   0  0  0  0  0  0  0  0  0  0  0  0
   41.8860   83.8130   57.9390 C   0  0  0  0  0  0  0  0  0  0  0  0
   42.2390   82.8000   58.1220 H   0  0  0  0  0  0  0  0  0  0  0  0
   41.8920   84.7110   56.8840 C   0  0  0  0  0  0  0  0  0  0  0  0
   42.3410   84.4200   55.9560 H   0  0  0  0  0  0  0  0  0  0  0  0
   41.2740   85.8420   57.3120 N   0  0  0  0  0  0  0  0  0  0  0  0
   41.1530   86.6770   56.6860 H   0  0  0  0  0  0  0  0  0  0  0  0
   40.8870   85.6910   58.5760 N   0  0  0  0  0  0  0  0  0  0  0  0
  1  2  1  0  0  0  0
  2  3  2  0  0  0  0
  2  7  1  0  0  0  0
  3  8  1  0  0  0  0
  4  9  1  0  0  0  0
  4  3  1  0  0  0  0
  5  4  2  0  0  0  0
  6  5  1  0  0  0  0
  6  1  2  0  0  0  0
 10  5  1  0  0  0  0
 11 12  2  0  0  0  0
 11 16  1  0  0  0  0
 12 13  1  0  0  0  0
 13 19  1  0  0  0  0
 13 14  2  0  0  0  0
 15 14  1  0  0  0  0
 15  1  1  0  0  0  0
 16 15  2  0  0  0  0
 17 11  1  0  0  0  0
 18 12  1  0  0  0  0
 20  6  1  0  0  0  0
 21 22  1  0  0  0  0
 21 20  1  0  0  0  0
 23 25  1  0  0  0  0
 23 21  2  0  0  0  0
 24 23  1  0  0  0  0
 25 27  1  0  0  0  0
 26 25  1  0  0  0  0
 27 20  2  0  0  0  0
M  END
>  <minimizedAffinity>
-5.00188541

>  <minimizedRMSD>
2.62430024

$$$$
