
 OpenBabel03212520423D

 17 18  0  0  0  0  0  0  0  0999 V2000
   39.8400   81.8830   61.1790 C   0  0  0  0  0  0  0  0  0  0  0  0
   40.1100   82.5140   59.9550 C   0  0  0  0  0  0  0  0  0  0  0  0
   39.7080   83.8420   59.7860 C   0  0  0  0  0  0  0  0  0  0  0  0
   39.0710   84.4410   60.8360 N   0  0  0  0  0  0  0  0  0  0  0  0
   38.8250   83.8110   61.9980 C   0  0  0  0  0  0  0  0  0  0  0  0
   39.2120   82.5300   62.1670 N   0  0  0  0  0  0  0  0  0  0  0  0
   40.6140   82.0160   59.1450 H   0  0  0  0  0  0  0  0  0  0  0  0
   39.8710   84.4080   58.8830 H   0  0  0  0  0  0  0  0  0  0  0  0
   38.3140   84.4330   62.7180 H   0  0  0  0  0  0  0  0  0  0  0  0
   40.2660   80.4960   61.3430 C   0  0  0  0  0  0  0  0  0  0  0  0
   40.4580   79.5960   60.3150 C   0  0  0  0  0  0  0  0  0  0  0  0
   40.3390   79.7310   59.2550 H   0  0  0  0  0  0  0  0  0  0  0  0
   40.8550   78.4190   60.9500 C   0  0  0  0  0  0  0  0  0  0  0  0
   41.1110   77.4500   60.4940 H   0  0  0  0  0  0  0  0  0  0  0  0
   40.8940   78.6250   62.2890 N   0  0  0  0  0  0  0  0  0  0  0  0
   41.1450   77.9760   63.0590 H   0  0  0  0  0  0  0  0  0  0  0  0
   40.5340   79.8900   62.5130 N   0  0  0  0  0  0  0  0  0  0  0  0
  1 10  1  0  0  0  0
  1  6  1  0  0  0  0
  2  1  2  0  0  0  0
  3  2  1  0  0  0  0
  3  4  2  0  0  0  0
  4  5  1  0  0  0  0
  5  6  2  0  0  0  0
  5  9  1  0  0  0  0
  7  2  1  0  0  0  0
  8  3  1  0  0  0  0
 10 17  2  0  0  0  0
 11 13  2  0  0  0  0
 11 10  1  0  0  0  0
 12 11  1  0  0  0  0
 13 15  1  0  0  0  0
 14 13  1  0  0  0  0
 15 17  1  0  0  0  0
 15 16  1  0  0  0  0
M  END
>  <minimizedAffinity>
-4.4557786

>  <minimizedRMSD>
0.825005591

$$$$
