
 OpenBabel03212521023D

 27 29  0  0  0  0  0  0  0  0999 V2000
   42.3720   84.4650   62.3370 C   0  0  0  0  0  0  0  0  0  0  0  0
   42.3030   84.3870   63.7170 C   0  0  0  0  0  0  0  0  0  0  0  0
   41.1400   84.0190   64.3660 C   0  0  0  0  0  0  0  0  0  0  0  0
   40.0000   83.7180   63.6100 C   0  0  0  0  0  0  0  0  0  0  0  0
   40.0760   83.7990   62.2060 C   0  0  0  0  0  0  0  0  0  0  0  0
   41.2470   84.1670   61.5840 C   0  0  0  0  0  0  0  0  0  0  0  0
   43.1980   84.6240   64.2770 H   0  0  0  0  0  0  0  0  0  0  0  0
   41.0870   83.9590   65.4430 H   0  0  0  0  0  0  0  0  0  0  0  0
   39.0890   83.4290   64.1280 H   0  0  0  0  0  0  0  0  0  0  0  0
   39.1860   83.5620   61.6400 H   0  0  0  0  0  0  0  0  0  0  0  0
   45.6700   84.2780   60.7550 C   0  0  0  0  0  0  0  0  0  0  0  0
   45.9880   85.6130   60.5170 C   0  0  0  0  0  0  0  0  0  0  0  0
   45.0550   86.5770   60.9070 C   0  0  0  0  0  0  0  0  0  0  0  0
   43.8960   86.1700   61.4920 N   0  0  0  0  0  0  0  0  0  0  0  0
   43.6240   84.8550   61.7070 C   0  0  0  0  0  0  0  0  0  0  0  0
   44.5060   83.9180   61.3400 N   0  0  0  0  0  0  0  0  0  0  0  0
   46.3590   83.4890   60.4730 H   0  0  0  0  0  0  0  0  0  0  0  0
   46.9300   85.8900   60.0450 H   0  0  0  0  0  0  0  0  0  0  0  0
   45.2740   87.6280   60.7350 H   0  0  0  0  0  0  0  0  0  0  0  0
   41.2650   84.2350   60.1330 C   0  0  0  0  0  0  0  0  0  0  0  0
   41.1970   85.1970   59.1380 C   0  0  0  0  0  0  0  0  0  0  0  0
   41.1000   86.2270   59.4690 H   0  0  0  0  0  0  0  0  0  0  0  0
   41.2780   84.5260   57.9280 C   0  0  0  0  0  0  0  0  0  0  0  0
   41.2440   85.0910   57.0170 H   0  0  0  0  0  0  0  0  0  0  0  0
   41.3910   83.2020   58.2050 N   0  0  0  0  0  0  0  0  0  0  0  0
   41.4690   82.4830   57.4450 H   0  0  0  0  0  0  0  0  0  0  0  0
   41.3840   83.0180   59.5230 N   0  0  0  0  0  0  0  0  0  0  0  0
  1  2  1  0  0  0  0
  2  7  1  0  0  0  0
  2  3  2  0  0  0  0
  3  8  1  0  0  0  0
  4  9  1  0  0  0  0
  4  3  1  0  0  0  0
  5  4  2  0  0  0  0
  6  5  1  0  0  0  0
  6  1  2  0  0  0  0
 10  5  1  0  0  0  0
 11 16  1  0  0  0  0
 12 11  2  0  0  0  0
 12 13  1  0  0  0  0
 13 14  2  0  0  0  0
 14 15  1  0  0  0  0
 15  1  1  0  0  0  0
 16 15  2  0  0  0  0
 17 11  1  0  0  0  0
 18 12  1  0  0  0  0
 19 13  1  0  0  0  0
 20  6  1  0  0  0  0
 21 22  1  0  0  0  0
 21 20  1  0  0  0  0
 23 25  1  0  0  0  0
 23 21  2  0  0  0  0
 24 23  1  0  0  0  0
 25 27  1  0  0  0  0
 26 25  1  0  0  0  0
 27 20  2  0  0  0  0
M  END
>  <minimizedAffinity>
-4.72609663

>  <minimizedRMSD>
2.21789575

$$$$
