
 OpenBabel03212520023D

 30 33  0  0  0  0  0  0  0  0999 V2000
   40.0810   77.2650   59.6820 C   0  0  0  0  0  0  0  0  0  0  0  0
   39.1400   77.0820   58.6400 C   0  0  0  0  0  0  0  0  0  0  0  0
   38.8810   75.7750   58.2570 C   0  0  0  0  0  0  0  0  0  0  0  0
   39.5240   74.7520   58.8810 N   0  0  0  0  0  0  0  0  0  0  0  0
   40.4200   74.9600   59.8740 C   0  0  0  0  0  0  0  0  0  0  0  0
   40.6950   76.2240   60.2710 N   0  0  0  0  0  0  0  0  0  0  0  0
   40.2460   78.3020   59.9410 H   0  0  0  0  0  0  0  0  0  0  0  0
   38.6370   77.8910   58.1550 H   0  0  0  0  0  0  0  0  0  0  0  0
   42.4000   73.5560   60.1510 C   0  0  0  0  0  0  0  0  0  0  0  0
   41.1010   73.8580   60.5320 C   0  0  0  0  0  0  0  0  0  0  0  0
   40.4540   73.1310   61.5230 C   0  0  0  0  0  0  0  0  0  0  0  0
   41.0940   72.0760   62.1590 C   0  0  0  0  0  0  0  0  0  0  0  0
   40.8090   71.1840   63.1160 N   0  0  0  0  0  0  0  0  0  0  0  0
   41.8560   70.3640   63.3330 C   0  0  0  0  0  0  0  0  0  0  0  0
   42.8270   70.7730   62.4690 N   0  0  0  0  0  0  0  0  0  0  0  0
   42.3860   71.8200   61.7380 C   0  0  0  0  0  0  0  0  0  0  0  0
   43.0750   72.5090   60.7620 C   0  0  0  0  0  0  0  0  0  0  0  0
   42.9550   74.0850   59.3870 H   0  0  0  0  0  0  0  0  0  0  0  0
   39.4590   73.3610   61.8170 H   0  0  0  0  0  0  0  0  0  0  0  0
   39.8930   71.1440   63.6150 H   0  0  0  0  0  0  0  0  0  0  0  0
   41.9100   69.5480   64.0490 H   0  0  0  0  0  0  0  0  0  0  0  0
   44.0850   72.2400   60.4950 H   0  0  0  0  0  0  0  0  0  0  0  0
   37.9350   75.4420   57.2000 C   0  0  0  0  0  0  0  0  0  0  0  0
   37.5590   76.2390   56.1380 C   0  0  0  0  0  0  0  0  0  0  0  0
   37.9750   77.2490   56.0040 H   0  0  0  0  0  0  0  0  0  0  0  0
   36.6350   75.5680   55.3440 C   0  0  0  0  0  0  0  0  0  0  0  0
   36.2060   76.0170   54.4500 H   0  0  0  0  0  0  0  0  0  0  0  0
   36.4730   74.3620   55.9590 N   0  0  0  0  0  0  0  0  0  0  0  0
   35.8110   73.6720   55.5370 H   0  0  0  0  0  0  0  0  0  0  0  0
   37.2400   74.3160   57.0340 N   0  0  0  0  0  0  0  0  0  0  0  0
  1  7  1  0  0  0  0
  1  6  1  0  0  0  0
  2  1  2  0  0  0  0
  3  2  1  0  0  0  0
  3  4  2  0  0  0  0
  4  5  1  0  0  0  0
  5  6  2  0  0  0  0
  5 10  1  0  0  0  0
  8  2  1  0  0  0  0
  9 10  2  0  0  0  0
  9 17  1  0  0  0  0
 10 11  1  0  0  0  0
 11 19  1  0  0  0  0
 11 12  2  0  0  0  0
 12 13  1  0  0  0  0
 13 14  1  0  0  0  0
 13 20  1  0  0  0  0
 14 21  1  0  0  0  0
 15 14  2  0  0  0  0
 16 12  1  0  0  0  0
 16 15  1  0  0  0  0
 17 16  2  0  0  0  0
 18  9  1  0  0  0  0
 22 17  1  0  0  0  0
 23  3  1  0  0  0  0
 24 23  1  0  0  0  0
 25 24  1  0  0  0  0
 26 28  1  0  0  0  0
 26 24  2  0  0  0  0
 27 26  1  0  0  0  0
 28 30  1  0  0  0  0
 29 28  1  0  0  0  0
 30 23  2  0  0  0  0
M  END
>  <minimizedAffinity>
-6.25122118

$$$$

 OpenBabel03212520023D

 30 33  0  0  0  0  0  0  0  0999 V2000
   43.7020   74.4800   59.5210 C   0  0  0  0  0  0  0  0  0  0  0  0
   43.6090   73.4720   60.5100 C   0  0  0  0  0  0  0  0  0  0  0  0
   42.3380   73.0040   60.8060 C   0  0  0  0  0  0  0  0  0  0  0  0
   41.2630   73.5200   60.1510 N   0  0  0  0  0  0  0  0  0  0  0  0
   41.3850   74.4850   59.2090 C   0  0  0  0  0  0  0  0  0  0  0  0
   42.6120   74.9620   58.8980 N   0  0  0  0  0  0  0  0  0  0  0  0
   44.7140   74.8090   59.3290 H   0  0  0  0  0  0  0  0  0  0  0  0
   44.4590   73.0710   61.0210 H   0  0  0  0  0  0  0  0  0  0  0  0
   39.9000   76.3600   58.7140 C   0  0  0  0  0  0  0  0  0  0  0  0
   40.2290   75.0270   58.5170 C   0  0  0  0  0  0  0  0  0  0  0  0
   39.4770   74.2170   57.6760 C   0  0  0  0  0  0  0  0  0  0  0  0
   38.3700   74.7240   57.0080 C   0  0  0  0  0  0  0  0  0  0  0  0
   37.4430   74.2730   56.1550 N   0  0  0  0  0  0  0  0  0  0  0  0
   36.5760   75.2510   55.8270 C   0  0  0  0  0  0  0  0  0  0  0  0
   36.9930   76.3530   56.5120 N   0  0  0  0  0  0  0  0  0  0  0  0
   38.0900   76.0570   57.2430 C   0  0  0  0  0  0  0  0  0  0  0  0
   38.8010   76.9060   58.0650 C   0  0  0  0  0  0  0  0  0  0  0  0
   40.4470   77.0390   59.3560 H   0  0  0  0  0  0  0  0  0  0  0  0
   39.7270   73.1950   57.5230 H   0  0  0  0  0  0  0  0  0  0  0  0
   37.4100   73.2910   55.8020 H   0  0  0  0  0  0  0  0  0  0  0  0
   35.7240   75.1730   55.1570 H   0  0  0  0  0  0  0  0  0  0  0  0
   38.5100   77.9360   58.1920 H   0  0  0  0  0  0  0  0  0  0  0  0
   42.0960   71.9690   61.8030 C   0  0  0  0  0  0  0  0  0  0  0  0
   42.7940   70.7900   61.9630 C   0  0  0  0  0  0  0  0  0  0  0  0
   43.6400   70.5300   61.3080 H   0  0  0  0  0  0  0  0  0  0  0  0
   42.2630   70.0630   63.0240 C   0  0  0  0  0  0  0  0  0  0  0  0
   42.6660   69.0990   63.3230 H   0  0  0  0  0  0  0  0  0  0  0  0
   41.2380   70.8370   63.4840 N   0  0  0  0  0  0  0  0  0  0  0  0
   40.6780   70.4910   64.2950 H   0  0  0  0  0  0  0  0  0  0  0  0
   41.1650   71.9380   62.7560 N   0  0  0  0  0  0  0  0  0  0  0  0
  1  2  1  0  0  0  0
  2  3  2  0  0  0  0
  2  8  1  0  0  0  0
  3 23  1  0  0  0  0
  4  3  1  0  0  0  0
  5  4  2  0  0  0  0
  6  5  1  0  0  0  0
  6  1  2  0  0  0  0
  7  1  1  0  0  0  0
  9 18  1  0  0  0  0
 10  9  1  0  0  0  0
 10  5  1  0  0  0  0
 11 10  2  0  0  0  0
 12 16  2  0  0  0  0
 12 11  1  0  0  0  0
 13 12  1  0  0  0  0
 14 13  1  0  0  0  0
 14 15  2  0  0  0  0
 15 16  1  0  0  0  0
 16 17  1  0  0  0  0
 17 22  1  0  0  0  0
 17  9  2  0  0  0  0
 19 11  1  0  0  0  0
 20 13  1  0  0  0  0
 21 14  1  0  0  0  0
 23 24  1  0  0  0  0
 23 30  2  0  0  0  0
 24 26  2  0  0  0  0
 25 24  1  0  0  0  0
 26 27  1  0  0  0  0
 26 28  1  0  0  0  0
 28 29  1  0  0  0  0
 30 28  1  0  0  0  0
M  END
>  <minimizedAffinity>
-6.18048

$$$$

 OpenBabel03212520023D

 30 33  0  0  0  0  0  0  0  0999 V2000
   44.3430   74.2620   59.7160 C   0  0  0  0  0  0  0  0  0  0  0  0
   43.2830   75.1240   59.3470 C   0  0  0  0  0  0  0  0  0  0  0  0
   42.0080   74.7490   59.7400 C   0  0  0  0  0  0  0  0  0  0  0  0
   41.8330   73.5990   60.4460 N   0  0  0  0  0  0  0  0  0  0  0  0
   42.8680   72.7950   60.7840 C   0  0  0  0  0  0  0  0  0  0  0  0
   44.1250   73.1340   60.4140 N   0  0  0  0  0  0  0  0  0  0  0  0
   45.3150   74.6010   59.3850 H   0  0  0  0  0  0  0  0  0  0  0  0
   43.4280   76.0270   58.7930 H   0  0  0  0  0  0  0  0  0  0  0  0
   41.9260   71.6200   62.7060 C   0  0  0  0  0  0  0  0  0  0  0  0
   42.6690   71.5690   61.5370 C   0  0  0  0  0  0  0  0  0  0  0  0
   43.2150   70.3750   61.0830 C   0  0  0  0  0  0  0  0  0  0  0  0
   43.0310   69.1970   61.7940 C   0  0  0  0  0  0  0  0  0  0  0  0
   43.3860   67.9110   61.6780 N   0  0  0  0  0  0  0  0  0  0  0  0
   42.9030   67.1860   62.7060 C   0  0  0  0  0  0  0  0  0  0  0  0
   42.2200   68.0690   63.4870 N   0  0  0  0  0  0  0  0  0  0  0  0
   42.2830   69.3080   62.9510 C   0  0  0  0  0  0  0  0  0  0  0  0
   41.7180   70.4640   63.4460 C   0  0  0  0  0  0  0  0  0  0  0  0
   41.4760   72.5180   63.1100 H   0  0  0  0  0  0  0  0  0  0  0  0
   43.7850   70.3330   60.1860 H   0  0  0  0  0  0  0  0  0  0  0  0
   43.9610   67.5390   60.8910 H   0  0  0  0  0  0  0  0  0  0  0  0
   43.0340   66.1200   62.8730 H   0  0  0  0  0  0  0  0  0  0  0  0
   41.1470   70.4600   64.3620 H   0  0  0  0  0  0  0  0  0  0  0  0
   40.8260   75.5430   59.4280 C   0  0  0  0  0  0  0  0  0  0  0  0
   40.7790   76.8960   59.1670 C   0  0  0  0  0  0  0  0  0  0  0  0
   41.6890   77.5150   59.1740 H   0  0  0  0  0  0  0  0  0  0  0  0
   39.4680   77.2860   58.9130 C   0  0  0  0  0  0  0  0  0  0  0  0
   39.2050   78.3160   58.6830 H   0  0  0  0  0  0  0  0  0  0  0  0
   38.7440   76.1360   59.0320 N   0  0  0  0  0  0  0  0  0  0  0  0
   37.7110   76.1800   58.8830 H   0  0  0  0  0  0  0  0  0  0  0  0
   39.5590   75.1400   59.3310 N   0  0  0  0  0  0  0  0  0  0  0  0
  1  6  1  0  0  0  0
  2  1  2  0  0  0  0
  2  3  1  0  0  0  0
  3  4  2  0  0  0  0
  4  5  1  0  0  0  0
  5 10  1  0  0  0  0
  6  5  2  0  0  0  0
  7  1  1  0  0  0  0
  8  2  1  0  0  0  0
  9 18  1  0  0  0  0
  9 17  1  0  0  0  0
 10  9  2  0  0  0  0
 11 10  1  0  0  0  0
 11 12  2  0  0  0  0
 12 16  1  0  0  0  0
 13 12  1  0  0  0  0
 13 14  1  0  0  0  0
 14 21  1  0  0  0  0
 14 15  2  0  0  0  0
 16 17  2  0  0  0  0
 16 15  1  0  0  0  0
 17 22  1  0  0  0  0
 19 11  1  0  0  0  0
 20 13  1  0  0  0  0
 23  3  1  0  0  0  0
 24 25  1  0  0  0  0
 24 23  1  0  0  0  0
 26 28  1  0  0  0  0
 26 24  2  0  0  0  0
 27 26  1  0  0  0  0
 28 30  1  0  0  0  0
 29 28  1  0  0  0  0
 30 23  2  0  0  0  0
M  END
>  <minimizedAffinity>
-5.83939314

$$$$

 OpenBabel03212520023D

 30 33  0  0  0  0  0  0  0  0999 V2000
   43.8680   72.7100   59.9230 C   0  0  0  0  0  0  0  0  0  0  0  0
   42.9030   73.7330   60.0860 C   0  0  0  0  0  0  0  0  0  0  0  0
   41.6350   73.3370   60.4830 C   0  0  0  0  0  0  0  0  0  0  0  0
   41.3780   72.0180   60.6930 N   0  0  0  0  0  0  0  0  0  0  0  0
   42.3220   71.0630   60.5280 C   0  0  0  0  0  0  0  0  0  0  0  0
   43.5700   71.4170   60.1420 N   0  0  0  0  0  0  0  0  0  0  0  0
   44.8380   73.0720   59.6130 H   0  0  0  0  0  0  0  0  0  0  0  0
   43.1130   74.7680   59.9200 H   0  0  0  0  0  0  0  0  0  0  0  0
   41.7740   68.8460   59.6620 C   0  0  0  0  0  0  0  0  0  0  0  0
   42.0350   69.6570   60.7560 C   0  0  0  0  0  0  0  0  0  0  0  0
   42.0260   69.1470   62.0480 C   0  0  0  0  0  0  0  0  0  0  0  0
   41.7530   67.8060   62.2780 C   0  0  0  0  0  0  0  0  0  0  0  0
   41.6590   66.9870   63.3330 N   0  0  0  0  0  0  0  0  0  0  0  0
   41.3570   65.7340   62.9410 C   0  0  0  0  0  0  0  0  0  0  0  0
   41.2620   65.7880   61.5830 N   0  0  0  0  0  0  0  0  0  0  0  0
   41.5000   67.0460   61.1510 C   0  0  0  0  0  0  0  0  0  0  0  0
   41.4960   67.4980   59.8490 C   0  0  0  0  0  0  0  0  0  0  0  0
   41.7660   69.1840   58.6340 H   0  0  0  0  0  0  0  0  0  0  0  0
   42.2270   69.7670   62.8880 H   0  0  0  0  0  0  0  0  0  0  0  0
   41.8030   67.2960   64.3200 H   0  0  0  0  0  0  0  0  0  0  0  0
   41.2180   64.8640   63.5790 H   0  0  0  0  0  0  0  0  0  0  0  0
   41.2870   66.8330   59.0260 H   0  0  0  0  0  0  0  0  0  0  0  0
   40.5470   74.2850   60.6880 C   0  0  0  0  0  0  0  0  0  0  0  0
   40.4900   75.5920   60.2530 C   0  0  0  0  0  0  0  0  0  0  0  0
   41.3140   76.0430   59.6790 H   0  0  0  0  0  0  0  0  0  0  0  0
   39.2880   76.1720   60.6460 C   0  0  0  0  0  0  0  0  0  0  0  0
   39.0370   77.2030   60.4050 H   0  0  0  0  0  0  0  0  0  0  0  0
   38.6410   75.1820   61.3240 N   0  0  0  0  0  0  0  0  0  0  0  0
   37.6970   75.3860   61.7230 H   0  0  0  0  0  0  0  0  0  0  0  0
   39.3950   74.0970   61.3320 N   0  0  0  0  0  0  0  0  0  0  0  0
  1  2  2  0  0  0  0
  1  6  1  0  0  0  0
  2  3  1  0  0  0  0
  3 23  1  0  0  0  0
  3  4  2  0  0  0  0
  5  4  1  0  0  0  0
  5 10  1  0  0  0  0
  6  5  2  0  0  0  0
  7  1  1  0  0  0  0
  8  2  1  0  0  0  0
  9 17  2  0  0  0  0
  9 10  1  0  0  0  0
 10 11  2  0  0  0  0
 11 12  1  0  0  0  0
 11 19  1  0  0  0  0
 12 13  1  0  0  0  0
 13 20  1  0  0  0  0
 14 13  1  0  0  0  0
 14 21  1  0  0  0  0
 15 14  2  0  0  0  0
 16 15  1  0  0  0  0
 16 12  2  0  0  0  0
 17 16  1  0  0  0  0
 18  9  1  0  0  0  0
 22 17  1  0  0  0  0
 23 30  2  0  0  0  0
 24 26  2  0  0  0  0
 24 23  1  0  0  0  0
 25 24  1  0  0  0  0
 26 28  1  0  0  0  0
 27 26  1  0  0  0  0
 28 30  1  0  0  0  0
 28 29  1  0  0  0  0
M  END
>  <minimizedAffinity>
-5.69431448

$$$$

 OpenBabel03212520023D

 30 33  0  0  0  0  0  0  0  0999 V2000
   41.9430   72.1820   57.9340 C   0  0  0  0  0  0  0  0  0  0  0  0
   41.2220   73.3000   58.4170 C   0  0  0  0  0  0  0  0  0  0  0  0
   40.8450   73.2700   59.7510 C   0  0  0  0  0  0  0  0  0  0  0  0
   41.1740   72.1960   60.5180 N   0  0  0  0  0  0  0  0  0  0  0  0
   41.8640   71.1410   60.0250 C   0  0  0  0  0  0  0  0  0  0  0  0
   42.2470   71.1410   58.7270 N   0  0  0  0  0  0  0  0  0  0  0  0
   42.2110   72.2570   56.8890 H   0  0  0  0  0  0  0  0  0  0  0  0
   40.9670   74.1420   57.8090 H   0  0  0  0  0  0  0  0  0  0  0  0
   42.8730   70.2220   62.0520 C   0  0  0  0  0  0  0  0  0  0  0  0
   42.2090   69.9990   60.8550 C   0  0  0  0  0  0  0  0  0  0  0  0
   41.8730   68.7140   60.4470 C   0  0  0  0  0  0  0  0  0  0  0  0
   42.1970   67.6150   61.2310 C   0  0  0  0  0  0  0  0  0  0  0  0
   42.0470   66.2870   61.1740 N   0  0  0  0  0  0  0  0  0  0  0  0
   42.5800   65.6970   62.2620 C   0  0  0  0  0  0  0  0  0  0  0  0
   43.0790   66.7120   63.0210 N   0  0  0  0  0  0  0  0  0  0  0  0
   42.8580   67.8980   62.4120 C   0  0  0  0  0  0  0  0  0  0  0  0
   43.2140   69.1510   62.8650 C   0  0  0  0  0  0  0  0  0  0  0  0
   43.1600   71.1980   62.4220 H   0  0  0  0  0  0  0  0  0  0  0  0
   41.3640   68.5400   59.5300 H   0  0  0  0  0  0  0  0  0  0  0  0
   41.5780   65.7910   60.3840 H   0  0  0  0  0  0  0  0  0  0  0  0
   42.6040   64.6330   62.4840 H   0  0  0  0  0  0  0  0  0  0  0  0
   43.7320   69.2800   63.8030 H   0  0  0  0  0  0  0  0  0  0  0  0
   40.1000   74.3530   60.3790 C   0  0  0  0  0  0  0  0  0  0  0  0
   40.3230   75.7070   60.2390 C   0  0  0  0  0  0  0  0  0  0  0  0
   41.1320   76.0920   59.5990 H   0  0  0  0  0  0  0  0  0  0  0  0
   39.4030   76.4220   60.9980 C   0  0  0  0  0  0  0  0  0  0  0  0
   39.4010   77.5100   61.0310 H   0  0  0  0  0  0  0  0  0  0  0  0
   38.6350   75.4630   61.5890 N   0  0  0  0  0  0  0  0  0  0  0  0
   37.8590   75.7660   62.2220 H   0  0  0  0  0  0  0  0  0  0  0  0
   39.0620   74.2710   61.2120 N   0  0  0  0  0  0  0  0  0  0  0  0
  1  2  2  0  0  0  0
  1  6  1  0  0  0  0
  2  3  1  0  0  0  0
  3 23  1  0  0  0  0
  3  4  2  0  0  0  0
  5  4  1  0  0  0  0
  5 10  1  0  0  0  0
  6  5  2  0  0  0  0
  7  1  1  0  0  0  0
  8  2  1  0  0  0  0
  9 18  1  0  0  0  0
  9 17  1  0  0  0  0
 10  9  2  0  0  0  0
 11 10  1  0  0  0  0
 11 12  2  0  0  0  0
 12 16  1  0  0  0  0
 13 12  1  0  0  0  0
 13 14  1  0  0  0  0
 14 21  1  0  0  0  0
 14 15  2  0  0  0  0
 16 17  2  0  0  0  0
 16 15  1  0  0  0  0
 17 22  1  0  0  0  0
 19 11  1  0  0  0  0
 20 13  1  0  0  0  0
 23 30  2  0  0  0  0
 24 23  1  0  0  0  0
 24 26  2  0  0  0  0
 25 24  1  0  0  0  0
 26 27  1  0  0  0  0
 26 28  1  0  0  0  0
 28 29  1  0  0  0  0
 30 28  1  0  0  0  0
M  END
>  <minimizedAffinity>
-5.57391739

$$$$

 OpenBabel03212520023D

 30 33  0  0  0  0  0  0  0  0999 V2000
   42.3450   76.0780   58.9210 C   0  0  0  0  0  0  0  0  0  0  0  0
   41.1130   76.2060   58.2360 C   0  0  0  0  0  0  0  0  0  0  0  0
   40.2050   75.1690   58.3860 C   0  0  0  0  0  0  0  0  0  0  0  0
   40.5280   74.1010   59.1640 N   0  0  0  0  0  0  0  0  0  0  0  0
   41.7160   74.0080   59.8070 C   0  0  0  0  0  0  0  0  0  0  0  0
   42.6230   75.0040   59.6800 N   0  0  0  0  0  0  0  0  0  0  0  0
   43.0150   76.9130   58.7690 H   0  0  0  0  0  0  0  0  0  0  0  0
   40.8650   77.0490   57.6260 H   0  0  0  0  0  0  0  0  0  0  0  0
   41.6310   72.8520   61.9560 C   0  0  0  0  0  0  0  0  0  0  0  0
   42.0490   72.8620   60.6350 C   0  0  0  0  0  0  0  0  0  0  0  0
   42.7710   71.8020   60.1000 C   0  0  0  0  0  0  0  0  0  0  0  0
   43.0950   70.7010   60.8810 C   0  0  0  0  0  0  0  0  0  0  0  0
   43.7470   69.5420   60.7270 N   0  0  0  0  0  0  0  0  0  0  0  0
   43.7480   68.8360   61.8750 C   0  0  0  0  0  0  0  0  0  0  0  0
   43.0640   69.5980   62.7730 N   0  0  0  0  0  0  0  0  0  0  0  0
   42.6530   70.7460   62.1900 C   0  0  0  0  0  0  0  0  0  0  0  0
   41.9340   71.7690   62.7710 C   0  0  0  0  0  0  0  0  0  0  0  0
   41.0660   73.6460   62.4290 H   0  0  0  0  0  0  0  0  0  0  0  0
   43.0930   71.8070   59.0870 H   0  0  0  0  0  0  0  0  0  0  0  0
   44.1910   69.2430   59.8310 H   0  0  0  0  0  0  0  0  0  0  0  0
   44.2010   67.8630   62.0440 H   0  0  0  0  0  0  0  0  0  0  0  0
   41.6280   71.7220   63.8040 H   0  0  0  0  0  0  0  0  0  0  0  0
   38.9000   75.1700   57.7380 C   0  0  0  0  0  0  0  0  0  0  0  0
   38.4580   76.0360   56.7600 C   0  0  0  0  0  0  0  0  0  0  0  0
   39.1010   76.8400   56.3720 H   0  0  0  0  0  0  0  0  0  0  0  0
   37.1540   75.7160   56.3960 C   0  0  0  0  0  0  0  0  0  0  0  0
   36.6120   76.2760   55.6360 H   0  0  0  0  0  0  0  0  0  0  0  0
   36.8370   74.6460   57.1790 N   0  0  0  0  0  0  0  0  0  0  0  0
   35.8870   74.2220   57.0820 H   0  0  0  0  0  0  0  0  0  0  0  0
   37.8700   74.3510   57.9490 N   0  0  0  0  0  0  0  0  0  0  0  0
  1  6  1  0  0  0  0
  2  3  1  0  0  0  0
  2  1  2  0  0  0  0
  3  4  2  0  0  0  0
  4  5  1  0  0  0  0
  5 10  1  0  0  0  0
  6  5  2  0  0  0  0
  7  1  1  0  0  0  0
  8  2  1  0  0  0  0
  9 18  1  0  0  0  0
  9 17  1  0  0  0  0
 10  9  2  0  0  0  0
 11 10  1  0  0  0  0
 11 12  2  0  0  0  0
 12 16  1  0  0  0  0
 13 12  1  0  0  0  0
 13 14  1  0  0  0  0
 14 21  1  0  0  0  0
 14 15  2  0  0  0  0
 16 17  2  0  0  0  0
 16 15  1  0  0  0  0
 17 22  1  0  0  0  0
 19 11  1  0  0  0  0
 20 13  1  0  0  0  0
 23 30  2  0  0  0  0
 23  3  1  0  0  0  0
 24 23  1  0  0  0  0
 25 24  1  0  0  0  0
 26 24  2  0  0  0  0
 26 28  1  0  0  0  0
 27 26  1  0  0  0  0
 28 30  1  0  0  0  0
 29 28  1  0  0  0  0
M  END
>  <minimizedAffinity>
-5.38934231

$$$$

 OpenBabel03212520023D

 30 33  0  0  0  0  0  0  0  0999 V2000
   39.0750   76.8940   55.8480 C   0  0  0  0  0  0  0  0  0  0  0  0
   38.9120   76.8120   57.2520 C   0  0  0  0  0  0  0  0  0  0  0  0
   38.9610   75.5450   57.8120 C   0  0  0  0  0  0  0  0  0  0  0  0
   39.1570   74.4630   57.0120 N   0  0  0  0  0  0  0  0  0  0  0  0
   39.3090   74.5740   55.6710 C   0  0  0  0  0  0  0  0  0  0  0  0
   39.2660   75.7970   55.0940 N   0  0  0  0  0  0  0  0  0  0  0  0
   39.0280   77.9030   55.4630 H   0  0  0  0  0  0  0  0  0  0  0  0
   38.7590   77.6670   57.8750 H   0  0  0  0  0  0  0  0  0  0  0  0
   39.4670   73.5690   53.4500 C   0  0  0  0  0  0  0  0  0  0  0  0
   39.5170   73.4100   54.8270 C   0  0  0  0  0  0  0  0  0  0  0  0
   39.7640   72.1690   55.3990 C   0  0  0  0  0  0  0  0  0  0  0  0
   39.9650   71.0490   54.6030 C   0  0  0  0  0  0  0  0  0  0  0  0
   40.2170   69.7470   54.7810 N   0  0  0  0  0  0  0  0  0  0  0  0
   40.3200   69.1120   53.5970 C   0  0  0  0  0  0  0  0  0  0  0  0
   40.1220   70.0720   52.6500 N   0  0  0  0  0  0  0  0  0  0  0  0
   39.9030   71.2670   53.2390 C   0  0  0  0  0  0  0  0  0  0  0  0
   39.6630   72.4750   52.6190 C   0  0  0  0  0  0  0  0  0  0  0  0
   39.2790   74.5090   52.9470 H   0  0  0  0  0  0  0  0  0  0  0  0
   39.8030   72.0450   56.4540 H   0  0  0  0  0  0  0  0  0  0  0  0
   40.3160   69.3000   55.7190 H   0  0  0  0  0  0  0  0  0  0  0  0
   40.5190   68.0560   53.4360 H   0  0  0  0  0  0  0  0  0  0  0  0
   39.6310   72.5550   51.5440 H   0  0  0  0  0  0  0  0  0  0  0  0
   38.8090   75.3150   59.2430 C   0  0  0  0  0  0  0  0  0  0  0  0
   38.3290   74.1760   59.8560 C   0  0  0  0  0  0  0  0  0  0  0  0
   38.0070   73.3010   59.2710 H   0  0  0  0  0  0  0  0  0  0  0  0
   38.3360   74.3410   61.2380 C   0  0  0  0  0  0  0  0  0  0  0  0
   37.9970   73.5600   61.9150 H   0  0  0  0  0  0  0  0  0  0  0  0
   38.8280   75.5990   61.4250 N   0  0  0  0  0  0  0  0  0  0  0  0
   38.9270   75.9550   62.4030 H   0  0  0  0  0  0  0  0  0  0  0  0
   39.0940   76.1410   60.2500 N   0  0  0  0  0  0  0  0  0  0  0  0
  1  2  1  0  0  0  0
  2  3  2  0  0  0  0
  2  8  1  0  0  0  0
  3 23  1  0  0  0  0
  4  3  1  0  0  0  0
  5  4  2  0  0  0  0
  6  5  1  0  0  0  0
  6  1  2  0  0  0  0
  7  1  1  0  0  0  0
  9 10  1  0  0  0  0
 10 11  2  0  0  0  0
 10  5  1  0  0  0  0
 11 19  1  0  0  0  0
 12 13  1  0  0  0  0
 12 11  1  0  0  0  0
 13 20  1  0  0  0  0
 14 13  1  0  0  0  0
 15 16  1  0  0  0  0
 15 14  2  0  0  0  0
 16 12  2  0  0  0  0
 17 16  1  0  0  0  0
 17  9  2  0  0  0  0
 18  9  1  0  0  0  0
 21 14  1  0  0  0  0
 22 17  1  0  0  0  0
 23 24  1  0  0  0  0
 23 30  2  0  0  0  0
 24 26  2  0  0  0  0
 25 24  1  0  0  0  0
 26 28  1  0  0  0  0
 26 27  1  0  0  0  0
 28 29  1  0  0  0  0
 30 28  1  0  0  0  0
M  END
>  <minimizedAffinity>
-5.33695602

$$$$

 OpenBabel03212520023D

 30 33  0  0  0  0  0  0  0  0999 V2000
   42.9600   72.0260   58.0100 C   0  0  0  0  0  0  0  0  0  0  0  0
   42.0550   73.0460   58.3890 C   0  0  0  0  0  0  0  0  0  0  0  0
   41.0750   72.7010   59.3060 C   0  0  0  0  0  0  0  0  0  0  0  0
   41.0250   71.4310   59.7910 N   0  0  0  0  0  0  0  0  0  0  0  0
   41.9060   70.4770   59.4090 C   0  0  0  0  0  0  0  0  0  0  0  0
   42.8750   70.7820   58.5150 N   0  0  0  0  0  0  0  0  0  0  0  0
   43.7030   72.3480   57.2940 H   0  0  0  0  0  0  0  0  0  0  0  0
   42.1010   74.0430   58.0040 H   0  0  0  0  0  0  0  0  0  0  0  0
   41.6990   68.0710   59.0430 C   0  0  0  0  0  0  0  0  0  0  0  0
   41.8420   69.1240   59.9330 C   0  0  0  0  0  0  0  0  0  0  0  0
   41.9250   68.9030   61.3030 C   0  0  0  0  0  0  0  0  0  0  0  0
   41.8660   67.6140   61.8160 C   0  0  0  0  0  0  0  0  0  0  0  0
   41.9100   67.0320   63.0200 N   0  0  0  0  0  0  0  0  0  0  0  0
   41.8010   65.6930   62.9100 C   0  0  0  0  0  0  0  0  0  0  0  0
   41.6860   65.4450   61.5750 N   0  0  0  0  0  0  0  0  0  0  0  0
   41.7220   66.6050   60.8830 C   0  0  0  0  0  0  0  0  0  0  0  0
   41.6360   66.7670   59.5160 C   0  0  0  0  0  0  0  0  0  0  0  0
   41.6290   68.1800   57.9680 H   0  0  0  0  0  0  0  0  0  0  0  0
   42.0350   69.7080   61.9870 H   0  0  0  0  0  0  0  0  0  0  0  0
   42.0130   67.5590   63.9150 H   0  0  0  0  0  0  0  0  0  0  0  0
   41.8050   64.9670   63.7180 H   0  0  0  0  0  0  0  0  0  0  0  0
   41.5240   65.9200   58.8580 H   0  0  0  0  0  0  0  0  0  0  0  0
   40.0790   73.6520   59.7830 C   0  0  0  0  0  0  0  0  0  0  0  0
   40.1730   74.4710   60.8890 C   0  0  0  0  0  0  0  0  0  0  0  0
   41.0660   74.4660   61.5320 H   0  0  0  0  0  0  0  0  0  0  0  0
   39.0170   75.2350   61.0150 C   0  0  0  0  0  0  0  0  0  0  0  0
   38.8830   75.9510   61.8220 H   0  0  0  0  0  0  0  0  0  0  0  0
   38.2410   74.8490   59.9620 N   0  0  0  0  0  0  0  0  0  0  0  0
   37.3030   75.2950   59.8450 H   0  0  0  0  0  0  0  0  0  0  0  0
   38.8820   73.9290   59.2640 N   0  0  0  0  0  0  0  0  0  0  0  0
  1  2  2  0  0  0  0
  1  6  1  0  0  0  0
  2  3  1  0  0  0  0
  3 23  1  0  0  0  0
  3  4  2  0  0  0  0
  5  4  1  0  0  0  0
  5 10  1  0  0  0  0
  6  5  2  0  0  0  0
  7  1  1  0  0  0  0
  8  2  1  0  0  0  0
  9 17  2  0  0  0  0
  9 10  1  0  0  0  0
 10 11  2  0  0  0  0
 11 12  1  0  0  0  0
 11 19  1  0  0  0  0
 12 13  1  0  0  0  0
 13 20  1  0  0  0  0
 14 13  1  0  0  0  0
 14 21  1  0  0  0  0
 15 14  2  0  0  0  0
 16 15  1  0  0  0  0
 16 12  2  0  0  0  0
 17 16  1  0  0  0  0
 18  9  1  0  0  0  0
 22 17  1  0  0  0  0
 23 24  1  0  0  0  0
 24 26  2  0  0  0  0
 24 25  1  0  0  0  0
 26 27  1  0  0  0  0
 28 26  1  0  0  0  0
 29 28  1  0  0  0  0
 30 23  2  0  0  0  0
 30 28  1  0  0  0  0
M  END
>  <minimizedAffinity>
-5.30142927

$$$$

 OpenBabel03212520023D

 30 33  0  0  0  0  0  0  0  0999 V2000
   42.3560   70.9980   57.5980 C   0  0  0  0  0  0  0  0  0  0  0  0
   42.5540   70.6070   58.9440 C   0  0  0  0  0  0  0  0  0  0  0  0
   41.7290   71.1940   59.8920 C   0  0  0  0  0  0  0  0  0  0  0  0
   40.7910   72.0960   59.4990 N   0  0  0  0  0  0  0  0  0  0  0  0
   40.6260   72.4500   58.2030 C   0  0  0  0  0  0  0  0  0  0  0  0
   41.4150   71.8950   57.2540 N   0  0  0  0  0  0  0  0  0  0  0  0
   43.0240   70.5110   56.9010 H   0  0  0  0  0  0  0  0  0  0  0  0
   43.2930   69.8960   59.2450 H   0  0  0  0  0  0  0  0  0  0  0  0
   39.1370   74.3110   58.7390 C   0  0  0  0  0  0  0  0  0  0  0  0
   39.6200   73.4160   57.7960 C   0  0  0  0  0  0  0  0  0  0  0  0
   39.1610   73.4350   56.4850 C   0  0  0  0  0  0  0  0  0  0  0  0
   38.2000   74.3530   56.0850 C   0  0  0  0  0  0  0  0  0  0  0  0
   37.5420   74.6630   54.9610 N   0  0  0  0  0  0  0  0  0  0  0  0
   36.6920   75.6880   55.1700 C   0  0  0  0  0  0  0  0  0  0  0  0
   36.8380   76.0210   56.4830 N   0  0  0  0  0  0  0  0  0  0  0  0
   37.7550   75.2180   57.0670 C   0  0  0  0  0  0  0  0  0  0  0  0
   38.1760   75.2450   58.3800 C   0  0  0  0  0  0  0  0  0  0  0  0
   39.4550   74.3450   59.7730 H   0  0  0  0  0  0  0  0  0  0  0  0
   39.5300   72.7500   55.7600 H   0  0  0  0  0  0  0  0  0  0  0  0
   37.6810   74.1660   54.0530 H   0  0  0  0  0  0  0  0  0  0  0  0
   36.0310   76.1490   54.4410 H   0  0  0  0  0  0  0  0  0  0  0  0
   37.7730   75.9570   59.0820 H   0  0  0  0  0  0  0  0  0  0  0  0
   41.8240   70.8830   61.3120 C   0  0  0  0  0  0  0  0  0  0  0  0
   42.6460   69.9480   61.9060 C   0  0  0  0  0  0  0  0  0  0  0  0
   43.3360   69.3300   61.3120 H   0  0  0  0  0  0  0  0  0  0  0  0
   42.4460   69.9450   63.2830 C   0  0  0  0  0  0  0  0  0  0  0  0
   42.9960   69.2810   63.9460 H   0  0  0  0  0  0  0  0  0  0  0  0
   41.4900   70.8960   63.4870 N   0  0  0  0  0  0  0  0  0  0  0  0
   41.1690   71.0770   64.4650 H   0  0  0  0  0  0  0  0  0  0  0  0
   41.1470   71.4240   62.3250 N   0  0  0  0  0  0  0  0  0  0  0  0
  1  2  1  0  0  0  0
  2  8  1  0  0  0  0
  2  3  2  0  0  0  0
  3 23  1  0  0  0  0
  4  3  1  0  0  0  0
  5  4  2  0  0  0  0
  6  1  2  0  0  0  0
  6  5  1  0  0  0  0
  7  1  1  0  0  0  0
  9 18  1  0  0  0  0
 10  5  1  0  0  0  0
 10  9  2  0  0  0  0
 11 10  1  0  0  0  0
 12 11  2  0  0  0  0
 12 16  1  0  0  0  0
 13 14  1  0  0  0  0
 13 12  1  0  0  0  0
 14 15  2  0  0  0  0
 15 16  1  0  0  0  0
 16 17  2  0  0  0  0
 17  9  1  0  0  0  0
 17 22  1  0  0  0  0
 19 11  1  0  0  0  0
 20 13  1  0  0  0  0
 21 14  1  0  0  0  0
 23 24  1  0  0  0  0
 23 30  2  0  0  0  0
 24 26  2  0  0  0  0
 25 24  1  0  0  0  0
 26 28  1  0  0  0  0
 26 27  1  0  0  0  0
 28 29  1  0  0  0  0
 30 28  1  0  0  0  0
M  END
>  <minimizedAffinity>
-5.25812149

$$$$
