
 OpenBabel03212521023D

 27 29  0  0  0  0  0  0  0  0999 V2000
   42.4010   84.4780   62.3810 C   0  0  0  0  0  0  0  0  0  0  0  0
   42.3290   84.5160   63.7620 C   0  0  0  0  0  0  0  0  0  0  0  0
   41.1820   84.1470   64.4390 C   0  0  0  0  0  0  0  0  0  0  0  0
   40.0620   83.7260   63.7100 C   0  0  0  0  0  0  0  0  0  0  0  0
   40.1420   83.6890   62.3040 C   0  0  0  0  0  0  0  0  0  0  0  0
   41.2970   84.0610   61.6550 C   0  0  0  0  0  0  0  0  0  0  0  0
   43.2080   84.8440   64.3020 H   0  0  0  0  0  0  0  0  0  0  0  0
   41.1250   84.1770   65.5170 H   0  0  0  0  0  0  0  0  0  0  0  0
   39.1630   83.4380   64.2500 H   0  0  0  0  0  0  0  0  0  0  0  0
   39.2680   83.3610   61.7600 H   0  0  0  0  0  0  0  0  0  0  0  0
   45.7180   84.3220   60.8350 C   0  0  0  0  0  0  0  0  0  0  0  0
   45.9670   85.6440   60.4750 C   0  0  0  0  0  0  0  0  0  0  0  0
   44.9810   86.5880   60.7690 C   0  0  0  0  0  0  0  0  0  0  0  0
   43.8400   86.1760   61.3860 N   0  0  0  0  0  0  0  0  0  0  0  0
   43.6370   84.8750   61.7220 C   0  0  0  0  0  0  0  0  0  0  0  0
   44.5700   83.9560   61.4470 N   0  0  0  0  0  0  0  0  0  0  0  0
   46.4500   83.5480   60.6310 H   0  0  0  0  0  0  0  0  0  0  0  0
   46.8970   85.9260   59.9820 H   0  0  0  0  0  0  0  0  0  0  0  0
   45.1450   87.6290   60.5000 H   0  0  0  0  0  0  0  0  0  0  0  0
   41.3200   84.0040   60.2030 C   0  0  0  0  0  0  0  0  0  0  0  0
   41.7150   83.1290   59.2050 C   0  0  0  0  0  0  0  0  0  0  0  0
   42.1450   82.1860   59.5320 H   0  0  0  0  0  0  0  0  0  0  0  0
   41.4300   83.7460   57.9970 C   0  0  0  0  0  0  0  0  0  0  0  0
   41.6600   83.2330   57.0850 H   0  0  0  0  0  0  0  0  0  0  0  0
   40.8820   84.9550   58.2790 N   0  0  0  0  0  0  0  0  0  0  0  0
   40.5790   85.6160   57.5210 H   0  0  0  0  0  0  0  0  0  0  0  0
   40.8120   85.1190   59.5980 N   0  0  0  0  0  0  0  0  0  0  0  0
  1  2  1  0  0  0  0
  2  7  1  0  0  0  0
  2  3  2  0  0  0  0
  3  8  1  0  0  0  0
  4  9  1  0  0  0  0
  4  3  1  0  0  0  0
  5  4  2  0  0  0  0
  6  5  1  0  0  0  0
  6  1  2  0  0  0  0
 10  5  1  0  0  0  0
 11 16  1  0  0  0  0
 12 13  1  0  0  0  0
 12 11  2  0  0  0  0
 13 14  2  0  0  0  0
 14 15  1  0  0  0  0
 15  1  1  0  0  0  0
 16 15  2  0  0  0  0
 17 11  1  0  0  0  0
 18 12  1  0  0  0  0
 19 13  1  0  0  0  0
 20  6  1  0  0  0  0
 21 22  1  0  0  0  0
 21 20  1  0  0  0  0
 23 25  1  0  0  0  0
 23 21  2  0  0  0  0
 24 23  1  0  0  0  0
 25 27  1  0  0  0  0
 26 25  1  0  0  0  0
 27 20  2  0  0  0  0
M  END
>  <minimizedAffinity>
-4.76968575

>  <minimizedRMSD>
2.26473904

$$$$
