
 OpenBabel03212521023D

 27 29  0  0  0  0  0  0  0  0999 V2000
   42.4020   84.4780   62.3810 C   0  0  0  0  0  0  0  0  0  0  0  0
   42.3290   84.5160   63.7620 C   0  0  0  0  0  0  0  0  0  0  0  0
   41.1820   84.1480   64.4390 C   0  0  0  0  0  0  0  0  0  0  0  0
   40.0620   83.7260   63.7100 C   0  0  0  0  0  0  0  0  0  0  0  0
   40.1420   83.6900   62.3050 C   0  0  0  0  0  0  0  0  0  0  0  0
   41.2980   84.0610   61.6550 C   0  0  0  0  0  0  0  0  0  0  0  0
   43.2080   84.8450   64.3020 H   0  0  0  0  0  0  0  0  0  0  0  0
   41.1260   84.1780   65.5170 H   0  0  0  0  0  0  0  0  0  0  0  0
   39.1640   83.4380   64.2500 H   0  0  0  0  0  0  0  0  0  0  0  0
   39.2690   83.3610   61.7610 H   0  0  0  0  0  0  0  0  0  0  0  0
   45.7180   84.3220   60.8350 C   0  0  0  0  0  0  0  0  0  0  0  0
   45.9670   85.6440   60.4740 C   0  0  0  0  0  0  0  0  0  0  0  0
   44.9810   86.5890   60.7690 C   0  0  0  0  0  0  0  0  0  0  0  0
   43.8400   86.1760   61.3860 N   0  0  0  0  0  0  0  0  0  0  0  0
   43.6370   84.8750   61.7220 C   0  0  0  0  0  0  0  0  0  0  0  0
   44.5700   83.9560   61.4470 N   0  0  0  0  0  0  0  0  0  0  0  0
   46.4500   83.5480   60.6300 H   0  0  0  0  0  0  0  0  0  0  0  0
   46.8960   85.9260   59.9820 H   0  0  0  0  0  0  0  0  0  0  0  0
   45.1450   87.6290   60.5000 H   0  0  0  0  0  0  0  0  0  0  0  0
   41.3200   84.0040   60.2040 C   0  0  0  0  0  0  0  0  0  0  0  0
   41.7130   83.1280   59.2050 C   0  0  0  0  0  0  0  0  0  0  0  0
   42.1420   82.1830   59.5330 H   0  0  0  0  0  0  0  0  0  0  0  0
   41.4300   83.7450   57.9970 C   0  0  0  0  0  0  0  0  0  0  0  0
   41.6590   83.2310   57.0840 H   0  0  0  0  0  0  0  0  0  0  0  0
   40.8840   84.9550   58.2790 N   0  0  0  0  0  0  0  0  0  0  0  0
   40.5810   85.6170   57.5220 H   0  0  0  0  0  0  0  0  0  0  0  0
   40.8140   85.1190   59.5980 N   0  0  0  0  0  0  0  0  0  0  0  0
  1  2  1  0  0  0  0
  2  7  1  0  0  0  0
  2  3  2  0  0  0  0
  3  8  1  0  0  0  0
  4  9  1  0  0  0  0
  4  3  1  0  0  0  0
  5  4  2  0  0  0  0
  6  5  1  0  0  0  0
  6  1  2  0  0  0  0
 10  5  1  0  0  0  0
 11 16  1  0  0  0  0
 12 13  1  0  0  0  0
 12 11  2  0  0  0  0
 13 14  2  0  0  0  0
 14 15  1  0  0  0  0
 15  1  1  0  0  0  0
 16 15  2  0  0  0  0
 17 11  1  0  0  0  0
 18 12  1  0  0  0  0
 19 13  1  0  0  0  0
 20  6  1  0  0  0  0
 21 22  1  0  0  0  0
 21 20  1  0  0  0  0
 23 25  1  0  0  0  0
 23 21  2  0  0  0  0
 24 23  1  0  0  0  0
 25 27  1  0  0  0  0
 26 25  1  0  0  0  0
 27 20  2  0  0  0  0
M  END
>  <minimizedAffinity>
-4.76966047

>  <minimizedRMSD>
2.29162788

$$$$
