
 OpenBabel03212521023D

 27 29  0  0  0  0  0  0  0  0999 V2000
   42.2140   84.2630   62.2850 C   0  0  0  0  0  0  0  0  0  0  0  0
   42.4800   84.6540   63.5860 C   0  0  0  0  0  0  0  0  0  0  0  0
   41.5850   84.4180   64.6120 C   0  0  0  0  0  0  0  0  0  0  0  0
   40.3760   83.7660   64.3300 C   0  0  0  0  0  0  0  0  0  0  0  0
   40.1120   83.3710   63.0050 C   0  0  0  0  0  0  0  0  0  0  0  0
   41.0210   83.6180   62.0010 C   0  0  0  0  0  0  0  0  0  0  0  0
   43.4200   85.1550   63.7770 H   0  0  0  0  0  0  0  0  0  0  0  0
   41.7920   84.7240   65.6260 H   0  0  0  0  0  0  0  0  0  0  0  0
   39.6780   83.5850   65.1430 H   0  0  0  0  0  0  0  0  0  0  0  0
   39.1750   82.8690   62.8080 H   0  0  0  0  0  0  0  0  0  0  0  0
   45.1070   83.9230   60.0640 C   0  0  0  0  0  0  0  0  0  0  0  0
   45.0410   85.0680   59.2740 C   0  0  0  0  0  0  0  0  0  0  0  0
   43.9900   85.9570   59.5140 C   0  0  0  0  0  0  0  0  0  0  0  0
   43.0940   85.6650   60.4950 N   0  0  0  0  0  0  0  0  0  0  0  0
   43.1950   84.5350   61.2450 C   0  0  0  0  0  0  0  0  0  0  0  0
   44.1940   83.6720   61.0290 N   0  0  0  0  0  0  0  0  0  0  0  0
   45.9020   83.2000   59.9200 H   0  0  0  0  0  0  0  0  0  0  0  0
   45.7820   85.2590   58.4990 H   0  0  0  0  0  0  0  0  0  0  0  0
   43.9110   86.8600   58.9130 H   0  0  0  0  0  0  0  0  0  0  0  0
   40.6920   83.1870   60.6530 C   0  0  0  0  0  0  0  0  0  0  0  0
   40.9980   82.1450   59.7930 C   0  0  0  0  0  0  0  0  0  0  0  0
   41.6810   81.3900   60.1730 H   0  0  0  0  0  0  0  0  0  0  0  0
   40.3010   82.3790   58.6180 C   0  0  0  0  0  0  0  0  0  0  0  0
   40.3960   81.6830   57.8080 H   0  0  0  0  0  0  0  0  0  0  0  0
   39.6020   83.5310   58.7840 N   0  0  0  0  0  0  0  0  0  0  0  0
   38.9900   83.9220   58.0260 H   0  0  0  0  0  0  0  0  0  0  0  0
   39.8300   84.0230   60.0010 N   0  0  0  0  0  0  0  0  0  0  0  0
  1  2  1  0  0  0  0
  2  7  1  0  0  0  0
  2  3  2  0  0  0  0
  3  8  1  0  0  0  0
  4  3  1  0  0  0  0
  4  9  1  0  0  0  0
  5  4  2  0  0  0  0
  6  1  2  0  0  0  0
  6  5  1  0  0  0  0
 10  5  1  0  0  0  0
 11 16  1  0  0  0  0
 12 13  1  0  0  0  0
 12 11  2  0  0  0  0
 13 14  2  0  0  0  0
 14 15  1  0  0  0  0
 15  1  1  0  0  0  0
 16 15  2  0  0  0  0
 17 11  1  0  0  0  0
 18 12  1  0  0  0  0
 19 13  1  0  0  0  0
 20  6  1  0  0  0  0
 21 22  1  0  0  0  0
 21 20  1  0  0  0  0
 23 25  1  0  0  0  0
 23 21  2  0  0  0  0
 24 23  1  0  0  0  0
 25 27  1  0  0  0  0
 26 25  1  0  0  0  0
 27 20  2  0  0  0  0
M  END
>  <minimizedAffinity>
-4.80709457

>  <minimizedRMSD>
1.60257316

$$$$
