
 OpenBabel03212519583D

 17 18  0  0  0  0  0  0  0  0999 V2000
   41.8750   83.7770   57.5080 C   0  0  0  0  0  0  0  0  0  0  0  0
   41.6490   85.0520   56.9600 C   0  0  0  0  0  0  0  0  0  0  0  0
   40.8840   85.9580   57.7010 C   0  0  0  0  0  0  0  0  0  0  0  0
   40.4050   85.5470   58.9120 N   0  0  0  0  0  0  0  0  0  0  0  0
   40.6360   84.3190   59.4140 C   0  0  0  0  0  0  0  0  0  0  0  0
   41.3690   83.4500   58.7050 N   0  0  0  0  0  0  0  0  0  0  0  0
   42.4710   83.0960   56.9110 H   0  0  0  0  0  0  0  0  0  0  0  0
   42.0160   85.4030   56.0040 H   0  0  0  0  0  0  0  0  0  0  0  0
   40.6630   86.9610   57.3500 H   0  0  0  0  0  0  0  0  0  0  0  0
   40.0520   84.0370   60.7240 C   0  0  0  0  0  0  0  0  0  0  0  0
   40.8590   83.7000   61.8040 C   0  0  0  0  0  0  0  0  0  0  0  0
   41.9390   83.5990   61.8630 H   0  0  0  0  0  0  0  0  0  0  0  0
   40.0290   83.4940   62.8880 C   0  0  0  0  0  0  0  0  0  0  0  0
   40.2180   83.2190   63.9230 H   0  0  0  0  0  0  0  0  0  0  0  0
   38.7530   83.7060   62.4580 N   0  0  0  0  0  0  0  0  0  0  0  0
   37.8430   83.6460   62.9820 H   0  0  0  0  0  0  0  0  0  0  0  0
   38.7620   84.0290   61.1690 N   0  0  0  0  0  0  0  0  0  0  0  0
  1  6  1  0  0  0  0
  2  1  2  0  0  0  0
  2  3  1  0  0  0  0
  3  4  2  0  0  0  0
  4  5  1  0  0  0  0
  5 10  1  0  0  0  0
  6  5  2  0  0  0  0
  7  1  1  0  0  0  0
  8  2  1  0  0  0  0
  9  3  1  0  0  0  0
 10 17  2  0  0  0  0
 10 11  1  0  0  0  0
 11 12  1  0  0  0  0
 11 13  2  0  0  0  0
 13 14  1  0  0  0  0
 15 13  1  0  0  0  0
 15 16  1  0  0  0  0
 17 15  1  0  0  0  0
M  END
>  <minimizedAffinity>
-3.99335909

>  <minimizedRMSD>
3.41352463

$$$$
