
 OpenBabel03212521023D

 27 29  0  0  0  0  0  0  0  0999 V2000
   42.3740   84.4700   62.3640 C   0  0  0  0  0  0  0  0  0  0  0  0
   42.3020   84.4200   63.7450 C   0  0  0  0  0  0  0  0  0  0  0  0
   41.1400   84.0570   64.3990 C   0  0  0  0  0  0  0  0  0  0  0  0
   40.0030   83.7330   63.6460 C   0  0  0  0  0  0  0  0  0  0  0  0
   40.0830   83.7870   62.2410 C   0  0  0  0  0  0  0  0  0  0  0  0
   41.2530   84.1500   61.6140 C   0  0  0  0  0  0  0  0  0  0  0  0
   43.1940   84.6740   64.3040 H   0  0  0  0  0  0  0  0  0  0  0  0
   41.0840   84.0180   65.4770 H   0  0  0  0  0  0  0  0  0  0  0  0
   39.0930   83.4490   64.1670 H   0  0  0  0  0  0  0  0  0  0  0  0
   39.1960   83.5330   61.6780 H   0  0  0  0  0  0  0  0  0  0  0  0
   45.6750   84.2740   60.7890 C   0  0  0  0  0  0  0  0  0  0  0  0
   45.9870   85.6060   60.5320 C   0  0  0  0  0  0  0  0  0  0  0  0
   45.0500   86.5720   60.9070 C   0  0  0  0  0  0  0  0  0  0  0  0
   43.8920   86.1690   61.4960 N   0  0  0  0  0  0  0  0  0  0  0  0
   43.6250   84.8570   61.7300 C   0  0  0  0  0  0  0  0  0  0  0  0
   44.5110   83.9170   61.3780 N   0  0  0  0  0  0  0  0  0  0  0  0
   46.3670   83.4840   60.5190 H   0  0  0  0  0  0  0  0  0  0  0  0
   46.9290   85.8800   60.0570 H   0  0  0  0  0  0  0  0  0  0  0  0
   45.2650   87.6210   60.7190 H   0  0  0  0  0  0  0  0  0  0  0  0
   41.2740   84.1890   60.1630 C   0  0  0  0  0  0  0  0  0  0  0  0
   41.2200   85.1320   59.1490 C   0  0  0  0  0  0  0  0  0  0  0  0
   41.1340   86.1700   59.4600 H   0  0  0  0  0  0  0  0  0  0  0  0
   41.2950   84.4380   57.9530 C   0  0  0  0  0  0  0  0  0  0  0  0
   41.2700   84.9850   57.0310 H   0  0  0  0  0  0  0  0  0  0  0  0
   41.3920   83.1180   58.2550 N   0  0  0  0  0  0  0  0  0  0  0  0
   41.4620   82.3830   57.5100 H   0  0  0  0  0  0  0  0  0  0  0  0
   41.3800   82.9590   59.5770 N   0  0  0  0  0  0  0  0  0  0  0  0
  1  2  1  0  0  0  0
  2  7  1  0  0  0  0
  2  3  2  0  0  0  0
  3  8  1  0  0  0  0
  4  9  1  0  0  0  0
  4  3  1  0  0  0  0
  5  4  2  0  0  0  0
  6  5  1  0  0  0  0
  6  1  2  0  0  0  0
 10  5  1  0  0  0  0
 11 16  1  0  0  0  0
 12 11  2  0  0  0  0
 12 13  1  0  0  0  0
 13 14  2  0  0  0  0
 14 15  1  0  0  0  0
 15  1  1  0  0  0  0
 16 15  2  0  0  0  0
 17 11  1  0  0  0  0
 18 12  1  0  0  0  0
 19 13  1  0  0  0  0
 20  6  1  0  0  0  0
 21 22  1  0  0  0  0
 21 20  1  0  0  0  0
 23 25  1  0  0  0  0
 23 21  2  0  0  0  0
 24 23  1  0  0  0  0
 25 27  1  0  0  0  0
 26 25  1  0  0  0  0
 27 20  2  0  0  0  0
M  END
>  <minimizedAffinity>
-4.73033142

>  <minimizedRMSD>
2.22698045

$$$$
