
 OpenBabel03212521023D

 27 29  0  0  0  0  0  0  0  0999 V2000
   42.2190   84.2960   61.9740 C   0  0  0  0  0  0  0  0  0  0  0  0
   42.4350   84.7570   63.2610 C   0  0  0  0  0  0  0  0  0  0  0  0
   41.6010   84.4100   64.3060 C   0  0  0  0  0  0  0  0  0  0  0  0
   40.5060   83.5710   64.0590 C   0  0  0  0  0  0  0  0  0  0  0  0
   40.2910   83.1060   62.7470 C   0  0  0  0  0  0  0  0  0  0  0  0
   41.1380   83.4660   61.7240 C   0  0  0  0  0  0  0  0  0  0  0  0
   43.2890   85.4030   63.4260 H   0  0  0  0  0  0  0  0  0  0  0  0
   41.7690   84.7700   65.3100 H   0  0  0  0  0  0  0  0  0  0  0  0
   39.8530   83.3030   64.8860 H   0  0  0  0  0  0  0  0  0  0  0  0
   39.4420   82.4600   62.5770 H   0  0  0  0  0  0  0  0  0  0  0  0
   45.1070   84.3610   59.7230 C   0  0  0  0  0  0  0  0  0  0  0  0
   44.8490   85.4560   58.9010 C   0  0  0  0  0  0  0  0  0  0  0  0
   43.6710   86.1710   59.1310 C   0  0  0  0  0  0  0  0  0  0  0  0
   42.8440   85.7670   60.1330 N   0  0  0  0  0  0  0  0  0  0  0  0
   43.1330   84.6920   60.9130 C   0  0  0  0  0  0  0  0  0  0  0  0
   44.2570   83.9950   60.7070 N   0  0  0  0  0  0  0  0  0  0  0  0
   46.0080   83.7720   59.5880 H   0  0  0  0  0  0  0  0  0  0  0  0
   45.5430   85.7410   58.1120 H   0  0  0  0  0  0  0  0  0  0  0  0
   43.4410   87.0300   58.5070 H   0  0  0  0  0  0  0  0  0  0  0  0
   40.8650   82.9560   60.3910 C   0  0  0  0  0  0  0  0  0  0  0  0
   40.2050   83.3590   59.2410 C   0  0  0  0  0  0  0  0  0  0  0  0
   39.7260   84.3350   59.2750 H   0  0  0  0  0  0  0  0  0  0  0  0
   40.3540   82.3360   58.3180 C   0  0  0  0  0  0  0  0  0  0  0  0
   39.9140   82.4460   57.3460 H   0  0  0  0  0  0  0  0  0  0  0  0
   41.0830   81.3580   58.9100 N   0  0  0  0  0  0  0  0  0  0  0  0
   41.3320   80.4700   58.4070 H   0  0  0  0  0  0  0  0  0  0  0  0
   41.3940   81.7190   60.1530 N   0  0  0  0  0  0  0  0  0  0  0  0
  1  2  1  0  0  0  0
  2  7  1  0  0  0  0
  2  3  2  0  0  0  0
  3  8  1  0  0  0  0
  4  3  1  0  0  0  0
  4  9  1  0  0  0  0
  5  4  2  0  0  0  0
  6  1  2  0  0  0  0
  6  5  1  0  0  0  0
 10  5  1  0  0  0  0
 11 16  1  0  0  0  0
 12 13  1  0  0  0  0
 12 11  2  0  0  0  0
 13 14  2  0  0  0  0
 14 15  1  0  0  0  0
 15  1  1  0  0  0  0
 16 15  2  0  0  0  0
 17 11  1  0  0  0  0
 18 12  1  0  0  0  0
 19 13  1  0  0  0  0
 20  6  1  0  0  0  0
 21 22  1  0  0  0  0
 21 20  1  0  0  0  0
 23 25  1  0  0  0  0
 23 21  2  0  0  0  0
 24 23  1  0  0  0  0
 25 27  1  0  0  0  0
 26 25  1  0  0  0  0
 27 20  2  0  0  0  0
M  END
>  <minimizedAffinity>
-4.64616108

>  <minimizedRMSD>
1.69709694

$$$$
