
 OpenBabel03212520523D

 24 26  0  0  0  0  0  0  0  0999 V2000
   42.2200   83.9310   61.0500 C   0  0  0  0  0  0  0  0  0  0  0  0
   40.8190   83.8780   61.2020 C   0  0  0  0  0  0  0  0  0  0  0  0
   40.2410   82.6750   61.4580 C   0  0  0  0  0  0  0  0  0  0  0  0
   41.0630   81.5280   61.5620 C   0  0  0  0  0  0  0  0  0  0  0  0
   42.7630   82.2110   61.2770 S   0  0  0  0  0  0  0  0  0  0  0  0
   40.2150   84.7720   61.1160 H   0  0  0  0  0  0  0  0  0  0  0  0
   39.1850   82.4960   61.5950 H   0  0  0  0  0  0  0  0  0  0  0  0
   44.3320   86.8630   61.5880 C   0  0  0  0  0  0  0  0  0  0  0  0
   44.3690   87.4790   60.3160 C   0  0  0  0  0  0  0  0  0  0  0  0
   43.6520   86.8630   59.2640 C   0  0  0  0  0  0  0  0  0  0  0  0
   42.9830   85.7300   59.5520 N   0  0  0  0  0  0  0  0  0  0  0  0
   42.9670   85.1690   60.7740 C   0  0  0  0  0  0  0  0  0  0  0  0
   43.6290   85.7220   61.7820 N   0  0  0  0  0  0  0  0  0  0  0  0
   44.8850   87.3360   62.4040 H   0  0  0  0  0  0  0  0  0  0  0  0
   44.9320   88.3900   60.1640 H   0  0  0  0  0  0  0  0  0  0  0  0
   43.6600   87.3070   58.2770 H   0  0  0  0  0  0  0  0  0  0  0  0
   40.7600   80.1850   61.8130 C   0  0  0  0  0  0  0  0  0  0  0  0
   40.6300   79.1320   60.9090 C   0  0  0  0  0  0  0  0  0  0  0  0
   40.7690   79.3100   59.8420 H   0  0  0  0  0  0  0  0  0  0  0  0
   40.3220   77.9900   61.6390 C   0  0  0  0  0  0  0  0  0  0  0  0
   40.1720   77.0380   61.1550 H   0  0  0  0  0  0  0  0  0  0  0  0
   40.2790   78.3840   62.9230 N   0  0  0  0  0  0  0  0  0  0  0  0
   40.0620   77.7020   63.7060 H   0  0  0  0  0  0  0  0  0  0  0  0
   40.5360   79.6750   63.0360 N   0  0  0  0  0  0  0  0  0  0  0  0
  1  2  2  0  0  0  0
  1  5  1  0  0  0  0
  2  3  1  0  0  0  0
  3  4  2  0  0  0  0
  3  7  1  0  0  0  0
  4 17  1  0  0  0  0
  5  4  1  0  0  0  0
  6  2  1  0  0  0  0
  8 13  1  0  0  0  0
  8 14  1  0  0  0  0
  9  8  2  0  0  0  0
 10 11  2  0  0  0  0
 10  9  1  0  0  0  0
 11 12  1  0  0  0  0
 12  1  1  0  0  0  0
 12 13  2  0  0  0  0
 15  9  1  0  0  0  0
 16 10  1  0  0  0  0
 17 24  2  0  0  0  0
 18 20  2  0  0  0  0
 18 17  1  0  0  0  0
 19 18  1  0  0  0  0
 20 22  1  0  0  0  0
 21 20  1  0  0  0  0
 22 24  1  0  0  0  0
 22 23  1  0  0  0  0
M  END
>  <minimizedAffinity>
-4.58790827

>  <minimizedRMSD>
7.05229092

$$$$
