
 OpenBabel03212521023D

 27 29  0  0  0  0  0  0  0  0999 V2000
   41.7900   84.2760   61.4110 C   0  0  0  0  0  0  0  0  0  0  0  0
   41.3870   83.9910   62.7030 C   0  0  0  0  0  0  0  0  0  0  0  0
   40.0980   83.5820   62.9880 C   0  0  0  0  0  0  0  0  0  0  0  0
   39.1730   83.4550   61.9420 C   0  0  0  0  0  0  0  0  0  0  0  0
   39.5900   83.7480   60.6290 C   0  0  0  0  0  0  0  0  0  0  0  0
   40.8810   84.1520   60.3730 C   0  0  0  0  0  0  0  0  0  0  0  0
   42.1200   84.0960   63.4930 H   0  0  0  0  0  0  0  0  0  0  0  0
   39.7830   83.3590   63.9970 H   0  0  0  0  0  0  0  0  0  0  0  0
   38.1610   83.1330   62.1740 H   0  0  0  0  0  0  0  0  0  0  0  0
   38.8630   83.6430   59.8370 H   0  0  0  0  0  0  0  0  0  0  0  0
   45.3600   84.1880   60.5970 C   0  0  0  0  0  0  0  0  0  0  0  0
   45.7510   85.5200   60.7190 C   0  0  0  0  0  0  0  0  0  0  0  0
   44.7720   86.4470   61.0850 C   0  0  0  0  0  0  0  0  0  0  0  0
   43.5010   86.0100   61.3000 N   0  0  0  0  0  0  0  0  0  0  0  0
   43.1620   84.7000   61.1700 C   0  0  0  0  0  0  0  0  0  0  0  0
   44.0860   83.7970   60.8210 N   0  0  0  0  0  0  0  0  0  0  0  0
   46.0800   83.4270   60.3170 H   0  0  0  0  0  0  0  0  0  0  0  0
   46.7810   85.8220   60.5370 H   0  0  0  0  0  0  0  0  0  0  0  0
   45.0450   87.4940   61.1880 H   0  0  0  0  0  0  0  0  0  0  0  0
   41.2520   84.4410   58.9990 C   0  0  0  0  0  0  0  0  0  0  0  0
   41.8860   83.8120   57.9410 C   0  0  0  0  0  0  0  0  0  0  0  0
   42.2390   82.8000   58.1220 H   0  0  0  0  0  0  0  0  0  0  0  0
   41.8910   84.7100   56.8860 C   0  0  0  0  0  0  0  0  0  0  0  0
   42.3410   84.4190   55.9560 H   0  0  0  0  0  0  0  0  0  0  0  0
   41.2730   85.8410   57.3130 N   0  0  0  0  0  0  0  0  0  0  0  0
   41.1520   86.6760   56.6890 H   0  0  0  0  0  0  0  0  0  0  0  0
   40.8870   85.6900   58.5790 N   0  0  0  0  0  0  0  0  0  0  0  0
  1  2  1  0  0  0  0
  2  3  2  0  0  0  0
  2  7  1  0  0  0  0
  3  8  1  0  0  0  0
  4  9  1  0  0  0  0
  4  3  1  0  0  0  0
  5  4  2  0  0  0  0
  6  5  1  0  0  0  0
  6  1  2  0  0  0  0
 10  5  1  0  0  0  0
 11 12  2  0  0  0  0
 11 16  1  0  0  0  0
 12 13  1  0  0  0  0
 13 19  1  0  0  0  0
 13 14  2  0  0  0  0
 15 14  1  0  0  0  0
 15  1  1  0  0  0  0
 16 15  2  0  0  0  0
 17 11  1  0  0  0  0
 18 12  1  0  0  0  0
 20  6  1  0  0  0  0
 21 22  1  0  0  0  0
 21 20  1  0  0  0  0
 23 25  1  0  0  0  0
 23 21  2  0  0  0  0
 24 23  1  0  0  0  0
 25 27  1  0  0  0  0
 26 25  1  0  0  0  0
 27 20  2  0  0  0  0
M  END
>  <minimizedAffinity>
-5.00414515

>  <minimizedRMSD>
2.60787654

$$$$
