
 OpenBabel03212521023D

 27 29  0  0  0  0  0  0  0  0999 V2000
   42.4020   84.4780   62.3780 C   0  0  0  0  0  0  0  0  0  0  0  0
   42.3300   84.5160   63.7600 C   0  0  0  0  0  0  0  0  0  0  0  0
   41.1840   84.1470   64.4370 C   0  0  0  0  0  0  0  0  0  0  0  0
   40.0640   83.7250   63.7080 C   0  0  0  0  0  0  0  0  0  0  0  0
   40.1430   83.6890   62.3030 C   0  0  0  0  0  0  0  0  0  0  0  0
   41.2980   84.0610   61.6520 C   0  0  0  0  0  0  0  0  0  0  0  0
   43.2090   84.8450   64.2990 H   0  0  0  0  0  0  0  0  0  0  0  0
   41.1280   84.1780   65.5150 H   0  0  0  0  0  0  0  0  0  0  0  0
   39.1650   83.4370   64.2480 H   0  0  0  0  0  0  0  0  0  0  0  0
   39.2700   83.3600   61.7590 H   0  0  0  0  0  0  0  0  0  0  0  0
   45.7190   84.3240   60.8310 C   0  0  0  0  0  0  0  0  0  0  0  0
   45.9670   85.6460   60.4700 C   0  0  0  0  0  0  0  0  0  0  0  0
   44.9800   86.5900   60.7650 C   0  0  0  0  0  0  0  0  0  0  0  0
   43.8400   86.1770   61.3820 N   0  0  0  0  0  0  0  0  0  0  0  0
   43.6370   84.8760   61.7190 C   0  0  0  0  0  0  0  0  0  0  0  0
   44.5710   83.9570   61.4440 N   0  0  0  0  0  0  0  0  0  0  0  0
   46.4510   83.5510   60.6260 H   0  0  0  0  0  0  0  0  0  0  0  0
   46.8960   85.9290   59.9780 H   0  0  0  0  0  0  0  0  0  0  0  0
   45.1440   87.6310   60.4960 H   0  0  0  0  0  0  0  0  0  0  0  0
   41.3200   84.0050   60.2010 C   0  0  0  0  0  0  0  0  0  0  0  0
   41.7090   83.1270   59.2030 C   0  0  0  0  0  0  0  0  0  0  0  0
   42.1350   82.1820   59.5300 H   0  0  0  0  0  0  0  0  0  0  0  0
   41.4270   83.7460   57.9960 C   0  0  0  0  0  0  0  0  0  0  0  0
   41.6540   83.2310   57.0810 H   0  0  0  0  0  0  0  0  0  0  0  0
   40.8850   84.9570   58.2770 N   0  0  0  0  0  0  0  0  0  0  0  0
   40.5850   85.6190   57.5200 H   0  0  0  0  0  0  0  0  0  0  0  0
   40.8160   85.1220   59.5960 N   0  0  0  0  0  0  0  0  0  0  0  0
  1  2  1  0  0  0  0
  2  7  1  0  0  0  0
  2  3  2  0  0  0  0
  3  8  1  0  0  0  0
  4  9  1  0  0  0  0
  4  3  1  0  0  0  0
  5  4  2  0  0  0  0
  6  5  1  0  0  0  0
  6  1  2  0  0  0  0
 10  5  1  0  0  0  0
 11 16  1  0  0  0  0
 12 13  1  0  0  0  0
 12 11  2  0  0  0  0
 13 14  2  0  0  0  0
 14 15  1  0  0  0  0
 15  1  1  0  0  0  0
 16 15  2  0  0  0  0
 17 11  1  0  0  0  0
 18 12  1  0  0  0  0
 19 13  1  0  0  0  0
 20  6  1  0  0  0  0
 21 22  1  0  0  0  0
 21 20  1  0  0  0  0
 23 25  1  0  0  0  0
 23 21  2  0  0  0  0
 24 23  1  0  0  0  0
 25 27  1  0  0  0  0
 26 25  1  0  0  0  0
 27 20  2  0  0  0  0
M  END
>  <minimizedAffinity>
-4.77304459

>  <minimizedRMSD>
2.20290112

$$$$
