
 OpenBabel03212521023D

 27 29  0  0  0  0  0  0  0  0999 V2000
   42.4170   84.4910   62.5560 C   0  0  0  0  0  0  0  0  0  0  0  0
   42.4050   84.5240   63.9390 C   0  0  0  0  0  0  0  0  0  0  0  0
   41.2810   84.1730   64.6640 C   0  0  0  0  0  0  0  0  0  0  0  0
   40.1240   83.7750   63.9820 C   0  0  0  0  0  0  0  0  0  0  0  0
   40.1420   83.7440   62.5740 C   0  0  0  0  0  0  0  0  0  0  0  0
   41.2750   84.0980   61.8760 C   0  0  0  0  0  0  0  0  0  0  0  0
   43.3120   84.8340   64.4420 H   0  0  0  0  0  0  0  0  0  0  0  0
   41.2720   84.1990   65.7430 H   0  0  0  0  0  0  0  0  0  0  0  0
   39.2440   83.5010   64.5590 H   0  0  0  0  0  0  0  0  0  0  0  0
   39.2400   83.4340   62.0670 H   0  0  0  0  0  0  0  0  0  0  0  0
   45.6440   84.2780   60.8360 C   0  0  0  0  0  0  0  0  0  0  0  0
   45.9180   85.6020   60.5030 C   0  0  0  0  0  0  0  0  0  0  0  0
   44.9810   86.5680   60.8760 C   0  0  0  0  0  0  0  0  0  0  0  0
   43.8600   86.1730   61.5390 N   0  0  0  0  0  0  0  0  0  0  0  0
   43.6300   84.8690   61.8460 C   0  0  0  0  0  0  0  0  0  0  0  0
   44.5160   83.9290   61.4950 N   0  0  0  0  0  0  0  0  0  0  0  0
   46.3380   83.4880   60.5700 H   0  0  0  0  0  0  0  0  0  0  0  0
   46.8300   85.8700   59.9710 H   0  0  0  0  0  0  0  0  0  0  0  0
   45.1660   87.6100   60.6300 H   0  0  0  0  0  0  0  0  0  0  0  0
   41.2340   84.0480   60.4250 C   0  0  0  0  0  0  0  0  0  0  0  0
   41.0630   84.9190   59.3610 C   0  0  0  0  0  0  0  0  0  0  0  0
   40.9060   85.9640   59.6140 H   0  0  0  0  0  0  0  0  0  0  0  0
   41.1460   84.1580   58.2060 C   0  0  0  0  0  0  0  0  0  0  0  0
   41.0390   84.6440   57.2550 H   0  0  0  0  0  0  0  0  0  0  0  0
   41.3600   82.8720   58.5820 N   0  0  0  0  0  0  0  0  0  0  0  0
   41.4600   82.0990   57.8780 H   0  0  0  0  0  0  0  0  0  0  0  0
   41.4160   82.7960   59.9090 N   0  0  0  0  0  0  0  0  0  0  0  0
  1  2  1  0  0  0  0
  2  7  1  0  0  0  0
  2  3  2  0  0  0  0
  3  8  1  0  0  0  0
  4  9  1  0  0  0  0
  4  3  1  0  0  0  0
  5  4  2  0  0  0  0
  6  1  2  0  0  0  0
  6  5  1  0  0  0  0
 10  5  1  0  0  0  0
 11 16  1  0  0  0  0
 12 11  2  0  0  0  0
 12 13  1  0  0  0  0
 13 14  2  0  0  0  0
 14 15  1  0  0  0  0
 15  1  1  0  0  0  0
 16 15  2  0  0  0  0
 17 11  1  0  0  0  0
 18 12  1  0  0  0  0
 19 13  1  0  0  0  0
 20  6  1  0  0  0  0
 21 22  1  0  0  0  0
 21 20  1  0  0  0  0
 23 25  1  0  0  0  0
 23 21  2  0  0  0  0
 24 23  1  0  0  0  0
 25 27  1  0  0  0  0
 26 25  1  0  0  0  0
 27 20  2  0  0  0  0
M  END
>  <minimizedAffinity>
-4.74978876

>  <minimizedRMSD>
2.1641891

$$$$
