
 OpenBabel03212520423D

 17 18  0  0  0  0  0  0  0  0999 V2000
   40.0910   82.0260   60.8670 C   0  0  0  0  0  0  0  0  0  0  0  0
   40.1980   82.8550   59.7400 C   0  0  0  0  0  0  0  0  0  0  0  0
   39.5970   84.1150   59.7790 C   0  0  0  0  0  0  0  0  0  0  0  0
   38.9380   84.4590   60.9260 N   0  0  0  0  0  0  0  0  0  0  0  0
   38.8520   83.6430   61.9920 C   0  0  0  0  0  0  0  0  0  0  0  0
   39.4310   82.4260   61.9600 N   0  0  0  0  0  0  0  0  0  0  0  0
   40.7240   82.5560   58.8490 H   0  0  0  0  0  0  0  0  0  0  0  0
   39.6260   84.8200   58.9640 H   0  0  0  0  0  0  0  0  0  0  0  0
   38.2960   84.0740   62.8120 H   0  0  0  0  0  0  0  0  0  0  0  0
   40.7240   80.7110   60.8130 C   0  0  0  0  0  0  0  0  0  0  0  0
   40.3040   79.5970   61.5100 C   0  0  0  0  0  0  0  0  0  0  0  0
   39.4780   79.4840   62.1890 H   0  0  0  0  0  0  0  0  0  0  0  0
   41.2030   78.5960   61.1450 C   0  0  0  0  0  0  0  0  0  0  0  0
   41.2290   77.5460   61.4740 H   0  0  0  0  0  0  0  0  0  0  0  0
   42.1090   79.1030   60.2730 N   0  0  0  0  0  0  0  0  0  0  0  0
   42.9130   78.6480   59.8000 H   0  0  0  0  0  0  0  0  0  0  0  0
   41.8060   80.3900   60.0810 N   0  0  0  0  0  0  0  0  0  0  0  0
  1  6  1  0  0  0  0
  2  3  1  0  0  0  0
  2  1  2  0  0  0  0
  3  4  2  0  0  0  0
  4  5  1  0  0  0  0
  5  9  1  0  0  0  0
  6  5  2  0  0  0  0
  7  2  1  0  0  0  0
  8  3  1  0  0  0  0
 10  1  1  0  0  0  0
 10 11  1  0  0  0  0
 11 12  1  0  0  0  0
 13 14  1  0  0  0  0
 13 11  2  0  0  0  0
 15 13  1  0  0  0  0
 16 15  1  0  0  0  0
 17 15  1  0  0  0  0
 17 10  2  0  0  0  0
M  END
>  <minimizedAffinity>
-4.01595974

>  <minimizedRMSD>
0.0844344422

$$$$
