
 OpenBabel03212521053D

 35 38  0  0  0  0  0  0  0  0999 V2000
   41.8180   84.2350   61.5690 C   0  0  0  0  0  0  0  0  0  0  0  0
   41.4600   83.9730   62.8870 C   0  0  0  0  0  0  0  0  0  0  0  0
   40.1920   83.5590   63.2390 C   0  0  0  0  0  0  0  0  0  0  0  0
   39.2320   83.3970   62.2340 C   0  0  0  0  0  0  0  0  0  0  0  0
   39.5850   83.6590   60.9060 C   0  0  0  0  0  0  0  0  0  0  0  0
   40.8580   84.0720   60.5740 C   0  0  0  0  0  0  0  0  0  0  0  0
   42.1480   84.0750   63.7190 H   0  0  0  0  0  0  0  0  0  0  0  0
   39.8910   83.3500   64.2570 H   0  0  0  0  0  0  0  0  0  0  0  0
   38.2100   83.0780   62.4010 H   0  0  0  0  0  0  0  0  0  0  0  0
   38.8530   83.5400   60.1160 H   0  0  0  0  0  0  0  0  0  0  0  0
   45.3270   84.1490   60.5660 C   0  0  0  0  0  0  0  0  0  0  0  0
   45.7210   85.4700   60.6840 C   0  0  0  0  0  0  0  0  0  0  0  0
   44.7710   86.4130   61.1160 C   0  0  0  0  0  0  0  0  0  0  0  0
   43.5150   85.9750   61.3940 N   0  0  0  0  0  0  0  0  0  0  0  0
   43.1570   84.6650   61.2670 C   0  0  0  0  0  0  0  0  0  0  0  0
   44.0600   83.7830   60.8580 N   0  0  0  0  0  0  0  0  0  0  0  0
   46.0870   83.4710   60.2330 H   0  0  0  0  0  0  0  0  0  0  0  0
   46.6870   85.8930   60.4860 H   0  0  0  0  0  0  0  0  0  0  0  0
   44.8960   87.4770   61.2670 H   0  0  0  0  0  0  0  0  0  0  0  0
   41.1730   84.3310   59.1890 C   0  0  0  0  0  0  0  0  0  0  0  0
   40.8950   85.6610   58.8380 C   0  0  0  0  0  0  0  0  0  0  0  0
   41.1250   86.1230   57.5480 C   0  0  0  0  0  0  0  0  0  0  0  0
   41.6240   85.2430   56.6610 N   0  0  0  0  0  0  0  0  0  0  0  0
   41.8890   83.9630   57.0110 C   0  0  0  0  0  0  0  0  0  0  0  0
   41.6730   83.4960   58.2540 N   0  0  0  0  0  0  0  0  0  0  0  0
   40.4920   86.4220   59.5010 H   0  0  0  0  0  0  0  0  0  0  0  0
   40.9230   87.1390   57.2380 H   0  0  0  0  0  0  0  0  0  0  0  0
   42.4250   83.0740   56.0040 C   0  0  0  0  0  0  0  0  0  0  0  0
   41.7610   82.0000   55.4050 C   0  0  0  0  0  0  0  0  0  0  0  0
   40.7410   81.6790   55.6150 H   0  0  0  0  0  0  0  0  0  0  0  0
   42.6530   81.4250   54.4970 C   0  0  0  0  0  0  0  0  0  0  0  0
   42.4520   80.5550   53.8520 H   0  0  0  0  0  0  0  0  0  0  0  0
   43.8040   82.1480   54.5650 N   0  0  0  0  0  0  0  0  0  0  0  0
   44.6370   81.9250   53.9830 H   0  0  0  0  0  0  0  0  0  0  0  0
   43.6560   83.1200   55.4610 N   0  0  0  0  0  0  0  0  0  0  0  0
  1  2  1  0  0  0  0
  2  3  2  0  0  0  0
  2  7  1  0  0  0  0
  3  8  1  0  0  0  0
  4  9  1  0  0  0  0
  4  3  1  0  0  0  0
  5  4  2  0  0  0  0
  6  5  1  0  0  0  0
  6  1  2  0  0  0  0
 10  5  1  0  0  0  0
 11 12  2  0  0  0  0
 11 16  1  0  0  0  0
 12 13  1  0  0  0  0
 13 19  1  0  0  0  0
 13 14  2  0  0  0  0
 15 14  1  0  0  0  0
 15  1  1  0  0  0  0
 16 15  2  0  0  0  0
 17 11  1  0  0  0  0
 18 12  1  0  0  0  0
 20  6  1  0  0  0  0
 21 20  1  0  0  0  0
 21 26  1  0  0  0  0
 22 21  2  0  0  0  0
 23 24  2  0  0  0  0
 23 22  1  0  0  0  0
 24 25  1  0  0  0  0
 25 20  2  0  0  0  0
 27 22  1  0  0  0  0
 28 24  1  0  0  0  0
 29 30  1  0  0  0  0
 29 28  1  0  0  0  0
 31 33  1  0  0  0  0
 31 29  2  0  0  0  0
 32 31  1  0  0  0  0
 33 35  1  0  0  0  0
 34 33  1  0  0  0  0
 35 28  2  0  0  0  0
M  END
>  <minimizedAffinity>
-5.39787674

>  <minimizedRMSD>
0.366391301

$$$$
