
 OpenBabel03212521053D

 35 38  0  0  0  0  0  0  0  0999 V2000
   41.8140   84.2410   61.5570 C   0  0  0  0  0  0  0  0  0  0  0  0
   41.4620   83.9350   62.8670 C   0  0  0  0  0  0  0  0  0  0  0  0
   40.1930   83.5150   63.2120 C   0  0  0  0  0  0  0  0  0  0  0  0
   39.2270   83.3930   62.2080 C   0  0  0  0  0  0  0  0  0  0  0  0
   39.5740   83.6990   60.8870 C   0  0  0  0  0  0  0  0  0  0  0  0
   40.8480   84.1170   60.5630 C   0  0  0  0  0  0  0  0  0  0  0  0
   42.1550   84.0050   63.6980 H   0  0  0  0  0  0  0  0  0  0  0  0
   39.8970   83.2720   64.2240 H   0  0  0  0  0  0  0  0  0  0  0  0
   38.2050   83.0730   62.3690 H   0  0  0  0  0  0  0  0  0  0  0  0
   38.8380   83.6110   60.0980 H   0  0  0  0  0  0  0  0  0  0  0  0
   45.3350   84.1600   60.5980 C   0  0  0  0  0  0  0  0  0  0  0  0
   45.7190   85.4850   60.6950 C   0  0  0  0  0  0  0  0  0  0  0  0
   44.7570   86.4300   61.0960 C   0  0  0  0  0  0  0  0  0  0  0  0
   43.5010   85.9890   61.3680 N   0  0  0  0  0  0  0  0  0  0  0  0
   43.1530   84.6740   61.2620 C   0  0  0  0  0  0  0  0  0  0  0  0
   44.0670   83.7900   60.8830 N   0  0  0  0  0  0  0  0  0  0  0  0
   46.1050   83.4810   60.2880 H   0  0  0  0  0  0  0  0  0  0  0  0
   46.6840   85.9110   60.5000 H   0  0  0  0  0  0  0  0  0  0  0  0
   44.8720   87.4980   61.2270 H   0  0  0  0  0  0  0  0  0  0  0  0
   41.1570   84.4230   59.1860 C   0  0  0  0  0  0  0  0  0  0  0  0
   40.7370   85.7160   58.8390 C   0  0  0  0  0  0  0  0  0  0  0  0
   40.9370   86.2130   57.5560 C   0  0  0  0  0  0  0  0  0  0  0  0
   41.5480   85.4020   56.6730 N   0  0  0  0  0  0  0  0  0  0  0  0
   41.9490   84.1570   57.0190 C   0  0  0  0  0  0  0  0  0  0  0  0
   41.7640   83.6580   58.2540 N   0  0  0  0  0  0  0  0  0  0  0  0
   40.2400   86.4200   59.4990 H   0  0  0  0  0  0  0  0  0  0  0  0
   40.6270   87.2030   57.2500 H   0  0  0  0  0  0  0  0  0  0  0  0
   42.5990   83.3430   56.0160 C   0  0  0  0  0  0  0  0  0  0  0  0
   42.6360   83.5910   54.6410 C   0  0  0  0  0  0  0  0  0  0  0  0
   42.1790   84.4370   54.1300 H   0  0  0  0  0  0  0  0  0  0  0  0
   43.3680   82.5530   54.0600 C   0  0  0  0  0  0  0  0  0  0  0  0
   43.5910   82.4380   52.9870 H   0  0  0  0  0  0  0  0  0  0  0  0
   43.7460   81.7240   55.0720 N   0  0  0  0  0  0  0  0  0  0  0  0
   44.3080   80.8650   54.9060 H   0  0  0  0  0  0  0  0  0  0  0  0
   43.2850   82.2040   56.2230 N   0  0  0  0  0  0  0  0  0  0  0  0
  1  2  1  0  0  0  0
  2  3  2  0  0  0  0
  2  7  1  0  0  0  0
  3  8  1  0  0  0  0
  4  9  1  0  0  0  0
  4  3  1  0  0  0  0
  5  4  2  0  0  0  0
  6  5  1  0  0  0  0
  6  1  2  0  0  0  0
 10  5  1  0  0  0  0
 11 12  2  0  0  0  0
 11 16  1  0  0  0  0
 12 13  1  0  0  0  0
 13 19  1  0  0  0  0
 13 14  2  0  0  0  0
 15 14  1  0  0  0  0
 15  1  1  0  0  0  0
 16 15  2  0  0  0  0
 17 11  1  0  0  0  0
 18 12  1  0  0  0  0
 20  6  1  0  0  0  0
 21 20  1  0  0  0  0
 21 26  1  0  0  0  0
 22 21  2  0  0  0  0
 23 24  2  0  0  0  0
 23 22  1  0  0  0  0
 24 25  1  0  0  0  0
 25 20  2  0  0  0  0
 27 22  1  0  0  0  0
 28 35  2  0  0  0  0
 28 24  1  0  0  0  0
 29 28  1  0  0  0  0
 30 29  1  0  0  0  0
 31 29  2  0  0  0  0
 31 33  1  0  0  0  0
 32 31  1  0  0  0  0
 33 35  1  0  0  0  0
 34 33  1  0  0  0  0
M  END
>  <minimizedAffinity>
-5.3451705

>  <minimizedRMSD>
0.304018229

$$$$
