
 OpenBabel03212521063D

 35 38  0  0  0  0  0  0  0  0999 V2000
   41.8420   84.2390   61.5690 C   0  0  0  0  0  0  0  0  0  0  0  0
   41.4750   83.9740   62.8830 C   0  0  0  0  0  0  0  0  0  0  0  0
   40.2060   83.5510   63.2240 C   0  0  0  0  0  0  0  0  0  0  0  0
   39.2570   83.3840   62.2110 C   0  0  0  0  0  0  0  0  0  0  0  0
   39.6190   83.6490   60.8860 C   0  0  0  0  0  0  0  0  0  0  0  0
   40.8930   84.0710   60.5660 C   0  0  0  0  0  0  0  0  0  0  0  0
   42.1550   84.0800   63.7210 H   0  0  0  0  0  0  0  0  0  0  0  0
   39.8980   83.3390   64.2390 H   0  0  0  0  0  0  0  0  0  0  0  0
   38.2350   83.0580   62.3680 H   0  0  0  0  0  0  0  0  0  0  0  0
   38.8960   83.5250   60.0900 H   0  0  0  0  0  0  0  0  0  0  0  0
   45.3760   84.1680   60.6560 C   0  0  0  0  0  0  0  0  0  0  0  0
   45.7450   85.5000   60.7200 C   0  0  0  0  0  0  0  0  0  0  0  0
   44.7690   86.4450   61.0830 C   0  0  0  0  0  0  0  0  0  0  0  0
   43.5150   85.9990   61.3520 N   0  0  0  0  0  0  0  0  0  0  0  0
   43.1810   84.6780   61.2790 C   0  0  0  0  0  0  0  0  0  0  0  0
   44.1090   83.7940   60.9350 N   0  0  0  0  0  0  0  0  0  0  0  0
   46.1560   83.4890   60.3740 H   0  0  0  0  0  0  0  0  0  0  0  0
   46.7080   85.9300   60.5250 H   0  0  0  0  0  0  0  0  0  0  0  0
   44.8720   87.5170   61.1860 H   0  0  0  0  0  0  0  0  0  0  0  0
   41.2190   84.3330   59.1830 C   0  0  0  0  0  0  0  0  0  0  0  0
   40.8160   85.6200   58.7950 C   0  0  0  0  0  0  0  0  0  0  0  0
   41.0340   86.0770   57.5010 C   0  0  0  0  0  0  0  0  0  0  0  0
   41.6450   85.2350   56.6470 N   0  0  0  0  0  0  0  0  0  0  0  0
   42.0290   83.9970   57.0340 C   0  0  0  0  0  0  0  0  0  0  0  0
   41.8270   83.5350   58.2800 N   0  0  0  0  0  0  0  0  0  0  0  0
   40.3190   86.3480   59.4300 H   0  0  0  0  0  0  0  0  0  0  0  0
   40.7370   87.0610   57.1630 H   0  0  0  0  0  0  0  0  0  0  0  0
   42.6800   83.1480   56.0610 C   0  0  0  0  0  0  0  0  0  0  0  0
   44.0450   82.8530   55.9960 C   0  0  0  0  0  0  0  0  0  0  0  0
   44.8140   83.2240   56.6720 H   0  0  0  0  0  0  0  0  0  0  0  0
   44.2260   82.0000   54.9050 C   0  0  0  0  0  0  0  0  0  0  0  0
   45.1830   81.5730   54.5670 H   0  0  0  0  0  0  0  0  0  0  0  0
   42.9970   81.8050   54.3510 N   0  0  0  0  0  0  0  0  0  0  0  0
   42.8540   81.2010   53.5150 H   0  0  0  0  0  0  0  0  0  0  0  0
   42.0930   82.4890   55.0450 N   0  0  0  0  0  0  0  0  0  0  0  0
  1  2  1  0  0  0  0
  2  3  2  0  0  0  0
  2  7  1  0  0  0  0
  3  8  1  0  0  0  0
  4  9  1  0  0  0  0
  4  3  1  0  0  0  0
  5  4  2  0  0  0  0
  6  5  1  0  0  0  0
  6  1  2  0  0  0  0
 10  5  1  0  0  0  0
 11 12  2  0  0  0  0
 11 16  1  0  0  0  0
 12 13  1  0  0  0  0
 13 19  1  0  0  0  0
 13 14  2  0  0  0  0
 15 14  1  0  0  0  0
 15  1  1  0  0  0  0
 16 15  2  0  0  0  0
 17 11  1  0  0  0  0
 18 12  1  0  0  0  0
 20  6  1  0  0  0  0
 21 20  1  0  0  0  0
 21 26  1  0  0  0  0
 22 21  2  0  0  0  0
 23 24  2  0  0  0  0
 23 22  1  0  0  0  0
 24 25  1  0  0  0  0
 25 20  2  0  0  0  0
 27 22  1  0  0  0  0
 28 24  1  0  0  0  0
 29 28  1  0  0  0  0
 29 30  1  0  0  0  0
 31 29  2  0  0  0  0
 32 31  1  0  0  0  0
 33 31  1  0  0  0  0
 33 35  1  0  0  0  0
 34 33  1  0  0  0  0
 35 28  2  0  0  0  0
M  END
>  <minimizedAffinity>
-5.32083464

>  <minimizedRMSD>
0.180786252

$$$$
