
 OpenBabel03212521063D

 35 38  0  0  0  0  0  0  0  0999 V2000
   41.8130   84.2380   61.5610 C   0  0  0  0  0  0  0  0  0  0  0  0
   41.4650   83.9270   62.8700 C   0  0  0  0  0  0  0  0  0  0  0  0
   40.1960   83.5070   63.2160 C   0  0  0  0  0  0  0  0  0  0  0  0
   39.2280   83.3910   62.2140 C   0  0  0  0  0  0  0  0  0  0  0  0
   39.5710   83.7030   60.8940 C   0  0  0  0  0  0  0  0  0  0  0  0
   40.8450   84.1210   60.5680 C   0  0  0  0  0  0  0  0  0  0  0  0
   42.1600   83.9920   63.6990 H   0  0  0  0  0  0  0  0  0  0  0  0
   39.9030   83.2600   64.2270 H   0  0  0  0  0  0  0  0  0  0  0  0
   38.2050   83.0720   62.3760 H   0  0  0  0  0  0  0  0  0  0  0  0
   38.8330   83.6190   60.1060 H   0  0  0  0  0  0  0  0  0  0  0  0
   45.3380   84.1540   60.6120 C   0  0  0  0  0  0  0  0  0  0  0  0
   45.7180   85.4810   60.6940 C   0  0  0  0  0  0  0  0  0  0  0  0
   44.7530   86.4280   61.0810 C   0  0  0  0  0  0  0  0  0  0  0  0
   43.4970   85.9880   61.3550 N   0  0  0  0  0  0  0  0  0  0  0  0
   43.1530   84.6710   61.2640 C   0  0  0  0  0  0  0  0  0  0  0  0
   44.0700   83.7850   60.8970 N   0  0  0  0  0  0  0  0  0  0  0  0
   46.1090   83.4730   60.3120 H   0  0  0  0  0  0  0  0  0  0  0  0
   46.6820   85.9070   60.4960 H   0  0  0  0  0  0  0  0  0  0  0  0
   44.8660   87.4980   61.2000 H   0  0  0  0  0  0  0  0  0  0  0  0
   41.1510   84.4320   59.1910 C   0  0  0  0  0  0  0  0  0  0  0  0
   40.7080   85.7180   58.8450 C   0  0  0  0  0  0  0  0  0  0  0  0
   40.9020   86.2180   57.5620 C   0  0  0  0  0  0  0  0  0  0  0  0
   41.5280   85.4190   56.6800 N   0  0  0  0  0  0  0  0  0  0  0  0
   41.9510   84.1820   57.0260 C   0  0  0  0  0  0  0  0  0  0  0  0
   41.7730   83.6780   58.2610 N   0  0  0  0  0  0  0  0  0  0  0  0
   40.1970   86.4130   59.5040 H   0  0  0  0  0  0  0  0  0  0  0  0
   40.5740   87.2030   57.2560 H   0  0  0  0  0  0  0  0  0  0  0  0
   42.6170   83.3800   56.0240 C   0  0  0  0  0  0  0  0  0  0  0  0
   43.0190   82.0480   56.1570 C   0  0  0  0  0  0  0  0  0  0  0  0
   42.8860   81.4230   57.0390 H   0  0  0  0  0  0  0  0  0  0  0  0
   43.6170   81.6800   54.9490 C   0  0  0  0  0  0  0  0  0  0  0  0
   44.0460   80.6950   54.7110 H   0  0  0  0  0  0  0  0  0  0  0  0
   43.5640   82.7720   54.1370 N   0  0  0  0  0  0  0  0  0  0  0  0
   43.9460   82.7630   53.1680 H   0  0  0  0  0  0  0  0  0  0  0  0
   42.9700   83.7700   54.7850 N   0  0  0  0  0  0  0  0  0  0  0  0
  1  2  1  0  0  0  0
  2  3  2  0  0  0  0
  2  7  1  0  0  0  0
  3  8  1  0  0  0  0
  4  9  1  0  0  0  0
  4  3  1  0  0  0  0
  5  4  2  0  0  0  0
  6  5  1  0  0  0  0
  6  1  2  0  0  0  0
 10  5  1  0  0  0  0
 11 12  2  0  0  0  0
 11 16  1  0  0  0  0
 12 13  1  0  0  0  0
 13 19  1  0  0  0  0
 13 14  2  0  0  0  0
 15 14  1  0  0  0  0
 15  1  1  0  0  0  0
 16 15  2  0  0  0  0
 17 11  1  0  0  0  0
 18 12  1  0  0  0  0
 20  6  1  0  0  0  0
 21 20  1  0  0  0  0
 21 26  1  0  0  0  0
 22 21  2  0  0  0  0
 23 24  2  0  0  0  0
 23 22  1  0  0  0  0
 24 25  1  0  0  0  0
 25 20  2  0  0  0  0
 27 22  1  0  0  0  0
 28 29  1  0  0  0  0
 28 24  1  0  0  0  0
 29 30  1  0  0  0  0
 31 29  2  0  0  0  0
 32 31  1  0  0  0  0
 33 35  1  0  0  0  0
 33 31  1  0  0  0  0
 34 33  1  0  0  0  0
 35 28  2  0  0  0  0
M  END
>  <minimizedAffinity>
-5.28443098

>  <minimizedRMSD>
0.265524

$$$$
