
 OpenBabel03212521053D

 35 38  0  0  0  0  0  0  0  0999 V2000
   41.8460   84.2390   61.5720 C   0  0  0  0  0  0  0  0  0  0  0  0
   41.4740   83.9730   62.8850 C   0  0  0  0  0  0  0  0  0  0  0  0
   40.2040   83.5510   63.2220 C   0  0  0  0  0  0  0  0  0  0  0  0
   39.2580   83.3840   62.2050 C   0  0  0  0  0  0  0  0  0  0  0  0
   39.6250   83.6500   60.8810 C   0  0  0  0  0  0  0  0  0  0  0  0
   40.9000   84.0710   60.5660 C   0  0  0  0  0  0  0  0  0  0  0  0
   42.1510   84.0790   63.7260 H   0  0  0  0  0  0  0  0  0  0  0  0
   39.8920   83.3390   64.2360 H   0  0  0  0  0  0  0  0  0  0  0  0
   38.2360   83.0580   62.3590 H   0  0  0  0  0  0  0  0  0  0  0  0
   38.9040   83.5260   60.0830 H   0  0  0  0  0  0  0  0  0  0  0  0
   45.3880   84.1650   60.6890 C   0  0  0  0  0  0  0  0  0  0  0  0
   45.7520   85.4980   60.7380 C   0  0  0  0  0  0  0  0  0  0  0  0
   44.7710   86.4460   61.0800 C   0  0  0  0  0  0  0  0  0  0  0  0
   43.5150   86.0000   61.3450 N   0  0  0  0  0  0  0  0  0  0  0  0
   43.1860   84.6770   61.2870 C   0  0  0  0  0  0  0  0  0  0  0  0
   44.1190   83.7910   60.9630 N   0  0  0  0  0  0  0  0  0  0  0  0
   46.1710   83.4840   60.4230 H   0  0  0  0  0  0  0  0  0  0  0  0
   46.7160   85.9290   60.5450 H   0  0  0  0  0  0  0  0  0  0  0  0
   44.8710   87.5200   61.1690 H   0  0  0  0  0  0  0  0  0  0  0  0
   41.2310   84.3330   59.1840 C   0  0  0  0  0  0  0  0  0  0  0  0
   40.8000   85.6070   58.7860 C   0  0  0  0  0  0  0  0  0  0  0  0
   41.0170   86.0630   57.4910 C   0  0  0  0  0  0  0  0  0  0  0  0
   41.6560   85.2310   56.6470 N   0  0  0  0  0  0  0  0  0  0  0  0
   42.0670   84.0050   57.0440 C   0  0  0  0  0  0  0  0  0  0  0  0
   41.8660   83.5450   58.2910 N   0  0  0  0  0  0  0  0  0  0  0  0
   40.2810   86.3270   59.4120 H   0  0  0  0  0  0  0  0  0  0  0  0
   40.7000   87.0370   57.1450 H   0  0  0  0  0  0  0  0  0  0  0  0
   42.7460   83.1660   56.0820 C   0  0  0  0  0  0  0  0  0  0  0  0
   42.4800   83.0890   54.7110 C   0  0  0  0  0  0  0  0  0  0  0  0
   41.7200   83.6530   54.1740 H   0  0  0  0  0  0  0  0  0  0  0  0
   43.3730   82.1580   54.1750 C   0  0  0  0  0  0  0  0  0  0  0  0
   43.4370   81.8560   53.1180 H   0  0  0  0  0  0  0  0  0  0  0  0
   44.1360   81.7060   55.2070 N   0  0  0  0  0  0  0  0  0  0  0  0
   44.8870   80.9970   55.0740 H   0  0  0  0  0  0  0  0  0  0  0  0
   43.7560   82.3110   56.3280 N   0  0  0  0  0  0  0  0  0  0  0  0
  1  2  1  0  0  0  0
  2  3  2  0  0  0  0
  2  7  1  0  0  0  0
  3  8  1  0  0  0  0
  4  9  1  0  0  0  0
  4  3  1  0  0  0  0
  5  4  2  0  0  0  0
  6  5  1  0  0  0  0
  6  1  2  0  0  0  0
 10  5  1  0  0  0  0
 11 12  2  0  0  0  0
 11 16  1  0  0  0  0
 12 13  1  0  0  0  0
 13 19  1  0  0  0  0
 13 14  2  0  0  0  0
 15 14  1  0  0  0  0
 15  1  1  0  0  0  0
 16 15  2  0  0  0  0
 17 11  1  0  0  0  0
 18 12  1  0  0  0  0
 20  6  1  0  0  0  0
 21 20  1  0  0  0  0
 21 26  1  0  0  0  0
 22 21  2  0  0  0  0
 23 24  2  0  0  0  0
 23 22  1  0  0  0  0
 24 25  1  0  0  0  0
 25 20  2  0  0  0  0
 27 22  1  0  0  0  0
 28 35  2  0  0  0  0
 28 24  1  0  0  0  0
 29 28  1  0  0  0  0
 30 29  1  0  0  0  0
 31 29  2  0  0  0  0
 31 33  1  0  0  0  0
 32 31  1  0  0  0  0
 33 35  1  0  0  0  0
 34 33  1  0  0  0  0
M  END
>  <minimizedAffinity>
-5.32153654

>  <minimizedRMSD>
0.176587686

$$$$
