
 OpenBabel03212521063D

 35 38  0  0  0  0  0  0  0  0999 V2000
   41.8120   84.2370   61.5670 C   0  0  0  0  0  0  0  0  0  0  0  0
   41.4560   83.9630   62.8830 C   0  0  0  0  0  0  0  0  0  0  0  0
   40.1870   83.5490   63.2330 C   0  0  0  0  0  0  0  0  0  0  0  0
   39.2250   83.4000   62.2280 C   0  0  0  0  0  0  0  0  0  0  0  0
   39.5760   83.6750   60.9010 C   0  0  0  0  0  0  0  0  0  0  0  0
   40.8510   84.0880   60.5720 C   0  0  0  0  0  0  0  0  0  0  0  0
   42.1460   84.0540   63.7140 H   0  0  0  0  0  0  0  0  0  0  0  0
   39.8870   83.3300   64.2490 H   0  0  0  0  0  0  0  0  0  0  0  0
   38.2020   83.0830   62.3930 H   0  0  0  0  0  0  0  0  0  0  0  0
   38.8430   83.5660   60.1120 H   0  0  0  0  0  0  0  0  0  0  0  0
   45.3250   84.1470   60.5770 C   0  0  0  0  0  0  0  0  0  0  0  0
   45.7180   85.4680   60.6890 C   0  0  0  0  0  0  0  0  0  0  0  0
   44.7660   86.4130   61.1110 C   0  0  0  0  0  0  0  0  0  0  0  0
   43.5090   85.9770   61.3880 N   0  0  0  0  0  0  0  0  0  0  0  0
   43.1520   84.6660   61.2670 C   0  0  0  0  0  0  0  0  0  0  0  0
   44.0570   83.7810   60.8670 N   0  0  0  0  0  0  0  0  0  0  0  0
   46.0870   83.4670   60.2510 H   0  0  0  0  0  0  0  0  0  0  0  0
   46.6840   85.8910   60.4910 H   0  0  0  0  0  0  0  0  0  0  0  0
   44.8900   87.4780   61.2560 H   0  0  0  0  0  0  0  0  0  0  0  0
   41.1640   84.3600   59.1890 C   0  0  0  0  0  0  0  0  0  0  0  0
   40.8440   85.6800   58.8400 C   0  0  0  0  0  0  0  0  0  0  0  0
   41.0650   86.1520   57.5510 C   0  0  0  0  0  0  0  0  0  0  0  0
   41.5980   85.2910   56.6650 N   0  0  0  0  0  0  0  0  0  0  0  0
   41.9040   84.0200   57.0140 C   0  0  0  0  0  0  0  0  0  0  0  0
   41.6960   83.5440   58.2550 N   0  0  0  0  0  0  0  0  0  0  0  0
   40.4130   86.4260   59.5010 H   0  0  0  0  0  0  0  0  0  0  0  0
   40.8310   87.1620   57.2420 H   0  0  0  0  0  0  0  0  0  0  0  0
   42.4740   83.1520   56.0090 C   0  0  0  0  0  0  0  0  0  0  0  0
   43.7920   83.1720   55.5420 C   0  0  0  0  0  0  0  0  0  0  0  0
   44.5780   83.8490   55.8720 H   0  0  0  0  0  0  0  0  0  0  0  0
   43.8980   82.1670   54.5800 C   0  0  0  0  0  0  0  0  0  0  0  0
   44.8040   81.9080   54.0090 H   0  0  0  0  0  0  0  0  0  0  0  0
   42.6740   81.5770   54.4900 N   0  0  0  0  0  0  0  0  0  0  0  0
   42.4830   80.7890   53.8370 H   0  0  0  0  0  0  0  0  0  0  0  0
   41.8420   82.1700   55.3400 N   0  0  0  0  0  0  0  0  0  0  0  0
  1  2  1  0  0  0  0
  2  3  2  0  0  0  0
  2  7  1  0  0  0  0
  3  8  1  0  0  0  0
  4  9  1  0  0  0  0
  4  3  1  0  0  0  0
  5  4  2  0  0  0  0
  6  5  1  0  0  0  0
  6  1  2  0  0  0  0
 10  5  1  0  0  0  0
 11 12  2  0  0  0  0
 11 16  1  0  0  0  0
 12 13  1  0  0  0  0
 13 19  1  0  0  0  0
 13 14  2  0  0  0  0
 15 14  1  0  0  0  0
 15  1  1  0  0  0  0
 16 15  2  0  0  0  0
 17 11  1  0  0  0  0
 18 12  1  0  0  0  0
 20  6  1  0  0  0  0
 21 20  1  0  0  0  0
 21 26  1  0  0  0  0
 22 21  2  0  0  0  0
 23 24  2  0  0  0  0
 23 22  1  0  0  0  0
 24 25  1  0  0  0  0
 25 20  2  0  0  0  0
 27 22  1  0  0  0  0
 28 24  1  0  0  0  0
 29 30  1  0  0  0  0
 29 28  1  0  0  0  0
 31 29  2  0  0  0  0
 32 31  1  0  0  0  0
 33 31  1  0  0  0  0
 33 35  1  0  0  0  0
 34 33  1  0  0  0  0
 35 28  2  0  0  0  0
M  END
>  <minimizedAffinity>
-5.35424519

>  <minimizedRMSD>
0.318527669

$$$$
