
 OpenBabel03212521053D

 35 38  0  0  0  0  0  0  0  0999 V2000
   41.8340   84.2420   61.5640 C   0  0  0  0  0  0  0  0  0  0  0  0
   41.4650   83.9650   62.8750 C   0  0  0  0  0  0  0  0  0  0  0  0
   40.1930   83.5450   63.2110 C   0  0  0  0  0  0  0  0  0  0  0  0
   39.2430   83.3920   62.1960 C   0  0  0  0  0  0  0  0  0  0  0  0
   39.6080   83.6700   60.8740 C   0  0  0  0  0  0  0  0  0  0  0  0
   40.8840   84.0890   60.5590 C   0  0  0  0  0  0  0  0  0  0  0  0
   42.1450   84.0590   63.7150 H   0  0  0  0  0  0  0  0  0  0  0  0
   39.8840   83.3230   64.2240 H   0  0  0  0  0  0  0  0  0  0  0  0
   38.2200   83.0700   62.3500 H   0  0  0  0  0  0  0  0  0  0  0  0
   38.8840   83.5590   60.0760 H   0  0  0  0  0  0  0  0  0  0  0  0
   45.3720   84.1620   60.6700 C   0  0  0  0  0  0  0  0  0  0  0  0
   45.7430   85.4930   60.7310 C   0  0  0  0  0  0  0  0  0  0  0  0
   44.7660   86.4410   61.0850 C   0  0  0  0  0  0  0  0  0  0  0  0
   43.5100   85.9980   61.3480 N   0  0  0  0  0  0  0  0  0  0  0  0
   43.1750   84.6780   61.2790 C   0  0  0  0  0  0  0  0  0  0  0  0
   44.1020   83.7900   60.9440 N   0  0  0  0  0  0  0  0  0  0  0  0
   46.1520   83.4790   60.3950 H   0  0  0  0  0  0  0  0  0  0  0  0
   46.7080   85.9210   60.5390 H   0  0  0  0  0  0  0  0  0  0  0  0
   44.8710   87.5140   61.1830 H   0  0  0  0  0  0  0  0  0  0  0  0
   41.2110   84.3640   59.1790 C   0  0  0  0  0  0  0  0  0  0  0  0
   40.7760   85.6410   58.7930 C   0  0  0  0  0  0  0  0  0  0  0  0
   40.9900   86.1080   57.5010 C   0  0  0  0  0  0  0  0  0  0  0  0
   41.6290   85.2860   56.6490 N   0  0  0  0  0  0  0  0  0  0  0  0
   42.0440   84.0570   57.0340 C   0  0  0  0  0  0  0  0  0  0  0  0
   41.8470   83.5860   58.2780 N   0  0  0  0  0  0  0  0  0  0  0  0
   40.2560   86.3540   59.4260 H   0  0  0  0  0  0  0  0  0  0  0  0
   40.6690   87.0850   57.1640 H   0  0  0  0  0  0  0  0  0  0  0  0
   42.7250   83.2290   56.0640 C   0  0  0  0  0  0  0  0  0  0  0  0
   44.0310   82.7380   56.1580 C   0  0  0  0  0  0  0  0  0  0  0  0
   44.7220   82.9130   56.9810 H   0  0  0  0  0  0  0  0  0  0  0  0
   44.2690   81.9910   55.0030 C   0  0  0  0  0  0  0  0  0  0  0  0
   45.2030   81.4620   54.7540 H   0  0  0  0  0  0  0  0  0  0  0  0
   43.1320   82.0460   54.2570 N   0  0  0  0  0  0  0  0  0  0  0  0
   43.0460   81.5660   53.3380 H   0  0  0  0  0  0  0  0  0  0  0  0
   42.2270   82.7820   54.8960 N   0  0  0  0  0  0  0  0  0  0  0  0
  1  2  1  0  0  0  0
  2  3  2  0  0  0  0
  2  7  1  0  0  0  0
  3  8  1  0  0  0  0
  4  9  1  0  0  0  0
  4  3  1  0  0  0  0
  5  4  2  0  0  0  0
  6  5  1  0  0  0  0
  6  1  2  0  0  0  0
 10  5  1  0  0  0  0
 11 12  2  0  0  0  0
 11 16  1  0  0  0  0
 12 13  1  0  0  0  0
 13 19  1  0  0  0  0
 13 14  2  0  0  0  0
 15 14  1  0  0  0  0
 15  1  1  0  0  0  0
 16 15  2  0  0  0  0
 17 11  1  0  0  0  0
 18 12  1  0  0  0  0
 20  6  1  0  0  0  0
 21 20  1  0  0  0  0
 21 26  1  0  0  0  0
 22 21  2  0  0  0  0
 23 24  2  0  0  0  0
 23 22  1  0  0  0  0
 24 25  1  0  0  0  0
 25 20  2  0  0  0  0
 27 22  1  0  0  0  0
 28 29  1  0  0  0  0
 28 24  1  0  0  0  0
 29 30  1  0  0  0  0
 31 29  2  0  0  0  0
 32 31  1  0  0  0  0
 33 35  1  0  0  0  0
 33 31  1  0  0  0  0
 34 33  1  0  0  0  0
 35 28  2  0  0  0  0
M  END
>  <minimizedAffinity>
-5.31203651

>  <minimizedRMSD>
0.150317341

$$$$
