
 OpenBabel03212521063D

 35 38  0  0  0  0  0  0  0  0999 V2000
   41.8150   84.2420   61.5570 C   0  0  0  0  0  0  0  0  0  0  0  0
   41.4640   83.9360   62.8670 C   0  0  0  0  0  0  0  0  0  0  0  0
   40.1950   83.5160   63.2120 C   0  0  0  0  0  0  0  0  0  0  0  0
   39.2290   83.3930   62.2080 C   0  0  0  0  0  0  0  0  0  0  0  0
   39.5760   83.7000   60.8870 C   0  0  0  0  0  0  0  0  0  0  0  0
   40.8490   84.1180   60.5630 C   0  0  0  0  0  0  0  0  0  0  0  0
   42.1570   84.0060   63.6980 H   0  0  0  0  0  0  0  0  0  0  0  0
   39.8990   83.2730   64.2240 H   0  0  0  0  0  0  0  0  0  0  0  0
   38.2060   83.0730   62.3700 H   0  0  0  0  0  0  0  0  0  0  0  0
   38.8390   83.6110   60.0980 H   0  0  0  0  0  0  0  0  0  0  0  0
   45.3360   84.1620   60.5990 C   0  0  0  0  0  0  0  0  0  0  0  0
   45.7190   85.4870   60.6940 C   0  0  0  0  0  0  0  0  0  0  0  0
   44.7570   86.4320   61.0950 C   0  0  0  0  0  0  0  0  0  0  0  0
   43.5020   85.9900   61.3670 N   0  0  0  0  0  0  0  0  0  0  0  0
   43.1540   84.6750   61.2620 C   0  0  0  0  0  0  0  0  0  0  0  0
   44.0690   83.7920   60.8830 N   0  0  0  0  0  0  0  0  0  0  0  0
   46.1060   83.4820   60.2890 H   0  0  0  0  0  0  0  0  0  0  0  0
   46.6840   85.9140   60.4990 H   0  0  0  0  0  0  0  0  0  0  0  0
   44.8720   87.5000   61.2250 H   0  0  0  0  0  0  0  0  0  0  0  0
   41.1580   84.4230   59.1860 C   0  0  0  0  0  0  0  0  0  0  0  0
   40.7380   85.7160   58.8390 C   0  0  0  0  0  0  0  0  0  0  0  0
   40.9380   86.2130   57.5560 C   0  0  0  0  0  0  0  0  0  0  0  0
   41.5490   85.4020   56.6730 N   0  0  0  0  0  0  0  0  0  0  0  0
   41.9490   84.1570   57.0190 C   0  0  0  0  0  0  0  0  0  0  0  0
   41.7650   83.6580   58.2540 N   0  0  0  0  0  0  0  0  0  0  0  0
   40.2410   86.4210   59.4990 H   0  0  0  0  0  0  0  0  0  0  0  0
   40.6280   87.2030   57.2500 H   0  0  0  0  0  0  0  0  0  0  0  0
   42.5990   83.3420   56.0160 C   0  0  0  0  0  0  0  0  0  0  0  0
   42.6360   83.5910   54.6400 C   0  0  0  0  0  0  0  0  0  0  0  0
   42.1780   84.4360   54.1290 H   0  0  0  0  0  0  0  0  0  0  0  0
   43.3660   82.5520   54.0590 C   0  0  0  0  0  0  0  0  0  0  0  0
   43.5890   82.4360   52.9880 H   0  0  0  0  0  0  0  0  0  0  0  0
   43.7440   81.7230   55.0710 N   0  0  0  0  0  0  0  0  0  0  0  0
   44.3050   80.8630   54.9050 H   0  0  0  0  0  0  0  0  0  0  0  0
   43.2840   82.2030   56.2230 N   0  0  0  0  0  0  0  0  0  0  0  0
  1  2  1  0  0  0  0
  2  3  2  0  0  0  0
  2  7  1  0  0  0  0
  3  8  1  0  0  0  0
  4  9  1  0  0  0  0
  4  3  1  0  0  0  0
  5  4  2  0  0  0  0
  6  5  1  0  0  0  0
  6  1  2  0  0  0  0
 10  5  1  0  0  0  0
 11 12  2  0  0  0  0
 11 16  1  0  0  0  0
 12 13  1  0  0  0  0
 13 19  1  0  0  0  0
 13 14  2  0  0  0  0
 15 14  1  0  0  0  0
 15  1  1  0  0  0  0
 16 15  2  0  0  0  0
 17 11  1  0  0  0  0
 18 12  1  0  0  0  0
 20  6  1  0  0  0  0
 21 20  1  0  0  0  0
 21 26  1  0  0  0  0
 22 21  2  0  0  0  0
 23 24  2  0  0  0  0
 23 22  1  0  0  0  0
 24 25  1  0  0  0  0
 25 20  2  0  0  0  0
 27 22  1  0  0  0  0
 28 35  2  0  0  0  0
 28 24  1  0  0  0  0
 29 28  1  0  0  0  0
 30 29  1  0  0  0  0
 31 29  2  0  0  0  0
 31 33  1  0  0  0  0
 32 31  1  0  0  0  0
 33 35  1  0  0  0  0
 34 33  1  0  0  0  0
M  END
>  <minimizedAffinity>
-5.34507227

>  <minimizedRMSD>
0.332795829

$$$$
