
 OpenBabel03212521053D

 35 38  0  0  0  0  0  0  0  0999 V2000
   41.8100   84.2430   61.5560 C   0  0  0  0  0  0  0  0  0  0  0  0
   41.4560   83.9410   62.8660 C   0  0  0  0  0  0  0  0  0  0  0  0
   40.1860   83.5230   63.2100 C   0  0  0  0  0  0  0  0  0  0  0  0
   39.2220   83.3990   62.2040 C   0  0  0  0  0  0  0  0  0  0  0  0
   39.5720   83.7010   60.8830 C   0  0  0  0  0  0  0  0  0  0  0  0
   40.8460   84.1170   60.5600 C   0  0  0  0  0  0  0  0  0  0  0  0
   42.1470   84.0130   63.6990 H   0  0  0  0  0  0  0  0  0  0  0  0
   39.8880   83.2830   64.2220 H   0  0  0  0  0  0  0  0  0  0  0  0
   38.1990   83.0810   62.3640 H   0  0  0  0  0  0  0  0  0  0  0  0
   38.8370   83.6110   60.0930 H   0  0  0  0  0  0  0  0  0  0  0  0
   45.3340   84.1560   60.6050 C   0  0  0  0  0  0  0  0  0  0  0  0
   45.7180   85.4810   60.6980 C   0  0  0  0  0  0  0  0  0  0  0  0
   44.7560   86.4280   61.0950 C   0  0  0  0  0  0  0  0  0  0  0  0
   43.5000   85.9890   61.3650 N   0  0  0  0  0  0  0  0  0  0  0  0
   43.1510   84.6740   61.2630 C   0  0  0  0  0  0  0  0  0  0  0  0
   44.0650   83.7880   60.8880 N   0  0  0  0  0  0  0  0  0  0  0  0
   46.1030   83.4750   60.2980 H   0  0  0  0  0  0  0  0  0  0  0  0
   46.6840   85.9060   60.5040 H   0  0  0  0  0  0  0  0  0  0  0  0
   44.8730   87.4960   61.2230 H   0  0  0  0  0  0  0  0  0  0  0  0
   41.1580   84.4180   59.1830 C   0  0  0  0  0  0  0  0  0  0  0  0
   40.7440   85.7120   58.8330 C   0  0  0  0  0  0  0  0  0  0  0  0
   40.9470   86.2060   57.5490 C   0  0  0  0  0  0  0  0  0  0  0  0
   41.5560   85.3910   56.6680 N   0  0  0  0  0  0  0  0  0  0  0  0
   41.9520   84.1450   57.0180 C   0  0  0  0  0  0  0  0  0  0  0  0
   41.7640   83.6490   58.2540 N   0  0  0  0  0  0  0  0  0  0  0  0
   40.2480   86.4200   59.4910 H   0  0  0  0  0  0  0  0  0  0  0  0
   40.6410   87.1960   57.2410 H   0  0  0  0  0  0  0  0  0  0  0  0
   42.6010   83.3270   56.0180 C   0  0  0  0  0  0  0  0  0  0  0  0
   42.5650   81.9320   55.9330 C   0  0  0  0  0  0  0  0  0  0  0  0
   42.0410   81.2620   56.6140 H   0  0  0  0  0  0  0  0  0  0  0  0
   43.3250   81.5720   54.8190 C   0  0  0  0  0  0  0  0  0  0  0  0
   43.5070   80.5460   54.4620 H   0  0  0  0  0  0  0  0  0  0  0  0
   43.7900   82.7280   54.2700 N   0  0  0  0  0  0  0  0  0  0  0  0
   44.3890   82.7380   53.4190 H   0  0  0  0  0  0  0  0  0  0  0  0
   43.3550   83.7580   54.9890 N   0  0  0  0  0  0  0  0  0  0  0  0
  1  2  1  0  0  0  0
  2  3  2  0  0  0  0
  2  7  1  0  0  0  0
  3  8  1  0  0  0  0
  4  9  1  0  0  0  0
  4  3  1  0  0  0  0
  5  4  2  0  0  0  0
  6  5  1  0  0  0  0
  6  1  2  0  0  0  0
 10  5  1  0  0  0  0
 11 12  2  0  0  0  0
 11 16  1  0  0  0  0
 12 13  1  0  0  0  0
 13 19  1  0  0  0  0
 13 14  2  0  0  0  0
 15 14  1  0  0  0  0
 15  1  1  0  0  0  0
 16 15  2  0  0  0  0
 17 11  1  0  0  0  0
 18 12  1  0  0  0  0
 20  6  1  0  0  0  0
 21 20  1  0  0  0  0
 21 26  1  0  0  0  0
 22 21  2  0  0  0  0
 23 24  2  0  0  0  0
 23 22  1  0  0  0  0
 24 25  1  0  0  0  0
 25 20  2  0  0  0  0
 27 22  1  0  0  0  0
 28 24  1  0  0  0  0
 29 28  1  0  0  0  0
 29 30  1  0  0  0  0
 31 29  2  0  0  0  0
 32 31  1  0  0  0  0
 33 31  1  0  0  0  0
 33 35  1  0  0  0  0
 34 33  1  0  0  0  0
 35 28  2  0  0  0  0
M  END
>  <minimizedAffinity>
-5.2755723

>  <minimizedRMSD>
0.245061651

$$$$
