
 OpenBabel03212521053D

 35 38  0  0  0  0  0  0  0  0999 V2000
   41.7960   84.1690   61.5630 C   0  0  0  0  0  0  0  0  0  0  0  0
   41.4270   83.9050   62.8770 C   0  0  0  0  0  0  0  0  0  0  0  0
   40.1380   83.5580   63.2270 C   0  0  0  0  0  0  0  0  0  0  0  0
   39.1680   83.4680   62.2230 C   0  0  0  0  0  0  0  0  0  0  0  0
   39.5320   83.7310   60.8980 C   0  0  0  0  0  0  0  0  0  0  0  0
   40.8260   84.0770   60.5690 C   0  0  0  0  0  0  0  0  0  0  0  0
   42.1220   83.9550   63.7090 H   0  0  0  0  0  0  0  0  0  0  0  0
   39.8280   83.3500   64.2420 H   0  0  0  0  0  0  0  0  0  0  0  0
   38.1300   83.2040   62.3880 H   0  0  0  0  0  0  0  0  0  0  0  0
   38.7930   83.6660   60.1090 H   0  0  0  0  0  0  0  0  0  0  0  0
   45.2940   83.8980   60.5530 C   0  0  0  0  0  0  0  0  0  0  0  0
   45.7610   85.1930   60.6860 C   0  0  0  0  0  0  0  0  0  0  0  0
   44.8650   86.1830   61.1290 C   0  0  0  0  0  0  0  0  0  0  0  0
   43.5870   85.8130   61.4050 N   0  0  0  0  0  0  0  0  0  0  0  0
   43.1560   84.5260   61.2630 C   0  0  0  0  0  0  0  0  0  0  0  0
   44.0080   83.6000   60.8440 N   0  0  0  0  0  0  0  0  0  0  0  0
   46.0150   83.1820   60.2120 H   0  0  0  0  0  0  0  0  0  0  0  0
   46.7480   85.5640   60.4900 H   0  0  0  0  0  0  0  0  0  0  0  0
   45.0490   87.2370   61.2910 H   0  0  0  0  0  0  0  0  0  0  0  0
   41.1520   84.3400   59.1870 C   0  0  0  0  0  0  0  0  0  0  0  0
   40.9240   85.6830   58.8520 C   0  0  0  0  0  0  0  0  0  0  0  0
   41.1720   86.1520   57.5670 C   0  0  0  0  0  0  0  0  0  0  0  0
   41.6400   85.2640   56.6700 N   0  0  0  0  0  0  0  0  0  0  0  0
   41.8570   83.9720   57.0050 C   0  0  0  0  0  0  0  0  0  0  0  0
   41.6220   83.4980   58.2420 N   0  0  0  0  0  0  0  0  0  0  0  0
   40.5490   86.4510   59.5230 H   0  0  0  0  0  0  0  0  0  0  0  0
   41.0080   87.1780   57.2690 H   0  0  0  0  0  0  0  0  0  0  0  0
   42.3600   83.0750   55.9880 C   0  0  0  0  0  0  0  0  0  0  0  0
   41.7140   81.9430   55.4840 C   0  0  0  0  0  0  0  0  0  0  0  0
   40.7360   81.5740   55.7900 H   0  0  0  0  0  0  0  0  0  0  0  0
   42.5610   81.3840   54.5250 C   0  0  0  0  0  0  0  0  0  0  0  0
   42.3600   80.4800   53.9300 H   0  0  0  0  0  0  0  0  0  0  0  0
   43.6700   82.1720   54.4730 N   0  0  0  0  0  0  0  0  0  0  0  0
   44.4650   81.9740   53.8300 H   0  0  0  0  0  0  0  0  0  0  0  0
   43.5380   83.1690   55.3430 N   0  0  0  0  0  0  0  0  0  0  0  0
  1  2  1  0  0  0  0
  2  3  2  0  0  0  0
  2  7  1  0  0  0  0
  3  8  1  0  0  0  0
  4  9  1  0  0  0  0
  4  3  1  0  0  0  0
  5  4  2  0  0  0  0
  6  5  1  0  0  0  0
  6  1  2  0  0  0  0
 10  5  1  0  0  0  0
 11 12  2  0  0  0  0
 11 16  1  0  0  0  0
 12 13  1  0  0  0  0
 13 19  1  0  0  0  0
 13 14  2  0  0  0  0
 15 14  1  0  0  0  0
 15  1  1  0  0  0  0
 16 15  2  0  0  0  0
 17 11  1  0  0  0  0
 18 12  1  0  0  0  0
 20  6  1  0  0  0  0
 21 20  1  0  0  0  0
 21 26  1  0  0  0  0
 22 21  2  0  0  0  0
 23 24  2  0  0  0  0
 23 22  1  0  0  0  0
 24 25  1  0  0  0  0
 25 20  2  0  0  0  0
 27 22  1  0  0  0  0
 28 24  1  0  0  0  0
 29 30  1  0  0  0  0
 29 28  1  0  0  0  0
 31 29  2  0  0  0  0
 32 31  1  0  0  0  0
 33 31  1  0  0  0  0
 33 35  1  0  0  0  0
 34 33  1  0  0  0  0
 35 28  2  0  0  0  0
M  END
>  <minimizedAffinity>
-5.37915325

>  <minimizedRMSD>
0.437425137

$$$$
