
 OpenBabel03212521063D

 35 38  0  0  0  0  0  0  0  0999 V2000
   41.8160   84.2390   61.5610 C   0  0  0  0  0  0  0  0  0  0  0  0
   41.4690   83.9270   62.8700 C   0  0  0  0  0  0  0  0  0  0  0  0
   40.2010   83.5060   63.2170 C   0  0  0  0  0  0  0  0  0  0  0  0
   39.2310   83.3890   62.2150 C   0  0  0  0  0  0  0  0  0  0  0  0
   39.5740   83.7010   60.8950 C   0  0  0  0  0  0  0  0  0  0  0  0
   40.8470   84.1200   60.5690 C   0  0  0  0  0  0  0  0  0  0  0  0
   42.1640   83.9930   63.7000 H   0  0  0  0  0  0  0  0  0  0  0  0
   39.9080   83.2590   64.2290 H   0  0  0  0  0  0  0  0  0  0  0  0
   38.2090   83.0690   62.3780 H   0  0  0  0  0  0  0  0  0  0  0  0
   38.8360   83.6170   60.1080 H   0  0  0  0  0  0  0  0  0  0  0  0
   45.3400   84.1580   60.6110 C   0  0  0  0  0  0  0  0  0  0  0  0
   45.7190   85.4850   60.6920 C   0  0  0  0  0  0  0  0  0  0  0  0
   44.7530   86.4310   61.0800 C   0  0  0  0  0  0  0  0  0  0  0  0
   43.4980   85.9900   61.3540 N   0  0  0  0  0  0  0  0  0  0  0  0
   43.1550   84.6730   61.2640 C   0  0  0  0  0  0  0  0  0  0  0  0
   44.0730   83.7870   60.8970 N   0  0  0  0  0  0  0  0  0  0  0  0
   46.1120   83.4770   60.3110 H   0  0  0  0  0  0  0  0  0  0  0  0
   46.6830   85.9120   60.4940 H   0  0  0  0  0  0  0  0  0  0  0  0
   44.8650   87.5010   61.1980 H   0  0  0  0  0  0  0  0  0  0  0  0
   41.1520   84.4320   59.1920 C   0  0  0  0  0  0  0  0  0  0  0  0
   40.7090   85.7170   58.8460 C   0  0  0  0  0  0  0  0  0  0  0  0
   40.9020   86.2180   57.5630 C   0  0  0  0  0  0  0  0  0  0  0  0
   41.5280   85.4190   56.6800 N   0  0  0  0  0  0  0  0  0  0  0  0
   41.9510   84.1820   57.0270 C   0  0  0  0  0  0  0  0  0  0  0  0
   41.7740   83.6780   58.2610 N   0  0  0  0  0  0  0  0  0  0  0  0
   40.1980   86.4120   59.5050 H   0  0  0  0  0  0  0  0  0  0  0  0
   40.5740   87.2020   57.2570 H   0  0  0  0  0  0  0  0  0  0  0  0
   42.6170   83.3800   56.0240 C   0  0  0  0  0  0  0  0  0  0  0  0
   43.0200   82.0480   56.1570 C   0  0  0  0  0  0  0  0  0  0  0  0
   42.8890   81.4240   57.0390 H   0  0  0  0  0  0  0  0  0  0  0  0
   43.6180   81.6820   54.9490 C   0  0  0  0  0  0  0  0  0  0  0  0
   44.0470   80.6960   54.7100 H   0  0  0  0  0  0  0  0  0  0  0  0
   43.5630   82.7730   54.1360 N   0  0  0  0  0  0  0  0  0  0  0  0
   43.9440   82.7640   53.1680 H   0  0  0  0  0  0  0  0  0  0  0  0
   42.9690   83.7700   54.7840 N   0  0  0  0  0  0  0  0  0  0  0  0
  1  2  1  0  0  0  0
  2  3  2  0  0  0  0
  2  7  1  0  0  0  0
  3  8  1  0  0  0  0
  4  9  1  0  0  0  0
  4  3  1  0  0  0  0
  5  4  2  0  0  0  0
  6  5  1  0  0  0  0
  6  1  2  0  0  0  0
 10  5  1  0  0  0  0
 11 12  2  0  0  0  0
 11 16  1  0  0  0  0
 12 13  1  0  0  0  0
 13 19  1  0  0  0  0
 13 14  2  0  0  0  0
 15 14  1  0  0  0  0
 15  1  1  0  0  0  0
 16 15  2  0  0  0  0
 17 11  1  0  0  0  0
 18 12  1  0  0  0  0
 20  6  1  0  0  0  0
 21 20  1  0  0  0  0
 21 26  1  0  0  0  0
 22 21  2  0  0  0  0
 23 24  2  0  0  0  0
 23 22  1  0  0  0  0
 24 25  1  0  0  0  0
 25 20  2  0  0  0  0
 27 22  1  0  0  0  0
 28 29  1  0  0  0  0
 28 24  1  0  0  0  0
 29 30  1  0  0  0  0
 31 29  2  0  0  0  0
 32 31  1  0  0  0  0
 33 35  1  0  0  0  0
 33 31  1  0  0  0  0
 34 33  1  0  0  0  0
 35 28  2  0  0  0  0
M  END
>  <minimizedAffinity>
-5.28423119

>  <minimizedRMSD>
0.246640474

$$$$
