
 OpenBabel03212521063D

 35 38  0  0  0  0  0  0  0  0999 V2000
   41.8170   84.2450   61.5610 C   0  0  0  0  0  0  0  0  0  0  0  0
   41.4520   83.9630   62.8730 C   0  0  0  0  0  0  0  0  0  0  0  0
   40.1800   83.5470   63.2120 C   0  0  0  0  0  0  0  0  0  0  0  0
   39.2250   83.4040   62.2000 C   0  0  0  0  0  0  0  0  0  0  0  0
   39.5850   83.6870   60.8770 C   0  0  0  0  0  0  0  0  0  0  0  0
   40.8620   84.1010   60.5590 C   0  0  0  0  0  0  0  0  0  0  0  0
   42.1360   84.0500   63.7090 H   0  0  0  0  0  0  0  0  0  0  0  0
   39.8740   83.3220   64.2250 H   0  0  0  0  0  0  0  0  0  0  0  0
   38.2010   83.0860   62.3560 H   0  0  0  0  0  0  0  0  0  0  0  0
   38.8570   83.5820   60.0820 H   0  0  0  0  0  0  0  0  0  0  0  0
   45.3470   84.1530   60.6370 C   0  0  0  0  0  0  0  0  0  0  0  0
   45.7280   85.4810   60.7160 C   0  0  0  0  0  0  0  0  0  0  0  0
   44.7620   86.4300   61.0930 C   0  0  0  0  0  0  0  0  0  0  0  0
   43.5040   85.9920   61.3600 N   0  0  0  0  0  0  0  0  0  0  0  0
   43.1590   84.6750   61.2720 C   0  0  0  0  0  0  0  0  0  0  0  0
   44.0770   83.7870   60.9150 N   0  0  0  0  0  0  0  0  0  0  0  0
   46.1200   83.4700   60.3450 H   0  0  0  0  0  0  0  0  0  0  0  0
   46.6950   85.9050   60.5240 H   0  0  0  0  0  0  0  0  0  0  0  0
   44.8750   87.5000   61.2090 H   0  0  0  0  0  0  0  0  0  0  0  0
   41.1850   84.3810   59.1790 C   0  0  0  0  0  0  0  0  0  0  0  0
   40.7730   85.6690   58.8070 C   0  0  0  0  0  0  0  0  0  0  0  0
   40.9870   86.1430   57.5170 C   0  0  0  0  0  0  0  0  0  0  0  0
   41.6030   85.3150   56.6540 N   0  0  0  0  0  0  0  0  0  0  0  0
   41.9960   84.0750   57.0260 C   0  0  0  0  0  0  0  0  0  0  0  0
   41.7980   83.5980   58.2670 N   0  0  0  0  0  0  0  0  0  0  0  0
   40.2720   86.3870   59.4490 H   0  0  0  0  0  0  0  0  0  0  0  0
   40.6840   87.1290   57.1910 H   0  0  0  0  0  0  0  0  0  0  0  0
   42.6520   83.2410   56.0430 C   0  0  0  0  0  0  0  0  0  0  0  0
   44.0310   83.0870   55.8700 C   0  0  0  0  0  0  0  0  0  0  0  0
   44.8080   83.5760   56.4560 H   0  0  0  0  0  0  0  0  0  0  0  0
   44.2120   82.1940   54.8130 C   0  0  0  0  0  0  0  0  0  0  0  0
   45.1780   81.8500   54.4120 H   0  0  0  0  0  0  0  0  0  0  0  0
   42.9700   81.8380   54.3820 N   0  0  0  0  0  0  0  0  0  0  0  0
   42.8240   81.1740   53.5940 H   0  0  0  0  0  0  0  0  0  0  0  0
   42.0570   82.4650   55.1180 N   0  0  0  0  0  0  0  0  0  0  0  0
  1  2  1  0  0  0  0
  2  3  2  0  0  0  0
  2  7  1  0  0  0  0
  3  8  1  0  0  0  0
  4  9  1  0  0  0  0
  4  3  1  0  0  0  0
  5  4  2  0  0  0  0
  6  5  1  0  0  0  0
  6  1  2  0  0  0  0
 10  5  1  0  0  0  0
 11 12  2  0  0  0  0
 11 16  1  0  0  0  0
 12 13  1  0  0  0  0
 13 19  1  0  0  0  0
 13 14  2  0  0  0  0
 15 14  1  0  0  0  0
 15  1  1  0  0  0  0
 16 15  2  0  0  0  0
 17 11  1  0  0  0  0
 18 12  1  0  0  0  0
 20  6  1  0  0  0  0
 21 20  1  0  0  0  0
 21 26  1  0  0  0  0
 22 21  2  0  0  0  0
 23 24  2  0  0  0  0
 23 22  1  0  0  0  0
 24 25  1  0  0  0  0
 25 20  2  0  0  0  0
 27 22  1  0  0  0  0
 28 24  1  0  0  0  0
 29 28  1  0  0  0  0
 29 30  1  0  0  0  0
 31 29  2  0  0  0  0
 32 31  1  0  0  0  0
 33 31  1  0  0  0  0
 33 35  1  0  0  0  0
 34 33  1  0  0  0  0
 35 28  2  0  0  0  0
M  END
>  <minimizedAffinity>
-5.32483006

>  <minimizedRMSD>
0.193142593

$$$$
