
 OpenBabel03212521053D

 35 38  0  0  0  0  0  0  0  0999 V2000
   41.8150   84.2390   61.5510 C   0  0  0  0  0  0  0  0  0  0  0  0
   41.4660   83.9330   62.8620 C   0  0  0  0  0  0  0  0  0  0  0  0
   40.1980   83.5130   63.2090 C   0  0  0  0  0  0  0  0  0  0  0  0
   39.2310   83.3880   62.2060 C   0  0  0  0  0  0  0  0  0  0  0  0
   39.5760   83.6940   60.8850 C   0  0  0  0  0  0  0  0  0  0  0  0
   40.8480   84.1130   60.5580 C   0  0  0  0  0  0  0  0  0  0  0  0
   42.1600   84.0050   63.6920 H   0  0  0  0  0  0  0  0  0  0  0  0
   39.9040   83.2700   64.2210 H   0  0  0  0  0  0  0  0  0  0  0  0
   38.2090   83.0670   62.3700 H   0  0  0  0  0  0  0  0  0  0  0  0
   38.8380   83.6030   60.0970 H   0  0  0  0  0  0  0  0  0  0  0  0
   45.3310   84.1640   60.5700 C   0  0  0  0  0  0  0  0  0  0  0  0
   45.7170   85.4870   60.6820 C   0  0  0  0  0  0  0  0  0  0  0  0
   44.7600   86.4280   61.1010 C   0  0  0  0  0  0  0  0  0  0  0  0
   43.5050   85.9860   61.3740 N   0  0  0  0  0  0  0  0  0  0  0  0
   43.1540   84.6730   61.2540 C   0  0  0  0  0  0  0  0  0  0  0  0
   44.0640   83.7930   60.8570 N   0  0  0  0  0  0  0  0  0  0  0  0
   46.0970   83.4870   60.2460 H   0  0  0  0  0  0  0  0  0  0  0  0
   46.6820   85.9140   60.4860 H   0  0  0  0  0  0  0  0  0  0  0  0
   44.8780   87.4940   61.2450 H   0  0  0  0  0  0  0  0  0  0  0  0
   41.1550   84.4170   59.1800 C   0  0  0  0  0  0  0  0  0  0  0  0
   40.7760   85.7260   58.8460 C   0  0  0  0  0  0  0  0  0  0  0  0
   40.9820   86.2250   57.5650 C   0  0  0  0  0  0  0  0  0  0  0  0
   41.5560   85.4000   56.6700 N   0  0  0  0  0  0  0  0  0  0  0  0
   41.9170   84.1400   57.0050 C   0  0  0  0  0  0  0  0  0  0  0  0
   41.7270   83.6380   58.2380 N   0  0  0  0  0  0  0  0  0  0  0  0
   40.3090   86.4430   59.5160 H   0  0  0  0  0  0  0  0  0  0  0  0
   40.7030   87.2270   57.2690 H   0  0  0  0  0  0  0  0  0  0  0  0
   42.5300   83.3110   55.9910 C   0  0  0  0  0  0  0  0  0  0  0  0
   42.6560   83.6170   54.6320 C   0  0  0  0  0  0  0  0  0  0  0  0
   42.3080   84.5270   54.1450 H   0  0  0  0  0  0  0  0  0  0  0  0
   43.3060   82.5380   54.0300 C   0  0  0  0  0  0  0  0  0  0  0  0
   43.5650   82.4490   52.9640 H   0  0  0  0  0  0  0  0  0  0  0  0
   43.5530   81.6290   55.0140 N   0  0  0  0  0  0  0  0  0  0  0  0
   44.0340   80.7260   54.8290 H   0  0  0  0  0  0  0  0  0  0  0  0
   43.0880   82.0990   56.1680 N   0  0  0  0  0  0  0  0  0  0  0  0
  1  2  1  0  0  0  0
  2  3  2  0  0  0  0
  2  7  1  0  0  0  0
  3  8  1  0  0  0  0
  4  9  1  0  0  0  0
  4  3  1  0  0  0  0
  5  4  2  0  0  0  0
  6  5  1  0  0  0  0
  6  1  2  0  0  0  0
 10  5  1  0  0  0  0
 11 12  2  0  0  0  0
 11 16  1  0  0  0  0
 12 13  1  0  0  0  0
 13 19  1  0  0  0  0
 13 14  2  0  0  0  0
 15 14  1  0  0  0  0
 15  1  1  0  0  0  0
 16 15  2  0  0  0  0
 17 11  1  0  0  0  0
 18 12  1  0  0  0  0
 20  6  1  0  0  0  0
 21 20  1  0  0  0  0
 21 26  1  0  0  0  0
 22 21  2  0  0  0  0
 23 24  2  0  0  0  0
 23 22  1  0  0  0  0
 24 25  1  0  0  0  0
 25 20  2  0  0  0  0
 27 22  1  0  0  0  0
 28 35  2  0  0  0  0
 28 24  1  0  0  0  0
 29 28  1  0  0  0  0
 30 29  1  0  0  0  0
 31 29  2  0  0  0  0
 31 33  1  0  0  0  0
 32 31  1  0  0  0  0
 33 35  1  0  0  0  0
 34 33  1  0  0  0  0
M  END
>  <minimizedAffinity>
-5.345047

>  <minimizedRMSD>
0.39926061

$$$$
