
 OpenBabel03212521063D

 35 38  0  0  0  0  0  0  0  0999 V2000
   41.8150   84.2400   61.5670 C   0  0  0  0  0  0  0  0  0  0  0  0
   41.4540   83.9650   62.8810 C   0  0  0  0  0  0  0  0  0  0  0  0
   40.1840   83.5500   63.2260 C   0  0  0  0  0  0  0  0  0  0  0  0
   39.2260   83.3990   62.2170 C   0  0  0  0  0  0  0  0  0  0  0  0
   39.5830   83.6750   60.8920 C   0  0  0  0  0  0  0  0  0  0  0  0
   40.8580   84.0890   60.5680 C   0  0  0  0  0  0  0  0  0  0  0  0
   42.1400   84.0580   63.7150 H   0  0  0  0  0  0  0  0  0  0  0  0
   39.8810   83.3310   64.2410 H   0  0  0  0  0  0  0  0  0  0  0  0
   38.2040   83.0800   62.3790 H   0  0  0  0  0  0  0  0  0  0  0  0
   38.8530   83.5640   60.1000 H   0  0  0  0  0  0  0  0  0  0  0  0
   45.3380   84.1510   60.6130 C   0  0  0  0  0  0  0  0  0  0  0  0
   45.7220   85.4760   60.7040 C   0  0  0  0  0  0  0  0  0  0  0  0
   44.7610   86.4240   61.1000 C   0  0  0  0  0  0  0  0  0  0  0  0
   43.5050   85.9850   61.3720 N   0  0  0  0  0  0  0  0  0  0  0  0
   43.1560   84.6700   61.2720 C   0  0  0  0  0  0  0  0  0  0  0  0
   44.0690   83.7840   60.8970 N   0  0  0  0  0  0  0  0  0  0  0  0
   46.1070   83.4690   60.3060 H   0  0  0  0  0  0  0  0  0  0  0  0
   46.6880   85.9010   60.5080 H   0  0  0  0  0  0  0  0  0  0  0  0
   44.8780   87.4920   61.2270 H   0  0  0  0  0  0  0  0  0  0  0  0
   41.1770   84.3610   59.1860 C   0  0  0  0  0  0  0  0  0  0  0  0
   40.8110   85.6660   58.8220 C   0  0  0  0  0  0  0  0  0  0  0  0
   41.0290   86.1350   57.5320 C   0  0  0  0  0  0  0  0  0  0  0  0
   41.6040   85.2870   56.6590 N   0  0  0  0  0  0  0  0  0  0  0  0
   41.9520   84.0320   57.0230 C   0  0  0  0  0  0  0  0  0  0  0  0
   41.7490   83.5580   58.2650 N   0  0  0  0  0  0  0  0  0  0  0  0
   40.3450   86.4000   59.4720 H   0  0  0  0  0  0  0  0  0  0  0  0
   40.7610   87.1330   57.2120 H   0  0  0  0  0  0  0  0  0  0  0  0
   42.5660   83.1770   56.0310 C   0  0  0  0  0  0  0  0  0  0  0  0
   41.9320   82.1750   55.2900 C   0  0  0  0  0  0  0  0  0  0  0  0
   40.8820   81.8960   55.3580 H   0  0  0  0  0  0  0  0  0  0  0  0
   42.9000   81.6090   54.4570 C   0  0  0  0  0  0  0  0  0  0  0  0
   42.7390   80.7900   53.7400 H   0  0  0  0  0  0  0  0  0  0  0  0
   44.0660   82.2660   54.7080 N   0  0  0  0  0  0  0  0  0  0  0  0
   44.9520   82.0360   54.2130 H   0  0  0  0  0  0  0  0  0  0  0  0
   43.8530   83.1910   55.6400 N   0  0  0  0  0  0  0  0  0  0  0  0
  1  2  1  0  0  0  0
  2  3  2  0  0  0  0
  2  7  1  0  0  0  0
  3  8  1  0  0  0  0
  4  9  1  0  0  0  0
  4  3  1  0  0  0  0
  5  4  2  0  0  0  0
  6  5  1  0  0  0  0
  6  1  2  0  0  0  0
 10  5  1  0  0  0  0
 11 12  2  0  0  0  0
 11 16  1  0  0  0  0
 12 13  1  0  0  0  0
 13 19  1  0  0  0  0
 13 14  2  0  0  0  0
 15 14  1  0  0  0  0
 15  1  1  0  0  0  0
 16 15  2  0  0  0  0
 17 11  1  0  0  0  0
 18 12  1  0  0  0  0
 20  6  1  0  0  0  0
 21 20  1  0  0  0  0
 21 26  1  0  0  0  0
 22 21  2  0  0  0  0
 23 24  2  0  0  0  0
 23 22  1  0  0  0  0
 24 25  1  0  0  0  0
 25 20  2  0  0  0  0
 27 22  1  0  0  0  0
 28 24  1  0  0  0  0
 29 30  1  0  0  0  0
 29 28  1  0  0  0  0
 31 33  1  0  0  0  0
 31 29  2  0  0  0  0
 32 31  1  0  0  0  0
 33 35  1  0  0  0  0
 34 33  1  0  0  0  0
 35 28  2  0  0  0  0
M  END
>  <minimizedAffinity>
-5.37897253

>  <minimizedRMSD>
0.25065276

$$$$
