
 OpenBabel03212521083D

 35 38  0  0  0  0  0  0  0  0999 V2000
   40.0490   75.0830   58.1960 C   0  0  0  0  0  0  0  0  0  0  0  0
   39.1660   76.0220   57.6760 C   0  0  0  0  0  0  0  0  0  0  0  0
   39.0320   77.2860   58.2150 C   0  0  0  0  0  0  0  0  0  0  0  0
   39.8140   77.6340   59.3220 C   0  0  0  0  0  0  0  0  0  0  0  0
   40.7050   76.6920   59.8500 C   0  0  0  0  0  0  0  0  0  0  0  0
   40.8240   75.4340   59.2970 C   0  0  0  0  0  0  0  0  0  0  0  0
   38.5280   75.8270   56.8210 H   0  0  0  0  0  0  0  0  0  0  0  0
   38.3520   78.0330   57.8280 H   0  0  0  0  0  0  0  0  0  0  0  0
   39.7870   78.5950   59.8200 H   0  0  0  0  0  0  0  0  0  0  0  0
   41.3170   76.9450   60.7070 H   0  0  0  0  0  0  0  0  0  0  0  0
   39.3530   71.5890   57.3980 C   0  0  0  0  0  0  0  0  0  0  0  0
   40.3040   71.2890   56.4400 C   0  0  0  0  0  0  0  0  0  0  0  0
   41.2050   72.2980   56.0560 C   0  0  0  0  0  0  0  0  0  0  0  0
   41.0920   73.5160   56.6480 N   0  0  0  0  0  0  0  0  0  0  0  0
   40.1420   73.7810   57.5890 C   0  0  0  0  0  0  0  0  0  0  0  0
   39.2960   72.8230   57.9450 N   0  0  0  0  0  0  0  0  0  0  0  0
   38.6900   70.7860   57.6550 H   0  0  0  0  0  0  0  0  0  0  0  0
   40.4590   70.3580   55.9290 H   0  0  0  0  0  0  0  0  0  0  0  0
   42.0070   72.2480   55.3320 H   0  0  0  0  0  0  0  0  0  0  0  0
   41.7570   74.4980   59.8780 C   0  0  0  0  0  0  0  0  0  0  0  0
   43.0810   74.8120   59.5340 C   0  0  0  0  0  0  0  0  0  0  0  0
   44.1410   74.0360   59.9890 C   0  0  0  0  0  0  0  0  0  0  0  0
   43.8390   72.9810   60.7680 N   0  0  0  0  0  0  0  0  0  0  0  0
   42.5580   72.6890   61.0930 C   0  0  0  0  0  0  0  0  0  0  0  0
   41.5190   73.4260   60.6630 N   0  0  0  0  0  0  0  0  0  0  0  0
   43.3960   75.6440   58.9120 H   0  0  0  0  0  0  0  0  0  0  0  0
   45.1740   74.2440   59.7460 H   0  0  0  0  0  0  0  0  0  0  0  0
   42.3100   71.5390   61.9340 C   0  0  0  0  0  0  0  0  0  0  0  0
   42.9640   70.3050   61.8700 C   0  0  0  0  0  0  0  0  0  0  0  0
   43.7570   70.0360   61.1740 H   0  0  0  0  0  0  0  0  0  0  0  0
   42.4070   69.4960   62.8630 C   0  0  0  0  0  0  0  0  0  0  0  0
   42.6910   68.4570   63.0880 H   0  0  0  0  0  0  0  0  0  0  0  0
   41.4530   70.2410   63.4870 N   0  0  0  0  0  0  0  0  0  0  0  0
   40.8820   69.8690   64.2730 H   0  0  0  0  0  0  0  0  0  0  0  0
   41.4060   71.4460   62.9280 N   0  0  0  0  0  0  0  0  0  0  0  0
  1  6  1  0  0  0  0
  2  1  2  0  0  0  0
  2  3  1  0  0  0  0
  3  4  2  0  0  0  0
  4  9  1  0  0  0  0
  4  5  1  0  0  0  0
  5 10  1  0  0  0  0
  6  5  2  0  0  0  0
  6 20  1  0  0  0  0
  7  2  1  0  0  0  0
  8  3  1  0  0  0  0
 11 17  1  0  0  0  0
 11 16  1  0  0  0  0
 12 11  2  0  0  0  0
 13 12  1  0  0  0  0
 13 14  2  0  0  0  0
 14 15  1  0  0  0  0
 15 16  2  0  0  0  0
 15  1  1  0  0  0  0
 18 12  1  0  0  0  0
 19 13  1  0  0  0  0
 20 25  1  0  0  0  0
 21 20  2  0  0  0  0
 21 22  1  0  0  0  0
 22 23  2  0  0  0  0
 23 24  1  0  0  0  0
 24 28  1  0  0  0  0
 25 24  2  0  0  0  0
 26 21  1  0  0  0  0
 27 22  1  0  0  0  0
 28 35  2  0  0  0  0
 29 28  1  0  0  0  0
 29 31  2  0  0  0  0
 30 29  1  0  0  0  0
 31 32  1  0  0  0  0
 31 33  1  0  0  0  0
 33 34  1  0  0  0  0
 35 33  1  0  0  0  0
M  END
>  <minimizedAffinity>
-5.87560177

$$$$

 OpenBabel03212521083D

 35 38  0  0  0  0  0  0  0  0999 V2000
   42.2940   72.6350   60.2760 C   0  0  0  0  0  0  0  0  0  0  0  0
   43.0170   71.6650   60.9610 C   0  0  0  0  0  0  0  0  0  0  0  0
   42.6050   71.1600   62.1770 C   0  0  0  0  0  0  0  0  0  0  0  0
   41.4170   71.6400   62.7400 C   0  0  0  0  0  0  0  0  0  0  0  0
   40.6850   72.6170   62.0550 C   0  0  0  0  0  0  0  0  0  0  0  0
   41.1140   73.1090   60.8410 C   0  0  0  0  0  0  0  0  0  0  0  0
   43.9440   71.2450   60.5890 H   0  0  0  0  0  0  0  0  0  0  0  0
   43.1500   70.4060   62.7280 H   0  0  0  0  0  0  0  0  0  0  0  0
   41.0050   71.3130   63.6870 H   0  0  0  0  0  0  0  0  0  0  0  0
   39.7640   73.0000   62.4780 H   0  0  0  0  0  0  0  0  0  0  0  0
   42.8630   72.9390   56.6820 C   0  0  0  0  0  0  0  0  0  0  0  0
   43.6920   74.0410   56.5870 C   0  0  0  0  0  0  0  0  0  0  0  0
   44.0680   74.6980   57.7720 C   0  0  0  0  0  0  0  0  0  0  0  0
   43.5950   74.2130   58.9500 N   0  0  0  0  0  0  0  0  0  0  0  0
   42.7770   73.1230   59.0110 C   0  0  0  0  0  0  0  0  0  0  0  0
   42.4280   72.5100   57.8870 N   0  0  0  0  0  0  0  0  0  0  0  0
   42.6050   72.4750   55.7500 H   0  0  0  0  0  0  0  0  0  0  0  0
   44.1060   74.4840   55.7010 H   0  0  0  0  0  0  0  0  0  0  0  0
   44.7030   75.5650   57.8920 H   0  0  0  0  0  0  0  0  0  0  0  0
   40.3230   74.1170   60.1730 C   0  0  0  0  0  0  0  0  0  0  0  0
   40.5380   75.3880   60.7270 C   0  0  0  0  0  0  0  0  0  0  0  0
   39.8730   76.5050   60.2330 C   0  0  0  0  0  0  0  0  0  0  0  0
   39.0250   76.3090   59.2070 N   0  0  0  0  0  0  0  0  0  0  0  0
   38.8260   75.0780   58.6820 C   0  0  0  0  0  0  0  0  0  0  0  0
   39.4580   73.9860   59.1460 N   0  0  0  0  0  0  0  0  0  0  0  0
   41.2050   75.6170   61.5530 H   0  0  0  0  0  0  0  0  0  0  0  0
   40.0110   77.5000   60.6320 H   0  0  0  0  0  0  0  0  0  0  0  0
   37.8990   74.9450   57.5800 C   0  0  0  0  0  0  0  0  0  0  0  0
   37.5140   75.9520   56.6900 C   0  0  0  0  0  0  0  0  0  0  0  0
   37.8630   76.9850   56.7010 H   0  0  0  0  0  0  0  0  0  0  0  0
   36.6080   75.3820   55.7950 C   0  0  0  0  0  0  0  0  0  0  0  0
   36.1070   75.8970   54.9610 H   0  0  0  0  0  0  0  0  0  0  0  0
   36.4690   74.0760   56.1560 N   0  0  0  0  0  0  0  0  0  0  0  0
   35.8430   73.4210   55.6450 H   0  0  0  0  0  0  0  0  0  0  0  0
   37.2370   73.8320   57.2130 N   0  0  0  0  0  0  0  0  0  0  0  0
  1  6  2  0  0  0  0
  1  2  1  0  0  0  0
  2  3  2  0  0  0  0
  3  8  1  0  0  0  0
  3  4  1  0  0  0  0
  4  9  1  0  0  0  0
  5 10  1  0  0  0  0
  5  4  2  0  0  0  0
  6  5  1  0  0  0  0
  7  2  1  0  0  0  0
 11 16  1  0  0  0  0
 12 11  2  0  0  0  0
 12 13  1  0  0  0  0
 13 19  1  0  0  0  0
 13 14  2  0  0  0  0
 14 15  1  0  0  0  0
 15  1  1  0  0  0  0
 16 15  2  0  0  0  0
 17 11  1  0  0  0  0
 18 12  1  0  0  0  0
 20 21  1  0  0  0  0
 20  6  1  0  0  0  0
 21 26  1  0  0  0  0
 22 27  1  0  0  0  0
 22 21  2  0  0  0  0
 23 22  1  0  0  0  0
 24 25  1  0  0  0  0
 24 23  2  0  0  0  0
 25 20  2  0  0  0  0
 28 24  1  0  0  0  0
 29 30  1  0  0  0  0
 29 28  1  0  0  0  0
 31 33  1  0  0  0  0
 31 29  2  0  0  0  0
 32 31  1  0  0  0  0
 33 35  1  0  0  0  0
 34 33  1  0  0  0  0
 35 28  2  0  0  0  0
M  END
>  <minimizedAffinity>
-5.84661341

$$$$

 OpenBabel03212521083D

 35 38  0  0  0  0  0  0  0  0999 V2000
   41.1580   74.6480   59.9060 C   0  0  0  0  0  0  0  0  0  0  0  0
   40.5960   75.9060   60.0840 C   0  0  0  0  0  0  0  0  0  0  0  0
   39.3940   76.0920   60.7370 C   0  0  0  0  0  0  0  0  0  0  0  0
   38.7180   74.9740   61.2380 C   0  0  0  0  0  0  0  0  0  0  0  0
   39.2790   73.7040   61.0610 C   0  0  0  0  0  0  0  0  0  0  0  0
   40.4810   73.5390   60.4060 C   0  0  0  0  0  0  0  0  0  0  0  0
   41.0590   76.8190   59.7260 H   0  0  0  0  0  0  0  0  0  0  0  0
   38.9370   77.0610   60.8870 H   0  0  0  0  0  0  0  0  0  0  0  0
   37.7720   75.0080   61.7640 H   0  0  0  0  0  0  0  0  0  0  0  0
   38.7680   72.8280   61.4420 H   0  0  0  0  0  0  0  0  0  0  0  0
   43.6110   74.4620   57.2090 C   0  0  0  0  0  0  0  0  0  0  0  0
   44.8050   74.2780   57.8810 C   0  0  0  0  0  0  0  0  0  0  0  0
   44.7770   74.2160   59.2860 C   0  0  0  0  0  0  0  0  0  0  0  0
   43.5750   74.3390   59.9080 N   0  0  0  0  0  0  0  0  0  0  0  0
   42.4140   74.5200   59.2160 C   0  0  0  0  0  0  0  0  0  0  0  0
   42.4510   74.5780   57.8910 N   0  0  0  0  0  0  0  0  0  0  0  0
   43.6870   74.5030   56.1400 H   0  0  0  0  0  0  0  0  0  0  0  0
   45.7890   74.1720   57.4670 H   0  0  0  0  0  0  0  0  0  0  0  0
   45.6010   74.0770   59.9730 H   0  0  0  0  0  0  0  0  0  0  0  0
   41.0180   72.2080   60.2490 C   0  0  0  0  0  0  0  0  0  0  0  0
   40.6530   71.6490   59.0150 C   0  0  0  0  0  0  0  0  0  0  0  0
   41.0640   70.3700   58.6600 C   0  0  0  0  0  0  0  0  0  0  0  0
   41.8240   69.7010   59.5470 N   0  0  0  0  0  0  0  0  0  0  0  0
   42.1690   70.2510   60.7340 C   0  0  0  0  0  0  0  0  0  0  0  0
   41.7810   71.4870   61.0960 N   0  0  0  0  0  0  0  0  0  0  0  0
   40.0440   72.1300   58.2550 H   0  0  0  0  0  0  0  0  0  0  0  0
   40.8030   69.9040   57.7190 H   0  0  0  0  0  0  0  0  0  0  0  0
   42.9880   69.4730   61.6370 C   0  0  0  0  0  0  0  0  0  0  0  0
   42.8440   69.3870   63.0250 C   0  0  0  0  0  0  0  0  0  0  0  0
   42.0890   69.8970   63.6240 H   0  0  0  0  0  0  0  0  0  0  0  0
   43.8430   68.5290   63.4870 C   0  0  0  0  0  0  0  0  0  0  0  0
   44.0180   68.2410   64.5350 H   0  0  0  0  0  0  0  0  0  0  0  0
   44.5510   68.1270   62.3950 N   0  0  0  0  0  0  0  0  0  0  0  0
   45.3590   67.4770   62.4650 H   0  0  0  0  0  0  0  0  0  0  0  0
   44.0340   68.6930   61.3090 N   0  0  0  0  0  0  0  0  0  0  0  0
  1  2  2  0  0  0  0
  1  6  1  0  0  0  0
  2  3  1  0  0  0  0
  3  8  1  0  0  0  0
  3  4  2  0  0  0  0
  4  9  1  0  0  0  0
  5  4  1  0  0  0  0
  5 10  1  0  0  0  0
  6  5  2  0  0  0  0
  7  2  1  0  0  0  0
 11 12  2  0  0  0  0
 11 16  1  0  0  0  0
 12 13  1  0  0  0  0
 13 14  2  0  0  0  0
 13 19  1  0  0  0  0
 15  1  1  0  0  0  0
 15 14  1  0  0  0  0
 16 15  2  0  0  0  0
 17 11  1  0  0  0  0
 18 12  1  0  0  0  0
 20  6  1  0  0  0  0
 20 25  1  0  0  0  0
 21 20  2  0  0  0  0
 22 21  1  0  0  0  0
 22 23  2  0  0  0  0
 23 24  1  0  0  0  0
 24 25  2  0  0  0  0
 24 28  1  0  0  0  0
 26 21  1  0  0  0  0
 27 22  1  0  0  0  0
 28 29  1  0  0  0  0
 29 31  2  0  0  0  0
 29 30  1  0  0  0  0
 31 32  1  0  0  0  0
 33 34  1  0  0  0  0
 33 31  1  0  0  0  0
 35 28  2  0  0  0  0
 35 33  1  0  0  0  0
M  END
>  <minimizedAffinity>
-5.79561949

$$$$

 OpenBabel03212521083D

 35 38  0  0  0  0  0  0  0  0999 V2000
   41.2840   72.1560   61.1130 C   0  0  0  0  0  0  0  0  0  0  0  0
   41.7340   71.7570   62.3660 C   0  0  0  0  0  0  0  0  0  0  0  0
   42.4480   70.5910   62.5570 C   0  0  0  0  0  0  0  0  0  0  0  0
   42.7290   69.7840   61.4490 C   0  0  0  0  0  0  0  0  0  0  0  0
   42.2790   70.1800   60.1850 C   0  0  0  0  0  0  0  0  0  0  0  0
   41.5670   71.3490   60.0150 C   0  0  0  0  0  0  0  0  0  0  0  0
   41.5560   72.3290   63.2700 H   0  0  0  0  0  0  0  0  0  0  0  0
   42.8080   70.2600   63.5220 H   0  0  0  0  0  0  0  0  0  0  0  0
   43.2800   68.8510   61.4870 H   0  0  0  0  0  0  0  0  0  0  0  0
   42.4880   69.5660   59.3170 H   0  0  0  0  0  0  0  0  0  0  0  0
   38.5370   74.5590   61.2170 C   0  0  0  0  0  0  0  0  0  0  0  0
   39.1150   75.7180   60.7330 C   0  0  0  0  0  0  0  0  0  0  0  0
   40.4710   75.6840   60.3620 C   0  0  0  0  0  0  0  0  0  0  0  0
   41.1420   74.5100   60.4990 N   0  0  0  0  0  0  0  0  0  0  0  0
   40.5440   73.3830   60.9810 C   0  0  0  0  0  0  0  0  0  0  0  0
   39.2640   73.4250   61.3280 N   0  0  0  0  0  0  0  0  0  0  0  0
   37.5020   74.6380   61.4860 H   0  0  0  0  0  0  0  0  0  0  0  0
   38.6560   76.6790   60.5960 H   0  0  0  0  0  0  0  0  0  0  0  0
   41.0840   76.4830   59.9680 H   0  0  0  0  0  0  0  0  0  0  0  0
   41.1240   71.7150   58.6910 C   0  0  0  0  0  0  0  0  0  0  0  0
   42.0040   71.2420   57.7050 C   0  0  0  0  0  0  0  0  0  0  0  0
   41.7650   71.4840   56.3580 C   0  0  0  0  0  0  0  0  0  0  0  0
   40.6590   72.1850   56.0470 N   0  0  0  0  0  0  0  0  0  0  0  0
   39.8180   72.6360   57.0060 C   0  0  0  0  0  0  0  0  0  0  0  0
   40.0320   72.4130   58.3150 N   0  0  0  0  0  0  0  0  0  0  0  0
   42.9110   70.6720   57.8840 H   0  0  0  0  0  0  0  0  0  0  0  0
   42.4190   71.1380   55.5690 H   0  0  0  0  0  0  0  0  0  0  0  0
   38.6500   73.3830   56.5970 C   0  0  0  0  0  0  0  0  0  0  0  0
   38.5890   74.3400   55.5790 C   0  0  0  0  0  0  0  0  0  0  0  0
   39.4180   74.6560   54.9470 H   0  0  0  0  0  0  0  0  0  0  0  0
   37.2720   74.8010   55.5310 C   0  0  0  0  0  0  0  0  0  0  0  0
   36.8760   75.5620   54.8420 H   0  0  0  0  0  0  0  0  0  0  0  0
   36.5860   74.1310   56.4980 N   0  0  0  0  0  0  0  0  0  0  0  0
   35.5740   74.2910   56.6740 H   0  0  0  0  0  0  0  0  0  0  0  0
   37.4130   73.2960   57.1200 N   0  0  0  0  0  0  0  0  0  0  0  0
  1  2  1  0  0  0  0
  2  3  2  0  0  0  0
  2  7  1  0  0  0  0
  3  8  1  0  0  0  0
  4  9  1  0  0  0  0
  4  3  1  0  0  0  0
  5  4  2  0  0  0  0
  6  5  1  0  0  0  0
  6  1  2  0  0  0  0
 10  5  1  0  0  0  0
 11 16  1  0  0  0  0
 11 17  1  0  0  0  0
 12 11  2  0  0  0  0
 13 14  2  0  0  0  0
 13 12  1  0  0  0  0
 14 15  1  0  0  0  0
 15  1  1  0  0  0  0
 15 16  2  0  0  0  0
 18 12  1  0  0  0  0
 19 13  1  0  0  0  0
 20  6  1  0  0  0  0
 21 26  1  0  0  0  0
 21 20  2  0  0  0  0
 22 21  1  0  0  0  0
 23 22  2  0  0  0  0
 23 24  1  0  0  0  0
 24 25  2  0  0  0  0
 25 20  1  0  0  0  0
 27 22  1  0  0  0  0
 28 24  1  0  0  0  0
 28 35  2  0  0  0  0
 29 28  1  0  0  0  0
 30 29  1  0  0  0  0
 31 29  2  0  0  0  0
 31 33  1  0  0  0  0
 32 31  1  0  0  0  0
 33 34  1  0  0  0  0
 33 35  1  0  0  0  0
M  END
>  <minimizedAffinity>
-5.65888834

$$$$

 OpenBabel03212521083D

 35 38  0  0  0  0  0  0  0  0999 V2000
   42.1980   70.1160   59.1950 C   0  0  0  0  0  0  0  0  0  0  0  0
   43.0880   69.0560   59.0610 C   0  0  0  0  0  0  0  0  0  0  0  0
   43.0550   68.1960   57.9820 C   0  0  0  0  0  0  0  0  0  0  0  0
   42.0920   68.3990   56.9880 C   0  0  0  0  0  0  0  0  0  0  0  0
   41.1930   69.4630   57.1160 C   0  0  0  0  0  0  0  0  0  0  0  0
   41.2420   70.3120   58.2030 C   0  0  0  0  0  0  0  0  0  0  0  0
   43.8610   68.8360   59.7890 H   0  0  0  0  0  0  0  0  0  0  0  0
   43.7360   67.3660   57.8570 H   0  0  0  0  0  0  0  0  0  0  0  0
   41.9780   67.7840   56.1030 H   0  0  0  0  0  0  0  0  0  0  0  0
   40.4400   69.6330   56.3560 H   0  0  0  0  0  0  0  0  0  0  0  0
   43.1140   72.9190   61.3470 C   0  0  0  0  0  0  0  0  0  0  0  0
   42.4590   72.6340   62.5320 C   0  0  0  0  0  0  0  0  0  0  0  0
   41.6870   71.4600   62.6010 C   0  0  0  0  0  0  0  0  0  0  0  0
   41.6270   70.6680   61.4990 N   0  0  0  0  0  0  0  0  0  0  0  0
   42.2840   70.9770   60.3440 C   0  0  0  0  0  0  0  0  0  0  0  0
   43.0090   72.0870   60.2880 N   0  0  0  0  0  0  0  0  0  0  0  0
   43.6870   73.8250   61.3460 H   0  0  0  0  0  0  0  0  0  0  0  0
   42.4560   73.2030   63.4410 H   0  0  0  0  0  0  0  0  0  0  0  0
   41.1130   71.0770   63.4340 H   0  0  0  0  0  0  0  0  0  0  0  0
   40.2920   71.3960   58.2900 C   0  0  0  0  0  0  0  0  0  0  0  0
   39.3260   71.3150   57.2760 C   0  0  0  0  0  0  0  0  0  0  0  0
   38.3140   72.2630   57.1760 C   0  0  0  0  0  0  0  0  0  0  0  0
   38.3060   73.2510   58.0900 N   0  0  0  0  0  0  0  0  0  0  0  0
   39.2430   73.3170   59.0630 C   0  0  0  0  0  0  0  0  0  0  0  0
   40.2300   72.4110   59.1770 N   0  0  0  0  0  0  0  0  0  0  0  0
   39.2720   70.5490   56.5090 H   0  0  0  0  0  0  0  0  0  0  0  0
   37.5510   72.2360   56.4100 H   0  0  0  0  0  0  0  0  0  0  0  0
   39.1710   74.4080   60.0100 C   0  0  0  0  0  0  0  0  0  0  0  0
   39.9770   75.5500   60.0270 C   0  0  0  0  0  0  0  0  0  0  0  0
   40.7770   75.7800   59.3230 H   0  0  0  0  0  0  0  0  0  0  0  0
   39.5600   76.3280   61.1080 C   0  0  0  0  0  0  0  0  0  0  0  0
   39.9840   77.2980   61.4110 H   0  0  0  0  0  0  0  0  0  0  0  0
   38.5380   75.6550   61.7060 N   0  0  0  0  0  0  0  0  0  0  0  0
   38.0460   76.0220   62.5440 H   0  0  0  0  0  0  0  0  0  0  0  0
   38.3190   74.5210   61.0460 N   0  0  0  0  0  0  0  0  0  0  0  0
  1 15  1  0  0  0  0
  2  1  1  0  0  0  0
  2  7  1  0  0  0  0
  3  2  2  0  0  0  0
  4  5  2  0  0  0  0
  4  3  1  0  0  0  0
  5  6  1  0  0  0  0
  6 20  1  0  0  0  0
  6  1  2  0  0  0  0
  8  3  1  0  0  0  0
  9  4  1  0  0  0  0
 10  5  1  0  0  0  0
 11 12  1  0  0  0  0
 12 13  2  0  0  0  0
 12 18  1  0  0  0  0
 13 19  1  0  0  0  0
 14 13  1  0  0  0  0
 15 14  2  0  0  0  0
 16 15  1  0  0  0  0
 16 11  2  0  0  0  0
 17 11  1  0  0  0  0
 20 25  1  0  0  0  0
 21 20  2  0  0  0  0
 22 21  1  0  0  0  0
 22 23  2  0  0  0  0
 23 24  1  0  0  0  0
 24 25  2  0  0  0  0
 24 28  1  0  0  0  0
 26 21  1  0  0  0  0
 27 22  1  0  0  0  0
 28 29  1  0  0  0  0
 28 35  2  0  0  0  0
 29 31  2  0  0  0  0
 30 29  1  0  0  0  0
 31 32  1  0  0  0  0
 31 33  1  0  0  0  0
 33 34  1  0  0  0  0
 35 33  1  0  0  0  0
M  END
>  <minimizedAffinity>
-5.64974546

$$$$

 OpenBabel03212521083D

 35 38  0  0  0  0  0  0  0  0999 V2000
   40.2060   74.9900   57.7260 C   0  0  0  0  0  0  0  0  0  0  0  0
   39.4440   75.3740   56.6280 C   0  0  0  0  0  0  0  0  0  0  0  0
   39.5590   74.7590   55.3980 C   0  0  0  0  0  0  0  0  0  0  0  0
   40.4750   73.7120   55.2510 C   0  0  0  0  0  0  0  0  0  0  0  0
   41.2460   73.3210   56.3520 C   0  0  0  0  0  0  0  0  0  0  0  0
   41.1160   73.9480   57.5730 C   0  0  0  0  0  0  0  0  0  0  0  0
   38.7140   76.1750   56.6650 H   0  0  0  0  0  0  0  0  0  0  0  0
   38.9780   75.0410   54.5310 H   0  0  0  0  0  0  0  0  0  0  0  0
   40.6450   73.1630   54.3320 H   0  0  0  0  0  0  0  0  0  0  0  0
   41.9600   72.5120   56.2540 H   0  0  0  0  0  0  0  0  0  0  0  0
   40.5510   77.4780   60.3750 C   0  0  0  0  0  0  0  0  0  0  0  0
   39.7320   76.9880   61.3760 C   0  0  0  0  0  0  0  0  0  0  0  0
   39.0460   75.7820   61.1450 C   0  0  0  0  0  0  0  0  0  0  0  0
   39.2250   75.1630   59.9490 N   0  0  0  0  0  0  0  0  0  0  0  0
   40.0400   75.6720   58.9810 C   0  0  0  0  0  0  0  0  0  0  0  0
   40.6830   76.8100   59.2080 N   0  0  0  0  0  0  0  0  0  0  0  0
   41.0510   78.3990   60.6010 H   0  0  0  0  0  0  0  0  0  0  0  0
   39.5390   77.4140   62.3420 H   0  0  0  0  0  0  0  0  0  0  0  0
   38.3700   75.2530   61.8040 H   0  0  0  0  0  0  0  0  0  0  0  0
   41.9340   73.5080   58.6780 C   0  0  0  0  0  0  0  0  0  0  0  0
   43.2240   74.0580   58.6130 C   0  0  0  0  0  0  0  0  0  0  0  0
   44.1760   73.7630   59.5830 C   0  0  0  0  0  0  0  0  0  0  0  0
   43.8040   72.9360   60.5770 N   0  0  0  0  0  0  0  0  0  0  0  0
   42.5570   72.4130   60.6280 C   0  0  0  0  0  0  0  0  0  0  0  0
   41.6220   72.6850   59.7010 N   0  0  0  0  0  0  0  0  0  0  0  0
   43.5900   74.7290   57.8430 H   0  0  0  0  0  0  0  0  0  0  0  0
   45.1800   74.1650   59.5670 H   0  0  0  0  0  0  0  0  0  0  0  0
   42.2290   71.5310   61.7260 C   0  0  0  0  0  0  0  0  0  0  0  0
   42.8910   70.3470   62.0690 C   0  0  0  0  0  0  0  0  0  0  0  0
   43.7520   69.9230   61.5540 H   0  0  0  0  0  0  0  0  0  0  0  0
   42.2400   69.8250   63.1870 C   0  0  0  0  0  0  0  0  0  0  0  0
   42.5030   68.8970   63.7170 H   0  0  0  0  0  0  0  0  0  0  0  0
   41.2240   70.6830   63.4870 N   0  0  0  0  0  0  0  0  0  0  0  0
   40.5790   70.5220   64.2860 H   0  0  0  0  0  0  0  0  0  0  0  0
   41.2300   71.6860   62.6150 N   0  0  0  0  0  0  0  0  0  0  0  0
  1 15  1  0  0  0  0
  2  7  1  0  0  0  0
  2  1  2  0  0  0  0
  3  2  1  0  0  0  0
  4  3  2  0  0  0  0
  4  5  1  0  0  0  0
  5  6  2  0  0  0  0
  6  1  1  0  0  0  0
  6 20  1  0  0  0  0
  8  3  1  0  0  0  0
  9  4  1  0  0  0  0
 10  5  1  0  0  0  0
 11 17  1  0  0  0  0
 11 12  1  0  0  0  0
 12 18  1  0  0  0  0
 13 12  2  0  0  0  0
 13 19  1  0  0  0  0
 14 13  1  0  0  0  0
 15 16  1  0  0  0  0
 15 14  2  0  0  0  0
 16 11  2  0  0  0  0
 20 25  1  0  0  0  0
 21 20  2  0  0  0  0
 21 22  1  0  0  0  0
 22 23  2  0  0  0  0
 23 24  1  0  0  0  0
 24 28  1  0  0  0  0
 25 24  2  0  0  0  0
 26 21  1  0  0  0  0
 27 22  1  0  0  0  0
 28 29  1  0  0  0  0
 28 35  2  0  0  0  0
 29 31  2  0  0  0  0
 30 29  1  0  0  0  0
 31 33  1  0  0  0  0
 31 32  1  0  0  0  0
 33 34  1  0  0  0  0
 35 33  1  0  0  0  0
M  END
>  <minimizedAffinity>
-5.59894657

$$$$

 OpenBabel03212521083D

 35 38  0  0  0  0  0  0  0  0999 V2000
   41.4540   75.1650   59.5510 C   0  0  0  0  0  0  0  0  0  0  0  0
   40.9900   76.4680   59.4170 C   0  0  0  0  0  0  0  0  0  0  0  0
   39.9410   76.9600   60.1670 C   0  0  0  0  0  0  0  0  0  0  0  0
   39.3240   76.1160   61.0970 C   0  0  0  0  0  0  0  0  0  0  0  0
   39.7850   74.8030   61.2370 C   0  0  0  0  0  0  0  0  0  0  0  0
   40.8350   74.3310   60.4780 C   0  0  0  0  0  0  0  0  0  0  0  0
   41.4180   77.1800   58.7190 H   0  0  0  0  0  0  0  0  0  0  0  0
   39.5640   77.9700   60.0790 H   0  0  0  0  0  0  0  0  0  0  0  0
   38.4950   76.4010   61.7340 H   0  0  0  0  0  0  0  0  0  0  0  0
   39.3170   74.1370   61.9520 H   0  0  0  0  0  0  0  0  0  0  0  0
   43.3390   73.8850   56.6990 C   0  0  0  0  0  0  0  0  0  0  0  0
   44.6370   73.8430   57.1720 C   0  0  0  0  0  0  0  0  0  0  0  0
   44.8790   74.2600   58.4940 C   0  0  0  0  0  0  0  0  0  0  0  0
   43.8210   74.6810   59.2350 N   0  0  0  0  0  0  0  0  0  0  0  0
   42.5510   74.7120   58.7390 C   0  0  0  0  0  0  0  0  0  0  0  0
   42.3330   74.3170   57.4910 N   0  0  0  0  0  0  0  0  0  0  0  0
   43.2080   73.5580   55.6860 H   0  0  0  0  0  0  0  0  0  0  0  0
   45.5210   73.5250   56.6540 H   0  0  0  0  0  0  0  0  0  0  0  0
   45.8180   74.2950   59.0300 H   0  0  0  0  0  0  0  0  0  0  0  0
   41.2740   72.9670   60.6590 C   0  0  0  0  0  0  0  0  0  0  0  0
   41.9570   72.8040   61.8740 C   0  0  0  0  0  0  0  0  0  0  0  0
   42.4670   71.5660   62.2480 C   0  0  0  0  0  0  0  0  0  0  0  0
   42.2750   70.5410   61.3970 N   0  0  0  0  0  0  0  0  0  0  0  0
   41.6140   70.7110   60.2280 C   0  0  0  0  0  0  0  0  0  0  0  0
   41.1140   71.9000   59.8480 N   0  0  0  0  0  0  0  0  0  0  0  0
   42.1480   73.5850   62.6050 H   0  0  0  0  0  0  0  0  0  0  0  0
   42.9990   71.4010   63.1740 H   0  0  0  0  0  0  0  0  0  0  0  0
   41.4460   69.5640   59.3640 C   0  0  0  0  0  0  0  0  0  0  0  0
   41.7300   68.2320   59.6840 C   0  0  0  0  0  0  0  0  0  0  0  0
   42.1180   67.8710   60.6360 H   0  0  0  0  0  0  0  0  0  0  0  0
   41.4190   67.4670   58.5590 C   0  0  0  0  0  0  0  0  0  0  0  0
   41.5240   66.3750   58.4680 H   0  0  0  0  0  0  0  0  0  0  0  0
   40.9670   68.3320   57.6090 N   0  0  0  0  0  0  0  0  0  0  0  0
   40.6660   68.0140   56.6650 H   0  0  0  0  0  0  0  0  0  0  0  0
   40.9880   69.5670   58.0980 N   0  0  0  0  0  0  0  0  0  0  0  0
  1  6  1  0  0  0  0
  2  1  2  0  0  0  0
  2  3  1  0  0  0  0
  3  4  2  0  0  0  0
  4  5  1  0  0  0  0
  4  9  1  0  0  0  0
  5 10  1  0  0  0  0
  6 20  1  0  0  0  0
  6  5  2  0  0  0  0
  7  2  1  0  0  0  0
  8  3  1  0  0  0  0
 11 12  2  0  0  0  0
 11 16  1  0  0  0  0
 12 13  1  0  0  0  0
 13 19  1  0  0  0  0
 13 14  2  0  0  0  0
 15 14  1  0  0  0  0
 15  1  1  0  0  0  0
 16 15  2  0  0  0  0
 17 11  1  0  0  0  0
 18 12  1  0  0  0  0
 20 21  1  0  0  0  0
 21 22  2  0  0  0  0
 21 26  1  0  0  0  0
 22 27  1  0  0  0  0
 23 22  1  0  0  0  0
 24 23  2  0  0  0  0
 25 24  1  0  0  0  0
 25 20  2  0  0  0  0
 28 29  1  0  0  0  0
 28 24  1  0  0  0  0
 29 30  1  0  0  0  0
 31 29  2  0  0  0  0
 32 31  1  0  0  0  0
 33 35  1  0  0  0  0
 33 31  1  0  0  0  0
 34 33  1  0  0  0  0
 35 28  2  0  0  0  0
M  END
>  <minimizedAffinity>
-5.43624592

$$$$

 OpenBabel03212521083D

 35 38  0  0  0  0  0  0  0  0999 V2000
   42.4330   74.8460   58.6190 C   0  0  0  0  0  0  0  0  0  0  0  0
   43.7620   74.9190   59.0200 C   0  0  0  0  0  0  0  0  0  0  0  0
   44.8020   74.5210   58.2030 C   0  0  0  0  0  0  0  0  0  0  0  0
   44.5070   74.0280   56.9280 C   0  0  0  0  0  0  0  0  0  0  0  0
   43.1710   73.9520   56.5180 C   0  0  0  0  0  0  0  0  0  0  0  0
   42.1460   74.3550   57.3490 C   0  0  0  0  0  0  0  0  0  0  0  0
   44.0690   75.2900   59.9910 H   0  0  0  0  0  0  0  0  0  0  0  0
   45.8430   74.5680   58.4940 H   0  0  0  0  0  0  0  0  0  0  0  0
   45.2450   73.6890   56.2100 H   0  0  0  0  0  0  0  0  0  0  0  0
   42.9260   73.5720   55.5340 H   0  0  0  0  0  0  0  0  0  0  0  0
   39.7470   74.7490   61.0890 C   0  0  0  0  0  0  0  0  0  0  0  0
   39.4070   76.0810   61.2370 C   0  0  0  0  0  0  0  0  0  0  0  0
   40.1070   77.0360   60.4790 C   0  0  0  0  0  0  0  0  0  0  0  0
   41.0810   76.5980   59.6400 N   0  0  0  0  0  0  0  0  0  0  0  0
   41.3940   75.2760   59.5170 C   0  0  0  0  0  0  0  0  0  0  0  0
   40.7290   74.3830   60.2370 N   0  0  0  0  0  0  0  0  0  0  0  0
   39.1850   74.0620   61.6900 H   0  0  0  0  0  0  0  0  0  0  0  0
   38.6540   76.5060   61.8740 H   0  0  0  0  0  0  0  0  0  0  0  0
   39.9800   78.1110   60.4620 H   0  0  0  0  0  0  0  0  0  0  0  0
   40.7840   74.2570   56.8800 C   0  0  0  0  0  0  0  0  0  0  0  0
   40.3050   72.9410   56.9660 C   0  0  0  0  0  0  0  0  0  0  0  0
   39.0120   72.6230   56.5640 C   0  0  0  0  0  0  0  0  0  0  0  0
   38.2500   73.6290   56.0970 N   0  0  0  0  0  0  0  0  0  0  0  0
   38.7240   74.8940   56.0200 C   0  0  0  0  0  0  0  0  0  0  0  0
   39.9710   75.2220   56.4020 N   0  0  0  0  0  0  0  0  0  0  0  0
   40.8630   72.0840   57.3310 H   0  0  0  0  0  0  0  0  0  0  0  0
   38.6070   71.6210   56.6130 H   0  0  0  0  0  0  0  0  0  0  0  0
   37.8470   75.9230   55.5070 C   0  0  0  0  0  0  0  0  0  0  0  0
   37.5330   76.1550   54.1640 C   0  0  0  0  0  0  0  0  0  0  0  0
   37.9060   75.5880   53.3120 H   0  0  0  0  0  0  0  0  0  0  0  0
   36.6570   77.2410   54.1320 C   0  0  0  0  0  0  0  0  0  0  0  0
   36.2120   77.6890   53.2300 H   0  0  0  0  0  0  0  0  0  0  0  0
   36.4670   77.6310   55.4230 N   0  0  0  0  0  0  0  0  0  0  0  0
   35.8510   78.4290   55.6780 H   0  0  0  0  0  0  0  0  0  0  0  0
   37.1770   76.8440   56.2240 N   0  0  0  0  0  0  0  0  0  0  0  0
  1  2  1  0  0  0  0
  1 15  1  0  0  0  0
  2  7  1  0  0  0  0
  3  8  1  0  0  0  0
  3  2  2  0  0  0  0
  4  3  1  0  0  0  0
  5  4  2  0  0  0  0
  5  6  1  0  0  0  0
  6  1  2  0  0  0  0
  9  4  1  0  0  0  0
 10  5  1  0  0  0  0
 11 12  1  0  0  0  0
 11 17  1  0  0  0  0
 12 18  1  0  0  0  0
 13 12  2  0  0  0  0
 14 13  1  0  0  0  0
 15 14  2  0  0  0  0
 15 16  1  0  0  0  0
 16 11  2  0  0  0  0
 19 13  1  0  0  0  0
 20 21  1  0  0  0  0
 20  6  1  0  0  0  0
 21 26  1  0  0  0  0
 22 27  1  0  0  0  0
 22 21  2  0  0  0  0
 23 22  1  0  0  0  0
 24 23  2  0  0  0  0
 24 25  1  0  0  0  0
 25 20  2  0  0  0  0
 28 24  1  0  0  0  0
 28 35  2  0  0  0  0
 29 28  1  0  0  0  0
 30 29  1  0  0  0  0
 31 29  2  0  0  0  0
 31 33  1  0  0  0  0
 32 31  1  0  0  0  0
 33 34  1  0  0  0  0
 33 35  1  0  0  0  0
M  END
>  <minimizedAffinity>
-5.42877626

$$$$

 OpenBabel03212521083D

 35 38  0  0  0  0  0  0  0  0999 V2000
   43.5600   70.4720   58.4920 C   0  0  0  0  0  0  0  0  0  0  0  0
   44.1200   69.5860   57.5790 C   0  0  0  0  0  0  0  0  0  0  0  0
   43.9100   68.2230   57.6510 C   0  0  0  0  0  0  0  0  0  0  0  0
   43.1050   67.7170   58.6770 C   0  0  0  0  0  0  0  0  0  0  0  0
   42.5380   68.6050   59.5990 C   0  0  0  0  0  0  0  0  0  0  0  0
   42.7600   69.9630   59.5100 C   0  0  0  0  0  0  0  0  0  0  0  0
   44.7530   69.9020   56.7580 H   0  0  0  0  0  0  0  0  0  0  0  0
   44.3360   67.5140   56.9530 H   0  0  0  0  0  0  0  0  0  0  0  0
   42.8770   66.6680   58.8240 H   0  0  0  0  0  0  0  0  0  0  0  0
   41.9130   68.2290   60.3990 H   0  0  0  0  0  0  0  0  0  0  0  0
   43.3070   73.9410   57.3800 C   0  0  0  0  0  0  0  0  0  0  0  0
   44.2950   74.5780   58.1080 C   0  0  0  0  0  0  0  0  0  0  0  0
   45.0680   73.8100   58.9980 C   0  0  0  0  0  0  0  0  0  0  0  0
   44.8000   72.4810   59.0950 N   0  0  0  0  0  0  0  0  0  0  0  0
   43.8170   71.8820   58.3640 C   0  0  0  0  0  0  0  0  0  0  0  0
   43.0930   72.6150   57.5270 N   0  0  0  0  0  0  0  0  0  0  0  0
   42.7470   74.5700   56.7170 H   0  0  0  0  0  0  0  0  0  0  0  0
   44.5680   75.6150   58.0880 H   0  0  0  0  0  0  0  0  0  0  0  0
   45.8760   74.1310   59.6420 H   0  0  0  0  0  0  0  0  0  0  0  0
   42.1530   70.8380   60.4860 C   0  0  0  0  0  0  0  0  0  0  0  0
   42.5400   70.4990   61.7910 C   0  0  0  0  0  0  0  0  0  0  0  0
   42.0690   71.2150   62.8860 C   0  0  0  0  0  0  0  0  0  0  0  0
   41.2340   72.2400   62.6350 N   0  0  0  0  0  0  0  0  0  0  0  0
   40.8680   72.5570   61.3710 C   0  0  0  0  0  0  0  0  0  0  0  0
   41.3120   71.8770   60.3000 N   0  0  0  0  0  0  0  0  0  0  0  0
   43.2080   69.6870   62.0660 H   0  0  0  0  0  0  0  0  0  0  0  0
   42.3430   70.9840   63.9060 H   0  0  0  0  0  0  0  0  0  0  0  0
   39.9670   73.6720   61.1790 C   0  0  0  0  0  0  0  0  0  0  0  0
   40.3200   74.9720   60.8050 C   0  0  0  0  0  0  0  0  0  0  0  0
   41.3300   75.3290   60.6030 H   0  0  0  0  0  0  0  0  0  0  0  0
   39.1390   75.7120   60.7390 C   0  0  0  0  0  0  0  0  0  0  0  0
   39.0550   76.7770   60.4730 H   0  0  0  0  0  0  0  0  0  0  0  0
   38.1250   74.8640   61.0680 N   0  0  0  0  0  0  0  0  0  0  0  0
   37.1320   75.1700   61.0950 H   0  0  0  0  0  0  0  0  0  0  0  0
   38.6290   73.6620   61.3250 N   0  0  0  0  0  0  0  0  0  0  0  0
  1  6  1  0  0  0  0
  2  3  1  0  0  0  0
  2  1  2  0  0  0  0
  3  4  2  0  0  0  0
  4  9  1  0  0  0  0
  4  5  1  0  0  0  0
  5 10  1  0  0  0  0
  6  5  2  0  0  0  0
  6 20  1  0  0  0  0
  7  2  1  0  0  0  0
  8  3  1  0  0  0  0
 11 16  2  0  0  0  0
 11 12  1  0  0  0  0
 12 13  2  0  0  0  0
 13 14  1  0  0  0  0
 13 19  1  0  0  0  0
 15  1  1  0  0  0  0
 15 14  2  0  0  0  0
 16 15  1  0  0  0  0
 17 11  1  0  0  0  0
 18 12  1  0  0  0  0
 20 21  1  0  0  0  0
 21 26  1  0  0  0  0
 21 22  2  0  0  0  0
 22 27  1  0  0  0  0
 23 22  1  0  0  0  0
 24 23  2  0  0  0  0
 25 20  2  0  0  0  0
 25 24  1  0  0  0  0
 28 35  2  0  0  0  0
 28 24  1  0  0  0  0
 29 28  1  0  0  0  0
 30 29  1  0  0  0  0
 31 29  2  0  0  0  0
 31 33  1  0  0  0  0
 32 31  1  0  0  0  0
 33 34  1  0  0  0  0
 33 35  1  0  0  0  0
M  END
>  <minimizedAffinity>
-5.3581686

$$$$
