
 OpenBabel03212520283D

 27 29  0  0  0  0  0  0  0  0999 V2000
   38.8750   76.0100   58.6480 C   0  0  0  0  0  0  0  0  0  0  0  0
   39.5040   76.8320   59.5810 C   0  0  0  0  0  0  0  0  0  0  0  0
   39.7000   75.9360   60.6440 C   0  0  0  0  0  0  0  0  0  0  0  0
   39.2270   74.7120   60.3490 N   0  0  0  0  0  0  0  0  0  0  0  0
   38.7280   74.7830   59.1250 N   0  0  0  0  0  0  0  0  0  0  0  0
   39.7850   77.8750   59.5450 H   0  0  0  0  0  0  0  0  0  0  0  0
   40.1710   76.1770   61.5940 H   0  0  0  0  0  0  0  0  0  0  0  0
   38.8120   77.6350   55.2920 C   0  0  0  0  0  0  0  0  0  0  0  0
   39.2630   77.2370   56.5430 C   0  0  0  0  0  0  0  0  0  0  0  0
   38.4460   76.4500   57.3360 C   0  0  0  0  0  0  0  0  0  0  0  0
   37.2080   76.0800   56.8700 N   0  0  0  0  0  0  0  0  0  0  0  0
   36.8270   76.5100   55.6280 C   0  0  0  0  0  0  0  0  0  0  0  0
   37.6080   77.2670   54.8580 N   0  0  0  0  0  0  0  0  0  0  0  0
   39.5120   78.2470   54.7390 H   0  0  0  0  0  0  0  0  0  0  0  0
   40.2450   77.5190   56.9340 H   0  0  0  0  0  0  0  0  0  0  0  0
   35.8630   76.2540   55.2010 H   0  0  0  0  0  0  0  0  0  0  0  0
   39.2610   73.5460   61.2130 C   0  0  0  0  0  0  0  0  0  0  0  0
   38.7160   72.7240   60.6850 H   0  0  0  0  0  0  0  0  0  0  0  0
   38.7690   73.7830   62.1640 H   0  0  0  0  0  0  0  0  0  0  0  0
   40.6560   73.0930   61.4600 C   0  0  0  0  0  0  0  0  0  0  0  0
   41.8180   73.1870   60.7260 C   0  0  0  0  0  0  0  0  0  0  0  0
   41.8450   73.6660   59.7590 H   0  0  0  0  0  0  0  0  0  0  0  0
   42.8530   72.5970   61.4150 C   0  0  0  0  0  0  0  0  0  0  0  0
   43.8600   72.5750   60.9860 H   0  0  0  0  0  0  0  0  0  0  0  0
   42.3110   72.1450   62.5690 N   0  0  0  0  0  0  0  0  0  0  0  0
   42.9060   71.6520   63.2720 H   0  0  0  0  0  0  0  0  0  0  0  0
   41.0220   72.4420   62.5850 N   0  0  0  0  0  0  0  0  0  0  0  0
  1  5  2  0  0  0  0
  1  2  1  0  0  0  0
  2  3  2  0  0  0  0
  3  7  1  0  0  0  0
  4  3  1  0  0  0  0
  4 17  1  0  0  0  0
  5  4  1  0  0  0  0
  6  2  1  0  0  0  0
  8  9  1  0  0  0  0
  9 15  1  0  0  0  0
  9 10  2  0  0  0  0
 10  1  1  0  0  0  0
 11 10  1  0  0  0  0
 12 11  2  0  0  0  0
 13  8  2  0  0  0  0
 13 12  1  0  0  0  0
 14  8  1  0  0  0  0
 16 12  1  0  0  0  0
 17 20  1  0  0  0  0
 17 19  1  0  0  0  0
 18 17  1  0  0  0  0
 20 27  2  0  0  0  0
 21 23  2  0  0  0  0
 21 20  1  0  0  0  0
 22 21  1  0  0  0  0
 23 25  1  0  0  0  0
 24 23  1  0  0  0  0
 25 27  1  0  0  0  0
 25 26  1  0  0  0  0
M  END
>  <minimizedAffinity>
-5.14487553

$$$$

 OpenBabel03212520283D

 27 29  0  0  0  0  0  0  0  0999 V2000
   38.8820   75.9040   58.4810 C   0  0  0  0  0  0  0  0  0  0  0  0
   39.3420   77.2080   58.3170 C   0  0  0  0  0  0  0  0  0  0  0  0
   38.5670   77.6350   57.2280 C   0  0  0  0  0  0  0  0  0  0  0  0
   37.7370   76.6650   56.8050 N   0  0  0  0  0  0  0  0  0  0  0  0
   37.9490   75.6170   57.5860 N   0  0  0  0  0  0  0  0  0  0  0  0
   40.0880   77.7800   58.8530 H   0  0  0  0  0  0  0  0  0  0  0  0
   38.6120   78.6190   56.7670 H   0  0  0  0  0  0  0  0  0  0  0  0
   41.1330   73.8140   60.5970 C   0  0  0  0  0  0  0  0  0  0  0  0
   40.7120   74.6900   59.6060 C   0  0  0  0  0  0  0  0  0  0  0  0
   39.3670   74.9930   59.5000 C   0  0  0  0  0  0  0  0  0  0  0  0
   38.4760   74.4220   60.3750 N   0  0  0  0  0  0  0  0  0  0  0  0
   38.9580   73.5660   61.3270 C   0  0  0  0  0  0  0  0  0  0  0  0
   40.2540   73.2690   61.4370 N   0  0  0  0  0  0  0  0  0  0  0  0
   42.1990   73.6310   60.6110 H   0  0  0  0  0  0  0  0  0  0  0  0
   41.4050   75.1570   58.8990 H   0  0  0  0  0  0  0  0  0  0  0  0
   38.3100   73.0810   62.0490 H   0  0  0  0  0  0  0  0  0  0  0  0
   36.7960   76.7570   55.7040 C   0  0  0  0  0  0  0  0  0  0  0  0
   36.6980   77.8400   55.4380 H   0  0  0  0  0  0  0  0  0  0  0  0
   35.8270   76.3500   56.0180 H   0  0  0  0  0  0  0  0  0  0  0  0
   37.2900   76.0290   54.5040 C   0  0  0  0  0  0  0  0  0  0  0  0
   38.5450   75.6350   54.0960 C   0  0  0  0  0  0  0  0  0  0  0  0
   39.4270   75.8400   54.6830 H   0  0  0  0  0  0  0  0  0  0  0  0
   38.4570   74.9810   52.8880 C   0  0  0  0  0  0  0  0  0  0  0  0
   39.3590   74.5920   52.4040 H   0  0  0  0  0  0  0  0  0  0  0  0
   37.1420   74.9820   52.5680 N   0  0  0  0  0  0  0  0  0  0  0  0
   36.8170   74.5370   51.6820 H   0  0  0  0  0  0  0  0  0  0  0  0
   36.4670   75.5990   53.5230 N   0  0  0  0  0  0  0  0  0  0  0  0
  1 10  1  0  0  0  0
  2  1  1  0  0  0  0
  2  6  1  0  0  0  0
  3  2  2  0  0  0  0
  4  3  1  0  0  0  0
  4  5  1  0  0  0  0
  5  1  2  0  0  0  0
  7  3  1  0  0  0  0
  8 14  1  0  0  0  0
  8 13  1  0  0  0  0
  9  8  2  0  0  0  0
 10  9  1  0  0  0  0
 10 11  2  0  0  0  0
 11 12  1  0  0  0  0
 12 13  2  0  0  0  0
 12 16  1  0  0  0  0
 15  9  1  0  0  0  0
 17 19  1  0  0  0  0
 17  4  1  0  0  0  0
 18 17  1  0  0  0  0
 20 17  1  0  0  0  0
 21 20  1  0  0  0  0
 21 22  1  0  0  0  0
 23 21  2  0  0  0  0
 24 23  1  0  0  0  0
 25 23  1  0  0  0  0
 25 27  1  0  0  0  0
 26 25  1  0  0  0  0
 27 20  2  0  0  0  0
M  END
>  <minimizedAffinity>
-5.04098797

$$$$

 OpenBabel03212520283D

 27 29  0  0  0  0  0  0  0  0999 V2000
   41.7340   72.8610   61.0160 C   0  0  0  0  0  0  0  0  0  0  0  0
   42.5530   73.4900   60.0820 C   0  0  0  0  0  0  0  0  0  0  0  0
   41.7780   74.6130   59.7530 C   0  0  0  0  0  0  0  0  0  0  0  0
   40.6200   74.6270   60.4360 N   0  0  0  0  0  0  0  0  0  0  0  0
   40.6160   73.5460   61.2000 N   0  0  0  0  0  0  0  0  0  0  0  0
   43.5250   73.2280   59.6860 H   0  0  0  0  0  0  0  0  0  0  0  0
   42.0560   75.3870   59.0420 H   0  0  0  0  0  0  0  0  0  0  0  0
   43.3090   69.5830   61.8430 C   0  0  0  0  0  0  0  0  0  0  0  0
   43.0150   70.7570   61.1640 C   0  0  0  0  0  0  0  0  0  0  0  0
   42.0720   71.6230   61.6900 C   0  0  0  0  0  0  0  0  0  0  0  0
   41.4480   71.3030   62.8700 N   0  0  0  0  0  0  0  0  0  0  0  0
   41.7850   70.1290   63.4870 C   0  0  0  0  0  0  0  0  0  0  0  0
   42.6920   69.2890   62.9870 N   0  0  0  0  0  0  0  0  0  0  0  0
   44.0550   68.9630   61.3640 H   0  0  0  0  0  0  0  0  0  0  0  0
   43.5010   71.0320   60.2230 H   0  0  0  0  0  0  0  0  0  0  0  0
   41.3300   69.8160   64.4200 H   0  0  0  0  0  0  0  0  0  0  0  0
   39.5800   75.6360   60.3450 C   0  0  0  0  0  0  0  0  0  0  0  0
   40.0860   76.6310   60.2700 H   0  0  0  0  0  0  0  0  0  0  0  0
   38.9510   75.5930   61.2440 H   0  0  0  0  0  0  0  0  0  0  0  0
   38.7440   75.4480   59.1290 C   0  0  0  0  0  0  0  0  0  0  0  0
   38.5060   76.2340   58.0230 C   0  0  0  0  0  0  0  0  0  0  0  0
   38.9640   77.2040   57.9030 H   0  0  0  0  0  0  0  0  0  0  0  0
   37.6400   75.5880   57.1710 C   0  0  0  0  0  0  0  0  0  0  0  0
   37.3330   76.0610   56.2320 H   0  0  0  0  0  0  0  0  0  0  0  0
   37.3540   74.4080   57.7680 N   0  0  0  0  0  0  0  0  0  0  0  0
   36.7070   73.7300   57.3090 H   0  0  0  0  0  0  0  0  0  0  0  0
   38.0070   74.3370   58.9160 N   0  0  0  0  0  0  0  0  0  0  0  0
  1  5  2  0  0  0  0
  1 10  1  0  0  0  0
  2  1  1  0  0  0  0
  3  2  2  0  0  0  0
  3  4  1  0  0  0  0
  4  5  1  0  0  0  0
  6  2  1  0  0  0  0
  7  3  1  0  0  0  0
  8 13  1  0  0  0  0
  9 10  1  0  0  0  0
  9  8  2  0  0  0  0
 10 11  2  0  0  0  0
 11 12  1  0  0  0  0
 12 16  1  0  0  0  0
 13 12  2  0  0  0  0
 14  8  1  0  0  0  0
 15  9  1  0  0  0  0
 17  4  1  0  0  0  0
 17 19  1  0  0  0  0
 18 17  1  0  0  0  0
 20 17  1  0  0  0  0
 21 20  1  0  0  0  0
 22 21  1  0  0  0  0
 23 25  1  0  0  0  0
 23 21  2  0  0  0  0
 24 23  1  0  0  0  0
 25 27  1  0  0  0  0
 26 25  1  0  0  0  0
 27 20  2  0  0  0  0
M  END
>  <minimizedAffinity>
-4.91244125

$$$$

 OpenBabel03212520283D

 27 29  0  0  0  0  0  0  0  0999 V2000
   41.4700   71.7770   61.5200 C   0  0  0  0  0  0  0  0  0  0  0  0
   41.8140   71.5300   62.8470 C   0  0  0  0  0  0  0  0  0  0  0  0
   42.4000   70.2580   62.7430 C   0  0  0  0  0  0  0  0  0  0  0  0
   42.3920   69.8160   61.4730 N   0  0  0  0  0  0  0  0  0  0  0  0
   41.8190   70.7610   60.7450 N   0  0  0  0  0  0  0  0  0  0  0  0
   41.6880   72.1200   63.7440 H   0  0  0  0  0  0  0  0  0  0  0  0
   42.8130   69.6840   63.5690 H   0  0  0  0  0  0  0  0  0  0  0  0
   38.9100   74.4170   60.8990 C   0  0  0  0  0  0  0  0  0  0  0  0
   39.4930   73.2440   61.3570 C   0  0  0  0  0  0  0  0  0  0  0  0
   40.8200   72.9890   61.0620 C   0  0  0  0  0  0  0  0  0  0  0  0
   41.5330   73.9000   60.3230 N   0  0  0  0  0  0  0  0  0  0  0  0
   40.8960   75.0360   59.9020 C   0  0  0  0  0  0  0  0  0  0  0  0
   39.6180   75.2900   60.1830 N   0  0  0  0  0  0  0  0  0  0  0  0
   37.8710   74.5380   61.1740 H   0  0  0  0  0  0  0  0  0  0  0  0
   38.9440   72.5040   61.9490 H   0  0  0  0  0  0  0  0  0  0  0  0
   41.4010   75.7960   59.3150 H   0  0  0  0  0  0  0  0  0  0  0  0
   42.9120   68.5450   61.0020 C   0  0  0  0  0  0  0  0  0  0  0  0
   44.0010   68.5150   61.2570 H   0  0  0  0  0  0  0  0  0  0  0  0
   42.7710   68.4740   59.9160 H   0  0  0  0  0  0  0  0  0  0  0  0
   42.2470   67.4000   61.6780 C   0  0  0  0  0  0  0  0  0  0  0  0
   40.9600   66.9090   61.6450 C   0  0  0  0  0  0  0  0  0  0  0  0
   40.1910   67.3650   61.0410 H   0  0  0  0  0  0  0  0  0  0  0  0
   40.8590   65.8110   62.4680 C   0  0  0  0  0  0  0  0  0  0  0  0
   39.9050   65.2830   62.5700 H   0  0  0  0  0  0  0  0  0  0  0  0
   42.0920   65.6400   63.0000 N   0  0  0  0  0  0  0  0  0  0  0  0
   42.2730   64.8580   63.6670 H   0  0  0  0  0  0  0  0  0  0  0  0
   42.8970   66.5780   62.5290 N   0  0  0  0  0  0  0  0  0  0  0  0
  1  2  1  0  0  0  0
  2  6  1  0  0  0  0
  3  2  2  0  0  0  0
  3  7  1  0  0  0  0
  4  3  1  0  0  0  0
  5  4  1  0  0  0  0
  5  1  2  0  0  0  0
  8 14  1  0  0  0  0
  8  9  1  0  0  0  0
  9 15  1  0  0  0  0
 10  9  2  0  0  0  0
 10  1  1  0  0  0  0
 11 10  1  0  0  0  0
 12 13  1  0  0  0  0
 12 11  2  0  0  0  0
 13  8  2  0  0  0  0
 16 12  1  0  0  0  0
 17 18  1  0  0  0  0
 17  4  1  0  0  0  0
 17 20  1  0  0  0  0
 19 17  1  0  0  0  0
 20 27  2  0  0  0  0
 21 20  1  0  0  0  0
 21 23  2  0  0  0  0
 22 21  1  0  0  0  0
 23 24  1  0  0  0  0
 23 25  1  0  0  0  0
 25 26  1  0  0  0  0
 27 25  1  0  0  0  0
M  END
>  <minimizedAffinity>
-4.86940861

$$$$

 OpenBabel03212520283D

 27 29  0  0  0  0  0  0  0  0999 V2000
   41.9150   69.8010   61.9050 C   0  0  0  0  0  0  0  0  0  0  0  0
   42.1710   70.4970   63.0840 C   0  0  0  0  0  0  0  0  0  0  0  0
   42.1240   71.8250   62.6320 C   0  0  0  0  0  0  0  0  0  0  0  0
   41.8640   71.8860   61.3140 N   0  0  0  0  0  0  0  0  0  0  0  0
   41.7410   70.6370   60.8930 N   0  0  0  0  0  0  0  0  0  0  0  0
   42.3610   70.1560   64.0930 H   0  0  0  0  0  0  0  0  0  0  0  0
   42.2740   72.7080   63.2480 H   0  0  0  0  0  0  0  0  0  0  0  0
   41.6150   66.3390   60.5520 C   0  0  0  0  0  0  0  0  0  0  0  0
   41.6720   67.7250   60.5940 C   0  0  0  0  0  0  0  0  0  0  0  0
   41.8490   68.3560   61.8130 C   0  0  0  0  0  0  0  0  0  0  0  0
   41.9640   67.6000   62.9530 N   0  0  0  0  0  0  0  0  0  0  0  0
   41.8980   66.2380   62.8390 C   0  0  0  0  0  0  0  0  0  0  0  0
   41.7280   65.6220   61.6690 N   0  0  0  0  0  0  0  0  0  0  0  0
   41.4750   65.9260   59.5620 H   0  0  0  0  0  0  0  0  0  0  0  0
   41.5830   68.3460   59.6980 H   0  0  0  0  0  0  0  0  0  0  0  0
   41.9820   65.5830   63.6990 H   0  0  0  0  0  0  0  0  0  0  0  0
   41.7450   73.0930   60.5160 C   0  0  0  0  0  0  0  0  0  0  0  0
   41.8040   72.7890   59.4410 H   0  0  0  0  0  0  0  0  0  0  0  0
   42.5660   73.7770   60.7660 H   0  0  0  0  0  0  0  0  0  0  0  0
   40.4360   73.7640   60.7370 C   0  0  0  0  0  0  0  0  0  0  0  0
   39.1910   73.2980   61.0980 C   0  0  0  0  0  0  0  0  0  0  0  0
   39.0060   72.2510   61.2850 H   0  0  0  0  0  0  0  0  0  0  0  0
   38.3030   74.3470   61.1660 C   0  0  0  0  0  0  0  0  0  0  0  0
   37.2580   74.1690   61.4400 H   0  0  0  0  0  0  0  0  0  0  0  0
   39.0180   75.4500   60.8440 N   0  0  0  0  0  0  0  0  0  0  0  0
   38.5580   76.3870   60.8260 H   0  0  0  0  0  0  0  0  0  0  0  0
   40.2670   75.0960   60.5950 N   0  0  0  0  0  0  0  0  0  0  0  0
  1  2  1  0  0  0  0
  2  6  1  0  0  0  0
  3  2  2  0  0  0  0
  3  7  1  0  0  0  0
  4  3  1  0  0  0  0
  5  4  1  0  0  0  0
  5  1  2  0  0  0  0
  8  9  2  0  0  0  0
  8 13  1  0  0  0  0
  9 10  1  0  0  0  0
 10  1  1  0  0  0  0
 10 11  2  0  0  0  0
 12 11  1  0  0  0  0
 12 16  1  0  0  0  0
 13 12  2  0  0  0  0
 14  8  1  0  0  0  0
 15  9  1  0  0  0  0
 17 20  1  0  0  0  0
 17 19  1  0  0  0  0
 17  4  1  0  0  0  0
 18 17  1  0  0  0  0
 20 21  1  0  0  0  0
 21 23  2  0  0  0  0
 21 22  1  0  0  0  0
 23 24  1  0  0  0  0
 25 23  1  0  0  0  0
 26 25  1  0  0  0  0
 27 20  2  0  0  0  0
 27 25  1  0  0  0  0
M  END
>  <minimizedAffinity>
-4.80203295

$$$$

 OpenBabel03212520283D

 27 29  0  0  0  0  0  0  0  0999 V2000
   41.1020   73.0720   60.1480 C   0  0  0  0  0  0  0  0  0  0  0  0
   41.9450   73.5910   59.1680 C   0  0  0  0  0  0  0  0  0  0  0  0
   41.1640   74.6450   58.6690 C   0  0  0  0  0  0  0  0  0  0  0  0
   39.9810   74.7240   59.3040 N   0  0  0  0  0  0  0  0  0  0  0  0
   39.9670   73.7520   60.2020 N   0  0  0  0  0  0  0  0  0  0  0  0
   42.9340   73.3000   58.8430 H   0  0  0  0  0  0  0  0  0  0  0  0
   41.4550   75.3250   57.8720 H   0  0  0  0  0  0  0  0  0  0  0  0
   41.6670   70.9100   63.1340 C   0  0  0  0  0  0  0  0  0  0  0  0
   41.3390   72.0190   62.3670 C   0  0  0  0  0  0  0  0  0  0  0  0
   41.4350   71.9390   60.9890 C   0  0  0  0  0  0  0  0  0  0  0  0
   41.8530   70.7670   60.4090 N   0  0  0  0  0  0  0  0  0  0  0  0
   42.1630   69.7120   61.2250 C   0  0  0  0  0  0  0  0  0  0  0  0
   42.0720   69.7810   62.5530 N   0  0  0  0  0  0  0  0  0  0  0  0
   41.5640   71.0570   64.2010 H   0  0  0  0  0  0  0  0  0  0  0  0
   41.0030   72.9620   62.8080 H   0  0  0  0  0  0  0  0  0  0  0  0
   42.4990   68.7590   60.8330 H   0  0  0  0  0  0  0  0  0  0  0  0
   38.9290   75.6900   59.0460 C   0  0  0  0  0  0  0  0  0  0  0  0
   39.4220   76.6510   58.7520 H   0  0  0  0  0  0  0  0  0  0  0  0
   38.3310   75.8290   59.9550 H   0  0  0  0  0  0  0  0  0  0  0  0
   38.0550   75.2560   57.9230 C   0  0  0  0  0  0  0  0  0  0  0  0
   37.5300   75.9160   56.8330 C   0  0  0  0  0  0  0  0  0  0  0  0
   37.7230   76.9620   56.6520 H   0  0  0  0  0  0  0  0  0  0  0  0
   36.7720   75.0460   56.0840 C   0  0  0  0  0  0  0  0  0  0  0  0
   36.2730   75.3920   55.1730 H   0  0  0  0  0  0  0  0  0  0  0  0
   36.8420   73.8560   56.7250 N   0  0  0  0  0  0  0  0  0  0  0  0
   36.3410   73.0230   56.3450 H   0  0  0  0  0  0  0  0  0  0  0  0
   37.5970   73.9920   57.8030 N   0  0  0  0  0  0  0  0  0  0  0  0
  1  5  2  0  0  0  0
  1 10  1  0  0  0  0
  2  1  1  0  0  0  0
  3  2  2  0  0  0  0
  3  4  1  0  0  0  0
  4  5  1  0  0  0  0
  6  2  1  0  0  0  0
  7  3  1  0  0  0  0
  8 14  1  0  0  0  0
  9 15  1  0  0  0  0
  9  8  2  0  0  0  0
 10  9  1  0  0  0  0
 11 10  2  0  0  0  0
 11 12  1  0  0  0  0
 12 13  2  0  0  0  0
 13  8  1  0  0  0  0
 16 12  1  0  0  0  0
 17  4  1  0  0  0  0
 17 19  1  0  0  0  0
 18 17  1  0  0  0  0
 20 17  1  0  0  0  0
 21 20  1  0  0  0  0
 22 21  1  0  0  0  0
 23 25  1  0  0  0  0
 23 21  2  0  0  0  0
 24 23  1  0  0  0  0
 25 27  1  0  0  0  0
 26 25  1  0  0  0  0
 27 20  2  0  0  0  0
M  END
>  <minimizedAffinity>
-4.70945787

$$$$

 OpenBabel03212520283D

 27 29  0  0  0  0  0  0  0  0999 V2000
   39.6560   73.9970   59.7260 C   0  0  0  0  0  0  0  0  0  0  0  0
   39.1930   73.6930   61.0050 C   0  0  0  0  0  0  0  0  0  0  0  0
   40.2670   72.9440   61.5120 C   0  0  0  0  0  0  0  0  0  0  0  0
   41.2550   72.8290   60.6080 N   0  0  0  0  0  0  0  0  0  0  0  0
   40.8580   73.4790   59.5250 N   0  0  0  0  0  0  0  0  0  0  0  0
   38.2710   73.9410   61.5120 H   0  0  0  0  0  0  0  0  0  0  0  0
   40.3170   72.5040   62.5050 H   0  0  0  0  0  0  0  0  0  0  0  0
   38.4520   76.8240   57.6140 C   0  0  0  0  0  0  0  0  0  0  0  0
   39.1880   76.1160   58.5530 C   0  0  0  0  0  0  0  0  0  0  0  0
   38.9120   74.7760   58.7570 C   0  0  0  0  0  0  0  0  0  0  0  0
   37.9170   74.1740   58.0270 N   0  0  0  0  0  0  0  0  0  0  0  0
   37.2290   74.9320   57.1180 C   0  0  0  0  0  0  0  0  0  0  0  0
   37.4890   76.2240   56.9150 N   0  0  0  0  0  0  0  0  0  0  0  0
   38.7320   77.8650   57.5170 H   0  0  0  0  0  0  0  0  0  0  0  0
   39.9870   76.5750   59.1440 H   0  0  0  0  0  0  0  0  0  0  0  0
   36.4310   74.5200   56.5100 H   0  0  0  0  0  0  0  0  0  0  0  0
   42.5110   72.1240   60.7920 C   0  0  0  0  0  0  0  0  0  0  0  0
   42.3770   71.0910   60.3830 H   0  0  0  0  0  0  0  0  0  0  0  0
   42.7530   72.0840   61.8620 H   0  0  0  0  0  0  0  0  0  0  0  0
   43.6170   72.7780   60.0440 C   0  0  0  0  0  0  0  0  0  0  0  0
   44.1910   72.5370   58.8150 C   0  0  0  0  0  0  0  0  0  0  0  0
   43.8520   71.7360   58.1740 H   0  0  0  0  0  0  0  0  0  0  0  0
   45.1990   73.4440   58.5850 C   0  0  0  0  0  0  0  0  0  0  0  0
   45.7720   73.4090   57.6530 H   0  0  0  0  0  0  0  0  0  0  0  0
   45.2330   74.2360   59.6820 N   0  0  0  0  0  0  0  0  0  0  0  0
   45.9250   75.0140   59.7470 H   0  0  0  0  0  0  0  0  0  0  0  0
   44.3010   73.8360   60.5300 N   0  0  0  0  0  0  0  0  0  0  0  0
  1  2  1  0  0  0  0
  2  6  1  0  0  0  0
  2  3  2  0  0  0  0
  3  7  1  0  0  0  0
  4 17  1  0  0  0  0
  4  3  1  0  0  0  0
  5  1  2  0  0  0  0
  5  4  1  0  0  0  0
  8  9  1  0  0  0  0
  9 10  2  0  0  0  0
  9 15  1  0  0  0  0
 10  1  1  0  0  0  0
 11 10  1  0  0  0  0
 12 11  2  0  0  0  0
 13 12  1  0  0  0  0
 13  8  2  0  0  0  0
 14  8  1  0  0  0  0
 16 12  1  0  0  0  0
 17 19  1  0  0  0  0
 18 17  1  0  0  0  0
 20 27  2  0  0  0  0
 20 17  1  0  0  0  0
 21 20  1  0  0  0  0
 22 21  1  0  0  0  0
 23 21  2  0  0  0  0
 23 25  1  0  0  0  0
 24 23  1  0  0  0  0
 25 26  1  0  0  0  0
 25 27  1  0  0  0  0
M  END
>  <minimizedAffinity>
-4.66249466

$$$$

 OpenBabel03212520283D

 27 29  0  0  0  0  0  0  0  0999 V2000
   39.8400   73.9890   59.9320 C   0  0  0  0  0  0  0  0  0  0  0  0
   39.3950   73.7140   61.2230 C   0  0  0  0  0  0  0  0  0  0  0  0
   40.4860   72.9970   61.7400 C   0  0  0  0  0  0  0  0  0  0  0  0
   41.4670   72.8700   60.8280 N   0  0  0  0  0  0  0  0  0  0  0  0
   41.0480   73.4840   59.7320 N   0  0  0  0  0  0  0  0  0  0  0  0
   38.4750   73.9630   61.7340 H   0  0  0  0  0  0  0  0  0  0  0  0
   40.5530   72.5850   62.7430 H   0  0  0  0  0  0  0  0  0  0  0  0
   38.5260   76.7530   57.8010 C   0  0  0  0  0  0  0  0  0  0  0  0
   39.2810   76.0830   58.7530 C   0  0  0  0  0  0  0  0  0  0  0  0
   39.0740   74.7300   58.9490 C   0  0  0  0  0  0  0  0  0  0  0  0
   38.1270   74.0770   58.1990 N   0  0  0  0  0  0  0  0  0  0  0  0
   37.4170   74.7980   57.2780 C   0  0  0  0  0  0  0  0  0  0  0  0
   37.6110   76.1030   57.0830 N   0  0  0  0  0  0  0  0  0  0  0  0
   38.7500   77.8070   57.7120 H   0  0  0  0  0  0  0  0  0  0  0  0
   40.0420   76.5830   59.3610 H   0  0  0  0  0  0  0  0  0  0  0  0
   36.6550   74.3450   56.6540 H   0  0  0  0  0  0  0  0  0  0  0  0
   42.7350   72.1900   61.0180 C   0  0  0  0  0  0  0  0  0  0  0  0
   43.2690   72.7060   61.8550 H   0  0  0  0  0  0  0  0  0  0  0  0
   43.3220   72.2500   60.0930 H   0  0  0  0  0  0  0  0  0  0  0  0
   42.5360   70.7670   61.4030 C   0  0  0  0  0  0  0  0  0  0  0  0
   42.7270   70.0770   62.5800 C   0  0  0  0  0  0  0  0  0  0  0  0
   43.0920   70.5620   63.4730 H   0  0  0  0  0  0  0  0  0  0  0  0
   42.3880   68.7550   62.4050 C   0  0  0  0  0  0  0  0  0  0  0  0
   42.4750   68.0480   63.2370 H   0  0  0  0  0  0  0  0  0  0  0  0
   41.9920   68.6480   61.1160 N   0  0  0  0  0  0  0  0  0  0  0  0
   41.6810   67.7270   60.7360 H   0  0  0  0  0  0  0  0  0  0  0  0
   42.0820   69.8340   60.5380 N   0  0  0  0  0  0  0  0  0  0  0  0
  1  2  1  0  0  0  0
  2  6  1  0  0  0  0
  2  3  2  0  0  0  0
  3  7  1  0  0  0  0
  4 17  1  0  0  0  0
  4  3  1  0  0  0  0
  5  1  2  0  0  0  0
  5  4  1  0  0  0  0
  8  9  1  0  0  0  0
  9 10  2  0  0  0  0
  9 15  1  0  0  0  0
 10  1  1  0  0  0  0
 11 10  1  0  0  0  0
 12 11  2  0  0  0  0
 13 12  1  0  0  0  0
 13  8  2  0  0  0  0
 14  8  1  0  0  0  0
 16 12  1  0  0  0  0
 17 20  1  0  0  0  0
 17 18  1  0  0  0  0
 19 17  1  0  0  0  0
 20 21  1  0  0  0  0
 21 22  1  0  0  0  0
 23 21  2  0  0  0  0
 23 24  1  0  0  0  0
 25 23  1  0  0  0  0
 26 25  1  0  0  0  0
 27 25  1  0  0  0  0
 27 20  2  0  0  0  0
M  END
>  <minimizedAffinity>
-4.5498004

$$$$

 OpenBabel03212520283D

 27 29  0  0  0  0  0  0  0  0999 V2000
   41.9650   69.3090   61.2980 C   0  0  0  0  0  0  0  0  0  0  0  0
   42.2640   69.7790   60.0210 C   0  0  0  0  0  0  0  0  0  0  0  0
   42.1540   71.1660   60.2100 C   0  0  0  0  0  0  0  0  0  0  0  0
   41.8230   71.4640   61.4790 N   0  0  0  0  0  0  0  0  0  0  0  0
   41.7120   70.3130   62.1230 N   0  0  0  0  0  0  0  0  0  0  0  0
   42.5160   69.2620   59.1060 H   0  0  0  0  0  0  0  0  0  0  0  0
   42.3120   71.9220   59.4450 H   0  0  0  0  0  0  0  0  0  0  0  0
   42.4930   65.6170   61.2500 C   0  0  0  0  0  0  0  0  0  0  0  0
   42.5410   66.9490   60.8640 C   0  0  0  0  0  0  0  0  0  0  0  0
   41.9390   67.9060   61.6610 C   0  0  0  0  0  0  0  0  0  0  0  0
   41.3070   67.5190   62.8180 N   0  0  0  0  0  0  0  0  0  0  0  0
   41.2960   66.1880   63.1380 C   0  0  0  0  0  0  0  0  0  0  0  0
   41.8740   65.2600   62.3750 N   0  0  0  0  0  0  0  0  0  0  0  0
   42.9870   64.9350   60.5710 H   0  0  0  0  0  0  0  0  0  0  0  0
   43.0400   67.2800   59.9480 H   0  0  0  0  0  0  0  0  0  0  0  0
   40.8150   65.8160   64.0360 H   0  0  0  0  0  0  0  0  0  0  0  0
   41.6250   72.7940   62.0260 C   0  0  0  0  0  0  0  0  0  0  0  0
   42.5920   73.3460   61.9190 H   0  0  0  0  0  0  0  0  0  0  0  0
   41.3430   72.7150   63.0830 H   0  0  0  0  0  0  0  0  0  0  0  0
   40.5800   73.5410   61.2750 C   0  0  0  0  0  0  0  0  0  0  0  0
   39.2060   73.4560   61.2420 C   0  0  0  0  0  0  0  0  0  0  0  0
   38.6640   72.7390   61.8400 H   0  0  0  0  0  0  0  0  0  0  0  0
   38.7020   74.3900   60.3670 C   0  0  0  0  0  0  0  0  0  0  0  0
   37.6220   74.4730   60.2080 H   0  0  0  0  0  0  0  0  0  0  0  0
   39.7790   75.0420   59.8690 N   0  0  0  0  0  0  0  0  0  0  0  0
   39.6540   75.8090   59.1730 H   0  0  0  0  0  0  0  0  0  0  0  0
   40.8750   74.5350   60.4100 N   0  0  0  0  0  0  0  0  0  0  0  0
  1 10  1  0  0  0  0
  1  5  2  0  0  0  0
  2  3  2  0  0  0  0
  2  1  1  0  0  0  0
  3  4  1  0  0  0  0
  4 17  1  0  0  0  0
  4  5  1  0  0  0  0
  6  2  1  0  0  0  0
  7  3  1  0  0  0  0
  8 13  1  0  0  0  0
  9  8  2  0  0  0  0
  9 10  1  0  0  0  0
 10 11  2  0  0  0  0
 11 12  1  0  0  0  0
 12 16  1  0  0  0  0
 13 12  2  0  0  0  0
 14  8  1  0  0  0  0
 15  9  1  0  0  0  0
 17 19  1  0  0  0  0
 18 17  1  0  0  0  0
 20 17  1  0  0  0  0
 21 20  1  0  0  0  0
 21 22  1  0  0  0  0
 23 21  2  0  0  0  0
 24 23  1  0  0  0  0
 25 23  1  0  0  0  0
 25 27  1  0  0  0  0
 26 25  1  0  0  0  0
 27 20  2  0  0  0  0
M  END
>  <minimizedAffinity>
-4.51935673

$$$$
