
 OpenBabel03212521063D

 35 38  0  0  0  0  0  0  0  0999 V2000
   41.8120   84.2410   61.5610 C   0  0  0  0  0  0  0  0  0  0  0  0
   41.4530   83.9600   62.8750 C   0  0  0  0  0  0  0  0  0  0  0  0
   40.1830   83.5450   63.2210 C   0  0  0  0  0  0  0  0  0  0  0  0
   39.2230   83.4020   62.2130 C   0  0  0  0  0  0  0  0  0  0  0  0
   39.5770   83.6830   60.8890 C   0  0  0  0  0  0  0  0  0  0  0  0
   40.8520   84.0960   60.5640 C   0  0  0  0  0  0  0  0  0  0  0  0
   42.1410   84.0470   63.7080 H   0  0  0  0  0  0  0  0  0  0  0  0
   39.8810   83.3220   64.2350 H   0  0  0  0  0  0  0  0  0  0  0  0
   38.2000   83.0840   62.3750 H   0  0  0  0  0  0  0  0  0  0  0  0
   38.8450   83.5770   60.0970 H   0  0  0  0  0  0  0  0  0  0  0  0
   45.3310   84.1500   60.5960 C   0  0  0  0  0  0  0  0  0  0  0  0
   45.7200   85.4740   60.6970 C   0  0  0  0  0  0  0  0  0  0  0  0
   44.7620   86.4210   61.1020 C   0  0  0  0  0  0  0  0  0  0  0  0
   43.5050   85.9830   61.3750 N   0  0  0  0  0  0  0  0  0  0  0  0
   43.1530   84.6700   61.2660 C   0  0  0  0  0  0  0  0  0  0  0  0
   44.0630   83.7840   60.8820 N   0  0  0  0  0  0  0  0  0  0  0  0
   46.0980   83.4690   60.2830 H   0  0  0  0  0  0  0  0  0  0  0  0
   46.6860   85.8970   60.5010 H   0  0  0  0  0  0  0  0  0  0  0  0
   44.8820   87.4880   61.2370 H   0  0  0  0  0  0  0  0  0  0  0  0
   41.1690   84.3750   59.1820 C   0  0  0  0  0  0  0  0  0  0  0  0
   40.8120   85.6840   58.8280 C   0  0  0  0  0  0  0  0  0  0  0  0
   41.0300   86.1600   57.5400 C   0  0  0  0  0  0  0  0  0  0  0  0
   41.5950   85.3140   56.6600 N   0  0  0  0  0  0  0  0  0  0  0  0
   41.9350   84.0530   57.0150 C   0  0  0  0  0  0  0  0  0  0  0  0
   41.7320   83.5730   58.2540 N   0  0  0  0  0  0  0  0  0  0  0  0
   40.3540   86.4180   59.4840 H   0  0  0  0  0  0  0  0  0  0  0  0
   40.7690   87.1620   57.2270 H   0  0  0  0  0  0  0  0  0  0  0  0
   42.5380   83.1990   56.0150 C   0  0  0  0  0  0  0  0  0  0  0  0
   41.9100   82.1620   55.3200 C   0  0  0  0  0  0  0  0  0  0  0  0
   40.8730   81.8490   55.4340 H   0  0  0  0  0  0  0  0  0  0  0  0
   42.8640   81.6120   54.4590 C   0  0  0  0  0  0  0  0  0  0  0  0
   42.7040   80.7740   53.7650 H   0  0  0  0  0  0  0  0  0  0  0  0
   44.0150   82.3140   54.6510 N   0  0  0  0  0  0  0  0  0  0  0  0
   44.8890   82.1020   54.1260 H   0  0  0  0  0  0  0  0  0  0  0  0
   43.8080   83.2490   55.5730 N   0  0  0  0  0  0  0  0  0  0  0  0
  1  2  1  0  0  0  0
  2  3  2  0  0  0  0
  2  7  1  0  0  0  0
  3  8  1  0  0  0  0
  4  9  1  0  0  0  0
  4  3  1  0  0  0  0
  5  4  2  0  0  0  0
  6  5  1  0  0  0  0
  6  1  2  0  0  0  0
 10  5  1  0  0  0  0
 11 12  2  0  0  0  0
 11 16  1  0  0  0  0
 12 13  1  0  0  0  0
 13 19  1  0  0  0  0
 13 14  2  0  0  0  0
 15 14  1  0  0  0  0
 15  1  1  0  0  0  0
 16 15  2  0  0  0  0
 17 11  1  0  0  0  0
 18 12  1  0  0  0  0
 20  6  1  0  0  0  0
 21 20  1  0  0  0  0
 21 26  1  0  0  0  0
 22 21  2  0  0  0  0
 23 24  2  0  0  0  0
 23 22  1  0  0  0  0
 24 25  1  0  0  0  0
 25 20  2  0  0  0  0
 27 22  1  0  0  0  0
 28 24  1  0  0  0  0
 29 30  1  0  0  0  0
 29 28  1  0  0  0  0
 31 33  1  0  0  0  0
 31 29  2  0  0  0  0
 32 31  1  0  0  0  0
 33 35  1  0  0  0  0
 34 33  1  0  0  0  0
 35 28  2  0  0  0  0
M  END
>  <minimizedAffinity>
-5.37715864

>  <minimizedRMSD>
0.295569718

$$$$
