
 OpenBabel03212521053D

 35 38  0  0  0  0  0  0  0  0999 V2000
   41.8160   84.2440   61.5580 C   0  0  0  0  0  0  0  0  0  0  0  0
   41.4590   83.9450   62.8680 C   0  0  0  0  0  0  0  0  0  0  0  0
   40.1890   83.5270   63.2090 C   0  0  0  0  0  0  0  0  0  0  0  0
   39.2270   83.3970   62.2010 C   0  0  0  0  0  0  0  0  0  0  0  0
   39.5800   83.6960   60.8810 C   0  0  0  0  0  0  0  0  0  0  0  0
   40.8550   84.1130   60.5600 C   0  0  0  0  0  0  0  0  0  0  0  0
   42.1480   84.0210   63.7010 H   0  0  0  0  0  0  0  0  0  0  0  0
   39.8880   83.2890   64.2210 H   0  0  0  0  0  0  0  0  0  0  0  0
   38.2040   83.0780   62.3600 H   0  0  0  0  0  0  0  0  0  0  0  0
   38.8470   83.6020   60.0890 H   0  0  0  0  0  0  0  0  0  0  0  0
   45.3430   84.1590   60.6190 C   0  0  0  0  0  0  0  0  0  0  0  0
   45.7240   85.4860   60.7050 C   0  0  0  0  0  0  0  0  0  0  0  0
   44.7580   86.4330   61.0920 C   0  0  0  0  0  0  0  0  0  0  0  0
   43.5020   85.9920   61.3610 N   0  0  0  0  0  0  0  0  0  0  0  0
   43.1570   84.6760   61.2660 C   0  0  0  0  0  0  0  0  0  0  0  0
   44.0740   83.7900   60.9000 N   0  0  0  0  0  0  0  0  0  0  0  0
   46.1150   83.4780   60.3190 H   0  0  0  0  0  0  0  0  0  0  0  0
   46.6890   85.9120   60.5110 H   0  0  0  0  0  0  0  0  0  0  0  0
   44.8720   87.5020   61.2140 H   0  0  0  0  0  0  0  0  0  0  0  0
   41.1700   84.4100   59.1820 C   0  0  0  0  0  0  0  0  0  0  0  0
   40.7390   85.6960   58.8220 C   0  0  0  0  0  0  0  0  0  0  0  0
   40.9430   86.1850   57.5370 C   0  0  0  0  0  0  0  0  0  0  0  0
   41.5670   85.3730   56.6640 N   0  0  0  0  0  0  0  0  0  0  0  0
   41.9780   84.1350   57.0230 C   0  0  0  0  0  0  0  0  0  0  0  0
   41.7910   83.6440   58.2610 N   0  0  0  0  0  0  0  0  0  0  0  0
   40.2300   86.4010   59.4730 H   0  0  0  0  0  0  0  0  0  0  0  0
   40.6250   87.1690   57.2210 H   0  0  0  0  0  0  0  0  0  0  0  0
   42.6430   83.3200   56.0310 C   0  0  0  0  0  0  0  0  0  0  0  0
   42.5770   83.4800   54.6430 C   0  0  0  0  0  0  0  0  0  0  0  0
   42.0130   84.2460   54.1120 H   0  0  0  0  0  0  0  0  0  0  0  0
   43.3690   82.4770   54.0800 C   0  0  0  0  0  0  0  0  0  0  0  0
   43.5380   82.3120   53.0040 H   0  0  0  0  0  0  0  0  0  0  0  0
   43.8810   81.7530   55.1130 N   0  0  0  0  0  0  0  0  0  0  0  0
   44.5100   80.9390   54.9620 H   0  0  0  0  0  0  0  0  0  0  0  0
   43.4440   82.2620   56.2610 N   0  0  0  0  0  0  0  0  0  0  0  0
  1  2  1  0  0  0  0
  2  3  2  0  0  0  0
  2  7  1  0  0  0  0
  3  8  1  0  0  0  0
  4  9  1  0  0  0  0
  4  3  1  0  0  0  0
  5  4  2  0  0  0  0
  6  5  1  0  0  0  0
  6  1  2  0  0  0  0
 10  5  1  0  0  0  0
 11 12  2  0  0  0  0
 11 16  1  0  0  0  0
 12 13  1  0  0  0  0
 13 19  1  0  0  0  0
 13 14  2  0  0  0  0
 15 14  1  0  0  0  0
 15  1  1  0  0  0  0
 16 15  2  0  0  0  0
 17 11  1  0  0  0  0
 18 12  1  0  0  0  0
 20  6  1  0  0  0  0
 21 20  1  0  0  0  0
 21 26  1  0  0  0  0
 22 21  2  0  0  0  0
 23 24  2  0  0  0  0
 23 22  1  0  0  0  0
 24 25  1  0  0  0  0
 25 20  2  0  0  0  0
 27 22  1  0  0  0  0
 28 35  2  0  0  0  0
 28 24  1  0  0  0  0
 29 28  1  0  0  0  0
 30 29  1  0  0  0  0
 31 29  2  0  0  0  0
 31 33  1  0  0  0  0
 32 31  1  0  0  0  0
 33 35  1  0  0  0  0
 34 33  1  0  0  0  0
M  END
>  <minimizedAffinity>
-5.34604597

>  <minimizedRMSD>
0.216303512

$$$$
