
 OpenBabel03212521053D

 35 38  0  0  0  0  0  0  0  0999 V2000
   41.8110   84.2440   61.5550 C   0  0  0  0  0  0  0  0  0  0  0  0
   41.4560   83.9430   62.8650 C   0  0  0  0  0  0  0  0  0  0  0  0
   40.1860   83.5260   63.2090 C   0  0  0  0  0  0  0  0  0  0  0  0
   39.2230   83.4000   62.2020 C   0  0  0  0  0  0  0  0  0  0  0  0
   39.5740   83.7000   60.8810 C   0  0  0  0  0  0  0  0  0  0  0  0
   40.8490   84.1160   60.5590 C   0  0  0  0  0  0  0  0  0  0  0  0
   42.1470   84.0170   63.6980 H   0  0  0  0  0  0  0  0  0  0  0  0
   39.8870   83.2870   64.2200 H   0  0  0  0  0  0  0  0  0  0  0  0
   38.2000   83.0810   62.3620 H   0  0  0  0  0  0  0  0  0  0  0  0
   38.8390   83.6080   60.0900 H   0  0  0  0  0  0  0  0  0  0  0  0
   45.3350   84.1570   60.6050 C   0  0  0  0  0  0  0  0  0  0  0  0
   45.7190   85.4830   60.6980 C   0  0  0  0  0  0  0  0  0  0  0  0
   44.7570   86.4290   61.0940 C   0  0  0  0  0  0  0  0  0  0  0  0
   43.5000   85.9900   61.3640 N   0  0  0  0  0  0  0  0  0  0  0  0
   43.1520   84.6750   61.2620 C   0  0  0  0  0  0  0  0  0  0  0  0
   44.0660   83.7890   60.8880 N   0  0  0  0  0  0  0  0  0  0  0  0
   46.1050   83.4760   60.2990 H   0  0  0  0  0  0  0  0  0  0  0  0
   46.6850   85.9080   60.5040 H   0  0  0  0  0  0  0  0  0  0  0  0
   44.8730   87.4970   61.2220 H   0  0  0  0  0  0  0  0  0  0  0  0
   41.1620   84.4150   59.1810 C   0  0  0  0  0  0  0  0  0  0  0  0
   40.7430   85.7070   58.8270 C   0  0  0  0  0  0  0  0  0  0  0  0
   40.9470   86.1980   57.5430 C   0  0  0  0  0  0  0  0  0  0  0  0
   41.5600   85.3830   56.6650 N   0  0  0  0  0  0  0  0  0  0  0  0
   41.9600   84.1400   57.0180 C   0  0  0  0  0  0  0  0  0  0  0  0
   41.7710   83.6460   58.2550 N   0  0  0  0  0  0  0  0  0  0  0  0
   40.2440   86.4150   59.4830 H   0  0  0  0  0  0  0  0  0  0  0  0
   40.6380   87.1860   57.2310 H   0  0  0  0  0  0  0  0  0  0  0  0
   42.6120   83.3210   56.0210 C   0  0  0  0  0  0  0  0  0  0  0  0
   43.4670   82.2400   56.2600 C   0  0  0  0  0  0  0  0  0  0  0  0
   43.7600   81.8610   57.2380 H   0  0  0  0  0  0  0  0  0  0  0  0
   43.8610   81.7490   55.0140 C   0  0  0  0  0  0  0  0  0  0  0  0
   44.5360   80.8970   54.8370 H   0  0  0  0  0  0  0  0  0  0  0  0
   43.2530   82.5260   54.0750 N   0  0  0  0  0  0  0  0  0  0  0  0
   43.3830   82.3690   53.0550 H   0  0  0  0  0  0  0  0  0  0  0  0
   42.5180   83.4510   54.6840 N   0  0  0  0  0  0  0  0  0  0  0  0
  1  2  1  0  0  0  0
  2  3  2  0  0  0  0
  2  7  1  0  0  0  0
  3  8  1  0  0  0  0
  4  9  1  0  0  0  0
  4  3  1  0  0  0  0
  5  4  2  0  0  0  0
  6  5  1  0  0  0  0
  6  1  2  0  0  0  0
 10  5  1  0  0  0  0
 11 12  2  0  0  0  0
 11 16  1  0  0  0  0
 12 13  1  0  0  0  0
 13 19  1  0  0  0  0
 13 14  2  0  0  0  0
 15 14  1  0  0  0  0
 15  1  1  0  0  0  0
 16 15  2  0  0  0  0
 17 11  1  0  0  0  0
 18 12  1  0  0  0  0
 20  6  1  0  0  0  0
 21 20  1  0  0  0  0
 21 26  1  0  0  0  0
 22 21  2  0  0  0  0
 23 24  2  0  0  0  0
 23 22  1  0  0  0  0
 24 25  1  0  0  0  0
 25 20  2  0  0  0  0
 27 22  1  0  0  0  0
 28 29  1  0  0  0  0
 28 24  1  0  0  0  0
 29 30  1  0  0  0  0
 31 29  2  0  0  0  0
 32 31  1  0  0  0  0
 33 35  1  0  0  0  0
 33 31  1  0  0  0  0
 34 33  1  0  0  0  0
 35 28  2  0  0  0  0
M  END
>  <minimizedAffinity>
-5.30865526

>  <minimizedRMSD>
0.235762909

$$$$
