
 OpenBabel03212520263D

 27 29  0  0  0  0  0  0  0  0999 V2000
   42.4220   84.8480   61.0100 C   0  0  0  0  0  0  0  0  0  0  0  0
   43.4860   85.2060   61.8130 C   0  0  0  0  0  0  0  0  0  0  0  0
   44.1190   86.1800   61.0240 C   0  0  0  0  0  0  0  0  0  0  0  0
   43.4560   86.3630   59.8490 N   0  0  0  0  0  0  0  0  0  0  0  0
   42.4210   85.5410   59.8590 N   0  0  0  0  0  0  0  0  0  0  0  0
   43.7790   84.8590   62.7750 H   0  0  0  0  0  0  0  0  0  0  0  0
   45.0260   86.7250   61.3090 H   0  0  0  0  0  0  0  0  0  0  0  0
   40.8100   81.5810   61.8010 C   0  0  0  0  0  0  0  0  0  0  0  0
   41.7920   82.5030   61.4760 C   0  0  0  0  0  0  0  0  0  0  0  0
   41.4200   83.8510   61.3510 C   0  0  0  0  0  0  0  0  0  0  0  0
   40.1320   84.2180   61.5480 N   0  0  0  0  0  0  0  0  0  0  0  0
   39.2120   83.2500   61.8670 C   0  0  0  0  0  0  0  0  0  0  0  0
   39.5500   81.9540   61.9910 N   0  0  0  0  0  0  0  0  0  0  0  0
   41.0380   80.5310   61.9110 H   0  0  0  0  0  0  0  0  0  0  0  0
   42.8260   82.1980   61.3200 H   0  0  0  0  0  0  0  0  0  0  0  0
   38.2300   83.7040   61.9920 H   0  0  0  0  0  0  0  0  0  0  0  0
   43.8520   87.2820   58.8160 C   0  0  0  0  0  0  0  0  0  0  0  0
   43.0140   87.4600   58.0880 H   0  0  0  0  0  0  0  0  0  0  0  0
   44.1590   88.2640   59.2640 H   0  0  0  0  0  0  0  0  0  0  0  0
   44.9910   86.6740   58.0770 C   0  0  0  0  0  0  0  0  0  0  0  0
   44.8820   85.5200   57.2930 C   0  0  0  0  0  0  0  0  0  0  0  0
   43.9660   84.9510   57.1410 H   0  0  0  0  0  0  0  0  0  0  0  0
   46.0720   85.2140   56.7520 N   0  0  0  0  0  0  0  0  0  0  0  0
   46.2380   84.3950   56.1290 H   0  0  0  0  0  0  0  0  0  0  0  0
   46.9440   86.1560   57.1810 C   0  0  0  0  0  0  0  0  0  0  0  0
   47.9970   86.1780   56.9090 H   0  0  0  0  0  0  0  0  0  0  0  0
   46.2750   87.0340   57.9820 N   0  0  0  0  0  0  0  0  0  0  0  0
  1 10  1  0  0  0  0
  1  2  1  0  0  0  0
  2  6  1  0  0  0  0
  3  7  1  0  0  0  0
  3  2  2  0  0  0  0
  4  5  1  0  0  0  0
  4  3  1  0  0  0  0
  5  1  2  0  0  0  0
  8 14  1  0  0  0  0
  8 13  1  0  0  0  0
  9  8  2  0  0  0  0
 10  9  1  0  0  0  0
 10 11  2  0  0  0  0
 11 12  1  0  0  0  0
 12 13  2  0  0  0  0
 12 16  1  0  0  0  0
 15  9  1  0  0  0  0
 17 19  1  0  0  0  0
 17  4  1  0  0  0  0
 18 17  1  0  0  0  0
 20 17  1  0  0  0  0
 21 20  2  0  0  0  0
 22 21  1  0  0  0  0
 23 25  1  0  0  0  0
 23 21  1  0  0  0  0
 24 23  1  0  0  0  0
 25 27  2  0  0  0  0
 26 25  1  0  0  0  0
 27 20  1  0  0  0  0
M  END
>  <minimizedAffinity>
-4.04793501

>  <minimizedRMSD>
0.580861747

$$$$
