
 OpenBabel03212520263D

 27 29  0  0  0  0  0  0  0  0999 V2000
   42.3790   84.8630   60.9140 C   0  0  0  0  0  0  0  0  0  0  0  0
   43.4520   85.2510   61.6900 C   0  0  0  0  0  0  0  0  0  0  0  0
   44.0580   86.2160   60.8690 C   0  0  0  0  0  0  0  0  0  0  0  0
   43.3720   86.3650   59.7030 N   0  0  0  0  0  0  0  0  0  0  0  0
   42.3480   85.5300   59.7480 N   0  0  0  0  0  0  0  0  0  0  0  0
   43.7660   84.9290   62.6540 H   0  0  0  0  0  0  0  0  0  0  0  0
   44.9630   86.7780   61.1270 H   0  0  0  0  0  0  0  0  0  0  0  0
   40.8210   81.5920   61.7910 C   0  0  0  0  0  0  0  0  0  0  0  0
   41.7850   82.5190   61.4280 C   0  0  0  0  0  0  0  0  0  0  0  0
   41.3960   83.8610   61.2940 C   0  0  0  0  0  0  0  0  0  0  0  0
   40.1090   84.2170   61.5180 N   0  0  0  0  0  0  0  0  0  0  0  0
   39.2080   83.2450   61.8740 C   0  0  0  0  0  0  0  0  0  0  0  0
   39.5610   81.9550   62.0080 N   0  0  0  0  0  0  0  0  0  0  0  0
   41.0620   80.5450   61.9100 H   0  0  0  0  0  0  0  0  0  0  0  0
   42.8170   82.2210   61.2510 H   0  0  0  0  0  0  0  0  0  0  0  0
   38.2240   83.6910   62.0160 H   0  0  0  0  0  0  0  0  0  0  0  0
   43.7390   87.2660   58.6440 C   0  0  0  0  0  0  0  0  0  0  0  0
   42.9330   87.3230   57.8620 H   0  0  0  0  0  0  0  0  0  0  0  0
   43.9220   88.2950   59.0520 H   0  0  0  0  0  0  0  0  0  0  0  0
   44.9730   86.7390   58.0030 C   0  0  0  0  0  0  0  0  0  0  0  0
   45.0140   85.5660   57.2410 C   0  0  0  0  0  0  0  0  0  0  0  0
   44.1600   84.9210   57.0390 H   0  0  0  0  0  0  0  0  0  0  0  0
   46.2610   85.3480   56.7930 N   0  0  0  0  0  0  0  0  0  0  0  0
   46.5370   84.5330   56.2040 H   0  0  0  0  0  0  0  0  0  0  0  0
   47.0210   86.3660   57.2580 C   0  0  0  0  0  0  0  0  0  0  0  0
   48.0860   86.4690   57.0620 H   0  0  0  0  0  0  0  0  0  0  0  0
   46.2290   87.2020   57.9890 N   0  0  0  0  0  0  0  0  0  0  0  0
  1 10  1  0  0  0  0
  1  2  1  0  0  0  0
  2  6  1  0  0  0  0
  3  7  1  0  0  0  0
  3  2  2  0  0  0  0
  4  5  1  0  0  0  0
  4  3  1  0  0  0  0
  5  1  2  0  0  0  0
  8 14  1  0  0  0  0
  8 13  1  0  0  0  0
  9  8  2  0  0  0  0
 10  9  1  0  0  0  0
 10 11  2  0  0  0  0
 11 12  1  0  0  0  0
 12 13  2  0  0  0  0
 12 16  1  0  0  0  0
 15  9  1  0  0  0  0
 17 19  1  0  0  0  0
 17  4  1  0  0  0  0
 18 17  1  0  0  0  0
 20 17  1  0  0  0  0
 21 20  2  0  0  0  0
 22 21  1  0  0  0  0
 23 21  1  0  0  0  0
 23 25  1  0  0  0  0
 24 23  1  0  0  0  0
 25 27  2  0  0  0  0
 26 25  1  0  0  0  0
 27 20  1  0  0  0  0
M  END
>  <minimizedAffinity>
-4.05123711

>  <minimizedRMSD>
0.473149776

$$$$
