
 OpenBabel03212520263D

 27 29  0  0  0  0  0  0  0  0999 V2000
   42.4410   84.8430   61.0570 C   0  0  0  0  0  0  0  0  0  0  0  0
   43.5050   85.1790   61.8700 C   0  0  0  0  0  0  0  0  0  0  0  0
   44.1440   86.1670   61.1030 C   0  0  0  0  0  0  0  0  0  0  0  0
   43.4850   86.3770   59.9310 N   0  0  0  0  0  0  0  0  0  0  0  0
   42.4470   85.5590   59.9200 N   0  0  0  0  0  0  0  0  0  0  0  0
   43.7940   84.8120   62.8260 H   0  0  0  0  0  0  0  0  0  0  0  0
   45.0530   86.7020   61.4020 H   0  0  0  0  0  0  0  0  0  0  0  0
   40.8170   81.5710   61.7970 C   0  0  0  0  0  0  0  0  0  0  0  0
   41.8040   82.4950   61.4940 C   0  0  0  0  0  0  0  0  0  0  0  0
   41.4340   83.8440   61.3750 C   0  0  0  0  0  0  0  0  0  0  0  0
   40.1430   84.2090   61.5550 N   0  0  0  0  0  0  0  0  0  0  0  0
   39.2190   83.2390   61.8530 C   0  0  0  0  0  0  0  0  0  0  0  0
   39.5540   81.9420   61.9710 N   0  0  0  0  0  0  0  0  0  0  0  0
   41.0420   80.5190   61.9020 H   0  0  0  0  0  0  0  0  0  0  0  0
   42.8390   82.1900   61.3520 H   0  0  0  0  0  0  0  0  0  0  0  0
   38.2350   83.6930   61.9660 H   0  0  0  0  0  0  0  0  0  0  0  0
   43.8890   87.3140   58.9180 C   0  0  0  0  0  0  0  0  0  0  0  0
   42.9980   87.7330   58.3740 H   0  0  0  0  0  0  0  0  0  0  0  0
   44.4640   88.1620   59.3780 H   0  0  0  0  0  0  0  0  0  0  0  0
   44.7370   86.5890   57.9350 C   0  0  0  0  0  0  0  0  0  0  0  0
   46.1240   86.7440   57.8380 C   0  0  0  0  0  0  0  0  0  0  0  0
   46.7240   87.4030   58.4630 H   0  0  0  0  0  0  0  0  0  0  0  0
   46.6090   85.9610   56.8620 N   0  0  0  0  0  0  0  0  0  0  0  0
   47.6180   85.9060   56.6050 H   0  0  0  0  0  0  0  0  0  0  0  0
   45.5530   85.3060   56.3300 C   0  0  0  0  0  0  0  0  0  0  0  0
   45.6290   84.5930   55.5120 H   0  0  0  0  0  0  0  0  0  0  0  0
   44.4240   85.6950   56.9880 N   0  0  0  0  0  0  0  0  0  0  0  0
  1 10  1  0  0  0  0
  1  2  1  0  0  0  0
  2  6  1  0  0  0  0
  3  7  1  0  0  0  0
  3  2  2  0  0  0  0
  4  3  1  0  0  0  0
  5  4  1  0  0  0  0
  5  1  2  0  0  0  0
  8 14  1  0  0  0  0
  8 13  1  0  0  0  0
  9  8  2  0  0  0  0
 10  9  1  0  0  0  0
 10 11  2  0  0  0  0
 11 12  1  0  0  0  0
 12 16  1  0  0  0  0
 12 13  2  0  0  0  0
 15  9  1  0  0  0  0
 17 19  1  0  0  0  0
 17  4  1  0  0  0  0
 18 17  1  0  0  0  0
 20 17  1  0  0  0  0
 21 20  2  0  0  0  0
 21 22  1  0  0  0  0
 23 21  1  0  0  0  0
 24 23  1  0  0  0  0
 25 23  1  0  0  0  0
 25 27  2  0  0  0  0
 26 25  1  0  0  0  0
 27 20  1  0  0  0  0
M  END
>  <minimizedAffinity>
-4.21687603

>  <minimizedRMSD>
0.393358976

$$$$
