
 OpenBabel03212520263D

 27 29  0  0  0  0  0  0  0  0999 V2000
   42.4740   84.8440   61.2220 C   0  0  0  0  0  0  0  0  0  0  0  0
   43.4400   85.2290   62.1300 C   0  0  0  0  0  0  0  0  0  0  0  0
   44.1530   86.1870   61.3920 C   0  0  0  0  0  0  0  0  0  0  0  0
   43.6260   86.3360   60.1460 N   0  0  0  0  0  0  0  0  0  0  0  0
   42.6000   85.5070   60.0600 N   0  0  0  0  0  0  0  0  0  0  0  0
   43.6240   84.9090   63.1280 H   0  0  0  0  0  0  0  0  0  0  0  0
   45.0200   86.7450   61.7640 H   0  0  0  0  0  0  0  0  0  0  0  0
   40.7840   81.5720   61.7990 C   0  0  0  0  0  0  0  0  0  0  0  0
   41.7920   82.4920   61.5590 C   0  0  0  0  0  0  0  0  0  0  0  0
   41.4440   83.8490   61.4740 C   0  0  0  0  0  0  0  0  0  0  0  0
   40.1530   84.2270   61.6260 N   0  0  0  0  0  0  0  0  0  0  0  0
   39.2070   83.2610   61.8610 C   0  0  0  0  0  0  0  0  0  0  0  0
   39.5210   81.9560   61.9460 N   0  0  0  0  0  0  0  0  0  0  0  0
   40.9920   80.5140   61.8750 H   0  0  0  0  0  0  0  0  0  0  0  0
   42.8280   82.1770   61.4390 H   0  0  0  0  0  0  0  0  0  0  0  0
   38.2260   83.7240   61.9590 H   0  0  0  0  0  0  0  0  0  0  0  0
   44.1330   87.2310   59.1410 C   0  0  0  0  0  0  0  0  0  0  0  0
   43.2960   87.7710   58.6190 H   0  0  0  0  0  0  0  0  0  0  0  0
   44.8200   87.9880   59.6040 H   0  0  0  0  0  0  0  0  0  0  0  0
   44.8640   86.4190   58.1330 C   0  0  0  0  0  0  0  0  0  0  0  0
   46.2210   86.0920   58.2320 C   0  0  0  0  0  0  0  0  0  0  0  0
   46.8790   86.3930   59.0470 H   0  0  0  0  0  0  0  0  0  0  0  0
   46.5970   85.3530   57.1770 N   0  0  0  0  0  0  0  0  0  0  0  0
   47.5650   84.9910   57.0310 H   0  0  0  0  0  0  0  0  0  0  0  0
   45.5000   85.2010   56.4010 C   0  0  0  0  0  0  0  0  0  0  0  0
   45.4890   84.6450   55.4660 H   0  0  0  0  0  0  0  0  0  0  0  0
   44.4570   85.8510   56.9910 N   0  0  0  0  0  0  0  0  0  0  0  0
  1 10  1  0  0  0  0
  1  2  1  0  0  0  0
  2  6  1  0  0  0  0
  3  7  1  0  0  0  0
  3  2  2  0  0  0  0
  4  3  1  0  0  0  0
  5  4  1  0  0  0  0
  5  1  2  0  0  0  0
  8 14  1  0  0  0  0
  8 13  1  0  0  0  0
  9  8  2  0  0  0  0
 10  9  1  0  0  0  0
 10 11  2  0  0  0  0
 11 12  1  0  0  0  0
 12 13  2  0  0  0  0
 12 16  1  0  0  0  0
 15  9  1  0  0  0  0
 17 19  1  0  0  0  0
 17  4  1  0  0  0  0
 18 17  1  0  0  0  0
 20 21  2  0  0  0  0
 20 17  1  0  0  0  0
 21 22  1  0  0  0  0
 23 21  1  0  0  0  0
 24 23  1  0  0  0  0
 25 27  2  0  0  0  0
 25 23  1  0  0  0  0
 26 25  1  0  0  0  0
 27 20  1  0  0  0  0
M  END
>  <minimizedAffinity>
-4.22457695

>  <minimizedRMSD>
0.760048389

$$$$
