
 OpenBabel03212520263D

 27 29  0  0  0  0  0  0  0  0999 V2000
   42.4970   84.8420   61.2550 C   0  0  0  0  0  0  0  0  0  0  0  0
   43.3970   85.2830   62.2050 C   0  0  0  0  0  0  0  0  0  0  0  0
   44.1620   86.1980   61.4640 C   0  0  0  0  0  0  0  0  0  0  0  0
   43.7230   86.2710   60.1770 N   0  0  0  0  0  0  0  0  0  0  0  0
   42.7050   85.4360   60.0680 N   0  0  0  0  0  0  0  0  0  0  0  0
   43.5100   85.0220   63.2300 H   0  0  0  0  0  0  0  0  0  0  0  0
   45.0010   86.7800   61.8620 H   0  0  0  0  0  0  0  0  0  0  0  0
   40.7550   81.5910   61.7940 C   0  0  0  0  0  0  0  0  0  0  0  0
   41.7780   82.4970   61.5680 C   0  0  0  0  0  0  0  0  0  0  0  0
   41.4510   83.8600   61.4930 C   0  0  0  0  0  0  0  0  0  0  0  0
   40.1650   84.2560   61.6400 N   0  0  0  0  0  0  0  0  0  0  0  0
   39.2030   83.3020   61.8620 C   0  0  0  0  0  0  0  0  0  0  0  0
   39.4970   81.9920   61.9370 N   0  0  0  0  0  0  0  0  0  0  0  0
   40.9470   80.5290   61.8630 H   0  0  0  0  0  0  0  0  0  0  0  0
   42.8100   82.1680   61.4510 H   0  0  0  0  0  0  0  0  0  0  0  0
   38.2280   83.7790   61.9580 H   0  0  0  0  0  0  0  0  0  0  0  0
   44.3010   87.1070   59.1590 C   0  0  0  0  0  0  0  0  0  0  0  0
   43.5110   87.5060   58.4640 H   0  0  0  0  0  0  0  0  0  0  0  0
   44.8430   87.9720   59.6250 H   0  0  0  0  0  0  0  0  0  0  0  0
   45.2430   86.2740   58.3640 C   0  0  0  0  0  0  0  0  0  0  0  0
   45.6490   86.5860   57.0620 C   0  0  0  0  0  0  0  0  0  0  0  0
   45.3240   87.4600   56.4980 H   0  0  0  0  0  0  0  0  0  0  0  0
   46.4980   85.6520   56.6070 N   0  0  0  0  0  0  0  0  0  0  0  0
   46.9350   85.6720   55.6590 H   0  0  0  0  0  0  0  0  0  0  0  0
   46.6430   84.7450   57.5980 C   0  0  0  0  0  0  0  0  0  0  0  0
   47.2740   83.8610   57.5270 H   0  0  0  0  0  0  0  0  0  0  0  0
   45.8770   85.1330   58.6570 N   0  0  0  0  0  0  0  0  0  0  0  0
  1 10  1  0  0  0  0
  1  2  1  0  0  0  0
  2  6  1  0  0  0  0
  3  7  1  0  0  0  0
  3  2  2  0  0  0  0
  4  3  1  0  0  0  0
  5  4  1  0  0  0  0
  5  1  2  0  0  0  0
  8 14  1  0  0  0  0
  8 13  1  0  0  0  0
  9  8  2  0  0  0  0
 10  9  1  0  0  0  0
 10 11  2  0  0  0  0
 11 12  1  0  0  0  0
 12 13  2  0  0  0  0
 12 16  1  0  0  0  0
 15  9  1  0  0  0  0
 17 19  1  0  0  0  0
 17  4  1  0  0  0  0
 18 17  1  0  0  0  0
 20 27  1  0  0  0  0
 20 17  1  0  0  0  0
 21 20  2  0  0  0  0
 22 21  1  0  0  0  0
 23 21  1  0  0  0  0
 23 25  1  0  0  0  0
 24 23  1  0  0  0  0
 25 27  2  0  0  0  0
 26 25  1  0  0  0  0
M  END
>  <minimizedAffinity>
-3.9391818

>  <minimizedRMSD>
0.200511679

$$$$
