
 OpenBabel03212520263D

 27 29  0  0  0  0  0  0  0  0999 V2000
   42.4240   84.8490   61.0160 C   0  0  0  0  0  0  0  0  0  0  0  0
   43.4810   85.2130   61.8270 C   0  0  0  0  0  0  0  0  0  0  0  0
   44.1230   86.1780   61.0360 C   0  0  0  0  0  0  0  0  0  0  0  0
   43.4740   86.3520   59.8530 N   0  0  0  0  0  0  0  0  0  0  0  0
   42.4370   85.5310   59.8580 N   0  0  0  0  0  0  0  0  0  0  0  0
   43.7620   84.8740   62.7960 H   0  0  0  0  0  0  0  0  0  0  0  0
   45.0280   86.7250   61.3270 H   0  0  0  0  0  0  0  0  0  0  0  0
   40.7950   81.5900   61.7990 C   0  0  0  0  0  0  0  0  0  0  0  0
   41.7810   82.5070   61.4750 C   0  0  0  0  0  0  0  0  0  0  0  0
   41.4170   83.8570   61.3550 C   0  0  0  0  0  0  0  0  0  0  0  0
   40.1310   84.2310   61.5550 N   0  0  0  0  0  0  0  0  0  0  0  0
   39.2070   83.2670   61.8730 C   0  0  0  0  0  0  0  0  0  0  0  0
   39.5360   81.9690   61.9920 N   0  0  0  0  0  0  0  0  0  0  0  0
   41.0160   80.5370   61.9050 H   0  0  0  0  0  0  0  0  0  0  0  0
   42.8130   82.1960   61.3170 H   0  0  0  0  0  0  0  0  0  0  0  0
   38.2270   83.7270   62.0000 H   0  0  0  0  0  0  0  0  0  0  0  0
   43.8840   87.2600   58.8160 C   0  0  0  0  0  0  0  0  0  0  0  0
   43.0490   87.4450   58.0850 H   0  0  0  0  0  0  0  0  0  0  0  0
   44.2010   88.2410   59.2590 H   0  0  0  0  0  0  0  0  0  0  0  0
   45.0150   86.6340   58.0820 C   0  0  0  0  0  0  0  0  0  0  0  0
   44.8820   85.5120   57.2560 C   0  0  0  0  0  0  0  0  0  0  0  0
   43.9490   84.9830   57.0650 H   0  0  0  0  0  0  0  0  0  0  0  0
   46.0720   85.1800   56.7330 N   0  0  0  0  0  0  0  0  0  0  0  0
   46.2210   84.3760   56.0850 H   0  0  0  0  0  0  0  0  0  0  0  0
   46.9680   86.0730   57.2110 C   0  0  0  0  0  0  0  0  0  0  0  0
   48.0270   86.0640   56.9640 H   0  0  0  0  0  0  0  0  0  0  0  0
   46.3160   86.9490   58.0260 N   0  0  0  0  0  0  0  0  0  0  0  0
  1 10  1  0  0  0  0
  1  2  1  0  0  0  0
  2  6  1  0  0  0  0
  3  7  1  0  0  0  0
  3  2  2  0  0  0  0
  4  5  1  0  0  0  0
  4  3  1  0  0  0  0
  5  1  2  0  0  0  0
  8 14  1  0  0  0  0
  8 13  1  0  0  0  0
  9  8  2  0  0  0  0
 10  9  1  0  0  0  0
 10 11  2  0  0  0  0
 11 12  1  0  0  0  0
 12 13  2  0  0  0  0
 12 16  1  0  0  0  0
 15  9  1  0  0  0  0
 17 19  1  0  0  0  0
 17  4  1  0  0  0  0
 18 17  1  0  0  0  0
 20 17  1  0  0  0  0
 21 20  2  0  0  0  0
 22 21  1  0  0  0  0
 23 25  1  0  0  0  0
 23 21  1  0  0  0  0
 24 23  1  0  0  0  0
 25 27  2  0  0  0  0
 26 25  1  0  0  0  0
 27 20  1  0  0  0  0
M  END
>  <minimizedAffinity>
-4.04994249

>  <minimizedRMSD>
0.386009723

$$$$
