
 OpenBabel03212520263D

 27 29  0  0  0  0  0  0  0  0999 V2000
   42.4340   84.8350   61.0970 C   0  0  0  0  0  0  0  0  0  0  0  0
   43.4770   85.1780   61.9330 C   0  0  0  0  0  0  0  0  0  0  0  0
   44.1340   86.1600   61.1740 C   0  0  0  0  0  0  0  0  0  0  0  0
   43.5040   86.3610   59.9850 N   0  0  0  0  0  0  0  0  0  0  0  0
   42.4660   85.5430   59.9550 N   0  0  0  0  0  0  0  0  0  0  0  0
   43.7430   84.8170   62.8980 H   0  0  0  0  0  0  0  0  0  0  0  0
   45.0350   86.6980   61.4920 H   0  0  0  0  0  0  0  0  0  0  0  0
   40.7880   81.5620   61.7850 C   0  0  0  0  0  0  0  0  0  0  0  0
   41.7810   82.4850   61.4990 C   0  0  0  0  0  0  0  0  0  0  0  0
   41.4200   83.8370   61.3980 C   0  0  0  0  0  0  0  0  0  0  0  0
   40.1300   84.2080   61.5800 N   0  0  0  0  0  0  0  0  0  0  0  0
   39.1990   83.2400   61.8610 C   0  0  0  0  0  0  0  0  0  0  0  0
   39.5260   81.9390   61.9620 N   0  0  0  0  0  0  0  0  0  0  0  0
   41.0060   80.5080   61.8760 H   0  0  0  0  0  0  0  0  0  0  0  0
   42.8150   82.1760   61.3540 H   0  0  0  0  0  0  0  0  0  0  0  0
   38.2180   83.6980   61.9780 H   0  0  0  0  0  0  0  0  0  0  0  0
   43.9320   87.2920   58.9750 C   0  0  0  0  0  0  0  0  0  0  0  0
   43.0510   87.7590   58.4550 H   0  0  0  0  0  0  0  0  0  0  0  0
   44.5550   88.1050   59.4330 H   0  0  0  0  0  0  0  0  0  0  0  0
   44.7240   86.5390   57.9670 C   0  0  0  0  0  0  0  0  0  0  0  0
   45.0110   85.1730   58.0640 C   0  0  0  0  0  0  0  0  0  0  0  0
   44.6920   84.5230   58.8760 H   0  0  0  0  0  0  0  0  0  0  0  0
   45.7410   84.7790   57.0090 N   0  0  0  0  0  0  0  0  0  0  0  0
   46.0760   83.8020   56.8620 H   0  0  0  0  0  0  0  0  0  0  0  0
   45.9250   85.8730   56.2350 C   0  0  0  0  0  0  0  0  0  0  0  0
   46.4840   85.8700   55.3010 H   0  0  0  0  0  0  0  0  0  0  0  0
   45.3050   86.9330   56.8270 N   0  0  0  0  0  0  0  0  0  0  0  0
  1 10  1  0  0  0  0
  1  2  1  0  0  0  0
  2  6  1  0  0  0  0
  3  7  1  0  0  0  0
  3  2  2  0  0  0  0
  4  3  1  0  0  0  0
  5  4  1  0  0  0  0
  5  1  2  0  0  0  0
  8 14  1  0  0  0  0
  8 13  1  0  0  0  0
  9  8  2  0  0  0  0
 10  9  1  0  0  0  0
 10 11  2  0  0  0  0
 11 12  1  0  0  0  0
 12 13  2  0  0  0  0
 12 16  1  0  0  0  0
 15  9  1  0  0  0  0
 17 19  1  0  0  0  0
 17  4  1  0  0  0  0
 18 17  1  0  0  0  0
 20 21  2  0  0  0  0
 20 17  1  0  0  0  0
 21 22  1  0  0  0  0
 23 21  1  0  0  0  0
 24 23  1  0  0  0  0
 25 27  2  0  0  0  0
 25 23  1  0  0  0  0
 26 25  1  0  0  0  0
 27 20  1  0  0  0  0
M  END
>  <minimizedAffinity>
-4.25956726

>  <minimizedRMSD>
0.39309442

$$$$
