
 OpenBabel03212520283D

 27 29  0  0  0  0  0  0  0  0999 V2000
   38.8000   75.9520   58.6280 C   0  0  0  0  0  0  0  0  0  0  0  0
   39.5230   76.7200   59.5190 C   0  0  0  0  0  0  0  0  0  0  0  0
   39.6910   75.8260   60.5880 C   0  0  0  0  0  0  0  0  0  0  0  0
   39.1020   74.6280   60.3220 N   0  0  0  0  0  0  0  0  0  0  0  0
   38.5630   74.7240   59.1180 N   0  0  0  0  0  0  0  0  0  0  0  0
   39.8750   77.7210   59.4480 H   0  0  0  0  0  0  0  0  0  0  0  0
   40.2260   76.0550   61.5180 H   0  0  0  0  0  0  0  0  0  0  0  0
   38.7030   77.6330   55.3030 C   0  0  0  0  0  0  0  0  0  0  0  0
   39.1700   77.2250   56.5420 C   0  0  0  0  0  0  0  0  0  0  0  0
   38.3460   76.3990   57.3210 C   0  0  0  0  0  0  0  0  0  0  0  0
   37.1310   76.0230   56.8560 N   0  0  0  0  0  0  0  0  0  0  0  0
   36.7340   76.4650   55.6190 C   0  0  0  0  0  0  0  0  0  0  0  0
   37.5090   77.2570   54.8570 N   0  0  0  0  0  0  0  0  0  0  0  0
   39.2940   78.2680   54.6580 H   0  0  0  0  0  0  0  0  0  0  0  0
   40.1490   77.5330   56.9070 H   0  0  0  0  0  0  0  0  0  0  0  0
   35.7410   76.0770   55.3920 H   0  0  0  0  0  0  0  0  0  0  0  0
   39.0850   73.5030   61.2170 C   0  0  0  0  0  0  0  0  0  0  0  0
   38.6780   73.7940   62.2250 H   0  0  0  0  0  0  0  0  0  0  0  0
   38.4520   72.6780   60.7950 H   0  0  0  0  0  0  0  0  0  0  0  0
   40.4860   73.0400   61.3960 C   0  0  0  0  0  0  0  0  0  0  0  0
   41.2980   72.5920   60.3480 C   0  0  0  0  0  0  0  0  0  0  0  0
   40.9950   72.5350   59.3040 H   0  0  0  0  0  0  0  0  0  0  0  0
   42.5060   72.2420   60.8170 N   0  0  0  0  0  0  0  0  0  0  0  0
   43.2800   71.8770   60.2200 H   0  0  0  0  0  0  0  0  0  0  0  0
   42.4810   72.4600   62.1510 C   0  0  0  0  0  0  0  0  0  0  0  0
   43.3220   72.2680   62.8140 H   0  0  0  0  0  0  0  0  0  0  0  0
   41.2520   72.9430   62.4900 N   0  0  0  0  0  0  0  0  0  0  0  0
  1  5  2  0  0  0  0
  1  2  1  0  0  0  0
  2  3  2  0  0  0  0
  3  7  1  0  0  0  0
  4  3  1  0  0  0  0
  4 17  1  0  0  0  0
  5  4  1  0  0  0  0
  6  2  1  0  0  0  0
  8  9  1  0  0  0  0
  9 15  1  0  0  0  0
  9 10  2  0  0  0  0
 10  1  1  0  0  0  0
 11 10  1  0  0  0  0
 12 11  2  0  0  0  0
 13  8  2  0  0  0  0
 13 12  1  0  0  0  0
 14  8  1  0  0  0  0
 16 12  1  0  0  0  0
 17 20  1  0  0  0  0
 17 18  1  0  0  0  0
 19 17  1  0  0  0  0
 20 27  1  0  0  0  0
 21 23  1  0  0  0  0
 21 20  2  0  0  0  0
 22 21  1  0  0  0  0
 23 25  1  0  0  0  0
 24 23  1  0  0  0  0
 25 27  2  0  0  0  0
 25 26  1  0  0  0  0
M  END
>  <minimizedAffinity>
-4.98961687

$$$$

 OpenBabel03212520283D

 27 29  0  0  0  0  0  0  0  0999 V2000
   38.2450   75.8770   57.8430 C   0  0  0  0  0  0  0  0  0  0  0  0
   39.0830   76.7650   58.4870 C   0  0  0  0  0  0  0  0  0  0  0  0
   39.3070   76.1050   59.7060 C   0  0  0  0  0  0  0  0  0  0  0  0
   38.6390   74.9190   59.7500 N   0  0  0  0  0  0  0  0  0  0  0  0
   37.9960   74.7970   58.6020 N   0  0  0  0  0  0  0  0  0  0  0  0
   39.4740   77.7030   58.1750 H   0  0  0  0  0  0  0  0  0  0  0  0
   39.9360   76.4870   60.5190 H   0  0  0  0  0  0  0  0  0  0  0  0
   37.3050   75.2880   54.2840 C   0  0  0  0  0  0  0  0  0  0  0  0
   37.8430   75.0680   55.5410 C   0  0  0  0  0  0  0  0  0  0  0  0
   37.6930   76.0710   56.5120 C   0  0  0  0  0  0  0  0  0  0  0  0
   37.0350   77.2140   56.2050 N   0  0  0  0  0  0  0  0  0  0  0  0
   36.5280   77.3640   54.9390 C   0  0  0  0  0  0  0  0  0  0  0  0
   36.6620   76.4150   53.9960 N   0  0  0  0  0  0  0  0  0  0  0  0
   37.3890   74.5520   53.4970 H   0  0  0  0  0  0  0  0  0  0  0  0
   38.3700   74.1440   55.7770 H   0  0  0  0  0  0  0  0  0  0  0  0
   36.0330   78.3310   54.8540 H   0  0  0  0  0  0  0  0  0  0  0  0
   38.6520   74.0100   60.8640 C   0  0  0  0  0  0  0  0  0  0  0  0
   38.7390   74.5640   61.8390 H   0  0  0  0  0  0  0  0  0  0  0  0
   37.7110   73.3980   60.8790 H   0  0  0  0  0  0  0  0  0  0  0  0
   39.8400   73.1280   60.7210 C   0  0  0  0  0  0  0  0  0  0  0  0
   40.7030   72.8060   61.7740 C   0  0  0  0  0  0  0  0  0  0  0  0
   40.6010   73.1630   62.7970 H   0  0  0  0  0  0  0  0  0  0  0  0
   41.6790   71.9940   61.3400 N   0  0  0  0  0  0  0  0  0  0  0  0
   42.4420   71.6210   61.9460 H   0  0  0  0  0  0  0  0  0  0  0  0
   41.4530   71.7880   60.0220 C   0  0  0  0  0  0  0  0  0  0  0  0
   42.0810   71.1660   59.3870 H   0  0  0  0  0  0  0  0  0  0  0  0
   40.3370   72.4800   59.6590 N   0  0  0  0  0  0  0  0  0  0  0  0
  1  2  1  0  0  0  0
  1  5  2  0  0  0  0
  2  3  2  0  0  0  0
  3  4  1  0  0  0  0
  3  7  1  0  0  0  0
  4 17  1  0  0  0  0
  5  4  1  0  0  0  0
  6  2  1  0  0  0  0
  8  9  1  0  0  0  0
  9 15  1  0  0  0  0
  9 10  2  0  0  0  0
 10  1  1  0  0  0  0
 11 10  1  0  0  0  0
 12 11  2  0  0  0  0
 13  8  2  0  0  0  0
 13 12  1  0  0  0  0
 14  8  1  0  0  0  0
 16 12  1  0  0  0  0
 17 19  1  0  0  0  0
 17 18  1  0  0  0  0
 20 17  1  0  0  0  0
 20 21  2  0  0  0  0
 21 22  1  0  0  0  0
 23 21  1  0  0  0  0
 23 24  1  0  0  0  0
 25 23  1  0  0  0  0
 26 25  1  0  0  0  0
 27 25  2  0  0  0  0
 27 20  1  0  0  0  0
M  END
>  <minimizedAffinity>
-4.92006922

$$$$

 OpenBabel03212520283D

 27 29  0  0  0  0  0  0  0  0999 V2000
   41.6760   72.9270   61.0280 C   0  0  0  0  0  0  0  0  0  0  0  0
   42.4590   73.5210   60.0580 C   0  0  0  0  0  0  0  0  0  0  0  0
   41.7050   74.6650   59.7500 C   0  0  0  0  0  0  0  0  0  0  0  0
   40.5670   74.7160   60.4970 N   0  0  0  0  0  0  0  0  0  0  0  0
   40.5670   73.6450   61.2720 N   0  0  0  0  0  0  0  0  0  0  0  0
   43.3880   73.2230   59.6350 H   0  0  0  0  0  0  0  0  0  0  0  0
   41.9880   75.4210   59.0090 H   0  0  0  0  0  0  0  0  0  0  0  0
   43.2200   69.6300   61.8270 C   0  0  0  0  0  0  0  0  0  0  0  0
   42.9410   70.8070   61.1520 C   0  0  0  0  0  0  0  0  0  0  0  0
   41.9960   71.6820   61.7080 C   0  0  0  0  0  0  0  0  0  0  0  0
   41.3840   71.3650   62.8730 N   0  0  0  0  0  0  0  0  0  0  0  0
   41.7090   70.1810   63.4870 C   0  0  0  0  0  0  0  0  0  0  0  0
   42.6130   69.3300   62.9700 N   0  0  0  0  0  0  0  0  0  0  0  0
   43.9390   68.9180   61.4480 H   0  0  0  0  0  0  0  0  0  0  0  0
   43.4390   71.0530   60.2150 H   0  0  0  0  0  0  0  0  0  0  0  0
   41.1340   70.0750   64.4070 H   0  0  0  0  0  0  0  0  0  0  0  0
   39.5750   75.7530   60.4130 C   0  0  0  0  0  0  0  0  0  0  0  0
   38.8930   75.7360   61.3070 H   0  0  0  0  0  0  0  0  0  0  0  0
   40.0670   76.7600   60.3530 H   0  0  0  0  0  0  0  0  0  0  0  0
   38.7570   75.5050   59.1960 C   0  0  0  0  0  0  0  0  0  0  0  0
   38.0170   74.3380   58.9810 C   0  0  0  0  0  0  0  0  0  0  0  0
   37.9610   73.4960   59.6690 H   0  0  0  0  0  0  0  0  0  0  0  0
   37.3840   74.4040   57.7990 N   0  0  0  0  0  0  0  0  0  0  0  0
   36.7710   73.6490   57.4210 H   0  0  0  0  0  0  0  0  0  0  0  0
   37.7060   75.5980   57.2540 C   0  0  0  0  0  0  0  0  0  0  0  0
   37.3430   75.9440   56.2880 H   0  0  0  0  0  0  0  0  0  0  0  0
   38.5390   76.2560   58.1100 N   0  0  0  0  0  0  0  0  0  0  0  0
  1  5  2  0  0  0  0
  1 10  1  0  0  0  0
  2  1  1  0  0  0  0
  3  2  2  0  0  0  0
  3  4  1  0  0  0  0
  4  5  1  0  0  0  0
  6  2  1  0  0  0  0
  7  3  1  0  0  0  0
  8 13  1  0  0  0  0
  9 10  1  0  0  0  0
  9  8  2  0  0  0  0
 10 11  2  0  0  0  0
 11 12  1  0  0  0  0
 12 16  1  0  0  0  0
 13 12  2  0  0  0  0
 14  8  1  0  0  0  0
 15  9  1  0  0  0  0
 17  4  1  0  0  0  0
 17 18  1  0  0  0  0
 19 17  1  0  0  0  0
 20 17  1  0  0  0  0
 21 20  2  0  0  0  0
 21 22  1  0  0  0  0
 23 21  1  0  0  0  0
 24 23  1  0  0  0  0
 25 23  1  0  0  0  0
 25 27  2  0  0  0  0
 26 25  1  0  0  0  0
 27 20  1  0  0  0  0
M  END
>  <minimizedAffinity>
-4.91642714

$$$$

 OpenBabel03212520283D

 27 29  0  0  0  0  0  0  0  0999 V2000
   38.9980   76.0650   58.1670 C   0  0  0  0  0  0  0  0  0  0  0  0
   39.8400   77.0220   57.6380 C   0  0  0  0  0  0  0  0  0  0  0  0
   39.0410   77.5680   56.6210 C   0  0  0  0  0  0  0  0  0  0  0  0
   37.8240   76.9600   56.5750 N   0  0  0  0  0  0  0  0  0  0  0  0
   37.8160   76.0440   57.5290 N   0  0  0  0  0  0  0  0  0  0  0  0
   40.8320   77.3000   57.9040 H   0  0  0  0  0  0  0  0  0  0  0  0
   39.3500   78.3770   55.9480 H   0  0  0  0  0  0  0  0  0  0  0  0
   40.9520   74.0110   60.5870 C   0  0  0  0  0  0  0  0  0  0  0  0
   40.6720   74.8540   59.5240 C   0  0  0  0  0  0  0  0  0  0  0  0
   39.3310   75.1830   59.2740 C   0  0  0  0  0  0  0  0  0  0  0  0
   38.3530   74.6790   60.0630 N   0  0  0  0  0  0  0  0  0  0  0  0
   38.7040   73.8490   61.0990 C   0  0  0  0  0  0  0  0  0  0  0  0
   39.9830   73.5220   61.3540 N   0  0  0  0  0  0  0  0  0  0  0  0
   41.9650   73.7230   60.8280 H   0  0  0  0  0  0  0  0  0  0  0  0
   41.4660   75.2550   58.8960 H   0  0  0  0  0  0  0  0  0  0  0  0
   37.8090   73.5310   61.6330 H   0  0  0  0  0  0  0  0  0  0  0  0
   36.7800   77.2790   55.6390 C   0  0  0  0  0  0  0  0  0  0  0  0
   35.7810   76.9190   56.0080 H   0  0  0  0  0  0  0  0  0  0  0  0
   36.7280   78.3880   55.4760 H   0  0  0  0  0  0  0  0  0  0  0  0
   37.0840   76.5830   54.3610 C   0  0  0  0  0  0  0  0  0  0  0  0
   36.5120   75.3630   53.9830 C   0  0  0  0  0  0  0  0  0  0  0  0
   35.7940   74.8000   54.5760 H   0  0  0  0  0  0  0  0  0  0  0  0
   36.9780   74.9870   52.7830 N   0  0  0  0  0  0  0  0  0  0  0  0
   36.6950   74.1090   52.2950 H   0  0  0  0  0  0  0  0  0  0  0  0
   37.8410   75.9480   52.3840 C   0  0  0  0  0  0  0  0  0  0  0  0
   38.3850   75.9250   51.4410 H   0  0  0  0  0  0  0  0  0  0  0  0
   37.8970   76.9100   53.3490 N   0  0  0  0  0  0  0  0  0  0  0  0
  1 10  1  0  0  0  0
  2  6  1  0  0  0  0
  2  1  1  0  0  0  0
  3  2  2  0  0  0  0
  4  3  1  0  0  0  0
  4  5  1  0  0  0  0
  5  1  2  0  0  0  0
  7  3  1  0  0  0  0
  8 14  1  0  0  0  0
  8 13  1  0  0  0  0
  9  8  2  0  0  0  0
 10  9  1  0  0  0  0
 10 11  2  0  0  0  0
 11 12  1  0  0  0  0
 12 13  2  0  0  0  0
 12 16  1  0  0  0  0
 15  9  1  0  0  0  0
 17 18  1  0  0  0  0
 17  4  1  0  0  0  0
 19 17  1  0  0  0  0
 20 17  1  0  0  0  0
 21 20  2  0  0  0  0
 21 22  1  0  0  0  0
 23 21  1  0  0  0  0
 24 23  1  0  0  0  0
 25 23  1  0  0  0  0
 25 27  2  0  0  0  0
 26 25  1  0  0  0  0
 27 20  1  0  0  0  0
M  END
>  <minimizedAffinity>
-4.90333939

$$$$

 OpenBabel03212520283D

 27 29  0  0  0  0  0  0  0  0999 V2000
   40.2580   73.3310   60.7770 C   0  0  0  0  0  0  0  0  0  0  0  0
   38.9780   73.6150   61.2110 C   0  0  0  0  0  0  0  0  0  0  0  0
   38.5970   74.6280   60.3160 C   0  0  0  0  0  0  0  0  0  0  0  0
   39.5950   74.9010   59.4320 N   0  0  0  0  0  0  0  0  0  0  0  0
   40.6020   74.0980   59.7280 N   0  0  0  0  0  0  0  0  0  0  0  0
   38.4050   73.1990   62.0040 H   0  0  0  0  0  0  0  0  0  0  0  0
   37.6250   75.1360   60.3230 H   0  0  0  0  0  0  0  0  0  0  0  0
   43.0450   70.8990   61.2330 C   0  0  0  0  0  0  0  0  0  0  0  0
   42.2330   71.8510   60.6380 C   0  0  0  0  0  0  0  0  0  0  0  0
   41.1350   72.3330   61.3670 C   0  0  0  0  0  0  0  0  0  0  0  0
   40.8940   71.8660   62.6150 N   0  0  0  0  0  0  0  0  0  0  0  0
   41.7420   70.9230   63.1410 C   0  0  0  0  0  0  0  0  0  0  0  0
   42.7990   70.4490   62.4580 N   0  0  0  0  0  0  0  0  0  0  0  0
   43.9060   70.4920   60.7200 H   0  0  0  0  0  0  0  0  0  0  0  0
   42.4350   72.2190   59.6340 H   0  0  0  0  0  0  0  0  0  0  0  0
   41.4140   70.6540   64.1440 H   0  0  0  0  0  0  0  0  0  0  0  0
   39.5250   75.8950   58.3950 C   0  0  0  0  0  0  0  0  0  0  0  0
   39.1980   76.8890   58.8070 H   0  0  0  0  0  0  0  0  0  0  0  0
   40.5270   76.0180   57.9040 H   0  0  0  0  0  0  0  0  0  0  0  0
   38.5150   75.4470   57.4010 C   0  0  0  0  0  0  0  0  0  0  0  0
   38.6560   74.3030   56.6080 C   0  0  0  0  0  0  0  0  0  0  0  0
   39.5090   73.6270   56.6320 H   0  0  0  0  0  0  0  0  0  0  0  0
   37.5860   74.1590   55.8100 N   0  0  0  0  0  0  0  0  0  0  0  0
   37.4660   73.3770   55.1290 H   0  0  0  0  0  0  0  0  0  0  0  0
   36.7590   75.1940   56.0810 C   0  0  0  0  0  0  0  0  0  0  0  0
   35.8010   75.3520   55.5890 H   0  0  0  0  0  0  0  0  0  0  0  0
   37.3330   75.9670   57.0460 N   0  0  0  0  0  0  0  0  0  0  0  0
  1  2  1  0  0  0  0
  1 10  1  0  0  0  0
  2  6  1  0  0  0  0
  3  7  1  0  0  0  0
  3  2  2  0  0  0  0
  4  5  1  0  0  0  0
  4  3  1  0  0  0  0
  5  1  2  0  0  0  0
  8 13  1  0  0  0  0
  9  8  2  0  0  0  0
  9 10  1  0  0  0  0
 10 11  2  0  0  0  0
 11 12  1  0  0  0  0
 12 16  1  0  0  0  0
 13 12  2  0  0  0  0
 14  8  1  0  0  0  0
 15  9  1  0  0  0  0
 17 18  1  0  0  0  0
 17  4  1  0  0  0  0
 19 17  1  0  0  0  0
 20 17  1  0  0  0  0
 21 22  1  0  0  0  0
 21 20  2  0  0  0  0
 23 25  1  0  0  0  0
 23 21  1  0  0  0  0
 24 23  1  0  0  0  0
 25 27  2  0  0  0  0
 26 25  1  0  0  0  0
 27 20  1  0  0  0  0
M  END
>  <minimizedAffinity>
-4.85889482

$$$$

 OpenBabel03212520283D

 27 29  0  0  0  0  0  0  0  0999 V2000
   41.4620   71.8280   61.5310 C   0  0  0  0  0  0  0  0  0  0  0  0
   41.8920   71.5990   62.8230 C   0  0  0  0  0  0  0  0  0  0  0  0
   42.5370   70.3590   62.6880 C   0  0  0  0  0  0  0  0  0  0  0  0
   42.4780   69.9140   61.4030 N   0  0  0  0  0  0  0  0  0  0  0  0
   41.8170   70.8250   60.7100 N   0  0  0  0  0  0  0  0  0  0  0  0
   41.7820   72.1810   63.7060 H   0  0  0  0  0  0  0  0  0  0  0  0
   43.0260   69.8160   63.5050 H   0  0  0  0  0  0  0  0  0  0  0  0
   40.6160   75.0840   59.9260 C   0  0  0  0  0  0  0  0  0  0  0  0
   41.3550   73.9810   60.3210 C   0  0  0  0  0  0  0  0  0  0  0  0
   40.7190   73.0000   61.0970 C   0  0  0  0  0  0  0  0  0  0  0  0
   39.4170   73.1480   61.4390 N   0  0  0  0  0  0  0  0  0  0  0  0
   38.7470   74.2670   61.0130 C   0  0  0  0  0  0  0  0  0  0  0  0
   39.3390   75.2180   60.2690 N   0  0  0  0  0  0  0  0  0  0  0  0
   41.0520   75.8710   59.3270 H   0  0  0  0  0  0  0  0  0  0  0  0
   42.4010   73.8720   60.0400 H   0  0  0  0  0  0  0  0  0  0  0  0
   37.7170   74.2360   61.3690 H   0  0  0  0  0  0  0  0  0  0  0  0
   43.0330   68.6720   60.9370 C   0  0  0  0  0  0  0  0  0  0  0  0
   42.8610   68.5390   59.8340 H   0  0  0  0  0  0  0  0  0  0  0  0
   44.1370   68.6380   61.1390 H   0  0  0  0  0  0  0  0  0  0  0  0
   42.3440   67.5660   61.6530 C   0  0  0  0  0  0  0  0  0  0  0  0
   42.9920   66.6700   62.5090 C   0  0  0  0  0  0  0  0  0  0  0  0
   44.0550   66.6830   62.7400 H   0  0  0  0  0  0  0  0  0  0  0  0
   42.1110   65.7870   63.0060 N   0  0  0  0  0  0  0  0  0  0  0  0
   42.3620   65.0200   63.6680 H   0  0  0  0  0  0  0  0  0  0  0  0
   40.9070   66.1050   62.4820 C   0  0  0  0  0  0  0  0  0  0  0  0
   39.9860   65.5660   62.6990 H   0  0  0  0  0  0  0  0  0  0  0  0
   41.0600   67.1850   61.6630 N   0  0  0  0  0  0  0  0  0  0  0  0
  1  2  1  0  0  0  0
  2  6  1  0  0  0  0
  3  2  2  0  0  0  0
  3  7  1  0  0  0  0
  4  3  1  0  0  0  0
  5  4  1  0  0  0  0
  5  1  2  0  0  0  0
  8 13  2  0  0  0  0
  8  9  1  0  0  0  0
  9 10  2  0  0  0  0
 10 11  1  0  0  0  0
 10  1  1  0  0  0  0
 12 16  1  0  0  0  0
 12 11  2  0  0  0  0
 13 12  1  0  0  0  0
 14  8  1  0  0  0  0
 15  9  1  0  0  0  0
 17 19  1  0  0  0  0
 17  4  1  0  0  0  0
 17 20  1  0  0  0  0
 18 17  1  0  0  0  0
 20 27  1  0  0  0  0
 20 21  2  0  0  0  0
 21 22  1  0  0  0  0
 21 23  1  0  0  0  0
 23 24  1  0  0  0  0
 25 26  1  0  0  0  0
 25 23  1  0  0  0  0
 27 25  2  0  0  0  0
M  END
>  <minimizedAffinity>
-4.785676

$$$$

 OpenBabel03212520283D

 27 29  0  0  0  0  0  0  0  0999 V2000
   41.9010   69.7970   61.9460 C   0  0  0  0  0  0  0  0  0  0  0  0
   42.1440   70.5190   63.0970 C   0  0  0  0  0  0  0  0  0  0  0  0
   42.1250   71.8370   62.6110 C   0  0  0  0  0  0  0  0  0  0  0  0
   41.8860   71.8600   61.2710 N   0  0  0  0  0  0  0  0  0  0  0  0
   41.7520   70.6040   60.8820 N   0  0  0  0  0  0  0  0  0  0  0  0
   42.3060   70.1980   64.0980 H   0  0  0  0  0  0  0  0  0  0  0  0
   42.2800   72.7320   63.2240 H   0  0  0  0  0  0  0  0  0  0  0  0
   41.6320   66.3310   60.5990 C   0  0  0  0  0  0  0  0  0  0  0  0
   41.7140   67.7140   60.6270 C   0  0  0  0  0  0  0  0  0  0  0  0
   41.8150   68.3470   61.8750 C   0  0  0  0  0  0  0  0  0  0  0  0
   41.8310   67.6070   63.0090 N   0  0  0  0  0  0  0  0  0  0  0  0
   41.7470   66.2410   62.9060 C   0  0  0  0  0  0  0  0  0  0  0  0
   41.6490   65.6160   61.7190 N   0  0  0  0  0  0  0  0  0  0  0  0
   41.5540   65.7890   59.6680 H   0  0  0  0  0  0  0  0  0  0  0  0
   41.7000   68.3000   59.7090 H   0  0  0  0  0  0  0  0  0  0  0  0
   41.7730   65.7960   63.9000 H   0  0  0  0  0  0  0  0  0  0  0  0
   41.8160   73.0520   60.4700 C   0  0  0  0  0  0  0  0  0  0  0  0
   42.6060   73.7930   60.7740 H   0  0  0  0  0  0  0  0  0  0  0  0
   41.9530   72.8010   59.3840 H   0  0  0  0  0  0  0  0  0  0  0  0
   40.4840   73.6740   60.6910 C   0  0  0  0  0  0  0  0  0  0  0  0
   40.2140   75.0310   60.4870 C   0  0  0  0  0  0  0  0  0  0  0  0
   40.9400   75.7690   60.1500 H   0  0  0  0  0  0  0  0  0  0  0  0
   38.9290   75.2940   60.7690 N   0  0  0  0  0  0  0  0  0  0  0  0
   38.4950   76.2400   60.6910 H   0  0  0  0  0  0  0  0  0  0  0  0
   38.3690   74.1240   61.1500 C   0  0  0  0  0  0  0  0  0  0  0  0
   37.3270   74.0150   61.4430 H   0  0  0  0  0  0  0  0  0  0  0  0
   39.3210   73.1500   61.0990 N   0  0  0  0  0  0  0  0  0  0  0  0
  1  2  1  0  0  0  0
  2  6  1  0  0  0  0
  3  2  2  0  0  0  0
  3  7  1  0  0  0  0
  4  3  1  0  0  0  0
  5  4  1  0  0  0  0
  5  1  2  0  0  0  0
  8  9  2  0  0  0  0
  8 13  1  0  0  0  0
  9 10  1  0  0  0  0
 10  1  1  0  0  0  0
 10 11  2  0  0  0  0
 12 11  1  0  0  0  0
 12 16  1  0  0  0  0
 13 12  2  0  0  0  0
 14  8  1  0  0  0  0
 15  9  1  0  0  0  0
 17 20  1  0  0  0  0
 17 18  1  0  0  0  0
 17  4  1  0  0  0  0
 19 17  1  0  0  0  0
 20 27  1  0  0  0  0
 21 20  2  0  0  0  0
 21 23  1  0  0  0  0
 22 21  1  0  0  0  0
 23 25  1  0  0  0  0
 24 23  1  0  0  0  0
 25 26  1  0  0  0  0
 27 25  2  0  0  0  0
M  END
>  <minimizedAffinity>
-4.78214741

$$$$

 OpenBabel03212520283D

 27 29  0  0  0  0  0  0  0  0999 V2000
   39.5750   74.2310   59.8270 C   0  0  0  0  0  0  0  0  0  0  0  0
   39.0000   73.7030   60.9650 C   0  0  0  0  0  0  0  0  0  0  0  0
   40.1130   73.1340   61.6040 C   0  0  0  0  0  0  0  0  0  0  0  0
   41.2470   73.3270   60.8750 N   0  0  0  0  0  0  0  0  0  0  0  0
   40.8990   74.0000   59.7920 N   0  0  0  0  0  0  0  0  0  0  0  0
   37.9910   73.7070   61.3010 H   0  0  0  0  0  0  0  0  0  0  0  0
   40.0810   72.6030   62.5630 H   0  0  0  0  0  0  0  0  0  0  0  0
   37.2130   75.0020   57.0480 C   0  0  0  0  0  0  0  0  0  0  0  0
   37.8770   74.2860   58.0310 C   0  0  0  0  0  0  0  0  0  0  0  0
   38.8560   74.9490   58.7870 C   0  0  0  0  0  0  0  0  0  0  0  0
   39.1280   76.2540   58.5460 N   0  0  0  0  0  0  0  0  0  0  0  0
   38.4300   76.9000   57.5560 C   0  0  0  0  0  0  0  0  0  0  0  0
   37.4890   76.2810   56.8220 N   0  0  0  0  0  0  0  0  0  0  0  0
   36.4490   74.5440   56.4360 H   0  0  0  0  0  0  0  0  0  0  0  0
   37.6510   73.2370   58.2170 H   0  0  0  0  0  0  0  0  0  0  0  0
   38.7640   77.9350   57.4880 H   0  0  0  0  0  0  0  0  0  0  0  0
   42.5530   72.8560   61.2480 C   0  0  0  0  0  0  0  0  0  0  0  0
   43.2310   72.7880   60.3530 H   0  0  0  0  0  0  0  0  0  0  0  0
   43.0170   73.5470   62.0020 H   0  0  0  0  0  0  0  0  0  0  0  0
   42.4010   71.4930   61.8230 C   0  0  0  0  0  0  0  0  0  0  0  0
   42.2850   70.3310   61.0520 C   0  0  0  0  0  0  0  0  0  0  0  0
   42.2920   70.3000   59.9640 H   0  0  0  0  0  0  0  0  0  0  0  0
   42.1620   69.2590   61.8480 N   0  0  0  0  0  0  0  0  0  0  0  0
   42.0610   68.2800   61.5000 H   0  0  0  0  0  0  0  0  0  0  0  0
   42.1990   69.7150   63.1210 C   0  0  0  0  0  0  0  0  0  0  0  0
   42.1220   69.0770   63.9990 H   0  0  0  0  0  0  0  0  0  0  0  0
   42.3440   71.0700   63.0920 N   0  0  0  0  0  0  0  0  0  0  0  0
  1  2  1  0  0  0  0
  2  6  1  0  0  0  0
  2  3  2  0  0  0  0
  3  7  1  0  0  0  0
  4 17  1  0  0  0  0
  4  3  1  0  0  0  0
  5  1  2  0  0  0  0
  5  4  1  0  0  0  0
  8  9  1  0  0  0  0
  9 15  1  0  0  0  0
  9 10  2  0  0  0  0
 10  1  1  0  0  0  0
 11 10  1  0  0  0  0
 12 11  2  0  0  0  0
 13  8  2  0  0  0  0
 13 12  1  0  0  0  0
 14  8  1  0  0  0  0
 16 12  1  0  0  0  0
 17 20  1  0  0  0  0
 17 19  1  0  0  0  0
 18 17  1  0  0  0  0
 20 27  1  0  0  0  0
 21 20  2  0  0  0  0
 21 23  1  0  0  0  0
 22 21  1  0  0  0  0
 23 25  1  0  0  0  0
 24 23  1  0  0  0  0
 25 26  1  0  0  0  0
 27 25  2  0  0  0  0
M  END
>  <minimizedAffinity>
-4.7562604

$$$$

 OpenBabel03212520283D

 27 29  0  0  0  0  0  0  0  0999 V2000
   41.2850   72.0530   61.1770 C   0  0  0  0  0  0  0  0  0  0  0  0
   41.7360   71.1500   60.2350 C   0  0  0  0  0  0  0  0  0  0  0  0
   42.3300   70.1700   61.0470 C   0  0  0  0  0  0  0  0  0  0  0  0
   42.2220   70.4960   62.3640 N   0  0  0  0  0  0  0  0  0  0  0  0
   41.5800   71.6500   62.4240 N   0  0  0  0  0  0  0  0  0  0  0  0
   41.6690   71.1610   59.1730 H   0  0  0  0  0  0  0  0  0  0  0  0
   42.8160   69.2610   60.6750 H   0  0  0  0  0  0  0  0  0  0  0  0
   38.6070   74.6380   60.9840 C   0  0  0  0  0  0  0  0  0  0  0  0
   39.2480   73.4490   61.2910 C   0  0  0  0  0  0  0  0  0  0  0  0
   40.5790   73.2870   60.8750 C   0  0  0  0  0  0  0  0  0  0  0  0
   41.2000   74.2800   60.1950 N   0  0  0  0  0  0  0  0  0  0  0  0
   40.5020   75.4310   59.9270 C   0  0  0  0  0  0  0  0  0  0  0  0
   39.2270   75.6040   60.3170 N   0  0  0  0  0  0  0  0  0  0  0  0
   37.5830   74.8190   61.2790 H   0  0  0  0  0  0  0  0  0  0  0  0
   38.7390   72.6570   61.8380 H   0  0  0  0  0  0  0  0  0  0  0  0
   41.1380   76.1250   59.3780 H   0  0  0  0  0  0  0  0  0  0  0  0
   42.7380   69.7070   63.4500 C   0  0  0  0  0  0  0  0  0  0  0  0
   43.8450   69.5380   63.3390 H   0  0  0  0  0  0  0  0  0  0  0  0
   42.5470   70.2190   64.4300 H   0  0  0  0  0  0  0  0  0  0  0  0
   42.0590   68.3850   63.4170 C   0  0  0  0  0  0  0  0  0  0  0  0
   42.7340   67.1650   63.3010 C   0  0  0  0  0  0  0  0  0  0  0  0
   43.8140   67.0530   63.2220 H   0  0  0  0  0  0  0  0  0  0  0  0
   41.8560   66.1500   63.3000 N   0  0  0  0  0  0  0  0  0  0  0  0
   42.1250   65.1450   63.2220 H   0  0  0  0  0  0  0  0  0  0  0  0
   40.6270   66.7010   63.4150 C   0  0  0  0  0  0  0  0  0  0  0  0
   39.7030   66.1260   63.4430 H   0  0  0  0  0  0  0  0  0  0  0  0
   40.7630   68.0550   63.4850 N   0  0  0  0  0  0  0  0  0  0  0  0
  1  5  2  0  0  0  0
  2  3  2  0  0  0  0
  2  1  1  0  0  0  0
  3  4  1  0  0  0  0
  4  5  1  0  0  0  0
  4 17  1  0  0  0  0
  6  2  1  0  0  0  0
  7  3  1  0  0  0  0
  8 14  1  0  0  0  0
  8  9  1  0  0  0  0
  9 15  1  0  0  0  0
 10  1  1  0  0  0  0
 10  9  2  0  0  0  0
 11 10  1  0  0  0  0
 12 11  2  0  0  0  0
 12 13  1  0  0  0  0
 13  8  2  0  0  0  0
 16 12  1  0  0  0  0
 17 19  1  0  0  0  0
 18 17  1  0  0  0  0
 20 17  1  0  0  0  0
 20 27  1  0  0  0  0
 21 20  2  0  0  0  0
 22 21  1  0  0  0  0
 23 21  1  0  0  0  0
 23 25  1  0  0  0  0
 24 23  1  0  0  0  0
 25 26  1  0  0  0  0
 25 27  2  0  0  0  0
M  END
>  <minimizedAffinity>
-4.62772512

$$$$
