
 OpenBabel03212520263D

 27 29  0  0  0  0  0  0  0  0999 V2000
   42.4420   84.8440   61.0570 C   0  0  0  0  0  0  0  0  0  0  0  0
   43.5050   85.1800   61.8700 C   0  0  0  0  0  0  0  0  0  0  0  0
   44.1440   86.1670   61.1030 C   0  0  0  0  0  0  0  0  0  0  0  0
   43.4860   86.3770   59.9310 N   0  0  0  0  0  0  0  0  0  0  0  0
   42.4470   85.5600   59.9200 N   0  0  0  0  0  0  0  0  0  0  0  0
   43.7940   84.8120   62.8260 H   0  0  0  0  0  0  0  0  0  0  0  0
   45.0530   86.7020   61.4030 H   0  0  0  0  0  0  0  0  0  0  0  0
   40.8170   81.5710   61.7970 C   0  0  0  0  0  0  0  0  0  0  0  0
   41.8040   82.4950   61.4940 C   0  0  0  0  0  0  0  0  0  0  0  0
   41.4340   83.8440   61.3750 C   0  0  0  0  0  0  0  0  0  0  0  0
   40.1430   84.2100   61.5550 N   0  0  0  0  0  0  0  0  0  0  0  0
   39.2190   83.2400   61.8530 C   0  0  0  0  0  0  0  0  0  0  0  0
   39.5530   81.9430   61.9710 N   0  0  0  0  0  0  0  0  0  0  0  0
   41.0420   80.5200   61.9020 H   0  0  0  0  0  0  0  0  0  0  0  0
   42.8390   82.1910   61.3520 H   0  0  0  0  0  0  0  0  0  0  0  0
   38.2350   83.6940   61.9660 H   0  0  0  0  0  0  0  0  0  0  0  0
   43.8900   87.3150   58.9180 C   0  0  0  0  0  0  0  0  0  0  0  0
   42.9990   87.7340   58.3740 H   0  0  0  0  0  0  0  0  0  0  0  0
   44.4640   88.1620   59.3780 H   0  0  0  0  0  0  0  0  0  0  0  0
   44.7370   86.5890   57.9350 C   0  0  0  0  0  0  0  0  0  0  0  0
   46.1240   86.7440   57.8390 C   0  0  0  0  0  0  0  0  0  0  0  0
   46.7250   87.4040   58.4640 H   0  0  0  0  0  0  0  0  0  0  0  0
   46.6100   85.9630   56.8620 N   0  0  0  0  0  0  0  0  0  0  0  0
   47.6200   85.9080   56.6050 H   0  0  0  0  0  0  0  0  0  0  0  0
   45.5540   85.3070   56.3300 C   0  0  0  0  0  0  0  0  0  0  0  0
   45.6290   84.5940   55.5110 H   0  0  0  0  0  0  0  0  0  0  0  0
   44.4240   85.6960   56.9890 N   0  0  0  0  0  0  0  0  0  0  0  0
  1 10  1  0  0  0  0
  1  2  1  0  0  0  0
  2  6  1  0  0  0  0
  3  7  1  0  0  0  0
  3  2  2  0  0  0  0
  4  3  1  0  0  0  0
  5  4  1  0  0  0  0
  5  1  2  0  0  0  0
  8 14  1  0  0  0  0
  8 13  1  0  0  0  0
  9  8  2  0  0  0  0
 10  9  1  0  0  0  0
 10 11  2  0  0  0  0
 11 12  1  0  0  0  0
 12 16  1  0  0  0  0
 12 13  2  0  0  0  0
 15  9  1  0  0  0  0
 17 19  1  0  0  0  0
 17  4  1  0  0  0  0
 18 17  1  0  0  0  0
 20 17  1  0  0  0  0
 21 20  2  0  0  0  0
 21 22  1  0  0  0  0
 23 21  1  0  0  0  0
 24 23  1  0  0  0  0
 25 23  1  0  0  0  0
 25 27  2  0  0  0  0
 26 25  1  0  0  0  0
 27 20  1  0  0  0  0
M  END
>  <minimizedAffinity>
-4.21686697

>  <minimizedRMSD>
0.479879826

$$$$
