
 OpenBabel03212520263D

 27 29  0  0  0  0  0  0  0  0999 V2000
   42.4770   84.8310   61.2060 C   0  0  0  0  0  0  0  0  0  0  0  0
   43.4670   85.1900   62.0990 C   0  0  0  0  0  0  0  0  0  0  0  0
   44.1710   86.1570   61.3630 C   0  0  0  0  0  0  0  0  0  0  0  0
   43.6160   86.3340   60.1330 N   0  0  0  0  0  0  0  0  0  0  0  0
   42.5810   85.5160   60.0550 N   0  0  0  0  0  0  0  0  0  0  0  0
   43.6710   84.8490   63.0860 H   0  0  0  0  0  0  0  0  0  0  0  0
   45.0510   86.7000   61.7260 H   0  0  0  0  0  0  0  0  0  0  0  0
   40.7790   81.5660   61.8010 C   0  0  0  0  0  0  0  0  0  0  0  0
   41.7900   82.4820   61.5560 C   0  0  0  0  0  0  0  0  0  0  0  0
   41.4450   83.8390   61.4630 C   0  0  0  0  0  0  0  0  0  0  0  0
   40.1540   84.2210   61.6110 N   0  0  0  0  0  0  0  0  0  0  0  0
   39.2060   83.2580   61.8510 C   0  0  0  0  0  0  0  0  0  0  0  0
   39.5170   81.9530   61.9440 N   0  0  0  0  0  0  0  0  0  0  0  0
   40.9850   80.5080   61.8830 H   0  0  0  0  0  0  0  0  0  0  0  0
   42.8250   82.1650   61.4390 H   0  0  0  0  0  0  0  0  0  0  0  0
   38.2260   83.7240   61.9450 H   0  0  0  0  0  0  0  0  0  0  0  0
   44.1080   87.2450   59.1340 C   0  0  0  0  0  0  0  0  0  0  0  0
   43.2610   87.7630   58.6060 H   0  0  0  0  0  0  0  0  0  0  0  0
   44.7700   88.0190   59.6040 H   0  0  0  0  0  0  0  0  0  0  0  0
   44.8690   86.4540   58.1310 C   0  0  0  0  0  0  0  0  0  0  0  0
   46.2410   86.1990   58.2170 C   0  0  0  0  0  0  0  0  0  0  0  0
   46.8910   86.5470   59.0190 H   0  0  0  0  0  0  0  0  0  0  0  0
   46.6430   85.4640   57.1700 N   0  0  0  0  0  0  0  0  0  0  0  0
   47.6250   85.1490   57.0190 H   0  0  0  0  0  0  0  0  0  0  0  0
   45.5460   85.2420   56.4100 C   0  0  0  0  0  0  0  0  0  0  0  0
   45.5520   84.6690   55.4850 H   0  0  0  0  0  0  0  0  0  0  0  0
   44.4770   85.8470   57.0030 N   0  0  0  0  0  0  0  0  0  0  0  0
  1 10  1  0  0  0  0
  1  2  1  0  0  0  0
  2  6  1  0  0  0  0
  3  7  1  0  0  0  0
  3  2  2  0  0  0  0
  4  3  1  0  0  0  0
  5  4  1  0  0  0  0
  5  1  2  0  0  0  0
  8 14  1  0  0  0  0
  8 13  1  0  0  0  0
  9  8  2  0  0  0  0
 10  9  1  0  0  0  0
 10 11  2  0  0  0  0
 11 12  1  0  0  0  0
 12 13  2  0  0  0  0
 12 16  1  0  0  0  0
 15  9  1  0  0  0  0
 17 19  1  0  0  0  0
 17  4  1  0  0  0  0
 18 17  1  0  0  0  0
 20 21  2  0  0  0  0
 20 17  1  0  0  0  0
 21 22  1  0  0  0  0
 23 21  1  0  0  0  0
 24 23  1  0  0  0  0
 25 27  2  0  0  0  0
 25 23  1  0  0  0  0
 26 25  1  0  0  0  0
 27 20  1  0  0  0  0
M  END
>  <minimizedAffinity>
-4.22619915

>  <minimizedRMSD>
0.29141137

$$$$
