
 OpenBabel03212520263D

 27 29  0  0  0  0  0  0  0  0999 V2000
   42.4480   84.8330   61.0490 C   0  0  0  0  0  0  0  0  0  0  0  0
   43.5350   85.1430   61.8410 C   0  0  0  0  0  0  0  0  0  0  0  0
   44.1670   86.1360   61.0760 C   0  0  0  0  0  0  0  0  0  0  0  0
   43.4820   86.3740   59.9240 N   0  0  0  0  0  0  0  0  0  0  0  0
   42.4340   85.5690   59.9250 N   0  0  0  0  0  0  0  0  0  0  0  0
   43.8430   84.7550   62.7830 H   0  0  0  0  0  0  0  0  0  0  0  0
   45.0890   86.6560   61.3610 H   0  0  0  0  0  0  0  0  0  0  0  0
   40.8120   81.5710   61.8100 C   0  0  0  0  0  0  0  0  0  0  0  0
   41.8020   82.4900   61.5000 C   0  0  0  0  0  0  0  0  0  0  0  0
   41.4380   83.8390   61.3740 C   0  0  0  0  0  0  0  0  0  0  0  0
   40.1480   84.2120   61.5560 N   0  0  0  0  0  0  0  0  0  0  0  0
   39.2210   83.2470   61.8610 C   0  0  0  0  0  0  0  0  0  0  0  0
   39.5500   81.9490   61.9850 N   0  0  0  0  0  0  0  0  0  0  0  0
   41.0330   80.5190   61.9200 H   0  0  0  0  0  0  0  0  0  0  0  0
   42.8360   82.1800   61.3570 H   0  0  0  0  0  0  0  0  0  0  0  0
   38.2390   83.7050   61.9740 H   0  0  0  0  0  0  0  0  0  0  0  0
   43.8710   87.3250   58.9170 C   0  0  0  0  0  0  0  0  0  0  0  0
   42.9720   87.7850   58.4230 H   0  0  0  0  0  0  0  0  0  0  0  0
   44.4920   88.1420   59.3720 H   0  0  0  0  0  0  0  0  0  0  0  0
   44.6520   86.5990   57.8810 C   0  0  0  0  0  0  0  0  0  0  0  0
   44.6560   85.2070   57.7420 C   0  0  0  0  0  0  0  0  0  0  0  0
   44.0970   84.5150   58.3700 H   0  0  0  0  0  0  0  0  0  0  0  0
   45.4510   84.8460   56.7230 N   0  0  0  0  0  0  0  0  0  0  0  0
   45.6120   83.8590   56.4280 H   0  0  0  0  0  0  0  0  0  0  0  0
   45.9570   85.9880   56.2040 C   0  0  0  0  0  0  0  0  0  0  0  0
   46.6420   86.0220   55.3590 H   0  0  0  0  0  0  0  0  0  0  0  0
   45.4650   87.0430   56.9150 N   0  0  0  0  0  0  0  0  0  0  0  0
  1 10  1  0  0  0  0
  1  2  1  0  0  0  0
  2  6  1  0  0  0  0
  3  7  1  0  0  0  0
  3  2  2  0  0  0  0
  4  5  1  0  0  0  0
  4  3  1  0  0  0  0
  5  1  2  0  0  0  0
  8 14  1  0  0  0  0
  8 13  1  0  0  0  0
  9  8  2  0  0  0  0
 10  9  1  0  0  0  0
 10 11  2  0  0  0  0
 11 12  1  0  0  0  0
 12 16  1  0  0  0  0
 12 13  2  0  0  0  0
 15  9  1  0  0  0  0
 17 19  1  0  0  0  0
 17  4  1  0  0  0  0
 18 17  1  0  0  0  0
 20 17  1  0  0  0  0
 21 20  2  0  0  0  0
 21 22  1  0  0  0  0
 23 21  1  0  0  0  0
 24 23  1  0  0  0  0
 25 23  1  0  0  0  0
 25 27  2  0  0  0  0
 26 25  1  0  0  0  0
 27 20  1  0  0  0  0
M  END
>  <minimizedAffinity>
-4.21413422

>  <minimizedRMSD>
0.482112885

$$$$
