
 OpenBabel03212520263D

 27 29  0  0  0  0  0  0  0  0999 V2000
   42.4220   84.8480   61.0230 C   0  0  0  0  0  0  0  0  0  0  0  0
   43.4680   85.2210   61.8440 C   0  0  0  0  0  0  0  0  0  0  0  0
   44.1200   86.1790   61.0510 C   0  0  0  0  0  0  0  0  0  0  0  0
   43.4850   86.3390   59.8580 N   0  0  0  0  0  0  0  0  0  0  0  0
   42.4490   85.5180   59.8580 N   0  0  0  0  0  0  0  0  0  0  0  0
   43.7370   84.8920   62.8190 H   0  0  0  0  0  0  0  0  0  0  0  0
   45.0200   86.7290   61.3480 H   0  0  0  0  0  0  0  0  0  0  0  0
   40.7800   81.5920   61.7950 C   0  0  0  0  0  0  0  0  0  0  0  0
   41.7700   82.5060   61.4740 C   0  0  0  0  0  0  0  0  0  0  0  0
   41.4110   83.8580   61.3590 C   0  0  0  0  0  0  0  0  0  0  0  0
   40.1270   84.2370   61.5610 N   0  0  0  0  0  0  0  0  0  0  0  0
   39.1990   83.2750   61.8760 C   0  0  0  0  0  0  0  0  0  0  0  0
   39.5240   81.9760   61.9910 N   0  0  0  0  0  0  0  0  0  0  0  0
   40.9970   80.5380   61.8970 H   0  0  0  0  0  0  0  0  0  0  0  0
   42.8000   82.1920   61.3130 H   0  0  0  0  0  0  0  0  0  0  0  0
   38.2210   83.7390   62.0060 H   0  0  0  0  0  0  0  0  0  0  0  0
   43.9070   87.2370   58.8170 C   0  0  0  0  0  0  0  0  0  0  0  0
   43.0800   87.4190   58.0770 H   0  0  0  0  0  0  0  0  0  0  0  0
   44.2250   88.2210   59.2550 H   0  0  0  0  0  0  0  0  0  0  0  0
   45.0430   86.6020   58.0980 C   0  0  0  0  0  0  0  0  0  0  0  0
   44.9020   85.5220   57.2190 C   0  0  0  0  0  0  0  0  0  0  0  0
   43.9590   85.0370   56.9700 H   0  0  0  0  0  0  0  0  0  0  0  0
   46.0990   85.1680   56.7250 N   0  0  0  0  0  0  0  0  0  0  0  0
   46.2440   84.3880   56.0490 H   0  0  0  0  0  0  0  0  0  0  0  0
   47.0070   86.0060   57.2760 C   0  0  0  0  0  0  0  0  0  0  0  0
   48.0740   85.9680   57.0670 H   0  0  0  0  0  0  0  0  0  0  0  0
   46.3550   86.8700   58.1050 N   0  0  0  0  0  0  0  0  0  0  0  0
  1 10  1  0  0  0  0
  1  2  1  0  0  0  0
  2  6  1  0  0  0  0
  3  7  1  0  0  0  0
  3  2  2  0  0  0  0
  4  5  1  0  0  0  0
  4  3  1  0  0  0  0
  5  1  2  0  0  0  0
  8 14  1  0  0  0  0
  8 13  1  0  0  0  0
  9  8  2  0  0  0  0
 10  9  1  0  0  0  0
 10 11  2  0  0  0  0
 11 12  1  0  0  0  0
 12 13  2  0  0  0  0
 12 16  1  0  0  0  0
 15  9  1  0  0  0  0
 17 19  1  0  0  0  0
 17  4  1  0  0  0  0
 18 17  1  0  0  0  0
 20 27  1  0  0  0  0
 20 17  1  0  0  0  0
 21 20  2  0  0  0  0
 22 21  1  0  0  0  0
 23 21  1  0  0  0  0
 23 25  1  0  0  0  0
 24 23  1  0  0  0  0
 25 27  2  0  0  0  0
 26 25  1  0  0  0  0
M  END
>  <minimizedAffinity>
-4.04312086

>  <minimizedRMSD>
0.246553093

$$$$
