
 OpenBabel03212520263D

 27 29  0  0  0  0  0  0  0  0999 V2000
   42.4740   84.8430   61.2210 C   0  0  0  0  0  0  0  0  0  0  0  0
   43.4410   85.2270   62.1290 C   0  0  0  0  0  0  0  0  0  0  0  0
   44.1540   86.1860   61.3910 C   0  0  0  0  0  0  0  0  0  0  0  0
   43.6260   86.3350   60.1450 N   0  0  0  0  0  0  0  0  0  0  0  0
   42.6000   85.5070   60.0600 N   0  0  0  0  0  0  0  0  0  0  0  0
   43.6250   84.9070   63.1260 H   0  0  0  0  0  0  0  0  0  0  0  0
   45.0220   86.7430   61.7630 H   0  0  0  0  0  0  0  0  0  0  0  0
   40.7830   81.5720   61.7990 C   0  0  0  0  0  0  0  0  0  0  0  0
   41.7910   82.4910   61.5590 C   0  0  0  0  0  0  0  0  0  0  0  0
   41.4440   83.8480   61.4740 C   0  0  0  0  0  0  0  0  0  0  0  0
   40.1530   84.2270   61.6250 N   0  0  0  0  0  0  0  0  0  0  0  0
   39.2070   83.2610   61.8610 C   0  0  0  0  0  0  0  0  0  0  0  0
   39.5200   81.9560   61.9460 N   0  0  0  0  0  0  0  0  0  0  0  0
   40.9910   80.5140   61.8760 H   0  0  0  0  0  0  0  0  0  0  0  0
   42.8270   82.1770   61.4390 H   0  0  0  0  0  0  0  0  0  0  0  0
   38.2260   83.7250   61.9580 H   0  0  0  0  0  0  0  0  0  0  0  0
   44.1330   87.2300   59.1400 C   0  0  0  0  0  0  0  0  0  0  0  0
   43.2960   87.7700   58.6180 H   0  0  0  0  0  0  0  0  0  0  0  0
   44.8200   87.9880   59.6030 H   0  0  0  0  0  0  0  0  0  0  0  0
   44.8640   86.4180   58.1320 C   0  0  0  0  0  0  0  0  0  0  0  0
   46.2210   86.0900   58.2300 C   0  0  0  0  0  0  0  0  0  0  0  0
   46.8790   86.3910   59.0440 H   0  0  0  0  0  0  0  0  0  0  0  0
   46.5950   85.3500   57.1750 N   0  0  0  0  0  0  0  0  0  0  0  0
   47.5620   84.9870   57.0300 H   0  0  0  0  0  0  0  0  0  0  0  0
   45.4980   85.1970   56.4000 C   0  0  0  0  0  0  0  0  0  0  0  0
   45.4850   84.6420   55.4660 H   0  0  0  0  0  0  0  0  0  0  0  0
   44.4550   85.8490   56.9910 N   0  0  0  0  0  0  0  0  0  0  0  0
  1 10  1  0  0  0  0
  1  2  1  0  0  0  0
  2  6  1  0  0  0  0
  3  7  1  0  0  0  0
  3  2  2  0  0  0  0
  4  3  1  0  0  0  0
  5  4  1  0  0  0  0
  5  1  2  0  0  0  0
  8 14  1  0  0  0  0
  8 13  1  0  0  0  0
  9  8  2  0  0  0  0
 10  9  1  0  0  0  0
 10 11  2  0  0  0  0
 11 12  1  0  0  0  0
 12 13  2  0  0  0  0
 12 16  1  0  0  0  0
 15  9  1  0  0  0  0
 17 19  1  0  0  0  0
 17  4  1  0  0  0  0
 18 17  1  0  0  0  0
 20 21  2  0  0  0  0
 20 17  1  0  0  0  0
 21 22  1  0  0  0  0
 23 21  1  0  0  0  0
 24 23  1  0  0  0  0
 25 27  2  0  0  0  0
 25 23  1  0  0  0  0
 26 25  1  0  0  0  0
 27 20  1  0  0  0  0
M  END
>  <minimizedAffinity>
-4.2248621

>  <minimizedRMSD>
0.48955211

$$$$
