
 OpenBabel03212520553D

 34 37  0  0  0  0  0  0  0  0999 V2000
   39.6940   77.1850   59.0600 C   0  0  0  0  0  0  0  0  0  0  0  0
   40.3860   76.0640   58.7480 C   0  0  0  0  0  0  0  0  0  0  0  0
   39.8390   75.3480   57.6780 C   0  0  0  0  0  0  0  0  0  0  0  0
   38.7290   75.7250   57.0110 N   0  0  0  0  0  0  0  0  0  0  0  0
   38.0960   76.8680   57.3930 C   0  0  0  0  0  0  0  0  0  0  0  0
   38.5850   77.6040   58.4290 N   0  0  0  0  0  0  0  0  0  0  0  0
   41.2810   75.7090   59.2430 H   0  0  0  0  0  0  0  0  0  0  0  0
   40.3010   74.4300   57.3300 H   0  0  0  0  0  0  0  0  0  0  0  0
   40.9360   80.1320   61.5940 C   0  0  0  0  0  0  0  0  0  0  0  0
   40.8590   78.8990   62.2130 C   0  0  0  0  0  0  0  0  0  0  0  0
   40.4610   77.8420   61.4820 C   0  0  0  0  0  0  0  0  0  0  0  0
   40.1430   78.0190   60.1430 C   0  0  0  0  0  0  0  0  0  0  0  0
   40.4270   79.8340   59.8780 S   0  0  0  0  0  0  0  0  0  0  0  0
   41.1100   78.7640   63.2670 H   0  0  0  0  0  0  0  0  0  0  0  0
   40.3390   76.8120   61.7820 H   0  0  0  0  0  0  0  0  0  0  0  0
   43.0830   82.8870   62.7090 C   0  0  0  0  0  0  0  0  0  0  0  0
   42.1930   83.6760   63.5040 C   0  0  0  0  0  0  0  0  0  0  0  0
   40.8670   83.2540   63.6460 C   0  0  0  0  0  0  0  0  0  0  0  0
   40.5050   82.1110   63.0150 N   0  0  0  0  0  0  0  0  0  0  0  0
   41.3620   81.3870   62.2750 C   0  0  0  0  0  0  0  0  0  0  0  0
   42.6190   81.7750   62.1320 N   0  0  0  0  0  0  0  0  0  0  0  0
   44.1020   83.2080   62.5970 H   0  0  0  0  0  0  0  0  0  0  0  0
   42.5470   84.5850   63.9840 H   0  0  0  0  0  0  0  0  0  0  0  0
   40.1590   83.8220   64.2400 H   0  0  0  0  0  0  0  0  0  0  0  0
   36.9080   77.2660   56.6740 C   0  0  0  0  0  0  0  0  0  0  0  0
   35.7970   77.0780   57.2460 O   0  0  0  0  0  0  0  0  0  0  0  0
   36.9540   77.8570   55.3490 C   0  0  0  0  0  0  0  0  0  0  0  0
   36.5210   77.2740   54.1850 C   0  0  0  0  0  0  0  0  0  0  0  0
   36.0700   76.2880   54.0220 H   0  0  0  0  0  0  0  0  0  0  0  0
   36.7360   78.1420   53.1840 N   0  0  0  0  0  0  0  0  0  0  0  0
   36.5620   78.1110   52.1570 H   0  0  0  0  0  0  0  0  0  0  0  0
   37.3040   79.2700   53.7040 C   0  0  0  0  0  0  0  0  0  0  0  0
   37.6570   80.2290   53.3220 H   0  0  0  0  0  0  0  0  0  0  0  0
   37.4330   79.0780   55.0480 N   0  0  0  0  0  0  0  0  0  0  0  0
  1 12  1  0  0  0  0
  2  1  1  0  0  0  0
  2  7  1  0  0  0  0
  3  2  2  0  0  0  0
  4  5  2  0  0  0  0
  4  3  1  0  0  0  0
  5  6  1  0  0  0  0
  6  1  2  0  0  0  0
  8  3  1  0  0  0  0
  9 10  2  0  0  0  0
  9 20  1  0  0  0  0
 10 14  1  0  0  0  0
 11 15  1  0  0  0  0
 11 10  1  0  0  0  0
 12 11  2  0  0  0  0
 13 12  1  0  0  0  0
 13  9  1  0  0  0  0
 16 17  1  0  0  0  0
 17 18  2  0  0  0  0
 17 23  1  0  0  0  0
 18 24  1  0  0  0  0
 19 18  1  0  0  0  0
 20 19  2  0  0  0  0
 21 20  1  0  0  0  0
 21 16  2  0  0  0  0
 22 16  1  0  0  0  0
 25 26  2  0  0  0  0
 25  5  1  0  0  0  0
 27 25  1  0  0  0  0
 28 27  2  0  0  0  0
 29 28  1  0  0  0  0
 30 32  1  0  0  0  0
 30 28  1  0  0  0  0
 31 30  1  0  0  0  0
 32 34  2  0  0  0  0
 33 32  1  0  0  0  0
 34 27  1  0  0  0  0
M  END
>  <minimizedAffinity>
-6.33544874

>  <minimizedRMSD>
0.360193461

$$$$
