
 OpenBabel03212520543D

 34 37  0  0  0  0  0  0  0  0999 V2000
   39.6900   77.1980   59.1300 C   0  0  0  0  0  0  0  0  0  0  0  0
   40.3430   76.0440   58.8560 C   0  0  0  0  0  0  0  0  0  0  0  0
   39.7910   75.3270   57.7890 C   0  0  0  0  0  0  0  0  0  0  0  0
   38.7120   75.7330   57.0900 N   0  0  0  0  0  0  0  0  0  0  0  0
   38.1170   76.9080   57.4330 C   0  0  0  0  0  0  0  0  0  0  0  0
   38.6120   77.6470   58.4650 N   0  0  0  0  0  0  0  0  0  0  0  0
   41.2110   75.6640   59.3800 H   0  0  0  0  0  0  0  0  0  0  0  0
   40.2240   74.3840   57.4710 H   0  0  0  0  0  0  0  0  0  0  0  0
   40.9460   80.1580   61.6410 C   0  0  0  0  0  0  0  0  0  0  0  0
   40.8860   78.9260   62.2630 C   0  0  0  0  0  0  0  0  0  0  0  0
   40.4860   77.8650   61.5390 C   0  0  0  0  0  0  0  0  0  0  0  0
   40.1480   78.0370   60.2050 C   0  0  0  0  0  0  0  0  0  0  0  0
   40.4150   79.8530   59.9330 S   0  0  0  0  0  0  0  0  0  0  0  0
   41.1530   78.7940   63.3140 H   0  0  0  0  0  0  0  0  0  0  0  0
   40.3760   76.8340   61.8420 H   0  0  0  0  0  0  0  0  0  0  0  0
   43.0920   82.9230   62.7320 C   0  0  0  0  0  0  0  0  0  0  0  0
   42.2050   83.7130   63.5280 C   0  0  0  0  0  0  0  0  0  0  0  0
   40.8810   83.2890   63.6800 C   0  0  0  0  0  0  0  0  0  0  0  0
   40.5180   82.1420   63.0560 N   0  0  0  0  0  0  0  0  0  0  0  0
   41.3730   81.4170   62.3140 C   0  0  0  0  0  0  0  0  0  0  0  0
   42.6280   81.8070   62.1620 N   0  0  0  0  0  0  0  0  0  0  0  0
   44.1100   83.2460   62.6120 H   0  0  0  0  0  0  0  0  0  0  0  0
   42.5590   84.6250   64.0020 H   0  0  0  0  0  0  0  0  0  0  0  0
   40.1750   83.8570   64.2750 H   0  0  0  0  0  0  0  0  0  0  0  0
   36.9620   77.3370   56.6790 C   0  0  0  0  0  0  0  0  0  0  0  0
   35.8270   77.1270   57.1930 O   0  0  0  0  0  0  0  0  0  0  0  0
   37.0660   77.9830   55.3840 C   0  0  0  0  0  0  0  0  0  0  0  0
   37.5540   79.2420   55.1430 C   0  0  0  0  0  0  0  0  0  0  0  0
   37.9470   79.9870   55.8450 H   0  0  0  0  0  0  0  0  0  0  0  0
   37.4820   79.4660   53.8210 N   0  0  0  0  0  0  0  0  0  0  0  0
   37.7400   80.2750   53.2140 H   0  0  0  0  0  0  0  0  0  0  0  0
   36.9540   78.3580   53.2220 C   0  0  0  0  0  0  0  0  0  0  0  0
   36.7010   78.0500   52.2070 H   0  0  0  0  0  0  0  0  0  0  0  0
   36.7010   77.4470   54.2050 N   0  0  0  0  0  0  0  0  0  0  0  0
  1 12  1  0  0  0  0
  2  1  1  0  0  0  0
  2  7  1  0  0  0  0
  3  2  2  0  0  0  0
  4  5  2  0  0  0  0
  4  3  1  0  0  0  0
  5  6  1  0  0  0  0
  6  1  2  0  0  0  0
  8  3  1  0  0  0  0
  9 10  2  0  0  0  0
  9 20  1  0  0  0  0
 10 14  1  0  0  0  0
 11 15  1  0  0  0  0
 11 10  1  0  0  0  0
 12 11  2  0  0  0  0
 13 12  1  0  0  0  0
 13  9  1  0  0  0  0
 16 17  1  0  0  0  0
 17 18  2  0  0  0  0
 17 23  1  0  0  0  0
 18 24  1  0  0  0  0
 19 18  1  0  0  0  0
 20 19  2  0  0  0  0
 21 20  1  0  0  0  0
 21 16  2  0  0  0  0
 22 16  1  0  0  0  0
 25 26  2  0  0  0  0
 25  5  1  0  0  0  0
 27 25  1  0  0  0  0
 28 27  2  0  0  0  0
 28 29  1  0  0  0  0
 30 28  1  0  0  0  0
 31 30  1  0  0  0  0
 32 30  1  0  0  0  0
 32 34  2  0  0  0  0
 33 32  1  0  0  0  0
 34 27  1  0  0  0  0
M  END
>  <minimizedAffinity>
-6.21646786

>  <minimizedRMSD>
0.382267803

$$$$
