
 OpenBabel03212520543D

 34 37  0  0  0  0  0  0  0  0999 V2000
   39.6850   77.1910   59.1330 C   0  0  0  0  0  0  0  0  0  0  0  0
   40.3340   76.0340   58.8620 C   0  0  0  0  0  0  0  0  0  0  0  0
   39.7800   75.3180   57.7970 C   0  0  0  0  0  0  0  0  0  0  0  0
   38.7040   75.7260   57.0960 N   0  0  0  0  0  0  0  0  0  0  0  0
   38.1120   76.9040   57.4370 C   0  0  0  0  0  0  0  0  0  0  0  0
   38.6100   77.6430   58.4670 N   0  0  0  0  0  0  0  0  0  0  0  0
   41.2020   75.6530   59.3870 H   0  0  0  0  0  0  0  0  0  0  0  0
   40.2100   74.3730   57.4800 H   0  0  0  0  0  0  0  0  0  0  0  0
   40.9470   80.1530   61.6410 C   0  0  0  0  0  0  0  0  0  0  0  0
   40.8900   78.9210   62.2630 C   0  0  0  0  0  0  0  0  0  0  0  0
   40.4880   77.8590   61.5400 C   0  0  0  0  0  0  0  0  0  0  0  0
   40.1460   78.0310   60.2070 C   0  0  0  0  0  0  0  0  0  0  0  0
   40.4100   79.8480   59.9340 S   0  0  0  0  0  0  0  0  0  0  0  0
   41.1610   78.7890   63.3120 H   0  0  0  0  0  0  0  0  0  0  0  0
   40.3810   76.8280   61.8430 H   0  0  0  0  0  0  0  0  0  0  0  0
   43.0940   82.9180   62.7280 C   0  0  0  0  0  0  0  0  0  0  0  0
   42.2070   83.7100   63.5230 C   0  0  0  0  0  0  0  0  0  0  0  0
   40.8830   83.2860   63.6750 C   0  0  0  0  0  0  0  0  0  0  0  0
   40.5190   82.1390   63.0530 N   0  0  0  0  0  0  0  0  0  0  0  0
   41.3740   81.4120   62.3120 C   0  0  0  0  0  0  0  0  0  0  0  0
   42.6300   81.8020   62.1600 N   0  0  0  0  0  0  0  0  0  0  0  0
   44.1120   83.2400   62.6090 H   0  0  0  0  0  0  0  0  0  0  0  0
   42.5620   84.6220   63.9960 H   0  0  0  0  0  0  0  0  0  0  0  0
   40.1770   83.8560   64.2690 H   0  0  0  0  0  0  0  0  0  0  0  0
   36.9590   77.3350   56.6820 C   0  0  0  0  0  0  0  0  0  0  0  0
   35.8230   77.1280   57.1940 O   0  0  0  0  0  0  0  0  0  0  0  0
   37.0660   77.9800   55.3860 C   0  0  0  0  0  0  0  0  0  0  0  0
   37.5570   79.2390   55.1450 C   0  0  0  0  0  0  0  0  0  0  0  0
   37.9500   79.9830   55.8480 H   0  0  0  0  0  0  0  0  0  0  0  0
   37.4870   79.4620   53.8230 N   0  0  0  0  0  0  0  0  0  0  0  0
   37.7470   80.2690   53.2170 H   0  0  0  0  0  0  0  0  0  0  0  0
   36.9570   78.3550   53.2240 C   0  0  0  0  0  0  0  0  0  0  0  0
   36.7040   78.0470   52.2080 H   0  0  0  0  0  0  0  0  0  0  0  0
   36.7010   77.4450   54.2060 N   0  0  0  0  0  0  0  0  0  0  0  0
  1 12  1  0  0  0  0
  2  1  1  0  0  0  0
  2  7  1  0  0  0  0
  3  2  2  0  0  0  0
  4  5  2  0  0  0  0
  4  3  1  0  0  0  0
  5  6  1  0  0  0  0
  6  1  2  0  0  0  0
  8  3  1  0  0  0  0
  9 10  2  0  0  0  0
  9 20  1  0  0  0  0
 10 14  1  0  0  0  0
 11 15  1  0  0  0  0
 11 10  1  0  0  0  0
 12 11  2  0  0  0  0
 13 12  1  0  0  0  0
 13  9  1  0  0  0  0
 16 17  1  0  0  0  0
 17 18  2  0  0  0  0
 17 23  1  0  0  0  0
 18 24  1  0  0  0  0
 19 18  1  0  0  0  0
 20 19  2  0  0  0  0
 21 20  1  0  0  0  0
 21 16  2  0  0  0  0
 22 16  1  0  0  0  0
 25 26  2  0  0  0  0
 25  5  1  0  0  0  0
 27 25  1  0  0  0  0
 28 27  2  0  0  0  0
 28 29  1  0  0  0  0
 30 28  1  0  0  0  0
 31 30  1  0  0  0  0
 32 30  1  0  0  0  0
 32 34  2  0  0  0  0
 33 32  1  0  0  0  0
 34 27  1  0  0  0  0
M  END
>  <minimizedAffinity>
-6.21267319

>  <minimizedRMSD>
0.418707997

$$$$
