
 OpenBabel03212520543D

 34 37  0  0  0  0  0  0  0  0999 V2000
   39.7510   77.2650   59.0420 C   0  0  0  0  0  0  0  0  0  0  0  0
   40.4980   76.1860   58.7070 C   0  0  0  0  0  0  0  0  0  0  0  0
   39.9820   75.4620   57.6270 C   0  0  0  0  0  0  0  0  0  0  0  0
   38.8510   75.7930   56.9720 N   0  0  0  0  0  0  0  0  0  0  0  0
   38.1620   76.8950   57.3770 C   0  0  0  0  0  0  0  0  0  0  0  0
   38.6180   77.6370   58.4240 N   0  0  0  0  0  0  0  0  0  0  0  0
   41.4120   75.8690   59.1920 H   0  0  0  0  0  0  0  0  0  0  0  0
   40.4890   74.5750   57.2610 H   0  0  0  0  0  0  0  0  0  0  0  0
   40.8940   80.2210   61.6120 C   0  0  0  0  0  0  0  0  0  0  0  0
   40.8160   78.9860   62.2270 C   0  0  0  0  0  0  0  0  0  0  0  0
   40.4490   77.9260   61.4840 C   0  0  0  0  0  0  0  0  0  0  0  0
   40.1620   78.1020   60.1380 C   0  0  0  0  0  0  0  0  0  0  0  0
   40.4310   79.9210   59.8830 S   0  0  0  0  0  0  0  0  0  0  0  0
   41.0420   78.8520   63.2860 H   0  0  0  0  0  0  0  0  0  0  0  0
   40.3330   76.8940   61.7780 H   0  0  0  0  0  0  0  0  0  0  0  0
   42.9850   82.9840   62.8100 C   0  0  0  0  0  0  0  0  0  0  0  0
   42.0590   83.7760   63.5600 C   0  0  0  0  0  0  0  0  0  0  0  0
   40.7290   83.3530   63.6440 C   0  0  0  0  0  0  0  0  0  0  0  0
   40.3960   82.2060   63.0030 N   0  0  0  0  0  0  0  0  0  0  0  0
   41.2870   81.4800   62.3050 C   0  0  0  0  0  0  0  0  0  0  0  0
   42.5490   81.8680   62.2180 N   0  0  0  0  0  0  0  0  0  0  0  0
   44.0080   83.3050   62.7430 H   0  0  0  0  0  0  0  0  0  0  0  0
   42.3900   84.6870   64.0510 H   0  0  0  0  0  0  0  0  0  0  0  0
   39.9940   83.9230   64.2020 H   0  0  0  0  0  0  0  0  0  0  0  0
   36.9510   77.2440   56.6700 C   0  0  0  0  0  0  0  0  0  0  0  0
   35.8550   77.0010   57.2500 O   0  0  0  0  0  0  0  0  0  0  0  0
   36.9600   77.8470   55.3500 C   0  0  0  0  0  0  0  0  0  0  0  0
   36.5180   77.2650   54.1900 C   0  0  0  0  0  0  0  0  0  0  0  0
   36.0870   76.2690   54.0270 H   0  0  0  0  0  0  0  0  0  0  0  0
   36.6950   78.1460   53.1930 N   0  0  0  0  0  0  0  0  0  0  0  0
   36.5020   78.1190   52.1680 H   0  0  0  0  0  0  0  0  0  0  0  0
   37.2460   79.2810   53.7120 C   0  0  0  0  0  0  0  0  0  0  0  0
   37.5700   80.2520   53.3320 H   0  0  0  0  0  0  0  0  0  0  0  0
   37.4050   79.0810   55.0520 N   0  0  0  0  0  0  0  0  0  0  0  0
  1 12  1  0  0  0  0
  2  1  1  0  0  0  0
  2  7  1  0  0  0  0
  3  2  2  0  0  0  0
  4  5  2  0  0  0  0
  4  3  1  0  0  0  0
  5  6  1  0  0  0  0
  6  1  2  0  0  0  0
  8  3  1  0  0  0  0
  9 10  2  0  0  0  0
  9 20  1  0  0  0  0
 10 14  1  0  0  0  0
 11 15  1  0  0  0  0
 11 10  1  0  0  0  0
 12 11  2  0  0  0  0
 13 12  1  0  0  0  0
 13  9  1  0  0  0  0
 16 17  1  0  0  0  0
 17 18  2  0  0  0  0
 17 23  1  0  0  0  0
 18 24  1  0  0  0  0
 19 18  1  0  0  0  0
 20 19  2  0  0  0  0
 21 20  1  0  0  0  0
 21 16  2  0  0  0  0
 22 16  1  0  0  0  0
 25 26  2  0  0  0  0
 25  5  1  0  0  0  0
 27 25  1  0  0  0  0
 28 27  2  0  0  0  0
 29 28  1  0  0  0  0
 30 32  1  0  0  0  0
 30 28  1  0  0  0  0
 31 30  1  0  0  0  0
 32 34  2  0  0  0  0
 33 32  1  0  0  0  0
 34 27  1  0  0  0  0
M  END
>  <minimizedAffinity>
-6.34577274

>  <minimizedRMSD>
0.445011407

$$$$
