
 OpenBabel03212520553D

 34 37  0  0  0  0  0  0  0  0999 V2000
   39.7030   77.1660   59.1750 C   0  0  0  0  0  0  0  0  0  0  0  0
   40.3650   76.0150   58.9080 C   0  0  0  0  0  0  0  0  0  0  0  0
   39.8170   75.2870   57.8470 C   0  0  0  0  0  0  0  0  0  0  0  0
   38.7350   75.6800   57.1460 N   0  0  0  0  0  0  0  0  0  0  0  0
   38.1310   76.8530   57.4820 C   0  0  0  0  0  0  0  0  0  0  0  0
   38.6220   77.6020   58.5080 N   0  0  0  0  0  0  0  0  0  0  0  0
   41.2370   75.6460   59.4330 H   0  0  0  0  0  0  0  0  0  0  0  0
   40.2570   74.3450   57.5350 H   0  0  0  0  0  0  0  0  0  0  0  0
   40.9480   80.1510   61.6620 C   0  0  0  0  0  0  0  0  0  0  0  0
   40.8850   78.9250   62.2970 C   0  0  0  0  0  0  0  0  0  0  0  0
   40.4870   77.8570   61.5810 C   0  0  0  0  0  0  0  0  0  0  0  0
   40.1560   78.0150   60.2440 C   0  0  0  0  0  0  0  0  0  0  0  0
   40.4260   79.8290   59.9550 S   0  0  0  0  0  0  0  0  0  0  0  0
   41.1470   78.8040   63.3490 H   0  0  0  0  0  0  0  0  0  0  0  0
   40.3750   76.8290   61.8940 H   0  0  0  0  0  0  0  0  0  0  0  0
   43.0870   82.9330   62.7260 C   0  0  0  0  0  0  0  0  0  0  0  0
   42.1980   83.7250   63.5190 C   0  0  0  0  0  0  0  0  0  0  0  0
   40.8770   83.2960   63.6780 C   0  0  0  0  0  0  0  0  0  0  0  0
   40.5160   82.1430   63.0640 N   0  0  0  0  0  0  0  0  0  0  0  0
   41.3720   81.4160   62.3250 C   0  0  0  0  0  0  0  0  0  0  0  0
   42.6250   81.8110   62.1660 N   0  0  0  0  0  0  0  0  0  0  0  0
   44.1030   83.2590   62.6010 H   0  0  0  0  0  0  0  0  0  0  0  0
   42.5510   84.6420   63.9850 H   0  0  0  0  0  0  0  0  0  0  0  0
   40.1710   83.8660   64.2710 H   0  0  0  0  0  0  0  0  0  0  0  0
   36.9720   77.2680   56.7260 C   0  0  0  0  0  0  0  0  0  0  0  0
   35.8390   77.0650   57.2490 O   0  0  0  0  0  0  0  0  0  0  0  0
   37.0700   77.8940   55.4210 C   0  0  0  0  0  0  0  0  0  0  0  0
   37.6400   79.1110   55.1450 C   0  0  0  0  0  0  0  0  0  0  0  0
   38.1170   79.8300   55.8230 H   0  0  0  0  0  0  0  0  0  0  0  0
   37.5280   79.3280   53.8250 N   0  0  0  0  0  0  0  0  0  0  0  0
   37.8200   80.1100   53.2000 H   0  0  0  0  0  0  0  0  0  0  0  0
   36.8940   78.2600   53.2610 C   0  0  0  0  0  0  0  0  0  0  0  0
   36.5760   77.9620   52.2610 H   0  0  0  0  0  0  0  0  0  0  0  0
   36.6150   77.3770   54.2640 N   0  0  0  0  0  0  0  0  0  0  0  0
  1 12  1  0  0  0  0
  2  1  1  0  0  0  0
  2  7  1  0  0  0  0
  3  2  2  0  0  0  0
  4  5  2  0  0  0  0
  4  3  1  0  0  0  0
  5  6  1  0  0  0  0
  6  1  2  0  0  0  0
  8  3  1  0  0  0  0
  9 10  2  0  0  0  0
  9 20  1  0  0  0  0
 10 14  1  0  0  0  0
 11 15  1  0  0  0  0
 11 10  1  0  0  0  0
 12 11  2  0  0  0  0
 13 12  1  0  0  0  0
 13  9  1  0  0  0  0
 16 17  1  0  0  0  0
 17 18  2  0  0  0  0
 17 23  1  0  0  0  0
 18 24  1  0  0  0  0
 19 18  1  0  0  0  0
 20 19  2  0  0  0  0
 21 20  1  0  0  0  0
 21 16  2  0  0  0  0
 22 16  1  0  0  0  0
 25 26  2  0  0  0  0
 25  5  1  0  0  0  0
 27 25  1  0  0  0  0
 28 27  2  0  0  0  0
 28 29  1  0  0  0  0
 30 28  1  0  0  0  0
 31 30  1  0  0  0  0
 32 30  1  0  0  0  0
 32 34  2  0  0  0  0
 33 32  1  0  0  0  0
 34 27  1  0  0  0  0
M  END
>  <minimizedAffinity>
-6.21566582

>  <minimizedRMSD>
0.33430329

$$$$
