
 OpenBabel03212520543D

 34 37  0  0  0  0  0  0  0  0999 V2000
   39.6880   77.1950   59.1310 C   0  0  0  0  0  0  0  0  0  0  0  0
   40.3390   76.0400   58.8590 C   0  0  0  0  0  0  0  0  0  0  0  0
   39.7870   75.3240   57.7930 C   0  0  0  0  0  0  0  0  0  0  0  0
   38.7090   75.7300   57.0930 N   0  0  0  0  0  0  0  0  0  0  0  0
   38.1150   76.9060   57.4350 C   0  0  0  0  0  0  0  0  0  0  0  0
   38.6110   77.6450   58.4660 N   0  0  0  0  0  0  0  0  0  0  0  0
   41.2070   75.6600   59.3830 H   0  0  0  0  0  0  0  0  0  0  0  0
   40.2180   74.3800   57.4750 H   0  0  0  0  0  0  0  0  0  0  0  0
   40.9460   80.1560   61.6410 C   0  0  0  0  0  0  0  0  0  0  0  0
   40.8870   78.9240   62.2640 C   0  0  0  0  0  0  0  0  0  0  0  0
   40.4860   77.8630   61.5400 C   0  0  0  0  0  0  0  0  0  0  0  0
   40.1470   78.0340   60.2060 C   0  0  0  0  0  0  0  0  0  0  0  0
   40.4130   79.8510   59.9340 S   0  0  0  0  0  0  0  0  0  0  0  0
   41.1550   78.7920   63.3140 H   0  0  0  0  0  0  0  0  0  0  0  0
   40.3760   76.8320   61.8430 H   0  0  0  0  0  0  0  0  0  0  0  0
   43.0930   82.9220   62.7300 C   0  0  0  0  0  0  0  0  0  0  0  0
   42.2060   83.7120   63.5260 C   0  0  0  0  0  0  0  0  0  0  0  0
   40.8820   83.2880   63.6780 C   0  0  0  0  0  0  0  0  0  0  0  0
   40.5190   82.1400   63.0550 N   0  0  0  0  0  0  0  0  0  0  0  0
   41.3730   81.4150   62.3130 C   0  0  0  0  0  0  0  0  0  0  0  0
   42.6290   81.8050   62.1610 N   0  0  0  0  0  0  0  0  0  0  0  0
   44.1110   83.2440   62.6100 H   0  0  0  0  0  0  0  0  0  0  0  0
   42.5610   84.6240   63.9990 H   0  0  0  0  0  0  0  0  0  0  0  0
   40.1770   83.8570   64.2730 H   0  0  0  0  0  0  0  0  0  0  0  0
   36.9610   77.3360   56.6800 C   0  0  0  0  0  0  0  0  0  0  0  0
   35.8250   77.1280   57.1940 O   0  0  0  0  0  0  0  0  0  0  0  0
   37.0660   77.9810   55.3850 C   0  0  0  0  0  0  0  0  0  0  0  0
   37.5550   79.2400   55.1440 C   0  0  0  0  0  0  0  0  0  0  0  0
   37.9490   79.9850   55.8460 H   0  0  0  0  0  0  0  0  0  0  0  0
   37.4840   79.4630   53.8220 N   0  0  0  0  0  0  0  0  0  0  0  0
   37.7420   80.2720   53.2150 H   0  0  0  0  0  0  0  0  0  0  0  0
   36.9540   78.3570   53.2230 C   0  0  0  0  0  0  0  0  0  0  0  0
   36.7000   78.0480   52.2080 H   0  0  0  0  0  0  0  0  0  0  0  0
   36.7000   77.4460   54.2060 N   0  0  0  0  0  0  0  0  0  0  0  0
  1 12  1  0  0  0  0
  2  1  1  0  0  0  0
  2  7  1  0  0  0  0
  3  2  2  0  0  0  0
  4  5  2  0  0  0  0
  4  3  1  0  0  0  0
  5  6  1  0  0  0  0
  6  1  2  0  0  0  0
  8  3  1  0  0  0  0
  9 10  2  0  0  0  0
  9 20  1  0  0  0  0
 10 14  1  0  0  0  0
 11 15  1  0  0  0  0
 11 10  1  0  0  0  0
 12 11  2  0  0  0  0
 13 12  1  0  0  0  0
 13  9  1  0  0  0  0
 16 17  1  0  0  0  0
 17 18  2  0  0  0  0
 17 23  1  0  0  0  0
 18 24  1  0  0  0  0
 19 18  1  0  0  0  0
 20 19  2  0  0  0  0
 21 20  1  0  0  0  0
 21 16  2  0  0  0  0
 22 16  1  0  0  0  0
 25 26  2  0  0  0  0
 25  5  1  0  0  0  0
 27 25  1  0  0  0  0
 28 27  2  0  0  0  0
 28 29  1  0  0  0  0
 30 28  1  0  0  0  0
 31 30  1  0  0  0  0
 32 30  1  0  0  0  0
 32 34  2  0  0  0  0
 33 32  1  0  0  0  0
 34 27  1  0  0  0  0
M  END
>  <minimizedAffinity>
-6.21352005

>  <minimizedRMSD>
0.410933435

$$$$
