
 OpenBabel03212520543D

 34 37  0  0  0  0  0  0  0  0999 V2000
   39.6900   77.1950   59.0680 C   0  0  0  0  0  0  0  0  0  0  0  0
   40.3860   76.0740   58.7610 C   0  0  0  0  0  0  0  0  0  0  0  0
   39.8460   75.3570   57.6880 C   0  0  0  0  0  0  0  0  0  0  0  0
   38.7410   75.7320   57.0140 N   0  0  0  0  0  0  0  0  0  0  0  0
   38.1040   76.8740   57.3900 C   0  0  0  0  0  0  0  0  0  0  0  0
   38.5850   77.6120   58.4280 N   0  0  0  0  0  0  0  0  0  0  0  0
   41.2770   75.7210   59.2630 H   0  0  0  0  0  0  0  0  0  0  0  0
   40.3120   74.4390   57.3440 H   0  0  0  0  0  0  0  0  0  0  0  0
   40.9250   80.1440   61.6030 C   0  0  0  0  0  0  0  0  0  0  0  0
   40.8240   78.9160   62.2280 C   0  0  0  0  0  0  0  0  0  0  0  0
   40.4250   77.8590   61.4970 C   0  0  0  0  0  0  0  0  0  0  0  0
   40.1310   78.0300   60.1530 C   0  0  0  0  0  0  0  0  0  0  0  0
   40.4400   79.8410   59.8810 S   0  0  0  0  0  0  0  0  0  0  0  0
   41.0560   78.7850   63.2870 H   0  0  0  0  0  0  0  0  0  0  0  0
   40.2870   76.8320   61.8010 H   0  0  0  0  0  0  0  0  0  0  0  0
   43.0780   82.8970   62.7110 C   0  0  0  0  0  0  0  0  0  0  0  0
   42.1910   83.6860   63.5090 C   0  0  0  0  0  0  0  0  0  0  0  0
   40.8660   83.2650   63.6560 C   0  0  0  0  0  0  0  0  0  0  0  0
   40.5000   82.1220   63.0270 N   0  0  0  0  0  0  0  0  0  0  0  0
   41.3540   81.3980   62.2830 C   0  0  0  0  0  0  0  0  0  0  0  0
   42.6120   81.7850   62.1350 N   0  0  0  0  0  0  0  0  0  0  0  0
   44.0970   83.2170   62.5950 H   0  0  0  0  0  0  0  0  0  0  0  0
   42.5480   84.5950   63.9880 H   0  0  0  0  0  0  0  0  0  0  0  0
   40.1610   83.8330   64.2530 H   0  0  0  0  0  0  0  0  0  0  0  0
   36.9200   77.2700   56.6620 C   0  0  0  0  0  0  0  0  0  0  0  0
   35.8070   77.1060   57.2380 O   0  0  0  0  0  0  0  0  0  0  0  0
   36.9730   77.8330   55.3260 C   0  0  0  0  0  0  0  0  0  0  0  0
   36.5160   77.2400   54.1770 C   0  0  0  0  0  0  0  0  0  0  0  0
   36.0370   76.2630   54.0360 H   0  0  0  0  0  0  0  0  0  0  0  0
   36.7480   78.0820   53.1580 N   0  0  0  0  0  0  0  0  0  0  0  0
   36.5660   78.0350   52.1320 H   0  0  0  0  0  0  0  0  0  0  0  0
   37.3500   79.2040   53.6510 C   0  0  0  0  0  0  0  0  0  0  0  0
   37.7250   80.1450   53.2480 H   0  0  0  0  0  0  0  0  0  0  0  0
   37.4820   79.0350   54.9980 N   0  0  0  0  0  0  0  0  0  0  0  0
  1 12  1  0  0  0  0
  2  1  1  0  0  0  0
  2  7  1  0  0  0  0
  3  2  2  0  0  0  0
  4  5  2  0  0  0  0
  4  3  1  0  0  0  0
  5  6  1  0  0  0  0
  6  1  2  0  0  0  0
  8  3  1  0  0  0  0
  9 10  2  0  0  0  0
  9 20  1  0  0  0  0
 10 14  1  0  0  0  0
 11 15  1  0  0  0  0
 11 10  1  0  0  0  0
 12 11  2  0  0  0  0
 13 12  1  0  0  0  0
 13  9  1  0  0  0  0
 16 17  1  0  0  0  0
 17 18  2  0  0  0  0
 17 23  1  0  0  0  0
 18 24  1  0  0  0  0
 19 18  1  0  0  0  0
 20 19  2  0  0  0  0
 21 20  1  0  0  0  0
 21 16  2  0  0  0  0
 22 16  1  0  0  0  0
 25 26  2  0  0  0  0
 25  5  1  0  0  0  0
 27 25  1  0  0  0  0
 28 27  2  0  0  0  0
 29 28  1  0  0  0  0
 30 32  1  0  0  0  0
 30 28  1  0  0  0  0
 31 30  1  0  0  0  0
 32 34  2  0  0  0  0
 33 32  1  0  0  0  0
 34 27  1  0  0  0  0
M  END
>  <minimizedAffinity>
-6.3339448

>  <minimizedRMSD>
0.354520828

$$$$
