
 OpenBabel03212520553D

 34 37  0  0  0  0  0  0  0  0999 V2000
   39.6910   77.1990   59.1290 C   0  0  0  0  0  0  0  0  0  0  0  0
   40.3440   76.0450   58.8550 C   0  0  0  0  0  0  0  0  0  0  0  0
   39.7930   75.3290   57.7880 C   0  0  0  0  0  0  0  0  0  0  0  0
   38.7140   75.7350   57.0890 N   0  0  0  0  0  0  0  0  0  0  0  0
   38.1180   76.9090   57.4330 C   0  0  0  0  0  0  0  0  0  0  0  0
   38.6130   77.6480   58.4650 N   0  0  0  0  0  0  0  0  0  0  0  0
   41.2130   75.6670   59.3790 H   0  0  0  0  0  0  0  0  0  0  0  0
   40.2260   74.3860   57.4700 H   0  0  0  0  0  0  0  0  0  0  0  0
   40.9470   80.1590   61.6420 C   0  0  0  0  0  0  0  0  0  0  0  0
   40.8860   78.9270   62.2640 C   0  0  0  0  0  0  0  0  0  0  0  0
   40.4860   77.8660   61.5390 C   0  0  0  0  0  0  0  0  0  0  0  0
   40.1480   78.0380   60.2050 C   0  0  0  0  0  0  0  0  0  0  0  0
   40.4160   79.8550   59.9330 S   0  0  0  0  0  0  0  0  0  0  0  0
   41.1530   78.7950   63.3140 H   0  0  0  0  0  0  0  0  0  0  0  0
   40.3750   76.8350   61.8420 H   0  0  0  0  0  0  0  0  0  0  0  0
   43.0920   82.9250   62.7320 C   0  0  0  0  0  0  0  0  0  0  0  0
   42.2040   83.7140   63.5290 C   0  0  0  0  0  0  0  0  0  0  0  0
   40.8810   83.2890   63.6810 C   0  0  0  0  0  0  0  0  0  0  0  0
   40.5180   82.1420   63.0570 N   0  0  0  0  0  0  0  0  0  0  0  0
   41.3730   81.4180   62.3150 C   0  0  0  0  0  0  0  0  0  0  0  0
   42.6280   81.8090   62.1630 N   0  0  0  0  0  0  0  0  0  0  0  0
   44.1100   83.2480   62.6130 H   0  0  0  0  0  0  0  0  0  0  0  0
   42.5590   84.6260   64.0030 H   0  0  0  0  0  0  0  0  0  0  0  0
   40.1750   83.8580   64.2760 H   0  0  0  0  0  0  0  0  0  0  0  0
   36.9630   77.3380   56.6790 C   0  0  0  0  0  0  0  0  0  0  0  0
   35.8280   77.1280   57.1940 O   0  0  0  0  0  0  0  0  0  0  0  0
   37.0670   77.9830   55.3840 C   0  0  0  0  0  0  0  0  0  0  0  0
   37.5540   79.2420   55.1420 C   0  0  0  0  0  0  0  0  0  0  0  0
   37.9470   79.9870   55.8440 H   0  0  0  0  0  0  0  0  0  0  0  0
   37.4810   79.4650   53.8200 N   0  0  0  0  0  0  0  0  0  0  0  0
   37.7380   80.2740   53.2140 H   0  0  0  0  0  0  0  0  0  0  0  0
   36.9520   78.3590   53.2230 C   0  0  0  0  0  0  0  0  0  0  0  0
   36.7000   78.0500   52.2060 H   0  0  0  0  0  0  0  0  0  0  0  0
   36.7000   77.4470   54.2050 N   0  0  0  0  0  0  0  0  0  0  0  0
  1 12  1  0  0  0  0
  2  1  1  0  0  0  0
  2  7  1  0  0  0  0
  3  2  2  0  0  0  0
  4  5  2  0  0  0  0
  4  3  1  0  0  0  0
  5  6  1  0  0  0  0
  6  1  2  0  0  0  0
  8  3  1  0  0  0  0
  9 10  2  0  0  0  0
  9 20  1  0  0  0  0
 10 14  1  0  0  0  0
 11 15  1  0  0  0  0
 11 10  1  0  0  0  0
 12 11  2  0  0  0  0
 13 12  1  0  0  0  0
 13  9  1  0  0  0  0
 16 17  1  0  0  0  0
 17 18  2  0  0  0  0
 17 23  1  0  0  0  0
 18 24  1  0  0  0  0
 19 18  1  0  0  0  0
 20 19  2  0  0  0  0
 21 20  1  0  0  0  0
 21 16  2  0  0  0  0
 22 16  1  0  0  0  0
 25 26  2  0  0  0  0
 25  5  1  0  0  0  0
 27 25  1  0  0  0  0
 28 27  2  0  0  0  0
 28 29  1  0  0  0  0
 30 28  1  0  0  0  0
 31 30  1  0  0  0  0
 32 30  1  0  0  0  0
 32 34  2  0  0  0  0
 33 32  1  0  0  0  0
 34 27  1  0  0  0  0
M  END
>  <minimizedAffinity>
-6.21692419

>  <minimizedRMSD>
0.367359549

$$$$
