
 OpenBabel03212520543D

 34 37  0  0  0  0  0  0  0  0999 V2000
   39.6780   76.9560   59.4540 C   0  0  0  0  0  0  0  0  0  0  0  0
   40.2320   75.7230   59.3640 C   0  0  0  0  0  0  0  0  0  0  0  0
   39.7010   74.9450   58.3300 C   0  0  0  0  0  0  0  0  0  0  0  0
   38.7300   75.3670   57.4950 N   0  0  0  0  0  0  0  0  0  0  0  0
   38.2300   76.6220   57.6580 C   0  0  0  0  0  0  0  0  0  0  0  0
   38.7100   77.4240   58.6490 N   0  0  0  0  0  0  0  0  0  0  0  0
   41.0120   75.3280   60.0020 H   0  0  0  0  0  0  0  0  0  0  0  0
   40.0610   73.9370   58.1540 H   0  0  0  0  0  0  0  0  0  0  0  0
   40.9370   80.0730   61.7670 C   0  0  0  0  0  0  0  0  0  0  0  0
   40.8350   78.8930   62.4780 C   0  0  0  0  0  0  0  0  0  0  0  0
   40.4290   77.7880   61.8260 C   0  0  0  0  0  0  0  0  0  0  0  0
   40.1280   77.8650   60.4750 C   0  0  0  0  0  0  0  0  0  0  0  0
   40.4410   79.6500   60.0730 S   0  0  0  0  0  0  0  0  0  0  0  0
   41.0730   78.8360   63.5420 H   0  0  0  0  0  0  0  0  0  0  0  0
   40.2890   76.7850   62.2030 H   0  0  0  0  0  0  0  0  0  0  0  0
   43.0930   82.9110   62.6280 C   0  0  0  0  0  0  0  0  0  0  0  0
   42.2250   83.7380   63.4080 C   0  0  0  0  0  0  0  0  0  0  0  0
   40.9110   83.3130   63.6280 C   0  0  0  0  0  0  0  0  0  0  0  0
   40.5380   82.1300   63.0820 N   0  0  0  0  0  0  0  0  0  0  0  0
   41.3740   81.3710   62.3530 C   0  0  0  0  0  0  0  0  0  0  0  0
   42.6210   81.7610   62.1380 N   0  0  0  0  0  0  0  0  0  0  0  0
   44.1040   83.2330   62.4560 H   0  0  0  0  0  0  0  0  0  0  0  0
   42.5870   84.6770   63.8180 H   0  0  0  0  0  0  0  0  0  0  0  0
   40.2210   83.9090   64.2140 H   0  0  0  0  0  0  0  0  0  0  0  0
   37.1900   77.0680   56.7590 C   0  0  0  0  0  0  0  0  0  0  0  0
   36.0220   77.1650   57.2310 O   0  0  0  0  0  0  0  0  0  0  0  0
   37.4430   77.3950   55.3680 C   0  0  0  0  0  0  0  0  0  0  0  0
   36.5420   77.3110   54.3380 C   0  0  0  0  0  0  0  0  0  0  0  0
   35.4920   76.9940   54.3520 H   0  0  0  0  0  0  0  0  0  0  0  0
   37.1630   77.7020   53.2140 N   0  0  0  0  0  0  0  0  0  0  0  0
   36.8590   77.7900   52.2200 H   0  0  0  0  0  0  0  0  0  0  0  0
   38.4500   78.0320   53.5220 C   0  0  0  0  0  0  0  0  0  0  0  0
   39.3290   78.3930   52.9840 H   0  0  0  0  0  0  0  0  0  0  0  0
   38.6100   77.8360   54.8630 N   0  0  0  0  0  0  0  0  0  0  0  0
  1 12  1  0  0  0  0
  2  1  1  0  0  0  0
  2  7  1  0  0  0  0
  3  2  2  0  0  0  0
  4  5  2  0  0  0  0
  4  3  1  0  0  0  0
  5  6  1  0  0  0  0
  6  1  2  0  0  0  0
  8  3  1  0  0  0  0
  9 20  1  0  0  0  0
  9 10  2  0  0  0  0
 10 14  1  0  0  0  0
 11 15  1  0  0  0  0
 11 10  1  0  0  0  0
 12 11  2  0  0  0  0
 13 12  1  0  0  0  0
 13  9  1  0  0  0  0
 16 17  1  0  0  0  0
 17 18  2  0  0  0  0
 17 23  1  0  0  0  0
 18 24  1  0  0  0  0
 19 18  1  0  0  0  0
 20 19  2  0  0  0  0
 21 20  1  0  0  0  0
 21 16  2  0  0  0  0
 22 16  1  0  0  0  0
 25 26  2  0  0  0  0
 25  5  1  0  0  0  0
 27 25  1  0  0  0  0
 28 29  1  0  0  0  0
 28 27  2  0  0  0  0
 30 32  1  0  0  0  0
 30 28  1  0  0  0  0
 31 30  1  0  0  0  0
 32 34  2  0  0  0  0
 33 32  1  0  0  0  0
 34 27  1  0  0  0  0
M  END
>  <minimizedAffinity>
-6.05753279

>  <minimizedRMSD>
0.405709267

$$$$
