
 OpenBabel03212520543D

 34 37  0  0  0  0  0  0  0  0999 V2000
   39.6840   77.1840   59.1360 C   0  0  0  0  0  0  0  0  0  0  0  0
   40.3320   76.0260   58.8690 C   0  0  0  0  0  0  0  0  0  0  0  0
   39.7780   75.3080   57.8040 C   0  0  0  0  0  0  0  0  0  0  0  0
   38.7040   75.7170   57.1000 N   0  0  0  0  0  0  0  0  0  0  0  0
   38.1140   76.8960   57.4370 C   0  0  0  0  0  0  0  0  0  0  0  0
   38.6110   77.6360   58.4670 N   0  0  0  0  0  0  0  0  0  0  0  0
   41.1970   75.6440   59.3960 H   0  0  0  0  0  0  0  0  0  0  0  0
   40.2070   74.3610   57.4910 H   0  0  0  0  0  0  0  0  0  0  0  0
   40.9460   80.1490   61.6400 C   0  0  0  0  0  0  0  0  0  0  0  0
   40.8860   78.9180   62.2650 C   0  0  0  0  0  0  0  0  0  0  0  0
   40.4840   77.8560   61.5430 C   0  0  0  0  0  0  0  0  0  0  0  0
   40.1440   78.0250   60.2090 C   0  0  0  0  0  0  0  0  0  0  0  0
   40.4120   79.8410   59.9330 S   0  0  0  0  0  0  0  0  0  0  0  0
   41.1550   78.7880   63.3150 H   0  0  0  0  0  0  0  0  0  0  0  0
   40.3740   76.8250   61.8480 H   0  0  0  0  0  0  0  0  0  0  0  0
   43.0940   82.9160   62.7210 C   0  0  0  0  0  0  0  0  0  0  0  0
   42.2080   83.7080   63.5180 C   0  0  0  0  0  0  0  0  0  0  0  0
   40.8850   83.2840   63.6730 C   0  0  0  0  0  0  0  0  0  0  0  0
   40.5200   82.1350   63.0520 N   0  0  0  0  0  0  0  0  0  0  0  0
   41.3740   81.4090   62.3100 C   0  0  0  0  0  0  0  0  0  0  0  0
   42.6290   81.7990   62.1540 N   0  0  0  0  0  0  0  0  0  0  0  0
   44.1120   83.2380   62.5990 H   0  0  0  0  0  0  0  0  0  0  0  0
   42.5640   84.6210   63.9890 H   0  0  0  0  0  0  0  0  0  0  0  0
   40.1800   83.8530   64.2680 H   0  0  0  0  0  0  0  0  0  0  0  0
   36.9630   77.3290   56.6790 C   0  0  0  0  0  0  0  0  0  0  0  0
   35.8250   77.1280   57.1910 O   0  0  0  0  0  0  0  0  0  0  0  0
   37.0740   77.9670   55.3800 C   0  0  0  0  0  0  0  0  0  0  0  0
   36.7690   77.4010   54.1690 C   0  0  0  0  0  0  0  0  0  0  0  0
   36.3950   76.3950   53.9410 H   0  0  0  0  0  0  0  0  0  0  0  0
   37.0080   78.3140   53.2150 N   0  0  0  0  0  0  0  0  0  0  0  0
   36.9160   78.3090   52.1760 H   0  0  0  0  0  0  0  0  0  0  0  0
   37.4620   79.4550   53.8120 C   0  0  0  0  0  0  0  0  0  0  0  0
   37.7820   80.4470   53.4880 H   0  0  0  0  0  0  0  0  0  0  0  0
   37.4970   79.2250   55.1550 N   0  0  0  0  0  0  0  0  0  0  0  0
  1 12  1  0  0  0  0
  2  1  1  0  0  0  0
  2  7  1  0  0  0  0
  3  2  2  0  0  0  0
  4  5  2  0  0  0  0
  4  3  1  0  0  0  0
  5  6  1  0  0  0  0
  6  1  2  0  0  0  0
  8  3  1  0  0  0  0
  9 10  2  0  0  0  0
  9 20  1  0  0  0  0
 10 14  1  0  0  0  0
 11 15  1  0  0  0  0
 11 10  1  0  0  0  0
 12 11  2  0  0  0  0
 13 12  1  0  0  0  0
 13  9  1  0  0  0  0
 16 17  1  0  0  0  0
 17 18  2  0  0  0  0
 17 23  1  0  0  0  0
 18 24  1  0  0  0  0
 19 18  1  0  0  0  0
 20 19  2  0  0  0  0
 21 20  1  0  0  0  0
 21 16  2  0  0  0  0
 22 16  1  0  0  0  0
 25 26  2  0  0  0  0
 25  5  1  0  0  0  0
 27 25  1  0  0  0  0
 28 27  2  0  0  0  0
 29 28  1  0  0  0  0
 30 32  1  0  0  0  0
 30 28  1  0  0  0  0
 31 30  1  0  0  0  0
 32 34  2  0  0  0  0
 33 32  1  0  0  0  0
 34 27  1  0  0  0  0
M  END
>  <minimizedAffinity>
-6.24096489

>  <minimizedRMSD>
0.400966078

$$$$
