
 OpenBabel03212520553D

 34 37  0  0  0  0  0  0  0  0999 V2000
   39.6820   77.1830   59.1370 C   0  0  0  0  0  0  0  0  0  0  0  0
   40.3290   76.0240   58.8700 C   0  0  0  0  0  0  0  0  0  0  0  0
   39.7750   75.3060   57.8050 C   0  0  0  0  0  0  0  0  0  0  0  0
   38.7010   75.7160   57.1010 N   0  0  0  0  0  0  0  0  0  0  0  0
   38.1120   76.8960   57.4380 C   0  0  0  0  0  0  0  0  0  0  0  0
   38.6090   77.6360   58.4670 N   0  0  0  0  0  0  0  0  0  0  0  0
   41.1940   75.6420   59.3970 H   0  0  0  0  0  0  0  0  0  0  0  0
   40.2030   74.3590   57.4920 H   0  0  0  0  0  0  0  0  0  0  0  0
   40.9460   80.1480   61.6400 C   0  0  0  0  0  0  0  0  0  0  0  0
   40.8860   78.9170   62.2640 C   0  0  0  0  0  0  0  0  0  0  0  0
   40.4830   77.8550   61.5430 C   0  0  0  0  0  0  0  0  0  0  0  0
   40.1430   78.0240   60.2090 C   0  0  0  0  0  0  0  0  0  0  0  0
   40.4110   79.8400   59.9330 S   0  0  0  0  0  0  0  0  0  0  0  0
   41.1550   78.7870   63.3150 H   0  0  0  0  0  0  0  0  0  0  0  0
   40.3730   76.8250   61.8490 H   0  0  0  0  0  0  0  0  0  0  0  0
   43.0950   82.9150   62.7200 C   0  0  0  0  0  0  0  0  0  0  0  0
   42.2090   83.7070   63.5170 C   0  0  0  0  0  0  0  0  0  0  0  0
   40.8850   83.2830   63.6710 C   0  0  0  0  0  0  0  0  0  0  0  0
   40.5210   82.1350   63.0510 N   0  0  0  0  0  0  0  0  0  0  0  0
   41.3740   81.4080   62.3090 C   0  0  0  0  0  0  0  0  0  0  0  0
   42.6300   81.7970   62.1540 N   0  0  0  0  0  0  0  0  0  0  0  0
   44.1130   83.2360   62.5990 H   0  0  0  0  0  0  0  0  0  0  0  0
   42.5650   84.6200   63.9880 H   0  0  0  0  0  0  0  0  0  0  0  0
   40.1810   83.8540   64.2660 H   0  0  0  0  0  0  0  0  0  0  0  0
   36.9620   77.3290   56.6790 C   0  0  0  0  0  0  0  0  0  0  0  0
   35.8240   77.1290   57.1910 O   0  0  0  0  0  0  0  0  0  0  0  0
   37.0740   77.9670   55.3800 C   0  0  0  0  0  0  0  0  0  0  0  0
   36.7710   77.4010   54.1690 C   0  0  0  0  0  0  0  0  0  0  0  0
   36.3990   76.3940   53.9400 H   0  0  0  0  0  0  0  0  0  0  0  0
   37.0100   78.3140   53.2140 N   0  0  0  0  0  0  0  0  0  0  0  0
   36.9180   78.3080   52.1760 H   0  0  0  0  0  0  0  0  0  0  0  0
   37.4610   79.4550   53.8120 C   0  0  0  0  0  0  0  0  0  0  0  0
   37.7810   80.4480   53.4880 H   0  0  0  0  0  0  0  0  0  0  0  0
   37.4960   79.2250   55.1560 N   0  0  0  0  0  0  0  0  0  0  0  0
  1 12  1  0  0  0  0
  2  1  1  0  0  0  0
  2  7  1  0  0  0  0
  3  2  2  0  0  0  0
  4  5  2  0  0  0  0
  4  3  1  0  0  0  0
  5  6  1  0  0  0  0
  6  1  2  0  0  0  0
  8  3  1  0  0  0  0
  9 10  2  0  0  0  0
  9 20  1  0  0  0  0
 10 14  1  0  0  0  0
 11 15  1  0  0  0  0
 11 10  1  0  0  0  0
 12 11  2  0  0  0  0
 13 12  1  0  0  0  0
 13  9  1  0  0  0  0
 16 17  1  0  0  0  0
 17 18  2  0  0  0  0
 17 23  1  0  0  0  0
 18 24  1  0  0  0  0
 19 18  1  0  0  0  0
 20 19  2  0  0  0  0
 21 20  1  0  0  0  0
 21 16  2  0  0  0  0
 22 16  1  0  0  0  0
 25 26  2  0  0  0  0
 25  5  1  0  0  0  0
 27 25  1  0  0  0  0
 28 27  2  0  0  0  0
 29 28  1  0  0  0  0
 30 32  1  0  0  0  0
 30 28  1  0  0  0  0
 31 30  1  0  0  0  0
 32 34  2  0  0  0  0
 33 32  1  0  0  0  0
 34 27  1  0  0  0  0
M  END
>  <minimizedAffinity>
-6.24040413

>  <minimizedRMSD>
0.449925542

$$$$
