
 OpenBabel03212520543D

 34 37  0  0  0  0  0  0  0  0999 V2000
   39.6910   77.1960   59.0640 C   0  0  0  0  0  0  0  0  0  0  0  0
   40.3910   76.0800   58.7510 C   0  0  0  0  0  0  0  0  0  0  0  0
   39.8500   75.3630   57.6780 C   0  0  0  0  0  0  0  0  0  0  0  0
   38.7400   75.7340   57.0100 N   0  0  0  0  0  0  0  0  0  0  0  0
   38.0990   76.8720   57.3920 C   0  0  0  0  0  0  0  0  0  0  0  0
   38.5810   77.6090   58.4310 N   0  0  0  0  0  0  0  0  0  0  0  0
   41.2870   75.7300   59.2480 H   0  0  0  0  0  0  0  0  0  0  0  0
   40.3190   74.4480   57.3300 H   0  0  0  0  0  0  0  0  0  0  0  0
   40.9270   80.1430   61.6010 C   0  0  0  0  0  0  0  0  0  0  0  0
   40.8260   78.9150   62.2250 C   0  0  0  0  0  0  0  0  0  0  0  0
   40.4280   77.8580   61.4930 C   0  0  0  0  0  0  0  0  0  0  0  0
   40.1320   78.0310   60.1490 C   0  0  0  0  0  0  0  0  0  0  0  0
   40.4400   79.8420   59.8790 S   0  0  0  0  0  0  0  0  0  0  0  0
   41.0600   78.7820   63.2830 H   0  0  0  0  0  0  0  0  0  0  0  0
   40.2910   76.8300   61.7960 H   0  0  0  0  0  0  0  0  0  0  0  0
   43.0790   82.8950   62.7120 C   0  0  0  0  0  0  0  0  0  0  0  0
   42.1920   83.6840   63.5100 C   0  0  0  0  0  0  0  0  0  0  0  0
   40.8660   83.2630   63.6560 C   0  0  0  0  0  0  0  0  0  0  0  0
   40.5010   82.1210   63.0260 N   0  0  0  0  0  0  0  0  0  0  0  0
   41.3560   81.3970   62.2820 C   0  0  0  0  0  0  0  0  0  0  0  0
   42.6130   81.7840   62.1350 N   0  0  0  0  0  0  0  0  0  0  0  0
   44.0990   83.2150   62.5970 H   0  0  0  0  0  0  0  0  0  0  0  0
   42.5490   84.5920   63.9900 H   0  0  0  0  0  0  0  0  0  0  0  0
   40.1610   83.8310   64.2530 H   0  0  0  0  0  0  0  0  0  0  0  0
   36.9100   77.2640   56.6720 C   0  0  0  0  0  0  0  0  0  0  0  0
   35.7990   77.0700   57.2420 O   0  0  0  0  0  0  0  0  0  0  0  0
   36.9550   77.8550   55.3470 C   0  0  0  0  0  0  0  0  0  0  0  0
   36.5210   77.2740   54.1830 C   0  0  0  0  0  0  0  0  0  0  0  0
   36.0710   76.2870   54.0200 H   0  0  0  0  0  0  0  0  0  0  0  0
   36.7360   78.1430   53.1830 N   0  0  0  0  0  0  0  0  0  0  0  0
   36.5600   78.1110   52.1550 H   0  0  0  0  0  0  0  0  0  0  0  0
   37.3020   79.2700   53.7030 C   0  0  0  0  0  0  0  0  0  0  0  0
   37.6550   80.2300   53.3210 H   0  0  0  0  0  0  0  0  0  0  0  0
   37.4320   79.0770   55.0470 N   0  0  0  0  0  0  0  0  0  0  0  0
  1 12  1  0  0  0  0
  2  1  1  0  0  0  0
  2  7  1  0  0  0  0
  3  2  2  0  0  0  0
  4  5  2  0  0  0  0
  4  3  1  0  0  0  0
  5  6  1  0  0  0  0
  6  1  2  0  0  0  0
  8  3  1  0  0  0  0
  9 10  2  0  0  0  0
  9 20  1  0  0  0  0
 10 14  1  0  0  0  0
 11 15  1  0  0  0  0
 11 10  1  0  0  0  0
 12 11  2  0  0  0  0
 13 12  1  0  0  0  0
 13  9  1  0  0  0  0
 16 17  1  0  0  0  0
 17 18  2  0  0  0  0
 17 23  1  0  0  0  0
 18 24  1  0  0  0  0
 19 18  1  0  0  0  0
 20 19  2  0  0  0  0
 21 20  1  0  0  0  0
 21 16  2  0  0  0  0
 22 16  1  0  0  0  0
 25 26  2  0  0  0  0
 25  5  1  0  0  0  0
 27 25  1  0  0  0  0
 28 27  2  0  0  0  0
 29 28  1  0  0  0  0
 30 32  1  0  0  0  0
 30 28  1  0  0  0  0
 31 30  1  0  0  0  0
 32 34  2  0  0  0  0
 33 32  1  0  0  0  0
 34 27  1  0  0  0  0
M  END
>  <minimizedAffinity>
-6.33250618

>  <minimizedRMSD>
0.397181839

$$$$
