
 OpenBabel03212520583D

 41 45  0  0  1  0  0  0  0  0999 V2000
   39.8180   77.3930   59.1700 C   0  0  0  0  0  0  0  0  0  0  0  0
   40.5260   76.2690   58.8890 C   0  0  0  0  0  0  0  0  0  0  0  0
   39.9890   75.5560   57.8050 C   0  0  0  0  0  0  0  0  0  0  0  0
   38.8960   75.9360   57.1160 N   0  0  0  0  0  0  0  0  0  0  0  0
   38.2600   77.0870   57.4850 C   0  0  0  0  0  0  0  0  0  0  0  0
   38.7230   77.8230   58.5200 N   0  0  0  0  0  0  0  0  0  0  0  0
   41.3920   75.9180   59.3950 H   0  0  0  0  0  0  0  0  0  0  0  0
   40.4330   74.6330   57.4500 H   0  0  0  0  0  0  0  0  0  0  0  0
   40.9830   80.3380   61.7420 C   0  0  0  0  0  0  0  0  0  0  0  0
   40.9610   79.0990   62.3480 C   0  0  0  0  0  0  0  0  0  0  0  0
   40.5890   78.0450   61.5890 C   0  0  0  0  0  0  0  0  0  0  0  0
   40.2520   78.2380   60.2660 C   0  0  0  0  0  0  0  0  0  0  0  0
   40.4630   80.0480   60.0260 S   0  0  0  0  0  0  0  0  0  0  0  0
   41.2280   78.9520   63.3920 H   0  0  0  0  0  0  0  0  0  0  0  0
   40.5090   77.0050   61.8760 H   0  0  0  0  0  0  0  0  0  0  0  0
   43.0230   83.1450   62.9220 C   0  0  0  0  0  0  0  0  0  0  0  0
   42.1180   83.9010   63.7110 C   0  0  0  0  0  0  0  0  0  0  0  0
   40.7950   83.4310   63.8270 C   0  0  0  0  0  0  0  0  0  0  0  0
   40.4610   82.2950   63.1870 N   0  0  0  0  0  0  0  0  0  0  0  0
   41.3640   81.5960   62.4360 C   0  0  0  0  0  0  0  0  0  0  0  0
   42.6190   82.0260   62.3140 N   0  0  0  0  0  0  0  0  0  0  0  0
   44.0430   83.4350   62.7840 H   0  0  0  0  0  0  0  0  0  0  0  0
   42.4730   84.7850   64.1800 H   0  0  0  0  0  0  0  0  0  0  0  0
   40.0980   83.9850   64.4180 H   0  0  0  0  0  0  0  0  0  0  0  0
   37.0870   77.4820   56.7240 C   0  0  0  0  0  0  0  0  0  0  0  0
   36.0050   76.9720   57.0460 O   0  0  0  0  0  0  0  0  0  0  0  0
   37.1670   78.4630   55.5770 C   0  0  1  0  0  0  0  0  0  0  0  0
   37.2580   79.8960   56.0420 C   0  0  0  0  0  0  0  0  0  0  0  0
   38.3740   79.2320   55.3650 C   0  0  2  0  0  0  0  0  0  0  0  0
   36.3320   78.3610   54.8520 H   0  0  0  0  0  0  0  0  0  0  0  0
   37.2720   80.0880   57.1470 H   0  0  0  0  0  0  0  0  0  0  0  0
   36.5990   80.6210   55.5320 H   0  0  0  0  0  0  0  0  0  0  0  0
   39.2320   78.9590   56.0470 H   0  0  0  0  0  0  0  0  0  0  0  0
   38.8230   79.6530   54.0060 C   0  0  0  0  0  0  0  0  0  0  0  0
   40.1160   80.0520   53.7040 C   0  0  0  0  0  0  0  0  0  0  0  0
   40.9700   80.1240   54.3570 H   0  0  0  0  0  0  0  0  0  0  0  0
   40.0900   80.3420   52.3820 N   0  0  0  0  0  0  0  0  0  0  0  0
   40.9430   80.6740   51.8820 H   0  0  0  0  0  0  0  0  0  0  0  0
   38.8520   80.1430   51.8550 C   0  0  0  0  0  0  0  0  0  0  0  0
   38.6330   80.3220   50.8080 H   0  0  0  0  0  0  0  0  0  0  0  0
   38.0750   79.7110   52.8900 N   0  0  0  0  0  0  0  0  0  0  0  0
  1 12  1  0  0  0  0
  2  1  1  0  0  0  0
  2  7  1  0  0  0  0
  3  2  2  0  0  0  0
  4  5  2  0  0  0  0
  4  3  1  0  0  0  0
  5  6  1  0  0  0  0
  6  1  2  0  0  0  0
  8  3  1  0  0  0  0
  9 10  2  0  0  0  0
  9 20  1  0  0  0  0
 10 14  1  0  0  0  0
 11 15  1  0  0  0  0
 11 10  1  0  0  0  0
 12 11  2  0  0  0  0
 13 12  1  0  0  0  0
 13  9  1  0  0  0  0
 16 17  1  0  0  0  0
 17 18  2  0  0  0  0
 17 23  1  0  0  0  0
 18 24  1  0  0  0  0
 19 18  1  0  0  0  0
 20 19  2  0  0  0  0
 21 20  1  0  0  0  0
 21 16  2  0  0  0  0
 22 16  1  0  0  0  0
 25 26  2  0  0  0  0
 25  5  1  0  0  0  0
 27 30  1  6  0  0  0
 27 28  1  0  0  0  0
 27 25  1  0  0  0  0
 28 31  1  0  0  0  0
 29 27  1  0  0  0  0
 29 28  1  0  0  0  0
 29 33  1  1  0  0  0
 32 28  1  0  0  0  0
 34 29  1  0  0  0  0
 35 34  2  0  0  0  0
 35 36  1  0  0  0  0
 37 35  1  0  0  0  0
 38 37  1  0  0  0  0
 39 37  1  0  0  0  0
 39 41  2  0  0  0  0
 40 39  1  0  0  0  0
 41 34  1  0  0  0  0
M  END
>  <minimizedAffinity>
-6.30361319

>  <minimizedRMSD>
0.257761389

$$$$
