
 OpenBabel03212521093D

 19 20  0  0  0  0  0  0  0  0999 V2000
   39.9340   85.1790   59.0830 C   0  0  0  0  0  0  0  0  0  0  0  0
   39.0550   85.9840   58.6350 O   0  0  0  0  0  0  0  0  0  0  0  0
   39.9850   81.9390   60.8650 C   0  0  0  0  0  0  0  0  0  0  0  0
   40.2330   82.9030   59.8850 C   0  0  0  0  0  0  0  0  0  0  0  0
   39.6990   84.1620   60.0680 C   0  0  0  0  0  0  0  0  0  0  0  0
   38.9630   84.3980   61.1870 N   0  0  0  0  0  0  0  0  0  0  0  0
   38.7320   83.4500   62.1290 C   0  0  0  0  0  0  0  0  0  0  0  0
   39.2520   82.2170   61.9540 N   0  0  0  0  0  0  0  0  0  0  0  0
   40.3790   80.9370   60.7720 H   0  0  0  0  0  0  0  0  0  0  0  0
   40.8310   82.5950   59.0420 H   0  0  0  0  0  0  0  0  0  0  0  0
   38.1300   83.7690   62.9710 H   0  0  0  0  0  0  0  0  0  0  0  0
   41.2440   85.3920   58.4840 C   0  0  0  0  0  0  0  0  0  0  0  0
   41.6050   85.1680   57.1710 C   0  0  0  0  0  0  0  0  0  0  0  0
   40.9900   84.7980   56.3550 H   0  0  0  0  0  0  0  0  0  0  0  0
   42.9040   85.4680   56.9350 N   0  0  0  0  0  0  0  0  0  0  0  0
   43.4310   85.3930   56.0380 H   0  0  0  0  0  0  0  0  0  0  0  0
   43.3810   85.8900   58.1170 C   0  0  0  0  0  0  0  0  0  0  0  0
   44.4040   86.2240   58.3280 H   0  0  0  0  0  0  0  0  0  0  0  0
   42.3910   85.8400   59.0240 N   0  0  0  0  0  0  0  0  0  0  0  0
  1  5  1  0  0  0  0
  2  1  2  0  0  0  0
  3  8  1  0  0  0  0
  4  5  1  0  0  0  0
  4  3  2  0  0  0  0
  5  6  2  0  0  0  0
  6  7  1  0  0  0  0
  7 11  1  0  0  0  0
  8  7  2  0  0  0  0
  9  3  1  0  0  0  0
 10  4  1  0  0  0  0
 12 19  1  0  0  0  0
 12  1  1  0  0  0  0
 13 12  2  0  0  0  0
 14 13  1  0  0  0  0
 15 13  1  0  0  0  0
 15 17  1  0  0  0  0
 16 15  1  0  0  0  0
 17 18  1  0  0  0  0
 17 19  2  0  0  0  0
M  END
>  <minimizedAffinity>
-4.54576588

>  <minimizedRMSD>
0.982476234

$$$$
