
 OpenBabel03212521093D

 19 20  0  0  0  0  0  0  0  0999 V2000
   39.8470   85.1840   59.1810 C   0  0  0  0  0  0  0  0  0  0  0  0
   38.9570   86.0090   58.7980 O   0  0  0  0  0  0  0  0  0  0  0  0
   39.9680   81.8820   60.8400 C   0  0  0  0  0  0  0  0  0  0  0  0
   40.1840   82.8830   59.8910 C   0  0  0  0  0  0  0  0  0  0  0  0
   39.6450   84.1300   60.1330 C   0  0  0  0  0  0  0  0  0  0  0  0
   38.9350   84.3190   61.2780 N   0  0  0  0  0  0  0  0  0  0  0  0
   38.7350   83.3350   62.1900 C   0  0  0  0  0  0  0  0  0  0  0  0
   39.2600   82.1130   61.9570 N   0  0  0  0  0  0  0  0  0  0  0  0
   40.3670   80.8870   60.7010 H   0  0  0  0  0  0  0  0  0  0  0  0
   40.7630   82.6110   59.0230 H   0  0  0  0  0  0  0  0  0  0  0  0
   38.1510   83.6170   63.0570 H   0  0  0  0  0  0  0  0  0  0  0  0
   41.1350   85.4160   58.5420 C   0  0  0  0  0  0  0  0  0  0  0  0
   41.4510   85.2240   57.2130 C   0  0  0  0  0  0  0  0  0  0  0  0
   40.8110   84.8670   56.4100 H   0  0  0  0  0  0  0  0  0  0  0  0
   42.7400   85.5360   56.9390 N   0  0  0  0  0  0  0  0  0  0  0  0
   43.2370   85.4820   56.0230 H   0  0  0  0  0  0  0  0  0  0  0  0
   43.2560   85.9350   58.1120 C   0  0  0  0  0  0  0  0  0  0  0  0
   44.2840   86.2700   58.2960 H   0  0  0  0  0  0  0  0  0  0  0  0
   42.2980   85.8600   59.0520 N   0  0  0  0  0  0  0  0  0  0  0  0
  1  5  1  0  0  0  0
  2  1  2  0  0  0  0
  3  8  1  0  0  0  0
  4  5  1  0  0  0  0
  4  3  2  0  0  0  0
  5  6  2  0  0  0  0
  6  7  1  0  0  0  0
  7 11  1  0  0  0  0
  8  7  2  0  0  0  0
  9  3  1  0  0  0  0
 10  4  1  0  0  0  0
 12 19  1  0  0  0  0
 12  1  1  0  0  0  0
 13 12  2  0  0  0  0
 14 13  1  0  0  0  0
 15 13  1  0  0  0  0
 15 17  1  0  0  0  0
 16 15  1  0  0  0  0
 17 18  1  0  0  0  0
 17 19  2  0  0  0  0
M  END
>  <minimizedAffinity>
-4.53320026

>  <minimizedRMSD>
0.758318841

$$$$
