
 OpenBabel03212521093D

 19 20  0  0  0  0  0  0  0  0999 V2000
   39.7250   85.3190   59.0640 C   0  0  0  0  0  0  0  0  0  0  0  0
   38.8010   86.1380   58.7540 O   0  0  0  0  0  0  0  0  0  0  0  0
   39.9820   81.9810   60.6330 C   0  0  0  0  0  0  0  0  0  0  0  0
   40.1250   83.0050   59.6950 C   0  0  0  0  0  0  0  0  0  0  0  0
   39.5950   84.2420   60.0030 C   0  0  0  0  0  0  0  0  0  0  0  0
   38.9640   84.3990   61.1970 N   0  0  0  0  0  0  0  0  0  0  0  0
   38.8340   83.3920   62.0980 C   0  0  0  0  0  0  0  0  0  0  0  0
   39.3510   82.1810   61.8010 N   0  0  0  0  0  0  0  0  0  0  0  0
   40.3770   80.9930   60.4440 H   0  0  0  0  0  0  0  0  0  0  0  0
   40.6450   82.7580   58.7840 H   0  0  0  0  0  0  0  0  0  0  0  0
   38.3100   83.6500   63.0090 H   0  0  0  0  0  0  0  0  0  0  0  0
   40.9670   85.5850   58.3530 C   0  0  0  0  0  0  0  0  0  0  0  0
   42.2220   85.7440   58.9010 C   0  0  0  0  0  0  0  0  0  0  0  0
   42.5130   85.7030   59.9480 H   0  0  0  0  0  0  0  0  0  0  0  0
   43.1710   85.9800   57.9640 N   0  0  0  0  0  0  0  0  0  0  0  0
   44.1910   86.1350   58.1020 H   0  0  0  0  0  0  0  0  0  0  0  0
   42.5090   85.9710   56.7940 C   0  0  0  0  0  0  0  0  0  0  0  0
   42.9380   86.1260   55.7980 H   0  0  0  0  0  0  0  0  0  0  0  0
   41.2080   85.7360   57.0380 N   0  0  0  0  0  0  0  0  0  0  0  0
  1  5  1  0  0  0  0
  2  1  2  0  0  0  0
  3  8  1  0  0  0  0
  4  5  1  0  0  0  0
  4  3  2  0  0  0  0
  5  6  2  0  0  0  0
  6  7  1  0  0  0  0
  7 11  1  0  0  0  0
  8  7  2  0  0  0  0
  9  3  1  0  0  0  0
 10  4  1  0  0  0  0
 12 13  2  0  0  0  0
 12  1  1  0  0  0  0
 13 14  1  0  0  0  0
 15 16  1  0  0  0  0
 15 13  1  0  0  0  0
 17 19  2  0  0  0  0
 17 15  1  0  0  0  0
 18 17  1  0  0  0  0
 19 12  1  0  0  0  0
M  END
>  <minimizedAffinity>
-4.10536146

>  <minimizedRMSD>
0.579703569

$$$$
