
 OpenBabel03212521093D

 19 20  0  0  0  0  0  0  0  0999 V2000
   39.9240   85.0930   58.9930 C   0  0  0  0  0  0  0  0  0  0  0  0
   39.0980   85.9940   58.6380 O   0  0  0  0  0  0  0  0  0  0  0  0
   39.9950   81.9410   60.9240 C   0  0  0  0  0  0  0  0  0  0  0  0
   40.2350   82.8580   59.8990 C   0  0  0  0  0  0  0  0  0  0  0  0
   39.6980   84.1240   60.0260 C   0  0  0  0  0  0  0  0  0  0  0  0
   38.9680   84.4100   61.1370 N   0  0  0  0  0  0  0  0  0  0  0  0
   38.7450   83.5070   62.1250 C   0  0  0  0  0  0  0  0  0  0  0  0
   39.2680   82.2680   62.0040 N   0  0  0  0  0  0  0  0  0  0  0  0
   40.3910   80.9370   60.8770 H   0  0  0  0  0  0  0  0  0  0  0  0
   40.8280   82.5130   59.0680 H   0  0  0  0  0  0  0  0  0  0  0  0
   38.1470   83.8630   62.9540 H   0  0  0  0  0  0  0  0  0  0  0  0
   41.1630   85.1400   58.2290 C   0  0  0  0  0  0  0  0  0  0  0  0
   42.2400   85.9730   58.4420 C   0  0  0  0  0  0  0  0  0  0  0  0
   42.3650   86.7380   59.2050 H   0  0  0  0  0  0  0  0  0  0  0  0
   43.2400   85.7630   57.5520 N   0  0  0  0  0  0  0  0  0  0  0  0
   44.1590   86.2500   57.4850 H   0  0  0  0  0  0  0  0  0  0  0  0
   42.7920   84.7770   56.7570 C   0  0  0  0  0  0  0  0  0  0  0  0
   43.3230   84.3270   55.9100 H   0  0  0  0  0  0  0  0  0  0  0  0
   41.5630   84.4180   57.1670 N   0  0  0  0  0  0  0  0  0  0  0  0
  1  5  1  0  0  0  0
  2  1  2  0  0  0  0
  3  8  1  0  0  0  0
  4  5  1  0  0  0  0
  4  3  2  0  0  0  0
  5  6  2  0  0  0  0
  6  7  1  0  0  0  0
  7 11  1  0  0  0  0
  8  7  2  0  0  0  0
  9  3  1  0  0  0  0
 10  4  1  0  0  0  0
 12 13  2  0  0  0  0
 12  1  1  0  0  0  0
 13 14  1  0  0  0  0
 15 13  1  0  0  0  0
 16 15  1  0  0  0  0
 17 19  2  0  0  0  0
 17 15  1  0  0  0  0
 18 17  1  0  0  0  0
 19 12  1  0  0  0  0
M  END
>  <minimizedAffinity>
-4.39287472

>  <minimizedRMSD>
0.651747763

$$$$
