
 OpenBabel03212521093D

 19 20  0  0  0  0  0  0  0  0999 V2000
   39.9240   85.0940   58.9930 C   0  0  0  0  0  0  0  0  0  0  0  0
   39.0980   85.9940   58.6370 O   0  0  0  0  0  0  0  0  0  0  0  0
   39.9960   81.9420   60.9250 C   0  0  0  0  0  0  0  0  0  0  0  0
   40.2350   82.8590   59.9000 C   0  0  0  0  0  0  0  0  0  0  0  0
   39.6980   84.1240   60.0270 C   0  0  0  0  0  0  0  0  0  0  0  0
   38.9670   84.4110   61.1370 N   0  0  0  0  0  0  0  0  0  0  0  0
   38.7450   83.5080   62.1250 C   0  0  0  0  0  0  0  0  0  0  0  0
   39.2680   82.2690   62.0050 N   0  0  0  0  0  0  0  0  0  0  0  0
   40.3920   80.9380   60.8780 H   0  0  0  0  0  0  0  0  0  0  0  0
   40.8300   82.5130   59.0700 H   0  0  0  0  0  0  0  0  0  0  0  0
   38.1460   83.8630   62.9530 H   0  0  0  0  0  0  0  0  0  0  0  0
   41.1630   85.1400   58.2300 C   0  0  0  0  0  0  0  0  0  0  0  0
   42.2410   85.9740   58.4420 C   0  0  0  0  0  0  0  0  0  0  0  0
   42.3650   86.7380   59.2050 H   0  0  0  0  0  0  0  0  0  0  0  0
   43.2410   85.7630   57.5520 N   0  0  0  0  0  0  0  0  0  0  0  0
   44.1590   86.2490   57.4860 H   0  0  0  0  0  0  0  0  0  0  0  0
   42.7930   84.7770   56.7570 C   0  0  0  0  0  0  0  0  0  0  0  0
   43.3240   84.3260   55.9110 H   0  0  0  0  0  0  0  0  0  0  0  0
   41.5640   84.4170   57.1670 N   0  0  0  0  0  0  0  0  0  0  0  0
  1  5  1  0  0  0  0
  2  1  2  0  0  0  0
  3  8  1  0  0  0  0
  4  5  1  0  0  0  0
  4  3  2  0  0  0  0
  5  6  2  0  0  0  0
  6  7  1  0  0  0  0
  7 11  1  0  0  0  0
  8  7  2  0  0  0  0
  9  3  1  0  0  0  0
 10  4  1  0  0  0  0
 12 13  2  0  0  0  0
 12  1  1  0  0  0  0
 13 14  1  0  0  0  0
 15 13  1  0  0  0  0
 16 15  1  0  0  0  0
 17 19  2  0  0  0  0
 17 15  1  0  0  0  0
 18 17  1  0  0  0  0
 19 12  1  0  0  0  0
M  END
>  <minimizedAffinity>
-4.39282322

>  <minimizedRMSD>
0.663996696

$$$$
