
 OpenBabel03212521093D

 19 20  0  0  0  0  0  0  0  0999 V2000
   39.6880   85.0670   58.9940 C   0  0  0  0  0  0  0  0  0  0  0  0
   38.9310   86.0780   58.8320 O   0  0  0  0  0  0  0  0  0  0  0  0
   39.9630   81.9250   60.9220 C   0  0  0  0  0  0  0  0  0  0  0  0
   40.1030   82.8400   59.8770 C   0  0  0  0  0  0  0  0  0  0  0  0
   39.5630   84.0990   60.0450 C   0  0  0  0  0  0  0  0  0  0  0  0
   38.9250   84.3820   61.2130 N   0  0  0  0  0  0  0  0  0  0  0  0
   38.7990   83.4800   62.2190 C   0  0  0  0  0  0  0  0  0  0  0  0
   39.3250   82.2470   62.0580 N   0  0  0  0  0  0  0  0  0  0  0  0
   40.3650   80.9250   60.8440 H   0  0  0  0  0  0  0  0  0  0  0  0
   40.6280   82.4980   59.0000 H   0  0  0  0  0  0  0  0  0  0  0  0
   38.2690   83.8320   63.0940 H   0  0  0  0  0  0  0  0  0  0  0  0
   40.7290   84.9810   57.9790 C   0  0  0  0  0  0  0  0  0  0  0  0
   41.5140   83.8860   57.6830 C   0  0  0  0  0  0  0  0  0  0  0  0
   41.5020   82.9010   58.1430 H   0  0  0  0  0  0  0  0  0  0  0  0
   42.3900   84.1360   56.6810 N   0  0  0  0  0  0  0  0  0  0  0  0
   43.0940   83.4900   56.2620 H   0  0  0  0  0  0  0  0  0  0  0  0
   42.1620   85.4120   56.3310 C   0  0  0  0  0  0  0  0  0  0  0  0
   42.6790   85.9790   55.5490 H   0  0  0  0  0  0  0  0  0  0  0  0
   41.1780   85.9010   57.1060 N   0  0  0  0  0  0  0  0  0  0  0  0
  1  5  1  0  0  0  0
  2  1  2  0  0  0  0
  3  8  1  0  0  0  0
  4  5  1  0  0  0  0
  4  3  2  0  0  0  0
  5  6  2  0  0  0  0
  6  7  1  0  0  0  0
  7 11  1  0  0  0  0
  8  7  2  0  0  0  0
  9  3  1  0  0  0  0
 10  4  1  0  0  0  0
 12  1  1  0  0  0  0
 13 12  2  0  0  0  0
 13 14  1  0  0  0  0
 15 13  1  0  0  0  0
 16 15  1  0  0  0  0
 17 15  1  0  0  0  0
 17 19  2  0  0  0  0
 18 17  1  0  0  0  0
 19 12  1  0  0  0  0
M  END
>  <minimizedAffinity>
-4.15253258

>  <minimizedRMSD>
0.504842997

$$$$
