
 OpenBabel03212520573D

 41 45  0  0  1  0  0  0  0  0999 V2000
   39.6420   77.1470   59.1680 C   0  0  0  0  0  0  0  0  0  0  0  0
   40.2650   75.9620   58.9390 C   0  0  0  0  0  0  0  0  0  0  0  0
   39.6780   75.2450   57.8830 C   0  0  0  0  0  0  0  0  0  0  0  0
   38.6170   75.6760   57.1740 N   0  0  0  0  0  0  0  0  0  0  0  0
   38.0690   76.8860   57.4910 C   0  0  0  0  0  0  0  0  0  0  0  0
   38.5830   77.6290   58.4960 N   0  0  0  0  0  0  0  0  0  0  0  0
   41.1010   75.5700   59.4630 H   0  0  0  0  0  0  0  0  0  0  0  0
   40.0530   74.2780   57.5700 H   0  0  0  0  0  0  0  0  0  0  0  0
   40.9640   80.1150   61.6350 C   0  0  0  0  0  0  0  0  0  0  0  0
   40.9450   78.8880   62.2640 C   0  0  0  0  0  0  0  0  0  0  0  0
   40.5240   77.8280   61.5410 C   0  0  0  0  0  0  0  0  0  0  0  0
   40.1360   78.0030   60.2290 C   0  0  0  0  0  0  0  0  0  0  0  0
   40.3690   79.8040   59.9470 S   0  0  0  0  0  0  0  0  0  0  0  0
   41.2530   78.7550   63.3000 H   0  0  0  0  0  0  0  0  0  0  0  0
   40.4360   76.7950   61.8510 H   0  0  0  0  0  0  0  0  0  0  0  0
   43.1100   82.8890   62.7030 C   0  0  0  0  0  0  0  0  0  0  0  0
   42.2440   83.6900   63.4900 C   0  0  0  0  0  0  0  0  0  0  0  0
   40.9100   83.2630   63.6430 C   0  0  0  0  0  0  0  0  0  0  0  0
   40.5300   82.1220   63.0390 N   0  0  0  0  0  0  0  0  0  0  0  0
   41.3960   81.3780   62.2890 C   0  0  0  0  0  0  0  0  0  0  0  0
   42.6610   81.7670   62.1310 N   0  0  0  0  0  0  0  0  0  0  0  0
   44.1350   83.1450   62.5370 H   0  0  0  0  0  0  0  0  0  0  0  0
   42.6340   84.5750   63.9280 H   0  0  0  0  0  0  0  0  0  0  0  0
   40.2420   83.8530   64.2330 H   0  0  0  0  0  0  0  0  0  0  0  0
   36.9290   77.3340   56.7080 C   0  0  0  0  0  0  0  0  0  0  0  0
   35.8020   77.1410   57.1860 O   0  0  0  0  0  0  0  0  0  0  0  0
   37.0930   77.9980   55.3600 C   0  0  1  0  0  0  0  0  0  0  0  0
   37.4220   79.4670   55.4710 C   0  0  0  0  0  0  0  0  0  0  0  0
   38.3870   78.4970   54.9510 C   0  0  2  0  0  0  0  0  0  0  0  0
   36.2140   77.8640   54.6940 H   0  0  0  0  0  0  0  0  0  0  0  0
   37.5230   79.9050   56.4990 H   0  0  0  0  0  0  0  0  0  0  0  0
   36.8510   80.1490   54.8160 H   0  0  0  0  0  0  0  0  0  0  0  0
   39.2310   78.2580   55.6630 H   0  0  0  0  0  0  0  0  0  0  0  0
   38.8210   78.5170   53.5240 C   0  0  0  0  0  0  0  0  0  0  0  0
   38.9970   79.6730   52.7800 C   0  0  0  0  0  0  0  0  0  0  0  0
   38.8580   80.6970   53.0830 H   0  0  0  0  0  0  0  0  0  0  0  0
   39.3890   79.2430   51.5580 N   0  0  0  0  0  0  0  0  0  0  0  0
   39.5940   79.9140   50.7870 H   0  0  0  0  0  0  0  0  0  0  0  0
   39.4650   77.8860   51.5090 C   0  0  0  0  0  0  0  0  0  0  0  0
   39.7620   77.3540   50.6120 H   0  0  0  0  0  0  0  0  0  0  0  0
   39.1050   77.4520   52.7520 N   0  0  0  0  0  0  0  0  0  0  0  0
  1 12  1  0  0  0  0
  2  1  1  0  0  0  0
  2  7  1  0  0  0  0
  3  2  2  0  0  0  0
  4  5  2  0  0  0  0
  4  3  1  0  0  0  0
  5  6  1  0  0  0  0
  6  1  2  0  0  0  0
  8  3  1  0  0  0  0
  9 10  2  0  0  0  0
  9 20  1  0  0  0  0
 10 14  1  0  0  0  0
 11 15  1  0  0  0  0
 11 10  1  0  0  0  0
 12 11  2  0  0  0  0
 13 12  1  0  0  0  0
 13  9  1  0  0  0  0
 16 17  1  0  0  0  0
 17 18  2  0  0  0  0
 17 23  1  0  0  0  0
 18 24  1  0  0  0  0
 19 18  1  0  0  0  0
 20 19  2  0  0  0  0
 21 20  1  0  0  0  0
 21 16  2  0  0  0  0
 22 16  1  0  0  0  0
 25 26  2  0  0  0  0
 25  5  1  0  0  0  0
 27 30  1  6  0  0  0
 27 28  1  0  0  0  0
 27 25  1  0  0  0  0
 28 31  1  0  0  0  0
 29 27  1  0  0  0  0
 29 28  1  0  0  0  0
 29 33  1  1  0  0  0
 32 28  1  0  0  0  0
 34 29  1  0  0  0  0
 35 36  1  0  0  0  0
 35 34  2  0  0  0  0
 37 35  1  0  0  0  0
 38 37  1  0  0  0  0
 39 37  1  0  0  0  0
 39 41  2  0  0  0  0
 40 39  1  0  0  0  0
 41 34  1  0  0  0  0
M  END
>  <minimizedAffinity>
-6.15064096

>  <minimizedRMSD>
0.698261082

$$$$
