
 OpenBabel03212520583D

 41 45  0  0  1  0  0  0  0  0999 V2000
   39.8040   77.4120   59.1740 C   0  0  0  0  0  0  0  0  0  0  0  0
   40.4960   76.2750   58.9050 C   0  0  0  0  0  0  0  0  0  0  0  0
   39.9570   75.5650   57.8190 C   0  0  0  0  0  0  0  0  0  0  0  0
   38.8770   75.9600   57.1190 N   0  0  0  0  0  0  0  0  0  0  0  0
   38.2570   77.1240   57.4770 C   0  0  0  0  0  0  0  0  0  0  0  0
   38.7230   77.8570   58.5120 N   0  0  0  0  0  0  0  0  0  0  0  0
   41.3510   75.9120   59.4200 H   0  0  0  0  0  0  0  0  0  0  0  0
   40.3890   74.6340   57.4730 H   0  0  0  0  0  0  0  0  0  0  0  0
   40.9790   80.3520   61.7480 C   0  0  0  0  0  0  0  0  0  0  0  0
   40.9590   79.1120   62.3510 C   0  0  0  0  0  0  0  0  0  0  0  0
   40.5840   78.0600   61.5910 C   0  0  0  0  0  0  0  0  0  0  0  0
   40.2420   78.2550   60.2700 C   0  0  0  0  0  0  0  0  0  0  0  0
   40.4530   80.0650   60.0320 S   0  0  0  0  0  0  0  0  0  0  0  0
   41.2300   78.9630   63.3940 H   0  0  0  0  0  0  0  0  0  0  0  0
   40.5050   77.0190   61.8770 H   0  0  0  0  0  0  0  0  0  0  0  0
   43.0240   83.1570   62.9250 C   0  0  0  0  0  0  0  0  0  0  0  0
   42.1220   83.9110   63.7190 C   0  0  0  0  0  0  0  0  0  0  0  0
   40.8000   83.4410   63.8390 C   0  0  0  0  0  0  0  0  0  0  0  0
   40.4640   82.3060   63.1970 N   0  0  0  0  0  0  0  0  0  0  0  0
   41.3630   81.6080   62.4420 C   0  0  0  0  0  0  0  0  0  0  0  0
   42.6180   82.0380   62.3160 N   0  0  0  0  0  0  0  0  0  0  0  0
   44.0440   83.4470   62.7840 H   0  0  0  0  0  0  0  0  0  0  0  0
   42.4790   84.7940   64.1880 H   0  0  0  0  0  0  0  0  0  0  0  0
   40.1050   83.9940   64.4330 H   0  0  0  0  0  0  0  0  0  0  0  0
   37.0980   77.5350   56.7030 C   0  0  0  0  0  0  0  0  0  0  0  0
   35.9970   77.0820   57.0470 O   0  0  0  0  0  0  0  0  0  0  0  0
   37.2130   78.4650   55.5180 C   0  0  1  0  0  0  0  0  0  0  0  0
   37.2970   79.9170   55.9220 C   0  0  0  0  0  0  0  0  0  0  0  0
   38.4280   79.2210   55.3050 C   0  0  2  0  0  0  0  0  0  0  0  0
   36.3960   78.3350   54.7750 H   0  0  0  0  0  0  0  0  0  0  0  0
   37.2820   80.1560   57.0190 H   0  0  0  0  0  0  0  0  0  0  0  0
   36.6550   80.6210   55.3650 H   0  0  0  0  0  0  0  0  0  0  0  0
   39.2660   78.9750   56.0210 H   0  0  0  0  0  0  0  0  0  0  0  0
   38.9150   79.5820   53.9420 C   0  0  0  0  0  0  0  0  0  0  0  0
   40.2390   79.8610   53.6390 C   0  0  0  0  0  0  0  0  0  0  0  0
   41.0950   79.8670   54.2930 H   0  0  0  0  0  0  0  0  0  0  0  0
   40.2400   80.1350   52.3120 N   0  0  0  0  0  0  0  0  0  0  0  0
   41.1200   80.3830   51.8110 H   0  0  0  0  0  0  0  0  0  0  0  0
   38.9920   80.0390   51.7850 C   0  0  0  0  0  0  0  0  0  0  0  0
   38.7910   80.2230   50.7350 H   0  0  0  0  0  0  0  0  0  0  0  0
   38.1770   79.6910   52.8230 N   0  0  0  0  0  0  0  0  0  0  0  0
  1 12  1  0  0  0  0
  2  1  1  0  0  0  0
  2  7  1  0  0  0  0
  3  2  2  0  0  0  0
  4  5  2  0  0  0  0
  4  3  1  0  0  0  0
  5  6  1  0  0  0  0
  6  1  2  0  0  0  0
  8  3  1  0  0  0  0
  9 10  2  0  0  0  0
  9 20  1  0  0  0  0
 10 14  1  0  0  0  0
 11 15  1  0  0  0  0
 11 10  1  0  0  0  0
 12 11  2  0  0  0  0
 13 12  1  0  0  0  0
 13  9  1  0  0  0  0
 16 17  1  0  0  0  0
 17 18  2  0  0  0  0
 17 23  1  0  0  0  0
 18 24  1  0  0  0  0
 19 18  1  0  0  0  0
 20 19  2  0  0  0  0
 21 20  1  0  0  0  0
 21 16  2  0  0  0  0
 22 16  1  0  0  0  0
 25 26  2  0  0  0  0
 25  5  1  0  0  0  0
 27 30  1  6  0  0  0
 27 28  1  0  0  0  0
 27 25  1  0  0  0  0
 28 31  1  0  0  0  0
 29 27  1  0  0  0  0
 29 28  1  0  0  0  0
 29 33  1  1  0  0  0
 32 28  1  0  0  0  0
 34 29  1  0  0  0  0
 35 34  2  0  0  0  0
 35 36  1  0  0  0  0
 37 35  1  0  0  0  0
 38 37  1  0  0  0  0
 39 37  1  0  0  0  0
 39 41  2  0  0  0  0
 40 39  1  0  0  0  0
 41 34  1  0  0  0  0
M  END
>  <minimizedAffinity>
-6.27027941

>  <minimizedRMSD>
0.120401196

$$$$
