
 OpenBabel03212520583D

 41 45  0  0  1  0  0  0  0  0999 V2000
   39.7070   77.2160   59.2090 C   0  0  0  0  0  0  0  0  0  0  0  0
   40.3560   76.0470   58.9790 C   0  0  0  0  0  0  0  0  0  0  0  0
   39.7930   75.3230   57.9150 C   0  0  0  0  0  0  0  0  0  0  0  0
   38.7300   75.7350   57.1980 N   0  0  0  0  0  0  0  0  0  0  0  0
   38.1540   76.9320   57.5170 C   0  0  0  0  0  0  0  0  0  0  0  0
   38.6440   77.6800   58.5300 N   0  0  0  0  0  0  0  0  0  0  0  0
   41.1960   75.6690   59.5080 H   0  0  0  0  0  0  0  0  0  0  0  0
   40.1910   74.3650   57.6000 H   0  0  0  0  0  0  0  0  0  0  0  0
   40.9660   80.1950   61.6960 C   0  0  0  0  0  0  0  0  0  0  0  0
   40.9310   78.9710   62.3300 C   0  0  0  0  0  0  0  0  0  0  0  0
   40.5280   77.9080   61.6010 C   0  0  0  0  0  0  0  0  0  0  0  0
   40.1740   78.0780   60.2790 C   0  0  0  0  0  0  0  0  0  0  0  0
   40.4140   79.8780   59.9950 S   0  0  0  0  0  0  0  0  0  0  0  0
   41.2120   78.8430   63.3730 H   0  0  0  0  0  0  0  0  0  0  0  0
   40.4330   76.8760   61.9120 H   0  0  0  0  0  0  0  0  0  0  0  0
   43.0740   82.9950   62.7710 C   0  0  0  0  0  0  0  0  0  0  0  0
   42.1990   83.7790   63.5660 C   0  0  0  0  0  0  0  0  0  0  0  0
   40.8730   83.3310   63.7230 C   0  0  0  0  0  0  0  0  0  0  0  0
   40.5080   82.1870   63.1130 N   0  0  0  0  0  0  0  0  0  0  0  0
   41.3820   81.4610   62.3550 C   0  0  0  0  0  0  0  0  0  0  0  0
   42.6400   81.8700   62.1950 N   0  0  0  0  0  0  0  0  0  0  0  0
   44.0950   83.2680   62.6030 H   0  0  0  0  0  0  0  0  0  0  0  0
   42.5770   84.6670   64.0080 H   0  0  0  0  0  0  0  0  0  0  0  0
   40.1980   83.9070   64.3190 H   0  0  0  0  0  0  0  0  0  0  0  0
   37.0120   77.3600   56.7270 C   0  0  0  0  0  0  0  0  0  0  0  0
   35.8850   77.1490   57.1980 O   0  0  0  0  0  0  0  0  0  0  0  0
   37.1730   78.0250   55.3800 C   0  0  1  0  0  0  0  0  0  0  0  0
   37.4360   79.5080   55.4900 C   0  0  0  0  0  0  0  0  0  0  0  0
   38.4520   78.5780   54.9930 C   0  0  2  0  0  0  0  0  0  0  0  0
   36.3130   77.8520   54.6970 H   0  0  0  0  0  0  0  0  0  0  0  0
   37.4980   79.9530   56.5170 H   0  0  0  0  0  0  0  0  0  0  0  0
   36.8490   80.1630   54.8210 H   0  0  0  0  0  0  0  0  0  0  0  0
   39.2910   78.3780   55.7220 H   0  0  0  0  0  0  0  0  0  0  0  0
   38.9120   78.6120   53.5740 C   0  0  0  0  0  0  0  0  0  0  0  0
   39.4280   79.7370   52.9500 C   0  0  0  0  0  0  0  0  0  0  0  0
   39.5780   80.7230   53.3540 H   0  0  0  0  0  0  0  0  0  0  0  0
   39.7150   79.3320   51.6900 N   0  0  0  0  0  0  0  0  0  0  0  0
   40.1230   79.9890   50.9890 H   0  0  0  0  0  0  0  0  0  0  0  0
   39.4040   78.0230   51.5050 C   0  0  0  0  0  0  0  0  0  0  0  0
   39.5630   77.5170   50.5590 H   0  0  0  0  0  0  0  0  0  0  0  0
   38.9030   77.5900   52.6990 N   0  0  0  0  0  0  0  0  0  0  0  0
  1 12  1  0  0  0  0
  2  1  1  0  0  0  0
  2  7  1  0  0  0  0
  3  2  2  0  0  0  0
  4  5  2  0  0  0  0
  4  3  1  0  0  0  0
  5  6  1  0  0  0  0
  6  1  2  0  0  0  0
  8  3  1  0  0  0  0
  9 10  2  0  0  0  0
  9 20  1  0  0  0  0
 10 14  1  0  0  0  0
 11 15  1  0  0  0  0
 11 10  1  0  0  0  0
 12 11  2  0  0  0  0
 13 12  1  0  0  0  0
 13  9  1  0  0  0  0
 16 17  1  0  0  0  0
 17 18  2  0  0  0  0
 17 23  1  0  0  0  0
 18 24  1  0  0  0  0
 19 18  1  0  0  0  0
 20 19  2  0  0  0  0
 21 20  1  0  0  0  0
 21 16  2  0  0  0  0
 22 16  1  0  0  0  0
 25 26  2  0  0  0  0
 25  5  1  0  0  0  0
 27 30  1  6  0  0  0
 27 28  1  0  0  0  0
 27 25  1  0  0  0  0
 28 31  1  0  0  0  0
 29 27  1  0  0  0  0
 29 28  1  0  0  0  0
 29 33  1  1  0  0  0
 32 28  1  0  0  0  0
 34 29  1  0  0  0  0
 35 36  1  0  0  0  0
 35 34  2  0  0  0  0
 37 35  1  0  0  0  0
 38 37  1  0  0  0  0
 39 37  1  0  0  0  0
 39 41  2  0  0  0  0
 40 39  1  0  0  0  0
 41 34  1  0  0  0  0
M  END
>  <minimizedAffinity>
-6.15951347

>  <minimizedRMSD>
0.615370095

$$$$
