
 OpenBabel03212521093D

 19 20  0  0  0  0  0  0  0  0999 V2000
   39.8200   84.9080   58.9160 C   0  0  0  0  0  0  0  0  0  0  0  0
   39.1340   85.9610   58.7140 O   0  0  0  0  0  0  0  0  0  0  0  0
   40.0470   81.9130   61.0720 C   0  0  0  0  0  0  0  0  0  0  0  0
   40.2260   82.7570   59.9740 C   0  0  0  0  0  0  0  0  0  0  0  0
   39.6560   84.0130   60.0250 C   0  0  0  0  0  0  0  0  0  0  0  0
   38.9540   84.3620   61.1360 N   0  0  0  0  0  0  0  0  0  0  0  0
   38.7900   83.5300   62.1950 C   0  0  0  0  0  0  0  0  0  0  0  0
   39.3450   82.3000   62.1490 N   0  0  0  0  0  0  0  0  0  0  0  0
   40.4710   80.9190   61.0860 H   0  0  0  0  0  0  0  0  0  0  0  0
   40.8030   82.3660   59.1510 H   0  0  0  0  0  0  0  0  0  0  0  0
   38.2080   83.9310   63.0150 H   0  0  0  0  0  0  0  0  0  0  0  0
   40.8220   84.6880   57.8820 C   0  0  0  0  0  0  0  0  0  0  0  0
   41.4450   85.6470   57.1110 C   0  0  0  0  0  0  0  0  0  0  0  0
   41.3080   86.7260   57.1300 H   0  0  0  0  0  0  0  0  0  0  0  0
   42.3310   85.1100   56.2370 N   0  0  0  0  0  0  0  0  0  0  0  0
   42.9330   85.6040   55.5440 H   0  0  0  0  0  0  0  0  0  0  0  0
   42.2720   83.7860   56.4540 C   0  0  0  0  0  0  0  0  0  0  0  0
   42.8480   83.0110   55.9360 H   0  0  0  0  0  0  0  0  0  0  0  0
   41.3760   83.5490   57.4280 N   0  0  0  0  0  0  0  0  0  0  0  0
  1  5  1  0  0  0  0
  2  1  2  0  0  0  0
  3  9  1  0  0  0  0
  3  8  1  0  0  0  0
  4  5  1  0  0  0  0
  4  3  2  0  0  0  0
  5  6  2  0  0  0  0
  6  7  1  0  0  0  0
  7 11  1  0  0  0  0
  8  7  2  0  0  0  0
 10  4  1  0  0  0  0
 12  1  1  0  0  0  0
 13 14  1  0  0  0  0
 13 12  2  0  0  0  0
 15 17  1  0  0  0  0
 15 13  1  0  0  0  0
 16 15  1  0  0  0  0
 17 19  2  0  0  0  0
 18 17  1  0  0  0  0
 19 12  1  0  0  0  0
M  END
>  <minimizedAffinity>
-4.30328465

>  <minimizedRMSD>
0.795119166

$$$$
