
 OpenBabel03212521093D

 19 20  0  0  0  0  0  0  0  0999 V2000
   39.7000   85.3000   58.9780 C   0  0  0  0  0  0  0  0  0  0  0  0
   38.7820   86.1310   58.6820 O   0  0  0  0  0  0  0  0  0  0  0  0
   39.9970   82.0190   60.6560 C   0  0  0  0  0  0  0  0  0  0  0  0
   40.1270   83.0130   59.6840 C   0  0  0  0  0  0  0  0  0  0  0  0
   39.5850   84.2540   59.9530 C   0  0  0  0  0  0  0  0  0  0  0  0
   38.9580   84.4430   61.1440 N   0  0  0  0  0  0  0  0  0  0  0  0
   38.8420   83.4660   62.0790 C   0  0  0  0  0  0  0  0  0  0  0  0
   39.3700   82.2510   61.8190 N   0  0  0  0  0  0  0  0  0  0  0  0
   40.4020   81.0290   60.4980 H   0  0  0  0  0  0  0  0  0  0  0  0
   40.6450   82.7410   58.7790 H   0  0  0  0  0  0  0  0  0  0  0  0
   38.3190   83.7480   62.9830 H   0  0  0  0  0  0  0  0  0  0  0  0
   40.9180   85.5170   58.2110 C   0  0  0  0  0  0  0  0  0  0  0  0
   41.6150   84.5820   57.4740 C   0  0  0  0  0  0  0  0  0  0  0  0
   41.3900   83.5280   57.3320 H   0  0  0  0  0  0  0  0  0  0  0  0
   42.7110   85.1090   56.8750 N   0  0  0  0  0  0  0  0  0  0  0  0
   43.4070   84.6280   56.2670 H   0  0  0  0  0  0  0  0  0  0  0  0
   42.7130   86.4020   57.2360 C   0  0  0  0  0  0  0  0  0  0  0  0
   43.4490   87.1600   56.9480 H   0  0  0  0  0  0  0  0  0  0  0  0
   41.6490   86.6320   58.0260 N   0  0  0  0  0  0  0  0  0  0  0  0
  1  5  1  0  0  0  0
  2  1  2  0  0  0  0
  3  8  1  0  0  0  0
  4  5  1  0  0  0  0
  4  3  2  0  0  0  0
  5  6  2  0  0  0  0
  6  7  1  0  0  0  0
  7 11  1  0  0  0  0
  8  7  2  0  0  0  0
  9  3  1  0  0  0  0
 10  4  1  0  0  0  0
 12  1  1  0  0  0  0
 13 12  2  0  0  0  0
 14 13  1  0  0  0  0
 15 17  1  0  0  0  0
 15 13  1  0  0  0  0
 16 15  1  0  0  0  0
 17 19  2  0  0  0  0
 18 17  1  0  0  0  0
 19 12  1  0  0  0  0
M  END
>  <minimizedAffinity>
-3.93447399

>  <minimizedRMSD>
0.387459457

$$$$
