
 OpenBabel03212521093D

 19 20  0  0  0  0  0  0  0  0999 V2000
   39.7830   85.2750   59.0520 C   0  0  0  0  0  0  0  0  0  0  0  0
   38.8860   86.1250   58.7460 O   0  0  0  0  0  0  0  0  0  0  0  0
   39.9890   81.9650   60.6860 C   0  0  0  0  0  0  0  0  0  0  0  0
   40.1590   82.9720   59.7330 C   0  0  0  0  0  0  0  0  0  0  0  0
   39.6270   84.2160   60.0070 C   0  0  0  0  0  0  0  0  0  0  0  0
   38.9700   84.3960   61.1840 N   0  0  0  0  0  0  0  0  0  0  0  0
   38.8150   83.4070   62.0990 C   0  0  0  0  0  0  0  0  0  0  0  0
   39.3330   82.1880   61.8350 N   0  0  0  0  0  0  0  0  0  0  0  0
   40.3840   80.9720   60.5240 H   0  0  0  0  0  0  0  0  0  0  0  0
   40.6980   82.7070   58.8390 H   0  0  0  0  0  0  0  0  0  0  0  0
   38.2710   83.6820   62.9930 H   0  0  0  0  0  0  0  0  0  0  0  0
   41.0230   85.4850   58.3200 C   0  0  0  0  0  0  0  0  0  0  0  0
   42.2410   85.8690   58.8390 C   0  0  0  0  0  0  0  0  0  0  0  0
   42.4990   86.0850   59.8730 H   0  0  0  0  0  0  0  0  0  0  0  0
   43.1990   85.9750   57.8860 N   0  0  0  0  0  0  0  0  0  0  0  0
   44.1990   86.2440   58.0020 H   0  0  0  0  0  0  0  0  0  0  0  0
   42.5810   85.6510   56.7390 C   0  0  0  0  0  0  0  0  0  0  0  0
   43.0310   85.6200   55.7390 H   0  0  0  0  0  0  0  0  0  0  0  0
   41.2950   85.3640   57.0070 N   0  0  0  0  0  0  0  0  0  0  0  0
  1  5  1  0  0  0  0
  2  1  2  0  0  0  0
  3  8  1  0  0  0  0
  4  5  1  0  0  0  0
  4  3  2  0  0  0  0
  5  6  2  0  0  0  0
  6  7  1  0  0  0  0
  7 11  1  0  0  0  0
  8  7  2  0  0  0  0
  9  3  1  0  0  0  0
 10  4  1  0  0  0  0
 12 13  2  0  0  0  0
 12  1  1  0  0  0  0
 13 14  1  0  0  0  0
 15 16  1  0  0  0  0
 15 13  1  0  0  0  0
 17 19  2  0  0  0  0
 17 15  1  0  0  0  0
 18 17  1  0  0  0  0
 19 12  1  0  0  0  0
M  END
>  <minimizedAffinity>
-4.09629536

>  <minimizedRMSD>
0.520581424

$$$$
