
 OpenBabel03212520293D

 27 29  0  0  0  0  0  0  0  0999 V2000
   41.4830   82.6020   57.4380 C   0  0  0  0  0  0  0  0  0  0  0  0
   41.5350   82.5140   58.8380 C   0  0  0  0  0  0  0  0  0  0  0  0
   40.7080   81.5820   59.4840 C   0  0  0  0  0  0  0  0  0  0  0  0
   39.8970   80.8110   58.7030 N   0  0  0  0  0  0  0  0  0  0  0  0
   39.8770   80.9260   57.3720 C   0  0  0  0  0  0  0  0  0  0  0  0
   40.6640   81.8150   56.7400 N   0  0  0  0  0  0  0  0  0  0  0  0
   42.1400   83.3370   56.9900 H   0  0  0  0  0  0  0  0  0  0  0  0
   40.7280   81.4930   60.5500 H   0  0  0  0  0  0  0  0  0  0  0  0
   42.4200   83.3650   59.5800 N   0  0  0  0  0  0  0  0  0  0  0  0
   43.6530   82.8910   59.7020 C   0  0  0  0  0  0  0  0  0  0  0  0
   44.5820   83.6590   60.4120 C   0  0  0  0  0  0  0  0  0  0  0  0
   44.1910   84.8810   60.9600 C   0  0  0  0  0  0  0  0  0  0  0  0
   44.9510   85.6390   61.6110 O   0  0  0  0  0  0  0  0  0  0  0  0
   42.9090   85.2900   60.7870 N   0  0  0  0  0  0  0  0  0  0  0  0
   42.0060   84.5410   60.0960 C   0  0  0  0  0  0  0  0  0  0  0  0
   40.8170   84.9270   59.9390 O   0  0  0  0  0  0  0  0  0  0  0  0
   43.9860   81.9450   59.2880 H   0  0  0  0  0  0  0  0  0  0  0  0
   45.5970   83.3410   60.5530 H   0  0  0  0  0  0  0  0  0  0  0  0
   42.5660   86.2020   61.1800 H   0  0  0  0  0  0  0  0  0  0  0  0
   39.0270   80.1260   56.4940 C   0  0  0  0  0  0  0  0  0  0  0  0
   37.7000   80.1360   56.1140 C   0  0  0  0  0  0  0  0  0  0  0  0
   37.0590   80.8920   56.5230 H   0  0  0  0  0  0  0  0  0  0  0  0
   37.5500   79.0920   55.2480 N   0  0  0  0  0  0  0  0  0  0  0  0
   36.5820   78.9410   54.8470 H   0  0  0  0  0  0  0  0  0  0  0  0
   38.7260   78.4540   55.0890 C   0  0  0  0  0  0  0  0  0  0  0  0
   38.8250   77.5870   54.4360 H   0  0  0  0  0  0  0  0  0  0  0  0
   39.6540   79.0900   55.8610 N   0  0  0  0  0  0  0  0  0  0  0  0
  1  2  1  0  0  0  0
  2  3  2  0  0  0  0
  2  9  1  0  0  0  0
  3  8  1  0  0  0  0
  4  3  1  0  0  0  0
  5  4  2  0  0  0  0
  6  5  1  0  0  0  0
  6  1  2  0  0  0  0
  7  1  1  0  0  0  0
  9 10  1  0  0  0  0
  9 15  1  0  0  0  0
 10 11  2  0  0  0  0
 11 18  1  0  0  0  0
 11 12  1  0  0  0  0
 12 13  2  0  0  0  0
 14 12  1  0  0  0  0
 14 19  1  0  0  0  0
 15 14  1  0  0  0  0
 16 15  2  0  0  0  0
 17 10  1  0  0  0  0
 20  5  1  0  0  0  0
 21 20  2  0  0  0  0
 21 22  1  0  0  0  0
 23 21  1  0  0  0  0
 24 23  1  0  0  0  0
 25 23  1  0  0  0  0
 25 27  2  0  0  0  0
 26 25  1  0  0  0  0
 27 20  1  0  0  0  0
M  END
>  <minimizedAffinity>
-4.05751705

>  <minimizedRMSD>
8.2737627

$$$$
