
 OpenBabel03212520293D

 27 29  0  0  0  0  0  0  0  0999 V2000
   39.6890   80.8880   60.8820 C   0  0  0  0  0  0  0  0  0  0  0  0
   40.5980   80.2460   60.0240 C   0  0  0  0  0  0  0  0  0  0  0  0
   41.9640   80.5420   60.1500 C   0  0  0  0  0  0  0  0  0  0  0  0
   42.3280   81.4440   61.1060 N   0  0  0  0  0  0  0  0  0  0  0  0
   41.4330   82.0340   61.9020 C   0  0  0  0  0  0  0  0  0  0  0  0
   40.1210   81.7600   61.7940 N   0  0  0  0  0  0  0  0  0  0  0  0
   38.6480   80.6250   60.7430 H   0  0  0  0  0  0  0  0  0  0  0  0
   42.6780   80.0660   59.5100 H   0  0  0  0  0  0  0  0  0  0  0  0
   40.1240   79.3090   59.0460 N   0  0  0  0  0  0  0  0  0  0  0  0
   40.0790   78.0540   59.4750 C   0  0  0  0  0  0  0  0  0  0  0  0
   39.6290   77.0750   58.5830 C   0  0  0  0  0  0  0  0  0  0  0  0
   39.2450   77.4400   57.2930 C   0  0  0  0  0  0  0  0  0  0  0  0
   38.8280   76.6350   56.4250 O   0  0  0  0  0  0  0  0  0  0  0  0
   39.3230   78.7480   56.9390 N   0  0  0  0  0  0  0  0  0  0  0  0
   39.7610   79.7000   57.8070 C   0  0  0  0  0  0  0  0  0  0  0  0
   39.8300   80.9120   57.4720 O   0  0  0  0  0  0  0  0  0  0  0  0
   40.3720   77.7390   60.4720 H   0  0  0  0  0  0  0  0  0  0  0  0
   39.5650   76.0390   58.8580 H   0  0  0  0  0  0  0  0  0  0  0  0
   39.0450   79.0740   55.9800 H   0  0  0  0  0  0  0  0  0  0  0  0
   41.7730   83.0050   62.9380 C   0  0  0  0  0  0  0  0  0  0  0  0
   42.9340   83.4830   63.5130 C   0  0  0  0  0  0  0  0  0  0  0  0
   43.8710   83.0930   63.1670 H   0  0  0  0  0  0  0  0  0  0  0  0
   42.5420   84.3990   64.4440 N   0  0  0  0  0  0  0  0  0  0  0  0
   43.3090   84.8780   64.9940 H   0  0  0  0  0  0  0  0  0  0  0  0
   41.1990   84.4960   64.4580 C   0  0  0  0  0  0  0  0  0  0  0  0
   40.6780   85.1760   65.1320 H   0  0  0  0  0  0  0  0  0  0  0  0
   40.7090   83.6310   63.5230 N   0  0  0  0  0  0  0  0  0  0  0  0
  1  6  1  0  0  0  0
  2  3  1  0  0  0  0
  2  1  2  0  0  0  0
  3  4  2  0  0  0  0
  4  5  1  0  0  0  0
  5 20  1  0  0  0  0
  6  5  2  0  0  0  0
  7  1  1  0  0  0  0
  8  3  1  0  0  0  0
  9 10  1  0  0  0  0
  9  2  1  0  0  0  0
 10 17  1  0  0  0  0
 11 18  1  0  0  0  0
 11 10  2  0  0  0  0
 12 11  1  0  0  0  0
 13 12  2  0  0  0  0
 14 12  1  0  0  0  0
 14 15  1  0  0  0  0
 15  9  1  0  0  0  0
 16 15  2  0  0  0  0
 19 14  1  0  0  0  0
 20 21  2  0  0  0  0
 20 27  1  0  0  0  0
 21 23  1  0  0  0  0
 22 21  1  0  0  0  0
 23 25  1  0  0  0  0
 23 24  1  0  0  0  0
 25 26  1  0  0  0  0
 27 25  2  0  0  0  0
M  END
>  <minimizedAffinity>
-4.69704294

>  <minimizedRMSD>
4.3203702

$$$$
