
 OpenBabel03212520293D

 27 29  0  0  0  0  0  0  0  0999 V2000
   39.7660   80.7470   61.1070 C   0  0  0  0  0  0  0  0  0  0  0  0
   40.5950   80.2350   60.0950 C   0  0  0  0  0  0  0  0  0  0  0  0
   41.9300   80.6620   60.0410 C   0  0  0  0  0  0  0  0  0  0  0  0
   42.3450   81.5570   60.9840 N   0  0  0  0  0  0  0  0  0  0  0  0
   41.5250   82.0210   61.9300 C   0  0  0  0  0  0  0  0  0  0  0  0
   40.2420   81.6200   61.9940 N   0  0  0  0  0  0  0  0  0  0  0  0
   38.7450   80.3860   61.1030 H   0  0  0  0  0  0  0  0  0  0  0  0
   42.5850   80.2880   59.2810 H   0  0  0  0  0  0  0  0  0  0  0  0
   40.0740   79.2950   59.1450 N   0  0  0  0  0  0  0  0  0  0  0  0
   40.0430   78.0430   59.5820 C   0  0  0  0  0  0  0  0  0  0  0  0
   39.5480   77.0600   58.7170 C   0  0  0  0  0  0  0  0  0  0  0  0
   39.1080   77.4210   57.4430 C   0  0  0  0  0  0  0  0  0  0  0  0
   38.6490   76.6130   56.6000 O   0  0  0  0  0  0  0  0  0  0  0  0
   39.1750   78.7270   57.0790 N   0  0  0  0  0  0  0  0  0  0  0  0
   39.6570   79.6810   57.9210 C   0  0  0  0  0  0  0  0  0  0  0  0
   39.7160   80.8910   57.5760 O   0  0  0  0  0  0  0  0  0  0  0  0
   40.3780   77.7320   60.5660 H   0  0  0  0  0  0  0  0  0  0  0  0
   39.4930   76.0260   58.9990 H   0  0  0  0  0  0  0  0  0  0  0  0
   38.8560   79.0480   56.1310 H   0  0  0  0  0  0  0  0  0  0  0  0
   41.9190   82.9790   62.9590 C   0  0  0  0  0  0  0  0  0  0  0  0
   43.1030   83.5280   63.4070 C   0  0  0  0  0  0  0  0  0  0  0  0
   44.0160   83.2280   62.9300 H   0  0  0  0  0  0  0  0  0  0  0  0
   42.7640   84.3770   64.4200 N   0  0  0  0  0  0  0  0  0  0  0  0
   43.5570   84.8960   64.8920 H   0  0  0  0  0  0  0  0  0  0  0  0
   41.4300   84.3650   64.6030 C   0  0  0  0  0  0  0  0  0  0  0  0
   40.9490   84.9750   65.3680 H   0  0  0  0  0  0  0  0  0  0  0  0
   40.8930   83.4970   63.6980 N   0  0  0  0  0  0  0  0  0  0  0  0
  1  6  1  0  0  0  0
  2  1  2  0  0  0  0
  3  2  1  0  0  0  0
  3  4  2  0  0  0  0
  4  5  1  0  0  0  0
  5  6  2  0  0  0  0
  5 20  1  0  0  0  0
  7  1  1  0  0  0  0
  8  3  1  0  0  0  0
  9 10  1  0  0  0  0
  9  2  1  0  0  0  0
 10 17  1  0  0  0  0
 11 18  1  0  0  0  0
 11 10  2  0  0  0  0
 12 11  1  0  0  0  0
 13 12  2  0  0  0  0
 14 12  1  0  0  0  0
 14 15  1  0  0  0  0
 15  9  1  0  0  0  0
 16 15  2  0  0  0  0
 19 14  1  0  0  0  0
 20 21  2  0  0  0  0
 20 27  1  0  0  0  0
 21 23  1  0  0  0  0
 22 21  1  0  0  0  0
 23 25  1  0  0  0  0
 23 24  1  0  0  0  0
 25 26  1  0  0  0  0
 27 25  2  0  0  0  0
M  END
>  <minimizedAffinity>
-4.83525467

>  <minimizedRMSD>
4.35556555

$$$$
