
 OpenBabel03212520293D

 27 29  0  0  0  0  0  0  0  0999 V2000
   41.0530   82.2490   58.0440 C   0  0  0  0  0  0  0  0  0  0  0  0
   41.8710   81.2990   58.6770 C   0  0  0  0  0  0  0  0  0  0  0  0
   43.1330   81.0270   58.1270 C   0  0  0  0  0  0  0  0  0  0  0  0
   43.4900   81.7090   57.0000 N   0  0  0  0  0  0  0  0  0  0  0  0
   42.6820   82.6050   56.4280 C   0  0  0  0  0  0  0  0  0  0  0  0
   41.4700   82.8760   56.9440 N   0  0  0  0  0  0  0  0  0  0  0  0
   40.0900   82.4210   58.5090 H   0  0  0  0  0  0  0  0  0  0  0  0
   43.7780   80.3080   58.5890 H   0  0  0  0  0  0  0  0  0  0  0  0
   41.4140   80.6300   59.8610 N   0  0  0  0  0  0  0  0  0  0  0  0
   41.7330   81.2480   60.9900 C   0  0  0  0  0  0  0  0  0  0  0  0
   41.3250   80.6610   62.1940 C   0  0  0  0  0  0  0  0  0  0  0  0
   40.6050   79.4670   62.1700 C   0  0  0  0  0  0  0  0  0  0  0  0
   40.1970   78.8680   63.1950 O   0  0  0  0  0  0  0  0  0  0  0  0
   40.3210   78.9040   60.9680 N   0  0  0  0  0  0  0  0  0  0  0  0
   40.7190   79.4750   59.7990 C   0  0  0  0  0  0  0  0  0  0  0  0
   40.4520   78.9470   58.6870 O   0  0  0  0  0  0  0  0  0  0  0  0
   42.2920   82.1760   61.0410 H   0  0  0  0  0  0  0  0  0  0  0  0
   41.5470   81.1020   63.1480 H   0  0  0  0  0  0  0  0  0  0  0  0
   39.7820   78.0060   60.8970 H   0  0  0  0  0  0  0  0  0  0  0  0
   43.0170   83.3590   55.2230 C   0  0  0  0  0  0  0  0  0  0  0  0
   42.4190   83.6030   54.0030 C   0  0  0  0  0  0  0  0  0  0  0  0
   41.4600   83.1650   53.8100 H   0  0  0  0  0  0  0  0  0  0  0  0
   43.2830   84.4040   53.3160 N   0  0  0  0  0  0  0  0  0  0  0  0
   42.9870   84.7000   52.3430 H   0  0  0  0  0  0  0  0  0  0  0  0
   44.3740   84.6540   54.0640 C   0  0  0  0  0  0  0  0  0  0  0  0
   45.1910   85.2770   53.6990 H   0  0  0  0  0  0  0  0  0  0  0  0
   44.2190   84.0070   55.2550 N   0  0  0  0  0  0  0  0  0  0  0  0
  1  7  1  0  0  0  0
  1  2  1  0  0  0  0
  2  9  1  0  0  0  0
  3  8  1  0  0  0  0
  3  2  2  0  0  0  0
  4  3  1  0  0  0  0
  5  6  1  0  0  0  0
  5  4  2  0  0  0  0
  6  1  2  0  0  0  0
  9 10  1  0  0  0  0
 10 17  1  0  0  0  0
 10 11  2  0  0  0  0
 11 18  1  0  0  0  0
 12 11  1  0  0  0  0
 12 13  2  0  0  0  0
 14 12  1  0  0  0  0
 15  9  1  0  0  0  0
 15 14  1  0  0  0  0
 16 15  2  0  0  0  0
 19 14  1  0  0  0  0
 20 27  1  0  0  0  0
 20  5  1  0  0  0  0
 21 20  2  0  0  0  0
 22 21  1  0  0  0  0
 23 21  1  0  0  0  0
 23 25  1  0  0  0  0
 24 23  1  0  0  0  0
 25 27  2  0  0  0  0
 26 25  1  0  0  0  0
M  END
>  <minimizedAffinity>
-3.24285674

>  <minimizedRMSD>
8.32271862

$$$$
