
 OpenBabel03212520303D

 27 29  0  0  0  0  0  0  0  0999 V2000
   39.1180   73.9560   57.8660 C   0  0  0  0  0  0  0  0  0  0  0  0
   39.5420   74.6840   58.9900 C   0  0  0  0  0  0  0  0  0  0  0  0
   39.2420   76.0520   59.0560 C   0  0  0  0  0  0  0  0  0  0  0  0
   38.5480   76.5970   58.0160 N   0  0  0  0  0  0  0  0  0  0  0  0
   38.1620   75.8710   56.9640 C   0  0  0  0  0  0  0  0  0  0  0  0
   38.4430   74.5580   56.8860 N   0  0  0  0  0  0  0  0  0  0  0  0
   39.3760   72.9050   57.8630 H   0  0  0  0  0  0  0  0  0  0  0  0
   39.5520   76.6310   59.9020 H   0  0  0  0  0  0  0  0  0  0  0  0
   40.2670   74.0270   60.0390 N   0  0  0  0  0  0  0  0  0  0  0  0
   41.5650   73.8930   59.8000 C   0  0  0  0  0  0  0  0  0  0  0  0
   42.3480   73.2620   60.7730 C   0  0  0  0  0  0  0  0  0  0  0  0
   41.7510   72.8030   61.9470 C   0  0  0  0  0  0  0  0  0  0  0  0
   42.3690   72.2270   62.8750 O   0  0  0  0  0  0  0  0  0  0  0  0
   40.4160   72.9820   62.1090 N   0  0  0  0  0  0  0  0  0  0  0  0
   39.6560   73.5960   61.1610 C   0  0  0  0  0  0  0  0  0  0  0  0
   38.4160   73.7590   61.3190 O   0  0  0  0  0  0  0  0  0  0  0  0
   42.0580   74.2390   58.8970 H   0  0  0  0  0  0  0  0  0  0  0  0
   43.4050   73.1170   60.6500 H   0  0  0  0  0  0  0  0  0  0  0  0
   39.9200   72.6540   62.9750 H   0  0  0  0  0  0  0  0  0  0  0  0
   37.4200   76.4070   55.8260 C   0  0  0  0  0  0  0  0  0  0  0  0
   36.8340   77.6130   55.4980 C   0  0  0  0  0  0  0  0  0  0  0  0
   36.8940   78.4170   56.2050 H   0  0  0  0  0  0  0  0  0  0  0  0
   36.2920   77.4410   54.2570 N   0  0  0  0  0  0  0  0  0  0  0  0
   35.7930   78.2750   53.8370 H   0  0  0  0  0  0  0  0  0  0  0  0
   36.5240   76.1890   53.8230 C   0  0  0  0  0  0  0  0  0  0  0  0
   36.1730   75.8430   52.8500 H   0  0  0  0  0  0  0  0  0  0  0  0
   37.2270   75.5340   54.7920 N   0  0  0  0  0  0  0  0  0  0  0  0
  1  2  1  0  0  0  0
  2  3  2  0  0  0  0
  2  9  1  0  0  0  0
  3  8  1  0  0  0  0
  4  3  1  0  0  0  0
  5  4  2  0  0  0  0
  6  5  1  0  0  0  0
  6  1  2  0  0  0  0
  7  1  1  0  0  0  0
  9 15  1  0  0  0  0
 10  9  1  0  0  0  0
 10 11  2  0  0  0  0
 11 12  1  0  0  0  0
 12 14  1  0  0  0  0
 12 13  2  0  0  0  0
 14 19  1  0  0  0  0
 15 16  2  0  0  0  0
 15 14  1  0  0  0  0
 17 10  1  0  0  0  0
 18 11  1  0  0  0  0
 20  5  1  0  0  0  0
 21 20  2  0  0  0  0
 21 22  1  0  0  0  0
 23 21  1  0  0  0  0
 24 23  1  0  0  0  0
 25 23  1  0  0  0  0
 25 27  2  0  0  0  0
 26 25  1  0  0  0  0
 27 20  1  0  0  0  0
M  END
>  <minimizedAffinity>
-5.50444126

$$$$

 OpenBabel03212520303D

 27 29  0  0  0  0  0  0  0  0999 V2000
   42.1020   70.7790   60.2080 C   0  0  0  0  0  0  0  0  0  0  0  0
   42.2390   71.9090   61.0320 C   0  0  0  0  0  0  0  0  0  0  0  0
   42.2830   71.7240   62.4220 C   0  0  0  0  0  0  0  0  0  0  0  0
   42.1900   70.4470   62.8920 N   0  0  0  0  0  0  0  0  0  0  0  0
   42.0590   69.3990   62.0750 C   0  0  0  0  0  0  0  0  0  0  0  0
   42.0160   69.5600   60.7400 N   0  0  0  0  0  0  0  0  0  0  0  0
   42.0730   70.9770   59.1440 H   0  0  0  0  0  0  0  0  0  0  0  0
   42.3890   72.5670   63.0730 H   0  0  0  0  0  0  0  0  0  0  0  0
   42.3320   73.2170   60.4490 N   0  0  0  0  0  0  0  0  0  0  0  0
   41.1640   73.8300   60.3070 C   0  0  0  0  0  0  0  0  0  0  0  0
   41.1630   75.1120   59.7460 C   0  0  0  0  0  0  0  0  0  0  0  0
   42.3690   75.6970   59.3610 C   0  0  0  0  0  0  0  0  0  0  0  0
   42.4690   76.8400   58.8510 O   0  0  0  0  0  0  0  0  0  0  0  0
   43.5180   74.9970   59.5440 N   0  0  0  0  0  0  0  0  0  0  0  0
   43.5170   73.7510   60.0900 C   0  0  0  0  0  0  0  0  0  0  0  0
   44.5870   73.1070   60.2560 O   0  0  0  0  0  0  0  0  0  0  0  0
   40.2100   73.4010   60.5960 H   0  0  0  0  0  0  0  0  0  0  0  0
   40.2580   75.6700   59.5990 H   0  0  0  0  0  0  0  0  0  0  0  0
   44.4510   75.3950   59.2710 H   0  0  0  0  0  0  0  0  0  0  0  0
   41.9540   68.0150   62.5280 C   0  0  0  0  0  0  0  0  0  0  0  0
   42.5650   67.2310   63.4870 C   0  0  0  0  0  0  0  0  0  0  0  0
   43.3220   67.6770   64.1010 H   0  0  0  0  0  0  0  0  0  0  0  0
   41.9890   65.9980   63.3860 N   0  0  0  0  0  0  0  0  0  0  0  0
   42.3380   65.2540   64.0540 H   0  0  0  0  0  0  0  0  0  0  0  0
   41.0610   66.0020   62.4120 C   0  0  0  0  0  0  0  0  0  0  0  0
   40.4810   65.1120   62.1660 H   0  0  0  0  0  0  0  0  0  0  0  0
   41.0300   67.2540   61.8690 N   0  0  0  0  0  0  0  0  0  0  0  0
  1  6  2  0  0  0  0
  1  2  1  0  0  0  0
  2  3  2  0  0  0  0
  3  4  1  0  0  0  0
  3  8  1  0  0  0  0
  5 20  1  0  0  0  0
  5  4  2  0  0  0  0
  6  5  1  0  0  0  0
  7  1  1  0  0  0  0
  9  2  1  0  0  0  0
 10  9  1  0  0  0  0
 10 17  1  0  0  0  0
 11 10  2  0  0  0  0
 12 14  1  0  0  0  0
 12 11  1  0  0  0  0
 13 12  2  0  0  0  0
 14 15  1  0  0  0  0
 15 16  2  0  0  0  0
 15  9  1  0  0  0  0
 18 11  1  0  0  0  0
 19 14  1  0  0  0  0
 20 21  2  0  0  0  0
 21 22  1  0  0  0  0
 23 21  1  0  0  0  0
 23 24  1  0  0  0  0
 25 23  1  0  0  0  0
 26 25  1  0  0  0  0
 27 25  2  0  0  0  0
 27 20  1  0  0  0  0
M  END
>  <minimizedAffinity>
-5.37783575

$$$$

 OpenBabel03212520303D

 27 29  0  0  0  0  0  0  0  0999 V2000
   41.3310   71.7520   60.2250 C   0  0  0  0  0  0  0  0  0  0  0  0
   41.2130   72.8980   61.0290 C   0  0  0  0  0  0  0  0  0  0  0  0
   41.6430   72.8290   62.3620 C   0  0  0  0  0  0  0  0  0  0  0  0
   42.1550   71.6430   62.8000 N   0  0  0  0  0  0  0  0  0  0  0  0
   42.2500   70.5750   62.0040 C   0  0  0  0  0  0  0  0  0  0  0  0
   41.8420   70.6260   60.7230 N   0  0  0  0  0  0  0  0  0  0  0  0
   40.9850   71.8570   59.2040 H   0  0  0  0  0  0  0  0  0  0  0  0
   41.5660   73.6880   62.9970 H   0  0  0  0  0  0  0  0  0  0  0  0
   40.6630   74.1050   60.4830 N   0  0  0  0  0  0  0  0  0  0  0  0
   41.5300   74.8310   59.7900 C   0  0  0  0  0  0  0  0  0  0  0  0
   41.0760   76.0270   59.2220 C   0  0  0  0  0  0  0  0  0  0  0  0
   39.7470   76.4120   59.3980 C   0  0  0  0  0  0  0  0  0  0  0  0
   39.2480   77.4640   58.9280 O   0  0  0  0  0  0  0  0  0  0  0  0
   38.9280   75.6080   60.1220 N   0  0  0  0  0  0  0  0  0  0  0  0
   39.3710   74.4450   60.6730 C   0  0  0  0  0  0  0  0  0  0  0  0
   38.6060   73.7040   61.3440 O   0  0  0  0  0  0  0  0  0  0  0  0
   42.5700   74.5580   59.6360 H   0  0  0  0  0  0  0  0  0  0  0  0
   41.7190   76.6670   58.6480 H   0  0  0  0  0  0  0  0  0  0  0  0
   37.9200   75.8540   60.2820 H   0  0  0  0  0  0  0  0  0  0  0  0
   42.7880   69.2850   62.4250 C   0  0  0  0  0  0  0  0  0  0  0  0
   43.6160   68.8310   63.4320 C   0  0  0  0  0  0  0  0  0  0  0  0
   44.0090   69.5460   64.1280 H   0  0  0  0  0  0  0  0  0  0  0  0
   43.7190   67.4820   63.2540 N   0  0  0  0  0  0  0  0  0  0  0  0
   44.3250   66.9560   63.9450 H   0  0  0  0  0  0  0  0  0  0  0  0
   42.9920   67.1020   62.1870 C   0  0  0  0  0  0  0  0  0  0  0  0
   42.9380   66.0600   61.8700 H   0  0  0  0  0  0  0  0  0  0  0  0
   42.4060   68.2170   61.6620 N   0  0  0  0  0  0  0  0  0  0  0  0
  1  6  2  0  0  0  0
  1  2  1  0  0  0  0
  2  3  2  0  0  0  0
  3  4  1  0  0  0  0
  3  8  1  0  0  0  0
  5 20  1  0  0  0  0
  5  4  2  0  0  0  0
  6  5  1  0  0  0  0
  7  1  1  0  0  0  0
  9 15  1  0  0  0  0
  9  2  1  0  0  0  0
 10  9  1  0  0  0  0
 11 12  1  0  0  0  0
 11 10  2  0  0  0  0
 12 14  1  0  0  0  0
 13 12  2  0  0  0  0
 14 19  1  0  0  0  0
 14 15  1  0  0  0  0
 15 16  2  0  0  0  0
 17 10  1  0  0  0  0
 18 11  1  0  0  0  0
 20 21  2  0  0  0  0
 21 22  1  0  0  0  0
 23 21  1  0  0  0  0
 23 24  1  0  0  0  0
 25 23  1  0  0  0  0
 26 25  1  0  0  0  0
 27 25  2  0  0  0  0
 27 20  1  0  0  0  0
M  END
>  <minimizedAffinity>
-5.33201504

$$$$

 OpenBabel03212520303D

 27 29  0  0  0  0  0  0  0  0999 V2000
   40.1950   73.6540   58.2950 C   0  0  0  0  0  0  0  0  0  0  0  0
   39.0420   74.3470   58.6990 C   0  0  0  0  0  0  0  0  0  0  0  0
   38.6200   74.2280   60.0320 C   0  0  0  0  0  0  0  0  0  0  0  0
   39.3620   73.4390   60.8610 N   0  0  0  0  0  0  0  0  0  0  0  0
   40.4530   72.7950   60.4380 C   0  0  0  0  0  0  0  0  0  0  0  0
   40.8700   72.8990   59.1630 N   0  0  0  0  0  0  0  0  0  0  0  0
   40.4780   73.7790   57.2580 H   0  0  0  0  0  0  0  0  0  0  0  0
   37.7450   74.7460   60.3670 H   0  0  0  0  0  0  0  0  0  0  0  0
   38.3230   75.1560   57.7580 N   0  0  0  0  0  0  0  0  0  0  0  0
   37.4740   74.4770   56.9970 C   0  0  0  0  0  0  0  0  0  0  0  0
   36.7310   75.1910   56.0500 C   0  0  0  0  0  0  0  0  0  0  0  0
   36.9000   76.5710   55.9370 C   0  0  0  0  0  0  0  0  0  0  0  0
   36.2800   77.2940   55.1210 O   0  0  0  0  0  0  0  0  0  0  0  0
   37.7910   77.1840   56.7570 N   0  0  0  0  0  0  0  0  0  0  0  0
   38.5130   76.4890   57.6780 C   0  0  0  0  0  0  0  0  0  0  0  0
   39.3380   77.0660   58.4360 O   0  0  0  0  0  0  0  0  0  0  0  0
   37.3210   73.4050   57.0610 H   0  0  0  0  0  0  0  0  0  0  0  0
   36.0250   74.7110   55.3990 H   0  0  0  0  0  0  0  0  0  0  0  0
   37.9540   78.2210   56.7120 H   0  0  0  0  0  0  0  0  0  0  0  0
   41.2790   71.9390   61.2850 C   0  0  0  0  0  0  0  0  0  0  0  0
   42.3970   71.1490   61.1130 C   0  0  0  0  0  0  0  0  0  0  0  0
   42.8360   71.0940   60.1360 H   0  0  0  0  0  0  0  0  0  0  0  0
   42.6650   70.6060   62.3360 N   0  0  0  0  0  0  0  0  0  0  0  0
   43.5030   69.9610   62.3970 H   0  0  0  0  0  0  0  0  0  0  0  0
   41.7600   71.0330   63.2370 C   0  0  0  0  0  0  0  0  0  0  0  0
   41.7940   70.7160   64.2800 H   0  0  0  0  0  0  0  0  0  0  0  0
   40.8910   71.8640   62.5930 N   0  0  0  0  0  0  0  0  0  0  0  0
  1  2  2  0  0  0  0
  1  6  1  0  0  0  0
  2  3  1  0  0  0  0
  3  8  1  0  0  0  0
  3  4  2  0  0  0  0
  5  4  1  0  0  0  0
  5 20  1  0  0  0  0
  6  5  2  0  0  0  0
  7  1  1  0  0  0  0
  9  2  1  0  0  0  0
 10 17  1  0  0  0  0
 10  9  1  0  0  0  0
 11 10  2  0  0  0  0
 12 11  1  0  0  0  0
 12 14  1  0  0  0  0
 13 12  2  0  0  0  0
 14 15  1  0  0  0  0
 15  9  1  0  0  0  0
 15 16  2  0  0  0  0
 18 11  1  0  0  0  0
 19 14  1  0  0  0  0
 20 27  1  0  0  0  0
 21 20  2  0  0  0  0
 21 23  1  0  0  0  0
 22 21  1  0  0  0  0
 23 24  1  0  0  0  0
 23 25  1  0  0  0  0
 25 26  1  0  0  0  0
 27 25  2  0  0  0  0
M  END
>  <minimizedAffinity>
-5.30527449

$$$$

 OpenBabel03212520303D

 27 29  0  0  0  0  0  0  0  0999 V2000
   41.6580   70.6930   60.4720 C   0  0  0  0  0  0  0  0  0  0  0  0
   41.9730   70.2400   61.7640 C   0  0  0  0  0  0  0  0  0  0  0  0
   41.6130   71.0370   62.8610 C   0  0  0  0  0  0  0  0  0  0  0  0
   40.9730   72.2140   62.6030 N   0  0  0  0  0  0  0  0  0  0  0  0
   40.6920   72.6100   61.3590 C   0  0  0  0  0  0  0  0  0  0  0  0
   41.0310   71.8560   60.2980 N   0  0  0  0  0  0  0  0  0  0  0  0
   41.9580   70.0410   59.6610 H   0  0  0  0  0  0  0  0  0  0  0  0
   41.8400   70.7160   63.8570 H   0  0  0  0  0  0  0  0  0  0  0  0
   42.6480   68.9860   61.9420 N   0  0  0  0  0  0  0  0  0  0  0  0
   43.8800   68.9600   61.4520 C   0  0  0  0  0  0  0  0  0  0  0  0
   44.6110   67.7740   61.5820 C   0  0  0  0  0  0  0  0  0  0  0  0
   44.0320   66.6740   62.2150 C   0  0  0  0  0  0  0  0  0  0  0  0
   44.6070   65.5700   62.3800 O   0  0  0  0  0  0  0  0  0  0  0  0
   42.7650   66.7890   62.6880 N   0  0  0  0  0  0  0  0  0  0  0  0
   42.0560   67.9430   62.5600 C   0  0  0  0  0  0  0  0  0  0  0  0
   40.8800   68.0430   63.0010 O   0  0  0  0  0  0  0  0  0  0  0  0
   44.3570   69.7990   60.9540 H   0  0  0  0  0  0  0  0  0  0  0  0
   45.6130   67.6770   61.2110 H   0  0  0  0  0  0  0  0  0  0  0  0
   42.2850   65.9900   63.1720 H   0  0  0  0  0  0  0  0  0  0  0  0
   40.0110   73.8590   61.0310 C   0  0  0  0  0  0  0  0  0  0  0  0
   38.7380   74.3690   61.1830 C   0  0  0  0  0  0  0  0  0  0  0  0
   37.9970   73.7540   61.6540 H   0  0  0  0  0  0  0  0  0  0  0  0
   38.7700   75.6240   60.6480 N   0  0  0  0  0  0  0  0  0  0  0  0
   37.8670   76.1770   60.6760 H   0  0  0  0  0  0  0  0  0  0  0  0
   40.0030   75.8940   60.1810 C   0  0  0  0  0  0  0  0  0  0  0  0
   40.2450   76.8480   59.7120 H   0  0  0  0  0  0  0  0  0  0  0  0
   40.7860   74.8010   60.4150 N   0  0  0  0  0  0  0  0  0  0  0  0
  1  2  1  0  0  0  0
  2  9  1  0  0  0  0
  2  3  2  0  0  0  0
  3  8  1  0  0  0  0
  4  3  1  0  0  0  0
  5  4  2  0  0  0  0
  6  1  2  0  0  0  0
  6  5  1  0  0  0  0
  7  1  1  0  0  0  0
  9 15  1  0  0  0  0
 10 11  2  0  0  0  0
 10  9  1  0  0  0  0
 11 12  1  0  0  0  0
 12 13  2  0  0  0  0
 12 14  1  0  0  0  0
 14 19  1  0  0  0  0
 15 14  1  0  0  0  0
 15 16  2  0  0  0  0
 17 10  1  0  0  0  0
 18 11  1  0  0  0  0
 20 21  2  0  0  0  0
 20  5  1  0  0  0  0
 21 22  1  0  0  0  0
 23 24  1  0  0  0  0
 23 21  1  0  0  0  0
 25 27  2  0  0  0  0
 25 23  1  0  0  0  0
 26 25  1  0  0  0  0
 27 20  1  0  0  0  0
M  END
>  <minimizedAffinity>
-5.27591944

$$$$

 OpenBabel03212520303D

 27 29  0  0  0  0  0  0  0  0999 V2000
   41.6100   72.0470   62.5830 C   0  0  0  0  0  0  0  0  0  0  0  0
   41.3490   72.3080   61.2270 C   0  0  0  0  0  0  0  0  0  0  0  0
   41.5150   71.2680   60.3000 C   0  0  0  0  0  0  0  0  0  0  0  0
   41.9220   70.0570   60.7760 N   0  0  0  0  0  0  0  0  0  0  0  0
   42.1610   69.8490   62.0730 C   0  0  0  0  0  0  0  0  0  0  0  0
   42.0060   70.8360   62.9740 N   0  0  0  0  0  0  0  0  0  0  0  0
   41.4670   72.8830   63.2560 H   0  0  0  0  0  0  0  0  0  0  0  0
   41.3220   71.4390   59.2600 H   0  0  0  0  0  0  0  0  0  0  0  0
   40.9220   73.6150   60.8150 N   0  0  0  0  0  0  0  0  0  0  0  0
   39.7000   73.9370   61.2170 C   0  0  0  0  0  0  0  0  0  0  0  0
   39.2040   75.1950   60.8580 C   0  0  0  0  0  0  0  0  0  0  0  0
   39.9980   76.0590   60.1030 C   0  0  0  0  0  0  0  0  0  0  0  0
   39.6410   77.2050   59.7350 O   0  0  0  0  0  0  0  0  0  0  0  0
   41.2370   75.6470   59.7360 N   0  0  0  0  0  0  0  0  0  0  0  0
   41.7180   74.4230   60.0850 C   0  0  0  0  0  0  0  0  0  0  0  0
   42.8700   74.0470   59.7410 O   0  0  0  0  0  0  0  0  0  0  0  0
   39.0590   73.2870   61.8040 H   0  0  0  0  0  0  0  0  0  0  0  0
   38.2240   75.5270   61.1460 H   0  0  0  0  0  0  0  0  0  0  0  0
   41.8730   76.2610   59.1680 H   0  0  0  0  0  0  0  0  0  0  0  0
   42.5990   68.5730   62.6320 C   0  0  0  0  0  0  0  0  0  0  0  0
   41.9890   67.4150   63.0680 C   0  0  0  0  0  0  0  0  0  0  0  0
   40.9200   67.3530   63.0180 H   0  0  0  0  0  0  0  0  0  0  0  0
   42.9980   66.5920   63.4790 N   0  0  0  0  0  0  0  0  0  0  0  0
   42.7140   65.6420   63.8520 H   0  0  0  0  0  0  0  0  0  0  0  0
   44.1860   67.2000   63.3100 C   0  0  0  0  0  0  0  0  0  0  0  0
   45.1250   66.7130   63.5770 H   0  0  0  0  0  0  0  0  0  0  0  0
   43.9510   68.4360   62.7820 N   0  0  0  0  0  0  0  0  0  0  0  0
  1  6  1  0  0  0  0
  1  7  1  0  0  0  0
  2  1  2  0  0  0  0
  3  4  2  0  0  0  0
  3  2  1  0  0  0  0
  4  5  1  0  0  0  0
  5 20  1  0  0  0  0
  5  6  2  0  0  0  0
  8  3  1  0  0  0  0
  9 10  1  0  0  0  0
  9  2  1  0  0  0  0
 10 17  1  0  0  0  0
 11 18  1  0  0  0  0
 11 10  2  0  0  0  0
 12 11  1  0  0  0  0
 13 12  2  0  0  0  0
 14 15  1  0  0  0  0
 14 12  1  0  0  0  0
 15  9  1  0  0  0  0
 16 15  2  0  0  0  0
 19 14  1  0  0  0  0
 20 27  1  0  0  0  0
 20 21  2  0  0  0  0
 21 23  1  0  0  0  0
 22 21  1  0  0  0  0
 23 24  1  0  0  0  0
 25 23  1  0  0  0  0
 25 26  1  0  0  0  0
 27 25  2  0  0  0  0
M  END
>  <minimizedAffinity>
-5.24096537

$$$$

 OpenBabel03212520303D

 27 29  0  0  0  0  0  0  0  0999 V2000
   42.0380   70.8110   60.2120 C   0  0  0  0  0  0  0  0  0  0  0  0
   42.2180   71.9370   61.0330 C   0  0  0  0  0  0  0  0  0  0  0  0
   42.3340   71.7470   62.4180 C   0  0  0  0  0  0  0  0  0  0  0  0
   42.2650   70.4680   62.8870 N   0  0  0  0  0  0  0  0  0  0  0  0
   42.0930   69.4230   62.0730 C   0  0  0  0  0  0  0  0  0  0  0  0
   41.9800   69.5890   60.7430 N   0  0  0  0  0  0  0  0  0  0  0  0
   41.9540   71.0120   59.1520 H   0  0  0  0  0  0  0  0  0  0  0  0
   42.4720   72.5870   63.0670 H   0  0  0  0  0  0  0  0  0  0  0  0
   42.2790   73.2470   60.4520 N   0  0  0  0  0  0  0  0  0  0  0  0
   43.5000   73.6240   60.0940 C   0  0  0  0  0  0  0  0  0  0  0  0
   43.6500   74.8910   59.5180 C   0  0  0  0  0  0  0  0  0  0  0  0
   42.5310   75.7050   59.3390 C   0  0  0  0  0  0  0  0  0  0  0  0
   42.5660   76.8530   58.8330 O   0  0  0  0  0  0  0  0  0  0  0  0
   41.3200   75.2380   59.7350 N   0  0  0  0  0  0  0  0  0  0  0  0
   41.1750   74.0060   60.2940 C   0  0  0  0  0  0  0  0  0  0  0  0
   40.0470   73.5790   60.6580 O   0  0  0  0  0  0  0  0  0  0  0  0
   44.3890   73.0150   60.2200 H   0  0  0  0  0  0  0  0  0  0  0  0
   44.6060   75.2660   59.2040 H   0  0  0  0  0  0  0  0  0  0  0  0
   40.4470   75.8120   59.6210 H   0  0  0  0  0  0  0  0  0  0  0  0
   42.0120   68.0370   62.5260 C   0  0  0  0  0  0  0  0  0  0  0  0
   42.6340   67.2640   63.4850 C   0  0  0  0  0  0  0  0  0  0  0  0
   43.3830   67.7230   64.1010 H   0  0  0  0  0  0  0  0  0  0  0  0
   42.0820   66.0200   63.3820 N   0  0  0  0  0  0  0  0  0  0  0  0
   42.4420   65.2830   64.0510 H   0  0  0  0  0  0  0  0  0  0  0  0
   41.1550   66.0080   62.4060 C   0  0  0  0  0  0  0  0  0  0  0  0
   40.5930   65.1070   62.1590 H   0  0  0  0  0  0  0  0  0  0  0  0
   41.1030   67.2590   61.8650 N   0  0  0  0  0  0  0  0  0  0  0  0
  1  6  2  0  0  0  0
  1  2  1  0  0  0  0
  2  3  2  0  0  0  0
  3  4  1  0  0  0  0
  3  8  1  0  0  0  0
  5 20  1  0  0  0  0
  5  4  2  0  0  0  0
  6  5  1  0  0  0  0
  7  1  1  0  0  0  0
  9  2  1  0  0  0  0
 10 17  1  0  0  0  0
 10  9  1  0  0  0  0
 11 10  2  0  0  0  0
 12 11  1  0  0  0  0
 12 14  1  0  0  0  0
 13 12  2  0  0  0  0
 14 15  1  0  0  0  0
 15  9  1  0  0  0  0
 15 16  2  0  0  0  0
 18 11  1  0  0  0  0
 19 14  1  0  0  0  0
 20 21  2  0  0  0  0
 21 22  1  0  0  0  0
 23 21  1  0  0  0  0
 23 24  1  0  0  0  0
 25 23  1  0  0  0  0
 26 25  1  0  0  0  0
 27 25  2  0  0  0  0
 27 20  1  0  0  0  0
M  END
>  <minimizedAffinity>
-5.22687578

$$$$

 OpenBabel03212520303D

 27 29  0  0  0  0  0  0  0  0999 V2000
   39.3930   73.9400   57.8590 C   0  0  0  0  0  0  0  0  0  0  0  0
   39.6980   74.6010   59.0600 C   0  0  0  0  0  0  0  0  0  0  0  0
   39.2470   75.9180   59.2350 C   0  0  0  0  0  0  0  0  0  0  0  0
   38.5320   76.4800   58.2180 N   0  0  0  0  0  0  0  0  0  0  0  0
   38.2630   75.8180   57.0900 C   0  0  0  0  0  0  0  0  0  0  0  0
   38.6890   74.5550   56.9080 N   0  0  0  0  0  0  0  0  0  0  0  0
   39.7650   72.9270   57.7740 H   0  0  0  0  0  0  0  0  0  0  0  0
   39.4640   76.4450   60.1410 H   0  0  0  0  0  0  0  0  0  0  0  0
   40.4560   73.9300   60.0770 N   0  0  0  0  0  0  0  0  0  0  0  0
   39.7150   73.2690   60.9570 C   0  0  0  0  0  0  0  0  0  0  0  0
   40.3750   72.5860   61.9850 C   0  0  0  0  0  0  0  0  0  0  0  0
   41.7680   72.6180   62.0510 C   0  0  0  0  0  0  0  0  0  0  0  0
   42.4470   72.0380   62.9330 O   0  0  0  0  0  0  0  0  0  0  0  0
   42.4460   73.3200   61.1080 N   0  0  0  0  0  0  0  0  0  0  0  0
   41.8030   73.9840   60.1090 C   0  0  0  0  0  0  0  0  0  0  0  0
   42.4400   74.6330   59.2370 O   0  0  0  0  0  0  0  0  0  0  0  0
   38.6310   73.2260   60.9330 H   0  0  0  0  0  0  0  0  0  0  0  0
   39.8440   72.0300   62.7340 H   0  0  0  0  0  0  0  0  0  0  0  0
   43.4950   73.3750   61.1140 H   0  0  0  0  0  0  0  0  0  0  0  0
   37.5040   76.3760   55.9740 C   0  0  0  0  0  0  0  0  0  0  0  0
   37.0360   77.6220   55.6110 C   0  0  0  0  0  0  0  0  0  0  0  0
   37.2400   78.4510   56.2620 H   0  0  0  0  0  0  0  0  0  0  0  0
   36.3880   77.4490   54.4230 N   0  0  0  0  0  0  0  0  0  0  0  0
   35.9570   78.3120   53.9860 H   0  0  0  0  0  0  0  0  0  0  0  0
   36.4430   76.1560   54.0530 C   0  0  0  0  0  0  0  0  0  0  0  0
   35.9840   75.8020   53.1300 H   0  0  0  0  0  0  0  0  0  0  0  0
   37.1370   75.4770   55.0120 N   0  0  0  0  0  0  0  0  0  0  0  0
  1  2  1  0  0  0  0
  2  3  2  0  0  0  0
  2  9  1  0  0  0  0
  3  8  1  0  0  0  0
  4  3  1  0  0  0  0
  5  4  2  0  0  0  0
  6  5  1  0  0  0  0
  6  1  2  0  0  0  0
  7  1  1  0  0  0  0
  9 15  1  0  0  0  0
  9 10  1  0  0  0  0
 10 11  2  0  0  0  0
 11 12  1  0  0  0  0
 11 18  1  0  0  0  0
 12 13  2  0  0  0  0
 14 19  1  0  0  0  0
 14 12  1  0  0  0  0
 15 14  1  0  0  0  0
 16 15  2  0  0  0  0
 17 10  1  0  0  0  0
 20  5  1  0  0  0  0
 21 20  2  0  0  0  0
 21 22  1  0  0  0  0
 23 21  1  0  0  0  0
 24 23  1  0  0  0  0
 25 23  1  0  0  0  0
 25 27  2  0  0  0  0
 26 25  1  0  0  0  0
 27 20  1  0  0  0  0
M  END
>  <minimizedAffinity>
-5.18590164

$$$$

 OpenBabel03212520303D

 27 29  0  0  0  0  0  0  0  0999 V2000
   41.6010   70.8930   60.3530 C   0  0  0  0  0  0  0  0  0  0  0  0
   42.0270   70.4800   61.6260 C   0  0  0  0  0  0  0  0  0  0  0  0
   41.8060   71.3340   62.7180 C   0  0  0  0  0  0  0  0  0  0  0  0
   41.1860   72.5240   62.4730 N   0  0  0  0  0  0  0  0  0  0  0  0
   40.7970   72.8810   61.2460 C   0  0  0  0  0  0  0  0  0  0  0  0
   41.0020   72.0730   60.1900 N   0  0  0  0  0  0  0  0  0  0  0  0
   41.7960   70.1990   59.5460 H   0  0  0  0  0  0  0  0  0  0  0  0
   42.1190   71.0440   63.7000 H   0  0  0  0  0  0  0  0  0  0  0  0
   42.6710   69.2090   61.7920 N   0  0  0  0  0  0  0  0  0  0  0  0
   41.9870   68.3470   62.5320 C   0  0  0  0  0  0  0  0  0  0  0  0
   42.5440   67.0810   62.7440 C   0  0  0  0  0  0  0  0  0  0  0  0
   43.7810   66.7680   62.1800 C   0  0  0  0  0  0  0  0  0  0  0  0
   44.3590   65.6620   62.3130 O   0  0  0  0  0  0  0  0  0  0  0  0
   44.4120   67.7120   61.4360 N   0  0  0  0  0  0  0  0  0  0  0  0
   43.8690   68.9420   61.2300 C   0  0  0  0  0  0  0  0  0  0  0  0
   44.4600   69.8130   60.5380 O   0  0  0  0  0  0  0  0  0  0  0  0
   41.0240   68.5600   62.9850 H   0  0  0  0  0  0  0  0  0  0  0  0
   42.0500   66.3300   63.3320 H   0  0  0  0  0  0  0  0  0  0  0  0
   45.3440   67.5250   60.9890 H   0  0  0  0  0  0  0  0  0  0  0  0
   40.1310   74.1420   60.9320 C   0  0  0  0  0  0  0  0  0  0  0  0
   38.9030   74.7130   61.1980 C   0  0  0  0  0  0  0  0  0  0  0  0
   38.1970   74.1540   61.7790 H   0  0  0  0  0  0  0  0  0  0  0  0
   38.9230   75.9400   60.5990 N   0  0  0  0  0  0  0  0  0  0  0  0
   38.0500   76.5310   60.6990 H   0  0  0  0  0  0  0  0  0  0  0  0
   40.1050   76.1340   59.9850 C   0  0  0  0  0  0  0  0  0  0  0  0
   40.3280   77.0530   59.4440 H   0  0  0  0  0  0  0  0  0  0  0  0
   40.8670   75.0200   60.1860 N   0  0  0  0  0  0  0  0  0  0  0  0
  1  2  1  0  0  0  0
  2  9  1  0  0  0  0
  2  3  2  0  0  0  0
  3  8  1  0  0  0  0
  4  3  1  0  0  0  0
  5  4  2  0  0  0  0
  6  1  2  0  0  0  0
  6  5  1  0  0  0  0
  7  1  1  0  0  0  0
  9 10  1  0  0  0  0
 10 11  2  0  0  0  0
 10 17  1  0  0  0  0
 11 18  1  0  0  0  0
 12 13  2  0  0  0  0
 12 11  1  0  0  0  0
 14 12  1  0  0  0  0
 15 14  1  0  0  0  0
 15  9  1  0  0  0  0
 16 15  2  0  0  0  0
 19 14  1  0  0  0  0
 20 21  2  0  0  0  0
 20  5  1  0  0  0  0
 21 22  1  0  0  0  0
 23 24  1  0  0  0  0
 23 21  1  0  0  0  0
 25 27  2  0  0  0  0
 25 23  1  0  0  0  0
 26 25  1  0  0  0  0
 27 20  1  0  0  0  0
M  END
>  <minimizedAffinity>
-5.16321325

$$$$
