
 OpenBabel03212520293D

 27 29  0  0  0  0  0  0  0  0999 V2000
   42.1310   82.4610   59.7280 C   0  0  0  0  0  0  0  0  0  0  0  0
   42.6290   82.1690   61.0080 C   0  0  0  0  0  0  0  0  0  0  0  0
   43.6830   81.2500   61.1250 C   0  0  0  0  0  0  0  0  0  0  0  0
   44.1640   80.6920   59.9760 N   0  0  0  0  0  0  0  0  0  0  0  0
   43.6620   80.9970   58.7760 C   0  0  0  0  0  0  0  0  0  0  0  0
   42.6510   81.8760   58.6490 N   0  0  0  0  0  0  0  0  0  0  0  0
   41.3180   83.1750   59.6940 H   0  0  0  0  0  0  0  0  0  0  0  0
   44.0830   81.0090   62.0880 H   0  0  0  0  0  0  0  0  0  0  0  0
   42.0620   82.8040   62.1630 N   0  0  0  0  0  0  0  0  0  0  0  0
   42.5950   83.9850   62.4480 C   0  0  0  0  0  0  0  0  0  0  0  0
   42.1010   84.6740   63.5610 C   0  0  0  0  0  0  0  0  0  0  0  0
   41.0770   84.1090   64.3230 C   0  0  0  0  0  0  0  0  0  0  0  0
   40.5700   84.6510   65.3350 O   0  0  0  0  0  0  0  0  0  0  0  0
   40.5900   82.8960   63.9580 N   0  0  0  0  0  0  0  0  0  0  0  0
   41.0730   82.2270   62.8760 C   0  0  0  0  0  0  0  0  0  0  0  0
   40.6150   81.1020   62.5430 O   0  0  0  0  0  0  0  0  0  0  0  0
   43.3920   84.4490   61.8760 H   0  0  0  0  0  0  0  0  0  0  0  0
   42.4820   85.6340   63.8540 H   0  0  0  0  0  0  0  0  0  0  0  0
   39.8200   82.4300   64.4990 H   0  0  0  0  0  0  0  0  0  0  0  0
   44.1400   80.4280   57.5200 C   0  0  0  0  0  0  0  0  0  0  0  0
   44.6930   80.9160   56.3520 C   0  0  0  0  0  0  0  0  0  0  0  0
   44.8440   81.9740   56.2640 H   0  0  0  0  0  0  0  0  0  0  0  0
   44.9160   79.8280   55.5590 N   0  0  0  0  0  0  0  0  0  0  0  0
   45.3440   80.0120   54.6090 H   0  0  0  0  0  0  0  0  0  0  0  0
   44.5240   78.7080   56.1940 C   0  0  0  0  0  0  0  0  0  0  0  0
   44.6150   77.7240   55.7340 H   0  0  0  0  0  0  0  0  0  0  0  0
   44.0380   79.0690   57.4170 N   0  0  0  0  0  0  0  0  0  0  0  0
  1  2  1  0  0  0  0
  2  3  2  0  0  0  0
  2  9  1  0  0  0  0
  3  8  1  0  0  0  0
  4  3  1  0  0  0  0
  5  4  2  0  0  0  0
  6  5  1  0  0  0  0
  6  1  2  0  0  0  0
  7  1  1  0  0  0  0
  9 10  1  0  0  0  0
  9 15  1  0  0  0  0
 10 11  2  0  0  0  0
 11 18  1  0  0  0  0
 11 12  1  0  0  0  0
 12 13  2  0  0  0  0
 14 12  1  0  0  0  0
 14 19  1  0  0  0  0
 15 14  1  0  0  0  0
 16 15  2  0  0  0  0
 17 10  1  0  0  0  0
 20  5  1  0  0  0  0
 21 20  2  0  0  0  0
 22 21  1  0  0  0  0
 23 25  1  0  0  0  0
 23 21  1  0  0  0  0
 24 23  1  0  0  0  0
 25 27  2  0  0  0  0
 26 25  1  0  0  0  0
 27 20  1  0  0  0  0
M  END
>  <minimizedAffinity>
-4.22466278

>  <minimizedRMSD>
7.78788376

$$$$
