
 OpenBabel03212520293D

 27 29  0  0  0  0  0  0  0  0999 V2000
   39.9990   81.5980   60.1300 C   0  0  0  0  0  0  0  0  0  0  0  0
   40.7130   80.6960   59.3240 C   0  0  0  0  0  0  0  0  0  0  0  0
   42.1030   80.8540   59.2080 C   0  0  0  0  0  0  0  0  0  0  0  0
   42.6790   81.8840   59.8920 N   0  0  0  0  0  0  0  0  0  0  0  0
   41.9650   82.7210   60.6480 C   0  0  0  0  0  0  0  0  0  0  0  0
   40.6320   82.5820   60.7680 N   0  0  0  0  0  0  0  0  0  0  0  0
   38.9300   81.4320   60.1850 H   0  0  0  0  0  0  0  0  0  0  0  0
   42.6720   80.1800   58.6020 H   0  0  0  0  0  0  0  0  0  0  0  0
   40.0230   79.6390   58.6410 N   0  0  0  0  0  0  0  0  0  0  0  0
   40.0040   78.4890   59.3010 C   0  0  0  0  0  0  0  0  0  0  0  0
   39.3510   77.4040   58.7050 C   0  0  0  0  0  0  0  0  0  0  0  0
   38.7480   77.5630   57.4570 C   0  0  0  0  0  0  0  0  0  0  0  0
   38.1400   76.6510   56.8450 O   0  0  0  0  0  0  0  0  0  0  0  0
   38.8170   78.7760   56.8530 N   0  0  0  0  0  0  0  0  0  0  0  0
   39.4520   79.8300   57.4330 C   0  0  0  0  0  0  0  0  0  0  0  0
   39.5110   80.9540   56.8670 O   0  0  0  0  0  0  0  0  0  0  0  0
   40.4630   78.3350   60.2720 H   0  0  0  0  0  0  0  0  0  0  0  0
   39.2930   76.4420   59.1780 H   0  0  0  0  0  0  0  0  0  0  0  0
   38.3790   78.9460   55.9130 H   0  0  0  0  0  0  0  0  0  0  0  0
   42.5340   83.8380   61.3970 C   0  0  0  0  0  0  0  0  0  0  0  0
   42.6080   84.2100   62.7240 C   0  0  0  0  0  0  0  0  0  0  0  0
   42.1590   83.5720   63.4580 H   0  0  0  0  0  0  0  0  0  0  0  0
   43.2930   85.3900   62.7440 N   0  0  0  0  0  0  0  0  0  0  0  0
   43.4500   85.8340   63.6920 H   0  0  0  0  0  0  0  0  0  0  0  0
   43.6340   85.7460   61.4920 C   0  0  0  0  0  0  0  0  0  0  0  0
   44.1900   86.6620   61.2840 H   0  0  0  0  0  0  0  0  0  0  0  0
   43.1660   84.7850   60.6430 N   0  0  0  0  0  0  0  0  0  0  0  0
  1  7  1  0  0  0  0
  1  6  1  0  0  0  0
  2  1  2  0  0  0  0
  3  2  1  0  0  0  0
  3  4  2  0  0  0  0
  4  5  1  0  0  0  0
  5  6  2  0  0  0  0
  5 20  1  0  0  0  0
  8  3  1  0  0  0  0
  9 10  1  0  0  0  0
  9  2  1  0  0  0  0
 10 17  1  0  0  0  0
 11 18  1  0  0  0  0
 11 10  2  0  0  0  0
 12 11  1  0  0  0  0
 13 12  2  0  0  0  0
 14 15  1  0  0  0  0
 14 12  1  0  0  0  0
 15  9  1  0  0  0  0
 16 15  2  0  0  0  0
 19 14  1  0  0  0  0
 20 21  2  0  0  0  0
 21 23  1  0  0  0  0
 21 22  1  0  0  0  0
 23 24  1  0  0  0  0
 25 23  1  0  0  0  0
 26 25  1  0  0  0  0
 27 20  1  0  0  0  0
 27 25  2  0  0  0  0
M  END
>  <minimizedAffinity>
-4.35104084

>  <minimizedRMSD>
4.98221922

$$$$
