
 OpenBabel03212520293D

 27 29  0  0  0  0  0  0  0  0999 V2000
   40.3380   81.9600   61.5440 C   0  0  0  0  0  0  0  0  0  0  0  0
   41.3900   81.0580   61.7750 C   0  0  0  0  0  0  0  0  0  0  0  0
   42.2850   81.3250   62.8220 C   0  0  0  0  0  0  0  0  0  0  0  0
   42.0760   82.4540   63.5580 N   0  0  0  0  0  0  0  0  0  0  0  0
   41.0640   83.2870   63.3060 C   0  0  0  0  0  0  0  0  0  0  0  0
   40.1980   83.0450   62.3060 N   0  0  0  0  0  0  0  0  0  0  0  0
   39.6770   81.7080   60.7240 H   0  0  0  0  0  0  0  0  0  0  0  0
   43.0950   80.6540   63.0210 H   0  0  0  0  0  0  0  0  0  0  0  0
   41.5330   79.8930   60.9500 N   0  0  0  0  0  0  0  0  0  0  0  0
   40.6290   78.9500   61.1830 C   0  0  0  0  0  0  0  0  0  0  0  0
   40.6960   77.7780   60.4220 C   0  0  0  0  0  0  0  0  0  0  0  0
   41.6930   77.6390   59.4550 C   0  0  0  0  0  0  0  0  0  0  0  0
   41.8320   76.6280   58.7240 O   0  0  0  0  0  0  0  0  0  0  0  0
   42.5760   78.6560   59.2830 N   0  0  0  0  0  0  0  0  0  0  0  0
   42.5100   79.7950   60.0250 C   0  0  0  0  0  0  0  0  0  0  0  0
   43.3330   80.7340   59.8590 O   0  0  0  0  0  0  0  0  0  0  0  0
   39.8440   79.0280   61.9280 H   0  0  0  0  0  0  0  0  0  0  0  0
   40.0010   76.9710   60.5530 H   0  0  0  0  0  0  0  0  0  0  0  0
   43.3430   78.6000   58.5680 H   0  0  0  0  0  0  0  0  0  0  0  0
   40.7990   84.5070   64.0630 C   0  0  0  0  0  0  0  0  0  0  0  0
   41.1730   85.8330   63.9790 C   0  0  0  0  0  0  0  0  0  0  0  0
   41.8260   86.1270   63.1810 H   0  0  0  0  0  0  0  0  0  0  0  0
   40.5600   86.4630   65.0230 N   0  0  0  0  0  0  0  0  0  0  0  0
   40.7350   87.5030   65.1210 H   0  0  0  0  0  0  0  0  0  0  0  0
   39.8340   85.5790   65.7320 C   0  0  0  0  0  0  0  0  0  0  0  0
   39.2630   85.8780   66.6120 H   0  0  0  0  0  0  0  0  0  0  0  0
   39.9740   84.3560   65.1430 N   0  0  0  0  0  0  0  0  0  0  0  0
  1  2  2  0  0  0  0
  1  6  1  0  0  0  0
  2  3  1  0  0  0  0
  3  8  1  0  0  0  0
  3  4  2  0  0  0  0
  5  4  1  0  0  0  0
  5 20  1  0  0  0  0
  6  5  2  0  0  0  0
  7  1  1  0  0  0  0
  9 10  1  0  0  0  0
  9  2  1  0  0  0  0
 10 17  1  0  0  0  0
 11 18  1  0  0  0  0
 11 10  2  0  0  0  0
 12 11  1  0  0  0  0
 13 12  2  0  0  0  0
 14 12  1  0  0  0  0
 14 15  1  0  0  0  0
 15  9  1  0  0  0  0
 16 15  2  0  0  0  0
 19 14  1  0  0  0  0
 20 27  1  0  0  0  0
 21 20  2  0  0  0  0
 21 23  1  0  0  0  0
 22 21  1  0  0  0  0
 23 24  1  0  0  0  0
 23 25  1  0  0  0  0
 25 26  1  0  0  0  0
 27 25  2  0  0  0  0
M  END
>  <minimizedAffinity>
0.173386857

>  <minimizedRMSD>
3.73553753

$$$$
