
 OpenBabel03212520293D

 27 29  0  0  0  0  0  0  0  0999 V2000
   40.2440   80.0740   58.5770 C   0  0  0  0  0  0  0  0  0  0  0  0
   41.0760   80.8410   57.7460 C   0  0  0  0  0  0  0  0  0  0  0  0
   41.4040   82.1460   58.1440 C   0  0  0  0  0  0  0  0  0  0  0  0
   40.8900   82.5930   59.3260 N   0  0  0  0  0  0  0  0  0  0  0  0
   40.1010   81.8310   60.0890 C   0  0  0  0  0  0  0  0  0  0  0  0
   39.7780   80.5780   59.7200 N   0  0  0  0  0  0  0  0  0  0  0  0
   40.0210   79.0750   58.2240 H   0  0  0  0  0  0  0  0  0  0  0  0
   42.0370   82.7530   57.5300 H   0  0  0  0  0  0  0  0  0  0  0  0
   41.5730   80.2890   56.5180 N   0  0  0  0  0  0  0  0  0  0  0  0
   42.7950   79.7810   56.6080 C   0  0  0  0  0  0  0  0  0  0  0  0
   43.3570   79.2210   55.4550 C   0  0  0  0  0  0  0  0  0  0  0  0
   42.6270   79.2120   54.2660 C   0  0  0  0  0  0  0  0  0  0  0  0
   43.0450   78.7330   53.1840 O   0  0  0  0  0  0  0  0  0  0  0  0
   41.3820   79.7540   54.2660 N   0  0  0  0  0  0  0  0  0  0  0  0
   40.8370   80.2980   55.3880 C   0  0  0  0  0  0  0  0  0  0  0  0
   39.6820   80.7990   55.3790 O   0  0  0  0  0  0  0  0  0  0  0  0
   43.3880   79.7730   57.5170 H   0  0  0  0  0  0  0  0  0  0  0  0
   44.3410   78.7910   55.4500 H   0  0  0  0  0  0  0  0  0  0  0  0
   40.7930   79.7710   53.3960 H   0  0  0  0  0  0  0  0  0  0  0  0
   39.5260   82.2630   61.3600 C   0  0  0  0  0  0  0  0  0  0  0  0
   39.6610   81.9060   62.6870 C   0  0  0  0  0  0  0  0  0  0  0  0
   40.3410   81.1160   62.9340 H   0  0  0  0  0  0  0  0  0  0  0  0
   38.8180   82.7230   63.3820 N   0  0  0  0  0  0  0  0  0  0  0  0
   38.7850   82.5920   64.4320 H   0  0  0  0  0  0  0  0  0  0  0  0
   38.1830   83.5570   62.5370 C   0  0  0  0  0  0  0  0  0  0  0  0
   37.4620   84.2950   62.8890 H   0  0  0  0  0  0  0  0  0  0  0  0
   38.6170   83.2790   61.2730 N   0  0  0  0  0  0  0  0  0  0  0  0
  1  6  1  0  0  0  0
  2  3  1  0  0  0  0
  2  1  2  0  0  0  0
  3  4  2  0  0  0  0
  4  5  1  0  0  0  0
  5 20  1  0  0  0  0
  6  5  2  0  0  0  0
  7  1  1  0  0  0  0
  8  3  1  0  0  0  0
  9 10  1  0  0  0  0
  9  2  1  0  0  0  0
 10 17  1  0  0  0  0
 11 10  2  0  0  0  0
 12 11  1  0  0  0  0
 13 12  2  0  0  0  0
 14 12  1  0  0  0  0
 14 15  1  0  0  0  0
 15  9  1  0  0  0  0
 16 15  2  0  0  0  0
 18 11  1  0  0  0  0
 19 14  1  0  0  0  0
 20 21  2  0  0  0  0
 21 22  1  0  0  0  0
 21 23  1  0  0  0  0
 23 24  1  0  0  0  0
 25 26  1  0  0  0  0
 25 23  1  0  0  0  0
 27 20  1  0  0  0  0
 27 25  2  0  0  0  0
M  END
>  <minimizedAffinity>
1.36406553

>  <minimizedRMSD>
5.81915998

$$$$
