
 OpenBabel03212520293D

 27 29  0  0  0  0  0  0  0  0999 V2000
   39.9840   80.3560   60.8290 C   0  0  0  0  0  0  0  0  0  0  0  0
   40.8440   80.4130   59.7190 C   0  0  0  0  0  0  0  0  0  0  0  0
   41.7800   81.4560   59.6490 C   0  0  0  0  0  0  0  0  0  0  0  0
   41.7990   82.3580   60.6720 N   0  0  0  0  0  0  0  0  0  0  0  0
   40.9630   82.2690   61.7100 C   0  0  0  0  0  0  0  0  0  0  0  0
   40.0600   81.2750   61.7910 N   0  0  0  0  0  0  0  0  0  0  0  0
   39.2800   79.5340   60.8340 H   0  0  0  0  0  0  0  0  0  0  0  0
   42.4490   81.5230   58.8150 H   0  0  0  0  0  0  0  0  0  0  0  0
   40.7540   79.4190   58.6880 N   0  0  0  0  0  0  0  0  0  0  0  0
   41.4980   78.3430   58.9080 C   0  0  0  0  0  0  0  0  0  0  0  0
   41.4700   77.3230   57.9500 C   0  0  0  0  0  0  0  0  0  0  0  0
   40.6730   77.4650   56.8140 C   0  0  0  0  0  0  0  0  0  0  0  0
   40.5820   76.6060   55.9030 O   0  0  0  0  0  0  0  0  0  0  0  0
   39.9430   78.6010   56.6710 N   0  0  0  0  0  0  0  0  0  0  0  0
   39.9720   79.5920   57.6030 C   0  0  0  0  0  0  0  0  0  0  0  0
   39.2910   80.6430   57.4640 O   0  0  0  0  0  0  0  0  0  0  0  0
   42.1280   78.2040   59.7800 H   0  0  0  0  0  0  0  0  0  0  0  0
   42.0450   76.4230   58.0580 H   0  0  0  0  0  0  0  0  0  0  0  0
   39.3270   78.7550   55.8340 H   0  0  0  0  0  0  0  0  0  0  0  0
   40.9430   83.2080   62.8280 C   0  0  0  0  0  0  0  0  0  0  0  0
   39.9750   83.8800   63.5470 C   0  0  0  0  0  0  0  0  0  0  0  0
   38.9470   83.7280   63.2820 H   0  0  0  0  0  0  0  0  0  0  0  0
   40.6440   84.6170   64.4800 N   0  0  0  0  0  0  0  0  0  0  0  0
   40.0560   85.2060   65.1340 H   0  0  0  0  0  0  0  0  0  0  0  0
   41.9710   84.4220   64.3560 C   0  0  0  0  0  0  0  0  0  0  0  0
   42.6890   84.9200   65.0080 H   0  0  0  0  0  0  0  0  0  0  0  0
   42.1690   83.5450   63.3290 N   0  0  0  0  0  0  0  0  0  0  0  0
  1  7  1  0  0  0  0
  1  6  1  0  0  0  0
  2  1  2  0  0  0  0
  3  2  1  0  0  0  0
  3  4  2  0  0  0  0
  4  5  1  0  0  0  0
  5  6  2  0  0  0  0
  5 20  1  0  0  0  0
  8  3  1  0  0  0  0
  9 10  1  0  0  0  0
  9  2  1  0  0  0  0
 10 17  1  0  0  0  0
 11 18  1  0  0  0  0
 11 10  2  0  0  0  0
 12 11  1  0  0  0  0
 13 12  2  0  0  0  0
 14 12  1  0  0  0  0
 14 15  1  0  0  0  0
 15  9  1  0  0  0  0
 16 15  2  0  0  0  0
 19 14  1  0  0  0  0
 20 27  1  0  0  0  0
 20 21  2  0  0  0  0
 21 23  1  0  0  0  0
 22 21  1  0  0  0  0
 23 24  1  0  0  0  0
 25 23  1  0  0  0  0
 25 26  1  0  0  0  0
 27 25  2  0  0  0  0
M  END
>  <minimizedAffinity>
-4.15982342

>  <minimizedRMSD>
4.3188405

$$$$
