
 OpenBabel03212520483D

 27 29  0  0  0  0  0  0  0  0999 V2000
   41.6010   83.8790   61.4660 C   0  0  0  0  0  0  0  0  0  0  0  0
   41.3170   84.2960   62.7610 C   0  0  0  0  0  0  0  0  0  0  0  0
   40.8520   83.4000   63.7260 C   0  0  0  0  0  0  0  0  0  0  0  0
   40.6740   82.0950   63.3930 N   0  0  0  0  0  0  0  0  0  0  0  0
   40.9550   81.7150   62.1390 C   0  0  0  0  0  0  0  0  0  0  0  0
   41.4100   82.5820   61.1830 N   0  0  0  0  0  0  0  0  0  0  0  0
   41.4680   85.3280   62.9880 H   0  0  0  0  0  0  0  0  0  0  0  0
   40.6660   83.8350   64.6900 H   0  0  0  0  0  0  0  0  0  0  0  0
   43.6290   86.3810   59.7350 C   0  0  0  0  0  0  0  0  0  0  0  0
   42.9270   86.5240   58.5200 C   0  0  0  0  0  0  0  0  0  0  0  0
   41.7740   85.7690   58.3060 C   0  0  0  0  0  0  0  0  0  0  0  0
   41.3940   84.9220   59.3080 N   0  0  0  0  0  0  0  0  0  0  0  0
   42.0880   84.8140   60.4520 C   0  0  0  0  0  0  0  0  0  0  0  0
   43.1960   85.5290   60.6780 N   0  0  0  0  0  0  0  0  0  0  0  0
   44.7650   87.2100   59.7950 N   0  0  0  0  0  0  0  0  0  0  0  0
   43.2060   87.1870   57.7120 H   0  0  0  0  0  0  0  0  0  0  0  0
   41.1890   85.8310   57.3960 H   0  0  0  0  0  0  0  0  0  0  0  0
   45.0780   87.8340   60.5670 H   0  0  0  0  0  0  0  0  0  0  0  0
   45.4420   87.2680   58.9950 H   0  0  0  0  0  0  0  0  0  0  0  0
   40.7590   80.3110   61.7970 C   0  0  0  0  0  0  0  0  0  0  0  0
   40.3160   80.0210   60.5090 C   0  0  0  0  0  0  0  0  0  0  0  0
   40.0660   80.6200   59.6480 H   0  0  0  0  0  0  0  0  0  0  0  0
   40.2160   78.6660   60.4470 N   0  0  0  0  0  0  0  0  0  0  0  0
   39.9140   78.0380   59.6450 H   0  0  0  0  0  0  0  0  0  0  0  0
   40.5760   78.1190   61.6350 C   0  0  0  0  0  0  0  0  0  0  0  0
   40.6110   77.0780   61.9280 H   0  0  0  0  0  0  0  0  0  0  0  0
   40.9130   79.1330   62.4720 N   0  0  0  0  0  0  0  0  0  0  0  0
  1  2  1  0  0  0  0
  2  7  1  0  0  0  0
  2  3  2  0  0  0  0
  3  8  1  0  0  0  0
  4  3  1  0  0  0  0
  5  4  2  0  0  0  0
  6  1  2  0  0  0  0
  6  5  1  0  0  0  0
  9 15  1  0  0  0  0
  9 14  1  0  0  0  0
 10  9  2  0  0  0  0
 11 10  1  0  0  0  0
 11 12  2  0  0  0  0
 12 13  1  0  0  0  0
 13 14  2  0  0  0  0
 13  1  1  0  0  0  0
 15 18  1  0  0  0  0
 16 10  1  0  0  0  0
 17 11  1  0  0  0  0
 19 15  1  0  0  0  0
 20  5  1  0  0  0  0
 20 27  1  0  0  0  0
 21 20  2  0  0  0  0
 22 21  1  0  0  0  0
 23 21  1  0  0  0  0
 23 25  1  0  0  0  0
 24 23  1  0  0  0  0
 25 26  1  0  0  0  0
 25 27  2  0  0  0  0
M  END
>  <minimizedAffinity>
-5.18912601

>  <minimizedRMSD>
0.4381181

$$$$
