
 OpenBabel03212520373D

 25 27  0  0  1  0  0  0  0  0999 V2000
   43.4720   85.5160   60.7860 C   0  0  1  0  0  0  0  0  0  0  0  0
   44.7540   85.7100   60.0060 C   0  0  0  0  0  0  0  0  0  0  0  0
   43.7380   84.6780   59.5900 C   0  0  2  0  0  0  0  0  0  0  0  0
   42.8320   86.4180   60.7620 H   0  0  0  0  0  0  0  0  0  0  0  0
   45.7170   85.3940   60.4310 H   0  0  0  0  0  0  0  0  0  0  0  0
   44.8600   86.5880   59.3360 H   0  0  0  0  0  0  0  0  0  0  0  0
   43.9840   83.6160   59.7650 H   0  0  0  0  0  0  0  0  0  0  0  0
   42.8230   85.0080   58.4430 C   0  0  0  0  0  0  0  0  0  0  0  0
   42.9020   84.7000   57.0990 C   0  0  0  0  0  0  0  0  0  0  0  0
   43.7150   84.1260   56.6750 H   0  0  0  0  0  0  0  0  0  0  0  0
   41.8140   85.2380   56.4840 N   0  0  0  0  0  0  0  0  0  0  0  0
   41.5980   85.1710   55.4620 H   0  0  0  0  0  0  0  0  0  0  0  0
   41.0570   85.8770   57.4200 C   0  0  0  0  0  0  0  0  0  0  0  0
   40.1170   86.4170   57.2710 H   0  0  0  0  0  0  0  0  0  0  0  0
   41.6760   85.7310   58.5980 N   0  0  0  0  0  0  0  0  0  0  0  0
   43.6670   84.9190   62.0570 O   0  0  0  0  0  0  0  0  0  0  0  0
   41.0770   82.6680   63.2080 C   0  0  0  0  0  0  0  0  0  0  0  0
   40.4890   83.4040   64.2430 C   0  0  0  0  0  0  0  0  0  0  0  0
   41.0150   84.6840   64.5200 C   0  0  0  0  0  0  0  0  0  0  0  0
   42.0410   85.0680   63.7490 N   0  0  0  0  0  0  0  0  0  0  0  0
   42.6050   84.3730   62.7630 C   0  0  0  0  0  0  0  0  0  0  0  0
   42.1140   83.1400   62.4800 N   0  0  0  0  0  0  0  0  0  0  0  0
   40.6860   81.6830   62.9790 H   0  0  0  0  0  0  0  0  0  0  0  0
   39.6710   83.0410   64.8200 H   0  0  0  0  0  0  0  0  0  0  0  0
   40.6130   85.3030   65.3000 H   0  0  0  0  0  0  0  0  0  0  0  0
  1  4  1  6  0  0  0
  1 16  1  0  0  0  0
  2  5  1  0  0  0  0
  2  1  1  0  0  0  0
  3  7  1  1  0  0  0
  3  2  1  0  0  0  0
  3  1  1  0  0  0  0
  6  2  1  0  0  0  0
  8 15  1  0  0  0  0
  8  3  1  0  0  0  0
  9  8  2  0  0  0  0
 10  9  1  0  0  0  0
 11  9  1  0  0  0  0
 11 13  1  0  0  0  0
 12 11  1  0  0  0  0
 13 15  2  0  0  0  0
 14 13  1  0  0  0  0
 16 21  1  0  0  0  0
 17 18  1  0  0  0  0
 18 19  2  0  0  0  0
 18 24  1  0  0  0  0
 19 25  1  0  0  0  0
 20 19  1  0  0  0  0
 21 20  2  0  0  0  0
 22 21  1  0  0  0  0
 22 17  2  0  0  0  0
 23 17  1  0  0  0  0
M  END
>  <minimizedAffinity>
-4.23810816

>  <minimizedRMSD>
1.34112096

$$$$
