
 OpenBabel03212520483D

 27 29  0  0  0  0  0  0  0  0999 V2000
   41.5860   83.7830   61.3990 C   0  0  0  0  0  0  0  0  0  0  0  0
   41.3300   84.1520   62.7140 C   0  0  0  0  0  0  0  0  0  0  0  0
   40.8700   83.2250   63.6510 C   0  0  0  0  0  0  0  0  0  0  0  0
   40.6680   81.9370   63.2710 N   0  0  0  0  0  0  0  0  0  0  0  0
   40.9220   81.6030   61.9990 C   0  0  0  0  0  0  0  0  0  0  0  0
   41.3720   82.5000   61.0690 N   0  0  0  0  0  0  0  0  0  0  0  0
   41.4990   85.1730   62.9770 H   0  0  0  0  0  0  0  0  0  0  0  0
   40.7070   83.6250   64.6350 H   0  0  0  0  0  0  0  0  0  0  0  0
   43.5900   86.3580   59.7500 C   0  0  0  0  0  0  0  0  0  0  0  0
   42.8980   86.5200   58.5320 C   0  0  0  0  0  0  0  0  0  0  0  0
   41.7600   85.7520   58.2880 C   0  0  0  0  0  0  0  0  0  0  0  0
   41.3830   84.8760   59.2650 N   0  0  0  0  0  0  0  0  0  0  0  0
   42.0680   84.7490   60.4120 C   0  0  0  0  0  0  0  0  0  0  0  0
   43.1620   85.4760   60.6670 N   0  0  0  0  0  0  0  0  0  0  0  0
   44.7120   87.2030   59.8420 N   0  0  0  0  0  0  0  0  0  0  0  0
   43.1740   87.2070   57.7440 H   0  0  0  0  0  0  0  0  0  0  0  0
   41.1820   85.8280   57.3740 H   0  0  0  0  0  0  0  0  0  0  0  0
   45.0090   87.8120   60.6320 H   0  0  0  0  0  0  0  0  0  0  0  0
   45.3970   87.2910   59.0510 H   0  0  0  0  0  0  0  0  0  0  0  0
   40.7010   80.2150   61.6060 C   0  0  0  0  0  0  0  0  0  0  0  0
   40.8730   79.2380   62.5840 C   0  0  0  0  0  0  0  0  0  0  0  0
   41.1470   79.2570   63.6260 H   0  0  0  0  0  0  0  0  0  0  0  0
   40.6110   78.0510   61.9720 N   0  0  0  0  0  0  0  0  0  0  0  0
   40.6280   77.0620   62.3600 H   0  0  0  0  0  0  0  0  0  0  0  0
   40.2890   78.2620   60.6710 C   0  0  0  0  0  0  0  0  0  0  0  0
   40.0270   77.5420   59.9040 H   0  0  0  0  0  0  0  0  0  0  0  0
   40.3430   79.5970   60.4410 N   0  0  0  0  0  0  0  0  0  0  0  0
  1  2  1  0  0  0  0
  2  7  1  0  0  0  0
  2  3  2  0  0  0  0
  3  8  1  0  0  0  0
  4  3  1  0  0  0  0
  5  4  2  0  0  0  0
  6  1  2  0  0  0  0
  6  5  1  0  0  0  0
  9 15  1  0  0  0  0
  9 14  1  0  0  0  0
 10  9  2  0  0  0  0
 11 10  1  0  0  0  0
 11 12  2  0  0  0  0
 12 13  1  0  0  0  0
 13 14  2  0  0  0  0
 13  1  1  0  0  0  0
 15 18  1  0  0  0  0
 16 10  1  0  0  0  0
 17 11  1  0  0  0  0
 19 15  1  0  0  0  0
 20  5  1  0  0  0  0
 20 21  2  0  0  0  0
 21 22  1  0  0  0  0
 23 24  1  0  0  0  0
 23 21  1  0  0  0  0
 25 23  1  0  0  0  0
 26 25  1  0  0  0  0
 27 25  2  0  0  0  0
 27 20  1  0  0  0  0
M  END
>  <minimizedAffinity>
-5.17878866

>  <minimizedRMSD>
0.544086814

$$$$
