
 OpenBabel03212520483D

 27 29  0  0  0  0  0  0  0  0999 V2000
   41.5950   83.9320   61.5050 C   0  0  0  0  0  0  0  0  0  0  0  0
   41.3280   84.3740   62.7950 C   0  0  0  0  0  0  0  0  0  0  0  0
   40.8580   83.5010   63.7770 C   0  0  0  0  0  0  0  0  0  0  0  0
   40.6560   82.1940   63.4670 N   0  0  0  0  0  0  0  0  0  0  0  0
   40.9200   81.7900   62.2170 C   0  0  0  0  0  0  0  0  0  0  0  0
   41.3810   82.6330   61.2440 N   0  0  0  0  0  0  0  0  0  0  0  0
   41.4980   85.4070   63.0040 H   0  0  0  0  0  0  0  0  0  0  0  0
   40.6870   83.9540   64.7370 H   0  0  0  0  0  0  0  0  0  0  0  0
   43.6420   86.3810   59.7210 C   0  0  0  0  0  0  0  0  0  0  0  0
   42.9390   86.5070   58.5050 C   0  0  0  0  0  0  0  0  0  0  0  0
   41.7780   85.7580   58.3080 C   0  0  0  0  0  0  0  0  0  0  0  0
   41.3930   84.9350   59.3270 N   0  0  0  0  0  0  0  0  0  0  0  0
   42.0890   84.8420   60.4710 C   0  0  0  0  0  0  0  0  0  0  0  0
   43.2040   85.5510   60.6810 N   0  0  0  0  0  0  0  0  0  0  0  0
   44.7860   87.2000   59.7630 N   0  0  0  0  0  0  0  0  0  0  0  0
   43.2220   87.1510   57.6840 H   0  0  0  0  0  0  0  0  0  0  0  0
   41.1920   85.8090   57.3980 H   0  0  0  0  0  0  0  0  0  0  0  0
   45.1070   87.8360   60.5220 H   0  0  0  0  0  0  0  0  0  0  0  0
   45.4620   87.2370   58.9610 H   0  0  0  0  0  0  0  0  0  0  0  0
   40.6980   80.3830   61.8990 C   0  0  0  0  0  0  0  0  0  0  0  0
   40.5070   80.0520   60.5590 C   0  0  0  0  0  0  0  0  0  0  0  0
   40.4810   80.6170   59.6430 H   0  0  0  0  0  0  0  0  0  0  0  0
   40.3250   78.7040   60.5330 N   0  0  0  0  0  0  0  0  0  0  0  0
   40.1480   78.0530   59.7130 H   0  0  0  0  0  0  0  0  0  0  0  0
   40.3970   78.2010   61.7920 C   0  0  0  0  0  0  0  0  0  0  0  0
   40.2980   77.1770   62.1270 H   0  0  0  0  0  0  0  0  0  0  0  0
   40.6280   79.2360   62.6380 N   0  0  0  0  0  0  0  0  0  0  0  0
  1  2  1  0  0  0  0
  2  7  1  0  0  0  0
  2  3  2  0  0  0  0
  3  8  1  0  0  0  0
  4  3  1  0  0  0  0
  5  4  2  0  0  0  0
  6  1  2  0  0  0  0
  6  5  1  0  0  0  0
  9 15  1  0  0  0  0
  9 14  1  0  0  0  0
 10  9  2  0  0  0  0
 11 10  1  0  0  0  0
 11 12  2  0  0  0  0
 12 13  1  0  0  0  0
 13 14  2  0  0  0  0
 13  1  1  0  0  0  0
 15 18  1  0  0  0  0
 16 10  1  0  0  0  0
 17 11  1  0  0  0  0
 19 15  1  0  0  0  0
 20  5  1  0  0  0  0
 20 27  1  0  0  0  0
 21 20  2  0  0  0  0
 22 21  1  0  0  0  0
 23 21  1  0  0  0  0
 23 25  1  0  0  0  0
 24 23  1  0  0  0  0
 25 26  1  0  0  0  0
 25 27  2  0  0  0  0
M  END
>  <minimizedAffinity>
-5.26078176

>  <minimizedRMSD>
0.498954087

$$$$
