
 OpenBabel03212520483D

 27 29  0  0  0  0  0  0  0  0999 V2000
   41.5970   83.9530   61.5410 C   0  0  0  0  0  0  0  0  0  0  0  0
   41.1800   84.4250   62.7790 C   0  0  0  0  0  0  0  0  0  0  0  0
   40.7050   83.5570   63.7640 C   0  0  0  0  0  0  0  0  0  0  0  0
   40.6500   82.2250   63.5080 N   0  0  0  0  0  0  0  0  0  0  0  0
   41.0580   81.7910   62.3080 C   0  0  0  0  0  0  0  0  0  0  0  0
   41.5250   82.6290   61.3330 N   0  0  0  0  0  0  0  0  0  0  0  0
   41.2360   85.4780   62.9460 H   0  0  0  0  0  0  0  0  0  0  0  0
   40.4100   84.0350   64.6800 H   0  0  0  0  0  0  0  0  0  0  0  0
   43.6530   86.3920   59.7550 C   0  0  0  0  0  0  0  0  0  0  0  0
   42.9550   86.5130   58.5350 C   0  0  0  0  0  0  0  0  0  0  0  0
   41.7950   85.7640   58.3360 C   0  0  0  0  0  0  0  0  0  0  0  0
   41.4050   84.9450   59.3580 N   0  0  0  0  0  0  0  0  0  0  0  0
   42.0960   84.8580   60.5050 C   0  0  0  0  0  0  0  0  0  0  0  0
   43.2100   85.5680   60.7160 N   0  0  0  0  0  0  0  0  0  0  0  0
   44.7960   87.2120   59.7980 N   0  0  0  0  0  0  0  0  0  0  0  0
   43.2420   87.1530   57.7120 H   0  0  0  0  0  0  0  0  0  0  0  0
   41.2130   85.8090   57.4240 H   0  0  0  0  0  0  0  0  0  0  0  0
   45.1140   87.8510   60.5550 H   0  0  0  0  0  0  0  0  0  0  0  0
   45.4760   87.2450   58.9980 H   0  0  0  0  0  0  0  0  0  0  0  0
   40.9930   80.3570   62.0480 C   0  0  0  0  0  0  0  0  0  0  0  0
   41.6660   79.8790   60.9250 C   0  0  0  0  0  0  0  0  0  0  0  0
   42.2600   80.3390   60.1530 H   0  0  0  0  0  0  0  0  0  0  0  0
   41.4520   78.5350   60.9100 N   0  0  0  0  0  0  0  0  0  0  0  0
   41.7880   77.7970   60.2250 H   0  0  0  0  0  0  0  0  0  0  0  0
   40.6830   78.1750   61.9680 C   0  0  0  0  0  0  0  0  0  0  0  0
   40.3270   77.1940   62.2540 H   0  0  0  0  0  0  0  0  0  0  0  0
   40.3980   79.2980   62.6740 N   0  0  0  0  0  0  0  0  0  0  0  0
  1  2  1  0  0  0  0
  2  7  1  0  0  0  0
  2  3  2  0  0  0  0
  3  8  1  0  0  0  0
  4  3  1  0  0  0  0
  5  4  2  0  0  0  0
  6  1  2  0  0  0  0
  6  5  1  0  0  0  0
  9 15  1  0  0  0  0
  9 14  1  0  0  0  0
 10  9  2  0  0  0  0
 11 10  1  0  0  0  0
 11 12  2  0  0  0  0
 12 13  1  0  0  0  0
 13 14  2  0  0  0  0
 13  1  1  0  0  0  0
 15 18  1  0  0  0  0
 16 10  1  0  0  0  0
 17 11  1  0  0  0  0
 19 15  1  0  0  0  0
 20  5  1  0  0  0  0
 20 27  1  0  0  0  0
 21 20  2  0  0  0  0
 22 21  1  0  0  0  0
 23 21  1  0  0  0  0
 23 25  1  0  0  0  0
 24 23  1  0  0  0  0
 25 26  1  0  0  0  0
 25 27  2  0  0  0  0
M  END
>  <minimizedAffinity>
-5.21703243

>  <minimizedRMSD>
0.175889954

$$$$
