
 OpenBabel03212520483D

 27 29  0  0  0  0  0  0  0  0999 V2000
   41.6370   83.7730   61.4500 C   0  0  0  0  0  0  0  0  0  0  0  0
   41.3620   84.1330   62.7640 C   0  0  0  0  0  0  0  0  0  0  0  0
   40.8760   83.2020   63.6840 C   0  0  0  0  0  0  0  0  0  0  0  0
   40.6670   81.9200   63.2880 N   0  0  0  0  0  0  0  0  0  0  0  0
   40.9400   81.5950   62.0170 C   0  0  0  0  0  0  0  0  0  0  0  0
   41.4160   82.4950   61.1040 N   0  0  0  0  0  0  0  0  0  0  0  0
   41.5370   85.1490   63.0400 H   0  0  0  0  0  0  0  0  0  0  0  0
   40.7000   83.5940   64.6690 H   0  0  0  0  0  0  0  0  0  0  0  0
   43.6420   86.4060   59.8960 C   0  0  0  0  0  0  0  0  0  0  0  0
   43.0310   86.5180   58.6300 C   0  0  0  0  0  0  0  0  0  0  0  0
   41.9470   85.6980   58.3210 C   0  0  0  0  0  0  0  0  0  0  0  0
   41.5400   84.8210   59.2860 N   0  0  0  0  0  0  0  0  0  0  0  0
   42.1460   84.7440   60.4810 C   0  0  0  0  0  0  0  0  0  0  0  0
   43.1880   85.5220   60.7980 N   0  0  0  0  0  0  0  0  0  0  0  0
   44.7180   87.3010   60.0510 N   0  0  0  0  0  0  0  0  0  0  0  0
   43.3330   87.2040   57.8490 H   0  0  0  0  0  0  0  0  0  0  0  0
   41.4330   85.7330   57.3680 H   0  0  0  0  0  0  0  0  0  0  0  0
   44.9310   87.9350   60.8470 H   0  0  0  0  0  0  0  0  0  0  0  0
   45.4520   87.4060   59.3080 H   0  0  0  0  0  0  0  0  0  0  0  0
   40.7110   80.2130   61.6080 C   0  0  0  0  0  0  0  0  0  0  0  0
   40.8660   79.2240   62.5770 C   0  0  0  0  0  0  0  0  0  0  0  0
   41.1300   79.2300   63.6210 H   0  0  0  0  0  0  0  0  0  0  0  0
   40.6010   78.0460   61.9500 N   0  0  0  0  0  0  0  0  0  0  0  0
   40.6070   77.0530   62.3270 H   0  0  0  0  0  0  0  0  0  0  0  0
   40.2920   78.2720   60.6480 C   0  0  0  0  0  0  0  0  0  0  0  0
   40.0330   77.5650   59.8710 H   0  0  0  0  0  0  0  0  0  0  0  0
   40.3600   79.6110   60.4330 N   0  0  0  0  0  0  0  0  0  0  0  0
  1  2  1  0  0  0  0
  2  7  1  0  0  0  0
  2  3  2  0  0  0  0
  3  8  1  0  0  0  0
  4  3  1  0  0  0  0
  5  4  2  0  0  0  0
  6  1  2  0  0  0  0
  6  5  1  0  0  0  0
  9 15  1  0  0  0  0
  9 14  1  0  0  0  0
 10  9  2  0  0  0  0
 11 10  1  0  0  0  0
 11 12  2  0  0  0  0
 12 13  1  0  0  0  0
 13 14  2  0  0  0  0
 13  1  1  0  0  0  0
 15 18  1  0  0  0  0
 16 10  1  0  0  0  0
 17 11  1  0  0  0  0
 19 15  1  0  0  0  0
 20  5  1  0  0  0  0
 20 21  2  0  0  0  0
 21 22  1  0  0  0  0
 23 24  1  0  0  0  0
 23 21  1  0  0  0  0
 25 23  1  0  0  0  0
 26 25  1  0  0  0  0
 27 25  2  0  0  0  0
 27 20  1  0  0  0  0
M  END
>  <minimizedAffinity>
-5.18281889

>  <minimizedRMSD>
0.577084899

$$$$
