
 OpenBabel03212520483D

 27 29  0  0  0  0  0  0  0  0999 V2000
   41.6010   83.8780   61.4510 C   0  0  0  0  0  0  0  0  0  0  0  0
   41.1210   84.3120   62.6810 C   0  0  0  0  0  0  0  0  0  0  0  0
   40.6570   83.4080   63.6380 C   0  0  0  0  0  0  0  0  0  0  0  0
   40.6730   82.0790   63.3620 N   0  0  0  0  0  0  0  0  0  0  0  0
   41.1400   81.6820   62.1710 C   0  0  0  0  0  0  0  0  0  0  0  0
   41.5980   82.5560   61.2230 N   0  0  0  0  0  0  0  0  0  0  0  0
   41.1220   85.3640   62.8630 H   0  0  0  0  0  0  0  0  0  0  0  0
   40.3100   83.8580   64.5500 H   0  0  0  0  0  0  0  0  0  0  0  0
   43.6240   86.4010   59.7460 C   0  0  0  0  0  0  0  0  0  0  0  0
   42.9290   86.5460   58.5270 C   0  0  0  0  0  0  0  0  0  0  0  0
   41.7830   85.7840   58.3010 C   0  0  0  0  0  0  0  0  0  0  0  0
   41.4020   84.9310   59.2970 N   0  0  0  0  0  0  0  0  0  0  0  0
   42.0890   84.8210   60.4440 C   0  0  0  0  0  0  0  0  0  0  0  0
   43.1910   85.5420   60.6810 N   0  0  0  0  0  0  0  0  0  0  0  0
   44.7540   87.2380   59.8180 N   0  0  0  0  0  0  0  0  0  0  0  0
   43.2100   87.2150   57.7240 H   0  0  0  0  0  0  0  0  0  0  0  0
   41.2040   85.8470   57.3880 H   0  0  0  0  0  0  0  0  0  0  0  0
   45.0580   87.8590   60.5950 H   0  0  0  0  0  0  0  0  0  0  0  0
   45.4360   87.3040   59.0230 H   0  0  0  0  0  0  0  0  0  0  0  0
   41.1520   80.2510   61.8900 C   0  0  0  0  0  0  0  0  0  0  0  0
   42.3870   79.6050   61.9110 C   0  0  0  0  0  0  0  0  0  0  0  0
   43.3980   79.9240   62.0960 H   0  0  0  0  0  0  0  0  0  0  0  0
   42.1270   78.3000   61.6220 N   0  0  0  0  0  0  0  0  0  0  0  0
   42.7870   77.4740   61.5390 H   0  0  0  0  0  0  0  0  0  0  0  0
   40.7950   78.1240   61.4290 C   0  0  0  0  0  0  0  0  0  0  0  0
   40.2510   77.2210   61.1840 H   0  0  0  0  0  0  0  0  0  0  0  0
   40.1900   79.3270   61.5930 N   0  0  0  0  0  0  0  0  0  0  0  0
  1  2  1  0  0  0  0
  2  7  1  0  0  0  0
  2  3  2  0  0  0  0
  3  8  1  0  0  0  0
  4  3  1  0  0  0  0
  5  4  2  0  0  0  0
  6  1  2  0  0  0  0
  6  5  1  0  0  0  0
  9 15  1  0  0  0  0
  9 14  1  0  0  0  0
 10  9  2  0  0  0  0
 11 10  1  0  0  0  0
 11 12  2  0  0  0  0
 12 13  1  0  0  0  0
 13 14  2  0  0  0  0
 13  1  1  0  0  0  0
 15 18  1  0  0  0  0
 16 10  1  0  0  0  0
 17 11  1  0  0  0  0
 19 15  1  0  0  0  0
 20 21  2  0  0  0  0
 20  5  1  0  0  0  0
 21 22  1  0  0  0  0
 23 21  1  0  0  0  0
 24 23  1  0  0  0  0
 25 27  2  0  0  0  0
 25 23  1  0  0  0  0
 26 25  1  0  0  0  0
 27 20  1  0  0  0  0
M  END
>  <minimizedAffinity>
-4.99572372

>  <minimizedRMSD>
0.204156727

$$$$
