
 OpenBabel03212520483D

 27 29  0  0  0  0  0  0  0  0999 V2000
   41.5860   83.7820   61.3990 C   0  0  0  0  0  0  0  0  0  0  0  0
   41.3310   84.1520   62.7140 C   0  0  0  0  0  0  0  0  0  0  0  0
   40.8710   83.2250   63.6510 C   0  0  0  0  0  0  0  0  0  0  0  0
   40.6690   81.9370   63.2710 N   0  0  0  0  0  0  0  0  0  0  0  0
   40.9220   81.6030   61.9990 C   0  0  0  0  0  0  0  0  0  0  0  0
   41.3730   82.5000   61.0690 N   0  0  0  0  0  0  0  0  0  0  0  0
   41.5000   85.1720   62.9780 H   0  0  0  0  0  0  0  0  0  0  0  0
   40.7080   83.6240   64.6350 H   0  0  0  0  0  0  0  0  0  0  0  0
   43.5910   86.3580   59.7500 C   0  0  0  0  0  0  0  0  0  0  0  0
   42.8980   86.5200   58.5330 C   0  0  0  0  0  0  0  0  0  0  0  0
   41.7600   85.7520   58.2880 C   0  0  0  0  0  0  0  0  0  0  0  0
   41.3840   84.8760   59.2650 N   0  0  0  0  0  0  0  0  0  0  0  0
   42.0690   84.7490   60.4130 C   0  0  0  0  0  0  0  0  0  0  0  0
   43.1630   85.4760   60.6670 N   0  0  0  0  0  0  0  0  0  0  0  0
   44.7130   87.2030   59.8430 N   0  0  0  0  0  0  0  0  0  0  0  0
   43.1750   87.2070   57.7440 H   0  0  0  0  0  0  0  0  0  0  0  0
   41.1830   85.8280   57.3750 H   0  0  0  0  0  0  0  0  0  0  0  0
   45.0090   87.8120   60.6330 H   0  0  0  0  0  0  0  0  0  0  0  0
   45.3970   87.2910   59.0510 H   0  0  0  0  0  0  0  0  0  0  0  0
   40.7000   80.2150   61.6060 C   0  0  0  0  0  0  0  0  0  0  0  0
   40.8720   79.2380   62.5850 C   0  0  0  0  0  0  0  0  0  0  0  0
   41.1460   79.2570   63.6260 H   0  0  0  0  0  0  0  0  0  0  0  0
   40.6110   78.0500   61.9720 N   0  0  0  0  0  0  0  0  0  0  0  0
   40.6270   77.0620   62.3600 H   0  0  0  0  0  0  0  0  0  0  0  0
   40.2890   78.2620   60.6700 C   0  0  0  0  0  0  0  0  0  0  0  0
   40.0270   77.5430   59.9050 H   0  0  0  0  0  0  0  0  0  0  0  0
   40.3430   79.5970   60.4410 N   0  0  0  0  0  0  0  0  0  0  0  0
  1  2  1  0  0  0  0
  2  7  1  0  0  0  0
  2  3  2  0  0  0  0
  3  8  1  0  0  0  0
  4  3  1  0  0  0  0
  5  4  2  0  0  0  0
  6  1  2  0  0  0  0
  6  5  1  0  0  0  0
  9 15  1  0  0  0  0
  9 14  1  0  0  0  0
 10  9  2  0  0  0  0
 11 10  1  0  0  0  0
 11 12  2  0  0  0  0
 12 13  1  0  0  0  0
 13 14  2  0  0  0  0
 13  1  1  0  0  0  0
 15 18  1  0  0  0  0
 16 10  1  0  0  0  0
 17 11  1  0  0  0  0
 19 15  1  0  0  0  0
 20  5  1  0  0  0  0
 20 21  2  0  0  0  0
 21 22  1  0  0  0  0
 23 24  1  0  0  0  0
 23 21  1  0  0  0  0
 25 23  1  0  0  0  0
 26 25  1  0  0  0  0
 27 25  2  0  0  0  0
 27 20  1  0  0  0  0
M  END
>  <minimizedAffinity>
-5.17851973

>  <minimizedRMSD>
0.546034157

$$$$
