
 OpenBabel03212520483D

 27 29  0  0  0  0  0  0  0  0999 V2000
   41.6360   83.8720   61.4950 C   0  0  0  0  0  0  0  0  0  0  0  0
   41.1450   84.2970   62.7230 C   0  0  0  0  0  0  0  0  0  0  0  0
   40.6620   83.3870   63.6650 C   0  0  0  0  0  0  0  0  0  0  0  0
   40.6710   82.0600   63.3760 N   0  0  0  0  0  0  0  0  0  0  0  0
   41.1490   81.6730   62.1860 C   0  0  0  0  0  0  0  0  0  0  0  0
   41.6260   82.5520   61.2530 N   0  0  0  0  0  0  0  0  0  0  0  0
   41.1530   85.3470   62.9170 H   0  0  0  0  0  0  0  0  0  0  0  0
   40.3080   83.8310   64.5780 H   0  0  0  0  0  0  0  0  0  0  0  0
   43.6670   86.4370   59.8630 C   0  0  0  0  0  0  0  0  0  0  0  0
   43.0250   86.5560   58.6140 C   0  0  0  0  0  0  0  0  0  0  0  0
   41.9100   85.7630   58.3420 C   0  0  0  0  0  0  0  0  0  0  0  0
   41.5070   84.9060   59.3260 N   0  0  0  0  0  0  0  0  0  0  0  0
   42.1450   84.8210   60.5040 C   0  0  0  0  0  0  0  0  0  0  0  0
   43.2150   85.5730   60.7850 N   0  0  0  0  0  0  0  0  0  0  0  0
   44.7710   87.3040   59.9800 N   0  0  0  0  0  0  0  0  0  0  0  0
   43.3230   87.2270   57.8190 H   0  0  0  0  0  0  0  0  0  0  0  0
   41.3720   85.8050   57.4030 H   0  0  0  0  0  0  0  0  0  0  0  0
   45.0230   87.9380   60.7650 H   0  0  0  0  0  0  0  0  0  0  0  0
   45.4860   87.3840   59.2160 H   0  0  0  0  0  0  0  0  0  0  0  0
   41.1520   80.2440   61.8900 C   0  0  0  0  0  0  0  0  0  0  0  0
   42.3830   79.5900   61.9060 C   0  0  0  0  0  0  0  0  0  0  0  0
   43.3960   79.9010   62.0950 H   0  0  0  0  0  0  0  0  0  0  0  0
   42.1150   78.2900   61.6040 N   0  0  0  0  0  0  0  0  0  0  0  0
   42.7710   77.4600   61.5120 H   0  0  0  0  0  0  0  0  0  0  0  0
   40.7830   78.1250   61.4060 C   0  0  0  0  0  0  0  0  0  0  0  0
   40.2340   77.2270   61.1520 H   0  0  0  0  0  0  0  0  0  0  0  0
   40.1860   79.3300   61.5820 N   0  0  0  0  0  0  0  0  0  0  0  0
  1  2  1  0  0  0  0
  2  7  1  0  0  0  0
  2  3  2  0  0  0  0
  3  8  1  0  0  0  0
  4  3  1  0  0  0  0
  5  4  2  0  0  0  0
  6  1  2  0  0  0  0
  6  5  1  0  0  0  0
  9 15  1  0  0  0  0
  9 14  1  0  0  0  0
 10  9  2  0  0  0  0
 11 10  1  0  0  0  0
 11 12  2  0  0  0  0
 12 13  1  0  0  0  0
 13 14  2  0  0  0  0
 13  1  1  0  0  0  0
 15 18  1  0  0  0  0
 16 10  1  0  0  0  0
 17 11  1  0  0  0  0
 19 15  1  0  0  0  0
 20 21  2  0  0  0  0
 20  5  1  0  0  0  0
 21 22  1  0  0  0  0
 23 21  1  0  0  0  0
 24 23  1  0  0  0  0
 25 27  2  0  0  0  0
 25 23  1  0  0  0  0
 26 25  1  0  0  0  0
 27 20  1  0  0  0  0
M  END
>  <minimizedAffinity>
-4.99922514

>  <minimizedRMSD>
0.306260973

$$$$
