
 OpenBabel03212520483D

 27 29  0  0  0  0  0  0  0  0999 V2000
   41.6090   83.9420   61.5790 C   0  0  0  0  0  0  0  0  0  0  0  0
   41.1840   84.4080   62.8170 C   0  0  0  0  0  0  0  0  0  0  0  0
   40.7000   83.5350   63.7930 C   0  0  0  0  0  0  0  0  0  0  0  0
   40.6420   82.2040   63.5270 N   0  0  0  0  0  0  0  0  0  0  0  0
   41.0570   81.7770   62.3270 C   0  0  0  0  0  0  0  0  0  0  0  0
   41.5340   82.6200   61.3610 N   0  0  0  0  0  0  0  0  0  0  0  0
   41.2430   85.4590   62.9910 H   0  0  0  0  0  0  0  0  0  0  0  0
   40.4000   84.0080   64.7100 H   0  0  0  0  0  0  0  0  0  0  0  0
   43.6700   86.4060   59.8330 C   0  0  0  0  0  0  0  0  0  0  0  0
   42.9970   86.5160   58.5980 C   0  0  0  0  0  0  0  0  0  0  0  0
   41.8520   85.7510   58.3760 C   0  0  0  0  0  0  0  0  0  0  0  0
   41.4500   84.9290   59.3900 N   0  0  0  0  0  0  0  0  0  0  0  0
   42.1180   84.8520   60.5520 C   0  0  0  0  0  0  0  0  0  0  0  0
   43.2180   85.5770   60.7860 N   0  0  0  0  0  0  0  0  0  0  0  0
   44.8020   87.2400   59.8990 N   0  0  0  0  0  0  0  0  0  0  0  0
   43.2930   87.1590   57.7800 H   0  0  0  0  0  0  0  0  0  0  0  0
   41.2880   85.7880   57.4520 H   0  0  0  0  0  0  0  0  0  0  0  0
   45.0960   87.8840   60.6610 H   0  0  0  0  0  0  0  0  0  0  0  0
   45.4980   87.2800   59.1140 H   0  0  0  0  0  0  0  0  0  0  0  0
   40.9890   80.3450   62.0580 C   0  0  0  0  0  0  0  0  0  0  0  0
   41.6510   79.8750   60.9250 C   0  0  0  0  0  0  0  0  0  0  0  0
   42.2390   80.3400   60.1520 H   0  0  0  0  0  0  0  0  0  0  0  0
   41.4370   78.5310   60.9020 N   0  0  0  0  0  0  0  0  0  0  0  0
   41.7670   77.7970   60.2090 H   0  0  0  0  0  0  0  0  0  0  0  0
   40.6770   78.1640   61.9640 C   0  0  0  0  0  0  0  0  0  0  0  0
   40.3240   77.1810   62.2470 H   0  0  0  0  0  0  0  0  0  0  0  0
   40.3990   79.2820   62.6800 N   0  0  0  0  0  0  0  0  0  0  0  0
  1  2  1  0  0  0  0
  2  7  1  0  0  0  0
  2  3  2  0  0  0  0
  3  8  1  0  0  0  0
  4  3  1  0  0  0  0
  5  4  2  0  0  0  0
  6  1  2  0  0  0  0
  6  5  1  0  0  0  0
  9 15  1  0  0  0  0
  9 14  1  0  0  0  0
 10  9  2  0  0  0  0
 11 10  1  0  0  0  0
 11 12  2  0  0  0  0
 12 13  1  0  0  0  0
 13 14  2  0  0  0  0
 13  1  1  0  0  0  0
 15 18  1  0  0  0  0
 16 10  1  0  0  0  0
 17 11  1  0  0  0  0
 19 15  1  0  0  0  0
 20  5  1  0  0  0  0
 20 27  1  0  0  0  0
 21 20  2  0  0  0  0
 22 21  1  0  0  0  0
 23 21  1  0  0  0  0
 23 25  1  0  0  0  0
 24 23  1  0  0  0  0
 25 26  1  0  0  0  0
 25 27  2  0  0  0  0
M  END
>  <minimizedAffinity>
-5.22892618

>  <minimizedRMSD>
0.241933659

$$$$
