
 OpenBabel03212520473D

 27 29  0  0  0  0  0  0  0  0999 V2000
   41.5950   83.9320   61.5040 C   0  0  0  0  0  0  0  0  0  0  0  0
   41.3290   84.3740   62.7940 C   0  0  0  0  0  0  0  0  0  0  0  0
   40.8580   83.5010   63.7770 C   0  0  0  0  0  0  0  0  0  0  0  0
   40.6560   82.1940   63.4660 N   0  0  0  0  0  0  0  0  0  0  0  0
   40.9200   81.7900   62.2170 C   0  0  0  0  0  0  0  0  0  0  0  0
   41.3810   82.6330   61.2430 N   0  0  0  0  0  0  0  0  0  0  0  0
   41.4990   85.4070   63.0030 H   0  0  0  0  0  0  0  0  0  0  0  0
   40.6870   83.9540   64.7360 H   0  0  0  0  0  0  0  0  0  0  0  0
   43.6420   86.3810   59.7200 C   0  0  0  0  0  0  0  0  0  0  0  0
   42.9380   86.5070   58.5040 C   0  0  0  0  0  0  0  0  0  0  0  0
   41.7780   85.7580   58.3070 C   0  0  0  0  0  0  0  0  0  0  0  0
   41.3930   84.9350   59.3260 N   0  0  0  0  0  0  0  0  0  0  0  0
   42.0890   84.8420   60.4700 C   0  0  0  0  0  0  0  0  0  0  0  0
   43.2040   85.5520   60.6800 N   0  0  0  0  0  0  0  0  0  0  0  0
   44.7850   87.2010   59.7620 N   0  0  0  0  0  0  0  0  0  0  0  0
   43.2220   87.1510   57.6830 H   0  0  0  0  0  0  0  0  0  0  0  0
   41.1920   85.8080   57.3980 H   0  0  0  0  0  0  0  0  0  0  0  0
   45.1070   87.8360   60.5210 H   0  0  0  0  0  0  0  0  0  0  0  0
   45.4620   87.2370   58.9600 H   0  0  0  0  0  0  0  0  0  0  0  0
   40.6980   80.3840   61.8990 C   0  0  0  0  0  0  0  0  0  0  0  0
   40.5070   80.0520   60.5590 C   0  0  0  0  0  0  0  0  0  0  0  0
   40.4800   80.6170   59.6420 H   0  0  0  0  0  0  0  0  0  0  0  0
   40.3250   78.7040   60.5320 N   0  0  0  0  0  0  0  0  0  0  0  0
   40.1480   78.0540   59.7130 H   0  0  0  0  0  0  0  0  0  0  0  0
   40.3970   78.2010   61.7910 C   0  0  0  0  0  0  0  0  0  0  0  0
   40.2980   77.1770   62.1270 H   0  0  0  0  0  0  0  0  0  0  0  0
   40.6270   79.2360   62.6380 N   0  0  0  0  0  0  0  0  0  0  0  0
  1  2  1  0  0  0  0
  2  7  1  0  0  0  0
  2  3  2  0  0  0  0
  3  8  1  0  0  0  0
  4  3  1  0  0  0  0
  5  4  2  0  0  0  0
  6  1  2  0  0  0  0
  6  5  1  0  0  0  0
  9 15  1  0  0  0  0
  9 14  1  0  0  0  0
 10  9  2  0  0  0  0
 11 10  1  0  0  0  0
 11 12  2  0  0  0  0
 12 13  1  0  0  0  0
 13 14  2  0  0  0  0
 13  1  1  0  0  0  0
 15 18  1  0  0  0  0
 16 10  1  0  0  0  0
 17 11  1  0  0  0  0
 19 15  1  0  0  0  0
 20  5  1  0  0  0  0
 20 27  1  0  0  0  0
 21 20  2  0  0  0  0
 22 21  1  0  0  0  0
 23 21  1  0  0  0  0
 23 25  1  0  0  0  0
 24 23  1  0  0  0  0
 25 26  1  0  0  0  0
 25 27  2  0  0  0  0
M  END
>  <minimizedAffinity>
-5.26110554

>  <minimizedRMSD>
0.44806233

$$$$
