
 OpenBabel03212520483D

 27 29  0  0  0  0  0  0  0  0999 V2000
   41.6700   83.8050   61.4680 C   0  0  0  0  0  0  0  0  0  0  0  0
   40.9840   84.2170   62.6040 C   0  0  0  0  0  0  0  0  0  0  0  0
   40.5060   83.2950   63.5370 C   0  0  0  0  0  0  0  0  0  0  0  0
   40.7150   81.9690   63.3310 N   0  0  0  0  0  0  0  0  0  0  0  0
   41.3790   81.5940   62.2300 C   0  0  0  0  0  0  0  0  0  0  0  0
   41.8530   82.4850   61.3060 N   0  0  0  0  0  0  0  0  0  0  0  0
   40.8370   85.2660   62.7330 H   0  0  0  0  0  0  0  0  0  0  0  0
   39.9910   83.7290   64.3740 H   0  0  0  0  0  0  0  0  0  0  0  0
   43.6650   86.4220   59.8760 C   0  0  0  0  0  0  0  0  0  0  0  0
   43.0460   86.5230   58.6130 C   0  0  0  0  0  0  0  0  0  0  0  0
   41.9590   85.6990   58.3190 C   0  0  0  0  0  0  0  0  0  0  0  0
   41.5590   84.8320   59.2950 N   0  0  0  0  0  0  0  0  0  0  0  0
   42.1730   84.7660   60.4870 C   0  0  0  0  0  0  0  0  0  0  0  0
   43.2170   85.5470   60.7890 N   0  0  0  0  0  0  0  0  0  0  0  0
   44.7420   87.3180   60.0150 N   0  0  0  0  0  0  0  0  0  0  0  0
   43.3430   87.2000   57.8240 H   0  0  0  0  0  0  0  0  0  0  0  0
   41.4390   85.7260   57.3690 H   0  0  0  0  0  0  0  0  0  0  0  0
   44.9610   87.9600   60.8040 H   0  0  0  0  0  0  0  0  0  0  0  0
   45.4710   87.4160   59.2660 H   0  0  0  0  0  0  0  0  0  0  0  0
   41.5960   80.1660   62.0240 C   0  0  0  0  0  0  0  0  0  0  0  0
   40.5780   79.3000   62.4180 C   0  0  0  0  0  0  0  0  0  0  0  0
   39.6080   79.4360   62.8660 H   0  0  0  0  0  0  0  0  0  0  0  0
   41.0210   78.0480   62.1220 N   0  0  0  0  0  0  0  0  0  0  0  0
   40.5530   77.1050   62.2620 H   0  0  0  0  0  0  0  0  0  0  0  0
   42.2590   78.1130   61.5680 C   0  0  0  0  0  0  0  0  0  0  0  0
   42.8960   77.3100   61.2190 H   0  0  0  0  0  0  0  0  0  0  0  0
   42.6160   79.4200   61.5060 N   0  0  0  0  0  0  0  0  0  0  0  0
  1  2  1  0  0  0  0
  2  7  1  0  0  0  0
  2  3  2  0  0  0  0
  3  8  1  0  0  0  0
  4  3  1  0  0  0  0
  5  4  2  0  0  0  0
  6  1  2  0  0  0  0
  6  5  1  0  0  0  0
  9 15  1  0  0  0  0
  9 14  1  0  0  0  0
 10  9  2  0  0  0  0
 11 10  1  0  0  0  0
 11 12  2  0  0  0  0
 12 13  1  0  0  0  0
 13 14  2  0  0  0  0
 13  1  1  0  0  0  0
 15 18  1  0  0  0  0
 16 10  1  0  0  0  0
 17 11  1  0  0  0  0
 19 15  1  0  0  0  0
 20  5  1  0  0  0  0
 20 21  2  0  0  0  0
 21 22  1  0  0  0  0
 23 24  1  0  0  0  0
 23 21  1  0  0  0  0
 25 23  1  0  0  0  0
 26 25  1  0  0  0  0
 27 25  2  0  0  0  0
 27 20  1  0  0  0  0
M  END
>  <minimizedAffinity>
-5.02735233

>  <minimizedRMSD>
0.366300166

$$$$
