
 OpenBabel03212520483D

 27 29  0  0  0  0  0  0  0  0999 V2000
   41.6700   83.8040   61.4680 C   0  0  0  0  0  0  0  0  0  0  0  0
   40.9850   84.2160   62.6040 C   0  0  0  0  0  0  0  0  0  0  0  0
   40.5070   83.2950   63.5370 C   0  0  0  0  0  0  0  0  0  0  0  0
   40.7160   81.9690   63.3310 N   0  0  0  0  0  0  0  0  0  0  0  0
   41.3800   81.5930   62.2300 C   0  0  0  0  0  0  0  0  0  0  0  0
   41.8530   82.4850   61.3060 N   0  0  0  0  0  0  0  0  0  0  0  0
   40.8380   85.2660   62.7330 H   0  0  0  0  0  0  0  0  0  0  0  0
   39.9920   83.7290   64.3740 H   0  0  0  0  0  0  0  0  0  0  0  0
   43.6650   86.4230   59.8760 C   0  0  0  0  0  0  0  0  0  0  0  0
   43.0460   86.5220   58.6120 C   0  0  0  0  0  0  0  0  0  0  0  0
   41.9600   85.6980   58.3180 C   0  0  0  0  0  0  0  0  0  0  0  0
   41.5600   84.8310   59.2940 N   0  0  0  0  0  0  0  0  0  0  0  0
   42.1730   84.7650   60.4860 C   0  0  0  0  0  0  0  0  0  0  0  0
   43.2160   85.5470   60.7890 N   0  0  0  0  0  0  0  0  0  0  0  0
   44.7410   87.3190   60.0150 N   0  0  0  0  0  0  0  0  0  0  0  0
   43.3430   87.2000   57.8230 H   0  0  0  0  0  0  0  0  0  0  0  0
   41.4410   85.7230   57.3680 H   0  0  0  0  0  0  0  0  0  0  0  0
   44.9580   87.9620   60.8040 H   0  0  0  0  0  0  0  0  0  0  0  0
   45.4700   87.4180   59.2670 H   0  0  0  0  0  0  0  0  0  0  0  0
   41.5960   80.1650   62.0230 C   0  0  0  0  0  0  0  0  0  0  0  0
   40.5780   79.3000   62.4170 C   0  0  0  0  0  0  0  0  0  0  0  0
   39.6070   79.4350   62.8650 H   0  0  0  0  0  0  0  0  0  0  0  0
   41.0210   78.0470   62.1220 N   0  0  0  0  0  0  0  0  0  0  0  0
   40.5520   77.1050   62.2610 H   0  0  0  0  0  0  0  0  0  0  0  0
   42.2580   78.1120   61.5680 C   0  0  0  0  0  0  0  0  0  0  0  0
   42.8960   77.3090   61.2190 H   0  0  0  0  0  0  0  0  0  0  0  0
   42.6160   79.4190   61.5060 N   0  0  0  0  0  0  0  0  0  0  0  0
  1  2  1  0  0  0  0
  2  7  1  0  0  0  0
  2  3  2  0  0  0  0
  3  8  1  0  0  0  0
  4  3  1  0  0  0  0
  5  4  2  0  0  0  0
  6  1  2  0  0  0  0
  6  5  1  0  0  0  0
  9 15  1  0  0  0  0
  9 14  1  0  0  0  0
 10  9  2  0  0  0  0
 11 10  1  0  0  0  0
 11 12  2  0  0  0  0
 12 13  1  0  0  0  0
 13 14  2  0  0  0  0
 13  1  1  0  0  0  0
 15 18  1  0  0  0  0
 16 10  1  0  0  0  0
 17 11  1  0  0  0  0
 19 15  1  0  0  0  0
 20  5  1  0  0  0  0
 20 21  2  0  0  0  0
 21 22  1  0  0  0  0
 23 24  1  0  0  0  0
 23 21  1  0  0  0  0
 25 23  1  0  0  0  0
 26 25  1  0  0  0  0
 27 25  2  0  0  0  0
 27 20  1  0  0  0  0
M  END
>  <minimizedAffinity>
-5.02753782

>  <minimizedRMSD>
0.35715431

$$$$
