
 OpenBabel03212520483D

 27 29  0  0  0  0  0  0  0  0999 V2000
   41.6670   83.7620   61.4660 C   0  0  0  0  0  0  0  0  0  0  0  0
   41.1800   84.1450   62.7110 C   0  0  0  0  0  0  0  0  0  0  0  0
   40.7020   83.2030   63.6230 C   0  0  0  0  0  0  0  0  0  0  0  0
   40.7110   81.8860   63.2880 N   0  0  0  0  0  0  0  0  0  0  0  0
   41.1840   81.5400   62.0840 C   0  0  0  0  0  0  0  0  0  0  0  0
   41.6560   82.4520   61.1790 N   0  0  0  0  0  0  0  0  0  0  0  0
   41.1880   85.1870   62.9400 H   0  0  0  0  0  0  0  0  0  0  0  0
   40.3510   83.6140   64.5510 H   0  0  0  0  0  0  0  0  0  0  0  0
   43.6410   86.4370   59.9450 C   0  0  0  0  0  0  0  0  0  0  0  0
   43.0450   86.5410   58.6710 C   0  0  0  0  0  0  0  0  0  0  0  0
   41.9800   85.7000   58.3460 C   0  0  0  0  0  0  0  0  0  0  0  0
   41.5780   84.8140   59.3040 N   0  0  0  0  0  0  0  0  0  0  0  0
   42.1700   84.7450   60.5060 C   0  0  0  0  0  0  0  0  0  0  0  0
   43.1920   85.5430   60.8380 N   0  0  0  0  0  0  0  0  0  0  0  0
   44.6970   87.3520   60.1150 N   0  0  0  0  0  0  0  0  0  0  0  0
   43.3440   87.2340   57.8960 H   0  0  0  0  0  0  0  0  0  0  0  0
   41.4790   85.7280   57.3860 H   0  0  0  0  0  0  0  0  0  0  0  0
   44.8880   87.9890   60.9160 H   0  0  0  0  0  0  0  0  0  0  0  0
   45.4390   87.4740   59.3820 H   0  0  0  0  0  0  0  0  0  0  0  0
   41.1880   80.1220   61.7390 C   0  0  0  0  0  0  0  0  0  0  0  0
   40.6530   79.2350   62.6720 C   0  0  0  0  0  0  0  0  0  0  0  0
   40.2090   79.3480   63.6460 H   0  0  0  0  0  0  0  0  0  0  0  0
   40.7740   77.9980   62.1180 N   0  0  0  0  0  0  0  0  0  0  0  0
   40.4900   77.0480   62.4980 H   0  0  0  0  0  0  0  0  0  0  0  0
   41.3570   78.0920   60.8960 C   0  0  0  0  0  0  0  0  0  0  0  0
   41.5990   77.3070   60.1910 H   0  0  0  0  0  0  0  0  0  0  0  0
   41.6130   79.4020   60.6600 N   0  0  0  0  0  0  0  0  0  0  0  0
  1  2  1  0  0  0  0
  2  7  1  0  0  0  0
  2  3  2  0  0  0  0
  3  8  1  0  0  0  0
  4  3  1  0  0  0  0
  5  4  2  0  0  0  0
  6  1  2  0  0  0  0
  6  5  1  0  0  0  0
  9 15  1  0  0  0  0
  9 14  1  0  0  0  0
 10  9  2  0  0  0  0
 11 10  1  0  0  0  0
 11 12  2  0  0  0  0
 12 13  1  0  0  0  0
 13 14  2  0  0  0  0
 13  1  1  0  0  0  0
 15 18  1  0  0  0  0
 16 10  1  0  0  0  0
 17 11  1  0  0  0  0
 19 15  1  0  0  0  0
 20  5  1  0  0  0  0
 20 21  2  0  0  0  0
 21 22  1  0  0  0  0
 23 24  1  0  0  0  0
 23 21  1  0  0  0  0
 25 23  1  0  0  0  0
 26 25  1  0  0  0  0
 27 25  2  0  0  0  0
 27 20  1  0  0  0  0
M  END
>  <minimizedAffinity>
-4.98985195

>  <minimizedRMSD>
0.341578275

$$$$
