
 OpenBabel03212520063D

 40 44  0  0  0  0  0  0  0  0999 V2000
   45.0640   73.5080   58.5370 C   0  0  0  0  0  0  0  0  0  0  0  0
   44.2200   74.6240   58.3680 C   0  0  0  0  0  0  0  0  0  0  0  0
   43.0170   74.6020   59.0280 C   0  0  0  0  0  0  0  0  0  0  0  0
   42.6680   73.5400   59.8110 N   0  0  0  0  0  0  0  0  0  0  0  0
   43.5140   72.4790   59.9500 C   0  0  0  0  0  0  0  0  0  0  0  0
   44.7200   72.4580   59.3100 N   0  0  0  0  0  0  0  0  0  0  0  0
   46.0320   73.3820   58.0840 H   0  0  0  0  0  0  0  0  0  0  0  0
   44.7100   75.3380   57.7540 H   0  0  0  0  0  0  0  0  0  0  0  0
   43.6130   70.0860   60.4580 C   0  0  0  0  0  0  0  0  0  0  0  0
   43.1620   71.3590   60.8140 C   0  0  0  0  0  0  0  0  0  0  0  0
   42.4080   71.5640   61.9690 C   0  0  0  0  0  0  0  0  0  0  0  0
   42.0790   70.5120   62.8100 C   0  0  0  0  0  0  0  0  0  0  0  0
   41.4020   70.3320   63.9550 N   0  0  0  0  0  0  0  0  0  0  0  0
   41.4150   69.0490   64.3110 C   0  0  0  0  0  0  0  0  0  0  0  0
   42.1210   68.4160   63.3580 N   0  0  0  0  0  0  0  0  0  0  0  0
   42.5440   69.2850   62.4200 C   0  0  0  0  0  0  0  0  0  0  0  0
   43.2960   69.0040   61.2870 C   0  0  0  0  0  0  0  0  0  0  0  0
   44.1940   69.9270   59.5660 H   0  0  0  0  0  0  0  0  0  0  0  0
   42.0540   72.5600   62.2480 H   0  0  0  0  0  0  0  0  0  0  0  0
   40.9660   71.1910   64.4070 H   0  0  0  0  0  0  0  0  0  0  0  0
   40.9060   68.7540   65.2200 H   0  0  0  0  0  0  0  0  0  0  0  0
   43.6190   67.9950   61.0620 H   0  0  0  0  0  0  0  0  0  0  0  0
   40.6570   74.1170   57.2720 Cl  0  0  0  0  0  0  0  0  0  0  0  0
   40.9620   75.6300   58.1250 C   0  0  0  0  0  0  0  0  0  0  0  0
   42.0880   75.7010   58.9000 C   0  0  0  0  0  0  0  0  0  0  0  0
   42.2410   76.9250   59.5430 C   0  0  0  0  0  0  0  0  0  0  0  0
   41.3640   77.9830   59.4320 C   0  0  0  0  0  0  0  0  0  0  0  0
   40.2510   77.8490   58.6370 C   0  0  0  0  0  0  0  0  0  0  0  0
   39.0920   79.1350   58.4430 Cl  0  0  0  0  0  0  0  0  0  0  0  0
   40.0610   76.6750   57.9930 C   0  0  0  0  0  0  0  0  0  0  0  0
   43.1030   77.0770   60.1780 H   0  0  0  0  0  0  0  0  0  0  0  0
   41.5590   78.9040   59.9680 H   0  0  0  0  0  0  0  0  0  0  0  0
   38.8870   76.5080   57.1560 C   0  0  0  0  0  0  0  0  0  0  0  0
   39.0160   76.7990   55.8230 C   0  0  0  0  0  0  0  0  0  0  0  0
   39.7770   77.1520   55.0900 H   0  0  0  0  0  0  0  0  0  0  0  0
   37.9650   76.6740   54.9490 N   0  0  0  0  0  0  0  0  0  0  0  0
   37.1850   76.5820   54.2970 H   0  0  0  0  0  0  0  0  0  0  0  0
   37.0620   76.2350   55.9250 C   0  0  0  0  0  0  0  0  0  0  0  0
   36.0390   75.8880   56.2530 H   0  0  0  0  0  0  0  0  0  0  0  0
   37.5760   76.1340   57.2040 N   0  0  0  0  0  0  0  0  0  0  0  0
  1  6  1  0  0  0  0
  2  1  2  0  0  0  0
  2  3  1  0  0  0  0
  3  4  2  0  0  0  0
  4  5  1  0  0  0  0
  5 10  1  0  0  0  0
  6  5  2  0  0  0  0
  7  1  1  0  0  0  0
  8  2  1  0  0  0  0
  9 10  2  0  0  0  0
  9 17  1  0  0  0  0
 10 11  1  0  0  0  0
 11 19  1  0  0  0  0
 11 12  2  0  0  0  0
 12 13  1  0  0  0  0
 13 14  1  0  0  0  0
 13 20  1  0  0  0  0
 14 21  1  0  0  0  0
 15 14  2  0  0  0  0
 16 12  1  0  0  0  0
 16 15  1  0  0  0  0
 17 16  2  0  0  0  0
 18  9  1  0  0  0  0
 22 17  1  0  0  0  0
 23 24  1  0  0  0  0
 24 25  1  0  0  0  0
 25  3  1  0  0  0  0
 25 26  2  0  0  0  0
 26 31  1  0  0  0  0
 27 26  1  0  0  0  0
 27 32  1  0  0  0  0
 28 27  2  0  0  0  0
 29 28  1  0  0  0  0
 30 24  2  0  0  0  0
 30 28  1  0  0  0  0
 33 40  1  0  0  0  0
 33 30  1  0  0  0  0
 34 33  2  0  0  0  0
 35 34  1  0  0  0  0
 36 34  1  0  0  0  0
 36 38  1  0  0  0  0
 37 36  1  0  0  0  0
 38 39  1  0  0  0  0
 38 40  2  0  0  0  0
M  END
>  <minimizedAffinity>
-7.35101557

$$$$

 OpenBabel03212520063D

 40 44  0  0  0  0  0  0  0  0999 V2000
   44.3570   74.2270   60.0810 C   0  0  0  0  0  0  0  0  0  0  0  0
   43.3940   75.0040   59.4040 C   0  0  0  0  0  0  0  0  0  0  0  0
   42.1130   74.5140   59.3650 C   0  0  0  0  0  0  0  0  0  0  0  0
   41.7990   73.3280   59.9620 N   0  0  0  0  0  0  0  0  0  0  0  0
   42.7590   72.6070   60.6090 C   0  0  0  0  0  0  0  0  0  0  0  0
   44.0470   73.0550   60.6710 N   0  0  0  0  0  0  0  0  0  0  0  0
   45.3960   74.4790   60.1930 H   0  0  0  0  0  0  0  0  0  0  0  0
   43.8530   75.8960   59.0560 H   0  0  0  0  0  0  0  0  0  0  0  0
   42.5080   70.1720   60.5440 C   0  0  0  0  0  0  0  0  0  0  0  0
   42.4200   71.3570   61.2800 C   0  0  0  0  0  0  0  0  0  0  0  0
   42.0360   71.3530   62.6190 C   0  0  0  0  0  0  0  0  0  0  0  0
   41.7270   70.1710   63.2750 C   0  0  0  0  0  0  0  0  0  0  0  0
   41.3380   69.7900   64.5020 N   0  0  0  0  0  0  0  0  0  0  0  0
   41.1860   68.4680   64.5580 C   0  0  0  0  0  0  0  0  0  0  0  0
   41.4910   68.0170   63.3280 N   0  0  0  0  0  0  0  0  0  0  0  0
   41.8280   69.0370   62.5150 C   0  0  0  0  0  0  0  0  0  0  0  0
   42.2020   68.9630   61.1800 C   0  0  0  0  0  0  0  0  0  0  0  0
   42.8040   70.1750   59.5100 H   0  0  0  0  0  0  0  0  0  0  0  0
   41.9660   72.2790   63.1950 H   0  0  0  0  0  0  0  0  0  0  0  0
   41.2070   70.5520   65.2330 H   0  0  0  0  0  0  0  0  0  0  0  0
   40.8740   68.0170   65.4910 H   0  0  0  0  0  0  0  0  0  0  0  0
   42.2520   68.0140   60.6620 H   0  0  0  0  0  0  0  0  0  0  0  0
   41.7500   73.8700   56.4770 Cl  0  0  0  0  0  0  0  0  0  0  0  0
   40.7870   75.0590   57.3550 C   0  0  0  0  0  0  0  0  0  0  0  0
   41.0680   75.2420   58.6820 C   0  0  0  0  0  0  0  0  0  0  0  0
   40.2540   76.1890   59.2940 C   0  0  0  0  0  0  0  0  0  0  0  0
   39.2530   76.8910   58.6570 C   0  0  0  0  0  0  0  0  0  0  0  0
   39.0210   76.6610   57.3220 C   0  0  0  0  0  0  0  0  0  0  0  0
   37.7760   77.5050   56.4420 Cl  0  0  0  0  0  0  0  0  0  0  0  0
   39.7890   75.7490   56.6860 C   0  0  0  0  0  0  0  0  0  0  0  0
   40.4010   76.4030   60.3440 H   0  0  0  0  0  0  0  0  0  0  0  0
   38.6640   77.6120   59.2100 H   0  0  0  0  0  0  0  0  0  0  0  0
   39.5540   75.4840   55.2780 C   0  0  0  0  0  0  0  0  0  0  0  0
   38.6550   74.4990   54.9620 C   0  0  0  0  0  0  0  0  0  0  0  0
   37.9780   73.7630   55.4550 H   0  0  0  0  0  0  0  0  0  0  0  0
   38.3630   74.1730   53.6620 N   0  0  0  0  0  0  0  0  0  0  0  0
   38.1460   73.9280   52.6950 H   0  0  0  0  0  0  0  0  0  0  0  0
   39.2350   75.1220   53.1120 C   0  0  0  0  0  0  0  0  0  0  0  0
   39.7170   75.6430   52.2350 H   0  0  0  0  0  0  0  0  0  0  0  0
   39.9310   75.8870   54.0300 N   0  0  0  0  0  0  0  0  0  0  0  0
  1  7  1  0  0  0  0
  1  6  1  0  0  0  0
  2  1  2  0  0  0  0
  3  2  1  0  0  0  0
  3  4  2  0  0  0  0
  4  5  1  0  0  0  0
  5  6  2  0  0  0  0
  5 10  1  0  0  0  0
  8  2  1  0  0  0  0
  9 17  2  0  0  0  0
  9 10  1  0  0  0  0
 10 11  2  0  0  0  0
 11 19  1  0  0  0  0
 11 12  1  0  0  0  0
 12 13  1  0  0  0  0
 13 14  1  0  0  0  0
 13 20  1  0  0  0  0
 14 21  1  0  0  0  0
 15 14  2  0  0  0  0
 16 12  2  0  0  0  0
 16 15  1  0  0  0  0
 17 16  1  0  0  0  0
 18  9  1  0  0  0  0
 22 17  1  0  0  0  0
 23 24  1  0  0  0  0
 24 25  1  0  0  0  0
 25 26  2  0  0  0  0
 25  3  1  0  0  0  0
 26 31  1  0  0  0  0
 27 32  1  0  0  0  0
 27 26  1  0  0  0  0
 28 27  2  0  0  0  0
 29 28  1  0  0  0  0
 30 28  1  0  0  0  0
 30 24  2  0  0  0  0
 33 30  1  0  0  0  0
 34 33  2  0  0  0  0
 34 35  1  0  0  0  0
 36 34  1  0  0  0  0
 37 36  1  0  0  0  0
 38 36  1  0  0  0  0
 38 40  2  0  0  0  0
 39 38  1  0  0  0  0
 40 33  1  0  0  0  0
M  END
>  <minimizedAffinity>
-7.33650923

$$$$

 OpenBabel03212520063D

 40 44  0  0  0  0  0  0  0  0999 V2000
   42.8070   72.5500   56.7000 C   0  0  0  0  0  0  0  0  0  0  0  0
   42.6600   71.2700   57.2740 C   0  0  0  0  0  0  0  0  0  0  0  0
   42.0840   71.2070   58.5180 C   0  0  0  0  0  0  0  0  0  0  0  0
   41.6740   72.3410   59.1580 N   0  0  0  0  0  0  0  0  0  0  0  0
   41.8330   73.5600   58.5680 C   0  0  0  0  0  0  0  0  0  0  0  0
   42.4030   73.6700   57.3320 N   0  0  0  0  0  0  0  0  0  0  0  0
   43.2390   72.7570   55.7370 H   0  0  0  0  0  0  0  0  0  0  0  0
   43.0090   70.5410   56.5860 H   0  0  0  0  0  0  0  0  0  0  0  0
   40.2280   74.6790   60.0400 C   0  0  0  0  0  0  0  0  0  0  0  0
   41.3640   74.7710   59.2320 C   0  0  0  0  0  0  0  0  0  0  0  0
   42.0440   75.9760   59.0710 C   0  0  0  0  0  0  0  0  0  0  0  0
   41.6210   77.1320   59.7090 C   0  0  0  0  0  0  0  0  0  0  0  0
   42.0030   78.4170   59.7910 N   0  0  0  0  0  0  0  0  0  0  0  0
   41.1830   79.1010   60.5870 C   0  0  0  0  0  0  0  0  0  0  0  0
   40.2660   78.2120   61.0100 N   0  0  0  0  0  0  0  0  0  0  0  0
   40.5060   76.9940   60.4900 C   0  0  0  0  0  0  0  0  0  0  0  0
   39.7770   75.8300   60.6970 C   0  0  0  0  0  0  0  0  0  0  0  0
   39.7020   73.7490   60.1640 H   0  0  0  0  0  0  0  0  0  0  0  0
   42.9330   76.0490   58.4380 H   0  0  0  0  0  0  0  0  0  0  0  0
   42.8640   78.7080   59.2390 H   0  0  0  0  0  0  0  0  0  0  0  0
   41.3700   80.1540   60.7480 H   0  0  0  0  0  0  0  0  0  0  0  0
   38.9030   75.8200   61.3360 H   0  0  0  0  0  0  0  0  0  0  0  0
   43.1840   71.0160   61.2820 Cl  0  0  0  0  0  0  0  0  0  0  0  0
   42.3620   69.6960   60.4510 C   0  0  0  0  0  0  0  0  0  0  0  0
   41.9060   69.9360   59.1820 C   0  0  0  0  0  0  0  0  0  0  0  0
   41.2630   68.8440   58.6090 C   0  0  0  0  0  0  0  0  0  0  0  0
   41.0850   67.6260   59.2300 C   0  0  0  0  0  0  0  0  0  0  0  0
   41.5670   67.4480   60.5040 C   0  0  0  0  0  0  0  0  0  0  0  0
   41.3830   65.9410   61.3600 Cl  0  0  0  0  0  0  0  0  0  0  0  0
   42.1990   68.4830   61.1010 C   0  0  0  0  0  0  0  0  0  0  0  0
   40.8680   68.9380   57.6070 H   0  0  0  0  0  0  0  0  0  0  0  0
   40.5710   66.8260   58.7110 H   0  0  0  0  0  0  0  0  0  0  0  0
   42.7070   68.3200   62.4510 C   0  0  0  0  0  0  0  0  0  0  0  0
   44.0450   68.0570   62.5940 C   0  0  0  0  0  0  0  0  0  0  0  0
   44.9630   67.9130   61.9790 H   0  0  0  0  0  0  0  0  0  0  0  0
   44.6220   67.8860   63.8270 N   0  0  0  0  0  0  0  0  0  0  0  0
   45.0530   67.7580   64.7430 H   0  0  0  0  0  0  0  0  0  0  0  0
   43.4290   68.0790   64.5350 C   0  0  0  0  0  0  0  0  0  0  0  0
   42.8380   68.1450   65.4940 H   0  0  0  0  0  0  0  0  0  0  0  0
   42.3140   68.3300   63.7570 N   0  0  0  0  0  0  0  0  0  0  0  0
  1  2  2  0  0  0  0
  1  6  1  0  0  0  0
  2  3  1  0  0  0  0
  3  4  2  0  0  0  0
  3 25  1  0  0  0  0
  5  4  1  0  0  0  0
  5 10  1  0  0  0  0
  6  5  2  0  0  0  0
  7  1  1  0  0  0  0
  8  2  1  0  0  0  0
  9 18  1  0  0  0  0
  9 17  1  0  0  0  0
 10  9  2  0  0  0  0
 11 10  1  0  0  0  0
 11 12  2  0  0  0  0
 12 13  1  0  0  0  0
 12 16  1  0  0  0  0
 13 14  1  0  0  0  0
 14 21  1  0  0  0  0
 14 15  2  0  0  0  0
 16 17  2  0  0  0  0
 16 15  1  0  0  0  0
 17 22  1  0  0  0  0
 19 11  1  0  0  0  0
 20 13  1  0  0  0  0
 24 30  1  0  0  0  0
 24 23  1  0  0  0  0
 25 24  2  0  0  0  0
 26 25  1  0  0  0  0
 26 27  2  0  0  0  0
 27 28  1  0  0  0  0
 28 30  2  0  0  0  0
 28 29  1  0  0  0  0
 30 33  1  0  0  0  0
 31 26  1  0  0  0  0
 32 27  1  0  0  0  0
 33 34  2  0  0  0  0
 33 40  1  0  0  0  0
 34 36  1  0  0  0  0
 35 34  1  0  0  0  0
 36 38  1  0  0  0  0
 36 37  1  0  0  0  0
 38 39  1  0  0  0  0
 40 38  2  0  0  0  0
M  END
>  <minimizedAffinity>
-7.28883457

$$$$

 OpenBabel03212520063D

 40 44  0  0  0  0  0  0  0  0999 V2000
   43.5360   73.9680   60.1120 C   0  0  0  0  0  0  0  0  0  0  0  0
   43.4550   72.7690   60.8490 C   0  0  0  0  0  0  0  0  0  0  0  0
   42.2270   72.1620   60.9200 C   0  0  0  0  0  0  0  0  0  0  0  0
   41.1410   72.7050   60.2960 N   0  0  0  0  0  0  0  0  0  0  0  0
   41.2610   73.8660   59.5910 C   0  0  0  0  0  0  0  0  0  0  0  0
   42.4630   74.5050   59.4970 N   0  0  0  0  0  0  0  0  0  0  0  0
   44.4260   74.5550   59.9700 H   0  0  0  0  0  0  0  0  0  0  0  0
   44.4220   72.5190   61.2090 H   0  0  0  0  0  0  0  0  0  0  0  0
   39.9280   75.8150   58.9430 C   0  0  0  0  0  0  0  0  0  0  0  0
   40.1120   74.4310   58.8940 C   0  0  0  0  0  0  0  0  0  0  0  0
   39.2370   73.6080   58.1880 C   0  0  0  0  0  0  0  0  0  0  0  0
   38.1490   74.1320   57.5050 C   0  0  0  0  0  0  0  0  0  0  0  0
   37.1370   73.6740   56.7510 N   0  0  0  0  0  0  0  0  0  0  0  0
   36.3620   74.6780   56.3450 C   0  0  0  0  0  0  0  0  0  0  0  0
   36.9120   75.7910   56.8640 N   0  0  0  0  0  0  0  0  0  0  0  0
   38.0100   75.4910   57.5820 C   0  0  0  0  0  0  0  0  0  0  0  0
   38.8380   76.3720   58.2650 C   0  0  0  0  0  0  0  0  0  0  0  0
   40.6030   76.4510   59.4890 H   0  0  0  0  0  0  0  0  0  0  0  0
   39.3790   72.5250   58.1490 H   0  0  0  0  0  0  0  0  0  0  0  0
   37.0870   72.6250   56.5830 H   0  0  0  0  0  0  0  0  0  0  0  0
   35.5030   74.4570   55.7250 H   0  0  0  0  0  0  0  0  0  0  0  0
   38.6450   77.4380   58.2670 H   0  0  0  0  0  0  0  0  0  0  0  0
   42.6380   69.6390   59.3860 Cl  0  0  0  0  0  0  0  0  0  0  0  0
   42.2050   69.6990   61.0940 C   0  0  0  0  0  0  0  0  0  0  0  0
   42.0550   70.9350   61.6640 C   0  0  0  0  0  0  0  0  0  0  0  0
   41.7240   70.8860   63.0140 C   0  0  0  0  0  0  0  0  0  0  0  0
   41.5570   69.7240   63.7380 C   0  0  0  0  0  0  0  0  0  0  0  0
   41.7210   68.5140   63.1070 C   0  0  0  0  0  0  0  0  0  0  0  0
   41.5290   67.0000   63.9480 Cl  0  0  0  0  0  0  0  0  0  0  0  0
   42.0430   68.5140   61.7940 C   0  0  0  0  0  0  0  0  0  0  0  0
   41.5840   71.8140   63.5510 H   0  0  0  0  0  0  0  0  0  0  0  0
   41.2990   69.7760   64.7880 H   0  0  0  0  0  0  0  0  0  0  0  0
   42.2310   67.2470   61.1110 C   0  0  0  0  0  0  0  0  0  0  0  0
   43.4940   66.7180   61.0980 C   0  0  0  0  0  0  0  0  0  0  0  0
   44.5240   66.9410   61.4640 H   0  0  0  0  0  0  0  0  0  0  0  0
   43.7760   65.5250   60.4800 N   0  0  0  0  0  0  0  0  0  0  0  0
   43.9860   64.6400   60.0190 H   0  0  0  0  0  0  0  0  0  0  0  0
   42.4590   65.3100   60.0530 C   0  0  0  0  0  0  0  0  0  0  0  0
   41.6690   64.7030   59.5220 H   0  0  0  0  0  0  0  0  0  0  0  0
   41.5540   66.2940   60.4070 N   0  0  0  0  0  0  0  0  0  0  0  0
  1  2  1  0  0  0  0
  2  3  2  0  0  0  0
  2  8  1  0  0  0  0
  3 25  1  0  0  0  0
  4  3  1  0  0  0  0
  5  4  2  0  0  0  0
  6  5  1  0  0  0  0
  6  1  2  0  0  0  0
  7  1  1  0  0  0  0
  9 18  1  0  0  0  0
 10  9  1  0  0  0  0
 10  5  1  0  0  0  0
 11 10  2  0  0  0  0
 12 16  2  0  0  0  0
 12 11  1  0  0  0  0
 13 12  1  0  0  0  0
 14 13  1  0  0  0  0
 14 15  2  0  0  0  0
 15 16  1  0  0  0  0
 16 17  1  0  0  0  0
 17 22  1  0  0  0  0
 17  9  2  0  0  0  0
 19 11  1  0  0  0  0
 20 13  1  0  0  0  0
 21 14  1  0  0  0  0
 23 24  1  0  0  0  0
 24 25  2  0  0  0  0
 24 30  1  0  0  0  0
 25 26  1  0  0  0  0
 26 31  1  0  0  0  0
 26 27  2  0  0  0  0
 27 32  1  0  0  0  0
 28 27  1  0  0  0  0
 28 29  1  0  0  0  0
 30 28  2  0  0  0  0
 33 30  1  0  0  0  0
 34 33  2  0  0  0  0
 34 35  1  0  0  0  0
 36 34  1  0  0  0  0
 37 36  1  0  0  0  0
 38 40  2  0  0  0  0
 38 36  1  0  0  0  0
 39 38  1  0  0  0  0
 40 33  1  0  0  0  0
M  END
>  <minimizedAffinity>
-7.12934494

$$$$

 OpenBabel03212520063D

 40 44  0  0  0  0  0  0  0  0999 V2000
   43.7740   70.3130   58.4320 C   0  0  0  0  0  0  0  0  0  0  0  0
   43.0090   71.4520   58.1080 C   0  0  0  0  0  0  0  0  0  0  0  0
   41.9080   71.7070   58.8870 C   0  0  0  0  0  0  0  0  0  0  0  0
   41.5830   70.8870   59.9280 N   0  0  0  0  0  0  0  0  0  0  0  0
   42.3500   69.7950   60.2110 C   0  0  0  0  0  0  0  0  0  0  0  0
   43.4520   69.5020   59.4610 N   0  0  0  0  0  0  0  0  0  0  0  0
   44.6570   69.9860   57.9140 H   0  0  0  0  0  0  0  0  0  0  0  0
   43.4680   71.9560   57.2940 H   0  0  0  0  0  0  0  0  0  0  0  0
   42.2990   69.4130   62.6290 C   0  0  0  0  0  0  0  0  0  0  0  0
   42.0270   68.9370   61.3440 C   0  0  0  0  0  0  0  0  0  0  0  0
   41.4490   67.6840   61.1420 C   0  0  0  0  0  0  0  0  0  0  0  0
   41.1210   66.8630   62.2110 C   0  0  0  0  0  0  0  0  0  0  0  0
   40.5770   65.6500   62.3980 N   0  0  0  0  0  0  0  0  0  0  0  0
   40.5020   65.3650   63.6970 C   0  0  0  0  0  0  0  0  0  0  0  0
   41.0150   66.4340   64.3320 N   0  0  0  0  0  0  0  0  0  0  0  0
   41.4050   67.3730   63.4480 C   0  0  0  0  0  0  0  0  0  0  0  0
   41.9790   68.6060   63.7270 C   0  0  0  0  0  0  0  0  0  0  0  0
   42.7460   70.3800   62.7850 H   0  0  0  0  0  0  0  0  0  0  0  0
   41.2360   67.3100   60.1380 H   0  0  0  0  0  0  0  0  0  0  0  0
   40.2900   65.1020   61.5330 H   0  0  0  0  0  0  0  0  0  0  0  0
   40.0820   64.4150   64.0000 H   0  0  0  0  0  0  0  0  0  0  0  0
   42.1670   68.9220   64.7450 H   0  0  0  0  0  0  0  0  0  0  0  0
   42.6030   74.2160   60.3390 Cl  0  0  0  0  0  0  0  0  0  0  0  0
   41.2550   74.0660   59.2110 C   0  0  0  0  0  0  0  0  0  0  0  0
   41.0640   72.8480   58.6160 C   0  0  0  0  0  0  0  0  0  0  0  0
   39.9870   72.8260   57.7360 C   0  0  0  0  0  0  0  0  0  0  0  0
   39.1730   73.9060   57.4660 C   0  0  0  0  0  0  0  0  0  0  0  0
   39.4180   75.1010   58.0980 C   0  0  0  0  0  0  0  0  0  0  0  0
   38.4380   76.5140   57.8140 Cl  0  0  0  0  0  0  0  0  0  0  0  0
   40.4550   75.1690   58.9620 C   0  0  0  0  0  0  0  0  0  0  0  0
   39.7570   71.9060   57.2170 H   0  0  0  0  0  0  0  0  0  0  0  0
   38.3540   73.8020   56.7660 H   0  0  0  0  0  0  0  0  0  0  0  0
   40.7370   76.4260   59.6330 C   0  0  0  0  0  0  0  0  0  0  0  0
   41.7860   77.1710   59.1620 C   0  0  0  0  0  0  0  0  0  0  0  0
   42.5710   77.1470   58.3700 H   0  0  0  0  0  0  0  0  0  0  0  0
   42.1340   78.3720   59.7270 N   0  0  0  0  0  0  0  0  0  0  0  0
   42.3940   79.2650   60.1460 H   0  0  0  0  0  0  0  0  0  0  0  0
   41.1230   78.3350   60.6950 C   0  0  0  0  0  0  0  0  0  0  0  0
   40.5670   78.7730   61.5750 H   0  0  0  0  0  0  0  0  0  0  0  0
   40.3080   77.2180   60.6570 N   0  0  0  0  0  0  0  0  0  0  0  0
  1  6  1  0  0  0  0
  2  1  2  0  0  0  0
  2  3  1  0  0  0  0
  3  4  2  0  0  0  0
  4  5  1  0  0  0  0
  5 10  1  0  0  0  0
  6  5  2  0  0  0  0
  7  1  1  0  0  0  0
  8  2  1  0  0  0  0
  9 18  1  0  0  0  0
  9 17  1  0  0  0  0
 10  9  2  0  0  0  0
 11 10  1  0  0  0  0
 11 12  2  0  0  0  0
 12 13  1  0  0  0  0
 12 16  1  0  0  0  0
 13 14  1  0  0  0  0
 14 21  1  0  0  0  0
 14 15  2  0  0  0  0
 16 17  2  0  0  0  0
 16 15  1  0  0  0  0
 17 22  1  0  0  0  0
 19 11  1  0  0  0  0
 20 13  1  0  0  0  0
 24 23  1  0  0  0  0
 25  3  1  0  0  0  0
 25 24  2  0  0  0  0
 26 25  1  0  0  0  0
 27 26  2  0  0  0  0
 27 28  1  0  0  0  0
 28 30  2  0  0  0  0
 29 28  1  0  0  0  0
 30 24  1  0  0  0  0
 30 33  1  0  0  0  0
 31 26  1  0  0  0  0
 32 27  1  0  0  0  0
 33 40  1  0  0  0  0
 34 33  2  0  0  0  0
 34 36  1  0  0  0  0
 35 34  1  0  0  0  0
 36 37  1  0  0  0  0
 36 38  1  0  0  0  0
 38 39  1  0  0  0  0
 40 38  2  0  0  0  0
M  END
>  <minimizedAffinity>
-7.08610249

$$$$

 OpenBabel03212520063D

 40 44  0  0  0  0  0  0  0  0999 V2000
   43.5580   73.7100   59.7290 C   0  0  0  0  0  0  0  0  0  0  0  0
   43.5480   72.3140   59.9240 C   0  0  0  0  0  0  0  0  0  0  0  0
   42.3910   71.6480   59.6060 C   0  0  0  0  0  0  0  0  0  0  0  0
   41.3080   72.3210   59.1200 N   0  0  0  0  0  0  0  0  0  0  0  0
   41.3580   73.6730   58.9440 C   0  0  0  0  0  0  0  0  0  0  0  0
   42.4880   74.3750   59.2500 N   0  0  0  0  0  0  0  0  0  0  0  0
   44.3880   74.3630   59.9340 H   0  0  0  0  0  0  0  0  0  0  0  0
   44.5040   72.0060   60.2690 H   0  0  0  0  0  0  0  0  0  0  0  0
   39.9630   75.6830   58.8590 C   0  0  0  0  0  0  0  0  0  0  0  0
   40.2160   74.3910   58.3920 C   0  0  0  0  0  0  0  0  0  0  0  0
   39.4130   73.8030   57.4160 C   0  0  0  0  0  0  0  0  0  0  0  0
   38.3330   74.4790   56.8690 C   0  0  0  0  0  0  0  0  0  0  0  0
   37.3790   74.2490   55.9520 N   0  0  0  0  0  0  0  0  0  0  0  0
   36.5760   75.3050   55.8350 C   0  0  0  0  0  0  0  0  0  0  0  0
   37.0480   76.2160   56.7050 N   0  0  0  0  0  0  0  0  0  0  0  0
   38.1260   75.7410   57.3560 C   0  0  0  0  0  0  0  0  0  0  0  0
   38.8800   76.3900   58.3250 C   0  0  0  0  0  0  0  0  0  0  0  0
   40.5820   76.1380   59.6130 H   0  0  0  0  0  0  0  0  0  0  0  0
   39.6090   72.7920   57.0500 H   0  0  0  0  0  0  0  0  0  0  0  0
   37.3870   73.3040   55.4640 H   0  0  0  0  0  0  0  0  0  0  0  0
   35.7580   75.2620   55.1290 H   0  0  0  0  0  0  0  0  0  0  0  0
   38.6360   77.3950   58.6480 H   0  0  0  0  0  0  0  0  0  0  0  0
   41.7460   70.7230   62.3660 Cl  0  0  0  0  0  0  0  0  0  0  0  0
   42.0080   69.6440   60.9960 C   0  0  0  0  0  0  0  0  0  0  0  0
   42.2920   70.2180   59.7860 C   0  0  0  0  0  0  0  0  0  0  0  0
   42.4730   69.2920   58.7630 C   0  0  0  0  0  0  0  0  0  0  0  0
   42.3810   67.9250   58.9190 C   0  0  0  0  0  0  0  0  0  0  0  0
   42.0940   67.4110   60.1600 C   0  0  0  0  0  0  0  0  0  0  0  0
   41.9600   65.6970   60.4430 Cl  0  0  0  0  0  0  0  0  0  0  0  0
   41.9100   68.2750   61.1840 C   0  0  0  0  0  0  0  0  0  0  0  0
   42.7010   69.6510   57.7690 H   0  0  0  0  0  0  0  0  0  0  0  0
   42.5360   67.2740   58.0670 H   0  0  0  0  0  0  0  0  0  0  0  0
   41.5960   67.7530   62.5030 C   0  0  0  0  0  0  0  0  0  0  0  0
   42.6450   67.4960   63.3460 C   0  0  0  0  0  0  0  0  0  0  0  0
   43.7580   67.5530   63.3760 H   0  0  0  0  0  0  0  0  0  0  0  0
   42.4540   67.0020   64.6120 N   0  0  0  0  0  0  0  0  0  0  0  0
   42.3140   66.6340   65.5530 H   0  0  0  0  0  0  0  0  0  0  0  0
   41.0590   66.9580   64.5030 C   0  0  0  0  0  0  0  0  0  0  0  0
   40.0320   66.7370   64.9170 H   0  0  0  0  0  0  0  0  0  0  0  0
   40.5460   67.3870   63.2920 N   0  0  0  0  0  0  0  0  0  0  0  0
  1  2  1  0  0  0  0
  1  7  1  0  0  0  0
  2  8  1  0  0  0  0
  3 25  1  0  0  0  0
  3  2  2  0  0  0  0
  4  3  1  0  0  0  0
  5  4  2  0  0  0  0
  5  6  1  0  0  0  0
  6  1  2  0  0  0  0
  9 18  1  0  0  0  0
 10  9  1  0  0  0  0
 10  5  1  0  0  0  0
 11 10  2  0  0  0  0
 12 16  2  0  0  0  0
 12 11  1  0  0  0  0
 13 12  1  0  0  0  0
 14 13  1  0  0  0  0
 14 15  2  0  0  0  0
 15 16  1  0  0  0  0
 16 17  1  0  0  0  0
 17 22  1  0  0  0  0
 17  9  2  0  0  0  0
 19 11  1  0  0  0  0
 20 13  1  0  0  0  0
 21 14  1  0  0  0  0
 24 30  1  0  0  0  0
 24 23  1  0  0  0  0
 25 24  2  0  0  0  0
 26 27  2  0  0  0  0
 26 25  1  0  0  0  0
 27 28  1  0  0  0  0
 28 29  1  0  0  0  0
 28 30  2  0  0  0  0
 30 33  1  0  0  0  0
 31 26  1  0  0  0  0
 32 27  1  0  0  0  0
 33 40  1  0  0  0  0
 33 34  2  0  0  0  0
 34 35  1  0  0  0  0
 34 36  1  0  0  0  0
 36 37  1  0  0  0  0
 38 36  1  0  0  0  0
 38 39  1  0  0  0  0
 40 38  2  0  0  0  0
M  END
>  <minimizedAffinity>
-6.98799658

$$$$

 OpenBabel03212520063D

 40 44  0  0  0  0  0  0  0  0999 V2000
   42.6970   72.4270   62.4160 C   0  0  0  0  0  0  0  0  0  0  0  0
   42.4350   73.0070   61.1590 C   0  0  0  0  0  0  0  0  0  0  0  0
   41.9290   72.1840   60.1840 C   0  0  0  0  0  0  0  0  0  0  0  0
   41.6910   70.8640   60.4380 N   0  0  0  0  0  0  0  0  0  0  0  0
   41.9550   70.3410   61.6690 C   0  0  0  0  0  0  0  0  0  0  0  0
   42.4620   71.1220   62.6670 N   0  0  0  0  0  0  0  0  0  0  0  0
   43.0940   72.9420   63.2730 H   0  0  0  0  0  0  0  0  0  0  0  0
   42.6580   74.0440   61.2050 H   0  0  0  0  0  0  0  0  0  0  0  0
   41.9080   68.0010   60.9480 C   0  0  0  0  0  0  0  0  0  0  0  0
   41.6690   68.9400   61.9550 C   0  0  0  0  0  0  0  0  0  0  0  0
   41.1840   68.5560   63.2040 C   0  0  0  0  0  0  0  0  0  0  0  0
   40.9230   67.2260   63.4970 C   0  0  0  0  0  0  0  0  0  0  0  0
   40.4720   66.5100   64.5390 N   0  0  0  0  0  0  0  0  0  0  0  0
   40.4250   65.2150   64.2340 C   0  0  0  0  0  0  0  0  0  0  0  0
   40.8590   65.1270   62.9640 N   0  0  0  0  0  0  0  0  0  0  0  0
   41.1730   66.3440   62.4810 C   0  0  0  0  0  0  0  0  0  0  0  0
   41.6530   66.6510   61.2150 C   0  0  0  0  0  0  0  0  0  0  0  0
   42.2820   68.2970   59.9830 H   0  0  0  0  0  0  0  0  0  0  0  0
   40.9960   69.2900   63.9920 H   0  0  0  0  0  0  0  0  0  0  0  0
   40.2240   67.0400   65.4270 H   0  0  0  0  0  0  0  0  0  0  0  0
   40.0790   64.5140   64.9830 H   0  0  0  0  0  0  0  0  0  0  0  0
   41.8200   65.8790   60.4740 H   0  0  0  0  0  0  0  0  0  0  0  0
   39.2130   73.3500   59.7990 Cl  0  0  0  0  0  0  0  0  0  0  0  0
   40.4380   73.2570   58.5340 C   0  0  0  0  0  0  0  0  0  0  0  0
   41.6440   72.6970   58.8640 C   0  0  0  0  0  0  0  0  0  0  0  0
   42.5500   72.6750   57.8090 C   0  0  0  0  0  0  0  0  0  0  0  0
   42.2930   73.1600   56.5450 C   0  0  0  0  0  0  0  0  0  0  0  0
   41.0630   73.7100   56.2770 C   0  0  0  0  0  0  0  0  0  0  0  0
   40.6560   74.3460   54.7070 Cl  0  0  0  0  0  0  0  0  0  0  0  0
   40.1490   73.7530   57.2730 C   0  0  0  0  0  0  0  0  0  0  0  0
   43.5310   72.2510   57.9740 H   0  0  0  0  0  0  0  0  0  0  0  0
   43.0580   73.1040   55.7800 H   0  0  0  0  0  0  0  0  0  0  0  0
   38.8460   74.3380   57.0140 C   0  0  0  0  0  0  0  0  0  0  0  0
   37.7970   73.4790   56.8140 C   0  0  0  0  0  0  0  0  0  0  0  0
   37.5750   72.3870   56.7780 H   0  0  0  0  0  0  0  0  0  0  0  0
   36.5260   73.9320   56.5630 N   0  0  0  0  0  0  0  0  0  0  0  0
   35.5810   74.2670   56.3750 H   0  0  0  0  0  0  0  0  0  0  0  0
   36.8790   75.2860   56.6230 C   0  0  0  0  0  0  0  0  0  0  0  0
   36.6290   76.3860   56.5670 H   0  0  0  0  0  0  0  0  0  0  0  0
   38.2140   75.5390   56.8820 N   0  0  0  0  0  0  0  0  0  0  0  0
  1  6  1  0  0  0  0
  1  7  1  0  0  0  0
  2  8  1  0  0  0  0
  2  1  2  0  0  0  0
  3  4  2  0  0  0  0
  3  2  1  0  0  0  0
  4  5  1  0  0  0  0
  5 10  1  0  0  0  0
  5  6  2  0  0  0  0
  9 17  2  0  0  0  0
  9 10  1  0  0  0  0
 10 11  2  0  0  0  0
 11 12  1  0  0  0  0
 11 19  1  0  0  0  0
 12 13  1  0  0  0  0
 13 20  1  0  0  0  0
 14 13  1  0  0  0  0
 14 21  1  0  0  0  0
 15 14  2  0  0  0  0
 16 15  1  0  0  0  0
 16 12  2  0  0  0  0
 17 16  1  0  0  0  0
 18  9  1  0  0  0  0
 22 17  1  0  0  0  0
 24 25  1  0  0  0  0
 24 23  1  0  0  0  0
 25  3  1  0  0  0  0
 26 31  1  0  0  0  0
 26 25  2  0  0  0  0
 27 26  1  0  0  0  0
 28 27  2  0  0  0  0
 28 30  1  0  0  0  0
 29 28  1  0  0  0  0
 30 24  2  0  0  0  0
 32 27  1  0  0  0  0
 33 30  1  0  0  0  0
 34 33  2  0  0  0  0
 35 34  1  0  0  0  0
 36 38  1  0  0  0  0
 36 34  1  0  0  0  0
 37 36  1  0  0  0  0
 38 40  2  0  0  0  0
 39 38  1  0  0  0  0
 40 33  1  0  0  0  0
M  END
>  <minimizedAffinity>
-6.8941021

$$$$

 OpenBabel03212520063D

 40 44  0  0  0  0  0  0  0  0999 V2000
   44.6670   72.3760   58.7230 C   0  0  0  0  0  0  0  0  0  0  0  0
   43.8980   73.5130   58.4020 C   0  0  0  0  0  0  0  0  0  0  0  0
   42.6900   73.6500   59.0380 C   0  0  0  0  0  0  0  0  0  0  0  0
   42.2670   72.7200   59.9430 N   0  0  0  0  0  0  0  0  0  0  0  0
   43.0410   71.6340   60.2280 C   0  0  0  0  0  0  0  0  0  0  0  0
   44.2480   71.4570   59.6160 N   0  0  0  0  0  0  0  0  0  0  0  0
   45.6280   72.1340   58.3060 H   0  0  0  0  0  0  0  0  0  0  0  0
   44.4380   74.1110   57.7110 H   0  0  0  0  0  0  0  0  0  0  0  0
   42.3310   71.1100   62.5130 C   0  0  0  0  0  0  0  0  0  0  0  0
   42.6090   70.6570   61.2200 C   0  0  0  0  0  0  0  0  0  0  0  0
   42.4660   69.3140   60.8760 C   0  0  0  0  0  0  0  0  0  0  0  0
   42.0400   68.3750   61.8040 C   0  0  0  0  0  0  0  0  0  0  0  0
   41.7950   67.0550   61.8380 N   0  0  0  0  0  0  0  0  0  0  0  0
   41.3910   66.6850   63.0520 C   0  0  0  0  0  0  0  0  0  0  0  0
   41.3860   67.8090   63.7900 N   0  0  0  0  0  0  0  0  0  0  0  0
   41.7800   68.8660   63.0540 C   0  0  0  0  0  0  0  0  0  0  0  0
   41.9000   70.1850   63.4700 C   0  0  0  0  0  0  0  0  0  0  0  0
   42.4420   72.1460   62.7790 H   0  0  0  0  0  0  0  0  0  0  0  0
   42.6840   68.9580   59.8660 H   0  0  0  0  0  0  0  0  0  0  0  0
   41.9470   66.5050   60.9410 H   0  0  0  0  0  0  0  0  0  0  0  0
   41.1560   65.6430   63.2280 H   0  0  0  0  0  0  0  0  0  0  0  0
   41.6700   70.4770   64.4870 H   0  0  0  0  0  0  0  0  0  0  0  0
   40.3480   73.1090   57.2750 Cl  0  0  0  0  0  0  0  0  0  0  0  0
   40.7260   74.6890   57.9620 C   0  0  0  0  0  0  0  0  0  0  0  0
   41.8350   74.7810   58.7590 C   0  0  0  0  0  0  0  0  0  0  0  0
   42.0490   76.0600   59.2630 C   0  0  0  0  0  0  0  0  0  0  0  0
   41.2430   77.1480   59.0060 C   0  0  0  0  0  0  0  0  0  0  0  0
   40.1440   76.9900   58.1970 C   0  0  0  0  0  0  0  0  0  0  0  0
   39.0730   78.3130   57.8220 Cl  0  0  0  0  0  0  0  0  0  0  0  0
   39.8970   75.7640   57.6840 C   0  0  0  0  0  0  0  0  0  0  0  0
   42.9030   76.2310   59.9040 H   0  0  0  0  0  0  0  0  0  0  0  0
   41.4820   78.1110   59.4410 H   0  0  0  0  0  0  0  0  0  0  0  0
   38.7350   75.5720   56.8340 C   0  0  0  0  0  0  0  0  0  0  0  0
   37.6120   75.0390   57.4110 C   0  0  0  0  0  0  0  0  0  0  0  0
   37.2450   74.6680   58.3960 H   0  0  0  0  0  0  0  0  0  0  0  0
   36.4630   74.8190   56.6940 N   0  0  0  0  0  0  0  0  0  0  0  0
   35.6080   74.6540   56.1620 H   0  0  0  0  0  0  0  0  0  0  0  0
   36.9910   75.3010   55.4900 C   0  0  0  0  0  0  0  0  0  0  0  0
   36.9080   75.5440   54.3910 H   0  0  0  0  0  0  0  0  0  0  0  0
   38.3020   75.7390   55.5520 N   0  0  0  0  0  0  0  0  0  0  0  0
  1  6  1  0  0  0  0
  2  1  2  0  0  0  0
  2  3  1  0  0  0  0
  3  4  2  0  0  0  0
  4  5  1  0  0  0  0
  5 10  1  0  0  0  0
  6  5  2  0  0  0  0
  7  1  1  0  0  0  0
  8  2  1  0  0  0  0
  9 18  1  0  0  0  0
  9 17  1  0  0  0  0
 10  9  2  0  0  0  0
 11 10  1  0  0  0  0
 11 12  2  0  0  0  0
 12 13  1  0  0  0  0
 12 16  1  0  0  0  0
 13 14  1  0  0  0  0
 14 21  1  0  0  0  0
 14 15  2  0  0  0  0
 16 17  2  0  0  0  0
 16 15  1  0  0  0  0
 17 22  1  0  0  0  0
 19 11  1  0  0  0  0
 20 13  1  0  0  0  0
 23 24  1  0  0  0  0
 24 25  1  0  0  0  0
 25  3  1  0  0  0  0
 25 26  2  0  0  0  0
 26 31  1  0  0  0  0
 27 26  1  0  0  0  0
 27 32  1  0  0  0  0
 28 27  2  0  0  0  0
 29 28  1  0  0  0  0
 30 24  2  0  0  0  0
 30 28  1  0  0  0  0
 33 34  2  0  0  0  0
 33 30  1  0  0  0  0
 34 35  1  0  0  0  0
 36 34  1  0  0  0  0
 37 36  1  0  0  0  0
 38 40  2  0  0  0  0
 38 36  1  0  0  0  0
 39 38  1  0  0  0  0
 40 33  1  0  0  0  0
M  END
>  <minimizedAffinity>
-6.85432339

$$$$

 OpenBabel03212520063D

 40 44  0  0  0  0  0  0  0  0999 V2000
   43.4920   74.3520   59.7620 C   0  0  0  0  0  0  0  0  0  0  0  0
   43.4470   73.1790   60.5420 C   0  0  0  0  0  0  0  0  0  0  0  0
   42.2380   72.5380   60.6360 C   0  0  0  0  0  0  0  0  0  0  0  0
   41.1360   73.0240   59.9930 N   0  0  0  0  0  0  0  0  0  0  0  0
   41.2210   74.1610   59.2460 C   0  0  0  0  0  0  0  0  0  0  0  0
   42.4030   74.8330   59.1270 N   0  0  0  0  0  0  0  0  0  0  0  0
   44.3630   74.9610   59.5970 H   0  0  0  0  0  0  0  0  0  0  0  0
   44.4210   72.9730   60.9100 H   0  0  0  0  0  0  0  0  0  0  0  0
   38.8710   73.9270   58.5990 C   0  0  0  0  0  0  0  0  0  0  0  0
   40.0560   74.6650   58.5290 C   0  0  0  0  0  0  0  0  0  0  0  0
   40.1270   75.8560   57.8080 C   0  0  0  0  0  0  0  0  0  0  0  0
   39.0220   76.3560   57.1350 C   0  0  0  0  0  0  0  0  0  0  0  0
   38.7240   77.4200   56.3730 N   0  0  0  0  0  0  0  0  0  0  0  0
   37.4510   77.3770   55.9830 C   0  0  0  0  0  0  0  0  0  0  0  0
   36.9470   76.2510   56.5200 N   0  0  0  0  0  0  0  0  0  0  0  0
   37.8860   75.6000   57.2340 C   0  0  0  0  0  0  0  0  0  0  0  0
   37.7400   74.4070   57.9290 C   0  0  0  0  0  0  0  0  0  0  0  0
   38.8160   73.0070   59.1550 H   0  0  0  0  0  0  0  0  0  0  0  0
   41.0530   76.4330   57.7510 H   0  0  0  0  0  0  0  0  0  0  0  0
   39.4990   78.1240   56.1880 H   0  0  0  0  0  0  0  0  0  0  0  0
   37.0680   78.1750   55.3610 H   0  0  0  0  0  0  0  0  0  0  0  0
   36.7950   73.8790   57.9480 H   0  0  0  0  0  0  0  0  0  0  0  0
   42.4840   69.9680   59.1460 Cl  0  0  0  0  0  0  0  0  0  0  0  0
   42.1860   70.0820   60.8800 C   0  0  0  0  0  0  0  0  0  0  0  0
   42.1030   71.3350   61.4250 C   0  0  0  0  0  0  0  0  0  0  0  0
   41.8780   71.3270   62.7980 C   0  0  0  0  0  0  0  0  0  0  0  0
   41.7480   70.1880   63.5640 C   0  0  0  0  0  0  0  0  0  0  0  0
   41.8410   68.9600   62.9570 C   0  0  0  0  0  0  0  0  0  0  0  0
   41.6880   67.4720   63.8510 Cl  0  0  0  0  0  0  0  0  0  0  0  0
   42.0590   68.9190   61.6230 C   0  0  0  0  0  0  0  0  0  0  0  0
   41.7970   72.2720   63.3180 H   0  0  0  0  0  0  0  0  0  0  0  0
   41.5730   70.2730   64.6300 H   0  0  0  0  0  0  0  0  0  0  0  0
   42.1710   67.6310   60.9630 C   0  0  0  0  0  0  0  0  0  0  0  0
   43.4240   67.0900   60.8410 C   0  0  0  0  0  0  0  0  0  0  0  0
   44.4860   67.3140   61.0970 H   0  0  0  0  0  0  0  0  0  0  0  0
   43.6360   65.8780   60.2340 N   0  0  0  0  0  0  0  0  0  0  0  0
   43.7940   64.9770   59.7810 H   0  0  0  0  0  0  0  0  0  0  0  0
   42.2820   65.6620   59.9450 C   0  0  0  0  0  0  0  0  0  0  0  0
   41.4400   65.0470   59.5130 H   0  0  0  0  0  0  0  0  0  0  0  0
   41.4220   66.6640   60.3580 N   0  0  0  0  0  0  0  0  0  0  0  0
  1  2  1  0  0  0  0
  2  3  2  0  0  0  0
  2  8  1  0  0  0  0
  3 25  1  0  0  0  0
  4  3  1  0  0  0  0
  5  4  2  0  0  0  0
  6  5  1  0  0  0  0
  6  1  2  0  0  0  0
  7  1  1  0  0  0  0
  9 18  1  0  0  0  0
 10  9  1  0  0  0  0
 10  5  1  0  0  0  0
 11 10  2  0  0  0  0
 12 16  2  0  0  0  0
 12 11  1  0  0  0  0
 13 12  1  0  0  0  0
 14 13  1  0  0  0  0
 14 15  2  0  0  0  0
 15 16  1  0  0  0  0
 16 17  1  0  0  0  0
 17 22  1  0  0  0  0
 17  9  2  0  0  0  0
 19 11  1  0  0  0  0
 20 13  1  0  0  0  0
 21 14  1  0  0  0  0
 23 24  1  0  0  0  0
 24 25  2  0  0  0  0
 24 30  1  0  0  0  0
 25 26  1  0  0  0  0
 26 31  1  0  0  0  0
 26 27  2  0  0  0  0
 27 32  1  0  0  0  0
 28 27  1  0  0  0  0
 28 29  1  0  0  0  0
 30 28  2  0  0  0  0
 33 30  1  0  0  0  0
 34 33  2  0  0  0  0
 34 35  1  0  0  0  0
 36 34  1  0  0  0  0
 37 36  1  0  0  0  0
 38 36  1  0  0  0  0
 38 40  2  0  0  0  0
 39 38  1  0  0  0  0
 40 33  1  0  0  0  0
M  END
>  <minimizedAffinity>
-6.78589487

$$$$
