
 OpenBabel03212520043D

 40 44  0  0  0  0  0  0  0  0999 V2000
   40.6840   81.8020   57.1020 C   0  0  0  0  0  0  0  0  0  0  0  0
   41.7530   82.3890   56.3940 C   0  0  0  0  0  0  0  0  0  0  0  0
   42.5290   83.2940   57.0720 C   0  0  0  0  0  0  0  0  0  0  0  0
   42.2690   83.6000   58.3770 N   0  0  0  0  0  0  0  0  0  0  0  0
   41.2270   83.0090   59.0280 C   0  0  0  0  0  0  0  0  0  0  0  0
   40.4260   82.1050   58.3910 N   0  0  0  0  0  0  0  0  0  0  0  0
   39.9920   81.0810   56.7050 H   0  0  0  0  0  0  0  0  0  0  0  0
   41.7870   81.9760   55.4160 H   0  0  0  0  0  0  0  0  0  0  0  0
   39.6700   83.1110   60.9160 C   0  0  0  0  0  0  0  0  0  0  0  0
   40.9660   83.3060   60.4320 C   0  0  0  0  0  0  0  0  0  0  0  0
   41.9910   83.7550   61.2630 C   0  0  0  0  0  0  0  0  0  0  0  0
   41.7630   84.0260   62.6040 C   0  0  0  0  0  0  0  0  0  0  0  0
   42.4690   84.4530   63.6630 N   0  0  0  0  0  0  0  0  0  0  0  0
   41.6940   84.5280   64.7440 C   0  0  0  0  0  0  0  0  0  0  0  0
   40.4720   84.1360   64.3410 N   0  0  0  0  0  0  0  0  0  0  0  0
   40.4800   83.8200   63.0310 C   0  0  0  0  0  0  0  0  0  0  0  0
   39.4100   83.3760   62.2650 C   0  0  0  0  0  0  0  0  0  0  0  0
   38.8780   82.7650   60.2740 H   0  0  0  0  0  0  0  0  0  0  0  0
   43.0050   83.9080   60.8850 H   0  0  0  0  0  0  0  0  0  0  0  0
   43.5000   84.6650   63.5120 H   0  0  0  0  0  0  0  0  0  0  0  0
   42.1300   84.8590   65.6770 H   0  0  0  0  0  0  0  0  0  0  0  0
   38.4250   83.2440   62.6960 H   0  0  0  0  0  0  0  0  0  0  0  0
   42.4440   83.3300   54.0930 Cl  0  0  0  0  0  0  0  0  0  0  0  0
   43.7400   84.0410   55.0550 C   0  0  0  0  0  0  0  0  0  0  0  0
   43.6380   83.9500   56.4170 C   0  0  0  0  0  0  0  0  0  0  0  0
   44.6970   84.5460   57.0930 C   0  0  0  0  0  0  0  0  0  0  0  0
   45.7610   85.1760   56.4820 C   0  0  0  0  0  0  0  0  0  0  0  0
   45.8060   85.2330   55.1100 C   0  0  0  0  0  0  0  0  0  0  0  0
   47.1130   86.0100   54.2590 Cl  0  0  0  0  0  0  0  0  0  0  0  0
   44.7960   84.6660   54.4110 C   0  0  0  0  0  0  0  0  0  0  0  0
   44.7040   84.5250   58.1740 H   0  0  0  0  0  0  0  0  0  0  0  0
   46.5460   85.6150   57.0850 H   0  0  0  0  0  0  0  0  0  0  0  0
   44.8190   84.7240   52.9610 C   0  0  0  0  0  0  0  0  0  0  0  0
   44.2690   85.8280   52.3640 C   0  0  0  0  0  0  0  0  0  0  0  0
   43.7650   86.7870   52.6280 H   0  0  0  0  0  0  0  0  0  0  0  0
   44.2410   85.9780   51.0000 N   0  0  0  0  0  0  0  0  0  0  0  0
   44.2190   86.0900   49.9860 H   0  0  0  0  0  0  0  0  0  0  0  0
   44.8810   84.7580   50.7430 C   0  0  0  0  0  0  0  0  0  0  0  0
   45.3060   83.9830   50.0410 H   0  0  0  0  0  0  0  0  0  0  0  0
   45.2210   84.0210   51.8630 N   0  0  0  0  0  0  0  0  0  0  0  0
  1  6  1  0  0  0  0
  2  3  1  0  0  0  0
  2  1  2  0  0  0  0
  3  4  2  0  0  0  0
  4  5  1  0  0  0  0
  5 10  1  0  0  0  0
  6  5  2  0  0  0  0
  7  1  1  0  0  0  0
  8  2  1  0  0  0  0
  9 17  1  0  0  0  0
 10  9  2  0  0  0  0
 10 11  1  0  0  0  0
 11 12  2  0  0  0  0
 12 16  1  0  0  0  0
 12 13  1  0  0  0  0
 13 14  1  0  0  0  0
 14 21  1  0  0  0  0
 15 14  2  0  0  0  0
 16 15  1  0  0  0  0
 17 22  1  0  0  0  0
 17 16  2  0  0  0  0
 18  9  1  0  0  0  0
 19 11  1  0  0  0  0
 20 13  1  0  0  0  0
 23 24  1  0  0  0  0
 24 25  1  0  0  0  0
 25  3  1  0  0  0  0
 25 26  2  0  0  0  0
 26 31  1  0  0  0  0
 27 32  1  0  0  0  0
 27 26  1  0  0  0  0
 28 27  2  0  0  0  0
 29 28  1  0  0  0  0
 30 24  2  0  0  0  0
 30 28  1  0  0  0  0
 33 30  1  0  0  0  0
 34 35  1  0  0  0  0
 34 33  2  0  0  0  0
 36 34  1  0  0  0  0
 37 36  1  0  0  0  0
 38 36  1  0  0  0  0
 38 40  2  0  0  0  0
 39 38  1  0  0  0  0
 40 33  1  0  0  0  0
M  END
>  <minimizedAffinity>
-5.08265686

>  <minimizedRMSD>
0.261874199

$$$$
