
 OpenBabel03212520343D

 33 36  0  0  0  0  0  0  0  0999 V2000
   42.2730   72.9640   60.6910 C   0  0  0  0  0  0  0  0  0  0  0  0
   43.5490   73.1870   60.1880 C   0  0  0  0  0  0  0  0  0  0  0  0
   43.9360   74.3380   59.5350 C   0  0  0  0  0  0  0  0  0  0  0  0
   43.0180   75.3370   59.3610 C   0  0  0  0  0  0  0  0  0  0  0  0
   41.7350   75.1500   59.8510 C   0  0  0  0  0  0  0  0  0  0  0  0
   40.7270   76.0890   59.7290 C   0  0  0  0  0  0  0  0  0  0  0  0
   39.4570   75.8790   60.2210 C   0  0  0  0  0  0  0  0  0  0  0  0
   39.1310   74.7000   60.8670 C   0  0  0  0  0  0  0  0  0  0  0  0
   40.1170   73.7370   61.0070 C   0  0  0  0  0  0  0  0  0  0  0  0
   41.3630   73.9930   60.5020 C   0  0  0  0  0  0  0  0  0  0  0  0
   44.3460   72.4420   60.2810 H   0  0  0  0  0  0  0  0  0  0  0  0
   44.9300   74.4910   59.1520 H   0  0  0  0  0  0  0  0  0  0  0  0
   43.1930   76.2940   58.8660 H   0  0  0  0  0  0  0  0  0  0  0  0
   40.9630   77.0250   59.2240 H   0  0  0  0  0  0  0  0  0  0  0  0
   38.6810   76.6260   60.1160 H   0  0  0  0  0  0  0  0  0  0  0  0
   38.1420   74.5080   61.2630 H   0  0  0  0  0  0  0  0  0  0  0  0
   39.8530   72.8210   61.5170 H   0  0  0  0  0  0  0  0  0  0  0  0
   41.9420   71.3660   62.7040 C   0  0  0  0  0  0  0  0  0  0  0  0
   42.0880   71.6750   61.3540 C   0  0  0  0  0  0  0  0  0  0  0  0
   42.0780   70.6030   60.4190 C   0  0  0  0  0  0  0  0  0  0  0  0
   41.9270   69.3400   60.9070 N   0  0  0  0  0  0  0  0  0  0  0  0
   41.7880   69.0940   62.2370 C   0  0  0  0  0  0  0  0  0  0  0  0
   41.7990   70.1040   63.0990 N   0  0  0  0  0  0  0  0  0  0  0  0
   41.9580   72.2360   63.3190 H   0  0  0  0  0  0  0  0  0  0  0  0
   42.1810   70.7040   59.3480 H   0  0  0  0  0  0  0  0  0  0  0  0
   41.6310   67.7110   62.6860 C   0  0  0  0  0  0  0  0  0  0  0  0
   42.6630   66.7870   62.6110 C   0  0  0  0  0  0  0  0  0  0  0  0
   43.6980   66.8570   62.2490 H   0  0  0  0  0  0  0  0  0  0  0  0
   42.1570   65.6320   63.1100 N   0  0  0  0  0  0  0  0  0  0  0  0
   42.6530   64.7050   63.2120 H   0  0  0  0  0  0  0  0  0  0  0  0
   40.8760   65.7880   63.4870 C   0  0  0  0  0  0  0  0  0  0  0  0
   40.2060   65.0560   63.9190 H   0  0  0  0  0  0  0  0  0  0  0  0
   40.5730   67.0720   63.2190 N   0  0  0  0  0  0  0  0  0  0  0  0
  1 19  1  0  0  0  0
  2 11  1  0  0  0  0
  2  1  2  0  0  0  0
  3  2  1  0  0  0  0
  4  3  2  0  0  0  0
  4  5  1  0  0  0  0
  5 10  1  0  0  0  0
  6  5  2  0  0  0  0
  6  7  1  0  0  0  0
  7  8  2  0  0  0  0
  8  9  1  0  0  0  0
  8 16  1  0  0  0  0
  9 17  1  0  0  0  0
 10  1  1  0  0  0  0
 10  9  2  0  0  0  0
 12  3  1  0  0  0  0
 13  4  1  0  0  0  0
 14  6  1  0  0  0  0
 15  7  1  0  0  0  0
 18 23  1  0  0  0  0
 18 24  1  0  0  0  0
 19 18  2  0  0  0  0
 20 21  2  0  0  0  0
 20 19  1  0  0  0  0
 21 22  1  0  0  0  0
 22 26  1  0  0  0  0
 22 23  2  0  0  0  0
 25 20  1  0  0  0  0
 26 33  1  0  0  0  0
 27 26  2  0  0  0  0
 27 29  1  0  0  0  0
 28 27  1  0  0  0  0
 29 30  1  0  0  0  0
 29 31  1  0  0  0  0
 31 32  1  0  0  0  0
 33 31  2  0  0  0  0
M  END
>  <minimizedAffinity>
-6.42692614

$$$$

 OpenBabel03212520343D

 33 36  0  0  0  0  0  0  0  0999 V2000
   40.7660   73.3820   60.7720 C   0  0  0  0  0  0  0  0  0  0  0  0
   39.4620   73.5100   61.2380 C   0  0  0  0  0  0  0  0  0  0  0  0
   38.6940   74.6460   61.0930 C   0  0  0  0  0  0  0  0  0  0  0  0
   39.2320   75.7280   60.4530 C   0  0  0  0  0  0  0  0  0  0  0  0
   40.5300   75.6370   59.9740 C   0  0  0  0  0  0  0  0  0  0  0  0
   41.1750   76.6680   59.3160 C   0  0  0  0  0  0  0  0  0  0  0  0
   42.4680   76.5540   58.8520 C   0  0  0  0  0  0  0  0  0  0  0  0
   43.1870   75.3860   59.0290 C   0  0  0  0  0  0  0  0  0  0  0  0
   42.5710   74.3330   59.6850 C   0  0  0  0  0  0  0  0  0  0  0  0
   41.2860   74.4940   60.1260 C   0  0  0  0  0  0  0  0  0  0  0  0
   38.9530   72.6950   61.7630 H   0  0  0  0  0  0  0  0  0  0  0  0
   37.6860   74.7250   61.4620 H   0  0  0  0  0  0  0  0  0  0  0  0
   38.7340   76.6830   60.2710 H   0  0  0  0  0  0  0  0  0  0  0  0
   40.6270   77.5970   59.1660 H   0  0  0  0  0  0  0  0  0  0  0  0
   42.9560   77.3730   58.3390 H   0  0  0  0  0  0  0  0  0  0  0  0
   44.2030   75.2700   58.6760 H   0  0  0  0  0  0  0  0  0  0  0  0
   43.1400   73.4230   59.8140 H   0  0  0  0  0  0  0  0  0  0  0  0
   41.7160   71.0530   60.1540 C   0  0  0  0  0  0  0  0  0  0  0  0
   41.3870   72.0850   61.0280 C   0  0  0  0  0  0  0  0  0  0  0  0
   41.6630   71.9020   62.4110 C   0  0  0  0  0  0  0  0  0  0  0  0
   42.2330   70.7250   62.7920 N   0  0  0  0  0  0  0  0  0  0  0  0
   42.5340   69.7480   61.8960 C   0  0  0  0  0  0  0  0  0  0  0  0
   42.2720   69.9320   60.6060 N   0  0  0  0  0  0  0  0  0  0  0  0
   41.4750   71.2900   59.1440 H   0  0  0  0  0  0  0  0  0  0  0  0
   41.4590   72.6210   63.1930 H   0  0  0  0  0  0  0  0  0  0  0  0
   43.1450   68.5100   62.3790 C   0  0  0  0  0  0  0  0  0  0  0  0
   42.4980   67.6660   63.2700 C   0  0  0  0  0  0  0  0  0  0  0  0
   41.5140   67.7130   63.7580 H   0  0  0  0  0  0  0  0  0  0  0  0
   43.3540   66.6370   63.4870 N   0  0  0  0  0  0  0  0  0  0  0  0
   43.2050   65.7980   64.1110 H   0  0  0  0  0  0  0  0  0  0  0  0
   44.4900   66.7970   62.7840 C   0  0  0  0  0  0  0  0  0  0  0  0
   45.3560   66.1500   62.7480 H   0  0  0  0  0  0  0  0  0  0  0  0
   44.3400   67.9520   62.1110 N   0  0  0  0  0  0  0  0  0  0  0  0
  1 19  1  0  0  0  0
  1  2  1  0  0  0  0
  2 11  1  0  0  0  0
  3  2  2  0  0  0  0
  3 12  1  0  0  0  0
  4  3  1  0  0  0  0
  5 10  1  0  0  0  0
  5  4  2  0  0  0  0
  6  5  1  0  0  0  0
  7  8  1  0  0  0  0
  7  6  2  0  0  0  0
  8  9  2  0  0  0  0
  9 17  1  0  0  0  0
  9 10  1  0  0  0  0
 10  1  2  0  0  0  0
 13  4  1  0  0  0  0
 14  6  1  0  0  0  0
 15  7  1  0  0  0  0
 16  8  1  0  0  0  0
 18 23  2  0  0  0  0
 18 19  1  0  0  0  0
 19 20  2  0  0  0  0
 20 21  1  0  0  0  0
 20 25  1  0  0  0  0
 22 26  1  0  0  0  0
 22 21  2  0  0  0  0
 23 22  1  0  0  0  0
 24 18  1  0  0  0  0
 26 27  2  0  0  0  0
 27 29  1  0  0  0  0
 27 28  1  0  0  0  0
 29 30  1  0  0  0  0
 31 29  1  0  0  0  0
 32 31  1  0  0  0  0
 33 26  1  0  0  0  0
 33 31  2  0  0  0  0
M  END
>  <minimizedAffinity>
-6.3335309

$$$$

 OpenBabel03212520343D

 33 36  0  0  0  0  0  0  0  0999 V2000
   42.2390   73.2130   59.9940 C   0  0  0  0  0  0  0  0  0  0  0  0
   43.3980   73.6760   59.3810 C   0  0  0  0  0  0  0  0  0  0  0  0
   43.6020   74.9840   58.9960 C   0  0  0  0  0  0  0  0  0  0  0  0
   42.6130   75.9010   59.2230 C   0  0  0  0  0  0  0  0  0  0  0  0
   41.4430   75.4750   59.8340 C   0  0  0  0  0  0  0  0  0  0  0  0
   40.3760   76.3110   60.1080 C   0  0  0  0  0  0  0  0  0  0  0  0
   39.2220   75.8640   60.7120 C   0  0  0  0  0  0  0  0  0  0  0  0
   39.0770   74.5370   61.0750 C   0  0  0  0  0  0  0  0  0  0  0  0
   40.1260   73.6710   60.8140 C   0  0  0  0  0  0  0  0  0  0  0  0
   41.2520   74.1630   60.2130 C   0  0  0  0  0  0  0  0  0  0  0  0
   44.2400   73.0130   59.1600 H   0  0  0  0  0  0  0  0  0  0  0  0
   44.5070   75.3220   58.5220 H   0  0  0  0  0  0  0  0  0  0  0  0
   42.6460   76.9620   58.9700 H   0  0  0  0  0  0  0  0  0  0  0  0
   40.4700   77.3610   59.8310 H   0  0  0  0  0  0  0  0  0  0  0  0
   38.3980   76.5340   60.9190 H   0  0  0  0  0  0  0  0  0  0  0  0
   38.1820   74.1580   61.5510 H   0  0  0  0  0  0  0  0  0  0  0  0
   40.0050   72.6360   61.1060 H   0  0  0  0  0  0  0  0  0  0  0  0
   41.7440   70.6980   59.6180 C   0  0  0  0  0  0  0  0  0  0  0  0
   42.2430   71.7890   60.3240 C   0  0  0  0  0  0  0  0  0  0  0  0
   42.8570   71.5460   61.5830 C   0  0  0  0  0  0  0  0  0  0  0  0
   42.9160   70.2570   62.0190 N   0  0  0  0  0  0  0  0  0  0  0  0
   42.4120   69.2260   61.2900 C   0  0  0  0  0  0  0  0  0  0  0  0
   41.8420   69.4670   60.1140 N   0  0  0  0  0  0  0  0  0  0  0  0
   41.3110   70.9850   58.6880 H   0  0  0  0  0  0  0  0  0  0  0  0
   43.2840   72.3010   62.2300 H   0  0  0  0  0  0  0  0  0  0  0  0
   42.5120   67.8680   61.8230 C   0  0  0  0  0  0  0  0  0  0  0  0
   42.0760   67.5410   63.0990 C   0  0  0  0  0  0  0  0  0  0  0  0
   41.6170   68.1350   63.9020 H   0  0  0  0  0  0  0  0  0  0  0  0
   42.3240   66.2160   63.2420 N   0  0  0  0  0  0  0  0  0  0  0  0
   42.1250   65.6130   64.0860 H   0  0  0  0  0  0  0  0  0  0  0  0
   42.8880   65.7070   62.1320 C   0  0  0  0  0  0  0  0  0  0  0  0
   43.1990   64.6880   61.9410 H   0  0  0  0  0  0  0  0  0  0  0  0
   42.9940   66.7380   61.2740 N   0  0  0  0  0  0  0  0  0  0  0  0
  1 10  1  0  0  0  0
  1 19  1  0  0  0  0
  2  1  2  0  0  0  0
  3  4  2  0  0  0  0
  3  2  1  0  0  0  0
  4  5  1  0  0  0  0
  5  6  2  0  0  0  0
  5 10  1  0  0  0  0
  6  7  1  0  0  0  0
  7 15  1  0  0  0  0
  7  8  2  0  0  0  0
  8 16  1  0  0  0  0
  9  8  1  0  0  0  0
  9 17  1  0  0  0  0
 10  9  2  0  0  0  0
 11  2  1  0  0  0  0
 12  3  1  0  0  0  0
 13  4  1  0  0  0  0
 14  6  1  0  0  0  0
 18 23  2  0  0  0  0
 18 19  1  0  0  0  0
 19 20  2  0  0  0  0
 20 21  1  0  0  0  0
 20 25  1  0  0  0  0
 22 26  1  0  0  0  0
 22 21  2  0  0  0  0
 23 22  1  0  0  0  0
 24 18  1  0  0  0  0
 26 27  2  0  0  0  0
 27 29  1  0  0  0  0
 27 28  1  0  0  0  0
 29 30  1  0  0  0  0
 31 29  1  0  0  0  0
 32 31  1  0  0  0  0
 33 26  1  0  0  0  0
 33 31  2  0  0  0  0
M  END
>  <minimizedAffinity>
-6.01541996

$$$$

 OpenBabel03212520343D

 33 36  0  0  0  0  0  0  0  0999 V2000
   40.7940   70.5470   56.2360 C   0  0  0  0  0  0  0  0  0  0  0  0
   41.2980   69.3880   56.8140 C   0  0  0  0  0  0  0  0  0  0  0  0
   41.5180   68.2110   56.1310 C   0  0  0  0  0  0  0  0  0  0  0  0
   41.2250   68.1600   54.7950 C   0  0  0  0  0  0  0  0  0  0  0  0
   40.7210   69.2980   54.1840 C   0  0  0  0  0  0  0  0  0  0  0  0
   40.3870   69.3600   52.8440 C   0  0  0  0  0  0  0  0  0  0  0  0
   39.8830   70.5010   52.2590 C   0  0  0  0  0  0  0  0  0  0  0  0
   39.6850   71.6520   53.0000 C   0  0  0  0  0  0  0  0  0  0  0  0
   40.0080   71.6250   54.3470 C   0  0  0  0  0  0  0  0  0  0  0  0
   40.5060   70.4680   54.8810 C   0  0  0  0  0  0  0  0  0  0  0  0
   41.5590   69.3380   57.8770 H   0  0  0  0  0  0  0  0  0  0  0  0
   41.9090   67.3240   56.5980 H   0  0  0  0  0  0  0  0  0  0  0  0
   41.3520   67.2960   54.1400 H   0  0  0  0  0  0  0  0  0  0  0  0
   40.5350   68.4640   52.2410 H   0  0  0  0  0  0  0  0  0  0  0  0
   39.6280   70.5310   51.2080 H   0  0  0  0  0  0  0  0  0  0  0  0
   39.2910   72.5630   52.5680 H   0  0  0  0  0  0  0  0  0  0  0  0
   39.8550   72.5310   54.9170 H   0  0  0  0  0  0  0  0  0  0  0  0
   41.5130   72.7400   57.4130 C   0  0  0  0  0  0  0  0  0  0  0  0
   40.6510   71.6790   57.1480 C   0  0  0  0  0  0  0  0  0  0  0  0
   39.4210   71.6250   57.8600 C   0  0  0  0  0  0  0  0  0  0  0  0
   39.1650   72.6180   58.7570 N   0  0  0  0  0  0  0  0  0  0  0  0
   40.0440   73.6320   58.9780 C   0  0  0  0  0  0  0  0  0  0  0  0
   41.1890   73.6710   58.3060 N   0  0  0  0  0  0  0  0  0  0  0  0
   42.4010   72.6920   56.8270 H   0  0  0  0  0  0  0  0  0  0  0  0
   38.6650   70.8600   57.7500 H   0  0  0  0  0  0  0  0  0  0  0  0
   39.7010   74.6620   59.9580 C   0  0  0  0  0  0  0  0  0  0  0  0
   38.6790   74.4930   60.8810 C   0  0  0  0  0  0  0  0  0  0  0  0
   37.9810   73.6660   61.0740 H   0  0  0  0  0  0  0  0  0  0  0  0
   38.6530   75.6350   61.6120 N   0  0  0  0  0  0  0  0  0  0  0  0
   38.0040   75.8720   62.4110 H   0  0  0  0  0  0  0  0  0  0  0  0
   39.5960   76.4980   61.1940 C   0  0  0  0  0  0  0  0  0  0  0  0
   39.8230   77.4850   61.5750 H   0  0  0  0  0  0  0  0  0  0  0  0
   40.2280   75.8810   60.1790 N   0  0  0  0  0  0  0  0  0  0  0  0
  1  2  1  0  0  0  0
  1 19  1  0  0  0  0
  2 11  1  0  0  0  0
  3 12  1  0  0  0  0
  3  2  2  0  0  0  0
  4  3  1  0  0  0  0
  5  4  2  0  0  0  0
  5 10  1  0  0  0  0
  6  5  1  0  0  0  0
  7  6  2  0  0  0  0
  7  8  1  0  0  0  0
  8  9  2  0  0  0  0
  9 10  1  0  0  0  0
  9 17  1  0  0  0  0
 10  1  2  0  0  0  0
 13  4  1  0  0  0  0
 14  6  1  0  0  0  0
 15  7  1  0  0  0  0
 16  8  1  0  0  0  0
 18 23  1  0  0  0  0
 19 18  2  0  0  0  0
 19 20  1  0  0  0  0
 20 21  2  0  0  0  0
 21 22  1  0  0  0  0
 22 26  1  0  0  0  0
 23 22  2  0  0  0  0
 24 18  1  0  0  0  0
 25 20  1  0  0  0  0
 26 33  1  0  0  0  0
 26 27  2  0  0  0  0
 27 28  1  0  0  0  0
 27 29  1  0  0  0  0
 29 30  1  0  0  0  0
 31 32  1  0  0  0  0
 31 29  1  0  0  0  0
 33 31  2  0  0  0  0
M  END
>  <minimizedAffinity>
-5.69376326

$$$$

 OpenBabel03212520343D

 33 36  0  0  0  0  0  0  0  0999 V2000
   40.1540   75.1640   59.0680 C   0  0  0  0  0  0  0  0  0  0  0  0
   40.6290   76.3940   59.5080 C   0  0  0  0  0  0  0  0  0  0  0  0
   40.1310   77.6120   59.0960 C   0  0  0  0  0  0  0  0  0  0  0  0
   39.1020   77.6310   58.1950 C   0  0  0  0  0  0  0  0  0  0  0  0
   38.6010   76.4230   57.7350 C   0  0  0  0  0  0  0  0  0  0  0  0
   37.5670   76.3220   56.8220 C   0  0  0  0  0  0  0  0  0  0  0  0
   37.0900   75.1100   56.3760 C   0  0  0  0  0  0  0  0  0  0  0  0
   37.6330   73.9210   56.8280 C   0  0  0  0  0  0  0  0  0  0  0  0
   38.6720   73.9840   57.7430 C   0  0  0  0  0  0  0  0  0  0  0  0
   39.1110   75.2130   58.1560 C   0  0  0  0  0  0  0  0  0  0  0  0
   41.4510   76.4730   60.2280 H   0  0  0  0  0  0  0  0  0  0  0  0
   40.5130   78.5530   59.4480 H   0  0  0  0  0  0  0  0  0  0  0  0
   38.6160   78.5210   57.7890 H   0  0  0  0  0  0  0  0  0  0  0  0
   37.1240   77.2460   56.4530 H   0  0  0  0  0  0  0  0  0  0  0  0
   36.2790   75.0510   55.6610 H   0  0  0  0  0  0  0  0  0  0  0  0
   37.2790   72.9540   56.4950 H   0  0  0  0  0  0  0  0  0  0  0  0
   39.0870   73.0500   58.0940 H   0  0  0  0  0  0  0  0  0  0  0  0
   41.8330   73.1910   59.1270 C   0  0  0  0  0  0  0  0  0  0  0  0
   40.8260   74.0020   59.6450 C   0  0  0  0  0  0  0  0  0  0  0  0
   40.3180   73.6930   60.9370 C   0  0  0  0  0  0  0  0  0  0  0  0
   40.8510   72.6190   61.5850 N   0  0  0  0  0  0  0  0  0  0  0  0
   41.8340   71.8590   61.0330 C   0  0  0  0  0  0  0  0  0  0  0  0
   42.2990   72.1600   59.8260 N   0  0  0  0  0  0  0  0  0  0  0  0
   42.1460   73.5090   58.1600 H   0  0  0  0  0  0  0  0  0  0  0  0
   39.5410   74.2390   61.4540 H   0  0  0  0  0  0  0  0  0  0  0  0
   42.3560   70.7210   61.7890 C   0  0  0  0  0  0  0  0  0  0  0  0
   42.0600   70.5270   63.1300 C   0  0  0  0  0  0  0  0  0  0  0  0
   41.4510   71.0960   63.8470 H   0  0  0  0  0  0  0  0  0  0  0  0
   42.7070   69.3900   63.4870 N   0  0  0  0  0  0  0  0  0  0  0  0
   42.7170   68.9270   64.4360 H   0  0  0  0  0  0  0  0  0  0  0  0
   43.3860   68.8740   62.4470 C   0  0  0  0  0  0  0  0  0  0  0  0
   43.9940   67.9790   62.4160 H   0  0  0  0  0  0  0  0  0  0  0  0
   43.1560   69.7060   61.4150 N   0  0  0  0  0  0  0  0  0  0  0  0
  1  2  1  0  0  0  0
  1 19  1  0  0  0  0
  2 11  1  0  0  0  0
  3 12  1  0  0  0  0
  3  2  2  0  0  0  0
  4  3  1  0  0  0  0
  5 10  1  0  0  0  0
  5  4  2  0  0  0  0
  6  5  1  0  0  0  0
  7  6  2  0  0  0  0
  7  8  1  0  0  0  0
  8  9  2  0  0  0  0
  9 17  1  0  0  0  0
  9 10  1  0  0  0  0
 10  1  2  0  0  0  0
 13  4  1  0  0  0  0
 14  6  1  0  0  0  0
 15  7  1  0  0  0  0
 16  8  1  0  0  0  0
 18 19  2  0  0  0  0
 18 23  1  0  0  0  0
 19 20  1  0  0  0  0
 20 25  1  0  0  0  0
 20 21  2  0  0  0  0
 22 21  1  0  0  0  0
 22 26  1  0  0  0  0
 23 22  2  0  0  0  0
 24 18  1  0  0  0  0
 26 27  2  0  0  0  0
 27 29  1  0  0  0  0
 27 28  1  0  0  0  0
 29 30  1  0  0  0  0
 31 29  1  0  0  0  0
 32 31  1  0  0  0  0
 33 26  1  0  0  0  0
 33 31  2  0  0  0  0
M  END
>  <minimizedAffinity>
-5.56293774

$$$$

 OpenBabel03212520343D

 33 36  0  0  0  0  0  0  0  0999 V2000
   42.3480   70.0220   61.5980 C   0  0  0  0  0  0  0  0  0  0  0  0
   42.9320   69.9490   62.8580 C   0  0  0  0  0  0  0  0  0  0  0  0
   43.3100   68.7730   63.4710 C   0  0  0  0  0  0  0  0  0  0  0  0
   43.1050   67.5920   62.8130 C   0  0  0  0  0  0  0  0  0  0  0  0
   42.5260   67.6260   61.5540 C   0  0  0  0  0  0  0  0  0  0  0  0
   42.2680   66.4960   60.8010 C   0  0  0  0  0  0  0  0  0  0  0  0
   41.6870   66.5550   59.5530 C   0  0  0  0  0  0  0  0  0  0  0  0
   41.3300   67.7670   58.9920 C   0  0  0  0  0  0  0  0  0  0  0  0
   41.5730   68.9210   59.7190 C   0  0  0  0  0  0  0  0  0  0  0  0
   42.1520   68.8100   60.9540 C   0  0  0  0  0  0  0  0  0  0  0  0
   43.1320   70.8440   63.4560 H   0  0  0  0  0  0  0  0  0  0  0  0
   43.7600   68.7380   64.4480 H   0  0  0  0  0  0  0  0  0  0  0  0
   43.3570   66.5960   63.1830 H   0  0  0  0  0  0  0  0  0  0  0  0
   42.5420   65.5300   61.2240 H   0  0  0  0  0  0  0  0  0  0  0  0
   41.4940   65.6580   58.9780 H   0  0  0  0  0  0  0  0  0  0  0  0
   40.8720   67.8440   58.0140 H   0  0  0  0  0  0  0  0  0  0  0  0
   41.2940   69.8640   59.2700 H   0  0  0  0  0  0  0  0  0  0  0  0
   40.8510   72.1000   61.2070 C   0  0  0  0  0  0  0  0  0  0  0  0
   42.0370   71.3750   61.1410 C   0  0  0  0  0  0  0  0  0  0  0  0
   43.1640   71.9910   60.5290 C   0  0  0  0  0  0  0  0  0  0  0  0
   43.0070   73.2550   60.0450 N   0  0  0  0  0  0  0  0  0  0  0  0
   41.8240   73.9190   60.1350 C   0  0  0  0  0  0  0  0  0  0  0  0
   40.7800   73.3320   60.7100 N   0  0  0  0  0  0  0  0  0  0  0  0
   40.0730   71.5540   61.6870 H   0  0  0  0  0  0  0  0  0  0  0  0
   44.1400   71.5420   60.4140 H   0  0  0  0  0  0  0  0  0  0  0  0
   41.7310   75.2740   59.5920 C   0  0  0  0  0  0  0  0  0  0  0  0
   42.8080   75.9000   58.9810 C   0  0  0  0  0  0  0  0  0  0  0  0
   43.8410   75.5800   58.7850 H   0  0  0  0  0  0  0  0  0  0  0  0
   42.3560   77.1230   58.6080 N   0  0  0  0  0  0  0  0  0  0  0  0
   42.8960   77.8840   58.1130 H   0  0  0  0  0  0  0  0  0  0  0  0
   41.0670   77.2890   58.9530 C   0  0  0  0  0  0  0  0  0  0  0  0
   40.4310   78.1500   58.7930 H   0  0  0  0  0  0  0  0  0  0  0  0
   40.7030   76.1410   59.5550 N   0  0  0  0  0  0  0  0  0  0  0  0
  1  2  1  0  0  0  0
  2 11  1  0  0  0  0
  2  3  2  0  0  0  0
  3 12  1  0  0  0  0
  4 13  1  0  0  0  0
  4  3  1  0  0  0  0
  5  4  2  0  0  0  0
  6 14  1  0  0  0  0
  6  5  1  0  0  0  0
  7  6  2  0  0  0  0
  8  7  1  0  0  0  0
  8  9  2  0  0  0  0
  9 10  1  0  0  0  0
 10  5  1  0  0  0  0
 10  1  2  0  0  0  0
 15  7  1  0  0  0  0
 16  8  1  0  0  0  0
 17  9  1  0  0  0  0
 18 24  1  0  0  0  0
 19 18  1  0  0  0  0
 19  1  1  0  0  0  0
 20 19  2  0  0  0  0
 21 22  2  0  0  0  0
 21 20  1  0  0  0  0
 22 23  1  0  0  0  0
 23 18  2  0  0  0  0
 25 20  1  0  0  0  0
 26 22  1  0  0  0  0
 27 26  2  0  0  0  0
 28 27  1  0  0  0  0
 29 31  1  0  0  0  0
 29 27  1  0  0  0  0
 30 29  1  0  0  0  0
 31 33  2  0  0  0  0
 32 31  1  0  0  0  0
 33 26  1  0  0  0  0
M  END
>  <minimizedAffinity>
-5.53275299

$$$$

 OpenBabel03212520343D

 33 36  0  0  0  0  0  0  0  0999 V2000
   41.0220   72.6250   60.2010 C   0  0  0  0  0  0  0  0  0  0  0  0
   41.2450   73.2790   61.4080 C   0  0  0  0  0  0  0  0  0  0  0  0
   41.8670   72.7060   62.4970 C   0  0  0  0  0  0  0  0  0  0  0  0
   42.2980   71.4120   62.4040 C   0  0  0  0  0  0  0  0  0  0  0  0
   42.0930   70.7290   61.2150 C   0  0  0  0  0  0  0  0  0  0  0  0
   42.4830   69.4180   61.0100 C   0  0  0  0  0  0  0  0  0  0  0  0
   42.2650   68.7580   59.8210 C   0  0  0  0  0  0  0  0  0  0  0  0
   41.6350   69.3890   58.7630 C   0  0  0  0  0  0  0  0  0  0  0  0
   41.2290   70.7020   58.9340 C   0  0  0  0  0  0  0  0  0  0  0  0
   41.4690   71.3140   60.1340 C   0  0  0  0  0  0  0  0  0  0  0  0
   40.9320   74.3150   61.5710 H   0  0  0  0  0  0  0  0  0  0  0  0
   42.0300   73.2290   63.4220 H   0  0  0  0  0  0  0  0  0  0  0  0
   42.8030   70.8420   63.1870 H   0  0  0  0  0  0  0  0  0  0  0  0
   42.9820   68.9020   61.8300 H   0  0  0  0  0  0  0  0  0  0  0  0
   42.5780   67.7320   59.6790 H   0  0  0  0  0  0  0  0  0  0  0  0
   41.4490   68.8950   57.8180 H   0  0  0  0  0  0  0  0  0  0  0  0
   40.7410   71.1880   58.1000 H   0  0  0  0  0  0  0  0  0  0  0  0
   40.8720   74.1030   58.0780 C   0  0  0  0  0  0  0  0  0  0  0  0
   40.3530   73.4290   59.1800 C   0  0  0  0  0  0  0  0  0  0  0  0
   38.9520   73.5070   59.4120 C   0  0  0  0  0  0  0  0  0  0  0  0
   38.2070   74.2400   58.5380 N   0  0  0  0  0  0  0  0  0  0  0  0
   38.7650   74.8800   57.4760 C   0  0  0  0  0  0  0  0  0  0  0  0
   40.0750   74.7980   57.2710 N   0  0  0  0  0  0  0  0  0  0  0  0
   41.9260   73.9770   57.9900 H   0  0  0  0  0  0  0  0  0  0  0  0
   38.4230   73.0330   60.2270 H   0  0  0  0  0  0  0  0  0  0  0  0
   37.9010   75.6490   56.5810 C   0  0  0  0  0  0  0  0  0  0  0  0
   37.3180   75.0870   55.4540 C   0  0  0  0  0  0  0  0  0  0  0  0
   37.3570   74.0770   55.0230 H   0  0  0  0  0  0  0  0  0  0  0  0
   36.5970   76.0820   54.8800 N   0  0  0  0  0  0  0  0  0  0  0  0
   36.0150   76.0290   54.0010 H   0  0  0  0  0  0  0  0  0  0  0  0
   36.7030   77.2230   55.5850 C   0  0  0  0  0  0  0  0  0  0  0  0
   36.2480   78.1840   55.3830 H   0  0  0  0  0  0  0  0  0  0  0  0
   37.5070   76.9350   56.6240 N   0  0  0  0  0  0  0  0  0  0  0  0
  1  2  1  0  0  0  0
  2 11  1  0  0  0  0
  2  3  2  0  0  0  0
  3 12  1  0  0  0  0
  4  3  1  0  0  0  0
  4 13  1  0  0  0  0
  5  4  2  0  0  0  0
  6  5  1  0  0  0  0
  6 14  1  0  0  0  0
  7  6  2  0  0  0  0
  8  9  2  0  0  0  0
  8  7  1  0  0  0  0
  9 10  1  0  0  0  0
 10  1  2  0  0  0  0
 10  5  1  0  0  0  0
 15  7  1  0  0  0  0
 16  8  1  0  0  0  0
 17  9  1  0  0  0  0
 18 19  1  0  0  0  0
 19 20  2  0  0  0  0
 19  1  1  0  0  0  0
 20 25  1  0  0  0  0
 21 20  1  0  0  0  0
 22 21  2  0  0  0  0
 23 22  1  0  0  0  0
 23 18  2  0  0  0  0
 24 18  1  0  0  0  0
 26 33  1  0  0  0  0
 26 22  1  0  0  0  0
 27 26  2  0  0  0  0
 28 27  1  0  0  0  0
 29 27  1  0  0  0  0
 29 31  1  0  0  0  0
 30 29  1  0  0  0  0
 31 33  2  0  0  0  0
 32 31  1  0  0  0  0
M  END
>  <minimizedAffinity>
-5.40591717

$$$$

 OpenBabel03212520343D

 33 36  0  0  0  0  0  0  0  0999 V2000
   40.1850   71.6000   54.8950 C   0  0  0  0  0  0  0  0  0  0  0  0
   39.7120   72.1730   53.7200 C   0  0  0  0  0  0  0  0  0  0  0  0
   39.6670   71.5260   52.5030 C   0  0  0  0  0  0  0  0  0  0  0  0
   40.1130   70.2350   52.4260 C   0  0  0  0  0  0  0  0  0  0  0  0
   40.5910   69.6310   53.5790 C   0  0  0  0  0  0  0  0  0  0  0  0
   41.0710   68.3340   53.6180 C   0  0  0  0  0  0  0  0  0  0  0  0
   41.5450   67.7550   54.7740 C   0  0  0  0  0  0  0  0  0  0  0  0
   41.5640   68.4580   55.9650 C   0  0  0  0  0  0  0  0  0  0  0  0
   41.0920   69.7610   55.9620 C   0  0  0  0  0  0  0  0  0  0  0  0
   40.6310   70.2910   54.7880 C   0  0  0  0  0  0  0  0  0  0  0  0
   39.3360   73.2020   53.6880 H   0  0  0  0  0  0  0  0  0  0  0  0
   39.2970   71.9890   51.6050 H   0  0  0  0  0  0  0  0  0  0  0  0
   40.1320   69.6120   51.5300 H   0  0  0  0  0  0  0  0  0  0  0  0
   41.0640   67.7620   52.6910 H   0  0  0  0  0  0  0  0  0  0  0  0
   41.9160   66.7380   54.7850 H   0  0  0  0  0  0  0  0  0  0  0  0
   41.9310   68.0300   56.8890 H   0  0  0  0  0  0  0  0  0  0  0  0
   41.1070   70.3010   56.8990 H   0  0  0  0  0  0  0  0  0  0  0  0
   41.0780   73.3490   56.5840 C   0  0  0  0  0  0  0  0  0  0  0  0
   40.1310   72.4680   56.0690 C   0  0  0  0  0  0  0  0  0  0  0  0
   38.8950   72.3360   56.7600 C   0  0  0  0  0  0  0  0  0  0  0  0
   38.7180   73.0830   57.8850 N   0  0  0  0  0  0  0  0  0  0  0  0
   39.6770   73.9290   58.3470 C   0  0  0  0  0  0  0  0  0  0  0  0
   40.8260   74.0430   57.6910 N   0  0  0  0  0  0  0  0  0  0  0  0
   41.9630   73.3780   55.9930 H   0  0  0  0  0  0  0  0  0  0  0  0
   38.0780   71.6910   56.4680 H   0  0  0  0  0  0  0  0  0  0  0  0
   39.4150   74.6980   59.5620 C   0  0  0  0  0  0  0  0  0  0  0  0
   38.4370   74.3280   60.4750 C   0  0  0  0  0  0  0  0  0  0  0  0
   37.7260   73.4910   60.5030 H   0  0  0  0  0  0  0  0  0  0  0  0
   38.4820   75.2610   61.4580 N   0  0  0  0  0  0  0  0  0  0  0  0
   37.8820   75.3090   62.3260 H   0  0  0  0  0  0  0  0  0  0  0  0
   39.4270   76.1840   61.2060 C   0  0  0  0  0  0  0  0  0  0  0  0
   39.7020   77.0460   61.7990 H   0  0  0  0  0  0  0  0  0  0  0  0
   39.9880   75.8190   60.0380 N   0  0  0  0  0  0  0  0  0  0  0  0
  1 19  1  0  0  0  0
  2  1  2  0  0  0  0
  3  2  1  0  0  0  0
  4  3  2  0  0  0  0
  4  5  1  0  0  0  0
  5  6  2  0  0  0  0
  5 10  1  0  0  0  0
  6  7  1  0  0  0  0
  7 15  1  0  0  0  0
  7  8  2  0  0  0  0
  8 16  1  0  0  0  0
  9  8  1  0  0  0  0
  9 17  1  0  0  0  0
 10  1  1  0  0  0  0
 10  9  2  0  0  0  0
 11  2  1  0  0  0  0
 12  3  1  0  0  0  0
 13  4  1  0  0  0  0
 14  6  1  0  0  0  0
 18 23  1  0  0  0  0
 19 18  2  0  0  0  0
 19 20  1  0  0  0  0
 20 21  2  0  0  0  0
 21 22  1  0  0  0  0
 22 26  1  0  0  0  0
 23 22  2  0  0  0  0
 24 18  1  0  0  0  0
 25 20  1  0  0  0  0
 26 33  1  0  0  0  0
 26 27  2  0  0  0  0
 27 28  1  0  0  0  0
 27 29  1  0  0  0  0
 29 30  1  0  0  0  0
 31 29  1  0  0  0  0
 31 32  1  0  0  0  0
 33 31  2  0  0  0  0
M  END
>  <minimizedAffinity>
-5.39481211

$$$$

 OpenBabel03212520343D

 33 36  0  0  0  0  0  0  0  0999 V2000
   42.3390   72.8930   60.1120 C   0  0  0  0  0  0  0  0  0  0  0  0
   41.2640   73.7290   60.3920 C   0  0  0  0  0  0  0  0  0  0  0  0
   41.0960   74.9860   59.8500 C   0  0  0  0  0  0  0  0  0  0  0  0
   42.0380   75.4590   58.9790 C   0  0  0  0  0  0  0  0  0  0  0  0
   43.1240   74.6530   58.6750 C   0  0  0  0  0  0  0  0  0  0  0  0
   44.1380   75.0290   57.8130 C   0  0  0  0  0  0  0  0  0  0  0  0
   45.2100   74.2110   57.5300 C   0  0  0  0  0  0  0  0  0  0  0  0
   45.3210   72.9590   58.1070 C   0  0  0  0  0  0  0  0  0  0  0  0
   44.3240   72.5500   58.9770 C   0  0  0  0  0  0  0  0  0  0  0  0
   43.2790   73.3980   59.2260 C   0  0  0  0  0  0  0  0  0  0  0  0
   40.4640   73.4330   61.0780 H   0  0  0  0  0  0  0  0  0  0  0  0
   40.2560   75.6170   60.0800 H   0  0  0  0  0  0  0  0  0  0  0  0
   42.0260   76.4310   58.4810 H   0  0  0  0  0  0  0  0  0  0  0  0
   44.0690   76.0110   57.3470 H   0  0  0  0  0  0  0  0  0  0  0  0
   45.9930   74.5240   56.8520 H   0  0  0  0  0  0  0  0  0  0  0  0
   46.1520   72.2960   57.9040 H   0  0  0  0  0  0  0  0  0  0  0  0
   44.4180   71.5680   59.4200 H   0  0  0  0  0  0  0  0  0  0  0  0
   42.6790   71.2540   62.0890 C   0  0  0  0  0  0  0  0  0  0  0  0
   42.3080   71.6010   60.7930 C   0  0  0  0  0  0  0  0  0  0  0  0
   41.8250   70.5720   59.9380 C   0  0  0  0  0  0  0  0  0  0  0  0
   41.7570   69.3090   60.4460 N   0  0  0  0  0  0  0  0  0  0  0  0
   42.1330   69.0240   61.7210 C   0  0  0  0  0  0  0  0  0  0  0  0
   42.5820   69.9950   62.5080 N   0  0  0  0  0  0  0  0  0  0  0  0
   43.0210   72.0940   62.6470 H   0  0  0  0  0  0  0  0  0  0  0  0
   41.5040   70.7050   58.9140 H   0  0  0  0  0  0  0  0  0  0  0  0
   42.0320   67.6450   62.1950 C   0  0  0  0  0  0  0  0  0  0  0  0
   43.1510   66.8570   62.4200 C   0  0  0  0  0  0  0  0  0  0  0  0
   44.2280   67.0480   62.3120 H   0  0  0  0  0  0  0  0  0  0  0  0
   42.6770   65.6600   62.8470 N   0  0  0  0  0  0  0  0  0  0  0  0
   43.2370   64.8060   63.1160 H   0  0  0  0  0  0  0  0  0  0  0  0
   41.3330   65.6630   62.8980 C   0  0  0  0  0  0  0  0  0  0  0  0
   40.6690   64.8630   63.1980 H   0  0  0  0  0  0  0  0  0  0  0  0
   40.9580   66.8910   62.4950 N   0  0  0  0  0  0  0  0  0  0  0  0
  1  2  1  0  0  0  0
  1 19  1  0  0  0  0
  2 11  1  0  0  0  0
  3 12  1  0  0  0  0
  3  2  2  0  0  0  0
  4  3  1  0  0  0  0
  5  4  2  0  0  0  0
  5 10  1  0  0  0  0
  6  5  1  0  0  0  0
  7  6  2  0  0  0  0
  7  8  1  0  0  0  0
  8  9  2  0  0  0  0
  9 10  1  0  0  0  0
  9 17  1  0  0  0  0
 10  1  2  0  0  0  0
 13  4  1  0  0  0  0
 14  6  1  0  0  0  0
 15  7  1  0  0  0  0
 16  8  1  0  0  0  0
 18 23  1  0  0  0  0
 18 24  1  0  0  0  0
 19 18  2  0  0  0  0
 20 21  2  0  0  0  0
 20 19  1  0  0  0  0
 21 22  1  0  0  0  0
 22 26  1  0  0  0  0
 22 23  2  0  0  0  0
 25 20  1  0  0  0  0
 26 27  2  0  0  0  0
 26 33  1  0  0  0  0
 27 29  1  0  0  0  0
 28 27  1  0  0  0  0
 29 31  1  0  0  0  0
 29 30  1  0  0  0  0
 31 32  1  0  0  0  0
 33 31  2  0  0  0  0
M  END
>  <minimizedAffinity>
-5.3210516

$$$$
