
 OpenBabel03212520483D

 27 29  0  0  0  0  0  0  0  0999 V2000
   41.5820   83.9560   61.5220 C   0  0  0  0  0  0  0  0  0  0  0  0
   41.0730   84.4390   62.7220 C   0  0  0  0  0  0  0  0  0  0  0  0
   40.6000   83.5730   63.7090 C   0  0  0  0  0  0  0  0  0  0  0  0
   40.6360   82.2330   63.4940 N   0  0  0  0  0  0  0  0  0  0  0  0
   41.1320   81.7890   62.3320 C   0  0  0  0  0  0  0  0  0  0  0  0
   41.5990   82.6250   61.3540 N   0  0  0  0  0  0  0  0  0  0  0  0
   41.0590   85.4980   62.8570 H   0  0  0  0  0  0  0  0  0  0  0  0
   40.2300   84.0600   64.5930 H   0  0  0  0  0  0  0  0  0  0  0  0
   43.6420   86.3830   59.7240 C   0  0  0  0  0  0  0  0  0  0  0  0
   42.9380   86.5080   58.5090 C   0  0  0  0  0  0  0  0  0  0  0  0
   41.7720   85.7660   58.3170 C   0  0  0  0  0  0  0  0  0  0  0  0
   41.3830   84.9500   59.3400 N   0  0  0  0  0  0  0  0  0  0  0  0
   42.0800   84.8580   60.4840 C   0  0  0  0  0  0  0  0  0  0  0  0
   43.2000   85.5610   60.6890 N   0  0  0  0  0  0  0  0  0  0  0  0
   44.7910   87.1950   59.7610 N   0  0  0  0  0  0  0  0  0  0  0  0
   43.2240   87.1470   57.6840 H   0  0  0  0  0  0  0  0  0  0  0  0
   41.1850   85.8160   57.4080 H   0  0  0  0  0  0  0  0  0  0  0  0
   45.1180   87.8320   60.5160 H   0  0  0  0  0  0  0  0  0  0  0  0
   45.4660   87.2240   58.9570 H   0  0  0  0  0  0  0  0  0  0  0  0
   41.1650   80.3460   62.1160 C   0  0  0  0  0  0  0  0  0  0  0  0
   42.2560   79.8290   61.4210 C   0  0  0  0  0  0  0  0  0  0  0  0
   43.1380   80.2590   60.9770 H   0  0  0  0  0  0  0  0  0  0  0  0
   42.0490   78.4840   61.3570 N   0  0  0  0  0  0  0  0  0  0  0  0
   42.6410   77.7220   60.9140 H   0  0  0  0  0  0  0  0  0  0  0  0
   40.8870   78.1630   61.9780 C   0  0  0  0  0  0  0  0  0  0  0  0
   40.4250   77.1940   62.1090 H   0  0  0  0  0  0  0  0  0  0  0  0
   40.3380   79.3110   62.4480 N   0  0  0  0  0  0  0  0  0  0  0  0
  1  2  1  0  0  0  0
  2  7  1  0  0  0  0
  2  3  2  0  0  0  0
  3  8  1  0  0  0  0
  4  3  1  0  0  0  0
  5  4  2  0  0  0  0
  6  1  2  0  0  0  0
  6  5  1  0  0  0  0
  9 15  1  0  0  0  0
  9 14  1  0  0  0  0
 10  9  2  0  0  0  0
 11 10  1  0  0  0  0
 11 12  2  0  0  0  0
 12 13  1  0  0  0  0
 13 14  2  0  0  0  0
 13  1  1  0  0  0  0
 15 18  1  0  0  0  0
 16 10  1  0  0  0  0
 17 11  1  0  0  0  0
 19 15  1  0  0  0  0
 20  5  1  0  0  0  0
 20 27  1  0  0  0  0
 21 20  2  0  0  0  0
 22 21  1  0  0  0  0
 23 21  1  0  0  0  0
 23 25  1  0  0  0  0
 24 23  1  0  0  0  0
 25 26  1  0  0  0  0
 25 27  2  0  0  0  0
M  END
>  <minimizedAffinity>
-5.17786789

>  <minimizedRMSD>
0.164012536

$$$$
