
 OpenBabel03212521043D

 27 29  0  0  0  0  0  0  0  0999 V2000
   39.0650   75.2810   58.6660 C   0  0  0  0  0  0  0  0  0  0  0  0
   39.2170   76.1330   59.7540 C   0  0  0  0  0  0  0  0  0  0  0  0
   39.6000   75.7020   60.9950 C   0  0  0  0  0  0  0  0  0  0  0  0
   39.8520   74.3460   61.1810 C   0  0  0  0  0  0  0  0  0  0  0  0
   39.7020   73.4800   60.0970 C   0  0  0  0  0  0  0  0  0  0  0  0
   39.3140   73.9220   58.8450 C   0  0  0  0  0  0  0  0  0  0  0  0
   39.0150   77.1860   59.5810 H   0  0  0  0  0  0  0  0  0  0  0  0
   39.7140   76.3920   61.8380 H   0  0  0  0  0  0  0  0  0  0  0  0
   40.1530   73.9490   62.1250 H   0  0  0  0  0  0  0  0  0  0  0  0
   39.8980   72.4200   60.2490 H   0  0  0  0  0  0  0  0  0  0  0  0
   36.9490   76.4010   55.8930 C   0  0  0  0  0  0  0  0  0  0  0  0
   37.8760   76.8370   54.9550 C   0  0  0  0  0  0  0  0  0  0  0  0
   39.2420   76.7480   55.2740 C   0  0  0  0  0  0  0  0  0  0  0  0
   39.5700   76.2360   56.4890 N   0  0  0  0  0  0  0  0  0  0  0  0
   38.6570   75.8190   57.3840 C   0  0  0  0  0  0  0  0  0  0  0  0
   37.3560   75.9050   57.0800 N   0  0  0  0  0  0  0  0  0  0  0  0
   35.8860   76.4650   55.6550 H   0  0  0  0  0  0  0  0  0  0  0  0
   37.5840   77.2390   53.9950 H   0  0  0  0  0  0  0  0  0  0  0  0
   40.0140   77.0650   54.5980 H   0  0  0  0  0  0  0  0  0  0  0  0
   39.1680   72.9830   57.7370 C   0  0  0  0  0  0  0  0  0  0  0  0
   38.1750   72.2320   57.1440 C   0  0  0  0  0  0  0  0  0  0  0  0
   37.1900   72.3170   57.5850 H   0  0  0  0  0  0  0  0  0  0  0  0
   38.7480   71.5670   56.1270 N   0  0  0  0  0  0  0  0  0  0  0  0
   38.1580   70.9330   55.5450 H   0  0  0  0  0  0  0  0  0  0  0  0
   40.0530   71.8580   56.0440 C   0  0  0  0  0  0  0  0  0  0  0  0
   40.7390   71.4400   55.2940 H   0  0  0  0  0  0  0  0  0  0  0  0
   40.3010   72.7190   57.0260 N   0  0  0  0  0  0  0  0  0  0  0  0
  1  6  2  0  0  0  0
  1  2  1  0  0  0  0
  2  3  2  0  0  0  0
  3  4  1  0  0  0  0
  3  8  1  0  0  0  0
  4  9  1  0  0  0  0
  5 10  1  0  0  0  0
  5  4  2  0  0  0  0
  6  5  1  0  0  0  0
  7  2  1  0  0  0  0
 11 16  1  0  0  0  0
 12 13  1  0  0  0  0
 12 11  2  0  0  0  0
 13 14  2  0  0  0  0
 14 15  1  0  0  0  0
 15  1  1  0  0  0  0
 16 15  2  0  0  0  0
 17 11  1  0  0  0  0
 18 12  1  0  0  0  0
 19 13  1  0  0  0  0
 20  6  1  0  0  0  0
 21 22  1  0  0  0  0
 21 20  2  0  0  0  0
 23 21  1  0  0  0  0
 24 23  1  0  0  0  0
 25 23  1  0  0  0  0
 25 27  2  0  0  0  0
 26 25  1  0  0  0  0
 27 20  1  0  0  0  0
M  END
>  <minimizedAffinity>
-5.15056038

$$$$

 OpenBabel03212521043D

 27 29  0  0  0  0  0  0  0  0999 V2000
   39.7260   72.9030   59.2460 C   0  0  0  0  0  0  0  0  0  0  0  0
   39.4650   71.8950   58.3250 C   0  0  0  0  0  0  0  0  0  0  0  0
   38.5080   71.9990   57.3520 C   0  0  0  0  0  0  0  0  0  0  0  0
   37.7580   73.1690   57.2770 C   0  0  0  0  0  0  0  0  0  0  0  0
   38.0100   74.1880   58.1960 C   0  0  0  0  0  0  0  0  0  0  0  0
   38.9790   74.0770   59.1770 C   0  0  0  0  0  0  0  0  0  0  0  0
   40.0650   70.9930   58.4060 H   0  0  0  0  0  0  0  0  0  0  0  0
   38.3190   71.1910   56.6370 H   0  0  0  0  0  0  0  0  0  0  0  0
   36.9970   73.3090   56.5410 H   0  0  0  0  0  0  0  0  0  0  0  0
   37.4190   75.1000   58.1340 H   0  0  0  0  0  0  0  0  0  0  0  0
   43.0220   72.7680   60.8380 C   0  0  0  0  0  0  0  0  0  0  0  0
   42.7250   72.3540   62.1290 C   0  0  0  0  0  0  0  0  0  0  0  0
   41.3790   72.1190   62.4620 C   0  0  0  0  0  0  0  0  0  0  0  0
   40.4500   72.3120   61.4890 N   0  0  0  0  0  0  0  0  0  0  0  0
   40.7600   72.7140   60.2440 C   0  0  0  0  0  0  0  0  0  0  0  0
   42.0400   72.9390   59.9280 N   0  0  0  0  0  0  0  0  0  0  0  0
   44.0640   72.9530   60.5690 H   0  0  0  0  0  0  0  0  0  0  0  0
   43.4870   72.2080   62.8820 H   0  0  0  0  0  0  0  0  0  0  0  0
   41.0750   71.7960   63.4400 H   0  0  0  0  0  0  0  0  0  0  0  0
   39.2110   75.1660   60.1200 C   0  0  0  0  0  0  0  0  0  0  0  0
   38.8510   75.5140   61.4040 C   0  0  0  0  0  0  0  0  0  0  0  0
   38.2050   74.8160   61.9210 H   0  0  0  0  0  0  0  0  0  0  0  0
   39.4400   76.6930   61.6670 N   0  0  0  0  0  0  0  0  0  0  0  0
   39.2900   77.1340   62.6000 H   0  0  0  0  0  0  0  0  0  0  0  0
   40.1560   77.1110   60.6130 C   0  0  0  0  0  0  0  0  0  0  0  0
   40.7300   78.0460   60.5810 H   0  0  0  0  0  0  0  0  0  0  0  0
   40.0110   76.1780   59.6780 N   0  0  0  0  0  0  0  0  0  0  0  0
  1 15  1  0  0  0  0
  2  7  1  0  0  0  0
  2  1  2  0  0  0  0
  3  2  1  0  0  0  0
  4  3  2  0  0  0  0
  4  5  1  0  0  0  0
  5  6  2  0  0  0  0
  6  1  1  0  0  0  0
  6 20  1  0  0  0  0
  8  3  1  0  0  0  0
  9  4  1  0  0  0  0
 10  5  1  0  0  0  0
 11 12  1  0  0  0  0
 12 13  2  0  0  0  0
 12 18  1  0  0  0  0
 13 19  1  0  0  0  0
 14 13  1  0  0  0  0
 15 14  2  0  0  0  0
 16 15  1  0  0  0  0
 16 11  2  0  0  0  0
 17 11  1  0  0  0  0
 20 21  2  0  0  0  0
 21 23  1  0  0  0  0
 21 22  1  0  0  0  0
 23 24  1  0  0  0  0
 25 23  1  0  0  0  0
 26 25  1  0  0  0  0
 27 20  1  0  0  0  0
 27 25  2  0  0  0  0
M  END
>  <minimizedAffinity>
-5.08807659

$$$$

 OpenBabel03212521043D

 27 29  0  0  0  0  0  0  0  0999 V2000
   41.1380   72.0410   60.0030 C   0  0  0  0  0  0  0  0  0  0  0  0
   42.0890   71.0300   60.0890 C   0  0  0  0  0  0  0  0  0  0  0  0
   42.7260   70.6990   61.2540 C   0  0  0  0  0  0  0  0  0  0  0  0
   42.4080   71.4050   62.4110 C   0  0  0  0  0  0  0  0  0  0  0  0
   41.4550   72.4210   62.3380 C   0  0  0  0  0  0  0  0  0  0  0  0
   40.8150   72.7510   61.1560 C   0  0  0  0  0  0  0  0  0  0  0  0
   42.3180   70.4950   59.1720 H   0  0  0  0  0  0  0  0  0  0  0  0
   43.4730   69.8990   61.2990 H   0  0  0  0  0  0  0  0  0  0  0  0
   42.8710   71.1930   63.3500 H   0  0  0  0  0  0  0  0  0  0  0  0
   41.2120   72.9710   63.2450 H   0  0  0  0  0  0  0  0  0  0  0  0
   40.5080   73.4850   56.6960 C   0  0  0  0  0  0  0  0  0  0  0  0
   39.3200   72.8760   56.3140 C   0  0  0  0  0  0  0  0  0  0  0  0
   38.7260   71.9590   57.1980 C   0  0  0  0  0  0  0  0  0  0  0  0
   39.3570   71.7260   58.3780 N   0  0  0  0  0  0  0  0  0  0  0  0
   40.5080   72.3270   58.7290 C   0  0  0  0  0  0  0  0  0  0  0  0
   41.0740   73.2000   57.8870 N   0  0  0  0  0  0  0  0  0  0  0  0
   40.9780   74.2000   56.0170 H   0  0  0  0  0  0  0  0  0  0  0  0
   38.8400   73.0830   55.3680 H   0  0  0  0  0  0  0  0  0  0  0  0
   37.8070   71.4510   56.9700 H   0  0  0  0  0  0  0  0  0  0  0  0
   39.8250   73.8230   61.1220 C   0  0  0  0  0  0  0  0  0  0  0  0
   38.4580   73.9680   61.2160 C   0  0  0  0  0  0  0  0  0  0  0  0
   37.8930   73.0550   61.3540 H   0  0  0  0  0  0  0  0  0  0  0  0
   38.1980   75.2810   61.1010 N   0  0  0  0  0  0  0  0  0  0  0  0
   37.2070   75.6040   61.1450 H   0  0  0  0  0  0  0  0  0  0  0  0
   39.3320   75.9770   60.9390 C   0  0  0  0  0  0  0  0  0  0  0  0
   39.3830   77.0680   60.8240 H   0  0  0  0  0  0  0  0  0  0  0  0
   40.3160   75.0840   60.9530 N   0  0  0  0  0  0  0  0  0  0  0  0
  1  2  2  0  0  0  0
  1  6  1  0  0  0  0
  2  3  1  0  0  0  0
  3  8  1  0  0  0  0
  3  4  2  0  0  0  0
  4  9  1  0  0  0  0
  5  4  1  0  0  0  0
  5 10  1  0  0  0  0
  6  5  2  0  0  0  0
  7  2  1  0  0  0  0
 11 16  1  0  0  0  0
 12 11  2  0  0  0  0
 12 13  1  0  0  0  0
 13 14  2  0  0  0  0
 14 15  1  0  0  0  0
 15  1  1  0  0  0  0
 16 15  2  0  0  0  0
 17 11  1  0  0  0  0
 18 12  1  0  0  0  0
 19 13  1  0  0  0  0
 20  6  1  0  0  0  0
 20 21  2  0  0  0  0
 21 22  1  0  0  0  0
 23 24  1  0  0  0  0
 23 21  1  0  0  0  0
 25 27  2  0  0  0  0
 25 23  1  0  0  0  0
 26 25  1  0  0  0  0
 27 20  1  0  0  0  0
M  END
>  <minimizedAffinity>
-4.99252748

$$$$

 OpenBabel03212521043D

 27 29  0  0  0  0  0  0  0  0999 V2000
   41.0260   75.3040   57.8850 C   0  0  0  0  0  0  0  0  0  0  0  0
   42.1400   75.2300   57.0570 C   0  0  0  0  0  0  0  0  0  0  0  0
   43.4020   74.9750   57.5210 C   0  0  0  0  0  0  0  0  0  0  0  0
   43.5830   74.7790   58.8860 C   0  0  0  0  0  0  0  0  0  0  0  0
   42.4730   74.8510   59.7290 C   0  0  0  0  0  0  0  0  0  0  0  0
   41.2000   75.1100   59.2530 C   0  0  0  0  0  0  0  0  0  0  0  0
   41.9710   75.3860   55.9950 H   0  0  0  0  0  0  0  0  0  0  0  0
   44.2670   74.9210   56.8490 H   0  0  0  0  0  0  0  0  0  0  0  0
   44.5430   74.5780   59.3080 H   0  0  0  0  0  0  0  0  0  0  0  0
   42.6210   74.7000   60.7960 H   0  0  0  0  0  0  0  0  0  0  0  0
   38.0850   77.1190   56.6710 C   0  0  0  0  0  0  0  0  0  0  0  0
   37.2530   76.0990   56.2300 C   0  0  0  0  0  0  0  0  0  0  0  0
   37.7030   74.7720   56.3480 C   0  0  0  0  0  0  0  0  0  0  0  0
   38.9320   74.5730   56.8910 N   0  0  0  0  0  0  0  0  0  0  0  0
   39.7230   75.5760   57.3120 C   0  0  0  0  0  0  0  0  0  0  0  0
   39.2950   76.8380   57.1990 N   0  0  0  0  0  0  0  0  0  0  0  0
   37.7450   78.1530   56.5850 H   0  0  0  0  0  0  0  0  0  0  0  0
   36.2790   76.2890   55.8020 H   0  0  0  0  0  0  0  0  0  0  0  0
   37.1130   73.9340   56.0290 H   0  0  0  0  0  0  0  0  0  0  0  0
   40.0650   75.1780   60.1680 C   0  0  0  0  0  0  0  0  0  0  0  0
   39.4380   76.1090   60.9680 C   0  0  0  0  0  0  0  0  0  0  0  0
   39.8680   77.1030   60.9630 H   0  0  0  0  0  0  0  0  0  0  0  0
   38.4100   75.4810   61.5630 N   0  0  0  0  0  0  0  0  0  0  0  0
   37.8030   76.0190   62.2190 H   0  0  0  0  0  0  0  0  0  0  0  0
   38.3530   74.1980   61.1810 C   0  0  0  0  0  0  0  0  0  0  0  0
   37.6010   73.4770   61.5290 H   0  0  0  0  0  0  0  0  0  0  0  0
   39.3610   74.0220   60.3330 N   0  0  0  0  0  0  0  0  0  0  0  0
  1  6  1  0  0  0  0
  2  3  1  0  0  0  0
  2  1  2  0  0  0  0
  3  4  2  0  0  0  0
  4  9  1  0  0  0  0
  4  5  1  0  0  0  0
  5 10  1  0  0  0  0
  6  5  2  0  0  0  0
  6 20  1  0  0  0  0
  7  2  1  0  0  0  0
  8  3  1  0  0  0  0
 11 16  1  0  0  0  0
 12 13  1  0  0  0  0
 12 11  2  0  0  0  0
 13 14  2  0  0  0  0
 14 15  1  0  0  0  0
 15  1  1  0  0  0  0
 16 15  2  0  0  0  0
 17 11  1  0  0  0  0
 18 12  1  0  0  0  0
 19 13  1  0  0  0  0
 20 27  1  0  0  0  0
 20 21  2  0  0  0  0
 21 23  1  0  0  0  0
 22 21  1  0  0  0  0
 23 24  1  0  0  0  0
 25 26  1  0  0  0  0
 25 23  1  0  0  0  0
 27 25  2  0  0  0  0
M  END
>  <minimizedAffinity>
-4.94089317

$$$$

 OpenBabel03212521043D

 27 29  0  0  0  0  0  0  0  0999 V2000
   39.7770   73.2080   57.9300 C   0  0  0  0  0  0  0  0  0  0  0  0
   40.3520   72.2300   57.1260 C   0  0  0  0  0  0  0  0  0  0  0  0
   41.1680   71.2450   57.6140 C   0  0  0  0  0  0  0  0  0  0  0  0
   41.4380   71.2180   58.9790 C   0  0  0  0  0  0  0  0  0  0  0  0
   40.8670   72.1940   59.7960 C   0  0  0  0  0  0  0  0  0  0  0  0
   40.0430   73.1870   59.2960 C   0  0  0  0  0  0  0  0  0  0  0  0
   40.1250   72.2740   56.0650 H   0  0  0  0  0  0  0  0  0  0  0  0
   41.6110   70.4840   56.9620 H   0  0  0  0  0  0  0  0  0  0  0  0
   42.0670   70.4760   59.4180 H   0  0  0  0  0  0  0  0  0  0  0  0
   41.0830   72.1700   60.8620 H   0  0  0  0  0  0  0  0  0  0  0  0
   38.6660   76.3420   56.3920 C   0  0  0  0  0  0  0  0  0  0  0  0
   37.3070   76.1290   56.2050 C   0  0  0  0  0  0  0  0  0  0  0  0
   36.7620   74.8970   56.6090 C   0  0  0  0  0  0  0  0  0  0  0  0
   37.6070   73.9880   57.1620 N   0  0  0  0  0  0  0  0  0  0  0  0
   38.9220   74.2150   57.3330 C   0  0  0  0  0  0  0  0  0  0  0  0
   39.4400   75.3860   56.9480 N   0  0  0  0  0  0  0  0  0  0  0  0
   39.0990   77.2950   56.0830 H   0  0  0  0  0  0  0  0  0  0  0  0
   36.6580   76.8720   55.7630 H   0  0  0  0  0  0  0  0  0  0  0  0
   35.7200   74.6640   56.4970 H   0  0  0  0  0  0  0  0  0  0  0  0
   39.4670   74.1910   60.1850 C   0  0  0  0  0  0  0  0  0  0  0  0
   38.3510   74.3490   60.9790 C   0  0  0  0  0  0  0  0  0  0  0  0
   37.6550   73.5200   60.9870 H   0  0  0  0  0  0  0  0  0  0  0  0
   38.4490   75.5610   61.5500 N   0  0  0  0  0  0  0  0  0  0  0  0
   37.6920   75.8750   62.1960 H   0  0  0  0  0  0  0  0  0  0  0  0
   39.5710   76.1810   61.1600 C   0  0  0  0  0  0  0  0  0  0  0  0
   39.8770   77.1830   61.4900 H   0  0  0  0  0  0  0  0  0  0  0  0
   40.1840   75.3420   60.3300 N   0  0  0  0  0  0  0  0  0  0  0  0
  1  6  1  0  0  0  0
  2  3  1  0  0  0  0
  2  1  2  0  0  0  0
  3  4  2  0  0  0  0
  4  9  1  0  0  0  0
  4  5  1  0  0  0  0
  5 10  1  0  0  0  0
  6  5  2  0  0  0  0
  6 20  1  0  0  0  0
  7  2  1  0  0  0  0
  8  3  1  0  0  0  0
 11 16  1  0  0  0  0
 12 11  2  0  0  0  0
 12 13  1  0  0  0  0
 13 14  2  0  0  0  0
 14 15  1  0  0  0  0
 15  1  1  0  0  0  0
 16 15  2  0  0  0  0
 17 11  1  0  0  0  0
 18 12  1  0  0  0  0
 19 13  1  0  0  0  0
 20 27  1  0  0  0  0
 20 21  2  0  0  0  0
 21 22  1  0  0  0  0
 21 23  1  0  0  0  0
 23 24  1  0  0  0  0
 25 26  1  0  0  0  0
 25 23  1  0  0  0  0
 27 25  2  0  0  0  0
M  END
>  <minimizedAffinity>
-4.75786972

$$$$

 OpenBabel03212521043D

 27 29  0  0  0  0  0  0  0  0999 V2000
   40.3390   74.6710   59.7710 C   0  0  0  0  0  0  0  0  0  0  0  0
   40.1900   75.9860   60.1950 C   0  0  0  0  0  0  0  0  0  0  0  0
   39.5340   76.9390   59.4630 C   0  0  0  0  0  0  0  0  0  0  0  0
   38.9870   76.5760   58.2350 C   0  0  0  0  0  0  0  0  0  0  0  0
   39.1310   75.2590   57.7980 C   0  0  0  0  0  0  0  0  0  0  0  0
   39.7960   74.3010   58.5430 C   0  0  0  0  0  0  0  0  0  0  0  0
   40.6250   76.2430   61.1560 H   0  0  0  0  0  0  0  0  0  0  0  0
   39.4280   77.9700   59.8160 H   0  0  0  0  0  0  0  0  0  0  0  0
   38.4650   77.2740   57.6180 H   0  0  0  0  0  0  0  0  0  0  0  0
   38.7040   74.9820   56.8360 H   0  0  0  0  0  0  0  0  0  0  0  0
   41.0150   72.1350   62.3260 C   0  0  0  0  0  0  0  0  0  0  0  0
   42.3830   71.9280   62.2010 C   0  0  0  0  0  0  0  0  0  0  0  0
   43.0840   72.6640   61.2310 C   0  0  0  0  0  0  0  0  0  0  0  0
   42.3720   73.5380   60.4710 N   0  0  0  0  0  0  0  0  0  0  0  0
   41.0470   73.7230   60.6080 C   0  0  0  0  0  0  0  0  0  0  0  0
   40.3800   73.0220   61.5320 N   0  0  0  0  0  0  0  0  0  0  0  0
   40.4610   71.5690   63.0770 H   0  0  0  0  0  0  0  0  0  0  0  0
   42.9220   71.2250   62.8210 H   0  0  0  0  0  0  0  0  0  0  0  0
   44.1410   72.5570   61.0790 H   0  0  0  0  0  0  0  0  0  0  0  0
   39.9250   72.9340   58.0500 C   0  0  0  0  0  0  0  0  0  0  0  0
   39.2480   71.7370   58.1370 C   0  0  0  0  0  0  0  0  0  0  0  0
   38.3470   71.7450   58.7370 H   0  0  0  0  0  0  0  0  0  0  0  0
   39.9410   70.8440   57.4100 N   0  0  0  0  0  0  0  0  0  0  0  0
   39.5900   69.8640   57.3490 H   0  0  0  0  0  0  0  0  0  0  0  0
   41.0240   71.4150   56.8650 C   0  0  0  0  0  0  0  0  0  0  0  0
   41.7500   70.8930   56.2260 H   0  0  0  0  0  0  0  0  0  0  0  0
   41.0070   72.6850   57.2580 N   0  0  0  0  0  0  0  0  0  0  0  0
  1  2  1  0  0  0  0
  1 15  1  0  0  0  0
  2  7  1  0  0  0  0
  3  8  1  0  0  0  0
  3  2  2  0  0  0  0
  4  3  1  0  0  0  0
  5  4  2  0  0  0  0
  5  6  1  0  0  0  0
  6  1  2  0  0  0  0
  9  4  1  0  0  0  0
 10  5  1  0  0  0  0
 11 17  1  0  0  0  0
 12 11  1  0  0  0  0
 12 18  1  0  0  0  0
 13 12  2  0  0  0  0
 14 15  2  0  0  0  0
 14 13  1  0  0  0  0
 15 16  1  0  0  0  0
 16 11  2  0  0  0  0
 19 13  1  0  0  0  0
 20 21  2  0  0  0  0
 20  6  1  0  0  0  0
 21 22  1  0  0  0  0
 23 21  1  0  0  0  0
 24 23  1  0  0  0  0
 25 27  2  0  0  0  0
 25 23  1  0  0  0  0
 26 25  1  0  0  0  0
 27 20  1  0  0  0  0
M  END
>  <minimizedAffinity>
-4.74463224

$$$$

 OpenBabel03212521043D

 27 29  0  0  0  0  0  0  0  0999 V2000
   40.7650   75.9150   57.5640 C   0  0  0  0  0  0  0  0  0  0  0  0
   41.0440   76.3620   56.2770 C   0  0  0  0  0  0  0  0  0  0  0  0
   40.1910   77.1550   55.5590 C   0  0  0  0  0  0  0  0  0  0  0  0
   38.9850   77.5350   56.1410 C   0  0  0  0  0  0  0  0  0  0  0  0
   38.6930   77.0930   57.4320 C   0  0  0  0  0  0  0  0  0  0  0  0
   39.5600   76.2910   58.1520 C   0  0  0  0  0  0  0  0  0  0  0  0
   41.9920   76.0510   55.8470 H   0  0  0  0  0  0  0  0  0  0  0  0
   40.4310   77.4950   54.5450 H   0  0  0  0  0  0  0  0  0  0  0  0
   38.2780   78.1510   55.6300 H   0  0  0  0  0  0  0  0  0  0  0  0
   37.7480   77.3910   57.8810 H   0  0  0  0  0  0  0  0  0  0  0  0
   43.6380   74.8890   59.5910 C   0  0  0  0  0  0  0  0  0  0  0  0
   43.5500   73.5030   59.5720 C   0  0  0  0  0  0  0  0  0  0  0  0
   42.4940   72.9110   58.8570 C   0  0  0  0  0  0  0  0  0  0  0  0
   41.6220   73.7390   58.2260 N   0  0  0  0  0  0  0  0  0  0  0  0
   41.7250   75.0800   58.2570 C   0  0  0  0  0  0  0  0  0  0  0  0
   42.7290   75.6430   58.9380 N   0  0  0  0  0  0  0  0  0  0  0  0
   44.4550   75.3590   60.1430 H   0  0  0  0  0  0  0  0  0  0  0  0
   44.2610   72.8690   60.0840 H   0  0  0  0  0  0  0  0  0  0  0  0
   42.3640   71.8470   58.7970 H   0  0  0  0  0  0  0  0  0  0  0  0
   39.2160   75.8490   59.5000 C   0  0  0  0  0  0  0  0  0  0  0  0
   39.4100   76.2590   60.8020 C   0  0  0  0  0  0  0  0  0  0  0  0
   39.9820   77.1690   60.9310 H   0  0  0  0  0  0  0  0  0  0  0  0
   38.8000   75.3560   61.5880 N   0  0  0  0  0  0  0  0  0  0  0  0
   38.8320   75.4870   62.6220 H   0  0  0  0  0  0  0  0  0  0  0  0
   38.2270   74.3950   60.8510 C   0  0  0  0  0  0  0  0  0  0  0  0
   37.6670   73.5440   61.2620 H   0  0  0  0  0  0  0  0  0  0  0  0
   38.4850   74.7020   59.5830 N   0  0  0  0  0  0  0  0  0  0  0  0
  1  6  1  0  0  0  0
  1 15  1  0  0  0  0
  2  1  2  0  0  0  0
  3  4  2  0  0  0  0
  3  2  1  0  0  0  0
  4  5  1  0  0  0  0
  5 10  1  0  0  0  0
  5  6  2  0  0  0  0
  6 20  1  0  0  0  0
  7  2  1  0  0  0  0
  8  3  1  0  0  0  0
  9  4  1  0  0  0  0
 11 17  1  0  0  0  0
 12 11  1  0  0  0  0
 12 18  1  0  0  0  0
 13 12  2  0  0  0  0
 14 15  2  0  0  0  0
 14 13  1  0  0  0  0
 15 16  1  0  0  0  0
 16 11  2  0  0  0  0
 19 13  1  0  0  0  0
 20 27  1  0  0  0  0
 20 21  2  0  0  0  0
 21 22  1  0  0  0  0
 21 23  1  0  0  0  0
 23 24  1  0  0  0  0
 25 26  1  0  0  0  0
 25 23  1  0  0  0  0
 27 25  2  0  0  0  0
M  END
>  <minimizedAffinity>
-4.68720865

$$$$

 OpenBabel03212521043D

 27 29  0  0  0  0  0  0  0  0999 V2000
   41.0530   73.4120   60.7640 C   0  0  0  0  0  0  0  0  0  0  0  0
   40.4310   72.7090   61.7900 C   0  0  0  0  0  0  0  0  0  0  0  0
   41.0800   71.7860   62.5650 C   0  0  0  0  0  0  0  0  0  0  0  0
   42.4270   71.5380   62.3180 C   0  0  0  0  0  0  0  0  0  0  0  0
   43.0620   72.2370   61.2910 C   0  0  0  0  0  0  0  0  0  0  0  0
   42.4000   73.1680   60.5110 C   0  0  0  0  0  0  0  0  0  0  0  0
   39.3800   72.9220   61.9610 H   0  0  0  0  0  0  0  0  0  0  0  0
   40.5710   71.2430   63.3680 H   0  0  0  0  0  0  0  0  0  0  0  0
   42.9870   70.8290   62.8880 H   0  0  0  0  0  0  0  0  0  0  0  0
   44.1150   72.0370   61.1010 H   0  0  0  0  0  0  0  0  0  0  0  0
   39.5270   76.5650   59.6930 C   0  0  0  0  0  0  0  0  0  0  0  0
   38.8530   76.2040   58.5340 C   0  0  0  0  0  0  0  0  0  0  0  0
   38.9200   74.8650   58.1120 C   0  0  0  0  0  0  0  0  0  0  0  0
   39.6470   74.0040   58.8720 N   0  0  0  0  0  0  0  0  0  0  0  0
   40.2930   74.3750   59.9910 C   0  0  0  0  0  0  0  0  0  0  0  0
   40.2290   75.6490   60.3930 N   0  0  0  0  0  0  0  0  0  0  0  0
   39.4800   77.6030   60.0300 H   0  0  0  0  0  0  0  0  0  0  0  0
   38.2820   76.9120   57.9500 H   0  0  0  0  0  0  0  0  0  0  0  0
   38.4240   74.5140   57.2270 H   0  0  0  0  0  0  0  0  0  0  0  0
   43.1010   73.8780   59.4450 C   0  0  0  0  0  0  0  0  0  0  0  0
   43.7150   75.0960   59.2460 C   0  0  0  0  0  0  0  0  0  0  0  0
   43.7060   75.7740   60.0890 H   0  0  0  0  0  0  0  0  0  0  0  0
   44.1750   75.0960   57.9830 N   0  0  0  0  0  0  0  0  0  0  0  0
   44.6770   75.9400   57.6320 H   0  0  0  0  0  0  0  0  0  0  0  0
   43.8860   73.9390   57.3720 C   0  0  0  0  0  0  0  0  0  0  0  0
   44.1570   73.6970   56.3360 H   0  0  0  0  0  0  0  0  0  0  0  0
   43.2330   73.2040   58.2670 N   0  0  0  0  0  0  0  0  0  0  0  0
  1  2  1  0  0  0  0
  2  7  1  0  0  0  0
  2  3  2  0  0  0  0
  3  8  1  0  0  0  0
  4  3  1  0  0  0  0
  4  9  1  0  0  0  0
  5  4  2  0  0  0  0
  6  1  2  0  0  0  0
  6  5  1  0  0  0  0
 10  5  1  0  0  0  0
 11 17  1  0  0  0  0
 11 16  1  0  0  0  0
 12 11  2  0  0  0  0
 13 12  1  0  0  0  0
 13 14  2  0  0  0  0
 14 15  1  0  0  0  0
 15 16  2  0  0  0  0
 15  1  1  0  0  0  0
 18 12  1  0  0  0  0
 19 13  1  0  0  0  0
 20  6  1  0  0  0  0
 21 20  2  0  0  0  0
 21 22  1  0  0  0  0
 23 21  1  0  0  0  0
 24 23  1  0  0  0  0
 25 23  1  0  0  0  0
 25 27  2  0  0  0  0
 26 25  1  0  0  0  0
 27 20  1  0  0  0  0
M  END
>  <minimizedAffinity>
-4.64157677

$$$$

 OpenBabel03212521043D

 27 29  0  0  0  0  0  0  0  0999 V2000
   42.1690   72.5990   60.6160 C   0  0  0  0  0  0  0  0  0  0  0  0
   43.0420   71.6370   61.1120 C   0  0  0  0  0  0  0  0  0  0  0  0
   42.7820   70.8960   62.2330 C   0  0  0  0  0  0  0  0  0  0  0  0
   41.5870   71.1130   62.9120 C   0  0  0  0  0  0  0  0  0  0  0  0
   40.7020   72.0760   62.4250 C   0  0  0  0  0  0  0  0  0  0  0  0
   40.9720   72.8210   61.2910 C   0  0  0  0  0  0  0  0  0  0  0  0
   43.9680   71.4880   60.5630 H   0  0  0  0  0  0  0  0  0  0  0  0
   43.4850   70.1430   62.6060 H   0  0  0  0  0  0  0  0  0  0  0  0
   41.3280   70.5670   63.7930 H   0  0  0  0  0  0  0  0  0  0  0  0
   39.7700   72.2430   62.9610 H   0  0  0  0  0  0  0  0  0  0  0  0
   42.5060   73.5230   57.0880 C   0  0  0  0  0  0  0  0  0  0  0  0
   43.1850   74.7330   57.1490 C   0  0  0  0  0  0  0  0  0  0  0  0
   43.5330   75.2400   58.4130 C   0  0  0  0  0  0  0  0  0  0  0  0
   43.1790   74.5080   59.5020 N   0  0  0  0  0  0  0  0  0  0  0  0
   42.5210   73.3380   59.4200 C   0  0  0  0  0  0  0  0  0  0  0  0
   42.1890   72.8560   58.2170 N   0  0  0  0  0  0  0  0  0  0  0  0
   42.2310   73.1200   56.1110 H   0  0  0  0  0  0  0  0  0  0  0  0
   43.4540   75.2930   56.2640 H   0  0  0  0  0  0  0  0  0  0  0  0
   44.0600   76.1680   58.5370 H   0  0  0  0  0  0  0  0  0  0  0  0
   40.0200   73.8200   60.8150 C   0  0  0  0  0  0  0  0  0  0  0  0
   39.7580   75.1620   60.9900 C   0  0  0  0  0  0  0  0  0  0  0  0
   40.4130   75.6880   61.6720 H   0  0  0  0  0  0  0  0  0  0  0  0
   38.6970   75.4540   60.2190 N   0  0  0  0  0  0  0  0  0  0  0  0
   38.3350   76.4320   60.2100 H   0  0  0  0  0  0  0  0  0  0  0  0
   38.2740   74.3650   59.5620 C   0  0  0  0  0  0  0  0  0  0  0  0
   37.4220   74.3470   58.8680 H   0  0  0  0  0  0  0  0  0  0  0  0
   39.0830   73.3770   59.9300 N   0  0  0  0  0  0  0  0  0  0  0  0
  1  2  2  0  0  0  0
  1  6  1  0  0  0  0
  2  3  1  0  0  0  0
  3  8  1  0  0  0  0
  3  4  2  0  0  0  0
  4  9  1  0  0  0  0
  5  4  1  0  0  0  0
  5 10  1  0  0  0  0
  6  5  2  0  0  0  0
  7  2  1  0  0  0  0
 11 12  2  0  0  0  0
 11 16  1  0  0  0  0
 12 13  1  0  0  0  0
 13 19  1  0  0  0  0
 13 14  2  0  0  0  0
 15 14  1  0  0  0  0
 15  1  1  0  0  0  0
 16 15  2  0  0  0  0
 17 11  1  0  0  0  0
 18 12  1  0  0  0  0
 20 21  2  0  0  0  0
 20  6  1  0  0  0  0
 21 22  1  0  0  0  0
 23 21  1  0  0  0  0
 24 23  1  0  0  0  0
 25 27  2  0  0  0  0
 25 23  1  0  0  0  0
 26 25  1  0  0  0  0
 27 20  1  0  0  0  0
M  END
>  <minimizedAffinity>
-4.6117816

$$$$
