
 OpenBabel03212520523D

 24 26  0  0  0  0  0  0  0  0999 V2000
   40.9840   82.8340   58.9940 C   0  0  0  0  0  0  0  0  0  0  0  0
   40.5060   81.7300   58.2590 C   0  0  0  0  0  0  0  0  0  0  0  0
   40.8210   81.6430   56.9410 C   0  0  0  0  0  0  0  0  0  0  0  0
   41.6130   82.6600   56.3570 C   0  0  0  0  0  0  0  0  0  0  0  0
   41.9260   83.8110   57.7830 S   0  0  0  0  0  0  0  0  0  0  0  0
   39.9020   80.9660   58.7300 H   0  0  0  0  0  0  0  0  0  0  0  0
   40.5250   80.8610   56.2670 H   0  0  0  0  0  0  0  0  0  0  0  0
   41.5440   83.0860   62.5910 C   0  0  0  0  0  0  0  0  0  0  0  0
   40.2740   83.4090   63.1060 C   0  0  0  0  0  0  0  0  0  0  0  0
   39.2160   83.5390   62.1940 C   0  0  0  0  0  0  0  0  0  0  0  0
   39.4820   83.3470   60.8730 N   0  0  0  0  0  0  0  0  0  0  0  0
   40.7130   83.0400   60.4280 C   0  0  0  0  0  0  0  0  0  0  0  0
   41.7340   82.9100   61.2660 N   0  0  0  0  0  0  0  0  0  0  0  0
   42.3580   82.9860   63.2880 H   0  0  0  0  0  0  0  0  0  0  0  0
   40.0740   83.5590   64.1550 H   0  0  0  0  0  0  0  0  0  0  0  0
   38.1970   83.7840   62.4890 H   0  0  0  0  0  0  0  0  0  0  0  0
   42.0910   82.8440   55.0520 C   0  0  0  0  0  0  0  0  0  0  0  0
   42.9540   83.7890   54.5400 C   0  0  0  0  0  0  0  0  0  0  0  0
   43.3680   84.5420   55.2020 H   0  0  0  0  0  0  0  0  0  0  0  0
   43.1360   83.5900   53.2320 N   0  0  0  0  0  0  0  0  0  0  0  0
   43.7340   84.1520   52.6020 H   0  0  0  0  0  0  0  0  0  0  0  0
   42.3780   82.5040   52.9050 C   0  0  0  0  0  0  0  0  0  0  0  0
   42.2740   82.0420   51.9230 H   0  0  0  0  0  0  0  0  0  0  0  0
   41.7560   82.0660   54.0080 N   0  0  0  0  0  0  0  0  0  0  0  0
  1 12  1  0  0  0  0
  2  6  1  0  0  0  0
  2  1  2  0  0  0  0
  3  2  1  0  0  0  0
  4  3  2  0  0  0  0
  4  5  1  0  0  0  0
  5  1  1  0  0  0  0
  7  3  1  0  0  0  0
  8  9  1  0  0  0  0
  8 14  1  0  0  0  0
  9 15  1  0  0  0  0
 10 16  1  0  0  0  0
 10  9  2  0  0  0  0
 11 10  1  0  0  0  0
 12 11  2  0  0  0  0
 12 13  1  0  0  0  0
 13  8  2  0  0  0  0
 17  4  1  0  0  0  0
 18 17  2  0  0  0  0
 18 19  1  0  0  0  0
 20 18  1  0  0  0  0
 21 20  1  0  0  0  0
 22 20  1  0  0  0  0
 22 24  2  0  0  0  0
 23 22  1  0  0  0  0
 24 17  1  0  0  0  0
M  END
>  <minimizedAffinity>
-3.73772001

>  <minimizedRMSD>
2.16150641

$$$$
