
 OpenBabel03212520523D

 24 26  0  0  0  0  0  0  0  0999 V2000
   40.2660   80.8210   59.6140 C   0  0  0  0  0  0  0  0  0  0  0  0
   40.5340   80.0330   60.7530 C   0  0  0  0  0  0  0  0  0  0  0  0
   40.8700   80.6590   61.9090 C   0  0  0  0  0  0  0  0  0  0  0  0
   40.9390   82.0720   61.9290 C   0  0  0  0  0  0  0  0  0  0  0  0
   40.4950   82.5320   60.1840 S   0  0  0  0  0  0  0  0  0  0  0  0
   40.4740   78.9540   60.7100 H   0  0  0  0  0  0  0  0  0  0  0  0
   41.0980   80.1840   62.8460 H   0  0  0  0  0  0  0  0  0  0  0  0
   39.3480   78.3820   57.0600 C   0  0  0  0  0  0  0  0  0  0  0  0
   39.1920   79.1590   55.8960 C   0  0  0  0  0  0  0  0  0  0  0  0
   39.4070   80.5410   56.0010 C   0  0  0  0  0  0  0  0  0  0  0  0
   39.7520   81.0430   57.2190 N   0  0  0  0  0  0  0  0  0  0  0  0
   39.8900   80.2610   58.3030 C   0  0  0  0  0  0  0  0  0  0  0  0
   39.6930   78.9500   58.2350 N   0  0  0  0  0  0  0  0  0  0  0  0
   39.1830   77.3220   56.9810 H   0  0  0  0  0  0  0  0  0  0  0  0
   38.9170   78.7500   54.9350 H   0  0  0  0  0  0  0  0  0  0  0  0
   39.3130   81.2280   55.1630 H   0  0  0  0  0  0  0  0  0  0  0  0
   41.2520   82.9820   62.9490 C   0  0  0  0  0  0  0  0  0  0  0  0
   42.4210   83.6610   63.2150 C   0  0  0  0  0  0  0  0  0  0  0  0
   43.2790   83.5140   62.5670 H   0  0  0  0  0  0  0  0  0  0  0  0
   42.2750   84.4300   64.2970 N   0  0  0  0  0  0  0  0  0  0  0  0
   42.9930   85.0450   64.7150 H   0  0  0  0  0  0  0  0  0  0  0  0
   40.9940   84.2390   64.7260 C   0  0  0  0  0  0  0  0  0  0  0  0
   40.5100   84.7020   65.5870 H   0  0  0  0  0  0  0  0  0  0  0  0
   40.3910   83.3670   63.9090 N   0  0  0  0  0  0  0  0  0  0  0  0
  1  5  1  0  0  0  0
  1  2  2  0  0  0  0
  2  3  1  0  0  0  0
  3  4  2  0  0  0  0
  3  7  1  0  0  0  0
  4 17  1  0  0  0  0
  5  4  1  0  0  0  0
  6  2  1  0  0  0  0
  8 13  1  0  0  0  0
  9 10  1  0  0  0  0
  9  8  2  0  0  0  0
 10 11  2  0  0  0  0
 11 12  1  0  0  0  0
 12  1  1  0  0  0  0
 13 12  2  0  0  0  0
 14  8  1  0  0  0  0
 15  9  1  0  0  0  0
 16 10  1  0  0  0  0
 17 18  2  0  0  0  0
 17 24  1  0  0  0  0
 18 20  1  0  0  0  0
 19 18  1  0  0  0  0
 20 21  1  0  0  0  0
 20 22  1  0  0  0  0
 22 23  1  0  0  0  0
 24 22  2  0  0  0  0
M  END
>  <minimizedAffinity>
-4.61814928

>  <minimizedRMSD>
7.42344856

$$$$
