
 OpenBabel03212521033D

 27 29  0  0  0  0  0  0  0  0999 V2000
   42.4110   84.4940   62.4760 C   0  0  0  0  0  0  0  0  0  0  0  0
   42.3560   84.5470   63.8640 C   0  0  0  0  0  0  0  0  0  0  0  0
   41.2470   84.1940   64.5840 C   0  0  0  0  0  0  0  0  0  0  0  0
   40.1180   83.7570   63.8960 C   0  0  0  0  0  0  0  0  0  0  0  0
   40.1610   83.6990   62.5030 C   0  0  0  0  0  0  0  0  0  0  0  0
   41.2850   84.0590   61.7820 C   0  0  0  0  0  0  0  0  0  0  0  0
   43.2500   84.8910   64.3760 H   0  0  0  0  0  0  0  0  0  0  0  0
   41.2250   84.2440   65.6780 H   0  0  0  0  0  0  0  0  0  0  0  0
   39.2220   83.4680   64.4010 H   0  0  0  0  0  0  0  0  0  0  0  0
   39.2750   83.3590   61.9700 H   0  0  0  0  0  0  0  0  0  0  0  0
   45.6960   84.3020   60.8670 C   0  0  0  0  0  0  0  0  0  0  0  0
   45.9350   85.6180   60.4950 C   0  0  0  0  0  0  0  0  0  0  0  0
   44.9600   86.5850   60.7970 C   0  0  0  0  0  0  0  0  0  0  0  0
   43.8390   86.1650   61.4400 N   0  0  0  0  0  0  0  0  0  0  0  0
   43.6270   84.8850   61.7910 C   0  0  0  0  0  0  0  0  0  0  0  0
   44.5550   83.9640   61.5030 N   0  0  0  0  0  0  0  0  0  0  0  0
   46.4470   83.5430   60.6380 H   0  0  0  0  0  0  0  0  0  0  0  0
   46.8380   85.9220   59.9850 H   0  0  0  0  0  0  0  0  0  0  0  0
   45.0770   87.6210   60.5410 H   0  0  0  0  0  0  0  0  0  0  0  0
   41.2890   83.9840   60.3240 C   0  0  0  0  0  0  0  0  0  0  0  0
   41.6030   83.0750   59.3370 C   0  0  0  0  0  0  0  0  0  0  0  0
   41.9610   82.1120   59.6770 H   0  0  0  0  0  0  0  0  0  0  0  0
   41.3620   83.6790   58.1620 N   0  0  0  0  0  0  0  0  0  0  0  0
   41.5390   83.1530   57.2790 H   0  0  0  0  0  0  0  0  0  0  0  0
   40.9090   84.9260   58.3530 C   0  0  0  0  0  0  0  0  0  0  0  0
   40.6400   85.6220   57.5480 H   0  0  0  0  0  0  0  0  0  0  0  0
   40.8680   85.1040   59.6700 N   0  0  0  0  0  0  0  0  0  0  0  0
  1  2  1  0  0  0  0
  2  7  1  0  0  0  0
  2  3  2  0  0  0  0
  3  8  1  0  0  0  0
  4  9  1  0  0  0  0
  4  3  1  0  0  0  0
  5  4  2  0  0  0  0
  6  1  2  0  0  0  0
  6  5  1  0  0  0  0
 10  5  1  0  0  0  0
 11 16  1  0  0  0  0
 12 13  1  0  0  0  0
 12 11  2  0  0  0  0
 13 14  2  0  0  0  0
 14 15  1  0  0  0  0
 15  1  1  0  0  0  0
 16 15  2  0  0  0  0
 17 11  1  0  0  0  0
 18 12  1  0  0  0  0
 19 13  1  0  0  0  0
 20  6  1  0  0  0  0
 21 22  1  0  0  0  0
 21 20  2  0  0  0  0
 23 25  1  0  0  0  0
 23 21  1  0  0  0  0
 24 23  1  0  0  0  0
 25 27  2  0  0  0  0
 26 25  1  0  0  0  0
 27 20  1  0  0  0  0
M  END
>  <minimizedAffinity>
-4.79605865

>  <minimizedRMSD>
2.27026963

$$$$
