
 OpenBabel03212520313D

 40 43  0  0  0  0  0  0  0  0999 V2000
   43.0400   82.6220   62.6070 C   0  0  0  0  0  0  0  0  0  0  0  0
   43.3590   81.5450   61.7940 C   0  0  0  0  0  0  0  0  0  0  0  0
   44.6250   80.9990   61.8090 C   0  0  0  0  0  0  0  0  0  0  0  0
   45.6510   81.4810   62.6240 C   0  0  0  0  0  0  0  0  0  0  0  0
   45.3560   82.5500   63.4380 C   0  0  0  0  0  0  0  0  0  0  0  0
   44.0820   83.1000   63.4250 C   0  0  0  0  0  0  0  0  0  0  0  0
   44.8910   80.1550   61.1800 H   0  0  0  0  0  0  0  0  0  0  0  0
   46.6170   81.0260   62.6030 H   0  0  0  0  0  0  0  0  0  0  0  0
   46.1110   82.9650   64.0910 H   0  0  0  0  0  0  0  0  0  0  0  0
   43.9010   83.9400   64.0840 H   0  0  0  0  0  0  0  0  0  0  0  0
   40.4510   79.6560   60.5240 C   0  0  0  0  0  0  0  0  0  0  0  0
   40.5290   79.8660   59.1630 C   0  0  0  0  0  0  0  0  0  0  0  0
   41.5900   80.6570   58.7100 C   0  0  0  0  0  0  0  0  0  0  0  0
   42.4730   81.1710   59.6160 N   0  0  0  0  0  0  0  0  0  0  0  0
   42.3630   80.9460   60.9150 C   0  0  0  0  0  0  0  0  0  0  0  0
   41.3510   80.1910   61.3540 N   0  0  0  0  0  0  0  0  0  0  0  0
   39.6560   79.0570   60.9230 H   0  0  0  0  0  0  0  0  0  0  0  0
   41.6910   80.8480   57.6530 H   0  0  0  0  0  0  0  0  0  0  0  0
   39.5840   79.3060   58.2650 N   0  0  0  0  0  0  0  0  0  0  0  0
   39.1320   80.1810   57.3590 C   0  0  0  0  0  0  0  0  0  0  0  0
   38.1940   79.7190   56.4280 C   0  0  0  0  0  0  0  0  0  0  0  0
   37.7700   78.3870   56.4750 C   0  0  0  0  0  0  0  0  0  0  0  0
   36.9350   77.9250   55.6670 O   0  0  0  0  0  0  0  0  0  0  0  0
   38.2840   77.5760   57.4270 N   0  0  0  0  0  0  0  0  0  0  0  0
   39.1960   78.0140   58.3370 C   0  0  0  0  0  0  0  0  0  0  0  0
   39.6690   77.2740   59.2120 O   0  0  0  0  0  0  0  0  0  0  0  0
   39.4250   81.2030   57.2850 H   0  0  0  0  0  0  0  0  0  0  0  0
   37.7880   80.3780   55.6680 H   0  0  0  0  0  0  0  0  0  0  0  0
   37.9940   76.5780   57.4960 H   0  0  0  0  0  0  0  0  0  0  0  0
   41.4660   83.3430   62.6020 S   0  0  0  0  0  0  0  0  0  0  0  0
   41.4660   84.5930   63.4420 O   0  0  0  0  0  0  0  0  0  0  0  0
   40.5460   82.3850   63.3500 O   0  0  0  0  0  0  0  0  0  0  0  0
   40.8300   83.7480   61.0510 C   0  0  0  0  0  0  0  0  0  0  0  0
   39.7450   83.5710   60.1930 C   0  0  0  0  0  0  0  0  0  0  0  0
   39.0100   82.8990   60.6600 H   0  0  0  0  0  0  0  0  0  0  0  0
   39.9130   84.2650   59.0640 N   0  0  0  0  0  0  0  0  0  0  0  0
   39.1240   84.1630   58.3910 H   0  0  0  0  0  0  0  0  0  0  0  0
   41.0890   84.8870   59.1780 C   0  0  0  0  0  0  0  0  0  0  0  0
   41.4060   85.5160   58.3370 H   0  0  0  0  0  0  0  0  0  0  0  0
   41.6570   84.5920   60.3610 N   0  0  0  0  0  0  0  0  0  0  0  0
  1  6  1  0  0  0  0
  2  3  1  0  0  0  0
  2  1  2  0  0  0  0
  3  4  2  0  0  0  0
  4  5  1  0  0  0  0
  5  9  1  0  0  0  0
  6  5  2  0  0  0  0
  6 10  1  0  0  0  0
  7  3  1  0  0  0  0
  8  4  1  0  0  0  0
 11 17  1  0  0  0  0
 11 16  1  0  0  0  0
 12 11  2  0  0  0  0
 13 12  1  0  0  0  0
 13 14  2  0  0  0  0
 14 15  1  0  0  0  0
 15 16  2  0  0  0  0
 15  2  1  0  0  0  0
 18 13  1  0  0  0  0
 19 25  1  0  0  0  0
 19 12  1  0  0  0  0
 20 19  1  0  0  0  0
 21 22  1  0  0  0  0
 21 20  2  0  0  0  0
 22 24  1  0  0  0  0
 23 22  2  0  0  0  0
 24 29  1  0  0  0  0
 24 25  1  0  0  0  0
 25 26  2  0  0  0  0
 27 20  1  0  0  0  0
 28 21  1  0  0  0  0
 30  1  1  0  0  0  0
 30 32  2  0  0  0  0
 30 31  2  0  0  0  0
 33 30  1  0  0  0  0
 34 35  1  0  0  0  0
 34 33  2  0  0  0  0
 36 38  1  0  0  0  0
 36 34  1  0  0  0  0
 37 36  1  0  0  0  0
 38 40  2  0  0  0  0
 39 38  1  0  0  0  0
 40 33  1  0  0  0  0
M  END
>  <minimizedAffinity>
-6.34583092

>  <minimizedRMSD>
2.15110254

$$$$
