
 OpenBabel03212521033D

 27 29  0  0  0  0  0  0  0  0999 V2000
   42.3940   84.5170   62.4030 C   0  0  0  0  0  0  0  0  0  0  0  0
   42.3680   84.4750   63.7930 C   0  0  0  0  0  0  0  0  0  0  0  0
   41.2620   84.1040   64.5100 C   0  0  0  0  0  0  0  0  0  0  0  0
   40.1080   83.7500   63.8190 C   0  0  0  0  0  0  0  0  0  0  0  0
   40.1210   83.7870   62.4240 C   0  0  0  0  0  0  0  0  0  0  0  0
   41.2420   84.1640   61.7050 C   0  0  0  0  0  0  0  0  0  0  0  0
   43.2820   84.7560   64.3080 H   0  0  0  0  0  0  0  0  0  0  0  0
   41.2640   84.0790   65.6050 H   0  0  0  0  0  0  0  0  0  0  0  0
   39.2140   83.4530   64.3220 H   0  0  0  0  0  0  0  0  0  0  0  0
   39.2150   83.5120   61.8890 H   0  0  0  0  0  0  0  0  0  0  0  0
   45.6360   84.3420   60.7080 C   0  0  0  0  0  0  0  0  0  0  0  0
   45.9100   85.6740   60.4280 C   0  0  0  0  0  0  0  0  0  0  0  0
   44.9740   86.6460   60.8240 C   0  0  0  0  0  0  0  0  0  0  0  0
   43.8540   86.2150   61.4590 N   0  0  0  0  0  0  0  0  0  0  0  0
   43.6070   84.9190   61.7210 C   0  0  0  0  0  0  0  0  0  0  0  0
   44.4980   83.9940   61.3440 N   0  0  0  0  0  0  0  0  0  0  0  0
   46.3570   83.5790   60.4070 H   0  0  0  0  0  0  0  0  0  0  0  0
   46.8120   85.9870   59.9210 H   0  0  0  0  0  0  0  0  0  0  0  0
   45.1200   87.6940   60.6410 H   0  0  0  0  0  0  0  0  0  0  0  0
   41.2140   84.1910   60.2470 C   0  0  0  0  0  0  0  0  0  0  0  0
   41.0230   85.1080   59.2350 C   0  0  0  0  0  0  0  0  0  0  0  0
   40.8310   86.1270   59.5470 H   0  0  0  0  0  0  0  0  0  0  0  0
   41.1370   84.4360   58.0760 N   0  0  0  0  0  0  0  0  0  0  0  0
   41.0230   84.9560   57.1800 H   0  0  0  0  0  0  0  0  0  0  0  0
   41.3910   83.1400   58.3020 C   0  0  0  0  0  0  0  0  0  0  0  0
   41.5260   82.3840   57.5160 H   0  0  0  0  0  0  0  0  0  0  0  0
   41.4360   82.9990   59.6240 N   0  0  0  0  0  0  0  0  0  0  0  0
  1  2  1  0  0  0  0
  2  7  1  0  0  0  0
  2  3  2  0  0  0  0
  3  8  1  0  0  0  0
  4  9  1  0  0  0  0
  4  3  1  0  0  0  0
  5  4  2  0  0  0  0
  6  1  2  0  0  0  0
  6  5  1  0  0  0  0
 10  5  1  0  0  0  0
 11 16  1  0  0  0  0
 12 11  2  0  0  0  0
 12 13  1  0  0  0  0
 13 14  2  0  0  0  0
 14 15  1  0  0  0  0
 15  1  1  0  0  0  0
 16 15  2  0  0  0  0
 17 11  1  0  0  0  0
 18 12  1  0  0  0  0
 19 13  1  0  0  0  0
 20  6  1  0  0  0  0
 21 22  1  0  0  0  0
 21 20  2  0  0  0  0
 23 25  1  0  0  0  0
 23 21  1  0  0  0  0
 24 23  1  0  0  0  0
 25 27  2  0  0  0  0
 26 25  1  0  0  0  0
 27 20  1  0  0  0  0
M  END
>  <minimizedAffinity>
-4.75771189

>  <minimizedRMSD>
2.21107936

$$$$
