
 OpenBabel03212521023D

 27 29  0  0  0  0  0  0  0  0999 V2000
   42.3940   84.5160   62.4050 C   0  0  0  0  0  0  0  0  0  0  0  0
   42.3690   84.4750   63.7940 C   0  0  0  0  0  0  0  0  0  0  0  0
   41.2640   84.1040   64.5120 C   0  0  0  0  0  0  0  0  0  0  0  0
   40.1090   83.7490   63.8210 C   0  0  0  0  0  0  0  0  0  0  0  0
   40.1220   83.7870   62.4260 C   0  0  0  0  0  0  0  0  0  0  0  0
   41.2420   84.1640   61.7070 C   0  0  0  0  0  0  0  0  0  0  0  0
   43.2830   84.7560   64.3080 H   0  0  0  0  0  0  0  0  0  0  0  0
   41.2660   84.0780   65.6070 H   0  0  0  0  0  0  0  0  0  0  0  0
   39.2150   83.4520   64.3240 H   0  0  0  0  0  0  0  0  0  0  0  0
   39.2150   83.5110   61.8910 H   0  0  0  0  0  0  0  0  0  0  0  0
   45.6360   84.3420   60.7070 C   0  0  0  0  0  0  0  0  0  0  0  0
   45.9100   85.6740   60.4280 C   0  0  0  0  0  0  0  0  0  0  0  0
   44.9740   86.6460   60.8240 C   0  0  0  0  0  0  0  0  0  0  0  0
   43.8540   86.2150   61.4600 N   0  0  0  0  0  0  0  0  0  0  0  0
   43.6070   84.9190   61.7210 C   0  0  0  0  0  0  0  0  0  0  0  0
   44.4970   83.9940   61.3430 N   0  0  0  0  0  0  0  0  0  0  0  0
   46.3560   83.5790   60.4050 H   0  0  0  0  0  0  0  0  0  0  0  0
   46.8120   85.9870   59.9200 H   0  0  0  0  0  0  0  0  0  0  0  0
   45.1210   87.6940   60.6430 H   0  0  0  0  0  0  0  0  0  0  0  0
   41.2140   84.1910   60.2480 C   0  0  0  0  0  0  0  0  0  0  0  0
   41.0230   85.1070   59.2360 C   0  0  0  0  0  0  0  0  0  0  0  0
   40.8300   86.1260   59.5500 H   0  0  0  0  0  0  0  0  0  0  0  0
   41.1360   84.4370   58.0780 N   0  0  0  0  0  0  0  0  0  0  0  0
   41.0230   84.9570   57.1810 H   0  0  0  0  0  0  0  0  0  0  0  0
   41.3900   83.1400   58.3030 C   0  0  0  0  0  0  0  0  0  0  0  0
   41.5250   82.3850   57.5170 H   0  0  0  0  0  0  0  0  0  0  0  0
   41.4360   82.9990   59.6250 N   0  0  0  0  0  0  0  0  0  0  0  0
  1  2  1  0  0  0  0
  2  7  1  0  0  0  0
  2  3  2  0  0  0  0
  3  8  1  0  0  0  0
  4  9  1  0  0  0  0
  4  3  1  0  0  0  0
  5  4  2  0  0  0  0
  6  1  2  0  0  0  0
  6  5  1  0  0  0  0
 10  5  1  0  0  0  0
 11 16  1  0  0  0  0
 12 11  2  0  0  0  0
 12 13  1  0  0  0  0
 13 14  2  0  0  0  0
 14 15  1  0  0  0  0
 15  1  1  0  0  0  0
 16 15  2  0  0  0  0
 17 11  1  0  0  0  0
 18 12  1  0  0  0  0
 19 13  1  0  0  0  0
 20  6  1  0  0  0  0
 21 22  1  0  0  0  0
 21 20  2  0  0  0  0
 23 25  1  0  0  0  0
 23 21  1  0  0  0  0
 24 23  1  0  0  0  0
 25 27  2  0  0  0  0
 26 25  1  0  0  0  0
 27 20  1  0  0  0  0
M  END
>  <minimizedAffinity>
-4.75769281

>  <minimizedRMSD>
2.14867449

$$$$
