
 OpenBabel03212521023D

 27 29  0  0  0  0  0  0  0  0999 V2000
   42.1750   84.3170   62.3830 C   0  0  0  0  0  0  0  0  0  0  0  0
   42.6150   84.4390   63.6970 C   0  0  0  0  0  0  0  0  0  0  0  0
   41.8000   84.2530   64.7800 C   0  0  0  0  0  0  0  0  0  0  0  0
   40.4650   83.9250   64.5610 C   0  0  0  0  0  0  0  0  0  0  0  0
   40.0110   83.8000   63.2480 C   0  0  0  0  0  0  0  0  0  0  0  0
   40.8400   83.9900   62.1570 C   0  0  0  0  0  0  0  0  0  0  0  0
   43.6610   84.6950   63.8390 H   0  0  0  0  0  0  0  0  0  0  0  0
   42.1680   84.3550   65.8070 H   0  0  0  0  0  0  0  0  0  0  0  0
   39.7800   83.7690   65.3650 H   0  0  0  0  0  0  0  0  0  0  0  0
   38.9660   83.5460   63.0820 H   0  0  0  0  0  0  0  0  0  0  0  0
   44.6670   83.6640   59.7800 C   0  0  0  0  0  0  0  0  0  0  0  0
   44.8720   84.9210   59.2260 C   0  0  0  0  0  0  0  0  0  0  0  0
   44.1480   86.0070   59.7490 C   0  0  0  0  0  0  0  0  0  0  0  0
   43.2890   85.7540   60.7710 N   0  0  0  0  0  0  0  0  0  0  0  0
   43.1050   84.5280   61.2920 C   0  0  0  0  0  0  0  0  0  0  0  0
   43.7930   83.4940   60.7940 N   0  0  0  0  0  0  0  0  0  0  0  0
   45.2250   82.8130   59.3810 H   0  0  0  0  0  0  0  0  0  0  0  0
   45.5640   85.0910   58.4130 H   0  0  0  0  0  0  0  0  0  0  0  0
   44.2560   87.0060   59.3720 H   0  0  0  0  0  0  0  0  0  0  0  0
   40.3250   83.8510   60.7990 C   0  0  0  0  0  0  0  0  0  0  0  0
   40.2140   82.8750   59.8300 C   0  0  0  0  0  0  0  0  0  0  0  0
   40.6070   81.9010   60.0930 H   0  0  0  0  0  0  0  0  0  0  0  0
   39.6130   83.4450   58.7740 N   0  0  0  0  0  0  0  0  0  0  0  0
   39.4340   82.8660   57.9240 H   0  0  0  0  0  0  0  0  0  0  0  0
   39.3360   84.7330   59.0210 C   0  0  0  0  0  0  0  0  0  0  0  0
   38.8440   85.4120   58.3120 H   0  0  0  0  0  0  0  0  0  0  0  0
   39.7720   84.9710   60.2530 N   0  0  0  0  0  0  0  0  0  0  0  0
  1  2  1  0  0  0  0
  2  7  1  0  0  0  0
  2  3  2  0  0  0  0
  3  8  1  0  0  0  0
  4  3  1  0  0  0  0
  4  9  1  0  0  0  0
  5  4  2  0  0  0  0
  6  1  2  0  0  0  0
  6  5  1  0  0  0  0
 10  5  1  0  0  0  0
 11 16  1  0  0  0  0
 12 13  1  0  0  0  0
 12 11  2  0  0  0  0
 13 14  2  0  0  0  0
 14 15  1  0  0  0  0
 15  1  1  0  0  0  0
 16 15  2  0  0  0  0
 17 11  1  0  0  0  0
 18 12  1  0  0  0  0
 19 13  1  0  0  0  0
 20  6  1  0  0  0  0
 21 22  1  0  0  0  0
 21 20  2  0  0  0  0
 23 25  1  0  0  0  0
 23 21  1  0  0  0  0
 24 23  1  0  0  0  0
 25 27  2  0  0  0  0
 26 25  1  0  0  0  0
 27 20  1  0  0  0  0
M  END
>  <minimizedAffinity>
-4.85859251

>  <minimizedRMSD>
1.37140703

$$$$
