
 OpenBabel03212521033D

 27 29  0  0  0  0  0  0  0  0999 V2000
   42.3930   84.5160   62.4030 C   0  0  0  0  0  0  0  0  0  0  0  0
   42.3660   84.4750   63.7930 C   0  0  0  0  0  0  0  0  0  0  0  0
   41.2610   84.1040   64.5090 C   0  0  0  0  0  0  0  0  0  0  0  0
   40.1060   83.7500   63.8180 C   0  0  0  0  0  0  0  0  0  0  0  0
   40.1200   83.7880   62.4230 C   0  0  0  0  0  0  0  0  0  0  0  0
   41.2410   84.1640   61.7050 C   0  0  0  0  0  0  0  0  0  0  0  0
   43.2810   84.7560   64.3080 H   0  0  0  0  0  0  0  0  0  0  0  0
   41.2620   84.0790   65.6050 H   0  0  0  0  0  0  0  0  0  0  0  0
   39.2120   83.4530   64.3210 H   0  0  0  0  0  0  0  0  0  0  0  0
   39.2140   83.5120   61.8880 H   0  0  0  0  0  0  0  0  0  0  0  0
   45.6360   84.3410   60.7090 C   0  0  0  0  0  0  0  0  0  0  0  0
   45.9100   85.6740   60.4290 C   0  0  0  0  0  0  0  0  0  0  0  0
   44.9740   86.6450   60.8240 C   0  0  0  0  0  0  0  0  0  0  0  0
   43.8530   86.2150   61.4590 N   0  0  0  0  0  0  0  0  0  0  0  0
   43.6070   84.9190   61.7210 C   0  0  0  0  0  0  0  0  0  0  0  0
   44.4970   83.9940   61.3450 N   0  0  0  0  0  0  0  0  0  0  0  0
   46.3570   83.5780   60.4080 H   0  0  0  0  0  0  0  0  0  0  0  0
   46.8130   85.9860   59.9220 H   0  0  0  0  0  0  0  0  0  0  0  0
   45.1200   87.6930   60.6420 H   0  0  0  0  0  0  0  0  0  0  0  0
   41.2140   84.1910   60.2460 C   0  0  0  0  0  0  0  0  0  0  0  0
   41.0240   85.1080   59.2340 C   0  0  0  0  0  0  0  0  0  0  0  0
   40.8320   86.1270   59.5470 H   0  0  0  0  0  0  0  0  0  0  0  0
   41.1370   84.4370   58.0760 N   0  0  0  0  0  0  0  0  0  0  0  0
   41.0240   84.9570   57.1790 H   0  0  0  0  0  0  0  0  0  0  0  0
   41.3910   83.1400   58.3010 C   0  0  0  0  0  0  0  0  0  0  0  0
   41.5260   82.3840   57.5160 H   0  0  0  0  0  0  0  0  0  0  0  0
   41.4360   82.9990   59.6240 N   0  0  0  0  0  0  0  0  0  0  0  0
  1  2  1  0  0  0  0
  2  7  1  0  0  0  0
  2  3  2  0  0  0  0
  3  8  1  0  0  0  0
  4  9  1  0  0  0  0
  4  3  1  0  0  0  0
  5  4  2  0  0  0  0
  6  1  2  0  0  0  0
  6  5  1  0  0  0  0
 10  5  1  0  0  0  0
 11 16  1  0  0  0  0
 12 11  2  0  0  0  0
 12 13  1  0  0  0  0
 13 14  2  0  0  0  0
 14 15  1  0  0  0  0
 15  1  1  0  0  0  0
 16 15  2  0  0  0  0
 17 11  1  0  0  0  0
 18 12  1  0  0  0  0
 19 13  1  0  0  0  0
 20  6  1  0  0  0  0
 21 22  1  0  0  0  0
 21 20  2  0  0  0  0
 23 25  1  0  0  0  0
 23 21  1  0  0  0  0
 24 23  1  0  0  0  0
 25 27  2  0  0  0  0
 26 25  1  0  0  0  0
 27 20  1  0  0  0  0
M  END
>  <minimizedAffinity>
-4.75778437

>  <minimizedRMSD>
2.18553972

$$$$
