
 OpenBabel03212520523D

 24 26  0  0  0  0  0  0  0  0999 V2000
   41.6950   84.0510   60.1460 C   0  0  0  0  0  0  0  0  0  0  0  0
   40.8700   83.3540   59.2390 C   0  0  0  0  0  0  0  0  0  0  0  0
   41.1910   83.3790   57.9200 C   0  0  0  0  0  0  0  0  0  0  0  0
   42.3350   84.1000   57.5060 C   0  0  0  0  0  0  0  0  0  0  0  0
   42.9930   84.7850   59.1050 S   0  0  0  0  0  0  0  0  0  0  0  0
   40.0000   82.8100   59.5820 H   0  0  0  0  0  0  0  0  0  0  0  0
   40.6520   82.8950   57.1260 H   0  0  0  0  0  0  0  0  0  0  0  0
   42.2360   84.7070   63.6940 C   0  0  0  0  0  0  0  0  0  0  0  0
   41.0680   84.2150   64.3080 C   0  0  0  0  0  0  0  0  0  0  0  0
   40.0860   83.6500   63.4800 C   0  0  0  0  0  0  0  0  0  0  0  0
   40.3230   83.6150   62.1400 N   0  0  0  0  0  0  0  0  0  0  0  0
   41.4540   84.0980   61.5990 C   0  0  0  0  0  0  0  0  0  0  0  0
   42.4020   84.6390   62.3560 N   0  0  0  0  0  0  0  0  0  0  0  0
   42.9900   85.1410   64.3270 H   0  0  0  0  0  0  0  0  0  0  0  0
   40.8910   84.2480   65.3720 H   0  0  0  0  0  0  0  0  0  0  0  0
   39.1500   83.2410   63.8550 H   0  0  0  0  0  0  0  0  0  0  0  0
   42.9080   84.3060   56.2430 C   0  0  0  0  0  0  0  0  0  0  0  0
   42.3700   84.1630   54.9820 C   0  0  0  0  0  0  0  0  0  0  0  0
   41.3370   83.8420   54.8800 H   0  0  0  0  0  0  0  0  0  0  0  0
   43.2790   84.4670   54.0530 N   0  0  0  0  0  0  0  0  0  0  0  0
   43.1420   84.4450   53.0290 H   0  0  0  0  0  0  0  0  0  0  0  0
   44.4140   84.8080   54.7310 C   0  0  0  0  0  0  0  0  0  0  0  0
   45.3690   85.1150   54.3060 H   0  0  0  0  0  0  0  0  0  0  0  0
   44.1760   84.7070   56.0440 N   0  0  0  0  0  0  0  0  0  0  0  0
  1 12  1  0  0  0  0
  2  6  1  0  0  0  0
  2  1  2  0  0  0  0
  3  2  1  0  0  0  0
  4  3  2  0  0  0  0
  4  5  1  0  0  0  0
  5  1  1  0  0  0  0
  7  3  1  0  0  0  0
  8  9  1  0  0  0  0
  8 14  1  0  0  0  0
  9 15  1  0  0  0  0
 10 16  1  0  0  0  0
 10  9  2  0  0  0  0
 11 10  1  0  0  0  0
 12 11  2  0  0  0  0
 12 13  1  0  0  0  0
 13  8  2  0  0  0  0
 17  4  1  0  0  0  0
 18 17  2  0  0  0  0
 19 18  1  0  0  0  0
 20 22  1  0  0  0  0
 20 18  1  0  0  0  0
 21 20  1  0  0  0  0
 22 24  2  0  0  0  0
 23 22  1  0  0  0  0
 24 17  1  0  0  0  0
M  END
>  <minimizedAffinity>
-3.94781947

>  <minimizedRMSD>
1.58327878

$$$$
