
 OpenBabel03212521033D

 27 29  0  0  0  0  0  0  0  0999 V2000
   41.7880   84.2730   61.5410 C   0  0  0  0  0  0  0  0  0  0  0  0
   41.4210   83.9810   62.8500 C   0  0  0  0  0  0  0  0  0  0  0  0
   40.1620   83.5750   63.2020 C   0  0  0  0  0  0  0  0  0  0  0  0
   39.2010   83.4460   62.2050 C   0  0  0  0  0  0  0  0  0  0  0  0
   39.5560   83.7360   60.8870 C   0  0  0  0  0  0  0  0  0  0  0  0
   40.8300   84.1460   60.5380 C   0  0  0  0  0  0  0  0  0  0  0  0
   42.1910   84.0900   63.6090 H   0  0  0  0  0  0  0  0  0  0  0  0
   39.8950   83.3510   64.2410 H   0  0  0  0  0  0  0  0  0  0  0  0
   38.2010   83.1350   62.4170 H   0  0  0  0  0  0  0  0  0  0  0  0
   38.7990   83.6350   60.1120 H   0  0  0  0  0  0  0  0  0  0  0  0
   45.3260   84.1580   60.6020 C   0  0  0  0  0  0  0  0  0  0  0  0
   45.7170   85.4860   60.7080 C   0  0  0  0  0  0  0  0  0  0  0  0
   44.7590   86.4340   61.1070 C   0  0  0  0  0  0  0  0  0  0  0  0
   43.5020   85.9860   61.3630 N   0  0  0  0  0  0  0  0  0  0  0  0
   43.1440   84.6950   61.2530 C   0  0  0  0  0  0  0  0  0  0  0  0
   44.0560   83.7920   60.8740 N   0  0  0  0  0  0  0  0  0  0  0  0
   46.0630   83.4130   60.2940 H   0  0  0  0  0  0  0  0  0  0  0  0
   46.7260   85.8120   60.4980 H   0  0  0  0  0  0  0  0  0  0  0  0
   44.9900   87.4780   61.2110 H   0  0  0  0  0  0  0  0  0  0  0  0
   41.1610   84.4410   59.1480 C   0  0  0  0  0  0  0  0  0  0  0  0
   41.7340   83.8080   58.0650 C   0  0  0  0  0  0  0  0  0  0  0  0
   42.0570   82.7880   58.2310 H   0  0  0  0  0  0  0  0  0  0  0  0
   41.7280   84.6890   57.0520 N   0  0  0  0  0  0  0  0  0  0  0  0
   42.1230   84.4000   56.1310 H   0  0  0  0  0  0  0  0  0  0  0  0
   41.1800   85.8500   57.4350 C   0  0  0  0  0  0  0  0  0  0  0  0
   41.0600   86.7280   56.7870 H   0  0  0  0  0  0  0  0  0  0  0  0
   40.8380   85.6910   58.7110 N   0  0  0  0  0  0  0  0  0  0  0  0
  1  2  1  0  0  0  0
  2  3  2  0  0  0  0
  2  7  1  0  0  0  0
  3  8  1  0  0  0  0
  4  9  1  0  0  0  0
  4  3  1  0  0  0  0
  5  4  2  0  0  0  0
  6  5  1  0  0  0  0
  6  1  2  0  0  0  0
 10  5  1  0  0  0  0
 11 12  2  0  0  0  0
 11 16  1  0  0  0  0
 12 13  1  0  0  0  0
 13 19  1  0  0  0  0
 13 14  2  0  0  0  0
 15 14  1  0  0  0  0
 15  1  1  0  0  0  0
 16 15  2  0  0  0  0
 17 11  1  0  0  0  0
 18 12  1  0  0  0  0
 20  6  1  0  0  0  0
 21 22  1  0  0  0  0
 21 20  2  0  0  0  0
 23 25  1  0  0  0  0
 23 21  1  0  0  0  0
 24 23  1  0  0  0  0
 25 27  2  0  0  0  0
 26 25  1  0  0  0  0
 27 20  1  0  0  0  0
M  END
>  <minimizedAffinity>
-4.8395071

>  <minimizedRMSD>
2.4917624

$$$$
