
 OpenBabel03212520313D

 40 43  0  0  0  0  0  0  0  0999 V2000
   42.2070   82.4720   61.7560 C   0  0  0  0  0  0  0  0  0  0  0  0
   42.6520   81.5950   60.7790 C   0  0  0  0  0  0  0  0  0  0  0  0
   43.8920   81.0020   60.8740 C   0  0  0  0  0  0  0  0  0  0  0  0
   44.7680   81.2370   61.9360 C   0  0  0  0  0  0  0  0  0  0  0  0
   44.3460   82.1050   62.9170 C   0  0  0  0  0  0  0  0  0  0  0  0
   43.0970   82.7020   62.8230 C   0  0  0  0  0  0  0  0  0  0  0  0
   44.2560   80.3130   60.1180 H   0  0  0  0  0  0  0  0  0  0  0  0
   45.7200   80.7550   61.9690 H   0  0  0  0  0  0  0  0  0  0  0  0
   44.9810   82.3240   63.7630 H   0  0  0  0  0  0  0  0  0  0  0  0
   42.8120   83.3770   63.6210 H   0  0  0  0  0  0  0  0  0  0  0  0
   40.2280   79.9310   58.5430 C   0  0  0  0  0  0  0  0  0  0  0  0
   40.2750   80.7200   57.4120 C   0  0  0  0  0  0  0  0  0  0  0  0
   41.1470   81.8130   57.4440 C   0  0  0  0  0  0  0  0  0  0  0  0
   41.8890   82.0400   58.5670 N   0  0  0  0  0  0  0  0  0  0  0  0
   41.8160   81.2600   59.6330 C   0  0  0  0  0  0  0  0  0  0  0  0
   40.9840   80.2140   59.6080 N   0  0  0  0  0  0  0  0  0  0  0  0
   39.5760   79.0810   58.5700 H   0  0  0  0  0  0  0  0  0  0  0  0
   41.2160   82.4570   56.5810 H   0  0  0  0  0  0  0  0  0  0  0  0
   39.4800   80.4370   56.2700 N   0  0  0  0  0  0  0  0  0  0  0  0
   38.1680   80.4230   56.5300 C   0  0  0  0  0  0  0  0  0  0  0  0
   37.3030   80.1520   55.4630 C   0  0  0  0  0  0  0  0  0  0  0  0
   37.8290   79.9110   54.1900 C   0  0  0  0  0  0  0  0  0  0  0  0
   37.1000   79.6650   53.2040 O   0  0  0  0  0  0  0  0  0  0  0  0
   39.1700   79.9470   54.0230 N   0  0  0  0  0  0  0  0  0  0  0  0
   40.0200   80.2090   55.0530 C   0  0  0  0  0  0  0  0  0  0  0  0
   41.2510   80.2420   54.9060 O   0  0  0  0  0  0  0  0  0  0  0  0
   37.7230   80.6000   57.4810 H   0  0  0  0  0  0  0  0  0  0  0  0
   36.2280   80.1260   55.6060 H   0  0  0  0  0  0  0  0  0  0  0  0
   39.6010   79.7730   53.0920 H   0  0  0  0  0  0  0  0  0  0  0  0
   40.6610   83.2480   61.6600 S   0  0  0  0  0  0  0  0  0  0  0  0
   40.3650   83.9740   62.9460 O   0  0  0  0  0  0  0  0  0  0  0  0
   39.6190   82.1360   61.6050 O   0  0  0  0  0  0  0  0  0  0  0  0
   40.4610   84.3660   60.3630 C   0  0  0  0  0  0  0  0  0  0  0  0
   41.1370   85.1180   59.4040 C   0  0  0  0  0  0  0  0  0  0  0  0
   42.2220   84.9740   59.5180 H   0  0  0  0  0  0  0  0  0  0  0  0
   40.2800   85.7910   58.6340 N   0  0  0  0  0  0  0  0  0  0  0  0
   40.7430   86.3690   57.9010 H   0  0  0  0  0  0  0  0  0  0  0  0
   39.0570   85.4850   59.0780 C   0  0  0  0  0  0  0  0  0  0  0  0
   38.2070   85.9480   58.5630 H   0  0  0  0  0  0  0  0  0  0  0  0
   39.1410   84.6310   60.1150 N   0  0  0  0  0  0  0  0  0  0  0  0
  1  6  1  0  0  0  0
  2  3  1  0  0  0  0
  2  1  2  0  0  0  0
  3  4  2  0  0  0  0
  4  8  1  0  0  0  0
  4  5  1  0  0  0  0
  5  9  1  0  0  0  0
  6  5  2  0  0  0  0
  6 10  1  0  0  0  0
  7  3  1  0  0  0  0
 11 17  1  0  0  0  0
 11 16  1  0  0  0  0
 12 13  1  0  0  0  0
 12 11  2  0  0  0  0
 13 14  2  0  0  0  0
 14 15  1  0  0  0  0
 15  2  1  0  0  0  0
 16 15  2  0  0  0  0
 18 13  1  0  0  0  0
 19 20  1  0  0  0  0
 19 12  1  0  0  0  0
 20 27  1  0  0  0  0
 21 28  1  0  0  0  0
 21 20  2  0  0  0  0
 22 21  1  0  0  0  0
 23 22  2  0  0  0  0
 24 22  1  0  0  0  0
 24 25  1  0  0  0  0
 25 19  1  0  0  0  0
 26 25  2  0  0  0  0
 29 24  1  0  0  0  0
 30  1  1  0  0  0  0
 30 31  2  0  0  0  0
 32 30  2  0  0  0  0
 33 30  1  0  0  0  0
 34 35  1  0  0  0  0
 34 33  2  0  0  0  0
 36 38  1  0  0  0  0
 36 34  1  0  0  0  0
 37 36  1  0  0  0  0
 38 40  2  0  0  0  0
 39 38  1  0  0  0  0
 40 33  1  0  0  0  0
M  END
>  <minimizedAffinity>
-6.13128233

>  <minimizedRMSD>
0.791797757

$$$$
