
 OpenBabel03212521033D

 27 29  0  0  0  0  0  0  0  0999 V2000
   41.7510   84.3560   61.3480 C   0  0  0  0  0  0  0  0  0  0  0  0
   41.3670   83.9370   62.6170 C   0  0  0  0  0  0  0  0  0  0  0  0
   40.0930   83.5360   62.9200 C   0  0  0  0  0  0  0  0  0  0  0  0
   39.1340   83.5460   61.9120 C   0  0  0  0  0  0  0  0  0  0  0  0
   39.5070   83.9640   60.6340 C   0  0  0  0  0  0  0  0  0  0  0  0
   40.7950   84.3680   60.3350 C   0  0  0  0  0  0  0  0  0  0  0  0
   42.1350   83.9390   63.3850 H   0  0  0  0  0  0  0  0  0  0  0  0
   39.8130   83.2100   63.9280 H   0  0  0  0  0  0  0  0  0  0  0  0
   38.1250   83.2450   62.0860 H   0  0  0  0  0  0  0  0  0  0  0  0
   38.7520   83.9720   59.8500 H   0  0  0  0  0  0  0  0  0  0  0  0
   45.2920   84.2260   60.4230 C   0  0  0  0  0  0  0  0  0  0  0  0
   45.7210   85.5250   60.6610 C   0  0  0  0  0  0  0  0  0  0  0  0
   44.7880   86.4590   61.1450 C   0  0  0  0  0  0  0  0  0  0  0  0
   43.5160   86.0260   61.3490 N   0  0  0  0  0  0  0  0  0  0  0  0
   43.1210   84.7620   61.1110 C   0  0  0  0  0  0  0  0  0  0  0  0
   44.0090   83.8740   60.6510 N   0  0  0  0  0  0  0  0  0  0  0  0
   46.0090   83.4930   60.0490 H   0  0  0  0  0  0  0  0  0  0  0  0
   46.7410   85.8400   60.4900 H   0  0  0  0  0  0  0  0  0  0  0  0
   45.0480   87.4790   61.3520 H   0  0  0  0  0  0  0  0  0  0  0  0
   41.1440   84.8000   58.9850 C   0  0  0  0  0  0  0  0  0  0  0  0
   41.2070   85.9700   58.2590 C   0  0  0  0  0  0  0  0  0  0  0  0
   40.9230   86.8710   58.7880 H   0  0  0  0  0  0  0  0  0  0  0  0
   41.6260   85.6400   57.0260 N   0  0  0  0  0  0  0  0  0  0  0  0
   41.7390   86.3950   56.3140 H   0  0  0  0  0  0  0  0  0  0  0  0
   41.8340   84.3200   56.9320 C   0  0  0  0  0  0  0  0  0  0  0  0
   42.1800   83.8050   56.0260 H   0  0  0  0  0  0  0  0  0  0  0  0
   41.5390   83.8160   58.1270 N   0  0  0  0  0  0  0  0  0  0  0  0
  1  2  1  0  0  0  0
  2  3  2  0  0  0  0
  2  7  1  0  0  0  0
  3  8  1  0  0  0  0
  4  9  1  0  0  0  0
  4  3  1  0  0  0  0
  5  4  2  0  0  0  0
  6  5  1  0  0  0  0
  6  1  2  0  0  0  0
 10  5  1  0  0  0  0
 11 16  2  0  0  0  0
 11 12  1  0  0  0  0
 12 13  2  0  0  0  0
 13 14  1  0  0  0  0
 13 19  1  0  0  0  0
 15  1  1  0  0  0  0
 15 14  2  0  0  0  0
 16 15  1  0  0  0  0
 17 11  1  0  0  0  0
 18 12  1  0  0  0  0
 20  6  1  0  0  0  0
 21 22  1  0  0  0  0
 21 20  2  0  0  0  0
 23 21  1  0  0  0  0
 24 23  1  0  0  0  0
 25 23  1  0  0  0  0
 25 27  2  0  0  0  0
 26 25  1  0  0  0  0
 27 20  1  0  0  0  0
M  END
>  <minimizedAffinity>
-5.05553675

>  <minimizedRMSD>
2.62938309

$$$$
