
 OpenBabel03212520313D

 44 48  0  0  0  0  0  0  0  0999 V2000
   42.5750   78.2540   61.4070 C   0  0  0  0  0  0  0  0  0  0  0  0
   42.4890   76.9840   60.8510 C   0  0  0  0  0  0  0  0  0  0  0  0
   43.1990   75.9270   61.3840 C   0  0  0  0  0  0  0  0  0  0  0  0
   44.0350   76.0550   62.4950 C   0  0  0  0  0  0  0  0  0  0  0  0
   44.1400   77.3010   63.0670 C   0  0  0  0  0  0  0  0  0  0  0  0
   43.4250   78.3650   62.5290 C   0  0  0  0  0  0  0  0  0  0  0  0
   43.1270   74.9340   60.9440 H   0  0  0  0  0  0  0  0  0  0  0  0
   44.5600   75.2040   62.8650 H   0  0  0  0  0  0  0  0  0  0  0  0
   44.7670   77.4810   63.9280 H   0  0  0  0  0  0  0  0  0  0  0  0
   43.5320   79.3420   63.0090 H   0  0  0  0  0  0  0  0  0  0  0  0
   39.6500   75.9670   58.7220 C   0  0  0  0  0  0  0  0  0  0  0  0
   40.0930   76.2920   57.4570 C   0  0  0  0  0  0  0  0  0  0  0  0
   41.3680   76.8560   57.3670 C   0  0  0  0  0  0  0  0  0  0  0  0
   42.0970   77.0550   58.5080 N   0  0  0  0  0  0  0  0  0  0  0  0
   41.6320   76.7280   59.7020 C   0  0  0  0  0  0  0  0  0  0  0  0
   40.4090   76.1850   59.8010 N   0  0  0  0  0  0  0  0  0  0  0  0
   38.6510   75.5250   58.8030 H   0  0  0  0  0  0  0  0  0  0  0  0
   41.7640   77.1290   56.3980 H   0  0  0  0  0  0  0  0  0  0  0  0
   39.2950   76.0670   56.3090 N   0  0  0  0  0  0  0  0  0  0  0  0
   38.0900   76.6300   56.3740 C   0  0  0  0  0  0  0  0  0  0  0  0
   37.2190   76.4670   55.2970 C   0  0  0  0  0  0  0  0  0  0  0  0
   37.6440   75.7180   54.1870 C   0  0  0  0  0  0  0  0  0  0  0  0
   36.9540   75.5020   53.1620 O   0  0  0  0  0  0  0  0  0  0  0  0
   38.8950   75.1750   54.2010 N   0  0  0  0  0  0  0  0  0  0  0  0
   39.7320   75.3440   55.2600 C   0  0  0  0  0  0  0  0  0  0  0  0
   40.8760   74.8500   55.2770 O   0  0  0  0  0  0  0  0  0  0  0  0
   37.7210   77.2110   57.2010 H   0  0  0  0  0  0  0  0  0  0  0  0
   36.2330   76.8820   55.2600 H   0  0  0  0  0  0  0  0  0  0  0  0
   39.2850   74.6070   53.4170 H   0  0  0  0  0  0  0  0  0  0  0  0
   41.7090   79.6010   60.7630 S   0  0  0  0  0  0  0  0  0  0  0  0
   40.2610   79.2260   60.5460 O   0  0  0  0  0  0  0  0  0  0  0  0
   42.2370   79.8160   59.3390 O   0  0  0  0  0  0  0  0  0  0  0  0
   41.0300   81.5540   62.7870 C   0  0  0  0  0  3  0  0  0  0  0  0
   41.7010   81.0660   61.6590 C   0  0  0  0  0  0  0  0  0  0  0  0
   42.5990   81.9660   61.0880 C   0  0  0  0  0  0  0  0  0  0  0  0
   43.2440   81.8280   60.2020 H   0  0  0  0  0  0  0  0  0  0  0  0
   42.8210   83.2550   61.5910 C   0  0  0  0  0  0  0  0  0  0  0  0
   43.5810   84.3230   61.2920 N   0  0  0  0  0  0  0  0  0  0  0  0
   44.2430   84.3490   60.4860 H   0  0  0  0  0  0  0  0  0  0  0  0
   43.3720   85.3280   62.1570 C   0  0  0  0  0  0  0  0  0  0  0  0
   43.8950   86.2850   62.0850 H   0  0  0  0  0  0  0  0  0  0  0  0
   42.4330   84.9470   63.0930 C   0  0  0  0  0  3  0  0  0  0  0  0
   42.1160   83.6610   62.7110 C   0  0  0  0  0  0  0  0  0  0  0  0
   41.2180   82.8030   63.3080 C   0  0  0  0  0  3  0  0  0  0  0  0
  1  6  1  0  0  0  0
  2  3  1  0  0  0  0
  2  1  2  0  0  0  0
  3  4  2  0  0  0  0
  4  8  1  0  0  0  0
  4  5  1  0  0  0  0
  5  9  1  0  0  0  0
  6 10  1  0  0  0  0
  6  5  2  0  0  0  0
  7  3  1  0  0  0  0
 11 17  1  0  0  0  0
 11 16  1  0  0  0  0
 12 11  2  0  0  0  0
 13 12  1  0  0  0  0
 13 14  2  0  0  0  0
 14 15  1  0  0  0  0
 15 16  2  0  0  0  0
 15  2  1  0  0  0  0
 18 13  1  0  0  0  0
 19 20  1  0  0  0  0
 19 12  1  0  0  0  0
 20 27  1  0  0  0  0
 21 20  2  0  0  0  0
 22 24  1  0  0  0  0
 22 21  1  0  0  0  0
 23 22  2  0  0  0  0
 24 25  1  0  0  0  0
 25 26  2  0  0  0  0
 25 19  1  0  0  0  0
 28 21  1  0  0  0  0
 29 24  1  0  0  0  0
 30  1  1  0  0  0  0
 30 34  1  0  0  0  0
 31 30  2  0  0  0  0
 32 30  2  0  0  0  0
 33 44  1  0  0  0  0
 34 33  2  0  0  0  0
 35 37  2  0  0  0  0
 35 34  1  0  0  0  0
 36 35  1  0  0  0  0
 37 43  1  0  0  0  0
 38 37  1  0  0  0  0
 38 40  1  0  0  0  0
 39 38  1  0  0  0  0
 40 42  2  0  0  0  0
 41 40  1  0  0  0  0
 43 42  1  0  0  0  0
 43 44  2  0  0  0  0
M  END
>  <minimizedAffinity>
-5.78921986

>  <minimizedRMSD>
4.85879087

$$$$
