
 OpenBabel03212520313D

 44 48  0  0  0  0  0  0  0  0999 V2000
   42.9600   82.0590   62.6030 C   0  0  0  0  0  0  0  0  0  0  0  0
   43.5750   80.9940   61.9580 C   0  0  0  0  0  0  0  0  0  0  0  0
   44.9350   80.7890   62.0640 C   0  0  0  0  0  0  0  0  0  0  0  0
   45.7730   81.6190   62.8110 C   0  0  0  0  0  0  0  0  0  0  0  0
   45.1930   82.6820   63.4630 C   0  0  0  0  0  0  0  0  0  0  0  0
   43.8230   82.8870   63.3540 C   0  0  0  0  0  0  0  0  0  0  0  0
   45.4110   79.9520   61.5550 H   0  0  0  0  0  0  0  0  0  0  0  0
   46.8190   81.4140   62.8590 H   0  0  0  0  0  0  0  0  0  0  0  0
   45.7750   83.3700   64.0610 H   0  0  0  0  0  0  0  0  0  0  0  0
   43.3950   83.7430   63.8850 H   0  0  0  0  0  0  0  0  0  0  0  0
   41.7020   78.0080   60.8590 C   0  0  0  0  0  0  0  0  0  0  0  0
   41.3200   78.3480   59.5780 C   0  0  0  0  0  0  0  0  0  0  0  0
   41.7200   79.6060   59.1200 C   0  0  0  0  0  0  0  0  0  0  0  0
   42.4530   80.4200   59.9420 N   0  0  0  0  0  0  0  0  0  0  0  0
   42.7970   80.0520   61.1650 C   0  0  0  0  0  0  0  0  0  0  0  0
   42.4190   78.8460   61.6150 N   0  0  0  0  0  0  0  0  0  0  0  0
   41.3930   77.0240   61.2270 H   0  0  0  0  0  0  0  0  0  0  0  0
   41.4470   79.9230   58.1230 H   0  0  0  0  0  0  0  0  0  0  0  0
   40.5600   77.4680   58.7700 N   0  0  0  0  0  0  0  0  0  0  0  0
   39.2500   77.5190   59.0070 C   0  0  0  0  0  0  0  0  0  0  0  0
   38.4060   76.6890   58.2690 C   0  0  0  0  0  0  0  0  0  0  0  0
   38.9680   75.8340   57.3070 C   0  0  0  0  0  0  0  0  0  0  0  0
   38.3160   75.0430   56.5830 O   0  0  0  0  0  0  0  0  0  0  0  0
   40.3200   75.8440   57.1270 N   0  0  0  0  0  0  0  0  0  0  0  0
   41.1280   76.6600   57.8550 C   0  0  0  0  0  0  0  0  0  0  0  0
   42.3640   76.6730   57.6940 O   0  0  0  0  0  0  0  0  0  0  0  0
   38.7760   78.1570   59.7320 H   0  0  0  0  0  0  0  0  0  0  0  0
   37.3440   76.6620   58.3890 H   0  0  0  0  0  0  0  0  0  0  0  0
   40.8130   75.2390   56.4330 H   0  0  0  0  0  0  0  0  0  0  0  0
   41.2640   82.3520   62.4860 S   0  0  0  0  0  0  0  0  0  0  0  0
   40.7510   82.9360   63.7830 O   0  0  0  0  0  0  0  0  0  0  0  0
   40.5890   80.9750   62.4260 O   0  0  0  0  0  0  0  0  0  0  0  0
   39.4520   83.7820   60.7430 C   0  0  0  0  0  3  0  0  0  0  0  0
   40.7000   83.3830   61.2350 C   0  0  0  0  0  0  0  0  0  0  0  0
   41.7890   83.9420   60.5660 C   0  0  0  0  0  0  0  0  0  0  0  0
   42.8650   83.7910   60.7570 H   0  0  0  0  0  0  0  0  0  0  0  0
   41.6570   84.8300   59.4910 C   0  0  0  0  0  0  0  0  0  0  0  0
   42.4640   85.5180   58.6640 N   0  0  0  0  0  0  0  0  0  0  0  0
   43.5050   85.4820   58.7140 H   0  0  0  0  0  0  0  0  0  0  0  0
   41.7560   86.2420   57.7830 C   0  0  0  0  0  0  0  0  0  0  0  0
   42.2280   86.8720   57.0230 H   0  0  0  0  0  0  0  0  0  0  0  0
   40.4070   86.0530   58.0030 C   0  0  0  0  0  3  0  0  0  0  0  0
   40.3860   85.1740   59.0650 C   0  0  0  0  0  0  0  0  0  0  0  0
   39.2810   84.6460   59.6970 C   0  0  0  0  0  3  0  0  0  0  0  0
  1  6  1  0  0  0  0
  2  3  1  0  0  0  0
  2  1  2  0  0  0  0
  3  4  2  0  0  0  0
  4  8  1  0  0  0  0
  4  5  1  0  0  0  0
  5  9  1  0  0  0  0
  6  5  2  0  0  0  0
  6 10  1  0  0  0  0
  7  3  1  0  0  0  0
 11 17  1  0  0  0  0
 11 16  1  0  0  0  0
 12 11  2  0  0  0  0
 13 12  1  0  0  0  0
 13 14  2  0  0  0  0
 14 15  1  0  0  0  0
 15 16  2  0  0  0  0
 15  2  1  0  0  0  0
 18 13  1  0  0  0  0
 19 20  1  0  0  0  0
 19 12  1  0  0  0  0
 20 27  1  0  0  0  0
 21 28  1  0  0  0  0
 21 20  2  0  0  0  0
 22 21  1  0  0  0  0
 23 22  2  0  0  0  0
 24 22  1  0  0  0  0
 24 25  1  0  0  0  0
 25 19  1  0  0  0  0
 26 25  2  0  0  0  0
 29 24  1  0  0  0  0
 30  1  1  0  0  0  0
 30 31  2  0  0  0  0
 32 30  2  0  0  0  0
 33 34  1  0  0  0  0
 34 30  1  0  0  0  0
 35 36  1  0  0  0  0
 35 34  2  0  0  0  0
 37 35  1  0  0  0  0
 38 39  1  0  0  0  0
 38 37  1  0  0  0  0
 40 42  2  0  0  0  0
 40 38  1  0  0  0  0
 41 40  1  0  0  0  0
 42 43  1  0  0  0  0
 43 37  2  0  0  0  0
 43 44  1  0  0  0  0
 44 33  2  0  0  0  0
M  END
>  <minimizedAffinity>
-6.98804808

>  <minimizedRMSD>
2.83410287

$$$$
