
 OpenBabel03212520333D

 44 48  0  0  0  0  0  0  0  0999 V2000
   38.3450   74.8040   54.2480 C   0  0  0  0  0  0  0  0  0  0  0  0
   39.2620   73.7760   54.4220 C   0  0  0  0  0  0  0  0  0  0  0  0
   39.8540   73.1610   53.3380 C   0  0  0  0  0  0  0  0  0  0  0  0
   39.5810   73.5210   52.0170 C   0  0  0  0  0  0  0  0  0  0  0  0
   38.6770   74.5370   51.8120 C   0  0  0  0  0  0  0  0  0  0  0  0
   38.0810   75.1550   52.9060 C   0  0  0  0  0  0  0  0  0  0  0  0
   40.5730   72.3550   53.4810 H   0  0  0  0  0  0  0  0  0  0  0  0
   40.0690   73.0120   51.2160 H   0  0  0  0  0  0  0  0  0  0  0  0
   38.4130   74.8720   50.8190 H   0  0  0  0  0  0  0  0  0  0  0  0
   37.3670   75.9580   52.7060 H   0  0  0  0  0  0  0  0  0  0  0  0
   39.3100   72.0470   57.6850 C   0  0  0  0  0  0  0  0  0  0  0  0
   40.4510   72.5510   58.2740 C   0  0  0  0  0  0  0  0  0  0  0  0
   41.1810   73.4810   57.5290 C   0  0  0  0  0  0  0  0  0  0  0  0
   40.7410   73.8390   56.2830 N   0  0  0  0  0  0  0  0  0  0  0  0
   39.6390   73.3290   55.7560 C   0  0  0  0  0  0  0  0  0  0  0  0
   38.9300   72.4350   56.4620 N   0  0  0  0  0  0  0  0  0  0  0  0
   38.7320   71.3170   58.2600 H   0  0  0  0  0  0  0  0  0  0  0  0
   42.0840   73.9070   57.9440 H   0  0  0  0  0  0  0  0  0  0  0  0
   40.8620   72.1440   59.5660 N   0  0  0  0  0  0  0  0  0  0  0  0
   40.3660   72.8950   60.5480 C   0  0  0  0  0  0  0  0  0  0  0  0
   40.7100   72.5850   61.8640 C   0  0  0  0  0  0  0  0  0  0  0  0
   41.5640   71.4950   62.1020 C   0  0  0  0  0  0  0  0  0  0  0  0
   41.9450   71.1190   63.2370 O   0  0  0  0  0  0  0  0  0  0  0  0
   42.0280   70.7780   61.0390 N   0  0  0  0  0  0  0  0  0  0  0  0
   41.6820   71.0940   59.7630 C   0  0  0  0  0  0  0  0  0  0  0  0
   42.1030   70.4410   58.7880 O   0  0  0  0  0  0  0  0  0  0  0  0
   39.7100   73.7370   60.4140 H   0  0  0  0  0  0  0  0  0  0  0  0
   40.3610   73.1300   62.7150 H   0  0  0  0  0  0  0  0  0  0  0  0
   42.6650   69.9560   61.1330 H   0  0  0  0  0  0  0  0  0  0  0  0
   37.5790   75.5900   55.5790 S   0  0  0  0  0  0  0  0  0  0  0  0
   36.6610   74.6210   56.2890 O   0  0  0  0  0  0  0  0  0  0  0  0
   36.6120   76.6180   54.9780 O   0  0  0  0  0  0  0  0  0  0  0  0
   39.5980   77.2440   56.8260 C   0  0  0  0  0  3  0  0  0  0  0  0
   38.5720   76.2920   56.7900 C   0  0  0  0  0  0  0  0  0  0  0  0
   38.2420   75.7540   58.0330 C   0  0  0  0  0  0  0  0  0  0  0  0
   37.4770   74.9950   58.2740 H   0  0  0  0  0  0  0  0  0  0  0  0
   38.8770   76.1260   59.2260 C   0  0  0  0  0  0  0  0  0  0  0  0
   38.8030   75.8140   60.5310 N   0  0  0  0  0  0  0  0  0  0  0  0
   38.1320   75.1160   60.9190 H   0  0  0  0  0  0  0  0  0  0  0  0
   39.6960   76.5130   61.2500 C   0  0  0  0  0  0  0  0  0  0  0  0
   39.7940   76.4040   62.3340 H   0  0  0  0  0  0  0  0  0  0  0  0
   40.4180   77.3420   60.4160 C   0  0  0  0  0  3  0  0  0  0  0  0
   39.8830   77.0740   59.1730 C   0  0  0  0  0  0  0  0  0  0  0  0
   40.2420   77.6330   57.9660 C   0  0  0  0  0  3  0  0  0  0  0  0
  1  2  1  0  0  0  0
  1 30  1  0  0  0  0
  2 15  1  0  0  0  0
  3  7  1  0  0  0  0
  3  2  2  0  0  0  0
  4  3  1  0  0  0  0
  5  4  2  0  0  0  0
  5  6  1  0  0  0  0
  6  1  2  0  0  0  0
  8  4  1  0  0  0  0
  9  5  1  0  0  0  0
 10  6  1  0  0  0  0
 11 17  1  0  0  0  0
 11 12  1  0  0  0  0
 12 19  1  0  0  0  0
 13 18  1  0  0  0  0
 13 12  2  0  0  0  0
 14 13  1  0  0  0  0
 15 14  2  0  0  0  0
 15 16  1  0  0  0  0
 16 11  2  0  0  0  0
 19 25  1  0  0  0  0
 19 20  1  0  0  0  0
 20 21  2  0  0  0  0
 21 22  1  0  0  0  0
 21 28  1  0  0  0  0
 22 23  2  0  0  0  0
 24 29  1  0  0  0  0
 24 22  1  0  0  0  0
 25 24  1  0  0  0  0
 26 25  2  0  0  0  0
 27 20  1  0  0  0  0
 30 31  2  0  0  0  0
 30 34  1  0  0  0  0
 32 30  2  0  0  0  0
 33 44  1  0  0  0  0
 34 33  2  0  0  0  0
 34 35  1  0  0  0  0
 35 36  1  0  0  0  0
 35 37  2  0  0  0  0
 37 38  1  0  0  0  0
 38 39  1  0  0  0  0
 38 40  1  0  0  0  0
 40 41  1  0  0  0  0
 42 40  2  0  0  0  0
 43 37  1  0  0  0  0
 43 42  1  0  0  0  0
 44 43  2  0  0  0  0
M  END
>  <minimizedAffinity>
-7.29017019

$$$$

 OpenBabel03212520333D

 44 48  0  0  0  0  0  0  0  0999 V2000
   38.7210   76.1890   57.0460 C   0  0  0  0  0  0  0  0  0  0  0  0
   38.4760   74.9930   56.3840 C   0  0  0  0  0  0  0  0  0  0  0  0
   37.5410   74.9210   55.3720 C   0  0  0  0  0  0  0  0  0  0  0  0
   36.7900   76.0200   54.9500 C   0  0  0  0  0  0  0  0  0  0  0  0
   37.0110   77.2190   55.5870 C   0  0  0  0  0  0  0  0  0  0  0  0
   37.9530   77.2900   56.6060 C   0  0  0  0  0  0  0  0  0  0  0  0
   37.3530   73.9800   54.8560 H   0  0  0  0  0  0  0  0  0  0  0  0
   36.0790   75.9070   54.1620 H   0  0  0  0  0  0  0  0  0  0  0  0
   36.4690   78.1140   55.3180 H   0  0  0  0  0  0  0  0  0  0  0  0
   38.1030   78.2580   57.0910 H   0  0  0  0  0  0  0  0  0  0  0  0
   41.1460   72.4670   56.7330 C   0  0  0  0  0  0  0  0  0  0  0  0
   40.5150   71.4580   57.4310 C   0  0  0  0  0  0  0  0  0  0  0  0
   39.1750   71.6740   57.7650 C   0  0  0  0  0  0  0  0  0  0  0  0
   38.5690   72.8440   57.3950 N   0  0  0  0  0  0  0  0  0  0  0  0
   39.2140   73.7850   56.7260 C   0  0  0  0  0  0  0  0  0  0  0  0
   40.5000   73.5890   56.3990 N   0  0  0  0  0  0  0  0  0  0  0  0
   42.1960   72.3080   56.4670 H   0  0  0  0  0  0  0  0  0  0  0  0
   38.6330   70.9150   58.3120 H   0  0  0  0  0  0  0  0  0  0  0  0
   41.1910   70.2680   57.7910 N   0  0  0  0  0  0  0  0  0  0  0  0
   41.5450   70.2180   59.0730 C   0  0  0  0  0  0  0  0  0  0  0  0
   42.2220   69.0890   59.5350 C   0  0  0  0  0  0  0  0  0  0  0  0
   42.5020   68.0500   58.6330 C   0  0  0  0  0  0  0  0  0  0  0  0
   43.1030   66.9880   58.9270 O   0  0  0  0  0  0  0  0  0  0  0  0
   42.1040   68.1800   57.3350 N   0  0  0  0  0  0  0  0  0  0  0  0
   41.4450   69.2880   56.9020 C   0  0  0  0  0  0  0  0  0  0  0  0
   41.0790   69.4120   55.7170 O   0  0  0  0  0  0  0  0  0  0  0  0
   41.3520   70.9880   59.8000 H   0  0  0  0  0  0  0  0  0  0  0  0
   42.5450   68.9610   60.5470 H   0  0  0  0  0  0  0  0  0  0  0  0
   42.2750   67.4540   56.6050 H   0  0  0  0  0  0  0  0  0  0  0  0
   39.8770   76.3160   58.3210 S   0  0  0  0  0  0  0  0  0  0  0  0
   39.7080   77.6340   59.0400 O   0  0  0  0  0  0  0  0  0  0  0  0
   41.2500   76.4510   57.6500 O   0  0  0  0  0  0  0  0  0  0  0  0
   38.9260   74.4600   60.3270 C   0  0  0  0  0  3  0  0  0  0  0  0
   39.8860   75.1010   59.5330 C   0  0  0  0  0  0  0  0  0  0  0  0
   41.1940   74.6720   59.7530 C   0  0  0  0  0  0  0  0  0  0  0  0
   42.1230   75.0140   59.2640 H   0  0  0  0  0  0  0  0  0  0  0  0
   41.5340   73.6840   60.6870 C   0  0  0  0  0  0  0  0  0  0  0  0
   42.6450   73.0680   61.1260 N   0  0  0  0  0  0  0  0  0  0  0  0
   43.6000   73.2790   60.7630 H   0  0  0  0  0  0  0  0  0  0  0  0
   42.3590   72.1650   62.0760 C   0  0  0  0  0  0  0  0  0  0  0  0
   43.1290   71.5560   62.5610 H   0  0  0  0  0  0  0  0  0  0  0  0
   41.0000   72.1480   62.3090 C   0  0  0  0  0  3  0  0  0  0  0  0
   40.5240   73.1010   61.4320 C   0  0  0  0  0  0  0  0  0  0  0  0
   39.2150   73.4930   61.2470 C   0  0  0  0  0  3  0  0  0  0  0  0
  1 30  1  0  0  0  0
  2 15  1  0  0  0  0
  2  1  2  0  0  0  0
  3  2  1  0  0  0  0
  4  3  2  0  0  0  0
  4  5  1  0  0  0  0
  5  6  2  0  0  0  0
  6  1  1  0  0  0  0
  6 10  1  0  0  0  0
  7  3  1  0  0  0  0
  8  4  1  0  0  0  0
  9  5  1  0  0  0  0
 11 12  1  0  0  0  0
 12 13  2  0  0  0  0
 12 19  1  0  0  0  0
 13 18  1  0  0  0  0
 14 13  1  0  0  0  0
 15 14  2  0  0  0  0
 16 15  1  0  0  0  0
 16 11  2  0  0  0  0
 17 11  1  0  0  0  0
 19 20  1  0  0  0  0
 20 21  2  0  0  0  0
 20 27  1  0  0  0  0
 21 28  1  0  0  0  0
 22 23  2  0  0  0  0
 22 21  1  0  0  0  0
 24 22  1  0  0  0  0
 25 24  1  0  0  0  0
 25 19  1  0  0  0  0
 26 25  2  0  0  0  0
 29 24  1  0  0  0  0
 30 31  2  0  0  0  0
 30 34  1  0  0  0  0
 32 30  2  0  0  0  0
 33 44  1  0  0  0  0
 34 35  1  0  0  0  0
 34 33  2  0  0  0  0
 35 37  2  0  0  0  0
 36 35  1  0  0  0  0
 37 38  1  0  0  0  0
 37 43  1  0  0  0  0
 38 40  1  0  0  0  0
 39 38  1  0  0  0  0
 40 42  2  0  0  0  0
 40 41  1  0  0  0  0
 43 42  1  0  0  0  0
 44 43  2  0  0  0  0
M  END
>  <minimizedAffinity>
-6.81266356

$$$$

 OpenBabel03212520333D

 44 48  0  0  0  0  0  0  0  0999 V2000
   42.3570   71.0430   60.6630 C   0  0  0  0  0  0  0  0  0  0  0  0
   42.0540   70.6860   59.3550 C   0  0  0  0  0  0  0  0  0  0  0  0
   42.5760   69.5380   58.7940 C   0  0  0  0  0  0  0  0  0  0  0  0
   43.4250   68.6720   59.4860 C   0  0  0  0  0  0  0  0  0  0  0  0
   43.7410   68.9990   60.7840 C   0  0  0  0  0  0  0  0  0  0  0  0
   43.2160   70.1560   61.3470 C   0  0  0  0  0  0  0  0  0  0  0  0
   42.3350   69.2630   57.7680 H   0  0  0  0  0  0  0  0  0  0  0  0
   43.7990   67.7970   59.0030 H   0  0  0  0  0  0  0  0  0  0  0  0
   44.3930   68.3790   61.3840 H   0  0  0  0  0  0  0  0  0  0  0  0
   43.4900   70.3860   62.3800 H   0  0  0  0  0  0  0  0  0  0  0  0
   39.0390   72.2040   57.8600 C   0  0  0  0  0  0  0  0  0  0  0  0
   39.5710   73.1070   56.9630 C   0  0  0  0  0  0  0  0  0  0  0  0
   40.9660   73.1710   56.8940 C   0  0  0  0  0  0  0  0  0  0  0  0
   41.7170   72.3570   57.6980 N   0  0  0  0  0  0  0  0  0  0  0  0
   41.1630   71.5040   58.5440 C   0  0  0  0  0  0  0  0  0  0  0  0
   39.8260   71.4340   58.6190 N   0  0  0  0  0  0  0  0  0  0  0  0
   37.9480   72.1470   57.9220 H   0  0  0  0  0  0  0  0  0  0  0  0
   41.4350   73.8630   56.2080 H   0  0  0  0  0  0  0  0  0  0  0  0
   38.7470   73.9280   56.1570 N   0  0  0  0  0  0  0  0  0  0  0  0
   39.0600   73.8970   54.8630 C   0  0  0  0  0  0  0  0  0  0  0  0
   38.3130   74.6730   53.9770 C   0  0  0  0  0  0  0  0  0  0  0  0
   37.2610   75.4550   54.4820 C   0  0  0  0  0  0  0  0  0  0  0  0
   36.5200   76.1930   53.7880 O   0  0  0  0  0  0  0  0  0  0  0  0
   37.0060   75.4300   55.8220 N   0  0  0  0  0  0  0  0  0  0  0  0
   37.7440   74.6670   56.6710 C   0  0  0  0  0  0  0  0  0  0  0  0
   37.5150   74.6400   57.8960 O   0  0  0  0  0  0  0  0  0  0  0  0
   39.8550   73.3150   54.4310 H   0  0  0  0  0  0  0  0  0  0  0  0
   38.4900   74.7120   52.9230 H   0  0  0  0  0  0  0  0  0  0  0  0
   36.2440   75.9820   56.2740 H   0  0  0  0  0  0  0  0  0  0  0  0
   41.7310   72.4750   61.3940 S   0  0  0  0  0  0  0  0  0  0  0  0
   42.4540   72.7490   62.6930 O   0  0  0  0  0  0  0  0  0  0  0  0
   40.3030   72.1440   61.8470 O   0  0  0  0  0  0  0  0  0  0  0  0
   42.7660   74.6760   59.8270 C   0  0  0  0  0  3  0  0  0  0  0  0
   41.7820   73.9370   60.4950 C   0  0  0  0  0  0  0  0  0  0  0  0
   40.5060   74.4950   60.4400 C   0  0  0  0  0  0  0  0  0  0  0  0
   39.5680   74.1140   60.8810 H   0  0  0  0  0  0  0  0  0  0  0  0
   40.2180   75.6940   59.7750 C   0  0  0  0  0  0  0  0  0  0  0  0
   39.1460   76.4710   59.5430 N   0  0  0  0  0  0  0  0  0  0  0  0
   38.1880   76.2490   59.8910 H   0  0  0  0  0  0  0  0  0  0  0  0
   39.4740   77.5500   58.8150 C   0  0  0  0  0  0  0  0  0  0  0  0
   38.7410   78.3060   58.5190 H   0  0  0  0  0  0  0  0  0  0  0  0
   40.8240   77.5250   58.5290 C   0  0  0  0  0  3  0  0  0  0  0  0
   41.2490   76.3640   59.1400 C   0  0  0  0  0  0  0  0  0  0  0  0
   42.5270   75.8490   59.1680 C   0  0  0  0  0  3  0  0  0  0  0  0
  1  6  1  0  0  0  0
  1 30  1  0  0  0  0
  2  1  2  0  0  0  0
  3  2  1  0  0  0  0
  3  4  2  0  0  0  0
  4  5  1  0  0  0  0
  5  6  2  0  0  0  0
  5  9  1  0  0  0  0
  6 10  1  0  0  0  0
  7  3  1  0  0  0  0
  8  4  1  0  0  0  0
 11 17  1  0  0  0  0
 11 16  1  0  0  0  0
 12 11  2  0  0  0  0
 13 12  1  0  0  0  0
 13 14  2  0  0  0  0
 14 15  1  0  0  0  0
 15 16  2  0  0  0  0
 15  2  1  0  0  0  0
 18 13  1  0  0  0  0
 19 25  1  0  0  0  0
 19 12  1  0  0  0  0
 20 19  1  0  0  0  0
 21 22  1  0  0  0  0
 21 20  2  0  0  0  0
 22 24  1  0  0  0  0
 23 22  2  0  0  0  0
 24 29  1  0  0  0  0
 24 25  1  0  0  0  0
 25 26  2  0  0  0  0
 27 20  1  0  0  0  0
 28 21  1  0  0  0  0
 30 32  2  0  0  0  0
 30 31  2  0  0  0  0
 33 34  1  0  0  0  0
 34 30  1  0  0  0  0
 35 34  2  0  0  0  0
 35 36  1  0  0  0  0
 37 35  1  0  0  0  0
 38 37  1  0  0  0  0
 38 39  1  0  0  0  0
 40 38  1  0  0  0  0
 41 40  1  0  0  0  0
 42 40  2  0  0  0  0
 42 43  1  0  0  0  0
 43 44  1  0  0  0  0
 43 37  2  0  0  0  0
 44 33  2  0  0  0  0
M  END
>  <minimizedAffinity>
-6.81138468

$$$$

 OpenBabel03212520333D

 44 48  0  0  0  0  0  0  0  0999 V2000
   42.3510   70.6820   61.2480 C   0  0  0  0  0  0  0  0  0  0  0  0
   41.8830   69.9970   60.1340 C   0  0  0  0  0  0  0  0  0  0  0  0
   41.7840   68.6210   60.1360 C   0  0  0  0  0  0  0  0  0  0  0  0
   42.1380   67.8350   61.2350 C   0  0  0  0  0  0  0  0  0  0  0  0
   42.6030   68.4850   62.3540 C   0  0  0  0  0  0  0  0  0  0  0  0
   42.7030   69.8710   62.3490 C   0  0  0  0  0  0  0  0  0  0  0  0
   41.4170   68.0890   59.2600 H   0  0  0  0  0  0  0  0  0  0  0  0
   42.0410   66.7730   61.1830 H   0  0  0  0  0  0  0  0  0  0  0  0
   42.8980   67.9470   63.2440 H   0  0  0  0  0  0  0  0  0  0  0  0
   43.0780   70.3550   63.2560 H   0  0  0  0  0  0  0  0  0  0  0  0
   41.9070   71.8560   56.9440 C   0  0  0  0  0  0  0  0  0  0  0  0
   40.5640   72.0520   56.7010 C   0  0  0  0  0  0  0  0  0  0  0  0
   39.6760   71.5360   57.6490 C   0  0  0  0  0  0  0  0  0  0  0  0
   40.1680   70.8790   58.7440 N   0  0  0  0  0  0  0  0  0  0  0  0
   41.4660   70.7140   58.9370 C   0  0  0  0  0  0  0  0  0  0  0  0
   42.3280   71.2050   58.0340 N   0  0  0  0  0  0  0  0  0  0  0  0
   42.6110   72.2560   56.2070 H   0  0  0  0  0  0  0  0  0  0  0  0
   38.6110   71.6610   57.5060 H   0  0  0  0  0  0  0  0  0  0  0  0
   40.1090   72.7380   55.5490 N   0  0  0  0  0  0  0  0  0  0  0  0
   40.1210   74.0630   55.6740 C   0  0  0  0  0  0  0  0  0  0  0  0
   39.6880   74.8390   54.5990 C   0  0  0  0  0  0  0  0  0  0  0  0
   39.2570   74.1940   53.4270 C   0  0  0  0  0  0  0  0  0  0  0  0
   38.8460   74.7800   52.3960 O   0  0  0  0  0  0  0  0  0  0  0  0
   39.2770   72.8310   53.3810 N   0  0  0  0  0  0  0  0  0  0  0  0
   39.7030   72.0910   54.4400 C   0  0  0  0  0  0  0  0  0  0  0  0
   39.7230   70.8450   54.4030 O   0  0  0  0  0  0  0  0  0  0  0  0
   40.4410   74.6000   56.5500 H   0  0  0  0  0  0  0  0  0  0  0  0
   39.6620   75.9080   54.6070 H   0  0  0  0  0  0  0  0  0  0  0  0
   38.9740   72.2780   52.5490 H   0  0  0  0  0  0  0  0  0  0  0  0
   42.4960   72.4010   61.2780 S   0  0  0  0  0  0  0  0  0  0  0  0
   43.7070   72.8290   60.4810 O   0  0  0  0  0  0  0  0  0  0  0  0
   42.8670   72.7810   62.7170 O   0  0  0  0  0  0  0  0  0  0  0  0
   39.7930   73.3590   60.8950 C   0  0  0  0  0  3  0  0  0  0  0  0
   41.1800   73.3390   60.7000 C   0  0  0  0  0  0  0  0  0  0  0  0
   41.6510   74.3110   59.8200 C   0  0  0  0  0  0  0  0  0  0  0  0
   42.6900   74.5050   59.5000 H   0  0  0  0  0  0  0  0  0  0  0  0
   40.8190   75.2370   59.1770 C   0  0  0  0  0  0  0  0  0  0  0  0
   40.9460   76.2570   58.3100 N   0  0  0  0  0  0  0  0  0  0  0  0
   41.8610   76.5640   57.9150 H   0  0  0  0  0  0  0  0  0  0  0  0
   39.7560   76.8100   58.0310 C   0  0  0  0  0  0  0  0  0  0  0  0
   39.6460   77.6560   57.3450 H   0  0  0  0  0  0  0  0  0  0  0  0
   38.7620   76.1540   58.7280 C   0  0  0  0  0  3  0  0  0  0  0  0
   39.4580   75.1880   59.4240 C   0  0  0  0  0  0  0  0  0  0  0  0
   38.9470   74.2430   60.2880 C   0  0  0  0  0  3  0  0  0  0  0  0
  1 30  1  0  0  0  0
  1  6  1  0  0  0  0
  2  3  1  0  0  0  0
  2  1  2  0  0  0  0
  3  4  2  0  0  0  0
  4  5  1  0  0  0  0
  5  9  1  0  0  0  0
  6  5  2  0  0  0  0
  6 10  1  0  0  0  0
  7  3  1  0  0  0  0
  8  4  1  0  0  0  0
 11 16  1  0  0  0  0
 12 11  2  0  0  0  0
 12 13  1  0  0  0  0
 13 14  2  0  0  0  0
 14 15  1  0  0  0  0
 15  2  1  0  0  0  0
 16 15  2  0  0  0  0
 17 11  1  0  0  0  0
 18 13  1  0  0  0  0
 19 20  1  0  0  0  0
 19 12  1  0  0  0  0
 20 27  1  0  0  0  0
 21 28  1  0  0  0  0
 21 20  2  0  0  0  0
 22 21  1  0  0  0  0
 23 22  2  0  0  0  0
 24 22  1  0  0  0  0
 24 25  1  0  0  0  0
 25 19  1  0  0  0  0
 26 25  2  0  0  0  0
 29 24  1  0  0  0  0
 30 32  2  0  0  0  0
 31 30  2  0  0  0  0
 34 33  1  0  0  0  0
 34 30  1  0  0  0  0
 35 34  2  0  0  0  0
 36 35  1  0  0  0  0
 37 43  2  0  0  0  0
 37 35  1  0  0  0  0
 38 37  1  0  0  0  0
 39 38  1  0  0  0  0
 40 38  1  0  0  0  0
 40 42  2  0  0  0  0
 41 40  1  0  0  0  0
 42 43  1  0  0  0  0
 43 44  1  0  0  0  0
 44 33  2  0  0  0  0
M  END
>  <minimizedAffinity>
-6.63569403

$$$$

 OpenBabel03212520333D

 44 48  0  0  0  0  0  0  0  0999 V2000
   41.9950   69.7210   60.2200 C   0  0  0  0  0  0  0  0  0  0  0  0
   41.4030   69.6000   58.9700 C   0  0  0  0  0  0  0  0  0  0  0  0
   41.0300   68.3660   58.4780 C   0  0  0  0  0  0  0  0  0  0  0  0
   41.2150   67.1770   59.1860 C   0  0  0  0  0  0  0  0  0  0  0  0
   41.7990   67.2650   60.4280 C   0  0  0  0  0  0  0  0  0  0  0  0
   42.1750   68.5090   60.9220 C   0  0  0  0  0  0  0  0  0  0  0  0
   40.5660   68.2770   57.4960 H   0  0  0  0  0  0  0  0  0  0  0  0
   40.9070   66.2490   58.7570 H   0  0  0  0  0  0  0  0  0  0  0  0
   41.9770   66.3900   61.0370 H   0  0  0  0  0  0  0  0  0  0  0  0
   42.6370   68.5420   61.9130 H   0  0  0  0  0  0  0  0  0  0  0  0
   41.7980   72.4450   56.6500 C   0  0  0  0  0  0  0  0  0  0  0  0
   40.5330   72.9940   56.6310 C   0  0  0  0  0  0  0  0  0  0  0  0
   39.5670   72.3670   57.4230 C   0  0  0  0  0  0  0  0  0  0  0  0
   39.9140   71.2680   58.1620 N   0  0  0  0  0  0  0  0  0  0  0  0
   41.1410   70.7750   58.1500 C   0  0  0  0  0  0  0  0  0  0  0  0
   42.0760   71.3680   57.3930 N   0  0  0  0  0  0  0  0  0  0  0  0
   42.5610   72.9290   56.0320 H   0  0  0  0  0  0  0  0  0  0  0  0
   38.5590   72.7570   57.4440 H   0  0  0  0  0  0  0  0  0  0  0  0
   40.2280   74.1320   55.8460 N   0  0  0  0  0  0  0  0  0  0  0  0
   40.5110   75.2870   56.4440 C   0  0  0  0  0  0  0  0  0  0  0  0
   40.2460   76.4750   55.7610 C   0  0  0  0  0  0  0  0  0  0  0  0
   39.6930   76.4060   54.4710 C   0  0  0  0  0  0  0  0  0  0  0  0
   39.4110   77.4000   53.7590 O   0  0  0  0  0  0  0  0  0  0  0  0
   39.4330   75.1810   53.9310 N   0  0  0  0  0  0  0  0  0  0  0  0
   39.6980   74.0340   54.6110 C   0  0  0  0  0  0  0  0  0  0  0  0
   39.4630   72.9120   54.1220 O   0  0  0  0  0  0  0  0  0  0  0  0
   40.9340   75.3890   57.4280 H   0  0  0  0  0  0  0  0  0  0  0  0
   40.4400   77.4480   56.1600 H   0  0  0  0  0  0  0  0  0  0  0  0
   39.0240   75.0460   52.9800 H   0  0  0  0  0  0  0  0  0  0  0  0
   42.4820   71.2460   60.8640 S   0  0  0  0  0  0  0  0  0  0  0  0
   43.7000   71.7520   60.1250 O   0  0  0  0  0  0  0  0  0  0  0  0
   43.0140   70.9710   62.2770 O   0  0  0  0  0  0  0  0  0  0  0  0
   40.0250   72.7120   61.2930 C   0  0  0  0  0  3  0  0  0  0  0  0
   41.3450   72.5310   60.8600 C   0  0  0  0  0  0  0  0  0  0  0  0
   41.9160   73.6570   60.2710 C   0  0  0  0  0  0  0  0  0  0  0  0
   42.9310   73.7760   59.8530 H   0  0  0  0  0  0  0  0  0  0  0  0
   41.2390   74.8750   60.1180 C   0  0  0  0  0  0  0  0  0  0  0  0
   41.4880   76.0970   59.6170 N   0  0  0  0  0  0  0  0  0  0  0  0
   42.3990   76.3670   59.1870 H   0  0  0  0  0  0  0  0  0  0  0  0
   40.4220   76.9030   59.7450 C   0  0  0  0  0  0  0  0  0  0  0  0
   40.4240   77.9400   59.3990 H   0  0  0  0  0  0  0  0  0  0  0  0
   39.3920   76.2190   60.3580 C   0  0  0  0  0  3  0  0  0  0  0  0
   39.9350   74.9690   60.5730 C   0  0  0  0  0  0  0  0  0  0  0  0
   39.3290   73.8800   61.1620 C   0  0  0  0  0  3  0  0  0  0  0  0
  1 30  1  0  0  0  0
  1  6  1  0  0  0  0
  2  1  2  0  0  0  0
  3  2  1  0  0  0  0
  3  4  2  0  0  0  0
  4  5  1  0  0  0  0
  5  6  2  0  0  0  0
  5  9  1  0  0  0  0
  6 10  1  0  0  0  0
  7  3  1  0  0  0  0
  8  4  1  0  0  0  0
 11 16  1  0  0  0  0
 12 11  2  0  0  0  0
 12 13  1  0  0  0  0
 13 18  1  0  0  0  0
 13 14  2  0  0  0  0
 15 14  1  0  0  0  0
 15  2  1  0  0  0  0
 16 15  2  0  0  0  0
 17 11  1  0  0  0  0
 19 20  1  0  0  0  0
 19 12  1  0  0  0  0
 20 27  1  0  0  0  0
 21 28  1  0  0  0  0
 21 20  2  0  0  0  0
 22 21  1  0  0  0  0
 23 22  2  0  0  0  0
 24 22  1  0  0  0  0
 24 25  1  0  0  0  0
 25 19  1  0  0  0  0
 26 25  2  0  0  0  0
 29 24  1  0  0  0  0
 30 32  2  0  0  0  0
 31 30  2  0  0  0  0
 34 30  1  0  0  0  0
 34 33  2  0  0  0  0
 35 34  1  0  0  0  0
 36 35  1  0  0  0  0
 37 35  2  0  0  0  0
 37 43  1  0  0  0  0
 38 40  1  0  0  0  0
 38 37  1  0  0  0  0
 39 38  1  0  0  0  0
 40 42  2  0  0  0  0
 41 40  1  0  0  0  0
 42 43  1  0  0  0  0
 43 44  2  0  0  0  0
 44 33  1  0  0  0  0
M  END
>  <minimizedAffinity>
-6.54934883

$$$$

 OpenBabel03212520333D

 44 48  0  0  0  0  0  0  0  0999 V2000
   40.6470   73.1950   60.6320 C   0  0  0  0  0  0  0  0  0  0  0  0
   41.1130   72.1670   59.8220 C   0  0  0  0  0  0  0  0  0  0  0  0
   41.8950   71.1550   60.3390 C   0  0  0  0  0  0  0  0  0  0  0  0
   42.2670   71.0920   61.6830 C   0  0  0  0  0  0  0  0  0  0  0  0
   41.8200   72.0960   62.5100 C   0  0  0  0  0  0  0  0  0  0  0  0
   41.0330   73.1150   61.9880 C   0  0  0  0  0  0  0  0  0  0  0  0
   42.2570   70.3510   59.6980 H   0  0  0  0  0  0  0  0  0  0  0  0
   42.8740   70.2850   62.0290 H   0  0  0  0  0  0  0  0  0  0  0  0
   42.0660   72.1180   63.5620 H   0  0  0  0  0  0  0  0  0  0  0  0
   40.6960   73.8980   62.6740 H   0  0  0  0  0  0  0  0  0  0  0  0
   39.2680   71.7880   56.6460 C   0  0  0  0  0  0  0  0  0  0  0  0
   40.2370   72.0600   55.7020 C   0  0  0  0  0  0  0  0  0  0  0  0
   41.5110   72.3690   56.1860 C   0  0  0  0  0  0  0  0  0  0  0  0
   41.7320   72.3860   57.5370 N   0  0  0  0  0  0  0  0  0  0  0  0
   40.7720   72.1180   58.4070 C   0  0  0  0  0  0  0  0  0  0  0  0
   39.5440   71.8200   57.9540 N   0  0  0  0  0  0  0  0  0  0  0  0
   38.2670   71.5450   56.2760 H   0  0  0  0  0  0  0  0  0  0  0  0
   42.3070   72.5910   55.4890 H   0  0  0  0  0  0  0  0  0  0  0  0
   39.9530   72.0310   54.3150 N   0  0  0  0  0  0  0  0  0  0  0  0
   40.2140   70.8590   53.7400 C   0  0  0  0  0  0  0  0  0  0  0  0
   39.9740   70.7200   52.3720 C   0  0  0  0  0  0  0  0  0  0  0  0
   39.4690   71.8180   51.6570 C   0  0  0  0  0  0  0  0  0  0  0  0
   39.2140   71.8170   50.4280 O   0  0  0  0  0  0  0  0  0  0  0  0
   39.2290   72.9840   52.3240 N   0  0  0  0  0  0  0  0  0  0  0  0
   39.4680   73.1010   53.6570 C   0  0  0  0  0  0  0  0  0  0  0  0
   39.2500   74.1640   54.2720 O   0  0  0  0  0  0  0  0  0  0  0  0
   40.6010   69.9920   54.2450 H   0  0  0  0  0  0  0  0  0  0  0  0
   40.1530   69.8190   51.8250 H   0  0  0  0  0  0  0  0  0  0  0  0
   38.8540   73.8430   51.8650 H   0  0  0  0  0  0  0  0  0  0  0  0
   39.6740   74.4810   60.0190 S   0  0  0  0  0  0  0  0  0  0  0  0
   39.4110   75.4930   61.1100 O   0  0  0  0  0  0  0  0  0  0  0  0
   38.2870   73.8850   59.7460 O   0  0  0  0  0  0  0  0  0  0  0  0
   41.5040   75.7920   58.2010 C   0  0  0  0  0  3  0  0  0  0  0  0
   40.2540   75.3670   58.6670 C   0  0  0  0  0  0  0  0  0  0  0  0
   39.1820   75.7360   57.8580 C   0  0  0  0  0  0  0  0  0  0  0  0
   38.1070   75.5270   58.0000 H   0  0  0  0  0  0  0  0  0  0  0  0
   39.3280   76.4710   56.6730 C   0  0  0  0  0  0  0  0  0  0  0  0
   38.5380   76.9690   55.7060 N   0  0  0  0  0  0  0  0  0  0  0  0
   37.5020   76.8570   55.6960 H   0  0  0  0  0  0  0  0  0  0  0  0
   39.2570   77.6160   54.7750 C   0  0  0  0  0  0  0  0  0  0  0  0
   38.7980   78.0920   53.9030 H   0  0  0  0  0  0  0  0  0  0  0  0
   40.5960   77.5680   55.1040 C   0  0  0  0  0  3  0  0  0  0  0  0
   40.6000   76.8530   56.2840 C   0  0  0  0  0  0  0  0  0  0  0  0
   41.6900   76.5100   57.0540 C   0  0  0  0  0  3  0  0  0  0  0  0
  1  6  1  0  0  0  0
  2  3  1  0  0  0  0
  2  1  2  0  0  0  0
  3  4  2  0  0  0  0
  4  8  1  0  0  0  0
  4  5  1  0  0  0  0
  5  9  1  0  0  0  0
  6  5  2  0  0  0  0
  6 10  1  0  0  0  0
  7  3  1  0  0  0  0
 11 16  1  0  0  0  0
 12 13  1  0  0  0  0
 12 11  2  0  0  0  0
 13 14  2  0  0  0  0
 14 15  1  0  0  0  0
 15  2  1  0  0  0  0
 16 15  2  0  0  0  0
 17 11  1  0  0  0  0
 18 13  1  0  0  0  0
 19 12  1  0  0  0  0
 20 27  1  0  0  0  0
 20 19  1  0  0  0  0
 21 20  2  0  0  0  0
 22 24  1  0  0  0  0
 22 21  1  0  0  0  0
 23 22  2  0  0  0  0
 24 25  1  0  0  0  0
 25 26  2  0  0  0  0
 25 19  1  0  0  0  0
 28 21  1  0  0  0  0
 29 24  1  0  0  0  0
 30  1  1  0  0  0  0
 30 31  2  0  0  0  0
 32 30  2  0  0  0  0
 33 34  1  0  0  0  0
 34 30  1  0  0  0  0
 35 36  1  0  0  0  0
 35 34  2  0  0  0  0
 37 35  1  0  0  0  0
 38 37  1  0  0  0  0
 39 38  1  0  0  0  0
 40 42  2  0  0  0  0
 40 38  1  0  0  0  0
 41 40  1  0  0  0  0
 42 43  1  0  0  0  0
 43 37  2  0  0  0  0
 43 44  1  0  0  0  0
 44 33  2  0  0  0  0
M  END
>  <minimizedAffinity>
-6.41483164

$$$$

 OpenBabel03212520333D

 44 48  0  0  0  0  0  0  0  0999 V2000
   42.5160   71.2970   60.2610 C   0  0  0  0  0  0  0  0  0  0  0  0
   41.3180   71.9720   60.4570 C   0  0  0  0  0  0  0  0  0  0  0  0
   40.7680   72.0890   61.7170 C   0  0  0  0  0  0  0  0  0  0  0  0
   41.3630   71.5520   62.8600 C   0  0  0  0  0  0  0  0  0  0  0  0
   42.5510   70.8790   62.6970 C   0  0  0  0  0  0  0  0  0  0  0  0
   43.1040   70.7600   61.4270 C   0  0  0  0  0  0  0  0  0  0  0  0
   39.8280   72.6190   61.8640 H   0  0  0  0  0  0  0  0  0  0  0  0
   40.8940   71.6730   63.8110 H   0  0  0  0  0  0  0  0  0  0  0  0
   43.0730   70.4340   63.5330 H   0  0  0  0  0  0  0  0  0  0  0  0
   44.0490   70.2180   61.3340 H   0  0  0  0  0  0  0  0  0  0  0  0
   40.1920   74.3770   57.8920 C   0  0  0  0  0  0  0  0  0  0  0  0
   39.2330   73.6590   57.2080 C   0  0  0  0  0  0  0  0  0  0  0  0
   38.9950   72.3550   57.6510 C   0  0  0  0  0  0  0  0  0  0  0  0
   39.7060   71.8650   58.7130 N   0  0  0  0  0  0  0  0  0  0  0  0
   40.6170   72.5900   59.3400 C   0  0  0  0  0  0  0  0  0  0  0  0
   40.8540   73.8430   58.9240 N   0  0  0  0  0  0  0  0  0  0  0  0
   40.3860   75.3990   57.5520 H   0  0  0  0  0  0  0  0  0  0  0  0
   38.2530   71.7480   57.1500 H   0  0  0  0  0  0  0  0  0  0  0  0
   38.5290   74.2150   56.1130 N   0  0  0  0  0  0  0  0  0  0  0  0
   37.5500   75.0430   56.4700 C   0  0  0  0  0  0  0  0  0  0  0  0
   36.7870   75.6450   55.4680 C   0  0  0  0  0  0  0  0  0  0  0  0
   37.0810   75.3550   54.1260 C   0  0  0  0  0  0  0  0  0  0  0  0
   36.4680   75.8310   53.1390 O   0  0  0  0  0  0  0  0  0  0  0  0
   38.1010   74.4940   53.8460 N   0  0  0  0  0  0  0  0  0  0  0  0
   38.8350   73.9170   54.8350 C   0  0  0  0  0  0  0  0  0  0  0  0
   39.7690   73.1300   54.5850 O   0  0  0  0  0  0  0  0  0  0  0  0
   37.2890   75.2950   57.4820 H   0  0  0  0  0  0  0  0  0  0  0  0
   35.9820   76.3230   55.6590 H   0  0  0  0  0  0  0  0  0  0  0  0
   38.3810   74.2280   52.8770 H   0  0  0  0  0  0  0  0  0  0  0  0
   43.2290   71.1220   58.6990 S   0  0  0  0  0  0  0  0  0  0  0  0
   44.6490   70.6230   58.8340 O   0  0  0  0  0  0  0  0  0  0  0  0
   43.4040   72.5400   58.1400 O   0  0  0  0  0  0  0  0  0  0  0  0
   42.0160   68.7610   57.5470 C   0  0  0  0  0  3  0  0  0  0  0  0
   42.4590   70.0900   57.5640 C   0  0  0  0  0  0  0  0  0  0  0  0
   42.2360   70.7860   56.3780 C   0  0  0  0  0  0  0  0  0  0  0  0
   42.4880   71.8340   56.1360 H   0  0  0  0  0  0  0  0  0  0  0  0
   41.6220   70.2160   55.2540 C   0  0  0  0  0  0  0  0  0  0  0  0
   41.2740   70.5930   54.0110 N   0  0  0  0  0  0  0  0  0  0  0  0
   41.4430   71.5490   53.6320 H   0  0  0  0  0  0  0  0  0  0  0  0
   40.6900   69.5860   53.3430 C   0  0  0  0  0  0  0  0  0  0  0  0
   40.3330   69.6910   52.3140 H   0  0  0  0  0  0  0  0  0  0  0  0
   40.6280   68.4670   54.1480 C   0  0  0  0  0  3  0  0  0  0  0  0
   41.2150   68.8950   55.3200 C   0  0  0  0  0  0  0  0  0  0  0  0
   41.4140   68.1680   56.4740 C   0  0  0  0  0  3  0  0  0  0  0  0
  1  2  2  0  0  0  0
  1  6  1  0  0  0  0
  2  3  1  0  0  0  0
  3  7  1  0  0  0  0
  3  4  2  0  0  0  0
  4  8  1  0  0  0  0
  5  4  1  0  0  0  0
  5  9  1  0  0  0  0
  6  5  2  0  0  0  0
 10  6  1  0  0  0  0
 11 16  1  0  0  0  0
 12 13  1  0  0  0  0
 12 11  2  0  0  0  0
 13 14  2  0  0  0  0
 14 15  1  0  0  0  0
 15  2  1  0  0  0  0
 16 15  2  0  0  0  0
 17 11  1  0  0  0  0
 18 13  1  0  0  0  0
 19 20  1  0  0  0  0
 19 12  1  0  0  0  0
 20 27  1  0  0  0  0
 21 28  1  0  0  0  0
 21 20  2  0  0  0  0
 22 21  1  0  0  0  0
 23 22  2  0  0  0  0
 24 22  1  0  0  0  0
 24 25  1  0  0  0  0
 25 19  1  0  0  0  0
 26 25  2  0  0  0  0
 29 24  1  0  0  0  0
 30 31  2  0  0  0  0
 30  1  1  0  0  0  0
 32 30  2  0  0  0  0
 33 34  1  0  0  0  0
 34 30  1  0  0  0  0
 35 34  2  0  0  0  0
 36 35  1  0  0  0  0
 37 43  2  0  0  0  0
 37 35  1  0  0  0  0
 38 37  1  0  0  0  0
 39 38  1  0  0  0  0
 40 38  1  0  0  0  0
 40 42  2  0  0  0  0
 41 40  1  0  0  0  0
 42 43  1  0  0  0  0
 43 44  1  0  0  0  0
 44 33  2  0  0  0  0
M  END
>  <minimizedAffinity>
-6.32689524

$$$$

 OpenBabel03212520333D

 44 48  0  0  0  0  0  0  0  0999 V2000
   39.1000   75.5730   57.9200 C   0  0  0  0  0  0  0  0  0  0  0  0
   39.9650   74.4950   58.0610 C   0  0  0  0  0  0  0  0  0  0  0  0
   40.7380   74.3480   59.1950 C   0  0  0  0  0  0  0  0  0  0  0  0
   40.7060   75.2520   60.2590 C   0  0  0  0  0  0  0  0  0  0  0  0
   39.8580   76.3290   60.1490 C   0  0  0  0  0  0  0  0  0  0  0  0
   39.0810   76.4750   59.0050 C   0  0  0  0  0  0  0  0  0  0  0  0
   41.4140   73.5010   59.2990 H   0  0  0  0  0  0  0  0  0  0  0  0
   41.3250   75.0890   61.1130 H   0  0  0  0  0  0  0  0  0  0  0  0
   39.7770   77.0720   60.9290 H   0  0  0  0  0  0  0  0  0  0  0  0
   38.4180   77.3440   58.9510 H   0  0  0  0  0  0  0  0  0  0  0  0
   41.1320   72.4790   55.1960 C   0  0  0  0  0  0  0  0  0  0  0  0
   40.1630   71.5030   55.1020 C   0  0  0  0  0  0  0  0  0  0  0  0
   39.1220   71.5630   56.0330 C   0  0  0  0  0  0  0  0  0  0  0  0
   39.1150   72.5620   56.9690 N   0  0  0  0  0  0  0  0  0  0  0  0
   40.0670   73.4780   57.0230 C   0  0  0  0  0  0  0  0  0  0  0  0
   41.0710   73.4300   56.1340 N   0  0  0  0  0  0  0  0  0  0  0  0
   41.9520   72.4400   54.4720 H   0  0  0  0  0  0  0  0  0  0  0  0
   38.3360   70.8220   56.0030 H   0  0  0  0  0  0  0  0  0  0  0  0
   40.2210   70.4900   54.1140 N   0  0  0  0  0  0  0  0  0  0  0  0
   40.6270   69.3100   54.5780 C   0  0  0  0  0  0  0  0  0  0  0  0
   40.7240   68.2410   53.6870 C   0  0  0  0  0  0  0  0  0  0  0  0
   40.3910   68.4500   52.3390 C   0  0  0  0  0  0  0  0  0  0  0  0
   40.4390   67.5700   51.4440 O   0  0  0  0  0  0  0  0  0  0  0  0
   39.9840   69.6910   51.9450 N   0  0  0  0  0  0  0  0  0  0  0  0
   39.8940   70.7210   52.8280 C   0  0  0  0  0  0  0  0  0  0  0  0
   39.5220   71.8570   52.4740 O   0  0  0  0  0  0  0  0  0  0  0  0
   40.8920   69.1040   55.6000 H   0  0  0  0  0  0  0  0  0  0  0  0
   41.0400   67.2590   53.9680 H   0  0  0  0  0  0  0  0  0  0  0  0
   39.7190   69.9260   50.9630 H   0  0  0  0  0  0  0  0  0  0  0  0
   38.1260   75.7930   56.5130 S   0  0  0  0  0  0  0  0  0  0  0  0
   37.3400   77.0790   56.6280 O   0  0  0  0  0  0  0  0  0  0  0  0
   37.0410   74.7090   56.5620 O   0  0  0  0  0  0  0  0  0  0  0  0
   40.0970   76.3610   54.4730 C   0  0  0  0  0  3  0  0  0  0  0  0
   38.9030   75.8360   54.9840 C   0  0  0  0  0  0  0  0  0  0  0  0
   38.1180   75.1720   54.0430 C   0  0  0  0  0  0  0  0  0  0  0  0
   37.1420   74.6750   54.1880 H   0  0  0  0  0  0  0  0  0  0  0  0
   38.4810   75.0340   52.6970 C   0  0  0  0  0  0  0  0  0  0  0  0
   37.9760   74.4790   51.5810 N   0  0  0  0  0  0  0  0  0  0  0  0
   37.0640   73.9740   51.5530 H   0  0  0  0  0  0  0  0  0  0  0  0
   38.7920   74.6640   50.5320 C   0  0  0  0  0  0  0  0  0  0  0  0
   38.5600   74.2870   49.5310 H   0  0  0  0  0  0  0  0  0  0  0  0
   39.9080   75.3730   50.9300 C   0  0  0  0  0  3  0  0  0  0  0  0
   39.6780   75.5830   52.2730 C   0  0  0  0  0  0  0  0  0  0  0  0
   40.4880   76.2480   53.1690 C   0  0  0  0  0  3  0  0  0  0  0  0
  1  2  2  0  0  0  0
  1  6  1  0  0  0  0
  2  3  1  0  0  0  0
  3  7  1  0  0  0  0
  3  4  2  0  0  0  0
  4  8  1  0  0  0  0
  5  4  1  0  0  0  0
  5  9  1  0  0  0  0
  6  5  2  0  0  0  0
 10  6  1  0  0  0  0
 11 16  1  0  0  0  0
 12 11  2  0  0  0  0
 12 13  1  0  0  0  0
 13 14  2  0  0  0  0
 14 15  1  0  0  0  0
 15  2  1  0  0  0  0
 16 15  2  0  0  0  0
 17 11  1  0  0  0  0
 18 13  1  0  0  0  0
 19 20  1  0  0  0  0
 19 12  1  0  0  0  0
 20 27  1  0  0  0  0
 21 28  1  0  0  0  0
 21 20  2  0  0  0  0
 22 21  1  0  0  0  0
 23 22  2  0  0  0  0
 24 22  1  0  0  0  0
 24 25  1  0  0  0  0
 25 19  1  0  0  0  0
 26 25  2  0  0  0  0
 29 24  1  0  0  0  0
 30 32  2  0  0  0  0
 30 31  2  0  0  0  0
 30  1  1  0  0  0  0
 33 34  1  0  0  0  0
 34 30  1  0  0  0  0
 35 36  1  0  0  0  0
 35 34  2  0  0  0  0
 37 35  1  0  0  0  0
 38 37  1  0  0  0  0
 39 38  1  0  0  0  0
 40 42  2  0  0  0  0
 40 38  1  0  0  0  0
 41 40  1  0  0  0  0
 42 43  1  0  0  0  0
 43 37  2  0  0  0  0
 43 44  1  0  0  0  0
 44 33  2  0  0  0  0
M  END
>  <minimizedAffinity>
-6.32640314

$$$$

 OpenBabel03212520333D

 44 48  0  0  0  0  0  0  0  0999 V2000
   38.6000   76.0880   56.1000 C   0  0  0  0  0  0  0  0  0  0  0  0
   38.6860   74.9040   55.3780 C   0  0  0  0  0  0  0  0  0  0  0  0
   38.2370   74.8330   54.0760 C   0  0  0  0  0  0  0  0  0  0  0  0
   37.6770   75.9220   53.4030 C   0  0  0  0  0  0  0  0  0  0  0  0
   37.5800   77.1080   54.0920 C   0  0  0  0  0  0  0  0  0  0  0  0
   38.0320   77.1770   55.4050 C   0  0  0  0  0  0  0  0  0  0  0  0
   38.3070   73.9020   53.5150 H   0  0  0  0  0  0  0  0  0  0  0  0
   37.3470   75.8110   52.3950 H   0  0  0  0  0  0  0  0  0  0  0  0
   37.1580   77.9950   53.6420 H   0  0  0  0  0  0  0  0  0  0  0  0
   37.9380   78.1360   55.9230 H   0  0  0  0  0  0  0  0  0  0  0  0
   39.1410   71.7460   57.2350 C   0  0  0  0  0  0  0  0  0  0  0  0
   40.4780   71.4730   57.0390 C   0  0  0  0  0  0  0  0  0  0  0  0
   41.1970   72.3900   56.2680 C   0  0  0  0  0  0  0  0  0  0  0  0
   40.5560   73.4860   55.7570 N   0  0  0  0  0  0  0  0  0  0  0  0
   39.2700   73.7090   55.9710 C   0  0  0  0  0  0  0  0  0  0  0  0
   38.5700   72.8350   56.7100 N   0  0  0  0  0  0  0  0  0  0  0  0
   38.5690   71.0320   57.8380 H   0  0  0  0  0  0  0  0  0  0  0  0
   42.2490   72.2240   56.0830 H   0  0  0  0  0  0  0  0  0  0  0  0
   41.0910   70.3210   57.5900 N   0  0  0  0  0  0  0  0  0  0  0  0
   41.3420   69.3680   56.6950 C   0  0  0  0  0  0  0  0  0  0  0  0
   41.9420   68.1850   57.1310 C   0  0  0  0  0  0  0  0  0  0  0  0
   42.2560   68.0470   58.4930 C   0  0  0  0  0  0  0  0  0  0  0  0
   42.7950   67.0350   59.0040 O   0  0  0  0  0  0  0  0  0  0  0  0
   41.9650   69.0720   59.3430 N   0  0  0  0  0  0  0  0  0  0  0  0
   41.3810   70.2180   58.9010 C   0  0  0  0  0  0  0  0  0  0  0  0
   41.1130   71.1580   59.6740 O   0  0  0  0  0  0  0  0  0  0  0  0
   41.1200   69.4290   55.6440 H   0  0  0  0  0  0  0  0  0  0  0  0
   42.1810   67.3660   56.4860 H   0  0  0  0  0  0  0  0  0  0  0  0
   42.1670   69.0470   60.3670 H   0  0  0  0  0  0  0  0  0  0  0  0
   39.1430   76.2120   57.7330 S   0  0  0  0  0  0  0  0  0  0  0  0
   38.2870   75.3440   58.6270 O   0  0  0  0  0  0  0  0  0  0  0  0
   38.8080   77.6350   58.1960 O   0  0  0  0  0  0  0  0  0  0  0  0
   42.0310   76.1510   57.5710 C   0  0  0  0  0  3  0  0  0  0  0  0
   40.7740   75.8050   58.0810 C   0  0  0  0  0  0  0  0  0  0  0  0
   40.8120   74.9020   59.1420 C   0  0  0  0  0  0  0  0  0  0  0  0
   39.9700   74.4750   59.7150 H   0  0  0  0  0  0  0  0  0  0  0  0
   42.0030   74.3780   59.6650 C   0  0  0  0  0  0  0  0  0  0  0  0
   42.3740   73.5270   60.6370 N   0  0  0  0  0  0  0  0  0  0  0  0
   41.6970   73.0420   61.2650 H   0  0  0  0  0  0  0  0  0  0  0  0
   43.7090   73.3940   60.6850 C   0  0  0  0  0  0  0  0  0  0  0  0
   44.2100   72.7460   61.4100 H   0  0  0  0  0  0  0  0  0  0  0  0
   44.2900   74.1800   59.7110 C   0  0  0  0  0  3  0  0  0  0  0  0
   43.2040   74.7720   59.1010 C   0  0  0  0  0  0  0  0  0  0  0  0
   43.2130   75.6630   58.0500 C   0  0  0  0  0  3  0  0  0  0  0  0
  1 30  1  0  0  0  0
  2 15  1  0  0  0  0
  2  1  2  0  0  0  0
  3  2  1  0  0  0  0
  4  3  2  0  0  0  0
  4  5  1  0  0  0  0
  5  6  2  0  0  0  0
  6 10  1  0  0  0  0
  6  1  1  0  0  0  0
  7  3  1  0  0  0  0
  8  4  1  0  0  0  0
  9  5  1  0  0  0  0
 11 17  1  0  0  0  0
 12 11  1  0  0  0  0
 12 19  1  0  0  0  0
 13 12  2  0  0  0  0
 14 15  2  0  0  0  0
 14 13  1  0  0  0  0
 15 16  1  0  0  0  0
 16 11  2  0  0  0  0
 18 13  1  0  0  0  0
 19 25  1  0  0  0  0
 20 21  2  0  0  0  0
 20 19  1  0  0  0  0
 21 22  1  0  0  0  0
 22 23  2  0  0  0  0
 22 24  1  0  0  0  0
 24 29  1  0  0  0  0
 25 24  1  0  0  0  0
 25 26  2  0  0  0  0
 27 20  1  0  0  0  0
 28 21  1  0  0  0  0
 30 34  1  0  0  0  0
 30 32  2  0  0  0  0
 30 31  2  0  0  0  0
 33 44  2  0  0  0  0
 33 34  1  0  0  0  0
 34 35  2  0  0  0  0
 35 37  1  0  0  0  0
 35 36  1  0  0  0  0
 37 38  1  0  0  0  0
 38 40  1  0  0  0  0
 38 39  1  0  0  0  0
 40 41  1  0  0  0  0
 42 40  2  0  0  0  0
 43 37  2  0  0  0  0
 43 42  1  0  0  0  0
 44 43  1  0  0  0  0
M  END
>  <minimizedAffinity>
-6.31881762

$$$$
