
 OpenBabel03212520313D

 44 48  0  0  0  0  0  0  0  0999 V2000
   42.4900   84.2790   60.2910 C   0  0  0  0  0  0  0  0  0  0  0  0
   42.3580   83.1050   59.5610 C   0  0  0  0  0  0  0  0  0  0  0  0
   41.9030   83.1270   58.2590 C   0  0  0  0  0  0  0  0  0  0  0  0
   41.5520   84.3040   57.5950 C   0  0  0  0  0  0  0  0  0  0  0  0
   41.6730   85.4830   58.2920 C   0  0  0  0  0  0  0  0  0  0  0  0
   42.1310   85.4590   59.6040 C   0  0  0  0  0  0  0  0  0  0  0  0
   41.8020   82.2020   57.6920 H   0  0  0  0  0  0  0  0  0  0  0  0
   41.2060   84.2620   56.5860 H   0  0  0  0  0  0  0  0  0  0  0  0
   41.4200   86.4350   57.8480 H   0  0  0  0  0  0  0  0  0  0  0  0
   42.2140   86.4160   60.1290 H   0  0  0  0  0  0  0  0  0  0  0  0
   44.1300   79.9740   60.3920 C   0  0  0  0  0  0  0  0  0  0  0  0
   43.2900   79.3900   61.3160 C   0  0  0  0  0  0  0  0  0  0  0  0
   42.1240   80.0940   61.6330 C   0  0  0  0  0  0  0  0  0  0  0  0
   41.8780   81.2960   61.0270 N   0  0  0  0  0  0  0  0  0  0  0  0
   42.7140   81.8190   60.1450 C   0  0  0  0  0  0  0  0  0  0  0  0
   43.8360   81.1530   59.8330 N   0  0  0  0  0  0  0  0  0  0  0  0
   45.0460   79.4310   60.1370 H   0  0  0  0  0  0  0  0  0  0  0  0
   41.4300   79.6800   62.3520 H   0  0  0  0  0  0  0  0  0  0  0  0
   43.5940   78.1440   61.9150 N   0  0  0  0  0  0  0  0  0  0  0  0
   44.6440   78.1840   62.7320 C   0  0  0  0  0  0  0  0  0  0  0  0
   45.0350   77.0080   63.3740 C   0  0  0  0  0  0  0  0  0  0  0  0
   44.3080   75.8310   63.1330 C   0  0  0  0  0  0  0  0  0  0  0  0
   44.5610   74.7140   63.6480 O   0  0  0  0  0  0  0  0  0  0  0  0
   43.2440   75.8760   62.2810 N   0  0  0  0  0  0  0  0  0  0  0  0
   42.8770   77.0320   61.6650 C   0  0  0  0  0  0  0  0  0  0  0  0
   41.9050   77.0790   60.8850 O   0  0  0  0  0  0  0  0  0  0  0  0
   45.2300   79.0600   62.9470 H   0  0  0  0  0  0  0  0  0  0  0  0
   45.8640   76.9430   64.0460 H   0  0  0  0  0  0  0  0  0  0  0  0
   42.6540   75.0470   62.0510 H   0  0  0  0  0  0  0  0  0  0  0  0
   43.0470   84.2910   61.9240 S   0  0  0  0  0  0  0  0  0  0  0  0
   41.9460   83.8200   62.8470 O   0  0  0  0  0  0  0  0  0  0  0  0
   43.2280   85.7640   62.3120 O   0  0  0  0  0  0  0  0  0  0  0  0
   44.7410   82.3320   63.2130 C   0  0  0  0  0  3  0  0  0  0  0  0
   44.4370   83.3620   62.3160 C   0  0  0  0  0  0  0  0  0  0  0  0
   45.5060   83.7680   61.5190 C   0  0  0  0  0  0  0  0  0  0  0  0
   45.5280   84.5510   60.7420 H   0  0  0  0  0  0  0  0  0  0  0  0
   46.7840   83.1990   61.6000 C   0  0  0  0  0  0  0  0  0  0  0  0
   47.9810   83.3510   61.0040 N   0  0  0  0  0  0  0  0  0  0  0  0
   48.1640   84.0490   60.2520 H   0  0  0  0  0  0  0  0  0  0  0  0
   48.8860   82.4950   61.5050 C   0  0  0  0  0  0  0  0  0  0  0  0
   49.9210   82.4600   61.1530 H   0  0  0  0  0  0  0  0  0  0  0  0
   48.3010   81.7190   62.4850 C   0  0  0  0  0  3  0  0  0  0  0  0
   47.0030   82.1830   62.5140 C   0  0  0  0  0  0  0  0  0  0  0  0
   45.9740   81.7510   63.3230 C   0  0  0  0  0  3  0  0  0  0  0  0
  1 30  1  0  0  0  0
  2 15  1  0  0  0  0
  2  1  2  0  0  0  0
  3  2  1  0  0  0  0
  4  3  2  0  0  0  0
  4  5  1  0  0  0  0
  5  6  2  0  0  0  0
  6 10  1  0  0  0  0
  6  1  1  0  0  0  0
  7  3  1  0  0  0  0
  8  4  1  0  0  0  0
  9  5  1  0  0  0  0
 11 12  1  0  0  0  0
 12 13  2  0  0  0  0
 12 19  1  0  0  0  0
 13 18  1  0  0  0  0
 14 13  1  0  0  0  0
 15 14  2  0  0  0  0
 16 15  1  0  0  0  0
 16 11  2  0  0  0  0
 17 11  1  0  0  0  0
 19 20  1  0  0  0  0
 20 27  1  0  0  0  0
 20 21  2  0  0  0  0
 21 28  1  0  0  0  0
 22 21  1  0  0  0  0
 22 23  2  0  0  0  0
 24 22  1  0  0  0  0
 25 19  1  0  0  0  0
 25 24  1  0  0  0  0
 26 25  2  0  0  0  0
 29 24  1  0  0  0  0
 30 32  2  0  0  0  0
 30 34  1  0  0  0  0
 30 31  2  0  0  0  0
 33 44  1  0  0  0  0
 34 33  2  0  0  0  0
 35 37  2  0  0  0  0
 35 34  1  0  0  0  0
 36 35  1  0  0  0  0
 37 43  1  0  0  0  0
 38 40  1  0  0  0  0
 38 37  1  0  0  0  0
 39 38  1  0  0  0  0
 40 42  2  0  0  0  0
 41 40  1  0  0  0  0
 42 43  1  0  0  0  0
 43 44  2  0  0  0  0
M  END
>  <minimizedAffinity>
-6.0246377

>  <minimizedRMSD>
7.49590921

$$$$
