
 OpenBabel03212520313D

 44 48  0  0  0  0  0  0  0  0999 V2000
   42.9590   82.0590   62.6030 C   0  0  0  0  0  0  0  0  0  0  0  0
   43.5740   80.9940   61.9580 C   0  0  0  0  0  0  0  0  0  0  0  0
   44.9340   80.7890   62.0640 C   0  0  0  0  0  0  0  0  0  0  0  0
   45.7720   81.6190   62.8120 C   0  0  0  0  0  0  0  0  0  0  0  0
   45.1920   82.6820   63.4630 C   0  0  0  0  0  0  0  0  0  0  0  0
   43.8210   82.8870   63.3540 C   0  0  0  0  0  0  0  0  0  0  0  0
   45.4110   79.9520   61.5550 H   0  0  0  0  0  0  0  0  0  0  0  0
   46.8180   81.4140   62.8600 H   0  0  0  0  0  0  0  0  0  0  0  0
   45.7730   83.3700   64.0610 H   0  0  0  0  0  0  0  0  0  0  0  0
   43.3930   83.7430   63.8850 H   0  0  0  0  0  0  0  0  0  0  0  0
   41.7000   78.0080   60.8600 C   0  0  0  0  0  0  0  0  0  0  0  0
   41.3190   78.3480   59.5780 C   0  0  0  0  0  0  0  0  0  0  0  0
   41.7210   79.6050   59.1200 C   0  0  0  0  0  0  0  0  0  0  0  0
   42.4530   80.4190   59.9410 N   0  0  0  0  0  0  0  0  0  0  0  0
   42.7960   80.0510   61.1650 C   0  0  0  0  0  0  0  0  0  0  0  0
   42.4170   78.8460   61.6160 N   0  0  0  0  0  0  0  0  0  0  0  0
   41.3900   77.0250   61.2280 H   0  0  0  0  0  0  0  0  0  0  0  0
   41.4490   79.9210   58.1220 H   0  0  0  0  0  0  0  0  0  0  0  0
   40.5590   77.4680   58.7710 N   0  0  0  0  0  0  0  0  0  0  0  0
   39.2500   77.5190   59.0070 C   0  0  0  0  0  0  0  0  0  0  0  0
   38.4060   76.6890   58.2690 C   0  0  0  0  0  0  0  0  0  0  0  0
   38.9680   75.8330   57.3070 C   0  0  0  0  0  0  0  0  0  0  0  0
   38.3160   75.0420   56.5830 O   0  0  0  0  0  0  0  0  0  0  0  0
   40.3200   75.8430   57.1270 N   0  0  0  0  0  0  0  0  0  0  0  0
   41.1270   76.6590   57.8550 C   0  0  0  0  0  0  0  0  0  0  0  0
   42.3630   76.6720   57.6950 O   0  0  0  0  0  0  0  0  0  0  0  0
   38.7750   78.1560   59.7320 H   0  0  0  0  0  0  0  0  0  0  0  0
   37.3430   76.6610   58.3890 H   0  0  0  0  0  0  0  0  0  0  0  0
   40.8130   75.2390   56.4330 H   0  0  0  0  0  0  0  0  0  0  0  0
   41.2630   82.3510   62.4860 S   0  0  0  0  0  0  0  0  0  0  0  0
   40.7500   82.9340   63.7830 O   0  0  0  0  0  0  0  0  0  0  0  0
   40.5880   80.9750   62.4250 O   0  0  0  0  0  0  0  0  0  0  0  0
   39.4510   83.7880   60.7470 C   0  0  0  0  0  0  0  0  0  0  0  0
   40.6990   83.3840   61.2360 C   0  0  0  0  0  0  0  0  0  0  0  0
   41.7870   83.9380   60.5640 C   0  0  0  0  0  0  0  0  0  0  0  0
   42.8640   83.7830   60.7520 H   0  0  0  0  0  0  0  0  0  0  0  0
   41.6570   84.8270   59.4880 C   0  0  0  0  0  0  0  0  0  0  0  0
   42.4630   85.5110   58.6590 N   0  0  0  0  0  0  0  0  0  0  0  0
   43.5040   85.4710   58.7060 H   0  0  0  0  0  0  0  0  0  0  0  0
   41.7550   86.2370   57.7790 C   0  0  0  0  0  0  0  0  0  0  0  0
   42.2270   86.8650   57.0180 H   0  0  0  0  0  0  0  0  0  0  0  0
   40.4060   86.0520   58.0030 C   0  0  0  0  0  0  0  0  0  0  0  0
   40.3850   85.1740   59.0660 C   0  0  0  0  0  0  0  0  0  0  0  0
   39.2800   84.6510   59.7020 C   0  0  0  0  0  0  0  0  0  0  0  0
  1  6  1  0  0  0  0
  2  3  1  0  0  0  0
  2  1  2  0  0  0  0
  3  4  2  0  0  0  0
  4  8  1  0  0  0  0
  4  5  1  0  0  0  0
  5  9  1  0  0  0  0
  6  5  2  0  0  0  0
  6 10  1  0  0  0  0
  7  3  1  0  0  0  0
 11 17  1  0  0  0  0
 11 16  1  0  0  0  0
 12 11  2  0  0  0  0
 13 12  1  0  0  0  0
 13 14  2  0  0  0  0
 14 15  1  0  0  0  0
 15 16  2  0  0  0  0
 15  2  1  0  0  0  0
 18 13  1  0  0  0  0
 19 20  1  0  0  0  0
 19 12  1  0  0  0  0
 20 27  1  0  0  0  0
 21 28  1  0  0  0  0
 21 20  2  0  0  0  0
 22 21  1  0  0  0  0
 23 22  2  0  0  0  0
 24 22  1  0  0  0  0
 24 25  1  0  0  0  0
 25 19  1  0  0  0  0
 26 25  2  0  0  0  0
 29 24  1  0  0  0  0
 30  1  1  0  0  0  0
 30 31  2  0  0  0  0
 32 30  2  0  0  0  0
 33 34  1  0  0  0  0
 34 30  1  0  0  0  0
 35 36  1  0  0  0  0
 35 34  2  0  0  0  0
 37 35  1  0  0  0  0
 38 39  1  0  0  0  0
 38 37  1  0  0  0  0
 40 42  2  0  0  0  0
 40 38  1  0  0  0  0
 41 40  1  0  0  0  0
 42 43  1  0  0  0  0
 43 37  2  0  0  0  0
 43 44  1  0  0  0  0
 44 33  2  0  0  0  0
M  END
>  <minimizedAffinity>
-6.98982763

>  <minimizedRMSD>
2.82395172

$$$$
