
 OpenBabel03212520483D

 31 34  0  0  0  0  0  0  0  0999 V2000
   41.6190   83.9250   61.4470 C   0  0  0  0  0  0  0  0  0  0  0  0
   41.1410   84.3310   62.6650 C   0  0  0  0  0  0  0  0  0  0  0  0
   40.6740   83.4060   63.6100 C   0  0  0  0  0  0  0  0  0  0  0  0
   40.6950   82.0880   63.3170 N   0  0  0  0  0  0  0  0  0  0  0  0
   41.1650   81.7100   62.1230 C   0  0  0  0  0  0  0  0  0  0  0  0
   41.6180   82.6060   61.2050 N   0  0  0  0  0  0  0  0  0  0  0  0
   41.1380   85.3930   62.8700 H   0  0  0  0  0  0  0  0  0  0  0  0
   40.3150   83.8100   64.5450 H   0  0  0  0  0  0  0  0  0  0  0  0
   40.5040   79.3390   62.3960 C   0  0  0  0  0  3  0  0  0  0  0  0
   41.2230   80.3060   61.7250 C   0  0  0  0  0  0  0  0  0  0  0  0
   41.9810   79.8390   60.6710 C   0  0  0  0  0  0  0  0  0  0  0  0
   42.5800   80.5590   60.0930 H   0  0  0  0  0  0  0  0  0  0  0  0
   42.0130   78.5050   60.3220 C   0  0  0  0  0  0  0  0  0  0  0  0
   42.6310   77.7700   59.3820 N   0  0  0  0  0  0  0  0  0  0  0  0
   43.2870   78.1900   58.6610 H   0  0  0  0  0  0  0  0  0  0  0  0
   42.3170   76.4650   59.4700 C   0  0  0  0  0  0  0  0  0  0  0  0
   42.6410   75.6320   58.8730 H   0  0  0  0  0  0  0  0  0  0  0  0
   41.4330   76.3160   60.5360 C   0  0  0  0  0  3  0  0  0  0  0  0
   41.2690   77.5900   61.0370 C   0  0  0  0  0  0  0  0  0  0  0  0
   40.4760   77.9900   62.1180 C   0  0  0  0  0  3  0  0  0  0  0  0
   43.6520   86.4610   59.7650 C   0  0  0  0  0  0  0  0  0  0  0  0
   42.9850   86.6140   58.5530 C   0  0  0  0  0  0  0  0  0  0  0  0
   41.8490   85.8590   58.3080 C   0  0  0  0  0  0  0  0  0  0  0  0
   41.4430   84.9940   59.2850 N   0  0  0  0  0  0  0  0  0  0  0  0
   42.1130   84.8740   60.4410 C   0  0  0  0  0  0  0  0  0  0  0  0
   43.2090   85.5920   60.6970 N   0  0  0  0  0  0  0  0  0  0  0  0
   44.7960   87.2950   59.8790 N   0  0  0  0  0  0  0  0  0  0  0  0
   43.2590   87.2720   57.7620 H   0  0  0  0  0  0  0  0  0  0  0  0
   41.2770   85.9180   57.3980 H   0  0  0  0  0  0  0  0  0  0  0  0
   45.5520   86.7360   60.3550 H   0  0  0  0  0  0  0  0  0  0  0  0
   44.8030   88.2770   59.5250 H   0  0  0  0  0  0  0  0  0  0  0  0
  1  2  1  0  0  0  0
  2  7  1  0  0  0  0
  2  3  2  0  0  0  0
  3  8  1  0  0  0  0
  4  3  1  0  0  0  0
  5  4  2  0  0  0  0
  6  1  2  0  0  0  0
  6  5  1  0  0  0  0
 10  5  1  0  0  0  0
 10  9  2  0  0  0  0
 11 10  1  0  0  0  0
 12 11  1  0  0  0  0
 13 11  2  0  0  0  0
 13 19  1  0  0  0  0
 14 16  1  0  0  0  0
 14 13  1  0  0  0  0
 15 14  1  0  0  0  0
 16 18  2  0  0  0  0
 17 16  1  0  0  0  0
 18 19  1  0  0  0  0
 19 20  2  0  0  0  0
 20  9  1  0  0  0  0
 21 27  1  0  0  0  0
 21 26  1  0  0  0  0
 22 21  2  0  0  0  0
 23 22  1  0  0  0  0
 23 24  2  0  0  0  0
 24 25  1  0  0  0  0
 25 26  2  0  0  0  0
 25  1  1  0  0  0  0
 27 30  1  0  0  0  0
 28 22  1  0  0  0  0
 29 23  1  0  0  0  0
 31 27  1  0  0  0  0
M  END
>  <minimizedAffinity>
-5.48675919

>  <minimizedRMSD>
0.278152138

$$$$
