
 OpenBabel03212520483D

 31 34  0  0  0  0  0  0  0  0999 V2000
   41.5910   83.9170   61.4460 C   0  0  0  0  0  0  0  0  0  0  0  0
   40.9770   84.3390   62.5950 C   0  0  0  0  0  0  0  0  0  0  0  0
   40.5230   83.4250   63.5570 C   0  0  0  0  0  0  0  0  0  0  0  0
   40.6930   82.1010   63.3490 N   0  0  0  0  0  0  0  0  0  0  0  0
   41.2940   81.7080   62.2210 C   0  0  0  0  0  0  0  0  0  0  0  0
   41.7350   82.5930   61.2870 N   0  0  0  0  0  0  0  0  0  0  0  0
   40.8560   85.4050   62.7330 H   0  0  0  0  0  0  0  0  0  0  0  0
   40.0500   83.8410   64.4350 H   0  0  0  0  0  0  0  0  0  0  0  0
   40.4650   79.4150   61.7870 C   0  0  0  0  0  3  0  0  0  0  0  0
   41.5180   80.2980   61.9160 C   0  0  0  0  0  0  0  0  0  0  0  0
   42.7660   79.7410   61.7370 C   0  0  0  0  0  0  0  0  0  0  0  0
   43.6500   80.3900   61.8260 H   0  0  0  0  0  0  0  0  0  0  0  0
   42.9420   78.4030   61.4500 C   0  0  0  0  0  0  0  0  0  0  0  0
   43.9930   77.5960   61.2280 N   0  0  0  0  0  0  0  0  0  0  0  0
   44.9980   77.9380   61.2470 H   0  0  0  0  0  0  0  0  0  0  0  0
   43.6170   76.3280   60.9830 C   0  0  0  0  0  0  0  0  0  0  0  0
   44.2100   75.4560   60.7720 H   0  0  0  0  0  0  0  0  0  0  0  0
   42.2260   76.2830   61.0450 C   0  0  0  0  0  3  0  0  0  0  0  0
   41.8450   77.5750   61.3340 C   0  0  0  0  0  0  0  0  0  0  0  0
   40.5470   78.0690   61.5030 C   0  0  0  0  0  3  0  0  0  0  0  0
   43.6280   86.4050   59.6980 C   0  0  0  0  0  0  0  0  0  0  0  0
   42.9260   86.5730   58.5070 C   0  0  0  0  0  0  0  0  0  0  0  0
   41.7660   85.8450   58.3000 C   0  0  0  0  0  0  0  0  0  0  0  0
   41.3700   84.9900   59.2900 N   0  0  0  0  0  0  0  0  0  0  0  0
   42.0740   84.8550   60.4240 C   0  0  0  0  0  0  0  0  0  0  0  0
   43.1940   85.5470   60.6440 N   0  0  0  0  0  0  0  0  0  0  0  0
   44.7940   87.2120   59.7740 N   0  0  0  0  0  0  0  0  0  0  0  0
   43.1910   87.2250   57.7080 H   0  0  0  0  0  0  0  0  0  0  0  0
   41.1660   85.9180   57.4080 H   0  0  0  0  0  0  0  0  0  0  0  0
   45.5510   86.6360   60.2270 H   0  0  0  0  0  0  0  0  0  0  0  0
   44.8130   88.1940   59.4200 H   0  0  0  0  0  0  0  0  0  0  0  0
  1  2  1  0  0  0  0
  2  7  1  0  0  0  0
  2  3  2  0  0  0  0
  3  8  1  0  0  0  0
  4  3  1  0  0  0  0
  5  4  2  0  0  0  0
  6  1  2  0  0  0  0
  6  5  1  0  0  0  0
  9 10  1  0  0  0  0
 10  5  1  0  0  0  0
 11 12  1  0  0  0  0
 11 10  2  0  0  0  0
 13 11  1  0  0  0  0
 14 15  1  0  0  0  0
 14 13  1  0  0  0  0
 16 18  2  0  0  0  0
 16 14  1  0  0  0  0
 17 16  1  0  0  0  0
 18 19  1  0  0  0  0
 19 13  2  0  0  0  0
 19 20  1  0  0  0  0
 20  9  2  0  0  0  0
 21 27  1  0  0  0  0
 21 26  1  0  0  0  0
 22 21  2  0  0  0  0
 23 22  1  0  0  0  0
 23 24  2  0  0  0  0
 24 25  1  0  0  0  0
 25 26  2  0  0  0  0
 25  1  1  0  0  0  0
 27 30  1  0  0  0  0
 28 22  1  0  0  0  0
 29 23  1  0  0  0  0
 31 27  1  0  0  0  0
M  END
>  <minimizedAffinity>
-5.73010063

>  <minimizedRMSD>
0.56253624

$$$$
