
 OpenBabel03212520173D

 38 41  0  0  0  0  0  0  0  0999 V2000
   43.0690   83.8390   58.6470 Cl  0  0  0  0  0  0  0  0  0  0  0  0
   41.8270   82.6630   58.2880 C   0  0  0  0  0  0  0  0  0  0  0  0
   40.9460   82.1660   59.2390 C   0  0  0  0  0  0  0  0  0  0  0  0
   40.0350   81.2520   58.7820 C   0  0  0  0  0  0  0  0  0  0  0  0
   39.8930   80.7700   57.5020 C   0  0  0  0  0  0  0  0  0  0  0  0
   40.7830   81.2860   56.5930 C   0  0  0  0  0  0  0  0  0  0  0  0
   40.7160   80.7590   54.9140 Cl  0  0  0  0  0  0  0  0  0  0  0  0
   41.7410   82.2260   56.9910 C   0  0  0  0  0  0  0  0  0  0  0  0
   39.3400   80.8620   59.5420 H   0  0  0  0  0  0  0  0  0  0  0  0
   39.1340   80.0450   57.2540 H   0  0  0  0  0  0  0  0  0  0  0  0
   41.9120   82.1340   61.5870 C   0  0  0  0  0  0  0  0  0  0  0  0
   41.0530   82.6330   60.5760 C   0  0  0  0  0  0  0  0  0  0  0  0
   40.2190   83.6950   60.9160 C   0  0  0  0  0  0  0  0  0  0  0  0
   40.3080   84.1570   62.1940 N   0  0  0  0  0  0  0  0  0  0  0  0
   41.1200   83.6730   63.1260 C   0  0  0  0  0  0  0  0  0  0  0  0
   41.9420   82.6390   62.8190 N   0  0  0  0  0  0  0  0  0  0  0  0
   42.5380   81.3090   61.2680 H   0  0  0  0  0  0  0  0  0  0  0  0
   39.5280   84.1480   60.2180 H   0  0  0  0  0  0  0  0  0  0  0  0
   41.0500   84.3300   64.4510 C   0  0  0  0  0  0  0  0  0  0  0  0
   40.7260   85.6540   64.3610 F   0  0  0  0  0  0  0  0  0  0  0  0
   40.1020   83.6810   65.2450 F   0  0  0  0  0  0  0  0  0  0  0  0
   42.3020   84.2900   65.0970 F   0  0  0  0  0  0  0  0  0  0  0  0
   42.6010   82.6950   56.0060 O   0  0  0  0  0  0  0  0  0  0  0  0
   42.4510   83.9180   55.3410 C   0  0  0  0  0  0  0  0  0  0  0  0
   42.9730   84.6950   55.9690 H   0  0  0  0  0  0  0  0  0  0  0  0
   41.3790   84.2290   55.3400 H   0  0  0  0  0  0  0  0  0  0  0  0
   44.0920   84.5750   53.6370 C   0  0  0  0  0  0  0  0  0  0  0  0
   42.9290   83.9150   53.9620 C   0  0  0  0  0  0  0  0  0  0  0  0
   42.2520   83.2620   52.9320 C   0  0  0  0  0  0  0  0  0  0  0  0
   41.3320   82.7420   53.2010 H   0  0  0  0  0  0  0  0  0  0  0  0
   42.7270   83.2760   51.6450 C   0  0  0  0  0  0  0  0  0  0  0  0
   42.2310   82.7180   50.5260 N   0  0  0  0  0  0  0  0  0  0  0  0
   41.3710   82.1420   50.3680 H   0  0  0  0  0  0  0  0  0  0  0  0
   43.0400   83.0030   49.5130 C   0  0  0  0  0  0  0  0  0  0  0  0
   42.9790   82.7310   48.4540 H   0  0  0  0  0  0  0  0  0  0  0  0
   44.1160   83.7750   49.9380 C   0  0  0  0  0  0  0  0  0  0  0  0
   43.8910   83.9330   51.3020 C   0  0  0  0  0  0  0  0  0  0  0  0
   44.5630   84.5810   52.3190 C   0  0  0  0  0  0  0  0  0  0  0  0
  2  1  1  0  0  0  0
  2  3  1  0  0  0  0
  3 12  1  0  0  0  0
  4  3  2  0  0  0  0
  4  9  1  0  0  0  0
  5  4  1  0  0  0  0
  6  8  1  0  0  0  0
  6  5  2  0  0  0  0
  7  6  1  0  0  0  0
  8  2  2  0  0  0  0
 10  5  1  0  0  0  0
 11 16  1  0  0  0  0
 12 13  1  0  0  0  0
 12 11  2  0  0  0  0
 13 14  2  0  0  0  0
 14 15  1  0  0  0  0
 15 19  1  0  0  0  0
 16 15  2  0  0  0  0
 17 11  1  0  0  0  0
 18 13  1  0  0  0  0
 19 22  1  0  0  0  0
 19 21  1  0  0  0  0
 20 19  1  0  0  0  0
 23  8  1  0  0  0  0
 24 25  1  0  0  0  0
 24 23  1  0  0  0  0
 26 24  1  0  0  0  0
 27 28  1  0  0  0  0
 28 24  1  0  0  0  0
 29 30  1  0  0  0  0
 29 28  2  0  0  0  0
 31 29  1  0  0  0  0
 32 31  1  0  0  0  0
 33 32  1  0  0  0  0
 34 36  2  0  0  0  0
 34 32  1  0  0  0  0
 35 34  1  0  0  0  0
 36 37  1  0  0  0  0
 37 31  2  0  0  0  0
 37 38  1  0  0  0  0
 38 27  2  0  0  0  0
M  END
>  <minimizedAffinity>
-5.13861847

>  <minimizedRMSD>
1.51244867

$$$$
