
 OpenBabel03212520473D

 31 34  0  0  0  0  0  0  0  0999 V2000
   41.6100   83.9570   61.4590 C   0  0  0  0  0  0  0  0  0  0  0  0
   41.3790   84.3510   62.7500 C   0  0  0  0  0  0  0  0  0  0  0  0
   40.9100   83.4480   63.7150 C   0  0  0  0  0  0  0  0  0  0  0  0
   40.6800   82.1630   63.3680 N   0  0  0  0  0  0  0  0  0  0  0  0
   40.9110   81.7970   62.1030 C   0  0  0  0  0  0  0  0  0  0  0  0
   41.3660   82.6710   61.1660 N   0  0  0  0  0  0  0  0  0  0  0  0
   41.5730   85.3860   62.9970 H   0  0  0  0  0  0  0  0  0  0  0  0
   40.7540   83.8410   64.7100 H   0  0  0  0  0  0  0  0  0  0  0  0
   40.8310   79.3520   62.4940 C   0  0  0  0  0  3  0  0  0  0  0  0
   40.6890   80.4290   61.6430 C   0  0  0  0  0  0  0  0  0  0  0  0
   40.3290   80.1030   60.3520 C   0  0  0  0  0  0  0  0  0  0  0  0
   40.1990   80.9150   59.6200 H   0  0  0  0  0  0  0  0  0  0  0  0
   40.1270   78.7980   59.9510 C   0  0  0  0  0  0  0  0  0  0  0  0
   39.7830   78.1860   58.8050 N   0  0  0  0  0  0  0  0  0  0  0  0
   39.5880   78.7140   57.9050 H   0  0  0  0  0  0  0  0  0  0  0  0
   39.7200   76.8490   58.9440 C   0  0  0  0  0  0  0  0  0  0  0  0
   39.4760   76.0880   58.2240 H   0  0  0  0  0  0  0  0  0  0  0  0
   40.0410   76.5480   60.2640 C   0  0  0  0  0  3  0  0  0  0  0  0
   40.2860   77.7690   60.8550 C   0  0  0  0  0  0  0  0  0  0  0  0
   40.6510   78.0230   62.1800 C   0  0  0  0  0  3  0  0  0  0  0  0
   43.6490   86.4390   59.7080 C   0  0  0  0  0  0  0  0  0  0  0  0
   42.9670   86.5810   58.5020 C   0  0  0  0  0  0  0  0  0  0  0  0
   41.8190   85.8370   58.2860 C   0  0  0  0  0  0  0  0  0  0  0  0
   41.4160   84.9920   59.2830 N   0  0  0  0  0  0  0  0  0  0  0  0
   42.1010   84.8830   60.4310 C   0  0  0  0  0  0  0  0  0  0  0  0
   43.2090   85.5920   60.6600 N   0  0  0  0  0  0  0  0  0  0  0  0
   44.8050   87.2610   59.7910 N   0  0  0  0  0  0  0  0  0  0  0  0
   43.2380   87.2230   57.6970 H   0  0  0  0  0  0  0  0  0  0  0  0
   41.2340   85.8890   57.3830 H   0  0  0  0  0  0  0  0  0  0  0  0
   45.5600   86.7010   60.2660 H   0  0  0  0  0  0  0  0  0  0  0  0
   44.8190   88.2370   59.4220 H   0  0  0  0  0  0  0  0  0  0  0  0
  1  2  1  0  0  0  0
  2  7  1  0  0  0  0
  2  3  2  0  0  0  0
  3  8  1  0  0  0  0
  4  3  1  0  0  0  0
  5  4  2  0  0  0  0
  6  1  2  0  0  0  0
  6  5  1  0  0  0  0
 10  5  1  0  0  0  0
 10  9  2  0  0  0  0
 11 10  1  0  0  0  0
 12 11  1  0  0  0  0
 13 11  2  0  0  0  0
 13 19  1  0  0  0  0
 14 16  1  0  0  0  0
 14 13  1  0  0  0  0
 15 14  1  0  0  0  0
 16 18  2  0  0  0  0
 17 16  1  0  0  0  0
 18 19  1  0  0  0  0
 19 20  2  0  0  0  0
 20  9  1  0  0  0  0
 21 27  1  0  0  0  0
 21 26  1  0  0  0  0
 22 21  2  0  0  0  0
 23 22  1  0  0  0  0
 23 24  2  0  0  0  0
 24 25  1  0  0  0  0
 25 26  2  0  0  0  0
 25  1  1  0  0  0  0
 27 30  1  0  0  0  0
 28 22  1  0  0  0  0
 29 23  1  0  0  0  0
 31 27  1  0  0  0  0
M  END
>  <minimizedAffinity>
-6.07663345

>  <minimizedRMSD>
1.06590223

$$$$
