
 OpenBabel03212520193D

 38 41  0  0  0  0  0  0  0  0999 V2000
   42.9940   73.0950   60.8560 Cl  0  0  0  0  0  0  0  0  0  0  0  0
   41.7140   72.5050   59.8220 C   0  0  0  0  0  0  0  0  0  0  0  0
   40.6240   73.2740   59.4390 C   0  0  0  0  0  0  0  0  0  0  0  0
   39.7160   72.6510   58.6250 C   0  0  0  0  0  0  0  0  0  0  0  0
   39.7560   71.3630   58.1470 C   0  0  0  0  0  0  0  0  0  0  0  0
   40.8500   70.6370   58.5490 C   0  0  0  0  0  0  0  0  0  0  0  0
   41.0330   68.9690   58.0110 Cl  0  0  0  0  0  0  0  0  0  0  0  0
   41.8170   71.2100   59.3820 C   0  0  0  0  0  0  0  0  0  0  0  0
   38.8540   73.2680   58.3260 H   0  0  0  0  0  0  0  0  0  0  0  0
   38.9800   70.9750   57.5070 H   0  0  0  0  0  0  0  0  0  0  0  0
   39.6870   75.1040   60.9310 C   0  0  0  0  0  0  0  0  0  0  0  0
   40.5360   74.6120   59.9080 C   0  0  0  0  0  0  0  0  0  0  0  0
   41.3810   75.5280   59.2870 C   0  0  0  0  0  0  0  0  0  0  0  0
   41.3130   76.8170   59.7230 N   0  0  0  0  0  0  0  0  0  0  0  0
   40.5080   77.2550   60.6830 C   0  0  0  0  0  0  0  0  0  0  0  0
   39.6760   76.3820   61.3030 N   0  0  0  0  0  0  0  0  0  0  0  0
   39.0530   74.3490   61.3790 H   0  0  0  0  0  0  0  0  0  0  0  0
   42.0670   75.2550   58.4950 H   0  0  0  0  0  0  0  0  0  0  0  0
   40.6000   78.7000   60.9960 C   0  0  0  0  0  0  0  0  0  0  0  0
   39.9870   79.4780   60.0540 F   0  0  0  0  0  0  0  0  0  0  0  0
   40.0180   78.9460   62.2410 F   0  0  0  0  0  0  0  0  0  0  0  0
   41.9440   79.1230   61.0210 F   0  0  0  0  0  0  0  0  0  0  0  0
   42.8900   70.4040   59.7390 O   0  0  0  0  0  0  0  0  0  0  0  0
   43.2260   70.0690   61.0560 C   0  0  0  0  0  0  0  0  0  0  0  0
   43.2480   71.0330   61.6400 H   0  0  0  0  0  0  0  0  0  0  0  0
   44.2720   69.6860   61.1030 H   0  0  0  0  0  0  0  0  0  0  0  0
   42.1250   67.8740   61.0360 C   0  0  0  0  0  3  0  0  0  0  0  0
   42.3460   69.0770   61.6670 C   0  0  0  0  0  0  0  0  0  0  0  0
   41.7030   69.2900   62.8860 C   0  0  0  0  0  0  0  0  0  0  0  0
   41.8860   70.2470   63.3770 H   0  0  0  0  0  0  0  0  0  0  0  0
   40.8820   68.3380   63.4360 C   0  0  0  0  0  0  0  0  0  0  0  0
   40.1800   68.3490   64.5830 N   0  0  0  0  0  0  0  0  0  0  0  0
   40.0910   69.0800   65.3280 H   0  0  0  0  0  0  0  0  0  0  0  0
   39.5280   67.1990   64.6940 C   0  0  0  0  0  0  0  0  0  0  0  0
   38.8590   66.8320   65.4800 H   0  0  0  0  0  0  0  0  0  0  0  0
   39.7820   66.3750   63.6030 C   0  0  0  0  0  3  0  0  0  0  0  0
   40.6490   67.1270   62.8170 C   0  0  0  0  0  0  0  0  0  0  0  0
   41.2850   66.9140   61.6100 C   0  0  0  0  0  3  0  0  0  0  0  0
  2  1  1  0  0  0  0
  3  2  1  0  0  0  0
  3 12  1  0  0  0  0
  4  3  2  0  0  0  0
  5  6  2  0  0  0  0
  5  4  1  0  0  0  0
  6  8  1  0  0  0  0
  7  6  1  0  0  0  0
  8 23  1  0  0  0  0
  8  2  2  0  0  0  0
  9  4  1  0  0  0  0
 10  5  1  0  0  0  0
 11 16  1  0  0  0  0
 11 17  1  0  0  0  0
 12 11  2  0  0  0  0
 13 14  2  0  0  0  0
 13 12  1  0  0  0  0
 14 15  1  0  0  0  0
 15 19  1  0  0  0  0
 15 16  2  0  0  0  0
 18 13  1  0  0  0  0
 19 22  1  0  0  0  0
 19 21  1  0  0  0  0
 20 19  1  0  0  0  0
 23 24  1  0  0  0  0
 24 26  1  0  0  0  0
 24 25  1  0  0  0  0
 24 28  1  0  0  0  0
 27 38  2  0  0  0  0
 27 28  1  0  0  0  0
 28 29  2  0  0  0  0
 29 30  1  0  0  0  0
 29 31  1  0  0  0  0
 31 32  1  0  0  0  0
 32 34  1  0  0  0  0
 32 33  1  0  0  0  0
 34 35  1  0  0  0  0
 36 34  2  0  0  0  0
 37 31  2  0  0  0  0
 37 36  1  0  0  0  0
 38 37  1  0  0  0  0
M  END
>  <minimizedAffinity>
-7.61979389

$$$$

 OpenBabel03212520193D

 38 41  0  0  0  0  0  0  0  0999 V2000
   39.6120   72.9840   61.4900 Cl  0  0  0  0  0  0  0  0  0  0  0  0
   41.1800   73.3370   60.8040 C   0  0  0  0  0  0  0  0  0  0  0  0
   42.2730   72.4890   60.9160 C   0  0  0  0  0  0  0  0  0  0  0  0
   43.4250   72.9240   60.3170 C   0  0  0  0  0  0  0  0  0  0  0  0
   43.6250   74.0930   59.6230 C   0  0  0  0  0  0  0  0  0  0  0  0
   42.5190   74.9030   59.5340 C   0  0  0  0  0  0  0  0  0  0  0  0
   42.6290   76.4350   58.6710 Cl  0  0  0  0  0  0  0  0  0  0  0  0
   41.3090   74.5210   60.1240 C   0  0  0  0  0  0  0  0  0  0  0  0
   44.2870   72.2460   60.4110 H   0  0  0  0  0  0  0  0  0  0  0  0
   44.5820   74.3350   59.1890 H   0  0  0  0  0  0  0  0  0  0  0  0
   41.9630   71.1090   63.0250 C   0  0  0  0  0  0  0  0  0  0  0  0
   42.1180   71.2680   61.6260 C   0  0  0  0  0  0  0  0  0  0  0  0
   42.1180   70.1130   60.8490 C   0  0  0  0  0  0  0  0  0  0  0  0
   41.9690   68.9310   61.5110 N   0  0  0  0  0  0  0  0  0  0  0  0
   41.8270   68.8050   62.8240 C   0  0  0  0  0  0  0  0  0  0  0  0
   41.8230   69.9160   63.6020 N   0  0  0  0  0  0  0  0  0  0  0  0
   41.9700   72.0390   63.5800 H   0  0  0  0  0  0  0  0  0  0  0  0
   42.2290   70.1250   59.7730 H   0  0  0  0  0  0  0  0  0  0  0  0
   41.6800   67.4210   63.3310 C   0  0  0  0  0  0  0  0  0  0  0  0
   40.3710   67.0410   63.4370 F   0  0  0  0  0  0  0  0  0  0  0  0
   42.3440   66.5380   62.4770 F   0  0  0  0  0  0  0  0  0  0  0  0
   42.2160   67.3030   64.6280 F   0  0  0  0  0  0  0  0  0  0  0  0
   40.2430   75.4010   59.9850 O   0  0  0  0  0  0  0  0  0  0  0  0
   39.0540   75.1030   59.3070 C   0  0  0  0  0  0  0  0  0  0  0  0
   38.2520   74.9910   60.0910 H   0  0  0  0  0  0  0  0  0  0  0  0
   39.1230   74.0990   58.8280 H   0  0  0  0  0  0  0  0  0  0  0  0
   39.2160   77.3460   58.3210 C   0  0  0  0  0  3  0  0  0  0  0  0
   38.6870   76.0760   58.2820 C   0  0  0  0  0  0  0  0  0  0  0  0
   37.8080   75.7780   57.2420 C   0  0  0  0  0  0  0  0  0  0  0  0
   37.3950   74.7690   57.2220 H   0  0  0  0  0  0  0  0  0  0  0  0
   37.4820   76.7140   56.2920 C   0  0  0  0  0  0  0  0  0  0  0  0
   36.6670   76.6280   55.2270 N   0  0  0  0  0  0  0  0  0  0  0  0
   36.0890   75.8330   54.8650 H   0  0  0  0  0  0  0  0  0  0  0  0
   36.6650   77.7950   54.5960 C   0  0  0  0  0  0  0  0  0  0  0  0
   36.1330   78.1180   53.6950 H   0  0  0  0  0  0  0  0  0  0  0  0
   37.4950   78.7090   55.2380 C   0  0  0  0  0  3  0  0  0  0  0  0
   38.0030   77.9920   56.3160 C   0  0  0  0  0  0  0  0  0  0  0  0
   38.8740   78.2890   57.3450 C   0  0  0  0  0  3  0  0  0  0  0  0
  2  3  1  0  0  0  0
  2  1  1  0  0  0  0
  3 12  1  0  0  0  0
  4  9  1  0  0  0  0
  4  3  2  0  0  0  0
  5  4  1  0  0  0  0
  6  5  2  0  0  0  0
  6  8  1  0  0  0  0
  7  6  1  0  0  0  0
  8  2  2  0  0  0  0
 10  5  1  0  0  0  0
 11 17  1  0  0  0  0
 11 16  1  0  0  0  0
 12 11  2  0  0  0  0
 13 14  2  0  0  0  0
 13 12  1  0  0  0  0
 14 15  1  0  0  0  0
 15 19  1  0  0  0  0
 15 16  2  0  0  0  0
 18 13  1  0  0  0  0
 19 20  1  0  0  0  0
 19 22  1  0  0  0  0
 21 19  1  0  0  0  0
 23  8  1  0  0  0  0
 24 23  1  0  0  0  0
 24 25  1  0  0  0  0
 26 24  1  0  0  0  0
 28 27  1  0  0  0  0
 28 24  1  0  0  0  0
 29 28  2  0  0  0  0
 30 29  1  0  0  0  0
 31 37  2  0  0  0  0
 31 29  1  0  0  0  0
 32 31  1  0  0  0  0
 33 32  1  0  0  0  0
 34 32  1  0  0  0  0
 34 36  2  0  0  0  0
 35 34  1  0  0  0  0
 36 37  1  0  0  0  0
 37 38  1  0  0  0  0
 38 27  2  0  0  0  0
M  END
>  <minimizedAffinity>
-7.29345512

$$$$

 OpenBabel03212520193D

 38 41  0  0  0  0  0  0  0  0999 V2000
   40.8640   74.0460   57.1930 Cl  0  0  0  0  0  0  0  0  0  0  0  0
   40.0650   74.0400   58.7480 C   0  0  0  0  0  0  0  0  0  0  0  0
   38.9550   74.8210   59.0390 C   0  0  0  0  0  0  0  0  0  0  0  0
   38.4550   74.6900   60.3070 C   0  0  0  0  0  0  0  0  0  0  0  0
   38.9210   73.8840   61.3190 C   0  0  0  0  0  0  0  0  0  0  0  0
   40.0200   73.1290   60.9890 C   0  0  0  0  0  0  0  0  0  0  0  0
   40.7250   72.0480   62.1880 Cl  0  0  0  0  0  0  0  0  0  0  0  0
   40.5830   73.2130   59.7100 C   0  0  0  0  0  0  0  0  0  0  0  0
   37.5750   75.3130   60.5310 H   0  0  0  0  0  0  0  0  0  0  0  0
   38.4460   73.8620   62.2860 H   0  0  0  0  0  0  0  0  0  0  0  0
   38.8940   76.9690   57.6860 C   0  0  0  0  0  0  0  0  0  0  0  0
   38.4350   75.6720   58.0270 C   0  0  0  0  0  0  0  0  0  0  0  0
   37.3620   75.1640   57.3010 C   0  0  0  0  0  0  0  0  0  0  0  0
   36.8500   75.9650   56.3250 N   0  0  0  0  0  0  0  0  0  0  0  0
   37.2950   77.1780   56.0230 C   0  0  0  0  0  0  0  0  0  0  0  0
   38.3400   77.6950   56.7160 N   0  0  0  0  0  0  0  0  0  0  0  0
   39.7300   77.3140   58.2810 H   0  0  0  0  0  0  0  0  0  0  0  0
   36.9370   74.1860   57.4830 H   0  0  0  0  0  0  0  0  0  0  0  0
   36.5870   77.8720   54.9230 C   0  0  0  0  0  0  0  0  0  0  0  0
   35.4420   78.4860   55.3450 F   0  0  0  0  0  0  0  0  0  0  0  0
   37.4330   78.8260   54.3510 F   0  0  0  0  0  0  0  0  0  0  0  0
   36.1830   76.9570   53.9300 F   0  0  0  0  0  0  0  0  0  0  0  0
   41.6910   72.4130   59.4630 O   0  0  0  0  0  0  0  0  0  0  0  0
   41.7880   71.4980   58.4080 C   0  0  0  0  0  0  0  0  0  0  0  0
   42.7580   71.7150   57.8770 H   0  0  0  0  0  0  0  0  0  0  0  0
   40.9980   71.6990   57.6480 H   0  0  0  0  0  0  0  0  0  0  0  0
   41.2200   69.1570   57.9270 C   0  0  0  0  0  3  0  0  0  0  0  0
   41.6880   70.0990   58.8150 C   0  0  0  0  0  0  0  0  0  0  0  0
   42.0500   69.6570   60.0870 C   0  0  0  0  0  0  0  0  0  0  0  0
   42.4190   70.4120   60.7830 H   0  0  0  0  0  0  0  0  0  0  0  0
   41.9450   68.3350   60.4410 C   0  0  0  0  0  0  0  0  0  0  0  0
   42.2370   67.7160   61.5980 N   0  0  0  0  0  0  0  0  0  0  0  0
   42.6120   68.0890   62.5020 H   0  0  0  0  0  0  0  0  0  0  0  0
   41.9700   66.4230   61.4690 C   0  0  0  0  0  0  0  0  0  0  0  0
   42.0740   65.5990   62.1820 H   0  0  0  0  0  0  0  0  0  0  0  0
   41.4830   66.1400   60.1970 C   0  0  0  0  0  3  0  0  0  0  0  0
   41.4780   67.3790   59.5630 C   0  0  0  0  0  0  0  0  0  0  0  0
   41.1190   67.8130   58.3030 C   0  0  0  0  0  3  0  0  0  0  0  0
  1  2  1  0  0  0  0
  2  3  2  0  0  0  0
  2  8  1  0  0  0  0
  3  4  1  0  0  0  0
  4  9  1  0  0  0  0
  4  5  2  0  0  0  0
  5 10  1  0  0  0  0
  6  5  1  0  0  0  0
  6  7  1  0  0  0  0
  8  6  2  0  0  0  0
 11 12  1  0  0  0  0
 11 17  1  0  0  0  0
 12  3  1  0  0  0  0
 13 18  1  0  0  0  0
 13 12  2  0  0  0  0
 14 13  1  0  0  0  0
 15 14  2  0  0  0  0
 15 16  1  0  0  0  0
 16 11  2  0  0  0  0
 19 20  1  0  0  0  0
 19 15  1  0  0  0  0
 21 19  1  0  0  0  0
 22 19  1  0  0  0  0
 23  8  1  0  0  0  0
 24 28  1  0  0  0  0
 24 23  1  0  0  0  0
 25 24  1  0  0  0  0
 26 24  1  0  0  0  0
 27 38  2  0  0  0  0
 27 28  1  0  0  0  0
 28 29  2  0  0  0  0
 29 31  1  0  0  0  0
 29 30  1  0  0  0  0
 31 32  1  0  0  0  0
 32 33  1  0  0  0  0
 34 32  1  0  0  0  0
 34 35  1  0  0  0  0
 36 34  2  0  0  0  0
 37 36  1  0  0  0  0
 37 31  2  0  0  0  0
 38 37  1  0  0  0  0
M  END
>  <minimizedAffinity>
-7.21747255

$$$$

 OpenBabel03212520193D

 38 41  0  0  0  0  0  0  0  0999 V2000
   38.1640   73.8850   58.5430 Cl  0  0  0  0  0  0  0  0  0  0  0  0
   39.0990   75.3490   58.7410 C   0  0  0  0  0  0  0  0  0  0  0  0
   40.2450   75.4240   59.5210 C   0  0  0  0  0  0  0  0  0  0  0  0
   40.8540   76.6500   59.5640 C   0  0  0  0  0  0  0  0  0  0  0  0
   40.4650   77.8060   58.9310 C   0  0  0  0  0  0  0  0  0  0  0  0
   39.3280   77.6890   58.1700 C   0  0  0  0  0  0  0  0  0  0  0  0
   38.7130   79.0930   57.3010 Cl  0  0  0  0  0  0  0  0  0  0  0  0
   38.6540   76.4650   58.0820 C   0  0  0  0  0  0  0  0  0  0  0  0
   41.7620   76.7010   60.1850 H   0  0  0  0  0  0  0  0  0  0  0  0
   41.0250   78.7220   59.0360 H   0  0  0  0  0  0  0  0  0  0  0  0
   40.1060   73.6630   61.3450 C   0  0  0  0  0  0  0  0  0  0  0  0
   40.6870   74.2540   60.1970 C   0  0  0  0  0  0  0  0  0  0  0  0
   41.8130   73.6350   59.6600 C   0  0  0  0  0  0  0  0  0  0  0  0
   42.2520   72.5110   60.2930 N   0  0  0  0  0  0  0  0  0  0  0  0
   41.6920   71.9740   61.3700 C   0  0  0  0  0  0  0  0  0  0  0  0
   40.5950   72.5600   61.9110 N   0  0  0  0  0  0  0  0  0  0  0  0
   39.2340   74.1850   61.7190 H   0  0  0  0  0  0  0  0  0  0  0  0
   42.3300   74.0060   58.7860 H   0  0  0  0  0  0  0  0  0  0  0  0
   42.3380   70.7490   61.8940 C   0  0  0  0  0  0  0  0  0  0  0  0
   43.5860   70.5540   61.3740 F   0  0  0  0  0  0  0  0  0  0  0  0
   42.4290   70.8270   63.2850 F   0  0  0  0  0  0  0  0  0  0  0  0
   41.5970   69.6030   61.5420 F   0  0  0  0  0  0  0  0  0  0  0  0
   37.5140   76.4370   57.2900 O   0  0  0  0  0  0  0  0  0  0  0  0
   37.4250   75.7920   56.0500 C   0  0  0  0  0  0  0  0  0  0  0  0
   36.6700   74.9650   56.1680 H   0  0  0  0  0  0  0  0  0  0  0  0
   38.3830   75.2700   55.8170 H   0  0  0  0  0  0  0  0  0  0  0  0
   36.3050   77.7800   55.1420 C   0  0  0  0  0  3  0  0  0  0  0  0
   37.1020   76.6760   54.9350 C   0  0  0  0  0  0  0  0  0  0  0  0
   37.5680   76.4560   53.6390 C   0  0  0  0  0  0  0  0  0  0  0  0
   38.1970   75.5790   53.4870 H   0  0  0  0  0  0  0  0  0  0  0  0
   37.2470   77.3060   52.6100 C   0  0  0  0  0  0  0  0  0  0  0  0
   37.5890   77.2690   51.3110 N   0  0  0  0  0  0  0  0  0  0  0  0
   38.1790   76.5910   50.7730 H   0  0  0  0  0  0  0  0  0  0  0  0
   37.0380   78.3080   50.6960 C   0  0  0  0  0  0  0  0  0  0  0  0
   37.0830   78.6220   49.6480 H   0  0  0  0  0  0  0  0  0  0  0  0
   36.2980   79.0790   51.5870 C   0  0  0  0  0  3  0  0  0  0  0  0
   36.4500   78.4160   52.8010 C   0  0  0  0  0  0  0  0  0  0  0  0
   35.9870   78.6370   54.0820 C   0  0  0  0  0  3  0  0  0  0  0  0
  1  2  1  0  0  0  0
  2  3  1  0  0  0  0
  3  4  2  0  0  0  0
  3 12  1  0  0  0  0
  4  9  1  0  0  0  0
  5 10  1  0  0  0  0
  5  4  1  0  0  0  0
  6  5  2  0  0  0  0
  7  6  1  0  0  0  0
  8  6  1  0  0  0  0
  8  2  2  0  0  0  0
 11 17  1  0  0  0  0
 11 16  1  0  0  0  0
 12 11  2  0  0  0  0
 13 12  1  0  0  0  0
 13 14  2  0  0  0  0
 14 15  1  0  0  0  0
 15 19  1  0  0  0  0
 15 16  2  0  0  0  0
 18 13  1  0  0  0  0
 19 21  1  0  0  0  0
 20 19  1  0  0  0  0
 22 19  1  0  0  0  0
 23  8  1  0  0  0  0
 24 25  1  0  0  0  0
 24 23  1  0  0  0  0
 26 24  1  0  0  0  0
 28 27  1  0  0  0  0
 28 24  1  0  0  0  0
 29 28  2  0  0  0  0
 30 29  1  0  0  0  0
 31 37  2  0  0  0  0
 31 29  1  0  0  0  0
 32 31  1  0  0  0  0
 33 32  1  0  0  0  0
 34 32  1  0  0  0  0
 34 36  2  0  0  0  0
 35 34  1  0  0  0  0
 36 37  1  0  0  0  0
 37 38  1  0  0  0  0
 38 27  2  0  0  0  0
M  END
>  <minimizedAffinity>
-7.16073561

$$$$

 OpenBabel03212520193D

 38 41  0  0  0  0  0  0  0  0999 V2000
   39.2190   73.4240   58.3050 Cl  0  0  0  0  0  0  0  0  0  0  0  0
   40.6670   74.4000   58.3890 C   0  0  0  0  0  0  0  0  0  0  0  0
   40.8020   75.6250   57.7510 C   0  0  0  0  0  0  0  0  0  0  0  0
   42.0050   76.2550   57.9250 C   0  0  0  0  0  0  0  0  0  0  0  0
   43.0870   75.8200   58.6520 C   0  0  0  0  0  0  0  0  0  0  0  0
   42.9130   74.6040   59.2680 C   0  0  0  0  0  0  0  0  0  0  0  0
   44.2180   73.9230   60.2350 Cl  0  0  0  0  0  0  0  0  0  0  0  0
   41.7080   73.9050   59.1320 C   0  0  0  0  0  0  0  0  0  0  0  0
   42.1040   77.2260   57.4150 H   0  0  0  0  0  0  0  0  0  0  0  0
   43.9910   76.4030   58.7210 H   0  0  0  0  0  0  0  0  0  0  0  0
   38.5530   76.7720   57.4760 C   0  0  0  0  0  0  0  0  0  0  0  0
   39.7110   76.1180   56.9860 C   0  0  0  0  0  0  0  0  0  0  0  0
   39.8030   75.9310   55.6090 C   0  0  0  0  0  0  0  0  0  0  0  0
   38.7660   76.3980   54.8580 N   0  0  0  0  0  0  0  0  0  0  0  0
   37.6900   77.0070   55.3390 C   0  0  0  0  0  0  0  0  0  0  0  0
   37.5780   77.2010   56.6770 N   0  0  0  0  0  0  0  0  0  0  0  0
   38.5340   76.8910   58.5520 H   0  0  0  0  0  0  0  0  0  0  0  0
   40.6440   75.4440   55.1350 H   0  0  0  0  0  0  0  0  0  0  0  0
   36.6850   77.4330   54.3380 C   0  0  0  0  0  0  0  0  0  0  0  0
   37.2160   78.2480   53.3790 F   0  0  0  0  0  0  0  0  0  0  0  0
   36.1300   76.3070   53.7260 F   0  0  0  0  0  0  0  0  0  0  0  0
   35.6580   78.1820   54.9470 F   0  0  0  0  0  0  0  0  0  0  0  0
   41.6180   72.6850   59.7890 O   0  0  0  0  0  0  0  0  0  0  0  0
   41.1560   72.5240   61.1010 C   0  0  0  0  0  0  0  0  0  0  0  0
   40.0330   72.4530   61.0440 H   0  0  0  0  0  0  0  0  0  0  0  0
   41.3520   73.4460   61.6960 H   0  0  0  0  0  0  0  0  0  0  0  0
   42.8040   70.7090   61.2580 C   0  0  0  0  0  3  0  0  0  0  0  0
   41.7410   71.3890   61.8090 C   0  0  0  0  0  0  0  0  0  0  0  0
   41.2690   70.9480   63.0440 C   0  0  0  0  0  0  0  0  0  0  0  0
   40.4270   71.4930   63.4710 H   0  0  0  0  0  0  0  0  0  0  0  0
   41.8410   69.8770   63.6860 C   0  0  0  0  0  0  0  0  0  0  0  0
   41.5370   69.3040   64.8640 N   0  0  0  0  0  0  0  0  0  0  0  0
   40.7990   69.5320   65.5710 H   0  0  0  0  0  0  0  0  0  0  0  0
   42.3690   68.2910   65.0710 C   0  0  0  0  0  0  0  0  0  0  0  0
   42.4420   67.5880   65.9080 H   0  0  0  0  0  0  0  0  0  0  0  0
   43.2660   68.1600   64.0160 C   0  0  0  0  0  3  0  0  0  0  0  0
   42.9060   69.1850   63.1480 C   0  0  0  0  0  0  0  0  0  0  0  0
   43.3750   69.6200   61.9250 C   0  0  0  0  0  3  0  0  0  0  0  0
  1  2  1  0  0  0  0
  2  8  1  0  0  0  0
  3  4  1  0  0  0  0
  3  2  2  0  0  0  0
  4  5  2  0  0  0  0
  5 10  1  0  0  0  0
  5  6  1  0  0  0  0
  6  7  1  0  0  0  0
  8  6  2  0  0  0  0
  8 23  1  0  0  0  0
  9  4  1  0  0  0  0
 11 17  1  0  0  0  0
 12 11  1  0  0  0  0
 12  3  1  0  0  0  0
 13 12  2  0  0  0  0
 14 15  2  0  0  0  0
 14 13  1  0  0  0  0
 15 16  1  0  0  0  0
 16 11  2  0  0  0  0
 18 13  1  0  0  0  0
 19 22  1  0  0  0  0
 19 15  1  0  0  0  0
 20 19  1  0  0  0  0
 21 19  1  0  0  0  0
 23 24  1  0  0  0  0
 24 26  1  0  0  0  0
 24 28  1  0  0  0  0
 25 24  1  0  0  0  0
 27 28  2  0  0  0  0
 27 38  1  0  0  0  0
 28 29  1  0  0  0  0
 29 30  1  0  0  0  0
 29 31  2  0  0  0  0
 31 32  1  0  0  0  0
 32 34  1  0  0  0  0
 32 33  1  0  0  0  0
 34 35  1  0  0  0  0
 36 34  2  0  0  0  0
 37 31  1  0  0  0  0
 37 36  1  0  0  0  0
 38 37  2  0  0  0  0
M  END
>  <minimizedAffinity>
-7.12144423

$$$$

 OpenBabel03212520193D

 38 41  0  0  0  0  0  0  0  0999 V2000
   40.8470   75.4900   55.9030 Cl  0  0  0  0  0  0  0  0  0  0  0  0
   39.8620   74.1590   56.4650 C   0  0  0  0  0  0  0  0  0  0  0  0
   38.4950   74.0720   56.2410 C   0  0  0  0  0  0  0  0  0  0  0  0
   37.8810   72.9600   56.7510 C   0  0  0  0  0  0  0  0  0  0  0  0
   38.4540   71.9280   57.4550 C   0  0  0  0  0  0  0  0  0  0  0  0
   39.8070   72.0530   57.6550 C   0  0  0  0  0  0  0  0  0  0  0  0
   40.6750   70.8020   58.5410 Cl  0  0  0  0  0  0  0  0  0  0  0  0
   40.4990   73.1640   57.1600 C   0  0  0  0  0  0  0  0  0  0  0  0
   36.7960   72.8980   56.5700 H   0  0  0  0  0  0  0  0  0  0  0  0
   37.8690   71.0950   57.8120 H   0  0  0  0  0  0  0  0  0  0  0  0
   37.7330   75.2260   54.1110 C   0  0  0  0  0  0  0  0  0  0  0  0
   37.8550   75.1150   55.5180 C   0  0  0  0  0  0  0  0  0  0  0  0
   37.2930   76.1290   56.2890 C   0  0  0  0  0  0  0  0  0  0  0  0
   36.6740   77.1370   55.6140 N   0  0  0  0  0  0  0  0  0  0  0  0
   36.5720   77.2220   54.2940 C   0  0  0  0  0  0  0  0  0  0  0  0
   37.1120   76.2460   53.5220 N   0  0  0  0  0  0  0  0  0  0  0  0
   38.1870   74.4110   53.5610 H   0  0  0  0  0  0  0  0  0  0  0  0
   37.3310   76.1380   57.3700 H   0  0  0  0  0  0  0  0  0  0  0  0
   35.8550   78.4090   53.7740 C   0  0  0  0  0  0  0  0  0  0  0  0
   34.9680   78.0900   52.7850 F   0  0  0  0  0  0  0  0  0  0  0  0
   35.1700   79.0360   54.8170 F   0  0  0  0  0  0  0  0  0  0  0  0
   36.7560   79.3240   53.1950 F   0  0  0  0  0  0  0  0  0  0  0  0
   41.8650   73.2080   57.4070 O   0  0  0  0  0  0  0  0  0  0  0  0
   42.4370   73.5630   58.6350 C   0  0  0  0  0  0  0  0  0  0  0  0
   43.5410   73.6980   58.4530 H   0  0  0  0  0  0  0  0  0  0  0  0
   42.3710   72.7110   59.3530 H   0  0  0  0  0  0  0  0  0  0  0  0
   40.7080   74.6010   60.0370 C   0  0  0  0  0  3  0  0  0  0  0  0
   41.8370   74.7370   59.2610 C   0  0  0  0  0  0  0  0  0  0  0  0
   42.3600   76.0210   59.1100 C   0  0  0  0  0  0  0  0  0  0  0  0
   43.2530   76.1170   58.4930 H   0  0  0  0  0  0  0  0  0  0  0  0
   41.7730   77.1060   59.7110 C   0  0  0  0  0  0  0  0  0  0  0  0
   42.1150   78.4060   59.6890 N   0  0  0  0  0  0  0  0  0  0  0  0
   42.9060   78.9020   59.2140 H   0  0  0  0  0  0  0  0  0  0  0  0
   41.2450   79.0890   60.4220 C   0  0  0  0  0  0  0  0  0  0  0  0
   41.1870   80.1590   60.6470 H   0  0  0  0  0  0  0  0  0  0  0  0
   40.2790   78.2450   60.9620 C   0  0  0  0  0  3  0  0  0  0  0  0
   40.6410   76.9870   60.4920 C   0  0  0  0  0  0  0  0  0  0  0  0
   40.1220   75.7170   60.6440 C   0  0  0  0  0  3  0  0  0  0  0  0
  1  2  1  0  0  0  0
  2  8  1  0  0  0  0
  3  2  2  0  0  0  0
  3  4  1  0  0  0  0
  4  5  2  0  0  0  0
  5  6  1  0  0  0  0
  5 10  1  0  0  0  0
  6  7  1  0  0  0  0
  8 23  1  0  0  0  0
  8  6  2  0  0  0  0
  9  4  1  0  0  0  0
 11 12  1  0  0  0  0
 12  3  1  0  0  0  0
 12 13  2  0  0  0  0
 13 18  1  0  0  0  0
 14 13  1  0  0  0  0
 15 14  2  0  0  0  0
 16 11  2  0  0  0  0
 16 15  1  0  0  0  0
 17 11  1  0  0  0  0
 19 15  1  0  0  0  0
 19 21  1  0  0  0  0
 20 19  1  0  0  0  0
 22 19  1  0  0  0  0
 23 24  1  0  0  0  0
 24 28  1  0  0  0  0
 24 26  1  0  0  0  0
 25 24  1  0  0  0  0
 27 38  1  0  0  0  0
 28 27  2  0  0  0  0
 29 28  1  0  0  0  0
 29 31  2  0  0  0  0
 30 29  1  0  0  0  0
 31 37  1  0  0  0  0
 32 31  1  0  0  0  0
 32 34  1  0  0  0  0
 33 32  1  0  0  0  0
 34 35  1  0  0  0  0
 34 36  2  0  0  0  0
 37 38  2  0  0  0  0
 37 36  1  0  0  0  0
M  END
>  <minimizedAffinity>
-7.09976101

$$$$

 OpenBabel03212520193D

 38 41  0  0  0  0  0  0  0  0999 V2000
   40.2120   72.4200   61.8260 Cl  0  0  0  0  0  0  0  0  0  0  0  0
   41.6110   72.6510   60.8030 C   0  0  0  0  0  0  0  0  0  0  0  0
   42.5140   71.6410   60.5020 C   0  0  0  0  0  0  0  0  0  0  0  0
   43.5520   71.9980   59.6840 C   0  0  0  0  0  0  0  0  0  0  0  0
   43.8050   73.2310   59.1320 C   0  0  0  0  0  0  0  0  0  0  0  0
   42.8880   74.2020   59.4540 C   0  0  0  0  0  0  0  0  0  0  0  0
   43.0850   75.8320   58.8150 Cl  0  0  0  0  0  0  0  0  0  0  0  0
   41.8020   73.9060   60.2850 C   0  0  0  0  0  0  0  0  0  0  0  0
   44.2640   71.1910   59.4510 H   0  0  0  0  0  0  0  0  0  0  0  0
   44.6600   73.4000   58.4970 H   0  0  0  0  0  0  0  0  0  0  0  0
   42.5060   69.9450   62.3920 C   0  0  0  0  0  0  0  0  0  0  0  0
   42.2970   70.3480   61.0500 C   0  0  0  0  0  0  0  0  0  0  0  0
   41.8280   69.3850   60.1610 C   0  0  0  0  0  0  0  0  0  0  0  0
   41.6130   68.1380   60.6680 N   0  0  0  0  0  0  0  0  0  0  0  0
   41.8170   67.7820   61.9300 C   0  0  0  0  0  0  0  0  0  0  0  0
   42.2730   68.7030   62.8150 N   0  0  0  0  0  0  0  0  0  0  0  0
   42.8710   70.7330   63.0390 H   0  0  0  0  0  0  0  0  0  0  0  0
   41.6360   69.5900   59.1170 H   0  0  0  0  0  0  0  0  0  0  0  0
   41.5160   66.3710   62.2620 C   0  0  0  0  0  0  0  0  0  0  0  0
   42.1860   65.4920   61.4590 F   0  0  0  0  0  0  0  0  0  0  0  0
   41.8540   66.1220   63.5940 F   0  0  0  0  0  0  0  0  0  0  0  0
   40.1480   66.0920   62.0720 F   0  0  0  0  0  0  0  0  0  0  0  0
   40.9240   74.9480   60.5590 O   0  0  0  0  0  0  0  0  0  0  0  0
   39.6510   75.0800   59.9920 C   0  0  0  0  0  0  0  0  0  0  0  0
   38.9090   74.9950   60.8360 H   0  0  0  0  0  0  0  0  0  0  0  0
   39.4290   74.2090   59.3320 H   0  0  0  0  0  0  0  0  0  0  0  0
   40.0230   77.4830   59.6490 C   0  0  0  0  0  3  0  0  0  0  0  0
   39.4620   76.3030   59.2170 C   0  0  0  0  0  0  0  0  0  0  0  0
   38.7250   76.3380   58.0340 C   0  0  0  0  0  0  0  0  0  0  0  0
   38.2850   75.3970   57.7020 H   0  0  0  0  0  0  0  0  0  0  0  0
   38.5650   77.5030   57.3270 C   0  0  0  0  0  0  0  0  0  0  0  0
   37.9020   77.7440   56.1820 N   0  0  0  0  0  0  0  0  0  0  0  0
   37.3520   77.1080   55.5580 H   0  0  0  0  0  0  0  0  0  0  0  0
   38.0260   79.0310   55.8810 C   0  0  0  0  0  0  0  0  0  0  0  0
   37.6350   79.6060   55.0350 H   0  0  0  0  0  0  0  0  0  0  0  0
   38.7900   79.6940   56.8350 C   0  0  0  0  0  3  0  0  0  0  0  0
   39.1200   78.6950   57.7460 C   0  0  0  0  0  0  0  0  0  0  0  0
   39.8500   78.6630   58.9170 C   0  0  0  0  0  3  0  0  0  0  0  0
  2  1  1  0  0  0  0
  3  2  1  0  0  0  0
  3 12  1  0  0  0  0
  4  3  2  0  0  0  0
  5  6  2  0  0  0  0
  5  4  1  0  0  0  0
  6  8  1  0  0  0  0
  7  6  1  0  0  0  0
  8 23  1  0  0  0  0
  8  2  2  0  0  0  0
  9  4  1  0  0  0  0
 10  5  1  0  0  0  0
 11 16  1  0  0  0  0
 11 17  1  0  0  0  0
 12 11  2  0  0  0  0
 13 14  2  0  0  0  0
 13 12  1  0  0  0  0
 14 15  1  0  0  0  0
 15 19  1  0  0  0  0
 15 16  2  0  0  0  0
 18 13  1  0  0  0  0
 19 21  1  0  0  0  0
 20 19  1  0  0  0  0
 22 19  1  0  0  0  0
 24 23  1  0  0  0  0
 24 25  1  0  0  0  0
 26 24  1  0  0  0  0
 28 27  1  0  0  0  0
 28 24  1  0  0  0  0
 29 28  2  0  0  0  0
 30 29  1  0  0  0  0
 31 37  2  0  0  0  0
 31 29  1  0  0  0  0
 32 31  1  0  0  0  0
 33 32  1  0  0  0  0
 34 32  1  0  0  0  0
 34 36  2  0  0  0  0
 35 34  1  0  0  0  0
 36 37  1  0  0  0  0
 37 38  1  0  0  0  0
 38 27  2  0  0  0  0
M  END
>  <minimizedAffinity>
-6.9051609

$$$$

 OpenBabel03212520193D

 38 41  0  0  0  0  0  0  0  0999 V2000
   39.1680   73.7650   60.8720 Cl  0  0  0  0  0  0  0  0  0  0  0  0
   40.5600   74.0120   59.8440 C   0  0  0  0  0  0  0  0  0  0  0  0
   41.7430   73.2970   59.9730 C   0  0  0  0  0  0  0  0  0  0  0  0
   42.7300   73.6200   59.0810 C   0  0  0  0  0  0  0  0  0  0  0  0
   42.6890   74.5630   58.0820 C   0  0  0  0  0  0  0  0  0  0  0  0
   41.5020   75.2480   57.9890 C   0  0  0  0  0  0  0  0  0  0  0  0
   41.3070   76.4870   56.7520 Cl  0  0  0  0  0  0  0  0  0  0  0  0
   40.4500   74.9690   58.8680 C   0  0  0  0  0  0  0  0  0  0  0  0
   43.6650   73.0490   59.1910 H   0  0  0  0  0  0  0  0  0  0  0  0
   43.5330   74.7350   57.4340 H   0  0  0  0  0  0  0  0  0  0  0  0
   41.8550   72.5310   62.3910 C   0  0  0  0  0  0  0  0  0  0  0  0
   41.8350   72.3110   60.9920 C   0  0  0  0  0  0  0  0  0  0  0  0
   41.9130   70.9930   60.5530 C   0  0  0  0  0  0  0  0  0  0  0  0
   42.0010   70.0320   61.5150 N   0  0  0  0  0  0  0  0  0  0  0  0
   42.0190   70.2610   62.8220 C   0  0  0  0  0  0  0  0  0  0  0  0
   41.9440   71.5380   63.2740 N   0  0  0  0  0  0  0  0  0  0  0  0
   41.7910   73.5740   62.6760 H   0  0  0  0  0  0  0  0  0  0  0  0
   41.9050   70.7180   59.5060 H   0  0  0  0  0  0  0  0  0  0  0  0
   42.1210   69.0650   63.6880 C   0  0  0  0  0  0  0  0  0  0  0  0
   43.4000   68.8310   64.1070 F   0  0  0  0  0  0  0  0  0  0  0  0
   41.2960   69.2250   64.8040 F   0  0  0  0  0  0  0  0  0  0  0  0
   41.7330   67.9050   62.9880 F   0  0  0  0  0  0  0  0  0  0  0  0
   39.2860   75.7080   58.7010 O   0  0  0  0  0  0  0  0  0  0  0  0
   38.0790   75.1880   58.2190 C   0  0  0  0  0  0  0  0  0  0  0  0
   37.3070   75.3570   59.0230 H   0  0  0  0  0  0  0  0  0  0  0  0
   38.1470   74.0790   58.1220 H   0  0  0  0  0  0  0  0  0  0  0  0
   37.0660   74.9170   55.9980 C   0  0  0  0  0  3  0  0  0  0  0  0
   37.6600   75.7360   56.9320 C   0  0  0  0  0  0  0  0  0  0  0  0
   37.8330   77.0770   56.5920 C   0  0  0  0  0  0  0  0  0  0  0  0
   38.3040   77.7150   57.3400 H   0  0  0  0  0  0  0  0  0  0  0  0
   37.4280   77.5630   55.3740 C   0  0  0  0  0  0  0  0  0  0  0  0
   37.5040   78.8030   54.8610 N   0  0  0  0  0  0  0  0  0  0  0  0
   37.8870   79.6920   55.2630 H   0  0  0  0  0  0  0  0  0  0  0  0
   36.9810   78.7930   53.6420 C   0  0  0  0  0  0  0  0  0  0  0  0
   36.8600   79.6000   52.9110 H   0  0  0  0  0  0  0  0  0  0  0  0
   36.5340   77.5200   53.3030 C   0  0  0  0  0  3  0  0  0  0  0  0
   36.8320   76.7560   54.4270 C   0  0  0  0  0  0  0  0  0  0  0  0
   36.6590   75.4280   54.7610 C   0  0  0  0  0  3  0  0  0  0  0  0
  2  3  1  0  0  0  0
  2  1  1  0  0  0  0
  3 12  1  0  0  0  0
  4  9  1  0  0  0  0
  4  3  2  0  0  0  0
  5  4  1  0  0  0  0
  6  5  2  0  0  0  0
  6  8  1  0  0  0  0
  7  6  1  0  0  0  0
  8  2  2  0  0  0  0
 10  5  1  0  0  0  0
 11 17  1  0  0  0  0
 11 16  1  0  0  0  0
 12 11  2  0  0  0  0
 13 12  1  0  0  0  0
 13 14  2  0  0  0  0
 14 15  1  0  0  0  0
 15 16  2  0  0  0  0
 15 19  1  0  0  0  0
 18 13  1  0  0  0  0
 19 20  1  0  0  0  0
 19 21  1  0  0  0  0
 22 19  1  0  0  0  0
 23  8  1  0  0  0  0
 24 23  1  0  0  0  0
 24 25  1  0  0  0  0
 26 24  1  0  0  0  0
 27 28  1  0  0  0  0
 28 24  1  0  0  0  0
 29 28  2  0  0  0  0
 29 30  1  0  0  0  0
 31 29  1  0  0  0  0
 32 33  1  0  0  0  0
 32 31  1  0  0  0  0
 34 32  1  0  0  0  0
 35 34  1  0  0  0  0
 36 34  2  0  0  0  0
 36 37  1  0  0  0  0
 37 38  1  0  0  0  0
 37 31  2  0  0  0  0
 38 27  2  0  0  0  0
M  END
>  <minimizedAffinity>
-6.84564018

$$$$

 OpenBabel03212520193D

 38 41  0  0  0  0  0  0  0  0999 V2000
   40.2630   73.8580   56.7510 Cl  0  0  0  0  0  0  0  0  0  0  0  0
   40.0130   74.3750   58.4030 C   0  0  0  0  0  0  0  0  0  0  0  0
   39.2300   75.4670   58.7520 C   0  0  0  0  0  0  0  0  0  0  0  0
   39.1420   75.7280   60.0930 C   0  0  0  0  0  0  0  0  0  0  0  0
   39.7360   75.0440   61.1260 C   0  0  0  0  0  0  0  0  0  0  0  0
   40.5020   73.9720   60.7380 C   0  0  0  0  0  0  0  0  0  0  0  0
   41.3220   73.0000   61.9580 Cl  0  0  0  0  0  0  0  0  0  0  0  0
   40.6350   73.6460   59.3830 C   0  0  0  0  0  0  0  0  0  0  0  0
   38.5200   76.5960   60.3610 H   0  0  0  0  0  0  0  0  0  0  0  0
   39.5970   75.3410   62.1530 H   0  0  0  0  0  0  0  0  0  0  0  0
   38.9900   77.4700   57.2090 C   0  0  0  0  0  0  0  0  0  0  0  0
   38.5950   76.2080   57.7190 C   0  0  0  0  0  0  0  0  0  0  0  0
   37.4660   75.6190   57.1570 C   0  0  0  0  0  0  0  0  0  0  0  0
   36.8430   76.3140   56.1650 N   0  0  0  0  0  0  0  0  0  0  0  0
   37.2310   77.4970   55.7030 C   0  0  0  0  0  0  0  0  0  0  0  0
   38.3280   78.0900   56.2340 N   0  0  0  0  0  0  0  0  0  0  0  0
   39.8740   77.8810   57.6810 H   0  0  0  0  0  0  0  0  0  0  0  0
   37.0820   74.6590   57.4750 H   0  0  0  0  0  0  0  0  0  0  0  0
   36.4040   78.0710   54.6170 C   0  0  0  0  0  0  0  0  0  0  0  0
   35.9750   77.1240   53.7310 F   0  0  0  0  0  0  0  0  0  0  0  0
   35.2950   78.7180   55.1670 F   0  0  0  0  0  0  0  0  0  0  0  0
   37.1470   78.9940   53.8560 F   0  0  0  0  0  0  0  0  0  0  0  0
   41.4270   72.5460   59.0810 O   0  0  0  0  0  0  0  0  0  0  0  0
   41.0830   71.2200   59.3680 C   0  0  0  0  0  0  0  0  0  0  0  0
   40.0330   71.2370   59.7760 H   0  0  0  0  0  0  0  0  0  0  0  0
   41.7070   70.8310   60.2070 H   0  0  0  0  0  0  0  0  0  0  0  0
   41.1570   68.9470   58.4410 C   0  0  0  0  0  3  0  0  0  0  0  0
   41.2170   70.3070   58.2360 C   0  0  0  0  0  0  0  0  0  0  0  0
   41.4060   70.7510   56.9280 C   0  0  0  0  0  0  0  0  0  0  0  0
   41.4530   71.8300   56.7780 H   0  0  0  0  0  0  0  0  0  0  0  0
   41.5280   69.8670   55.8850 C   0  0  0  0  0  0  0  0  0  0  0  0
   41.7140   70.0900   54.5720 N   0  0  0  0  0  0  0  0  0  0  0  0
   41.8090   70.9820   54.0310 H   0  0  0  0  0  0  0  0  0  0  0  0
   41.7720   68.9210   53.9460 C   0  0  0  0  0  0  0  0  0  0  0  0
   41.9110   68.6860   52.8860 H   0  0  0  0  0  0  0  0  0  0  0  0
   41.6250   67.8680   54.8440 C   0  0  0  0  0  3  0  0  0  0  0  0
   41.4710   68.5020   56.0730 C   0  0  0  0  0  0  0  0  0  0  0  0
   41.2830   68.0590   57.3670 C   0  0  0  0  0  3  0  0  0  0  0  0
  1  2  1  0  0  0  0
  2  3  2  0  0  0  0
  2  8  1  0  0  0  0
  3  4  1  0  0  0  0
  4  9  1  0  0  0  0
  4  5  2  0  0  0  0
  5 10  1  0  0  0  0
  6  5  1  0  0  0  0
  6  7  1  0  0  0  0
  8  6  2  0  0  0  0
 11 17  1  0  0  0  0
 11 12  1  0  0  0  0
 12  3  1  0  0  0  0
 13 18  1  0  0  0  0
 13 12  2  0  0  0  0
 14 13  1  0  0  0  0
 15 14  2  0  0  0  0
 15 16  1  0  0  0  0
 16 11  2  0  0  0  0
 19 21  1  0  0  0  0
 19 15  1  0  0  0  0
 20 19  1  0  0  0  0
 22 19  1  0  0  0  0
 23 24  1  0  0  0  0
 23  8  1  0  0  0  0
 24 25  1  0  0  0  0
 24 26  1  0  0  0  0
 28 27  1  0  0  0  0
 28 24  1  0  0  0  0
 29 28  2  0  0  0  0
 30 29  1  0  0  0  0
 31 37  2  0  0  0  0
 31 29  1  0  0  0  0
 32 31  1  0  0  0  0
 33 32  1  0  0  0  0
 34 32  1  0  0  0  0
 34 36  2  0  0  0  0
 35 34  1  0  0  0  0
 36 37  1  0  0  0  0
 37 38  1  0  0  0  0
 38 27  2  0  0  0  0
M  END
>  <minimizedAffinity>
-6.7555809

$$$$
