
 OpenBabel03212520483D

 31 34  0  0  0  0  0  0  0  0999 V2000
   41.7070   83.8500   61.4130 C   0  0  0  0  0  0  0  0  0  0  0  0
   41.4750   84.1040   62.7380 C   0  0  0  0  0  0  0  0  0  0  0  0
   40.9410   83.1230   63.5860 C   0  0  0  0  0  0  0  0  0  0  0  0
   40.6490   81.9010   63.0890 N   0  0  0  0  0  0  0  0  0  0  0  0
   40.8820   81.6710   61.7920 C   0  0  0  0  0  0  0  0  0  0  0  0
   41.4000   82.6220   60.9690 N   0  0  0  0  0  0  0  0  0  0  0  0
   41.7190   85.0910   63.1060 H   0  0  0  0  0  0  0  0  0  0  0  0
   40.7890   83.4050   64.6180 H   0  0  0  0  0  0  0  0  0  0  0  0
   40.4180   80.2600   59.8110 C   0  0  0  0  0  0  0  0  0  0  0  0
   40.5960   80.3800   61.1730 C   0  0  0  0  0  0  0  0  0  0  0  0
   40.4830   79.2000   61.8790 C   0  0  0  0  0  0  0  0  0  0  0  0
   40.6150   79.2250   62.9710 H   0  0  0  0  0  0  0  0  0  0  0  0
   40.2120   77.9970   61.2610 C   0  0  0  0  0  0  0  0  0  0  0  0
   40.0480   76.7250   61.6620 N   0  0  0  0  0  0  0  0  0  0  0  0
   40.1170   76.4260   62.6790 H   0  0  0  0  0  0  0  0  0  0  0  0
   39.7910   75.8970   60.6340 C   0  0  0  0  0  0  0  0  0  0  0  0
   39.6140   74.8370   60.6230 H   0  0  0  0  0  0  0  0  0  0  0  0
   39.7820   76.6630   59.4710 C   0  0  0  0  0  0  0  0  0  0  0  0
   40.0440   77.9480   59.8930 C   0  0  0  0  0  0  0  0  0  0  0  0
   40.1440   79.1040   59.1130 C   0  0  0  0  0  0  0  0  0  0  0  0
   43.7490   86.5830   60.0900 C   0  0  0  0  0  0  0  0  0  0  0  0
   43.2600   86.7120   58.7920 C   0  0  0  0  0  0  0  0  0  0  0  0
   42.2410   85.8740   58.3700 C   0  0  0  0  0  0  0  0  0  0  0  0
   41.7670   84.9550   59.2630 N   0  0  0  0  0  0  0  0  0  0  0  0
   42.2640   84.8610   60.5050 C   0  0  0  0  0  0  0  0  0  0  0  0
   43.2460   85.6580   60.9330 N   0  0  0  0  0  0  0  0  0  0  0  0
   44.7900   87.5040   60.3850 N   0  0  0  0  0  0  0  0  0  0  0  0
   43.5940   87.4100   58.0610 H   0  0  0  0  0  0  0  0  0  0  0  0
   41.8080   85.9110   57.3840 H   0  0  0  0  0  0  0  0  0  0  0  0
   45.5100   86.9950   60.9630 H   0  0  0  0  0  0  0  0  0  0  0  0
   44.7680   88.4910   60.0500 H   0  0  0  0  0  0  0  0  0  0  0  0
  1  2  1  0  0  0  0
  2  7  1  0  0  0  0
  2  3  2  0  0  0  0
  3  8  1  0  0  0  0
  4  3  1  0  0  0  0
  5  4  2  0  0  0  0
  6  1  2  0  0  0  0
  6  5  1  0  0  0  0
  9 10  1  0  0  0  0
 10  5  1  0  0  0  0
 10 11  2  0  0  0  0
 11 12  1  0  0  0  0
 13 14  1  0  0  0  0
 13 11  1  0  0  0  0
 14 15  1  0  0  0  0
 16 14  1  0  0  0  0
 17 16  1  0  0  0  0
 18 19  1  0  0  0  0
 18 16  2  0  0  0  0
 19 13  2  0  0  0  0
 20  9  2  0  0  0  0
 20 19  1  0  0  0  0
 21 27  1  0  0  0  0
 21 26  1  0  0  0  0
 22 21  2  0  0  0  0
 23 22  1  0  0  0  0
 23 24  2  0  0  0  0
 24 25  1  0  0  0  0
 25 26  2  0  0  0  0
 25  1  1  0  0  0  0
 27 30  1  0  0  0  0
 28 22  1  0  0  0  0
 29 23  1  0  0  0  0
 31 27  1  0  0  0  0
M  END
>  <minimizedAffinity>
-6.30309296

>  <minimizedRMSD>
1.19994092

$$$$
