
 OpenBabel03212520483D

 31 34  0  0  0  0  0  0  0  0999 V2000
   41.6000   83.8340   61.4460 C   0  0  0  0  0  0  0  0  0  0  0  0
   41.0420   84.2380   62.6300 C   0  0  0  0  0  0  0  0  0  0  0  0
   40.5960   83.3080   63.5800 C   0  0  0  0  0  0  0  0  0  0  0  0
   40.7180   81.9870   63.3270 N   0  0  0  0  0  0  0  0  0  0  0  0
   41.2640   81.6120   62.1660 C   0  0  0  0  0  0  0  0  0  0  0  0
   41.6980   82.5120   61.2430 N   0  0  0  0  0  0  0  0  0  0  0  0
   40.9590   85.3020   62.8040 H   0  0  0  0  0  0  0  0  0  0  0  0
   40.1690   83.7110   64.4870 H   0  0  0  0  0  0  0  0  0  0  0  0
   42.6770   79.6060   61.8200 C   0  0  0  0  0  3  0  0  0  0  0  0
   41.4340   80.2050   61.8110 C   0  0  0  0  0  0  0  0  0  0  0  0
   40.3940   79.3760   61.4460 C   0  0  0  0  0  0  0  0  0  0  0  0
   39.3750   79.7910   61.4190 H   0  0  0  0  0  0  0  0  0  0  0  0
   40.5900   78.0510   61.1180 C   0  0  0  0  0  0  0  0  0  0  0  0
   39.8060   77.0280   60.7360 N   0  0  0  0  0  0  0  0  0  0  0  0
   38.7560   77.1190   60.6170 H   0  0  0  0  0  0  0  0  0  0  0  0
   40.5100   75.9000   60.5290 C   0  0  0  0  0  0  0  0  0  0  0  0
   40.1800   74.9230   60.2210 H   0  0  0  0  0  0  0  0  0  0  0  0
   41.8480   76.1850   60.7880 C   0  0  0  0  0  3  0  0  0  0  0  0
   41.8600   77.5150   61.1470 C   0  0  0  0  0  0  0  0  0  0  0  0
   42.9640   78.2960   61.5070 C   0  0  0  0  0  3  0  0  0  0  0  0
   43.5970   86.3810   59.7380 C   0  0  0  0  0  0  0  0  0  0  0  0
   42.9080   86.5370   58.5380 C   0  0  0  0  0  0  0  0  0  0  0  0
   41.7700   85.7800   58.3110 C   0  0  0  0  0  0  0  0  0  0  0  0
   41.3830   84.9100   59.2920 N   0  0  0  0  0  0  0  0  0  0  0  0
   42.0730   84.7880   60.4350 C   0  0  0  0  0  0  0  0  0  0  0  0
   43.1720   85.5080   60.6750 N   0  0  0  0  0  0  0  0  0  0  0  0
   44.7410   87.2180   59.8350 N   0  0  0  0  0  0  0  0  0  0  0  0
   43.1670   87.1990   57.7450 H   0  0  0  0  0  0  0  0  0  0  0  0
   41.1820   85.8410   57.4110 H   0  0  0  0  0  0  0  0  0  0  0  0
   45.5060   86.6590   60.2960 H   0  0  0  0  0  0  0  0  0  0  0  0
   44.7390   88.2010   59.4850 H   0  0  0  0  0  0  0  0  0  0  0  0
  1  2  1  0  0  0  0
  2  7  1  0  0  0  0
  2  3  2  0  0  0  0
  3  8  1  0  0  0  0
  4  3  1  0  0  0  0
  5  4  2  0  0  0  0
  6  1  2  0  0  0  0
  6  5  1  0  0  0  0
 10  9  1  0  0  0  0
 10  5  1  0  0  0  0
 11 10  2  0  0  0  0
 12 11  1  0  0  0  0
 13 19  2  0  0  0  0
 13 11  1  0  0  0  0
 14 13  1  0  0  0  0
 15 14  1  0  0  0  0
 16 14  1  0  0  0  0
 16 18  2  0  0  0  0
 17 16  1  0  0  0  0
 18 19  1  0  0  0  0
 19 20  1  0  0  0  0
 20  9  2  0  0  0  0
 21 27  1  0  0  0  0
 21 26  1  0  0  0  0
 22 21  2  0  0  0  0
 23 22  1  0  0  0  0
 23 24  2  0  0  0  0
 24 25  1  0  0  0  0
 25 26  2  0  0  0  0
 25  1  1  0  0  0  0
 27 30  1  0  0  0  0
 28 22  1  0  0  0  0
 29 23  1  0  0  0  0
 31 27  1  0  0  0  0
M  END
>  <minimizedAffinity>
-5.93934631

>  <minimizedRMSD>
0.279255033

$$$$
