
 OpenBabel03212520483D

 31 34  0  0  0  0  0  0  0  0999 V2000
   41.5770   83.8540   61.4290 C   0  0  0  0  0  0  0  0  0  0  0  0
   41.1690   84.2600   62.6720 C   0  0  0  0  0  0  0  0  0  0  0  0
   40.7090   83.3400   63.6250 C   0  0  0  0  0  0  0  0  0  0  0  0
   40.6660   82.0260   63.3150 N   0  0  0  0  0  0  0  0  0  0  0  0
   41.0680   81.6480   62.0960 C   0  0  0  0  0  0  0  0  0  0  0  0
   41.5150   82.5400   61.1710 N   0  0  0  0  0  0  0  0  0  0  0  0
   41.2150   85.3190   62.8900 H   0  0  0  0  0  0  0  0  0  0  0  0
   40.4060   83.7440   64.5800 H   0  0  0  0  0  0  0  0  0  0  0  0
   41.9060   79.3230   62.2430 C   0  0  0  0  0  3  0  0  0  0  0  0
   41.0550   80.2490   61.6780 C   0  0  0  0  0  0  0  0  0  0  0  0
   40.2120   79.7480   60.7090 C   0  0  0  0  0  0  0  0  0  0  0  0
   39.5060   80.4340   60.2180 H   0  0  0  0  0  0  0  0  0  0  0  0
   40.2260   78.4180   60.3380 C   0  0  0  0  0  0  0  0  0  0  0  0
   39.5520   77.6570   59.4600 N   0  0  0  0  0  0  0  0  0  0  0  0
   38.7910   78.0430   58.8270 H   0  0  0  0  0  0  0  0  0  0  0  0
   39.9560   76.3750   59.4830 C   0  0  0  0  0  0  0  0  0  0  0  0
   39.6200   75.5300   58.9100 H   0  0  0  0  0  0  0  0  0  0  0  0
   40.9650   76.2700   60.4380 C   0  0  0  0  0  3  0  0  0  0  0  0
   41.1040   77.5450   60.9440 C   0  0  0  0  0  0  0  0  0  0  0  0
   41.9890   77.9820   61.9350 C   0  0  0  0  0  3  0  0  0  0  0  0
   43.6010   86.3750   59.7140 C   0  0  0  0  0  0  0  0  0  0  0  0
   42.9180   86.5290   58.5100 C   0  0  0  0  0  0  0  0  0  0  0  0
   41.7750   85.7800   58.2830 C   0  0  0  0  0  0  0  0  0  0  0  0
   41.3770   84.9190   59.2680 N   0  0  0  0  0  0  0  0  0  0  0  0
   42.0620   84.7980   60.4140 C   0  0  0  0  0  0  0  0  0  0  0  0
   43.1650   85.5110   60.6540 N   0  0  0  0  0  0  0  0  0  0  0  0
   44.7510   87.2030   59.8100 N   0  0  0  0  0  0  0  0  0  0  0  0
   43.1860   87.1840   57.7140 H   0  0  0  0  0  0  0  0  0  0  0  0
   41.1900   85.8400   57.3810 H   0  0  0  0  0  0  0  0  0  0  0  0
   45.5100   86.6410   60.2780 H   0  0  0  0  0  0  0  0  0  0  0  0
   44.7590   88.1840   59.4540 H   0  0  0  0  0  0  0  0  0  0  0  0
  1  2  1  0  0  0  0
  2  7  1  0  0  0  0
  2  3  2  0  0  0  0
  3  8  1  0  0  0  0
  4  3  1  0  0  0  0
  5  4  2  0  0  0  0
  6  1  2  0  0  0  0
  6  5  1  0  0  0  0
 10  5  1  0  0  0  0
 10  9  2  0  0  0  0
 11 10  1  0  0  0  0
 12 11  1  0  0  0  0
 13 11  2  0  0  0  0
 13 19  1  0  0  0  0
 14 16  1  0  0  0  0
 14 13  1  0  0  0  0
 15 14  1  0  0  0  0
 16 18  2  0  0  0  0
 17 16  1  0  0  0  0
 18 19  1  0  0  0  0
 19 20  2  0  0  0  0
 20  9  1  0  0  0  0
 21 27  1  0  0  0  0
 21 26  1  0  0  0  0
 22 21  2  0  0  0  0
 23 22  1  0  0  0  0
 23 24  2  0  0  0  0
 24 25  1  0  0  0  0
 25 26  2  0  0  0  0
 25  1  1  0  0  0  0
 27 30  1  0  0  0  0
 28 22  1  0  0  0  0
 29 23  1  0  0  0  0
 31 27  1  0  0  0  0
M  END
>  <minimizedAffinity>
-5.91507053

>  <minimizedRMSD>
0.424398422

$$$$
