
 OpenBabel03212520063D

 44 49  0  0  0  0  0  0  0  0999 V2000
   43.4100   70.2660   57.9710 C   0  0  0  0  0  0  0  0  0  0  0  0
   42.6620   71.4240   57.6890 C   0  0  0  0  0  0  0  0  0  0  0  0
   41.6550   71.7570   58.5870 C   0  0  0  0  0  0  0  0  0  0  0  0
   41.4320   70.9870   59.6750 N   0  0  0  0  0  0  0  0  0  0  0  0
   42.1760   69.8770   59.9170 C   0  0  0  0  0  0  0  0  0  0  0  0
   43.1740   69.5070   59.0630 N   0  0  0  0  0  0  0  0  0  0  0  0
   44.2210   69.8790   57.3670 H   0  0  0  0  0  0  0  0  0  0  0  0
   43.0440   71.8790   56.8090 H   0  0  0  0  0  0  0  0  0  0  0  0
   41.9840   67.6810   60.9940 C   0  0  0  0  0  0  0  0  0  0  0  0
   41.9600   69.0780   61.1110 C   0  0  0  0  0  0  0  0  0  0  0  0
   41.7590   69.7000   62.3450 C   0  0  0  0  0  0  0  0  0  0  0  0
   41.5760   68.9540   63.5000 C   0  0  0  0  0  0  0  0  0  0  0  0
   41.3700   69.1840   64.8040 N   0  0  0  0  0  0  0  0  0  0  0  0
   41.2690   68.0180   65.4820 C   0  0  0  0  0  0  0  0  0  0  0  0
   41.4210   67.0670   64.5510 N   0  0  0  0  0  0  0  0  0  0  0  0
   41.6090   67.6070   63.3360 C   0  0  0  0  0  0  0  0  0  0  0  0
   41.8020   66.9110   62.1480 C   0  0  0  0  0  0  0  0  0  0  0  0
   42.1400   67.2150   60.0320 H   0  0  0  0  0  0  0  0  0  0  0  0
   41.7390   70.7850   62.4360 H   0  0  0  0  0  0  0  0  0  0  0  0
   41.3020   70.1400   65.2120 H   0  0  0  0  0  0  0  0  0  0  0  0
   41.1040   67.8770   66.5420 H   0  0  0  0  0  0  0  0  0  0  0  0
   41.8130   65.8300   62.1080 H   0  0  0  0  0  0  0  0  0  0  0  0
   42.0940   74.0400   60.4590 Cl  0  0  0  0  0  0  0  0  0  0  0  0
   40.9190   74.0460   59.1530 C   0  0  0  0  0  0  0  0  0  0  0  0
   40.8450   72.9310   58.3620 C   0  0  0  0  0  0  0  0  0  0  0  0
   39.9140   73.0260   57.3290 C   0  0  0  0  0  0  0  0  0  0  0  0
   39.1260   74.1370   57.1080 C   0  0  0  0  0  0  0  0  0  0  0  0
   39.2560   75.2340   57.9570 C   0  0  0  0  0  0  0  0  0  0  0  0
   38.2700   76.6470   57.6950 Cl  0  0  0  0  0  0  0  0  0  0  0  0
   40.1690   75.1790   58.9930 C   0  0  0  0  0  0  0  0  0  0  0  0
   39.7830   72.1990   56.6490 H   0  0  0  0  0  0  0  0  0  0  0  0
   38.4250   74.1480   56.2900 H   0  0  0  0  0  0  0  0  0  0  0  0
   41.0430   77.3440   59.2780 C   0  0  0  0  0  3  0  0  0  0  0  0
   40.2640   76.3540   59.8520 C   0  0  0  0  0  0  0  0  0  0  0  0
   39.6980   76.5670   61.0940 C   0  0  0  0  0  0  0  0  0  0  0  0
   39.1110   75.7310   61.4470 H   0  0  0  0  0  0  0  0  0  0  0  0
   39.9260   77.7710   61.7340 C   0  0  0  0  0  0  0  0  0  0  0  0
   39.4670   78.1670   62.9350 N   0  0  0  0  0  0  0  0  0  0  0  0
   38.8580   77.6220   63.5860 H   0  0  0  0  0  0  0  0  0  0  0  0
   39.9510   79.4040   63.1310 C   0  0  0  0  0  0  0  0  0  0  0  0
   39.7920   80.0420   63.9900 H   0  0  0  0  0  0  0  0  0  0  0  0
   40.7240   79.8090   62.0480 C   0  0  0  0  0  3  0  0  0  0  0  0
   40.7030   78.7540   61.1570 C   0  0  0  0  0  0  0  0  0  0  0  0
   41.2840   78.5550   59.9000 C   0  0  0  0  0  3  0  0  0  0  0  0
  1  6  1  0  0  0  0
  2  1  2  0  0  0  0
  2  3  1  0  0  0  0
  3  4  2  0  0  0  0
  4  5  1  0  0  0  0
  5 10  1  0  0  0  0
  6  5  2  0  0  0  0
  7  1  1  0  0  0  0
  8  2  1  0  0  0  0
  9 10  2  0  0  0  0
  9 17  1  0  0  0  0
 10 11  1  0  0  0  0
 11 19  1  0  0  0  0
 11 12  2  0  0  0  0
 12 13  1  0  0  0  0
 13 20  1  0  0  0  0
 13 14  1  0  0  0  0
 14 21  1  0  0  0  0
 15 14  2  0  0  0  0
 16 12  1  0  0  0  0
 16 15  1  0  0  0  0
 17 16  2  0  0  0  0
 18  9  1  0  0  0  0
 22 17  1  0  0  0  0
 24 23  1  0  0  0  0
 25  3  1  0  0  0  0
 25 24  2  0  0  0  0
 26 25  1  0  0  0  0
 27 26  2  0  0  0  0
 27 28  1  0  0  0  0
 28 30  2  0  0  0  0
 29 28  1  0  0  0  0
 30 24  1  0  0  0  0
 30 34  1  0  0  0  0
 31 26  1  0  0  0  0
 32 27  1  0  0  0  0
 33 34  2  0  0  0  0
 33 44  1  0  0  0  0
 34 35  1  0  0  0  0
 35 36  1  0  0  0  0
 35 37  2  0  0  0  0
 37 38  1  0  0  0  0
 38 40  1  0  0  0  0
 38 39  1  0  0  0  0
 40 41  1  0  0  0  0
 42 40  2  0  0  0  0
 43 37  1  0  0  0  0
 43 42  1  0  0  0  0
 44 43  2  0  0  0  0
M  END
>  <minimizedAffinity>
-8.75845432

$$$$

 OpenBabel03212520063D

 44 49  0  0  0  0  0  0  0  0999 V2000
   44.8140   68.9120   60.0640 C   0  0  0  0  0  0  0  0  0  0  0  0
   44.1960   69.9270   59.3110 C   0  0  0  0  0  0  0  0  0  0  0  0
   42.9020   70.2820   59.6730 C   0  0  0  0  0  0  0  0  0  0  0  0
   42.2930   69.6630   60.7100 N   0  0  0  0  0  0  0  0  0  0  0  0
   42.9210   68.6880   61.4160 C   0  0  0  0  0  0  0  0  0  0  0  0
   44.1910   68.3030   61.0970 N   0  0  0  0  0  0  0  0  0  0  0  0
   45.8130   68.5280   59.9010 H   0  0  0  0  0  0  0  0  0  0  0  0
   44.8810   70.2840   58.5810 H   0  0  0  0  0  0  0  0  0  0  0  0
   42.3390   68.7020   63.7990 C   0  0  0  0  0  0  0  0  0  0  0  0
   42.2770   68.0580   62.5560 C   0  0  0  0  0  0  0  0  0  0  0  0
   41.5940   66.8500   62.3960 C   0  0  0  0  0  0  0  0  0  0  0  0
   40.9510   66.2460   63.4660 C   0  0  0  0  0  0  0  0  0  0  0  0
   40.2250   65.1430   63.6890 N   0  0  0  0  0  0  0  0  0  0  0  0
   39.8430   65.0780   64.9850 C   0  0  0  0  0  0  0  0  0  0  0  0
   40.3600   66.1780   65.5490 N   0  0  0  0  0  0  0  0  0  0  0  0
   41.0390   66.9080   64.6490 C   0  0  0  0  0  0  0  0  0  0  0  0
   41.6970   68.1080   64.8910 C   0  0  0  0  0  0  0  0  0  0  0  0
   42.8730   69.6350   63.9070 H   0  0  0  0  0  0  0  0  0  0  0  0
   41.5470   66.3490   61.4300 H   0  0  0  0  0  0  0  0  0  0  0  0
   40.0000   64.4470   62.9470 H   0  0  0  0  0  0  0  0  0  0  0  0
   39.2520   64.3110   65.4680 H   0  0  0  0  0  0  0  0  0  0  0  0
   41.7170   68.5670   65.8710 H   0  0  0  0  0  0  0  0  0  0  0  0
   42.6810   72.9300   61.0310 Cl  0  0  0  0  0  0  0  0  0  0  0  0
   42.0050   72.5720   59.4510 C   0  0  0  0  0  0  0  0  0  0  0  0
   42.2050   71.3150   58.9450 C   0  0  0  0  0  0  0  0  0  0  0  0
   41.6680   71.1200   57.6740 C   0  0  0  0  0  0  0  0  0  0  0  0
   40.9900   72.0950   56.9700 C   0  0  0  0  0  0  0  0  0  0  0  0
   40.8240   73.3500   57.5500 C   0  0  0  0  0  0  0  0  0  0  0  0
   39.9720   74.5960   56.6790 Cl  0  0  0  0  0  0  0  0  0  0  0  0
   41.3420   73.5840   58.8100 C   0  0  0  0  0  0  0  0  0  0  0  0
   41.7750   70.1620   57.1900 H   0  0  0  0  0  0  0  0  0  0  0  0
   40.5990   71.8800   55.9900 H   0  0  0  0  0  0  0  0  0  0  0  0
   39.9700   74.9850   60.1090 C   0  0  0  0  0  3  0  0  0  0  0  0
   41.1400   74.9150   59.3710 C   0  0  0  0  0  0  0  0  0  0  0  0
   41.9360   76.0370   59.2500 C   0  0  0  0  0  0  0  0  0  0  0  0
   42.8230   75.8710   58.6540 H   0  0  0  0  0  0  0  0  0  0  0  0
   41.5430   77.2060   59.8730 C   0  0  0  0  0  0  0  0  0  0  0  0
   42.1750   78.3940   59.8760 N   0  0  0  0  0  0  0  0  0  0  0  0
   43.0760   78.6270   59.4010 H   0  0  0  0  0  0  0  0  0  0  0  0
   41.4150   79.2210   60.6110 C   0  0  0  0  0  0  0  0  0  0  0  0
   41.6060   80.2620   60.8350 H   0  0  0  0  0  0  0  0  0  0  0  0
   40.2860   78.5620   61.0860 C   0  0  0  0  0  3  0  0  0  0  0  0
   40.3760   77.2700   60.6070 C   0  0  0  0  0  0  0  0  0  0  0  0
   39.5570   76.1430   60.7400 C   0  0  0  0  0  3  0  0  0  0  0  0
  1  6  1  0  0  0  0
  2  3  1  0  0  0  0
  2  1  2  0  0  0  0
  3  4  2  0  0  0  0
  4  5  1  0  0  0  0
  5 10  1  0  0  0  0
  6  5  2  0  0  0  0
  7  1  1  0  0  0  0
  8  2  1  0  0  0  0
  9 18  1  0  0  0  0
  9 17  1  0  0  0  0
 10  9  2  0  0  0  0
 11 10  1  0  0  0  0
 11 12  2  0  0  0  0
 12 13  1  0  0  0  0
 12 16  1  0  0  0  0
 13 14  1  0  0  0  0
 14 21  1  0  0  0  0
 14 15  2  0  0  0  0
 16 17  2  0  0  0  0
 16 15  1  0  0  0  0
 17 22  1  0  0  0  0
 19 11  1  0  0  0  0
 20 13  1  0  0  0  0
 24 23  1  0  0  0  0
 25 24  1  0  0  0  0
 25  3  1  0  0  0  0
 26 25  2  0  0  0  0
 27 28  2  0  0  0  0
 27 26  1  0  0  0  0
 28 30  1  0  0  0  0
 29 28  1  0  0  0  0
 30 34  1  0  0  0  0
 30 24  2  0  0  0  0
 31 26  1  0  0  0  0
 32 27  1  0  0  0  0
 33 44  1  0  0  0  0
 34 33  2  0  0  0  0
 35 34  1  0  0  0  0
 35 37  2  0  0  0  0
 36 35  1  0  0  0  0
 37 38  1  0  0  0  0
 37 43  1  0  0  0  0
 38 40  1  0  0  0  0
 39 38  1  0  0  0  0
 40 41  1  0  0  0  0
 40 42  2  0  0  0  0
 43 44  2  0  0  0  0
 43 42  1  0  0  0  0
M  END
>  <minimizedAffinity>
-8.29033947

$$$$

 OpenBabel03212520063D

 44 49  0  0  0  0  0  0  0  0999 V2000
   44.6340   74.0080   58.4750 C   0  0  0  0  0  0  0  0  0  0  0  0
   43.8360   75.1500   58.2770 C   0  0  0  0  0  0  0  0  0  0  0  0
   42.6770   75.2460   59.0370 C   0  0  0  0  0  0  0  0  0  0  0  0
   42.3590   74.2730   59.9200 N   0  0  0  0  0  0  0  0  0  0  0  0
   43.1550   73.1850   60.0860 C   0  0  0  0  0  0  0  0  0  0  0  0
   44.3030   73.0430   59.3610 N   0  0  0  0  0  0  0  0  0  0  0  0
   45.5610   73.7910   57.9570 H   0  0  0  0  0  0  0  0  0  0  0  0
   44.3070   75.7840   57.5680 H   0  0  0  0  0  0  0  0  0  0  0  0
   41.9680   72.4990   62.1200 C   0  0  0  0  0  0  0  0  0  0  0  0
   42.8310   72.1640   61.0670 C   0  0  0  0  0  0  0  0  0  0  0  0
   43.3560   70.8770   60.9390 C   0  0  0  0  0  0  0  0  0  0  0  0
   43.0370   69.8820   61.8520 C   0  0  0  0  0  0  0  0  0  0  0  0
   43.3270   68.5880   62.0460 N   0  0  0  0  0  0  0  0  0  0  0  0
   42.6940   68.1180   63.1460 C   0  0  0  0  0  0  0  0  0  0  0  0
   42.0080   69.1680   63.6180 N   0  0  0  0  0  0  0  0  0  0  0  0
   42.1970   70.2530   62.8520 C   0  0  0  0  0  0  0  0  0  0  0  0
   41.6350   71.5090   63.0500 C   0  0  0  0  0  0  0  0  0  0  0  0
   41.5710   73.5000   62.2060 H   0  0  0  0  0  0  0  0  0  0  0  0
   44.0280   70.6170   60.1230 H   0  0  0  0  0  0  0  0  0  0  0  0
   43.9560   68.0430   61.4200 H   0  0  0  0  0  0  0  0  0  0  0  0
   42.7300   67.1190   63.5590 H   0  0  0  0  0  0  0  0  0  0  0  0
   40.9710   71.7190   63.8800 H   0  0  0  0  0  0  0  0  0  0  0  0
   40.8400   75.2070   56.6860 Cl  0  0  0  0  0  0  0  0  0  0  0  0
   40.9300   76.5220   57.8460 C   0  0  0  0  0  0  0  0  0  0  0  0
   41.8080   76.3890   58.8880 C   0  0  0  0  0  0  0  0  0  0  0  0
   41.7960   77.4580   59.7830 C   0  0  0  0  0  0  0  0  0  0  0  0
   40.9780   78.5620   59.6480 C   0  0  0  0  0  0  0  0  0  0  0  0
   40.1110   78.6270   58.5600 C   0  0  0  0  0  0  0  0  0  0  0  0
   39.0700   80.0120   58.3710 Cl  0  0  0  0  0  0  0  0  0  0  0  0
   40.0920   77.5870   57.6500 C   0  0  0  0  0  0  0  0  0  0  0  0
   42.4530   77.4460   60.6390 H   0  0  0  0  0  0  0  0  0  0  0  0
   41.0170   79.3550   60.3750 H   0  0  0  0  0  0  0  0  0  0  0  0
   38.0230   76.9520   56.7300 C   0  0  0  0  0  3  0  0  0  0  0  0
   39.1670   77.7070   56.5300 C   0  0  0  0  0  0  0  0  0  0  0  0
   39.3010   78.4420   55.3690 C   0  0  0  0  0  0  0  0  0  0  0  0
   40.2300   78.9930   55.3160 H   0  0  0  0  0  0  0  0  0  0  0  0
   38.2860   78.4050   54.4320 C   0  0  0  0  0  0  0  0  0  0  0  0
   38.2280   79.0460   53.2500 N   0  0  0  0  0  0  0  0  0  0  0  0
   38.9510   79.6820   52.8440 H   0  0  0  0  0  0  0  0  0  0  0  0
   37.0550   78.7030   52.6960 C   0  0  0  0  0  0  0  0  0  0  0  0
   36.6610   79.0260   51.7410 H   0  0  0  0  0  0  0  0  0  0  0  0
   36.3510   77.8370   53.5250 C   0  0  0  0  0  3  0  0  0  0  0  0
   37.1490   77.6510   54.6370 C   0  0  0  0  0  0  0  0  0  0  0  0
   36.9950   76.9000   55.8070 C   0  0  0  0  0  3  0  0  0  0  0  0
  1  6  1  0  0  0  0
  2  1  2  0  0  0  0
  2  3  1  0  0  0  0
  3  4  2  0  0  0  0
  4  5  1  0  0  0  0
  5 10  1  0  0  0  0
  6  5  2  0  0  0  0
  7  1  1  0  0  0  0
  8  2  1  0  0  0  0
  9 18  1  0  0  0  0
  9 17  1  0  0  0  0
 10  9  2  0  0  0  0
 11 10  1  0  0  0  0
 11 12  2  0  0  0  0
 12 13  1  0  0  0  0
 12 16  1  0  0  0  0
 13 14  1  0  0  0  0
 14 21  1  0  0  0  0
 14 15  2  0  0  0  0
 16 17  2  0  0  0  0
 16 15  1  0  0  0  0
 17 22  1  0  0  0  0
 19 11  1  0  0  0  0
 20 13  1  0  0  0  0
 23 24  1  0  0  0  0
 24 25  1  0  0  0  0
 25  3  1  0  0  0  0
 25 26  2  0  0  0  0
 26 31  1  0  0  0  0
 27 26  1  0  0  0  0
 27 32  1  0  0  0  0
 28 27  2  0  0  0  0
 29 28  1  0  0  0  0
 30 24  2  0  0  0  0
 30 28  1  0  0  0  0
 34 33  1  0  0  0  0
 34 30  1  0  0  0  0
 35 34  2  0  0  0  0
 36 35  1  0  0  0  0
 37 43  2  0  0  0  0
 37 35  1  0  0  0  0
 38 37  1  0  0  0  0
 39 38  1  0  0  0  0
 40 38  1  0  0  0  0
 40 42  2  0  0  0  0
 41 40  1  0  0  0  0
 42 43  1  0  0  0  0
 43 44  1  0  0  0  0
 44 33  2  0  0  0  0
M  END
>  <minimizedAffinity>
-8.12239075

$$$$

 OpenBabel03212520063D

 44 49  0  0  0  0  0  0  0  0999 V2000
   39.7270   79.9850   58.0560 C   0  0  0  0  0  0  0  0  0  0  0  0
   39.9810   78.8550   58.8550 C   0  0  0  0  0  0  0  0  0  0  0  0
   39.4190   77.6530   58.4420 C   0  0  0  0  0  0  0  0  0  0  0  0
   38.6690   77.6040   57.3180 N   0  0  0  0  0  0  0  0  0  0  0  0
   38.4470   78.7150   56.5700 C   0  0  0  0  0  0  0  0  0  0  0  0
   38.9750   79.9190   56.9350 N   0  0  0  0  0  0  0  0  0  0  0  0
   40.0930   80.9870   58.2480 H   0  0  0  0  0  0  0  0  0  0  0  0
   40.6210   79.1330   59.6550 H   0  0  0  0  0  0  0  0  0  0  0  0
   36.2780   78.6810   55.4240 C   0  0  0  0  0  0  0  0  0  0  0  0
   37.6770   78.6470   55.3400 C   0  0  0  0  0  0  0  0  0  0  0  0
   38.3290   78.5730   54.1070 C   0  0  0  0  0  0  0  0  0  0  0  0
   37.6110   78.5330   52.9210 C   0  0  0  0  0  0  0  0  0  0  0  0
   37.8730   78.4700   51.6090 N   0  0  0  0  0  0  0  0  0  0  0  0
   36.7240   78.4640   50.8940 C   0  0  0  0  0  0  0  0  0  0  0  0
   35.7500   78.5270   51.8130 N   0  0  0  0  0  0  0  0  0  0  0  0
   36.2600   78.5690   53.0540 C   0  0  0  0  0  0  0  0  0  0  0  0
   35.5360   78.6410   54.2380 C   0  0  0  0  0  0  0  0  0  0  0  0
   35.7880   78.7360   56.3860 H   0  0  0  0  0  0  0  0  0  0  0  0
   39.4160   78.5460   54.0420 H   0  0  0  0  0  0  0  0  0  0  0  0
   38.8380   78.4310   51.2190 H   0  0  0  0  0  0  0  0  0  0  0  0
   36.6080   78.4200   49.8190 H   0  0  0  0  0  0  0  0  0  0  0  0
   34.4540   78.6650   54.2520 H   0  0  0  0  0  0  0  0  0  0  0  0
   40.7250   75.3870   57.0060 Cl  0  0  0  0  0  0  0  0  0  0  0  0
   40.2020   75.3240   58.6820 C   0  0  0  0  0  0  0  0  0  0  0  0
   39.6360   76.4520   59.2120 C   0  0  0  0  0  0  0  0  0  0  0  0
   39.2790   76.3330   60.5540 C   0  0  0  0  0  0  0  0  0  0  0  0
   39.4710   75.1880   61.3000 C   0  0  0  0  0  0  0  0  0  0  0  0
   40.0520   74.0780   60.6910 C   0  0  0  0  0  0  0  0  0  0  0  0
   40.3040   72.6220   61.6150 Cl  0  0  0  0  0  0  0  0  0  0  0  0
   40.4210   74.1550   59.3610 C   0  0  0  0  0  0  0  0  0  0  0  0
   38.8270   77.1700   61.0630 H   0  0  0  0  0  0  0  0  0  0  0  0
   39.1730   75.1610   62.3350 H   0  0  0  0  0  0  0  0  0  0  0  0
   42.4020   72.9710   58.9080 C   0  0  0  0  0  3  0  0  0  0  0  0
   41.0240   72.9650   58.7730 C   0  0  0  0  0  0  0  0  0  0  0  0
   40.4070   71.9050   58.1380 C   0  0  0  0  0  0  0  0  0  0  0  0
   39.3310   72.0020   58.0880 H   0  0  0  0  0  0  0  0  0  0  0  0
   41.1860   70.8730   57.6510 C   0  0  0  0  0  0  0  0  0  0  0  0
   40.7790   69.7620   57.0090 N   0  0  0  0  0  0  0  0  0  0  0  0
   39.7960   69.4990   56.7710 H   0  0  0  0  0  0  0  0  0  0  0  0
   41.8900   69.0610   56.7330 C   0  0  0  0  0  0  0  0  0  0  0  0
   41.9560   68.1100   56.2220 H   0  0  0  0  0  0  0  0  0  0  0  0
   43.0210   69.7230   57.2010 C   0  0  0  0  0  3  0  0  0  0  0  0
   42.5590   70.8850   57.7880 C   0  0  0  0  0  0  0  0  0  0  0  0
   43.2010   71.9510   58.4290 C   0  0  0  0  0  3  0  0  0  0  0  0
  1  7  1  0  0  0  0
  1  2  1  0  0  0  0
  2  8  1  0  0  0  0
  3  2  2  0  0  0  0
  3 25  1  0  0  0  0
  4  3  1  0  0  0  0
  5  6  1  0  0  0  0
  5  4  2  0  0  0  0
  6  1  2  0  0  0  0
  9 18  1  0  0  0  0
 10  9  1  0  0  0  0
 10  5  1  0  0  0  0
 11 10  2  0  0  0  0
 12 16  2  0  0  0  0
 12 11  1  0  0  0  0
 13 12  1  0  0  0  0
 14 13  1  0  0  0  0
 14 15  2  0  0  0  0
 15 16  1  0  0  0  0
 16 17  1  0  0  0  0
 17 22  1  0  0  0  0
 17  9  2  0  0  0  0
 19 11  1  0  0  0  0
 20 13  1  0  0  0  0
 21 14  1  0  0  0  0
 23 24  1  0  0  0  0
 24 25  2  0  0  0  0
 24 30  1  0  0  0  0
 25 26  1  0  0  0  0
 26 31  1  0  0  0  0
 26 27  2  0  0  0  0
 27 32  1  0  0  0  0
 28 27  1  0  0  0  0
 28 29  1  0  0  0  0
 30 28  2  0  0  0  0
 34 33  1  0  0  0  0
 34 30  1  0  0  0  0
 35 34  2  0  0  0  0
 36 35  1  0  0  0  0
 37 43  2  0  0  0  0
 37 35  1  0  0  0  0
 38 37  1  0  0  0  0
 39 38  1  0  0  0  0
 40 38  1  0  0  0  0
 40 42  2  0  0  0  0
 41 40  1  0  0  0  0
 42 43  1  0  0  0  0
 43 44  1  0  0  0  0
 44 33  2  0  0  0  0
M  END
>  <minimizedAffinity>
-8.06897449

$$$$

 OpenBabel03212520063D

 44 49  0  0  0  0  0  0  0  0999 V2000
   42.7860   76.3790   59.0920 C   0  0  0  0  0  0  0  0  0  0  0  0
   42.7040   74.9770   59.1830 C   0  0  0  0  0  0  0  0  0  0  0  0
   41.5440   74.3810   58.7010 C   0  0  0  0  0  0  0  0  0  0  0  0
   40.5590   75.1410   58.1720 N   0  0  0  0  0  0  0  0  0  0  0  0
   40.6740   76.4920   58.0980 C   0  0  0  0  0  0  0  0  0  0  0  0
   41.7920   77.1240   58.5600 N   0  0  0  0  0  0  0  0  0  0  0  0
   43.6210   76.9830   59.4250 H   0  0  0  0  0  0  0  0  0  0  0  0
   43.6080   74.6020   59.5950 H   0  0  0  0  0  0  0  0  0  0  0  0
   39.6430   78.6840   57.7060 C   0  0  0  0  0  0  0  0  0  0  0  0
   39.6310   77.2990   57.4880 C   0  0  0  0  0  0  0  0  0  0  0  0
   38.6590   76.6980   56.6860 C   0  0  0  0  0  0  0  0  0  0  0  0
   37.6700   77.4550   56.0740 C   0  0  0  0  0  0  0  0  0  0  0  0
   36.6210   77.2460   55.2680 N   0  0  0  0  0  0  0  0  0  0  0  0
   35.9980   78.4130   54.9840 C   0  0  0  0  0  0  0  0  0  0  0  0
   36.7020   79.3440   55.6420 N   0  0  0  0  0  0  0  0  0  0  0  0
   37.7240   78.7900   56.3150 C   0  0  0  0  0  0  0  0  0  0  0  0
   38.6540   79.4640   57.0980 C   0  0  0  0  0  0  0  0  0  0  0  0
   40.4010   79.1330   58.3310 H   0  0  0  0  0  0  0  0  0  0  0  0
   38.6480   75.6220   56.5170 H   0  0  0  0  0  0  0  0  0  0  0  0
   36.3440   76.3030   54.9230 H   0  0  0  0  0  0  0  0  0  0  0  0
   35.1260   78.5690   54.3630 H   0  0  0  0  0  0  0  0  0  0  0  0
   38.6220   80.5370   57.2360 H   0  0  0  0  0  0  0  0  0  0  0  0
   42.8180   73.0170   61.0290 Cl  0  0  0  0  0  0  0  0  0  0  0  0
   41.9370   72.1840   59.7580 C   0  0  0  0  0  0  0  0  0  0  0  0
   41.3890   72.9480   58.7620 C   0  0  0  0  0  0  0  0  0  0  0  0
   40.6780   72.2180   57.8110 C   0  0  0  0  0  0  0  0  0  0  0  0
   40.5300   70.8460   57.8500 C   0  0  0  0  0  0  0  0  0  0  0  0
   41.1180   70.1360   58.8940 C   0  0  0  0  0  0  0  0  0  0  0  0
   40.9430   68.4040   58.9640 Cl  0  0  0  0  0  0  0  0  0  0  0  0
   41.8310   70.8230   59.8590 C   0  0  0  0  0  0  0  0  0  0  0  0
   40.2070   72.7310   56.9870 H   0  0  0  0  0  0  0  0  0  0  0  0
   39.9670   70.3420   57.0840 H   0  0  0  0  0  0  0  0  0  0  0  0
   41.7520   70.1990   62.1250 C   0  0  0  0  0  3  0  0  0  0  0  0
   42.4280   70.0310   60.9280 C   0  0  0  0  0  0  0  0  0  0  0  0
   43.5220   69.1900   60.8770 C   0  0  0  0  0  0  0  0  0  0  0  0
   43.9730   69.1330   59.8960 H   0  0  0  0  0  0  0  0  0  0  0  0
   43.9150   68.5340   62.0280 C   0  0  0  0  0  0  0  0  0  0  0  0
   44.9440   67.6810   62.1820 N   0  0  0  0  0  0  0  0  0  0  0  0
   45.6210   67.3730   61.4470 H   0  0  0  0  0  0  0  0  0  0  0  0
   44.9290   67.3040   63.4700 C   0  0  0  0  0  0  0  0  0  0  0  0
   45.6090   66.6220   63.9630 H   0  0  0  0  0  0  0  0  0  0  0  0
   43.8830   67.9180   64.1510 C   0  0  0  0  0  3  0  0  0  0  0  0
   43.2380   68.7060   63.2180 C   0  0  0  0  0  0  0  0  0  0  0  0
   42.1280   69.5540   63.2880 C   0  0  0  0  0  3  0  0  0  0  0  0
  1  2  1  0  0  0  0
  1  7  1  0  0  0  0
  2  8  1  0  0  0  0
  3 25  1  0  0  0  0
  3  2  2  0  0  0  0
  4  3  1  0  0  0  0
  5  4  2  0  0  0  0
  5  6  1  0  0  0  0
  6  1  2  0  0  0  0
  9 18  1  0  0  0  0
 10  9  1  0  0  0  0
 10  5  1  0  0  0  0
 11 10  2  0  0  0  0
 12 16  2  0  0  0  0
 12 11  1  0  0  0  0
 13 12  1  0  0  0  0
 14 13  1  0  0  0  0
 14 15  2  0  0  0  0
 15 16  1  0  0  0  0
 16 17  1  0  0  0  0
 17 22  1  0  0  0  0
 17  9  2  0  0  0  0
 19 11  1  0  0  0  0
 20 13  1  0  0  0  0
 21 14  1  0  0  0  0
 24 30  1  0  0  0  0
 24 23  1  0  0  0  0
 25 24  2  0  0  0  0
 26 27  2  0  0  0  0
 26 25  1  0  0  0  0
 27 28  1  0  0  0  0
 28 29  1  0  0  0  0
 28 30  2  0  0  0  0
 30 34  1  0  0  0  0
 31 26  1  0  0  0  0
 32 27  1  0  0  0  0
 33 44  1  0  0  0  0
 34 33  2  0  0  0  0
 35 34  1  0  0  0  0
 35 37  2  0  0  0  0
 36 35  1  0  0  0  0
 37 38  1  0  0  0  0
 37 43  1  0  0  0  0
 38 40  1  0  0  0  0
 39 38  1  0  0  0  0
 40 41  1  0  0  0  0
 40 42  2  0  0  0  0
 43 44  2  0  0  0  0
 43 42  1  0  0  0  0
M  END
>  <minimizedAffinity>
-8.01070499

$$$$

 OpenBabel03212520063D

 44 49  0  0  0  0  0  0  0  0999 V2000
   43.5720   74.3680   59.8530 C   0  0  0  0  0  0  0  0  0  0  0  0
   43.5320   73.2060   60.6450 C   0  0  0  0  0  0  0  0  0  0  0  0
   42.3010   72.5760   60.7770 C   0  0  0  0  0  0  0  0  0  0  0  0
   41.2100   73.0790   60.1570 N   0  0  0  0  0  0  0  0  0  0  0  0
   41.2860   74.2020   59.3980 C   0  0  0  0  0  0  0  0  0  0  0  0
   42.4730   74.8580   59.2400 N   0  0  0  0  0  0  0  0  0  0  0  0
   44.4540   74.9670   59.6590 H   0  0  0  0  0  0  0  0  0  0  0  0
   44.5120   72.9880   60.9920 H   0  0  0  0  0  0  0  0  0  0  0  0
   39.9440   76.1010   58.6170 C   0  0  0  0  0  0  0  0  0  0  0  0
   40.1190   74.7130   58.6990 C   0  0  0  0  0  0  0  0  0  0  0  0
   39.2150   73.8300   58.1060 C   0  0  0  0  0  0  0  0  0  0  0  0
   38.1090   74.2990   57.4130 C   0  0  0  0  0  0  0  0  0  0  0  0
   37.0720   73.7830   56.7380 N   0  0  0  0  0  0  0  0  0  0  0  0
   36.2820   74.7690   56.2530 C   0  0  0  0  0  0  0  0  0  0  0  0
   36.8700   75.9050   56.6530 N   0  0  0  0  0  0  0  0  0  0  0  0
   37.9820   75.6500   57.3600 C   0  0  0  0  0  0  0  0  0  0  0  0
   38.8340   76.5940   57.9220 C   0  0  0  0  0  0  0  0  0  0  0  0
   40.6530   76.7720   59.0820 H   0  0  0  0  0  0  0  0  0  0  0  0
   39.3500   72.7510   58.1710 H   0  0  0  0  0  0  0  0  0  0  0  0
   36.9200   72.7600   56.6190 H   0  0  0  0  0  0  0  0  0  0  0  0
   35.3760   74.6700   55.6710 H   0  0  0  0  0  0  0  0  0  0  0  0
   38.6560   77.6580   57.8310 H   0  0  0  0  0  0  0  0  0  0  0  0
   43.1960   70.0380   59.4870 Cl  0  0  0  0  0  0  0  0  0  0  0  0
   42.5310   70.1400   61.1090 C   0  0  0  0  0  0  0  0  0  0  0  0
   42.1830   71.3790   61.5760 C   0  0  0  0  0  0  0  0  0  0  0  0
   41.6960   71.3800   62.8820 C   0  0  0  0  0  0  0  0  0  0  0  0
   41.5680   70.2430   63.6540 C   0  0  0  0  0  0  0  0  0  0  0  0
   41.9420   69.0160   63.1100 C   0  0  0  0  0  0  0  0  0  0  0  0
   41.7890   67.5680   64.0670 Cl  0  0  0  0  0  0  0  0  0  0  0  0
   42.4300   68.9720   61.8180 C   0  0  0  0  0  0  0  0  0  0  0  0
   41.3960   72.3100   63.3390 H   0  0  0  0  0  0  0  0  0  0  0  0
   41.1850   70.3120   64.6570 H   0  0  0  0  0  0  0  0  0  0  0  0
   41.7490   67.0510   60.6430 C   0  0  0  0  0  3  0  0  0  0  0  0
   42.8050   67.6630   61.2980 C   0  0  0  0  0  0  0  0  0  0  0  0
   44.0200   67.0110   61.3850 C   0  0  0  0  0  0  0  0  0  0  0  0
   44.7730   67.5770   61.9160 H   0  0  0  0  0  0  0  0  0  0  0  0
   44.1500   65.7600   60.8130 C   0  0  0  0  0  0  0  0  0  0  0  0
   45.2410   64.9720   60.7900 N   0  0  0  0  0  0  0  0  0  0  0  0
   46.1760   65.1810   61.2060 H   0  0  0  0  0  0  0  0  0  0  0  0
   44.8850   63.8610   60.1250 C   0  0  0  0  0  0  0  0  0  0  0  0
   45.5040   63.0000   59.9080 H   0  0  0  0  0  0  0  0  0  0  0  0
   43.5580   63.9340   59.7150 C   0  0  0  0  0  3  0  0  0  0  0  0
   43.0940   65.1560   60.1620 C   0  0  0  0  0  0  0  0  0  0  0  0
   41.8570   65.8010   60.0640 C   0  0  0  0  0  3  0  0  0  0  0  0
  1  2  1  0  0  0  0
  2  3  2  0  0  0  0
  2  8  1  0  0  0  0
  3 25  1  0  0  0  0
  4  3  1  0  0  0  0
  5  4  2  0  0  0  0
  6  5  1  0  0  0  0
  6  1  2  0  0  0  0
  7  1  1  0  0  0  0
  9 10  1  0  0  0  0
  9 18  1  0  0  0  0
 10  5  1  0  0  0  0
 11 19  1  0  0  0  0
 11 10  2  0  0  0  0
 12 11  1  0  0  0  0
 13 12  1  0  0  0  0
 14 15  2  0  0  0  0
 14 13  1  0  0  0  0
 15 16  1  0  0  0  0
 16 12  2  0  0  0  0
 16 17  1  0  0  0  0
 17  9  2  0  0  0  0
 20 13  1  0  0  0  0
 21 14  1  0  0  0  0
 22 17  1  0  0  0  0
 23 24  1  0  0  0  0
 24 25  2  0  0  0  0
 24 30  1  0  0  0  0
 25 26  1  0  0  0  0
 26 31  1  0  0  0  0
 26 27  2  0  0  0  0
 27 32  1  0  0  0  0
 28 27  1  0  0  0  0
 28 29  1  0  0  0  0
 30 28  2  0  0  0  0
 33 34  1  0  0  0  0
 34 35  2  0  0  0  0
 34 30  1  0  0  0  0
 35 36  1  0  0  0  0
 37 35  1  0  0  0  0
 38 37  1  0  0  0  0
 38 39  1  0  0  0  0
 40 38  1  0  0  0  0
 41 40  1  0  0  0  0
 42 40  2  0  0  0  0
 42 43  1  0  0  0  0
 43 37  2  0  0  0  0
 44 43  1  0  0  0  0
 44 33  2  0  0  0  0
M  END
>  <minimizedAffinity>
-8.00413418

$$$$

 OpenBabel03212520063D

 44 49  0  0  0  0  0  0  0  0999 V2000
   42.6310   73.2520   56.4750 C   0  0  0  0  0  0  0  0  0  0  0  0
   43.1070   72.0890   57.1090 C   0  0  0  0  0  0  0  0  0  0  0  0
   43.0440   72.0580   58.4970 C   0  0  0  0  0  0  0  0  0  0  0  0
   42.5400   73.1110   59.1790 N   0  0  0  0  0  0  0  0  0  0  0  0
   42.0880   74.2170   58.5330 C   0  0  0  0  0  0  0  0  0  0  0  0
   42.1310   74.2960   57.1710 N   0  0  0  0  0  0  0  0  0  0  0  0
   42.6170   73.4240   55.4060 H   0  0  0  0  0  0  0  0  0  0  0  0
   43.4140   71.3910   56.3700 H   0  0  0  0  0  0  0  0  0  0  0  0
   40.3970   75.0780   60.0880 C   0  0  0  0  0  0  0  0  0  0  0  0
   41.5070   75.3270   59.2690 C   0  0  0  0  0  0  0  0  0  0  0  0
   42.0680   76.6020   59.1710 C   0  0  0  0  0  0  0  0  0  0  0  0
   41.5430   77.6690   59.8860 C   0  0  0  0  0  0  0  0  0  0  0  0
   41.8010   78.9740   60.0460 N   0  0  0  0  0  0  0  0  0  0  0  0
   40.9200   79.5300   60.9090 C   0  0  0  0  0  0  0  0  0  0  0  0
   40.1150   78.5220   61.2720 N   0  0  0  0  0  0  0  0  0  0  0  0
   40.4700   77.3790   60.6660 C   0  0  0  0  0  0  0  0  0  0  0  0
   39.8540   76.1420   60.8170 C   0  0  0  0  0  0  0  0  0  0  0  0
   39.9740   74.0860   60.1520 H   0  0  0  0  0  0  0  0  0  0  0  0
   42.9290   76.7960   58.5340 H   0  0  0  0  0  0  0  0  0  0  0  0
   42.5790   79.4670   59.5600 H   0  0  0  0  0  0  0  0  0  0  0  0
   40.8700   80.5600   61.2390 H   0  0  0  0  0  0  0  0  0  0  0  0
   38.9970   75.9990   61.4630 H   0  0  0  0  0  0  0  0  0  0  0  0
   41.2780   71.0580   60.6850 Cl  0  0  0  0  0  0  0  0  0  0  0  0
   42.8240   70.3420   60.2590 C   0  0  0  0  0  0  0  0  0  0  0  0
   43.5150   70.8980   59.2160 C   0  0  0  0  0  0  0  0  0  0  0  0
   44.7140   70.2530   58.9180 C   0  0  0  0  0  0  0  0  0  0  0  0
   45.1820   69.1500   59.6030 C   0  0  0  0  0  0  0  0  0  0  0  0
   44.4240   68.6400   60.6550 C   0  0  0  0  0  0  0  0  0  0  0  0
   44.9970   67.2480   61.5330 Cl  0  0  0  0  0  0  0  0  0  0  0  0
   43.2280   69.2510   60.9820 C   0  0  0  0  0  0  0  0  0  0  0  0
   45.3300   70.6160   58.1100 H   0  0  0  0  0  0  0  0  0  0  0  0
   46.1180   68.6970   59.3230 H   0  0  0  0  0  0  0  0  0  0  0  0
   42.8680   69.2160   63.3060 C   0  0  0  0  0  3  0  0  0  0  0  0
   42.4760   68.6790   62.0910 C   0  0  0  0  0  0  0  0  0  0  0  0
   41.4810   67.7210   62.0610 C   0  0  0  0  0  0  0  0  0  0  0  0
   41.2540   67.3700   61.0640 H   0  0  0  0  0  0  0  0  0  0  0  0
   40.9010   67.3220   63.2500 C   0  0  0  0  0  0  0  0  0  0  0  0
   39.9260   66.4110   63.4300 N   0  0  0  0  0  0  0  0  0  0  0  0
   39.4460   65.8520   62.6890 H   0  0  0  0  0  0  0  0  0  0  0  0
   39.6960   66.3660   64.7510 C   0  0  0  0  0  0  0  0  0  0  0  0
   38.9770   65.7450   65.2710 H   0  0  0  0  0  0  0  0  0  0  0  0
   40.5260   67.2520   65.4290 C   0  0  0  0  0  3  0  0  0  0  0  0
   41.2970   67.8610   64.4570 C   0  0  0  0  0  0  0  0  0  0  0  0
   42.3020   68.8330   64.5070 C   0  0  0  0  0  3  0  0  0  0  0  0
  1  2  2  0  0  0  0
  1  6  1  0  0  0  0
  2  3  1  0  0  0  0
  3  4  2  0  0  0  0
  3 25  1  0  0  0  0
  5  4  1  0  0  0  0
  5 10  1  0  0  0  0
  6  5  2  0  0  0  0
  7  1  1  0  0  0  0
  8  2  1  0  0  0  0
  9 18  1  0  0  0  0
  9 17  1  0  0  0  0
 10  9  2  0  0  0  0
 11 10  1  0  0  0  0
 11 12  2  0  0  0  0
 12 13  1  0  0  0  0
 12 16  1  0  0  0  0
 13 14  1  0  0  0  0
 14 21  1  0  0  0  0
 14 15  2  0  0  0  0
 16 17  2  0  0  0  0
 16 15  1  0  0  0  0
 17 22  1  0  0  0  0
 19 11  1  0  0  0  0
 20 13  1  0  0  0  0
 24 23  1  0  0  0  0
 24 30  1  0  0  0  0
 25 24  2  0  0  0  0
 26 25  1  0  0  0  0
 26 27  2  0  0  0  0
 27 28  1  0  0  0  0
 28 30  2  0  0  0  0
 28 29  1  0  0  0  0
 30 34  1  0  0  0  0
 31 26  1  0  0  0  0
 32 27  1  0  0  0  0
 33 44  1  0  0  0  0
 34 33  2  0  0  0  0
 35 34  1  0  0  0  0
 35 37  2  0  0  0  0
 36 35  1  0  0  0  0
 37 38  1  0  0  0  0
 37 43  1  0  0  0  0
 38 40  1  0  0  0  0
 39 38  1  0  0  0  0
 40 41  1  0  0  0  0
 40 42  2  0  0  0  0
 43 44  2  0  0  0  0
 43 42  1  0  0  0  0
M  END
>  <minimizedAffinity>
-7.89219522

$$$$

 OpenBabel03212520063D

 44 49  0  0  0  0  0  0  0  0999 V2000
   43.3950   75.3030   59.5610 C   0  0  0  0  0  0  0  0  0  0  0  0
   43.7910   73.9880   59.8680 C   0  0  0  0  0  0  0  0  0  0  0  0
   42.8900   72.9740   59.5700 C   0  0  0  0  0  0  0  0  0  0  0  0
   41.6960   73.2680   59.0080 N   0  0  0  0  0  0  0  0  0  0  0  0
   41.3480   74.5500   58.7230 C   0  0  0  0  0  0  0  0  0  0  0  0
   42.1980   75.5810   59.0000 N   0  0  0  0  0  0  0  0  0  0  0  0
   43.9850   76.1950   59.7360 H   0  0  0  0  0  0  0  0  0  0  0  0
   44.7770   74.0060   60.2630 H   0  0  0  0  0  0  0  0  0  0  0  0
   39.0410   73.9220   58.1750 C   0  0  0  0  0  0  0  0  0  0  0  0
   40.0820   74.8560   58.0800 C   0  0  0  0  0  0  0  0  0  0  0  0
   39.9120   76.0670   57.4060 C   0  0  0  0  0  0  0  0  0  0  0  0
   38.7030   76.3880   56.8070 C   0  0  0  0  0  0  0  0  0  0  0  0
   38.1840   77.4070   56.1100 N   0  0  0  0  0  0  0  0  0  0  0  0
   36.8970   77.1510   55.7790 C   0  0  0  0  0  0  0  0  0  0  0  0
   36.6460   75.9410   56.2960 N   0  0  0  0  0  0  0  0  0  0  0  0
   37.7260   75.4520   56.9270 C   0  0  0  0  0  0  0  0  0  0  0  0
   37.8130   74.2270   57.5770 C   0  0  0  0  0  0  0  0  0  0  0  0
   39.1880   72.9880   58.6990 H   0  0  0  0  0  0  0  0  0  0  0  0
   40.7210   76.7920   57.3310 H   0  0  0  0  0  0  0  0  0  0  0  0
   38.7200   78.2670   55.8700 H   0  0  0  0  0  0  0  0  0  0  0  0
   36.2160   77.7790   55.2200 H   0  0  0  0  0  0  0  0  0  0  0  0
   36.9800   73.5380   57.6250 H   0  0  0  0  0  0  0  0  0  0  0  0
   41.3930   71.6910   61.8100 Cl  0  0  0  0  0  0  0  0  0  0  0  0
   42.6410   70.8890   60.8700 C   0  0  0  0  0  0  0  0  0  0  0  0
   43.2270   71.6000   59.8570 C   0  0  0  0  0  0  0  0  0  0  0  0
   44.1820   70.8840   59.1370 C   0  0  0  0  0  0  0  0  0  0  0  0
   44.5220   69.5740   59.4070 C   0  0  0  0  0  0  0  0  0  0  0  0
   43.8840   68.9160   60.4560 C   0  0  0  0  0  0  0  0  0  0  0  0
   44.2980   67.2610   60.8130 Cl  0  0  0  0  0  0  0  0  0  0  0  0
   42.9300   69.5910   61.1940 C   0  0  0  0  0  0  0  0  0  0  0  0
   44.6990   71.3580   58.3170 H   0  0  0  0  0  0  0  0  0  0  0  0
   45.2690   69.0760   58.8120 H   0  0  0  0  0  0  0  0  0  0  0  0
   42.9630   69.0350   63.4790 C   0  0  0  0  0  3  0  0  0  0  0  0
   42.2940   68.8560   62.2800 C   0  0  0  0  0  0  0  0  0  0  0  0
   41.1710   68.0520   62.2420 C   0  0  0  0  0  0  0  0  0  0  0  0
   40.7280   67.9810   61.2590 H   0  0  0  0  0  0  0  0  0  0  0  0
   40.7430   67.4460   63.4080 C   0  0  0  0  0  0  0  0  0  0  0  0
   39.6820   66.6360   63.5770 N   0  0  0  0  0  0  0  0  0  0  0  0
   39.0020   66.3300   62.8440 H   0  0  0  0  0  0  0  0  0  0  0  0
   39.6720   66.2980   64.8760 C   0  0  0  0  0  0  0  0  0  0  0  0
   38.9620   65.6560   65.3810 H   0  0  0  0  0  0  0  0  0  0  0  0
   40.7320   66.8940   65.5500 C   0  0  0  0  0  3  0  0  0  0  0  0
   41.4150   67.6290   64.5990 C   0  0  0  0  0  0  0  0  0  0  0  0
   42.5540   68.4400   64.6570 C   0  0  0  0  0  3  0  0  0  0  0  0
  1  7  1  0  0  0  0
  1  2  1  0  0  0  0
  2  8  1  0  0  0  0
  3 25  1  0  0  0  0
  3  2  2  0  0  0  0
  4  3  1  0  0  0  0
  5  6  1  0  0  0  0
  5  4  2  0  0  0  0
  6  1  2  0  0  0  0
  9 18  1  0  0  0  0
 10  9  1  0  0  0  0
 10  5  1  0  0  0  0
 11 10  2  0  0  0  0
 12 16  2  0  0  0  0
 12 11  1  0  0  0  0
 13 12  1  0  0  0  0
 14 13  1  0  0  0  0
 14 15  2  0  0  0  0
 15 16  1  0  0  0  0
 16 17  1  0  0  0  0
 17 22  1  0  0  0  0
 17  9  2  0  0  0  0
 19 11  1  0  0  0  0
 20 13  1  0  0  0  0
 21 14  1  0  0  0  0
 24 30  1  0  0  0  0
 24 23  1  0  0  0  0
 25 24  2  0  0  0  0
 26 27  2  0  0  0  0
 26 25  1  0  0  0  0
 27 28  1  0  0  0  0
 28 29  1  0  0  0  0
 28 30  2  0  0  0  0
 30 34  1  0  0  0  0
 31 26  1  0  0  0  0
 32 27  1  0  0  0  0
 33 44  1  0  0  0  0
 34 33  2  0  0  0  0
 35 34  1  0  0  0  0
 35 37  2  0  0  0  0
 36 35  1  0  0  0  0
 37 38  1  0  0  0  0
 37 43  1  0  0  0  0
 38 40  1  0  0  0  0
 39 38  1  0  0  0  0
 40 41  1  0  0  0  0
 40 42  2  0  0  0  0
 43 44  2  0  0  0  0
 43 42  1  0  0  0  0
M  END
>  <minimizedAffinity>
-7.76981926

$$$$

 OpenBabel03212520063D

 44 49  0  0  0  0  0  0  0  0999 V2000
   44.4170   74.4480   59.9520 C   0  0  0  0  0  0  0  0  0  0  0  0
   43.3710   75.0940   59.2670 C   0  0  0  0  0  0  0  0  0  0  0  0
   42.1270   74.4750   59.2880 C   0  0  0  0  0  0  0  0  0  0  0  0
   41.9600   73.3060   59.9480 N   0  0  0  0  0  0  0  0  0  0  0  0
   42.9930   72.7120   60.6000 C   0  0  0  0  0  0  0  0  0  0  0  0
   44.2340   73.2800   60.6060 N   0  0  0  0  0  0  0  0  0  0  0  0
   45.4370   74.8050   60.0230 H   0  0  0  0  0  0  0  0  0  0  0  0
   43.7320   76.0070   58.8630 H   0  0  0  0  0  0  0  0  0  0  0  0
   43.4040   70.3090   60.8690 C   0  0  0  0  0  0  0  0  0  0  0  0
   42.7970   71.4790   61.3440 C   0  0  0  0  0  0  0  0  0  0  0  0
   42.0380   71.4810   62.5160 C   0  0  0  0  0  0  0  0  0  0  0  0
   41.8610   70.3190   63.2530 C   0  0  0  0  0  0  0  0  0  0  0  0
   41.2350   69.9480   64.3780 N   0  0  0  0  0  0  0  0  0  0  0  0
   41.4250   68.6290   64.6150 C   0  0  0  0  0  0  0  0  0  0  0  0
   42.1890   68.2060   63.5980 N   0  0  0  0  0  0  0  0  0  0  0  0
   42.4690   69.2120   62.7540 C   0  0  0  0  0  0  0  0  0  0  0  0
   43.2370   69.1270   61.5990 C   0  0  0  0  0  0  0  0  0  0  0  0
   43.9870   70.3240   59.9600 H   0  0  0  0  0  0  0  0  0  0  0  0
   41.5650   72.3900   62.8840 H   0  0  0  0  0  0  0  0  0  0  0  0
   40.6840   70.6040   64.9700 H   0  0  0  0  0  0  0  0  0  0  0  0
   41.0490   68.0400   65.4400 H   0  0  0  0  0  0  0  0  0  0  0  0
   43.6870   68.1980   61.2730 H   0  0  0  0  0  0  0  0  0  0  0  0
   42.1030   74.2220   56.3140 Cl  0  0  0  0  0  0  0  0  0  0  0  0
   40.8730   75.0630   57.2440 C   0  0  0  0  0  0  0  0  0  0  0  0
   41.0070   75.0790   58.6060 C   0  0  0  0  0  0  0  0  0  0  0  0
   39.9750   75.7360   59.2730 C   0  0  0  0  0  0  0  0  0  0  0  0
   38.9030   76.3270   58.6350 C   0  0  0  0  0  0  0  0  0  0  0  0
   38.8360   76.2730   57.2440 C   0  0  0  0  0  0  0  0  0  0  0  0
   37.4910   77.0120   56.4180 Cl  0  0  0  0  0  0  0  0  0  0  0  0
   39.8400   75.6290   56.5460 C   0  0  0  0  0  0  0  0  0  0  0  0
   39.9900   75.8000   60.3500 H   0  0  0  0  0  0  0  0  0  0  0  0
   38.1380   76.8200   59.2090 H   0  0  0  0  0  0  0  0  0  0  0  0
   40.3620   76.6800   54.5080 C   0  0  0  0  0  3  0  0  0  0  0  0
   39.7200   75.6020   55.0930 C   0  0  0  0  0  0  0  0  0  0  0  0
   39.0770   74.6780   54.2930 C   0  0  0  0  0  0  0  0  0  0  0  0
   38.6100   73.8790   54.8520 H   0  0  0  0  0  0  0  0  0  0  0  0
   39.0910   74.8550   52.9230 C   0  0  0  0  0  0  0  0  0  0  0  0
   38.5290   74.0730   51.9830 N   0  0  0  0  0  0  0  0  0  0  0  0
   37.9830   73.1960   52.1400 H   0  0  0  0  0  0  0  0  0  0  0  0
   38.8080   74.6470   50.8020 C   0  0  0  0  0  0  0  0  0  0  0  0
   38.5180   74.3010   49.8190 H   0  0  0  0  0  0  0  0  0  0  0  0
   39.5560   75.8060   50.9810 C   0  0  0  0  0  3  0  0  0  0  0  0
   39.7320   75.9320   52.3460 C   0  0  0  0  0  0  0  0  0  0  0  0
   40.3900   76.8770   53.1400 C   0  0  0  0  0  3  0  0  0  0  0  0
  1  7  1  0  0  0  0
  1  6  1  0  0  0  0
  2  3  1  0  0  0  0
  2  1  2  0  0  0  0
  3  4  2  0  0  0  0
  4  5  1  0  0  0  0
  5  6  2  0  0  0  0
  5 10  1  0  0  0  0
  8  2  1  0  0  0  0
  9 10  2  0  0  0  0
  9 17  1  0  0  0  0
 10 11  1  0  0  0  0
 11 19  1  0  0  0  0
 11 12  2  0  0  0  0
 12 13  1  0  0  0  0
 13 14  1  0  0  0  0
 13 20  1  0  0  0  0
 14 21  1  0  0  0  0
 15 14  2  0  0  0  0
 16 12  1  0  0  0  0
 16 15  1  0  0  0  0
 17 16  2  0  0  0  0
 18  9  1  0  0  0  0
 22 17  1  0  0  0  0
 23 24  1  0  0  0  0
 24 25  1  0  0  0  0
 25 26  2  0  0  0  0
 25  3  1  0  0  0  0
 26 31  1  0  0  0  0
 27 32  1  0  0  0  0
 27 26  1  0  0  0  0
 28 27  2  0  0  0  0
 29 28  1  0  0  0  0
 30 28  1  0  0  0  0
 30 24  2  0  0  0  0
 33 34  1  0  0  0  0
 34 30  1  0  0  0  0
 35 36  1  0  0  0  0
 35 34  2  0  0  0  0
 37 35  1  0  0  0  0
 38 39  1  0  0  0  0
 38 37  1  0  0  0  0
 40 42  2  0  0  0  0
 40 38  1  0  0  0  0
 41 40  1  0  0  0  0
 42 43  1  0  0  0  0
 43 37  2  0  0  0  0
 43 44  1  0  0  0  0
 44 33  2  0  0  0  0
M  END
>  <minimizedAffinity>
-7.76423883

$$$$
