
 OpenBabel03212520483D

 31 34  0  0  0  0  0  0  0  0999 V2000
   41.5920   83.8490   61.4410 C   0  0  0  0  0  0  0  0  0  0  0  0
   41.1470   84.2550   62.6710 C   0  0  0  0  0  0  0  0  0  0  0  0
   40.6920   83.3310   63.6230 C   0  0  0  0  0  0  0  0  0  0  0  0
   40.6900   82.0140   63.3240 N   0  0  0  0  0  0  0  0  0  0  0  0
   41.1280   81.6360   62.1180 C   0  0  0  0  0  0  0  0  0  0  0  0
   41.5700   82.5310   61.1940 N   0  0  0  0  0  0  0  0  0  0  0  0
   41.1610   85.3160   62.8800 H   0  0  0  0  0  0  0  0  0  0  0  0
   40.3590   83.7350   64.5680 H   0  0  0  0  0  0  0  0  0  0  0  0
   42.1420   79.3780   62.1660 C   0  0  0  0  0  3  0  0  0  0  0  0
   41.1600   80.2340   61.7130 C   0  0  0  0  0  0  0  0  0  0  0  0
   40.2370   79.6600   60.8640 C   0  0  0  0  0  0  0  0  0  0  0  0
   39.4260   80.2880   60.4650 H   0  0  0  0  0  0  0  0  0  0  0  0
   40.2980   78.3300   60.5010 C   0  0  0  0  0  0  0  0  0  0  0  0
   39.5720   77.5120   59.7220 N   0  0  0  0  0  0  0  0  0  0  0  0
   38.7100   77.8330   59.1920 H   0  0  0  0  0  0  0  0  0  0  0  0
   40.0670   76.2610   59.7000 C   0  0  0  0  0  0  0  0  0  0  0  0
   39.7190   75.3850   59.1800 H   0  0  0  0  0  0  0  0  0  0  0  0
   41.1950   76.2400   60.5170 C   0  0  0  0  0  3  0  0  0  0  0  0
   41.3070   77.5280   60.9920 C   0  0  0  0  0  0  0  0  0  0  0  0
   42.2790   78.0410   61.8580 C   0  0  0  0  0  3  0  0  0  0  0  0
   43.6020   86.3840   59.7310 C   0  0  0  0  0  0  0  0  0  0  0  0
   42.9210   86.5340   58.5260 C   0  0  0  0  0  0  0  0  0  0  0  0
   41.7840   85.7770   58.2960 C   0  0  0  0  0  0  0  0  0  0  0  0
   41.3890   84.9130   59.2790 N   0  0  0  0  0  0  0  0  0  0  0  0
   42.0720   84.7970   60.4270 C   0  0  0  0  0  0  0  0  0  0  0  0
   43.1700   85.5170   60.6700 N   0  0  0  0  0  0  0  0  0  0  0  0
   44.7460   87.2210   59.8300 N   0  0  0  0  0  0  0  0  0  0  0  0
   43.1860   87.1910   57.7300 H   0  0  0  0  0  0  0  0  0  0  0  0
   41.2010   85.8340   57.3910 H   0  0  0  0  0  0  0  0  0  0  0  0
   45.5070   86.6640   60.2990 H   0  0  0  0  0  0  0  0  0  0  0  0
   44.7480   88.2020   59.4740 H   0  0  0  0  0  0  0  0  0  0  0  0
  1  2  1  0  0  0  0
  2  7  1  0  0  0  0
  2  3  2  0  0  0  0
  3  8  1  0  0  0  0
  4  3  1  0  0  0  0
  5  4  2  0  0  0  0
  6  1  2  0  0  0  0
  6  5  1  0  0  0  0
 10  5  1  0  0  0  0
 10  9  2  0  0  0  0
 11 10  1  0  0  0  0
 12 11  1  0  0  0  0
 13 11  2  0  0  0  0
 13 19  1  0  0  0  0
 14 13  1  0  0  0  0
 15 14  1  0  0  0  0
 16 14  1  0  0  0  0
 16 18  2  0  0  0  0
 17 16  1  0  0  0  0
 18 19  1  0  0  0  0
 19 20  2  0  0  0  0
 20  9  1  0  0  0  0
 21 27  1  0  0  0  0
 21 26  1  0  0  0  0
 22 21  2  0  0  0  0
 23 22  1  0  0  0  0
 23 24  2  0  0  0  0
 24 25  1  0  0  0  0
 25 26  2  0  0  0  0
 25  1  1  0  0  0  0
 27 30  1  0  0  0  0
 28 22  1  0  0  0  0
 29 23  1  0  0  0  0
 31 27  1  0  0  0  0
M  END
>  <minimizedAffinity>
-5.92398214

>  <minimizedRMSD>
0.310560524

$$$$
