
 OpenBabel03212520503D

 31 34  0  0  0  0  0  0  0  0999 V2000
   39.2020   76.1960   58.0050 C   0  0  0  0  0  0  0  0  0  0  0  0
   39.3120   77.4450   58.5560 C   0  0  0  0  0  0  0  0  0  0  0  0
   40.0220   77.6550   59.7480 C   0  0  0  0  0  0  0  0  0  0  0  0
   40.6090   76.6080   60.3660 N   0  0  0  0  0  0  0  0  0  0  0  0
   40.4900   75.3960   59.8140 C   0  0  0  0  0  0  0  0  0  0  0  0
   39.8030   75.1910   58.6580 N   0  0  0  0  0  0  0  0  0  0  0  0
   38.8310   78.2630   58.0370 H   0  0  0  0  0  0  0  0  0  0  0  0
   40.0610   78.6710   60.1140 H   0  0  0  0  0  0  0  0  0  0  0  0
   42.3190   73.7370   59.9960 C   0  0  0  0  0  3  0  0  0  0  0  0
   41.0930   74.2100   60.4150 C   0  0  0  0  0  0  0  0  0  0  0  0
   40.5050   73.4810   61.4270 C   0  0  0  0  0  0  0  0  0  0  0  0
   39.5250   73.8050   61.8090 H   0  0  0  0  0  0  0  0  0  0  0  0
   41.1030   72.3640   61.9730 C   0  0  0  0  0  0  0  0  0  0  0  0
   40.7910   71.4780   62.9330 N   0  0  0  0  0  0  0  0  0  0  0  0
   39.8910   71.5260   63.4950 H   0  0  0  0  0  0  0  0  0  0  0  0
   41.7440   70.5410   63.0890 C   0  0  0  0  0  0  0  0  0  0  0  0
   41.7930   69.7050   63.7640 H   0  0  0  0  0  0  0  0  0  0  0  0
   42.7580   70.8180   62.1760 C   0  0  0  0  0  3  0  0  0  0  0  0
   42.3310   71.9440   61.5060 C   0  0  0  0  0  0  0  0  0  0  0  0
   42.9880   72.6340   60.4830 C   0  0  0  0  0  3  0  0  0  0  0  0
   38.2500   74.8450   54.7400 C   0  0  0  0  0  0  0  0  0  0  0  0
   37.0670   75.5300   54.4740 C   0  0  0  0  0  0  0  0  0  0  0  0
   36.5960   76.4470   55.3990 C   0  0  0  0  0  0  0  0  0  0  0  0
   37.3290   76.6290   56.5380 N   0  0  0  0  0  0  0  0  0  0  0  0
   38.4640   75.9500   56.7590 C   0  0  0  0  0  0  0  0  0  0  0  0
   38.9360   75.0620   55.8810 N   0  0  0  0  0  0  0  0  0  0  0  0
   38.6120   73.9400   53.7070 N   0  0  0  0  0  0  0  0  0  0  0  0
   36.4610   75.4250   53.6040 H   0  0  0  0  0  0  0  0  0  0  0  0
   35.6910   77.0170   55.2680 H   0  0  0  0  0  0  0  0  0  0  0  0
   38.9930   73.0710   54.1650 H   0  0  0  0  0  0  0  0  0  0  0  0
   38.4890   74.1730   52.6970 H   0  0  0  0  0  0  0  0  0  0  0  0
  1  2  2  0  0  0  0
  1  6  1  0  0  0  0
  2  3  1  0  0  0  0
  3  8  1  0  0  0  0
  3  4  2  0  0  0  0
  5  4  1  0  0  0  0
  5 10  1  0  0  0  0
  6  5  2  0  0  0  0
  7  2  1  0  0  0  0
  9 10  2  0  0  0  0
  9 20  1  0  0  0  0
 10 11  1  0  0  0  0
 11 12  1  0  0  0  0
 11 13  2  0  0  0  0
 13 14  1  0  0  0  0
 14 16  1  0  0  0  0
 14 15  1  0  0  0  0
 16 17  1  0  0  0  0
 18 16  2  0  0  0  0
 19 13  1  0  0  0  0
 19 18  1  0  0  0  0
 20 19  2  0  0  0  0
 21 26  1  0  0  0  0
 22 21  2  0  0  0  0
 22 23  1  0  0  0  0
 23 24  2  0  0  0  0
 24 25  1  0  0  0  0
 25  1  1  0  0  0  0
 26 25  2  0  0  0  0
 27 30  1  0  0  0  0
 27 21  1  0  0  0  0
 28 22  1  0  0  0  0
 29 23  1  0  0  0  0
 31 27  1  0  0  0  0
M  END
>  <minimizedAffinity>
-6.79304361

$$$$

 OpenBabel03212520503D

 31 34  0  0  0  0  0  0  0  0999 V2000
   42.2190   73.3680   59.9100 C   0  0  0  0  0  0  0  0  0  0  0  0
   43.3800   73.3610   59.1840 C   0  0  0  0  0  0  0  0  0  0  0  0
   44.2310   72.2460   59.1800 C   0  0  0  0  0  0  0  0  0  0  0  0
   43.9020   71.1560   59.9060 N   0  0  0  0  0  0  0  0  0  0  0  0
   42.7650   71.1800   60.6090 C   0  0  0  0  0  0  0  0  0  0  0  0
   41.9380   72.2600   60.6130 N   0  0  0  0  0  0  0  0  0  0  0  0
   43.6160   74.2490   58.6130 H   0  0  0  0  0  0  0  0  0  0  0  0
   45.1270   72.3240   58.5810 H   0  0  0  0  0  0  0  0  0  0  0  0
   42.1590   70.1610   62.7820 C   0  0  0  0  0  3  0  0  0  0  0  0
   42.3330   70.0450   61.4190 C   0  0  0  0  0  0  0  0  0  0  0  0
   42.0700   68.7920   60.9050 C   0  0  0  0  0  0  0  0  0  0  0  0
   42.1890   68.6320   59.8230 H   0  0  0  0  0  0  0  0  0  0  0  0
   41.6630   67.7410   61.7010 C   0  0  0  0  0  0  0  0  0  0  0  0
   41.3420   66.4520   61.5020 N   0  0  0  0  0  0  0  0  0  0  0  0
   41.3610   65.9930   60.5440 H   0  0  0  0  0  0  0  0  0  0  0  0
   41.0010   65.8310   62.6450 C   0  0  0  0  0  0  0  0  0  0  0  0
   40.6980   64.8140   62.8200 H   0  0  0  0  0  0  0  0  0  0  0  0
   41.0990   66.7630   63.6750 C   0  0  0  0  0  3  0  0  0  0  0  0
   41.5090   67.9260   63.0590 C   0  0  0  0  0  0  0  0  0  0  0  0
   41.7580   69.1680   63.6500 C   0  0  0  0  0  3  0  0  0  0  0  0
   39.5480   75.6710   60.8860 C   0  0  0  0  0  0  0  0  0  0  0  0
   39.6600   76.6720   59.9260 C   0  0  0  0  0  0  0  0  0  0  0  0
   40.6380   76.5650   58.9510 C   0  0  0  0  0  0  0  0  0  0  0  0
   41.4510   75.4670   58.9880 N   0  0  0  0  0  0  0  0  0  0  0  0
   41.3120   74.5220   59.9300 C   0  0  0  0  0  0  0  0  0  0  0  0
   40.3760   74.6050   60.8780 N   0  0  0  0  0  0  0  0  0  0  0  0
   38.5050   75.9110   61.8210 N   0  0  0  0  0  0  0  0  0  0  0  0
   39.0540   77.5450   59.8530 H   0  0  0  0  0  0  0  0  0  0  0  0
   40.7900   77.2960   58.1740 H   0  0  0  0  0  0  0  0  0  0  0  0
   38.8550   75.6170   62.7700 H   0  0  0  0  0  0  0  0  0  0  0  0
   37.5850   76.3110   61.5330 H   0  0  0  0  0  0  0  0  0  0  0  0
  1 25  1  0  0  0  0
  1  6  1  0  0  0  0
  2  1  2  0  0  0  0
  3  2  1  0  0  0  0
  3  4  2  0  0  0  0
  4  5  1  0  0  0  0
  5  6  2  0  0  0  0
  5 10  1  0  0  0  0
  7  2  1  0  0  0  0
  8  3  1  0  0  0  0
  9 20  1  0  0  0  0
 10  9  2  0  0  0  0
 11 10  1  0  0  0  0
 11 13  2  0  0  0  0
 12 11  1  0  0  0  0
 13 19  1  0  0  0  0
 14 13  1  0  0  0  0
 14 16  1  0  0  0  0
 15 14  1  0  0  0  0
 16 17  1  0  0  0  0
 16 18  2  0  0  0  0
 19 20  2  0  0  0  0
 19 18  1  0  0  0  0
 21 27  1  0  0  0  0
 22 21  2  0  0  0  0
 23 24  2  0  0  0  0
 23 22  1  0  0  0  0
 24 25  1  0  0  0  0
 25 26  2  0  0  0  0
 26 21  1  0  0  0  0
 27 30  1  0  0  0  0
 28 22  1  0  0  0  0
 29 23  1  0  0  0  0
 31 27  1  0  0  0  0
M  END
>  <minimizedAffinity>
-6.35697269

$$$$

 OpenBabel03212520503D

 31 34  0  0  0  0  0  0  0  0999 V2000
   41.3520   73.7130   59.5860 C   0  0  0  0  0  0  0  0  0  0  0  0
   42.5700   74.3370   59.5250 C   0  0  0  0  0  0  0  0  0  0  0  0
   43.7030   73.7840   60.1380 C   0  0  0  0  0  0  0  0  0  0  0  0
   43.5960   72.6130   60.8020 N   0  0  0  0  0  0  0  0  0  0  0  0
   42.3990   72.0190   60.8520 C   0  0  0  0  0  0  0  0  0  0  0  0
   41.2990   72.5530   60.2570 N   0  0  0  0  0  0  0  0  0  0  0  0
   42.6230   75.2730   58.9850 H   0  0  0  0  0  0  0  0  0  0  0  0
   44.6250   74.3400   60.0420 H   0  0  0  0  0  0  0  0  0  0  0  0
   41.9680   70.7080   62.9080 C   0  0  0  0  0  3  0  0  0  0  0  0
   42.1940   70.7520   61.5480 C   0  0  0  0  0  0  0  0  0  0  0  0
   42.2080   69.5230   60.9220 C   0  0  0  0  0  0  0  0  0  0  0  0
   42.3830   69.4860   59.8370 H   0  0  0  0  0  0  0  0  0  0  0  0
   42.0110   68.3440   61.6120 C   0  0  0  0  0  0  0  0  0  0  0  0
   41.9690   67.0390   61.2940 N   0  0  0  0  0  0  0  0  0  0  0  0
   42.1050   66.6800   60.3040 H   0  0  0  0  0  0  0  0  0  0  0  0
   41.7380   66.2620   62.3680 C   0  0  0  0  0  0  0  0  0  0  0  0
   41.6490   65.1930   62.4450 H   0  0  0  0  0  0  0  0  0  0  0  0
   41.6170   67.1000   63.4740 C   0  0  0  0  0  3  0  0  0  0  0  0
   41.7910   68.3710   62.9730 C   0  0  0  0  0  0  0  0  0  0  0  0
   41.7620   69.5810   63.6740 C   0  0  0  0  0  3  0  0  0  0  0  0
   38.1880   73.9800   57.7660 C   0  0  0  0  0  0  0  0  0  0  0  0
   37.9470   75.3510   57.7970 C   0  0  0  0  0  0  0  0  0  0  0  0
   38.8560   76.1810   58.4340 C   0  0  0  0  0  0  0  0  0  0  0  0
   39.9530   75.5980   59.0040 N   0  0  0  0  0  0  0  0  0  0  0  0
   40.1510   74.2720   58.9520 C   0  0  0  0  0  0  0  0  0  0  0  0
   39.2880   73.4550   58.3440 N   0  0  0  0  0  0  0  0  0  0  0  0
   37.1760   73.2540   57.0820 N   0  0  0  0  0  0  0  0  0  0  0  0
   37.1110   75.8530   57.3700 H   0  0  0  0  0  0  0  0  0  0  0  0
   38.7430   77.2500   58.5020 H   0  0  0  0  0  0  0  0  0  0  0  0
   37.0100   72.3610   57.6160 H   0  0  0  0  0  0  0  0  0  0  0  0
   36.7290   73.6140   56.2110 H   0  0  0  0  0  0  0  0  0  0  0  0
  1  6  1  0  0  0  0
  2  1  2  0  0  0  0
  2  3  1  0  0  0  0
  3  4  2  0  0  0  0
  4  5  1  0  0  0  0
  5 10  1  0  0  0  0
  6  5  2  0  0  0  0
  7  2  1  0  0  0  0
  8  3  1  0  0  0  0
  9 20  1  0  0  0  0
 10  9  2  0  0  0  0
 11 10  1  0  0  0  0
 11 13  2  0  0  0  0
 12 11  1  0  0  0  0
 13 19  1  0  0  0  0
 14 13  1  0  0  0  0
 14 16  1  0  0  0  0
 15 14  1  0  0  0  0
 16 17  1  0  0  0  0
 16 18  2  0  0  0  0
 19 18  1  0  0  0  0
 19 20  2  0  0  0  0
 21 22  2  0  0  0  0
 21 26  1  0  0  0  0
 22 23  1  0  0  0  0
 23 29  1  0  0  0  0
 23 24  2  0  0  0  0
 25 24  1  0  0  0  0
 25  1  1  0  0  0  0
 26 25  2  0  0  0  0
 27 30  1  0  0  0  0
 27 21  1  0  0  0  0
 28 22  1  0  0  0  0
 31 27  1  0  0  0  0
M  END
>  <minimizedAffinity>
-6.33154202

$$$$

 OpenBabel03212520503D

 31 34  0  0  0  0  0  0  0  0999 V2000
   41.8490   69.8680   60.3870 C   0  0  0  0  0  0  0  0  0  0  0  0
   41.6180   69.3030   59.1610 C   0  0  0  0  0  0  0  0  0  0  0  0
   41.1580   70.0690   58.0800 C   0  0  0  0  0  0  0  0  0  0  0  0
   40.9370   71.3910   58.2480 N   0  0  0  0  0  0  0  0  0  0  0  0
   41.1670   71.9250   59.4520 C   0  0  0  0  0  0  0  0  0  0  0  0
   41.6140   71.1840   60.5010 N   0  0  0  0  0  0  0  0  0  0  0  0
   41.8040   68.2420   59.0580 H   0  0  0  0  0  0  0  0  0  0  0  0
   41.0020   69.5450   57.1480 H   0  0  0  0  0  0  0  0  0  0  0  0
   39.8730   73.7830   60.4540 C   0  0  0  0  0  3  0  0  0  0  0  0
   40.9550   73.3450   59.7200 C   0  0  0  0  0  0  0  0  0  0  0  0
   41.7960   74.3430   59.2750 C   0  0  0  0  0  0  0  0  0  0  0  0
   42.6800   74.0610   58.6830 H   0  0  0  0  0  0  0  0  0  0  0  0
   41.5650   75.6760   59.5470 C   0  0  0  0  0  0  0  0  0  0  0  0
   42.1800   76.8360   59.2620 N   0  0  0  0  0  0  0  0  0  0  0  0
   43.0760   76.8920   58.6940 H   0  0  0  0  0  0  0  0  0  0  0  0
   41.5290   77.8950   59.7770 C   0  0  0  0  0  0  0  0  0  0  0  0
   41.7600   78.9440   59.7260 H   0  0  0  0  0  0  0  0  0  0  0  0
   40.4090   77.4130   60.4490 C   0  0  0  0  0  3  0  0  0  0  0  0
   40.4620   76.0450   60.2870 C   0  0  0  0  0  0  0  0  0  0  0  0
   39.5660   75.0890   60.7720 C   0  0  0  0  0  3  0  0  0  0  0  0
   42.6510   67.0520   62.5810 C   0  0  0  0  0  0  0  0  0  0  0  0
   43.2320   67.6890   63.6750 C   0  0  0  0  0  0  0  0  0  0  0  0
   43.3510   69.0690   63.6650 C   0  0  0  0  0  0  0  0  0  0  0  0
   42.8840   69.7370   62.5680 N   0  0  0  0  0  0  0  0  0  0  0  0
   42.3300   69.0870   61.5340 C   0  0  0  0  0  0  0  0  0  0  0  0
   42.2050   67.7580   61.5220 N   0  0  0  0  0  0  0  0  0  0  0  0
   42.5950   65.6400   62.7270 N   0  0  0  0  0  0  0  0  0  0  0  0
   43.6100   67.2160   64.5510 H   0  0  0  0  0  0  0  0  0  0  0  0
   43.7870   69.6370   64.4700 H   0  0  0  0  0  0  0  0  0  0  0  0
   42.8160   65.2140   61.7890 H   0  0  0  0  0  0  0  0  0  0  0  0
   42.3670   65.1850   63.6390 H   0  0  0  0  0  0  0  0  0  0  0  0
  1  6  1  0  0  0  0
  1 25  1  0  0  0  0
  2  1  2  0  0  0  0
  3  4  2  0  0  0  0
  3  2  1  0  0  0  0
  4  5  1  0  0  0  0
  5 10  1  0  0  0  0
  5  6  2  0  0  0  0
  7  2  1  0  0  0  0
  8  3  1  0  0  0  0
  9 20  1  0  0  0  0
 10  9  2  0  0  0  0
 11 13  2  0  0  0  0
 11 10  1  0  0  0  0
 12 11  1  0  0  0  0
 13 19  1  0  0  0  0
 14 13  1  0  0  0  0
 14 16  1  0  0  0  0
 15 14  1  0  0  0  0
 16 18  2  0  0  0  0
 17 16  1  0  0  0  0
 19 18  1  0  0  0  0
 19 20  2  0  0  0  0
 21 27  1  0  0  0  0
 21 22  1  0  0  0  0
 22 28  1  0  0  0  0
 23 22  2  0  0  0  0
 23 29  1  0  0  0  0
 24 23  1  0  0  0  0
 25 24  2  0  0  0  0
 26 25  1  0  0  0  0
 26 21  2  0  0  0  0
 27 31  1  0  0  0  0
 30 27  1  0  0  0  0
M  END
>  <minimizedAffinity>
-6.03569221

$$$$

 OpenBabel03212520503D

 31 34  0  0  0  0  0  0  0  0999 V2000
   40.2100   73.4290   59.7750 C   0  0  0  0  0  0  0  0  0  0  0  0
   40.2410   74.1710   60.9250 C   0  0  0  0  0  0  0  0  0  0  0  0
   39.6680   75.4500   60.9840 C   0  0  0  0  0  0  0  0  0  0  0  0
   39.0720   75.9630   59.8860 N   0  0  0  0  0  0  0  0  0  0  0  0
   39.0520   75.2240   58.7710 C   0  0  0  0  0  0  0  0  0  0  0  0
   39.6060   73.9840   58.7130 N   0  0  0  0  0  0  0  0  0  0  0  0
   40.7250   73.7320   61.7880 H   0  0  0  0  0  0  0  0  0  0  0  0
   39.7360   75.9670   61.9300 H   0  0  0  0  0  0  0  0  0  0  0  0
   38.3920   77.0450   57.2280 C   0  0  0  0  0  3  0  0  0  0  0  0
   38.4290   75.7020   57.5400 C   0  0  0  0  0  0  0  0  0  0  0  0
   37.8390   74.8730   56.6090 C   0  0  0  0  0  0  0  0  0  0  0  0
   37.8340   73.7890   56.7960 H   0  0  0  0  0  0  0  0  0  0  0  0
   37.2580   75.3590   55.4550 C   0  0  0  0  0  0  0  0  0  0  0  0
   36.6290   74.8230   54.3960 N   0  0  0  0  0  0  0  0  0  0  0  0
   36.4660   73.7790   54.2870 H   0  0  0  0  0  0  0  0  0  0  0  0
   36.2390   75.7580   53.5100 C   0  0  0  0  0  0  0  0  0  0  0  0
   35.7190   75.6550   52.5750 H   0  0  0  0  0  0  0  0  0  0  0  0
   36.6340   76.9980   54.0080 C   0  0  0  0  0  3  0  0  0  0  0  0
   37.2560   76.7150   55.2040 C   0  0  0  0  0  0  0  0  0  0  0  0
   37.8360   77.6150   56.1030 C   0  0  0  0  0  3  0  0  0  0  0  0
   41.0610   70.0780   58.5770 C   0  0  0  0  0  0  0  0  0  0  0  0
   41.9220   69.6210   59.5720 C   0  0  0  0  0  0  0  0  0  0  0  0
   42.2110   70.4490   60.6450 C   0  0  0  0  0  0  0  0  0  0  0  0
   41.6270   71.6850   60.6660 N   0  0  0  0  0  0  0  0  0  0  0  0
   40.8030   72.0880   59.6880 C   0  0  0  0  0  0  0  0  0  0  0  0
   40.5100   71.3070   58.6460 N   0  0  0  0  0  0  0  0  0  0  0  0
   40.8560   69.1270   57.5410 N   0  0  0  0  0  0  0  0  0  0  0  0
   42.4000   68.6700   59.6030 H   0  0  0  0  0  0  0  0  0  0  0  0
   42.8650   70.1710   61.4540 H   0  0  0  0  0  0  0  0  0  0  0  0
   40.8330   69.6520   56.6280 H   0  0  0  0  0  0  0  0  0  0  0  0
   40.7550   68.1070   57.7380 H   0  0  0  0  0  0  0  0  0  0  0  0
  1  2  1  0  0  0  0
  2  3  2  0  0  0  0
  2  7  1  0  0  0  0
  3  8  1  0  0  0  0
  4  3  1  0  0  0  0
  5  4  2  0  0  0  0
  6  5  1  0  0  0  0
  6  1  2  0  0  0  0
  9 10  1  0  0  0  0
 10  5  1  0  0  0  0
 11 12  1  0  0  0  0
 11 10  2  0  0  0  0
 13 11  1  0  0  0  0
 14 13  1  0  0  0  0
 15 14  1  0  0  0  0
 16 18  2  0  0  0  0
 16 14  1  0  0  0  0
 17 16  1  0  0  0  0
 18 19  1  0  0  0  0
 19 13  2  0  0  0  0
 19 20  1  0  0  0  0
 20  9  2  0  0  0  0
 21 26  2  0  0  0  0
 21 22  1  0  0  0  0
 22 28  1  0  0  0  0
 22 23  2  0  0  0  0
 23 24  1  0  0  0  0
 23 29  1  0  0  0  0
 25  1  1  0  0  0  0
 25 24  2  0  0  0  0
 26 25  1  0  0  0  0
 27 31  1  0  0  0  0
 27 21  1  0  0  0  0
 30 27  1  0  0  0  0
M  END
>  <minimizedAffinity>
-5.98881102

$$$$

 OpenBabel03212520503D

 31 34  0  0  0  0  0  0  0  0999 V2000
   38.6890   75.9900   57.4450 C   0  0  0  0  0  0  0  0  0  0  0  0
   38.9680   76.9220   58.4090 C   0  0  0  0  0  0  0  0  0  0  0  0
   39.7450   76.5990   59.5310 C   0  0  0  0  0  0  0  0  0  0  0  0
   40.2280   75.3460   59.6680 N   0  0  0  0  0  0  0  0  0  0  0  0
   39.9450   74.4490   58.7170 C   0  0  0  0  0  0  0  0  0  0  0  0
   39.1920   74.7600   57.6280 N   0  0  0  0  0  0  0  0  0  0  0  0
   38.5670   77.9170   58.2710 H   0  0  0  0  0  0  0  0  0  0  0  0
   39.9180   77.3930   60.2430 H   0  0  0  0  0  0  0  0  0  0  0  0
   41.1120   72.6050   59.8880 C   0  0  0  0  0  3  0  0  0  0  0  0
   40.4270   73.0720   58.7860 C   0  0  0  0  0  0  0  0  0  0  0  0
   40.2440   72.1460   57.7800 C   0  0  0  0  0  0  0  0  0  0  0  0
   39.7050   72.4530   56.8720 H   0  0  0  0  0  0  0  0  0  0  0  0
   40.7140   70.8520   57.8780 C   0  0  0  0  0  0  0  0  0  0  0  0
   40.6930   69.7590   57.0970 N   0  0  0  0  0  0  0  0  0  0  0  0
   40.2350   69.7430   56.1380 H   0  0  0  0  0  0  0  0  0  0  0  0
   41.3120   68.7120   57.6700 C   0  0  0  0  0  0  0  0  0  0  0  0
   41.4650   67.7110   57.3080 H   0  0  0  0  0  0  0  0  0  0  0  0
   41.7770   69.1300   58.9150 C   0  0  0  0  0  3  0  0  0  0  0  0
   41.3920   70.4500   59.0100 C   0  0  0  0  0  0  0  0  0  0  0  0
   41.6150   71.3340   60.0690 C   0  0  0  0  0  3  0  0  0  0  0  0
   37.0840   75.7330   54.1670 C   0  0  0  0  0  0  0  0  0  0  0  0
   36.3670   76.9250   54.0970 C   0  0  0  0  0  0  0  0  0  0  0  0
   36.4300   77.8120   55.1600 C   0  0  0  0  0  0  0  0  0  0  0  0
   37.2020   77.4610   56.2320 N   0  0  0  0  0  0  0  0  0  0  0  0
   37.8780   76.3030   56.2610 C   0  0  0  0  0  0  0  0  0  0  0  0
   37.8320   75.4340   55.2480 N   0  0  0  0  0  0  0  0  0  0  0  0
   36.9280   74.9230   53.0100 N   0  0  0  0  0  0  0  0  0  0  0  0
   35.7540   77.2440   53.2870 H   0  0  0  0  0  0  0  0  0  0  0  0
   35.9060   78.7530   55.1840 H   0  0  0  0  0  0  0  0  0  0  0  0
   36.8600   73.9220   53.3300 H   0  0  0  0  0  0  0  0  0  0  0  0
   36.8950   75.3300   52.0490 H   0  0  0  0  0  0  0  0  0  0  0  0
  1  6  2  0  0  0  0
  1  2  1  0  0  0  0
  2  3  2  0  0  0  0
  3  4  1  0  0  0  0
  3  8  1  0  0  0  0
  5 10  1  0  0  0  0
  5  4  2  0  0  0  0
  6  5  1  0  0  0  0
  7  2  1  0  0  0  0
  9 20  1  0  0  0  0
 10  9  2  0  0  0  0
 11 13  2  0  0  0  0
 11 10  1  0  0  0  0
 12 11  1  0  0  0  0
 13 19  1  0  0  0  0
 14 16  1  0  0  0  0
 14 13  1  0  0  0  0
 15 14  1  0  0  0  0
 16 18  2  0  0  0  0
 17 16  1  0  0  0  0
 18 19  1  0  0  0  0
 19 20  2  0  0  0  0
 21 26  1  0  0  0  0
 22 21  2  0  0  0  0
 22 23  1  0  0  0  0
 23 29  1  0  0  0  0
 23 24  2  0  0  0  0
 24 25  1  0  0  0  0
 25  1  1  0  0  0  0
 26 25  2  0  0  0  0
 27 30  1  0  0  0  0
 27 21  1  0  0  0  0
 28 22  1  0  0  0  0
 31 27  1  0  0  0  0
M  END
>  <minimizedAffinity>
-5.94376659

$$$$

 OpenBabel03212520503D

 31 34  0  0  0  0  0  0  0  0999 V2000
   40.7590   74.9680   58.3860 C   0  0  0  0  0  0  0  0  0  0  0  0
   41.8050   75.8200   58.1510 C   0  0  0  0  0  0  0  0  0  0  0  0
   43.0400   75.6530   58.7960 C   0  0  0  0  0  0  0  0  0  0  0  0
   43.2040   74.6330   59.6650 N   0  0  0  0  0  0  0  0  0  0  0  0
   42.1720   73.8110   59.8810 C   0  0  0  0  0  0  0  0  0  0  0  0
   40.9740   73.9710   59.2570 N   0  0  0  0  0  0  0  0  0  0  0  0
   41.6430   76.6280   57.4500 H   0  0  0  0  0  0  0  0  0  0  0  0
   43.8120   76.3700   58.5540 H   0  0  0  0  0  0  0  0  0  0  0  0
   41.4900   72.6240   61.9450 C   0  0  0  0  0  3  0  0  0  0  0  0
   42.2620   72.6830   60.8040 C   0  0  0  0  0  0  0  0  0  0  0  0
   43.1070   71.6080   60.6190 C   0  0  0  0  0  0  0  0  0  0  0  0
   43.7520   71.5920   59.7280 H   0  0  0  0  0  0  0  0  0  0  0  0
   43.1680   70.5580   61.5130 C   0  0  0  0  0  0  0  0  0  0  0  0
   43.8620   69.4120   61.6040 N   0  0  0  0  0  0  0  0  0  0  0  0
   44.5780   69.1100   60.8790 H   0  0  0  0  0  0  0  0  0  0  0  0
   43.5430   68.7110   62.7070 C   0  0  0  0  0  0  0  0  0  0  0  0
   43.9160   67.7670   63.0620 H   0  0  0  0  0  0  0  0  0  0  0  0
   42.5730   69.4330   63.3960 C   0  0  0  0  0  3  0  0  0  0  0  0
   42.3660   70.5630   62.6350 C   0  0  0  0  0  0  0  0  0  0  0  0
   41.4860   71.6190   62.8880 C   0  0  0  0  0  3  0  0  0  0  0  0
   37.9120   76.4410   56.6220 C   0  0  0  0  0  0  0  0  0  0  0  0
   37.0430   75.3580   56.5130 C   0  0  0  0  0  0  0  0  0  0  0  0
   37.4240   74.1330   57.0370 C   0  0  0  0  0  0  0  0  0  0  0  0
   38.6480   74.0560   57.6390 N   0  0  0  0  0  0  0  0  0  0  0  0
   39.4570   75.1230   57.7240 C   0  0  0  0  0  0  0  0  0  0  0  0
   39.1100   76.3120   57.2270 N   0  0  0  0  0  0  0  0  0  0  0  0
   37.3920   77.6290   56.0420 N   0  0  0  0  0  0  0  0  0  0  0  0
   36.0810   75.3660   56.0550 H   0  0  0  0  0  0  0  0  0  0  0  0
   36.8110   73.2480   56.9940 H   0  0  0  0  0  0  0  0  0  0  0  0
   38.1880   78.1190   55.5540 H   0  0  0  0  0  0  0  0  0  0  0  0
   36.3870   77.8960   56.1310 H   0  0  0  0  0  0  0  0  0  0  0  0
  1  6  1  0  0  0  0
  2  1  2  0  0  0  0
  2  3  1  0  0  0  0
  3  4  2  0  0  0  0
  4  5  1  0  0  0  0
  5 10  1  0  0  0  0
  6  5  2  0  0  0  0
  7  2  1  0  0  0  0
  8  3  1  0  0  0  0
  9 20  1  0  0  0  0
 10  9  2  0  0  0  0
 11 10  1  0  0  0  0
 11 13  2  0  0  0  0
 12 11  1  0  0  0  0
 13 14  1  0  0  0  0
 13 19  1  0  0  0  0
 14 16  1  0  0  0  0
 15 14  1  0  0  0  0
 16 17  1  0  0  0  0
 16 18  2  0  0  0  0
 19 20  2  0  0  0  0
 19 18  1  0  0  0  0
 21 26  1  0  0  0  0
 22 21  2  0  0  0  0
 22 23  1  0  0  0  0
 23 24  2  0  0  0  0
 24 25  1  0  0  0  0
 25  1  1  0  0  0  0
 26 25  2  0  0  0  0
 27 31  1  0  0  0  0
 27 21  1  0  0  0  0
 28 22  1  0  0  0  0
 29 23  1  0  0  0  0
 30 27  1  0  0  0  0
M  END
>  <minimizedAffinity>
-5.87178183

$$$$

 OpenBabel03212520503D

 31 34  0  0  0  0  0  0  0  0999 V2000
   37.8680   76.7610   53.7100 C   0  0  0  0  0  0  0  0  0  0  0  0
   36.8210   77.6390   53.6100 C   0  0  0  0  0  0  0  0  0  0  0  0
   36.2190   78.1890   54.7510 C   0  0  0  0  0  0  0  0  0  0  0  0
   36.6790   77.8500   55.9740 N   0  0  0  0  0  0  0  0  0  0  0  0
   37.7010   76.9910   56.0530 C   0  0  0  0  0  0  0  0  0  0  0  0
   38.2860   76.4570   54.9470 N   0  0  0  0  0  0  0  0  0  0  0  0
   36.4770   77.8910   52.6160 H   0  0  0  0  0  0  0  0  0  0  0  0
   35.4000   78.8730   54.5830 H   0  0  0  0  0  0  0  0  0  0  0  0
   39.0820   77.4010   58.0670 C   0  0  0  0  0  3  0  0  0  0  0  0
   38.2590   76.5710   57.3350 C   0  0  0  0  0  0  0  0  0  0  0  0
   38.0190   75.3390   57.9080 C   0  0  0  0  0  0  0  0  0  0  0  0
   37.3700   74.6280   57.3760 H   0  0  0  0  0  0  0  0  0  0  0  0
   38.5640   74.9740   59.1220 C   0  0  0  0  0  0  0  0  0  0  0  0
   38.5170   73.8870   59.9100 N   0  0  0  0  0  0  0  0  0  0  0  0
   37.9610   73.0170   59.6610 H   0  0  0  0  0  0  0  0  0  0  0  0
   39.2490   74.0380   61.0280 C   0  0  0  0  0  0  0  0  0  0  0  0
   39.4140   73.3610   61.8470 H   0  0  0  0  0  0  0  0  0  0  0  0
   39.8210   75.3070   60.9880 C   0  0  0  0  0  3  0  0  0  0  0  0
   39.3800   75.8540   59.8030 C   0  0  0  0  0  0  0  0  0  0  0  0
   39.6670   77.1200   59.2830 C   0  0  0  0  0  3  0  0  0  0  0  0
   39.0500   74.3210   51.2530 C   0  0  0  0  0  0  0  0  0  0  0  0
   39.7240   75.1280   50.3400 C   0  0  0  0  0  0  0  0  0  0  0  0
   39.7760   76.4950   50.5580 C   0  0  0  0  0  0  0  0  0  0  0  0
   39.1530   76.9810   51.6740 N   0  0  0  0  0  0  0  0  0  0  0  0
   38.5140   76.1710   52.5310 C   0  0  0  0  0  0  0  0  0  0  0  0
   38.4520   74.8510   52.3400 N   0  0  0  0  0  0  0  0  0  0  0  0
   39.0770   72.9440   50.9030 N   0  0  0  0  0  0  0  0  0  0  0  0
   40.2230   74.8000   49.4580 H   0  0  0  0  0  0  0  0  0  0  0  0
   40.2760   77.1870   49.9010 H   0  0  0  0  0  0  0  0  0  0  0  0
   38.1300   72.5410   51.1260 H   0  0  0  0  0  0  0  0  0  0  0  0
   39.9270   72.4920   50.5010 H   0  0  0  0  0  0  0  0  0  0  0  0
  1  6  1  0  0  0  0
  2  1  2  0  0  0  0
  2  3  1  0  0  0  0
  3  4  2  0  0  0  0
  4  5  1  0  0  0  0
  5 10  1  0  0  0  0
  6  5  2  0  0  0  0
  7  2  1  0  0  0  0
  8  3  1  0  0  0  0
  9 20  1  0  0  0  0
 10 11  1  0  0  0  0
 10  9  2  0  0  0  0
 11 13  2  0  0  0  0
 12 11  1  0  0  0  0
 13 19  1  0  0  0  0
 13 14  1  0  0  0  0
 14 16  1  0  0  0  0
 15 14  1  0  0  0  0
 16 17  1  0  0  0  0
 18 16  2  0  0  0  0
 19 18  1  0  0  0  0
 20 19  2  0  0  0  0
 21 26  1  0  0  0  0
 22 23  1  0  0  0  0
 22 21  2  0  0  0  0
 23 24  2  0  0  0  0
 24 25  1  0  0  0  0
 25  1  1  0  0  0  0
 26 25  2  0  0  0  0
 27 30  1  0  0  0  0
 27 21  1  0  0  0  0
 28 22  1  0  0  0  0
 29 23  1  0  0  0  0
 31 27  1  0  0  0  0
M  END
>  <minimizedAffinity>
-5.8309412

$$$$

 OpenBabel03212520503D

 31 34  0  0  0  0  0  0  0  0999 V2000
   42.3870   73.3160   59.6360 C   0  0  0  0  0  0  0  0  0  0  0  0
   43.5360   73.3690   58.8930 C   0  0  0  0  0  0  0  0  0  0  0  0
   44.2940   72.2170   58.6390 C   0  0  0  0  0  0  0  0  0  0  0  0
   43.8860   71.0290   59.1360 N   0  0  0  0  0  0  0  0  0  0  0  0
   42.7610   70.9960   59.8590 C   0  0  0  0  0  0  0  0  0  0  0  0
   42.0240   72.1130   60.1050 N   0  0  0  0  0  0  0  0  0  0  0  0
   43.8360   74.3340   58.5090 H   0  0  0  0  0  0  0  0  0  0  0  0
   45.1870   72.3460   58.0440 H   0  0  0  0  0  0  0  0  0  0  0  0
   41.8240   68.7150   59.6320 C   0  0  0  0  0  3  0  0  0  0  0  0
   42.2480   69.7560   60.4330 C   0  0  0  0  0  0  0  0  0  0  0  0
   42.1440   69.5230   61.7880 C   0  0  0  0  0  0  0  0  0  0  0  0
   42.4660   70.3130   62.4840 H   0  0  0  0  0  0  0  0  0  0  0  0
   41.6530   68.3380   62.2960 C   0  0  0  0  0  0  0  0  0  0  0  0
   41.4390   67.8330   63.5230 N   0  0  0  0  0  0  0  0  0  0  0  0
   41.6540   68.3680   64.4150 H   0  0  0  0  0  0  0  0  0  0  0  0
   40.9270   66.5900   63.4770 C   0  0  0  0  0  0  0  0  0  0  0  0
   40.6490   65.9240   64.2740 H   0  0  0  0  0  0  0  0  0  0  0  0
   40.7910   66.2400   62.1360 C   0  0  0  0  0  3  0  0  0  0  0  0
   41.2470   67.3380   61.4380 C   0  0  0  0  0  0  0  0  0  0  0  0
   41.3220   67.5020   60.0520 C   0  0  0  0  0  3  0  0  0  0  0  0
   41.2120   76.7810   59.7030 C   0  0  0  0  0  0  0  0  0  0  0  0
   40.0470   76.6800   60.4590 C   0  0  0  0  0  0  0  0  0  0  0  0
   39.6620   75.4400   60.9420 C   0  0  0  0  0  0  0  0  0  0  0  0
   40.4600   74.3710   60.6460 N   0  0  0  0  0  0  0  0  0  0  0  0
   41.5760   74.5080   59.9150 C   0  0  0  0  0  0  0  0  0  0  0  0
   41.9650   75.6930   59.4400 N   0  0  0  0  0  0  0  0  0  0  0  0
   41.4830   78.1080   59.2740 N   0  0  0  0  0  0  0  0  0  0  0  0
   39.3930   77.4800   60.7170 H   0  0  0  0  0  0  0  0  0  0  0  0
   38.7760   75.2780   61.5340 H   0  0  0  0  0  0  0  0  0  0  0  0
   41.8510   78.0550   58.2890 H   0  0  0  0  0  0  0  0  0  0  0  0
   41.3180   78.9340   59.8900 H   0  0  0  0  0  0  0  0  0  0  0  0
  1 25  1  0  0  0  0
  1  6  1  0  0  0  0
  2  1  2  0  0  0  0
  3  2  1  0  0  0  0
  3  4  2  0  0  0  0
  4  5  1  0  0  0  0
  5  6  2  0  0  0  0
  5 10  1  0  0  0  0
  7  2  1  0  0  0  0
  8  3  1  0  0  0  0
  9 20  2  0  0  0  0
  9 10  1  0  0  0  0
 10 11  2  0  0  0  0
 11 13  1  0  0  0  0
 11 12  1  0  0  0  0
 13 14  1  0  0  0  0
 14 15  1  0  0  0  0
 16 14  1  0  0  0  0
 16 17  1  0  0  0  0
 18 16  2  0  0  0  0
 19 18  1  0  0  0  0
 19 13  2  0  0  0  0
 20 19  1  0  0  0  0
 21 22  1  0  0  0  0
 22 28  1  0  0  0  0
 22 23  2  0  0  0  0
 23 29  1  0  0  0  0
 24 23  1  0  0  0  0
 25 24  2  0  0  0  0
 26 21  2  0  0  0  0
 26 25  1  0  0  0  0
 27 21  1  0  0  0  0
 27 31  1  0  0  0  0
 30 27  1  0  0  0  0
M  END
>  <minimizedAffinity>
-5.80004454

$$$$
