
 OpenBabel03212520483D

 31 34  0  0  0  0  0  0  0  0999 V2000
   41.6100   83.9570   61.4590 C   0  0  0  0  0  0  0  0  0  0  0  0
   41.3800   84.3520   62.7500 C   0  0  0  0  0  0  0  0  0  0  0  0
   40.9100   83.4490   63.7150 C   0  0  0  0  0  0  0  0  0  0  0  0
   40.6800   82.1640   63.3680 N   0  0  0  0  0  0  0  0  0  0  0  0
   40.9110   81.7970   62.1030 C   0  0  0  0  0  0  0  0  0  0  0  0
   41.3670   82.6720   61.1660 N   0  0  0  0  0  0  0  0  0  0  0  0
   41.5730   85.3870   62.9970 H   0  0  0  0  0  0  0  0  0  0  0  0
   40.7550   83.8410   64.7100 H   0  0  0  0  0  0  0  0  0  0  0  0
   40.8310   79.3520   62.4940 C   0  0  0  0  0  3  0  0  0  0  0  0
   40.6900   80.4290   61.6430 C   0  0  0  0  0  0  0  0  0  0  0  0
   40.3300   80.1030   60.3520 C   0  0  0  0  0  0  0  0  0  0  0  0
   40.1990   80.9150   59.6210 H   0  0  0  0  0  0  0  0  0  0  0  0
   40.1270   78.7990   59.9500 C   0  0  0  0  0  0  0  0  0  0  0  0
   39.7840   78.1860   58.8050 N   0  0  0  0  0  0  0  0  0  0  0  0
   39.5890   78.7150   57.9050 H   0  0  0  0  0  0  0  0  0  0  0  0
   39.7200   76.8500   58.9440 C   0  0  0  0  0  0  0  0  0  0  0  0
   39.4760   76.0880   58.2240 H   0  0  0  0  0  0  0  0  0  0  0  0
   40.0420   76.5480   60.2650 C   0  0  0  0  0  3  0  0  0  0  0  0
   40.2860   77.7700   60.8540 C   0  0  0  0  0  0  0  0  0  0  0  0
   40.6510   78.0230   62.1810 C   0  0  0  0  0  3  0  0  0  0  0  0
   43.6500   86.4390   59.7070 C   0  0  0  0  0  0  0  0  0  0  0  0
   42.9670   86.5810   58.5020 C   0  0  0  0  0  0  0  0  0  0  0  0
   41.8190   85.8370   58.2860 C   0  0  0  0  0  0  0  0  0  0  0  0
   41.4160   84.9930   59.2830 N   0  0  0  0  0  0  0  0  0  0  0  0
   42.1010   84.8840   60.4310 C   0  0  0  0  0  0  0  0  0  0  0  0
   43.2100   85.5920   60.6600 N   0  0  0  0  0  0  0  0  0  0  0  0
   44.8060   87.2610   59.7910 N   0  0  0  0  0  0  0  0  0  0  0  0
   43.2390   87.2240   57.6970 H   0  0  0  0  0  0  0  0  0  0  0  0
   41.2340   85.8890   57.3830 H   0  0  0  0  0  0  0  0  0  0  0  0
   45.5610   86.7010   60.2660 H   0  0  0  0  0  0  0  0  0  0  0  0
   44.8200   88.2370   59.4210 H   0  0  0  0  0  0  0  0  0  0  0  0
  1  2  1  0  0  0  0
  2  7  1  0  0  0  0
  2  3  2  0  0  0  0
  3  8  1  0  0  0  0
  4  3  1  0  0  0  0
  5  4  2  0  0  0  0
  6  1  2  0  0  0  0
  6  5  1  0  0  0  0
 10  5  1  0  0  0  0
 10  9  2  0  0  0  0
 11 10  1  0  0  0  0
 12 11  1  0  0  0  0
 13 11  2  0  0  0  0
 13 19  1  0  0  0  0
 14 16  1  0  0  0  0
 14 13  1  0  0  0  0
 15 14  1  0  0  0  0
 16 18  2  0  0  0  0
 17 16  1  0  0  0  0
 18 19  1  0  0  0  0
 19 20  2  0  0  0  0
 20  9  1  0  0  0  0
 21 27  1  0  0  0  0
 21 26  1  0  0  0  0
 22 21  2  0  0  0  0
 23 22  1  0  0  0  0
 23 24  2  0  0  0  0
 24 25  1  0  0  0  0
 25 26  2  0  0  0  0
 25  1  1  0  0  0  0
 27 30  1  0  0  0  0
 28 22  1  0  0  0  0
 29 23  1  0  0  0  0
 31 27  1  0  0  0  0
M  END
>  <minimizedAffinity>
-6.07628727

>  <minimizedRMSD>
0.849326015

$$$$
