
 OpenBabel03212520483D

 31 34  0  0  0  0  0  0  0  0999 V2000
   41.6540   83.8060   61.5100 C   0  0  0  0  0  0  0  0  0  0  0  0
   41.0590   84.1930   62.6810 C   0  0  0  0  0  0  0  0  0  0  0  0
   40.5870   83.2490   63.6050 C   0  0  0  0  0  0  0  0  0  0  0  0
   40.7220   81.9320   63.3390 N   0  0  0  0  0  0  0  0  0  0  0  0
   41.3050   81.5730   62.1910 C   0  0  0  0  0  0  0  0  0  0  0  0
   41.7630   82.4870   61.2930 N   0  0  0  0  0  0  0  0  0  0  0  0
   40.9660   85.2540   62.8650 H   0  0  0  0  0  0  0  0  0  0  0  0
   40.1310   83.6390   64.5040 H   0  0  0  0  0  0  0  0  0  0  0  0
   42.7410   79.6650   61.5320 C   0  0  0  0  0  3  0  0  0  0  0  0
   41.4910   80.1720   61.8240 C   0  0  0  0  0  0  0  0  0  0  0  0
   40.4610   79.2590   61.7380 C   0  0  0  0  0  0  0  0  0  0  0  0
   39.4370   79.5980   61.9580 H   0  0  0  0  0  0  0  0  0  0  0  0
   40.6710   77.9410   61.3880 C   0  0  0  0  0  0  0  0  0  0  0  0
   39.9000   76.8530   61.2260 N   0  0  0  0  0  0  0  0  0  0  0  0
   38.8480   76.8640   61.3690 H   0  0  0  0  0  0  0  0  0  0  0  0
   40.6150   75.7720   60.8660 C   0  0  0  0  0  0  0  0  0  0  0  0
   40.2980   74.7650   60.6620 H   0  0  0  0  0  0  0  0  0  0  0  0
   41.9500   76.1610   60.7820 C   0  0  0  0  0  3  0  0  0  0  0  0
   41.9480   77.5000   61.1090 C   0  0  0  0  0  0  0  0  0  0  0  0
   43.0420   78.3690   61.1760 C   0  0  0  0  0  3  0  0  0  0  0  0
   43.6340   86.4490   59.9330 C   0  0  0  0  0  0  0  0  0  0  0  0
   43.0430   86.5460   58.6760 C   0  0  0  0  0  0  0  0  0  0  0  0
   41.9770   85.7180   58.3660 C   0  0  0  0  0  0  0  0  0  0  0  0
   41.5590   84.8380   59.3260 N   0  0  0  0  0  0  0  0  0  0  0  0
   42.1550   84.7740   60.5260 C   0  0  0  0  0  0  0  0  0  0  0  0
   43.1830   85.5630   60.8460 N   0  0  0  0  0  0  0  0  0  0  0  0
   44.7120   87.3560   60.1120 N   0  0  0  0  0  0  0  0  0  0  0  0
   43.3290   87.2130   57.8960 H   0  0  0  0  0  0  0  0  0  0  0  0
   41.4660   85.7310   57.4180 H   0  0  0  0  0  0  0  0  0  0  0  0
   45.4670   86.8510   60.6470 H   0  0  0  0  0  0  0  0  0  0  0  0
   44.6820   88.3320   59.7460 H   0  0  0  0  0  0  0  0  0  0  0  0
  1  2  1  0  0  0  0
  2  7  1  0  0  0  0
  2  3  2  0  0  0  0
  3  8  1  0  0  0  0
  4  3  1  0  0  0  0
  5  4  2  0  0  0  0
  6  1  2  0  0  0  0
  6  5  1  0  0  0  0
  9 10  1  0  0  0  0
 10  5  1  0  0  0  0
 11 10  2  0  0  0  0
 11 12  1  0  0  0  0
 13 11  1  0  0  0  0
 14 15  1  0  0  0  0
 14 13  1  0  0  0  0
 16 14  1  0  0  0  0
 17 16  1  0  0  0  0
 18 16  2  0  0  0  0
 18 19  1  0  0  0  0
 19 20  1  0  0  0  0
 19 13  2  0  0  0  0
 20  9  2  0  0  0  0
 21 27  1  0  0  0  0
 21 26  1  0  0  0  0
 22 21  2  0  0  0  0
 23 22  1  0  0  0  0
 23 24  2  0  0  0  0
 24 25  1  0  0  0  0
 25 26  2  0  0  0  0
 25  1  1  0  0  0  0
 27 30  1  0  0  0  0
 28 22  1  0  0  0  0
 29 23  1  0  0  0  0
 31 27  1  0  0  0  0
M  END
>  <minimizedAffinity>
-5.92576027

>  <minimizedRMSD>
0.527231157

$$$$
