
 OpenBabel03212520483D

 31 34  0  0  0  0  0  0  0  0999 V2000
   41.6090   83.8500   61.4300 C   0  0  0  0  0  0  0  0  0  0  0  0
   41.1040   84.2480   62.6390 C   0  0  0  0  0  0  0  0  0  0  0  0
   40.6540   83.3140   63.5840 C   0  0  0  0  0  0  0  0  0  0  0  0
   40.7200   81.9950   63.3000 N   0  0  0  0  0  0  0  0  0  0  0  0
   41.2160   81.6250   62.1140 C   0  0  0  0  0  0  0  0  0  0  0  0
   41.6530   82.5300   61.1970 N   0  0  0  0  0  0  0  0  0  0  0  0
   41.0650   85.3100   62.8370 H   0  0  0  0  0  0  0  0  0  0  0  0
   40.2710   83.7120   64.5120 H   0  0  0  0  0  0  0  0  0  0  0  0
   40.3050   79.5840   61.0490 C   0  0  0  0  0  3  0  0  0  0  0  0
   41.3240   80.2220   61.7260 C   0  0  0  0  0  0  0  0  0  0  0  0
   42.4230   79.4340   61.9940 C   0  0  0  0  0  0  0  0  0  0  0  0
   43.2730   79.8810   62.5310 H   0  0  0  0  0  0  0  0  0  0  0  0
   42.4920   78.1100   61.6130 C   0  0  0  0  0  0  0  0  0  0  0  0
   43.3930   77.1210   61.7250 N   0  0  0  0  0  0  0  0  0  0  0  0
   44.3320   77.2470   62.2050 H   0  0  0  0  0  0  0  0  0  0  0  0
   42.9630   75.9760   61.1670 C   0  0  0  0  0  0  0  0  0  0  0  0
   43.4440   75.0160   61.0920 H   0  0  0  0  0  0  0  0  0  0  0  0
   41.6940   76.2130   60.6460 C   0  0  0  0  0  3  0  0  0  0  0  0
   41.4350   77.5330   60.9380 C   0  0  0  0  0  0  0  0  0  0  0  0
   40.2870   78.2710   60.6310 C   0  0  0  0  0  3  0  0  0  0  0  0
   43.6070   86.4080   59.7410 C   0  0  0  0  0  0  0  0  0  0  0  0
   42.9250   86.5640   58.5370 C   0  0  0  0  0  0  0  0  0  0  0  0
   41.7920   85.8040   58.3000 C   0  0  0  0  0  0  0  0  0  0  0  0
   41.4020   84.9300   59.2770 N   0  0  0  0  0  0  0  0  0  0  0  0
   42.0860   84.8080   60.4240 C   0  0  0  0  0  0  0  0  0  0  0  0
   43.1800   85.5310   60.6720 N   0  0  0  0  0  0  0  0  0  0  0  0
   44.7480   87.2490   59.8460 N   0  0  0  0  0  0  0  0  0  0  0  0
   43.1870   87.2290   57.7470 H   0  0  0  0  0  0  0  0  0  0  0  0
   41.2080   85.8650   57.3970 H   0  0  0  0  0  0  0  0  0  0  0  0
   45.5120   86.6920   60.3110 H   0  0  0  0  0  0  0  0  0  0  0  0
   44.7440   88.2330   59.4980 H   0  0  0  0  0  0  0  0  0  0  0  0
  1  2  1  0  0  0  0
  2  7  1  0  0  0  0
  2  3  2  0  0  0  0
  3  8  1  0  0  0  0
  4  3  1  0  0  0  0
  5  4  2  0  0  0  0
  6  1  2  0  0  0  0
  6  5  1  0  0  0  0
  9 10  1  0  0  0  0
 10 11  2  0  0  0  0
 10  5  1  0  0  0  0
 11 12  1  0  0  0  0
 13 14  1  0  0  0  0
 13 11  1  0  0  0  0
 14 15  1  0  0  0  0
 16 14  1  0  0  0  0
 17 16  1  0  0  0  0
 18 19  1  0  0  0  0
 18 16  2  0  0  0  0
 19 13  2  0  0  0  0
 20 19  1  0  0  0  0
 20  9  2  0  0  0  0
 21 27  1  0  0  0  0
 21 26  1  0  0  0  0
 22 21  2  0  0  0  0
 23 22  1  0  0  0  0
 23 24  2  0  0  0  0
 24 25  1  0  0  0  0
 25 26  2  0  0  0  0
 25  1  1  0  0  0  0
 27 30  1  0  0  0  0
 28 22  1  0  0  0  0
 29 23  1  0  0  0  0
 31 27  1  0  0  0  0
M  END
>  <minimizedAffinity>
-5.7594223

>  <minimizedRMSD>
0.273904294

$$$$
