
 OpenBabel03212520593D

 39 43  0  0  1  0  0  0  0  0999 V2000
   39.7180   77.2120   59.1840 C   0  0  0  0  0  0  0  0  0  0  0  0
   40.3850   76.0540   58.9400 C   0  0  0  0  0  0  0  0  0  0  0  0
   39.8240   75.3320   57.8730 C   0  0  0  0  0  0  0  0  0  0  0  0
   38.7500   75.7340   57.1670 N   0  0  0  0  0  0  0  0  0  0  0  0
   38.1560   76.9180   57.4990 C   0  0  0  0  0  0  0  0  0  0  0  0
   38.6500   77.6600   58.5180 N   0  0  0  0  0  0  0  0  0  0  0  0
   41.2410   75.6870   59.4670 H   0  0  0  0  0  0  0  0  0  0  0  0
   40.2500   74.3790   57.5570 H   0  0  0  0  0  0  0  0  0  0  0  0
   40.9690   80.1850   61.6800 C   0  0  0  0  0  0  0  0  0  0  0  0
   40.9260   78.9640   62.3160 C   0  0  0  0  0  0  0  0  0  0  0  0
   40.5240   77.8990   61.5820 C   0  0  0  0  0  0  0  0  0  0  0  0
   40.1790   78.0690   60.2580 C   0  0  0  0  0  0  0  0  0  0  0  0
   40.4290   79.8710   59.9790 S   0  0  0  0  0  0  0  0  0  0  0  0
   41.1980   78.8300   63.3610 H   0  0  0  0  0  0  0  0  0  0  0  0
   40.4240   76.8680   61.8910 H   0  0  0  0  0  0  0  0  0  0  0  0
   43.0910   82.9710   62.7720 C   0  0  0  0  0  0  0  0  0  0  0  0
   42.2040   83.7530   63.5610 C   0  0  0  0  0  0  0  0  0  0  0  0
   40.8760   83.3200   63.7110 C   0  0  0  0  0  0  0  0  0  0  0  0
   40.5070   82.1790   63.0960 N   0  0  0  0  0  0  0  0  0  0  0  0
   41.3820   81.4490   62.3440 C   0  0  0  0  0  0  0  0  0  0  0  0
   42.6440   81.8530   62.1970 N   0  0  0  0  0  0  0  0  0  0  0  0
   44.1170   83.2570   62.6260 H   0  0  0  0  0  0  0  0  0  0  0  0
   42.5690   84.6620   64.0280 H   0  0  0  0  0  0  0  0  0  0  0  0
   40.1850   83.8950   64.3040 H   0  0  0  0  0  0  0  0  0  0  0  0
   37.0030   77.3340   56.7180 C   0  0  0  0  0  0  0  0  0  0  0  0
   35.8830   77.0470   57.1610 O   0  0  0  0  0  0  0  0  0  0  0  0
   37.1460   78.0780   55.4110 C   0  0  1  0  0  0  0  0  0  0  0  0
   37.3880   79.5550   55.6020 C   0  0  0  0  0  0  0  0  0  0  0  0
   38.4140   78.6680   55.0490 C   0  0  2  0  0  0  0  0  0  0  0  0
   36.2640   77.9280   54.7210 H   0  0  0  0  0  0  0  0  0  0  0  0
   37.4460   79.9440   56.6480 H   0  0  0  0  0  0  0  0  0  0  0  0
   36.8180   80.2430   54.9510 H   0  0  0  0  0  0  0  0  0  0  0  0
   39.2680   78.4220   55.7460 H   0  0  0  0  0  0  0  0  0  0  0  0
   38.8420   78.9450   53.6820 C   0  0  0  0  0  0  0  0  0  0  0  0
   38.2130   78.6200   52.5350 C   0  0  0  0  0  0  0  0  0  0  0  0
   37.2530   78.0770   52.5440 H   0  0  0  0  0  0  0  0  0  0  0  0
   38.7660   78.9640   51.3250 C   0  0  0  0  0  3  0  0  0  0  0  0
   39.9650   79.6410   51.3580 C   0  0  0  0  0  3  0  0  0  0  0  0
   40.3330   79.8010   53.2120 S   0  0  0  0  0  0  0  0  0  0  0  0
  1 12  1  0  0  0  0
  2  1  1  0  0  0  0
  2  7  1  0  0  0  0
  3  2  2  0  0  0  0
  4  5  2  0  0  0  0
  4  3  1  0  0  0  0
  5  6  1  0  0  0  0
  6  1  2  0  0  0  0
  8  3  1  0  0  0  0
  9 10  2  0  0  0  0
  9 20  1  0  0  0  0
 10 14  1  0  0  0  0
 11 15  1  0  0  0  0
 11 10  1  0  0  0  0
 12 11  2  0  0  0  0
 13 12  1  0  0  0  0
 13  9  1  0  0  0  0
 16 17  1  0  0  0  0
 17 18  2  0  0  0  0
 17 23  1  0  0  0  0
 18 24  1  0  0  0  0
 19 18  1  0  0  0  0
 20 19  2  0  0  0  0
 21 20  1  0  0  0  0
 21 16  2  0  0  0  0
 22 16  1  0  0  0  0
 25 26  2  0  0  0  0
 25  5  1  0  0  0  0
 27 30  1  6  0  0  0
 27 28  1  0  0  0  0
 27 25  1  0  0  0  0
 28 31  1  0  0  0  0
 29 27  1  0  0  0  0
 29 28  1  0  0  0  0
 29 33  1  1  0  0  0
 32 28  1  0  0  0  0
 34 29  1  0  0  0  0
 35 36  1  0  0  0  0
 35 34  2  0  0  0  0
 37 38  2  0  0  0  0
 37 35  1  0  0  0  0
 38 39  1  0  0  0  0
 39 34  1  0  0  0  0
M  END
>  <minimizedAffinity>
-6.20334864

>  <minimizedRMSD>
0.530069411

$$$$
