
 OpenBabel03212521013D

 39 43  0  0  1  0  0  0  0  0999 V2000
   41.9350   74.5150   59.5000 C   0  0  0  0  0  0  0  0  0  0  0  0
   43.2220   74.8050   59.1760 C   0  0  0  0  0  0  0  0  0  0  0  0
   44.1410   74.0190   59.8910 C   0  0  0  0  0  0  0  0  0  0  0  0
   43.7950   73.0820   60.7950 N   0  0  0  0  0  0  0  0  0  0  0  0
   42.4690   72.8720   61.0440 C   0  0  0  0  0  0  0  0  0  0  0  0
   41.5340   73.5990   60.3870 N   0  0  0  0  0  0  0  0  0  0  0  0
   43.5530   75.5370   58.4680 H   0  0  0  0  0  0  0  0  0  0  0  0
   45.2150   74.1350   59.7410 H   0  0  0  0  0  0  0  0  0  0  0  0
   39.0750   76.0960   57.0600 C   0  0  0  0  0  0  0  0  0  0  0  0
   39.1180   76.7320   58.2810 C   0  0  0  0  0  0  0  0  0  0  0  0
   40.0330   76.2900   59.1760 C   0  0  0  0  0  0  0  0  0  0  0  0
   40.8700   75.2450   58.8440 C   0  0  0  0  0  0  0  0  0  0  0  0
   40.3570   74.8170   57.1290 S   0  0  0  0  0  0  0  0  0  0  0  0
   38.4580   77.5570   58.5440 H   0  0  0  0  0  0  0  0  0  0  0  0
   40.2250   76.6510   60.1780 H   0  0  0  0  0  0  0  0  0  0  0  0
   36.3790   77.8240   55.2700 C   0  0  0  0  0  0  0  0  0  0  0  0
   36.3480   77.1480   54.0200 C   0  0  0  0  0  0  0  0  0  0  0  0
   37.2580   76.1020   53.7960 C   0  0  0  0  0  0  0  0  0  0  0  0
   38.1210   75.7890   54.7830 N   0  0  0  0  0  0  0  0  0  0  0  0
   38.1280   76.4570   55.9740 C   0  0  0  0  0  0  0  0  0  0  0  0
   37.2660   77.4510   56.1930 N   0  0  0  0  0  0  0  0  0  0  0  0
   35.7040   78.6300   55.4920 H   0  0  0  0  0  0  0  0  0  0  0  0
   35.6260   77.4530   53.2690 H   0  0  0  0  0  0  0  0  0  0  0  0
   37.2540   75.5760   52.8560 H   0  0  0  0  0  0  0  0  0  0  0  0
   42.1200   71.8520   62.0180 C   0  0  0  0  0  0  0  0  0  0  0  0
   41.7970   72.2330   63.1510 O   0  0  0  0  0  0  0  0  0  0  0  0
   42.1550   70.3790   61.6820 C   0  0  1  0  0  0  0  0  0  0  0  0
   43.2840   69.6500   62.3690 C   0  0  0  0  0  0  0  0  0  0  0  0
   41.8810   69.3960   62.7050 C   0  0  2  0  0  0  0  0  0  0  0  0
   42.2030   70.1810   60.5700 H   0  0  0  0  0  0  0  0  0  0  0  0
   43.9540   70.2390   63.0410 H   0  0  0  0  0  0  0  0  0  0  0  0
   43.8620   68.9330   61.7570 H   0  0  0  0  0  0  0  0  0  0  0  0
   41.5350   69.8230   63.6930 H   0  0  0  0  0  0  0  0  0  0  0  0
   41.3870   68.0470   62.4520 C   0  0  0  0  0  0  0  0  0  0  0  0
   41.6800   67.2390   61.4130 C   0  0  0  0  0  0  0  0  0  0  0  0
   42.3700   67.5620   60.6150 H   0  0  0  0  0  0  0  0  0  0  0  0
   41.1180   65.9880   61.3350 C   0  0  0  0  0  3  0  0  0  0  0  0
   40.2620   65.6240   62.3510 C   0  0  0  0  0  3  0  0  0  0  0  0
   40.2520   67.1420   63.4870 S   0  0  0  0  0  0  0  0  0  0  0  0
  1  6  1  0  0  0  0
  2  1  2  0  0  0  0
  2  3  1  0  0  0  0
  3  4  2  0  0  0  0
  4  5  1  0  0  0  0
  5 25  1  0  0  0  0
  6  5  2  0  0  0  0
  7  2  1  0  0  0  0
  8  3  1  0  0  0  0
  9 13  1  0  0  0  0
  9 10  2  0  0  0  0
 10 14  1  0  0  0  0
 10 11  1  0  0  0  0
 11 15  1  0  0  0  0
 12 11  2  0  0  0  0
 12  1  1  0  0  0  0
 13 12  1  0  0  0  0
 16 22  1  0  0  0  0
 16 21  1  0  0  0  0
 17 16  2  0  0  0  0
 18 17  1  0  0  0  0
 18 19  2  0  0  0  0
 19 20  1  0  0  0  0
 20 21  2  0  0  0  0
 20  9  1  0  0  0  0
 23 17  1  0  0  0  0
 24 18  1  0  0  0  0
 25 26  2  0  0  0  0
 27 30  1  6  0  0  0
 27 25  1  0  0  0  0
 27 28  1  0  0  0  0
 27 29  1  0  0  0  0
 28 29  1  0  0  0  0
 28 31  1  0  0  0  0
 29 33  1  1  0  0  0
 32 28  1  0  0  0  0
 34 29  1  0  0  0  0
 34 39  1  0  0  0  0
 35 34  2  0  0  0  0
 36 35  1  0  0  0  0
 37 35  1  0  0  0  0
 37 38  2  0  0  0  0
 38 39  1  0  0  0  0
M  END
>  <minimizedAffinity>
-6.64128065

$$$$

 OpenBabel03212521013D

 39 43  0  0  1  0  0  0  0  0999 V2000
   42.3150   73.5290   60.3200 C   0  0  0  0  0  0  0  0  0  0  0  0
   43.5560   73.9640   59.9800 C   0  0  0  0  0  0  0  0  0  0  0  0
   43.5150   75.1270   59.1940 C   0  0  0  0  0  0  0  0  0  0  0  0
   42.3810   75.7470   58.8150 N   0  0  0  0  0  0  0  0  0  0  0  0
   41.1850   75.2220   59.2140 C   0  0  0  0  0  0  0  0  0  0  0  0
   41.1590   74.1010   59.9740 N   0  0  0  0  0  0  0  0  0  0  0  0
   44.4890   73.5120   60.2520 H   0  0  0  0  0  0  0  0  0  0  0  0
   44.4340   75.5980   58.8420 H   0  0  0  0  0  0  0  0  0  0  0  0
   41.9470   69.8000   61.9320 C   0  0  0  0  0  0  0  0  0  0  0  0
   42.0270   70.7750   62.9020 C   0  0  0  0  0  0  0  0  0  0  0  0
   42.1520   72.0560   62.4830 C   0  0  0  0  0  0  0  0  0  0  0  0
   42.1940   72.3350   61.1330 C   0  0  0  0  0  0  0  0  0  0  0  0
   42.0470   70.6770   60.3490 S   0  0  0  0  0  0  0  0  0  0  0  0
   41.9940   70.5550   63.9680 H   0  0  0  0  0  0  0  0  0  0  0  0
   42.2280   72.9560   63.0790 H   0  0  0  0  0  0  0  0  0  0  0  0
   40.7710   66.6930   63.4870 C   0  0  0  0  0  0  0  0  0  0  0  0
   41.5400   65.6980   62.8240 C   0  0  0  0  0  0  0  0  0  0  0  0
   42.4600   66.1010   61.8420 C   0  0  0  0  0  0  0  0  0  0  0  0
   42.5670   67.4170   61.5730 N   0  0  0  0  0  0  0  0  0  0  0  0
   41.8130   68.3500   62.2260 C   0  0  0  0  0  0  0  0  0  0  0  0
   40.9380   67.9750   63.1610 N   0  0  0  0  0  0  0  0  0  0  0  0
   40.0540   66.4380   64.2470 H   0  0  0  0  0  0  0  0  0  0  0  0
   41.4030   64.6550   63.0910 H   0  0  0  0  0  0  0  0  0  0  0  0
   43.0540   65.3660   61.3260 H   0  0  0  0  0  0  0  0  0  0  0  0
   39.9760   75.9120   58.8000 C   0  0  0  0  0  0  0  0  0  0  0  0
   39.5630   76.8240   59.5280 O   0  0  0  0  0  0  0  0  0  0  0  0
   39.2320   75.5370   57.5390 C   0  0  1  0  0  0  0  0  0  0  0  0
   37.9620   74.7690   57.8160 C   0  0  0  0  0  0  0  0  0  0  0  0
   37.9420   76.1240   57.2580 C   0  0  2  0  0  0  0  0  0  0  0  0
   39.8690   74.9580   56.8080 H   0  0  0  0  0  0  0  0  0  0  0  0
   37.6960   74.5670   58.8810 H   0  0  0  0  0  0  0  0  0  0  0  0
   37.7630   73.8880   57.1790 H   0  0  0  0  0  0  0  0  0  0  0  0
   37.6240   76.9380   57.9750 H   0  0  0  0  0  0  0  0  0  0  0  0
   37.3660   76.2680   55.9250 C   0  0  0  0  0  0  0  0  0  0  0  0
   36.9930   75.2910   55.0750 C   0  0  0  0  0  0  0  0  0  0  0  0
   37.1020   74.2270   55.3430 H   0  0  0  0  0  0  0  0  0  0  0  0
   36.4640   75.6120   53.8480 C   0  0  0  0  0  3  0  0  0  0  0  0
   36.3450   76.9520   53.5510 C   0  0  0  0  0  3  0  0  0  0  0  0
   37.0200   77.8100   55.1010 S   0  0  0  0  0  0  0  0  0  0  0  0
  1 12  1  0  0  0  0
  2  7  1  0  0  0  0
  2  1  1  0  0  0  0
  3  2  2  0  0  0  0
  4  3  1  0  0  0  0
  4  5  2  0  0  0  0
  5  6  1  0  0  0  0
  6  1  2  0  0  0  0
  8  3  1  0  0  0  0
  9 20  1  0  0  0  0
  9 10  2  0  0  0  0
 10 14  1  0  0  0  0
 11 10  1  0  0  0  0
 11 15  1  0  0  0  0
 12 11  2  0  0  0  0
 13 12  1  0  0  0  0
 13  9  1  0  0  0  0
 16 22  1  0  0  0  0
 17 23  1  0  0  0  0
 17 16  2  0  0  0  0
 18 17  1  0  0  0  0
 19 18  2  0  0  0  0
 19 20  1  0  0  0  0
 20 21  2  0  0  0  0
 21 16  1  0  0  0  0
 24 18  1  0  0  0  0
 25  5  1  0  0  0  0
 25 26  2  0  0  0  0
 27 30  1  6  0  0  0
 27 28  1  0  0  0  0
 27 25  1  0  0  0  0
 28 31  1  0  0  0  0
 29 27  1  0  0  0  0
 29 28  1  0  0  0  0
 29 33  1  1  0  0  0
 32 28  1  0  0  0  0
 34 29  1  0  0  0  0
 35 36  1  0  0  0  0
 35 34  2  0  0  0  0
 37 35  1  0  0  0  0
 38 37  2  0  0  0  0
 38 39  1  0  0  0  0
 39 34  1  0  0  0  0
M  END
>  <minimizedAffinity>
-6.62428045

$$$$

 OpenBabel03212521013D

 39 43  0  0  1  0  0  0  0  0999 V2000
   39.4180   75.8060   59.1710 C   0  0  0  0  0  0  0  0  0  0  0  0
   39.9330   77.0270   59.4680 C   0  0  0  0  0  0  0  0  0  0  0  0
   39.5430   78.0090   58.5420 C   0  0  0  0  0  0  0  0  0  0  0  0
   38.7500   77.7770   57.4790 N   0  0  0  0  0  0  0  0  0  0  0  0
   38.2860   76.5080   57.2750 C   0  0  0  0  0  0  0  0  0  0  0  0
   38.6280   75.5170   58.1330 N   0  0  0  0  0  0  0  0  0  0  0  0
   40.5680   77.2690   60.2970 H   0  0  0  0  0  0  0  0  0  0  0  0
   39.8770   79.0420   58.6470 H   0  0  0  0  0  0  0  0  0  0  0  0
   40.9340   72.5930   61.1730 C   0  0  0  0  0  0  0  0  0  0  0  0
   39.7350   73.0120   61.7060 C   0  0  0  0  0  0  0  0  0  0  0  0
   39.1360   74.0750   61.1190 C   0  0  0  0  0  0  0  0  0  0  0  0
   39.7320   74.6880   60.0370 C   0  0  0  0  0  0  0  0  0  0  0  0
   41.2720   73.7120   59.7890 S   0  0  0  0  0  0  0  0  0  0  0  0
   39.2640   72.5290   62.5600 H   0  0  0  0  0  0  0  0  0  0  0  0
   38.2020   74.5520   61.3830 H   0  0  0  0  0  0  0  0  0  0  0  0
   43.3630   69.8470   61.3070 C   0  0  0  0  0  0  0  0  0  0  0  0
   43.1750   69.3230   62.6140 C   0  0  0  0  0  0  0  0  0  0  0  0
   42.2130   69.9190   63.4480 C   0  0  0  0  0  0  0  0  0  0  0  0
   41.5140   70.9650   62.9630 N   0  0  0  0  0  0  0  0  0  0  0  0
   41.7180   71.4470   61.7030 C   0  0  0  0  0  0  0  0  0  0  0  0
   42.6290   70.8860   60.9060 N   0  0  0  0  0  0  0  0  0  0  0  0
   44.0850   69.4280   60.6300 H   0  0  0  0  0  0  0  0  0  0  0  0
   43.7730   68.4780   62.9390 H   0  0  0  0  0  0  0  0  0  0  0  0
   42.0520   69.5390   64.4430 H   0  0  0  0  0  0  0  0  0  0  0  0
   37.4260   76.2830   56.1260 C   0  0  0  0  0  0  0  0  0  0  0  0
   36.5010   77.0860   55.9420 O   0  0  0  0  0  0  0  0  0  0  0  0
   37.6300   75.1160   55.1900 C   0  0  1  0  0  0  0  0  0  0  0  0
   38.1580   75.5350   53.8390 C   0  0  0  0  0  0  0  0  0  0  0  0
   38.9630   74.7430   54.7750 C   0  0  2  0  0  0  0  0  0  0  0  0
   36.6950   74.4940   55.0500 H   0  0  0  0  0  0  0  0  0  0  0  0
   38.3520   76.6210   53.6680 H   0  0  0  0  0  0  0  0  0  0  0  0
   37.6910   75.0670   52.9530 H   0  0  0  0  0  0  0  0  0  0  0  0
   39.7950   75.3060   55.2920 H   0  0  0  0  0  0  0  0  0  0  0  0
   39.3530   73.4110   54.3270 C   0  0  0  0  0  0  0  0  0  0  0  0
   39.5400   72.9840   53.0630 C   0  0  0  0  0  0  0  0  0  0  0  0
   39.4020   73.6620   52.2040 H   0  0  0  0  0  0  0  0  0  0  0  0
   39.9110   71.6820   52.8230 C   0  0  0  0  0  3  0  0  0  0  0  0
   40.0720   70.8680   53.9230 C   0  0  0  0  0  3  0  0  0  0  0  0
   39.6770   72.0120   55.3830 S   0  0  0  0  0  0  0  0  0  0  0  0
  1  2  1  0  0  0  0
  1 12  1  0  0  0  0
  2  7  1  0  0  0  0
  3  8  1  0  0  0  0
  3  2  2  0  0  0  0
  4  3  1  0  0  0  0
  5  4  2  0  0  0  0
  5  6  1  0  0  0  0
  6  1  2  0  0  0  0
  9 20  1  0  0  0  0
  9 10  2  0  0  0  0
 10 14  1  0  0  0  0
 11 15  1  0  0  0  0
 11 10  1  0  0  0  0
 12 11  2  0  0  0  0
 13 12  1  0  0  0  0
 13  9  1  0  0  0  0
 16 17  1  0  0  0  0
 17 23  1  0  0  0  0
 17 18  2  0  0  0  0
 18 24  1  0  0  0  0
 19 18  1  0  0  0  0
 20 19  2  0  0  0  0
 21 16  2  0  0  0  0
 21 20  1  0  0  0  0
 22 16  1  0  0  0  0
 25  5  1  0  0  0  0
 26 25  2  0  0  0  0
 27 30  1  1  0  0  0
 27 25  1  0  0  0  0
 28 29  1  0  0  0  0
 28 27  1  0  0  0  0
 29 27  1  0  0  0  0
 29 33  1  1  0  0  0
 31 28  1  0  0  0  0
 32 28  1  0  0  0  0
 34 29  1  0  0  0  0
 34 39  1  0  0  0  0
 35 34  2  0  0  0  0
 36 35  1  0  0  0  0
 37 35  1  0  0  0  0
 37 38  2  0  0  0  0
 38 39  1  0  0  0  0
M  END
>  <minimizedAffinity>
-6.51870823

$$$$

 OpenBabel03212521013D

 39 43  0  0  1  0  0  0  0  0999 V2000
   40.0030   73.2630   59.0110 C   0  0  0  0  0  0  0  0  0  0  0  0
   39.3620   74.3650   59.4800 C   0  0  0  0  0  0  0  0  0  0  0  0
   39.5970   74.5750   60.8480 C   0  0  0  0  0  0  0  0  0  0  0  0
   40.3680   73.7820   61.6160 N   0  0  0  0  0  0  0  0  0  0  0  0
   40.9670   72.6980   61.0400 C   0  0  0  0  0  0  0  0  0  0  0  0
   40.7780   72.4410   59.7240 N   0  0  0  0  0  0  0  0  0  0  0  0
   38.7380   75.0300   58.9170 H   0  0  0  0  0  0  0  0  0  0  0  0
   39.1500   75.4220   61.3700 H   0  0  0  0  0  0  0  0  0  0  0  0
   39.9030   71.6080   55.2840 C   0  0  0  0  0  0  0  0  0  0  0  0
   39.3910   72.8870   55.2930 C   0  0  0  0  0  0  0  0  0  0  0  0
   39.3740   73.5380   56.4800 C   0  0  0  0  0  0  0  0  0  0  0  0
   39.8560   72.9140   57.6120 C   0  0  0  0  0  0  0  0  0  0  0  0
   40.3920   71.2650   56.9960 S   0  0  0  0  0  0  0  0  0  0  0  0
   39.0110   73.3800   54.4000 H   0  0  0  0  0  0  0  0  0  0  0  0
   39.0180   74.5360   56.6960 H   0  0  0  0  0  0  0  0  0  0  0  0
   40.3970   68.6490   53.1730 C   0  0  0  0  0  0  0  0  0  0  0  0
   40.1800   69.1570   51.8630 C   0  0  0  0  0  0  0  0  0  0  0  0
   39.8610   70.5170   51.7120 C   0  0  0  0  0  0  0  0  0  0  0  0
   39.7750   71.2770   52.8220 N   0  0  0  0  0  0  0  0  0  0  0  0
   39.9880   70.7600   54.0670 C   0  0  0  0  0  0  0  0  0  0  0  0
   40.2910   69.4700   54.2190 N   0  0  0  0  0  0  0  0  0  0  0  0
   40.6440   67.6170   53.3430 H   0  0  0  0  0  0  0  0  0  0  0  0
   40.2660   68.4880   51.0130 H   0  0  0  0  0  0  0  0  0  0  0  0
   39.6920   70.9250   50.7290 H   0  0  0  0  0  0  0  0  0  0  0  0
   41.8000   71.8610   61.8860 C   0  0  0  0  0  0  0  0  0  0  0  0
   42.4410   72.4210   62.7860 O   0  0  0  0  0  0  0  0  0  0  0  0
   41.9020   70.3670   61.6840 C   0  0  1  0  0  0  0  0  0  0  0  0
   43.1290   69.7720   62.3310 C   0  0  0  0  0  0  0  0  0  0  0  0
   41.7770   69.4730   62.8120 C   0  0  2  0  0  0  0  0  0  0  0  0
   41.8680   70.0670   60.5940 H   0  0  0  0  0  0  0  0  0  0  0  0
   43.8130   70.4590   62.8840 H   0  0  0  0  0  0  0  0  0  0  0  0
   43.6980   69.0330   61.7370 H   0  0  0  0  0  0  0  0  0  0  0  0
   41.4890   69.9730   63.7830 H   0  0  0  0  0  0  0  0  0  0  0  0
   41.3510   68.0800   62.7270 C   0  0  0  0  0  0  0  0  0  0  0  0
   41.9560   67.0680   62.0740 C   0  0  0  0  0  0  0  0  0  0  0  0
   42.8920   67.2280   61.5120 H   0  0  0  0  0  0  0  0  0  0  0  0
   41.4090   65.8080   62.1010 C   0  0  0  0  0  3  0  0  0  0  0  0
   40.2410   65.6500   62.8140 C   0  0  0  0  0  3  0  0  0  0  0  0
   39.8950   67.3890   63.4870 S   0  0  0  0  0  0  0  0  0  0  0  0
  1  2  2  0  0  0  0
  1  6  1  0  0  0  0
  2  3  1  0  0  0  0
  3  8  1  0  0  0  0
  3  4  2  0  0  0  0
  5  4  1  0  0  0  0
  5 25  1  0  0  0  0
  6  5  2  0  0  0  0
  7  2  1  0  0  0  0
  9 10  2  0  0  0  0
  9 13  1  0  0  0  0
 10 11  1  0  0  0  0
 11 15  1  0  0  0  0
 11 12  2  0  0  0  0
 12  1  1  0  0  0  0
 13 12  1  0  0  0  0
 14 10  1  0  0  0  0
 16 22  1  0  0  0  0
 16 21  1  0  0  0  0
 17 16  2  0  0  0  0
 18 17  1  0  0  0  0
 18 19  2  0  0  0  0
 19 20  1  0  0  0  0
 20 21  2  0  0  0  0
 20  9  1  0  0  0  0
 23 17  1  0  0  0  0
 24 18  1  0  0  0  0
 25 26  2  0  0  0  0
 27 30  1  6  0  0  0
 27 25  1  0  0  0  0
 27 28  1  0  0  0  0
 27 29  1  0  0  0  0
 28 29  1  0  0  0  0
 28 31  1  0  0  0  0
 29 33  1  1  0  0  0
 32 28  1  0  0  0  0
 34 29  1  0  0  0  0
 34 39  1  0  0  0  0
 35 37  1  0  0  0  0
 35 34  2  0  0  0  0
 36 35  1  0  0  0  0
 37 38  2  0  0  0  0
 38 39  1  0  0  0  0
M  END
>  <minimizedAffinity>
-5.95076561

$$$$

 OpenBabel03212521013D

 39 43  0  0  1  0  0  0  0  0999 V2000
   42.1790   69.7900   59.1820 C   0  0  0  0  0  0  0  0  0  0  0  0
   43.0950   69.0890   59.8970 C   0  0  0  0  0  0  0  0  0  0  0  0
   43.2730   69.6090   61.1900 C   0  0  0  0  0  0  0  0  0  0  0  0
   42.6140   70.6790   61.6740 N   0  0  0  0  0  0  0  0  0  0  0  0
   41.7110   71.3110   60.8660 C   0  0  0  0  0  0  0  0  0  0  0  0
   41.4970   70.8570   59.6080 N   0  0  0  0  0  0  0  0  0  0  0  0
   43.6480   68.2330   59.5650 H   0  0  0  0  0  0  0  0  0  0  0  0
   43.9770   69.1520   61.8860 H   0  0  0  0  0  0  0  0  0  0  0  0
   41.0370   69.3150   55.2950 C   0  0  0  0  0  0  0  0  0  0  0  0
   41.6780   68.1980   55.7830 C   0  0  0  0  0  0  0  0  0  0  0  0
   42.1030   68.2410   57.0680 C   0  0  0  0  0  0  0  0  0  0  0  0
   41.8860   69.3730   57.8250 C   0  0  0  0  0  0  0  0  0  0  0  0
   41.0090   70.5010   56.6650 S   0  0  0  0  0  0  0  0  0  0  0  0
   41.8490   67.3040   55.1860 H   0  0  0  0  0  0  0  0  0  0  0  0
   42.6200   67.4770   57.6320 H   0  0  0  0  0  0  0  0  0  0  0  0
   39.7850   70.8300   52.1970 C   0  0  0  0  0  0  0  0  0  0  0  0
   39.5360   69.7000   51.3730 C   0  0  0  0  0  0  0  0  0  0  0  0
   39.8030   68.4190   51.8840 C   0  0  0  0  0  0  0  0  0  0  0  0
   40.2860   68.3250   53.1390 N   0  0  0  0  0  0  0  0  0  0  0  0
   40.5160   69.4300   53.9080 C   0  0  0  0  0  0  0  0  0  0  0  0
   40.2650   70.6490   53.4290 N   0  0  0  0  0  0  0  0  0  0  0  0
   39.5970   71.8310   51.8540 H   0  0  0  0  0  0  0  0  0  0  0  0
   39.1450   69.8490   50.3710 H   0  0  0  0  0  0  0  0  0  0  0  0
   39.6220   67.5480   51.2780 H   0  0  0  0  0  0  0  0  0  0  0  0
   41.0070   72.4580   61.4120 C   0  0  0  0  0  0  0  0  0  0  0  0
   41.0900   72.6490   62.6330 O   0  0  0  0  0  0  0  0  0  0  0  0
   40.1930   73.3860   60.5420 C   0  0  1  0  0  0  0  0  0  0  0  0
   38.9560   73.9040   61.2370 C   0  0  0  0  0  0  0  0  0  0  0  0
   40.0750   74.7850   60.8860 C   0  0  2  0  0  0  0  0  0  0  0  0
   39.9010   72.9210   59.5540 H   0  0  0  0  0  0  0  0  0  0  0  0
   38.7720   73.5750   62.2880 H   0  0  0  0  0  0  0  0  0  0  0  0
   38.0190   73.9120   60.6500 H   0  0  0  0  0  0  0  0  0  0  0  0
   40.7190   75.1160   61.7530 H   0  0  0  0  0  0  0  0  0  0  0  0
   39.7850   75.8540   59.9370 C   0  0  0  0  0  0  0  0  0  0  0  0
   40.2300   77.1260   59.9610 C   0  0  0  0  0  0  0  0  0  0  0  0
   40.9010   77.4820   60.7610 H   0  0  0  0  0  0  0  0  0  0  0  0
   39.8520   78.0060   58.9760 C   0  0  0  0  0  3  0  0  0  0  0  0
   39.0140   77.5220   57.9950 C   0  0  0  0  0  3  0  0  0  0  0  0
   38.7460   75.7130   58.4960 S   0  0  0  0  0  0  0  0  0  0  0  0
  1  6  2  0  0  0  0
  1  2  1  0  0  0  0
  2  3  2  0  0  0  0
  3  4  1  0  0  0  0
  3  8  1  0  0  0  0
  5 25  1  0  0  0  0
  5  4  2  0  0  0  0
  6  5  1  0  0  0  0
  7  2  1  0  0  0  0
  9 10  2  0  0  0  0
  9 13  1  0  0  0  0
 10 11  1  0  0  0  0
 11 15  1  0  0  0  0
 11 12  2  0  0  0  0
 12  1  1  0  0  0  0
 13 12  1  0  0  0  0
 14 10  1  0  0  0  0
 16 21  1  0  0  0  0
 17 18  1  0  0  0  0
 17 16  2  0  0  0  0
 18 19  2  0  0  0  0
 19 20  1  0  0  0  0
 20  9  1  0  0  0  0
 21 20  2  0  0  0  0
 22 16  1  0  0  0  0
 23 17  1  0  0  0  0
 24 18  1  0  0  0  0
 25 26  2  0  0  0  0
 27 30  1  6  0  0  0
 27 29  1  0  0  0  0
 27 28  1  0  0  0  0
 27 25  1  0  0  0  0
 28 31  1  0  0  0  0
 29 28  1  0  0  0  0
 29 33  1  1  0  0  0
 32 28  1  0  0  0  0
 34 35  2  0  0  0  0
 34 29  1  0  0  0  0
 35 36  1  0  0  0  0
 37 35  1  0  0  0  0
 38 39  1  0  0  0  0
 38 37  2  0  0  0  0
 39 34  1  0  0  0  0
M  END
>  <minimizedAffinity>
-5.92517757

$$$$

 OpenBabel03212521013D

 39 43  0  0  1  0  0  0  0  0999 V2000
   40.6590   73.8710   60.6780 C   0  0  0  0  0  0  0  0  0  0  0  0
   39.5730   74.4470   61.2550 C   0  0  0  0  0  0  0  0  0  0  0  0
   39.1610   75.6060   60.5760 C   0  0  0  0  0  0  0  0  0  0  0  0
   39.7670   76.0970   59.4780 N   0  0  0  0  0  0  0  0  0  0  0  0
   40.8540   75.4360   58.9810 C   0  0  0  0  0  0  0  0  0  0  0  0
   41.3000   74.3130   59.5920 N   0  0  0  0  0  0  0  0  0  0  0  0
   39.0520   74.1020   62.1260 H   0  0  0  0  0  0  0  0  0  0  0  0
   38.3000   76.1810   60.9200 H   0  0  0  0  0  0  0  0  0  0  0  0
   42.1620   70.1970   61.6150 C   0  0  0  0  0  0  0  0  0  0  0  0
   42.0640   71.0100   62.7220 C   0  0  0  0  0  0  0  0  0  0  0  0
   41.5750   72.2580   62.5310 C   0  0  0  0  0  0  0  0  0  0  0  0
   41.2030   72.6640   61.2670 C   0  0  0  0  0  0  0  0  0  0  0  0
   41.5540   71.1880   60.2240 S   0  0  0  0  0  0  0  0  0  0  0  0
   42.3570   70.6900   63.7200 H   0  0  0  0  0  0  0  0  0  0  0  0
   41.4200   73.0400   63.2620 H   0  0  0  0  0  0  0  0  0  0  0  0
   44.5390   67.4080   61.7850 C   0  0  0  0  0  0  0  0  0  0  0  0
   43.6940   66.2690   61.7090 C   0  0  0  0  0  0  0  0  0  0  0  0
   42.3070   66.4640   61.6020 C   0  0  0  0  0  0  0  0  0  0  0  0
   41.8440   67.7300   61.5780 N   0  0  0  0  0  0  0  0  0  0  0  0
   42.6810   68.8050   61.6540 C   0  0  0  0  0  0  0  0  0  0  0  0
   43.9990   68.6280   61.7550 N   0  0  0  0  0  0  0  0  0  0  0  0
   45.6070   67.3140   61.8670 H   0  0  0  0  0  0  0  0  0  0  0  0
   44.1350   65.2770   61.7330 H   0  0  0  0  0  0  0  0  0  0  0  0
   41.6460   65.6160   61.5430 H   0  0  0  0  0  0  0  0  0  0  0  0
   41.4860   75.9800   57.7920 C   0  0  0  0  0  0  0  0  0  0  0  0
   42.6420   76.4110   57.9080 O   0  0  0  0  0  0  0  0  0  0  0  0
   40.7740   76.0380   56.4610 C   0  0  1  0  0  0  0  0  0  0  0  0
   41.1760   74.9160   55.5340 C   0  0  0  0  0  0  0  0  0  0  0  0
   39.8280   75.0070   56.1010 C   0  0  2  0  0  0  0  0  0  0  0  0
   40.9080   77.0270   55.9320 H   0  0  0  0  0  0  0  0  0  0  0  0
   41.9230   74.1730   55.9060 H   0  0  0  0  0  0  0  0  0  0  0  0
   41.3710   75.1840   54.4790 H   0  0  0  0  0  0  0  0  0  0  0  0
   39.5970   74.2670   56.9220 H   0  0  0  0  0  0  0  0  0  0  0  0
   38.7350   75.1770   55.1490 C   0  0  0  0  0  0  0  0  0  0  0  0
   38.7860   75.0890   53.8050 C   0  0  0  0  0  0  0  0  0  0  0  0
   39.7310   74.8640   53.2820 H   0  0  0  0  0  0  0  0  0  0  0  0
   37.6480   75.2800   53.0590 C   0  0  0  0  0  3  0  0  0  0  0  0
   36.4890   75.5600   53.7500 C   0  0  0  0  0  3  0  0  0  0  0  0
   37.0420   75.5510   55.5640 S   0  0  0  0  0  0  0  0  0  0  0  0
  1  2  1  0  0  0  0
  1 12  1  0  0  0  0
  2  7  1  0  0  0  0
  3  8  1  0  0  0  0
  3  2  2  0  0  0  0
  4  3  1  0  0  0  0
  5  4  2  0  0  0  0
  5  6  1  0  0  0  0
  6  1  2  0  0  0  0
  9 20  1  0  0  0  0
  9 10  2  0  0  0  0
 10 14  1  0  0  0  0
 11 10  1  0  0  0  0
 11 15  1  0  0  0  0
 12 11  2  0  0  0  0
 13 12  1  0  0  0  0
 13  9  1  0  0  0  0
 16 22  1  0  0  0  0
 17 23  1  0  0  0  0
 17 16  2  0  0  0  0
 18 17  1  0  0  0  0
 19 18  2  0  0  0  0
 19 20  1  0  0  0  0
 20 21  2  0  0  0  0
 21 16  1  0  0  0  0
 24 18  1  0  0  0  0
 25 26  2  0  0  0  0
 25  5  1  0  0  0  0
 27 30  1  6  0  0  0
 27 25  1  0  0  0  0
 28 31  1  0  0  0  0
 28 29  1  0  0  0  0
 28 27  1  0  0  0  0
 29 27  1  0  0  0  0
 29 33  1  1  0  0  0
 32 28  1  0  0  0  0
 34 39  1  0  0  0  0
 34 29  1  0  0  0  0
 35 34  2  0  0  0  0
 36 35  1  0  0  0  0
 37 38  2  0  0  0  0
 37 35  1  0  0  0  0
 38 39  1  0  0  0  0
M  END
>  <minimizedAffinity>
-5.90100193

$$$$

 OpenBabel03212521013D

 39 43  0  0  1  0  0  0  0  0999 V2000
   40.4890   73.4160   60.9290 C   0  0  0  0  0  0  0  0  0  0  0  0
   39.1820   73.3760   61.2940 C   0  0  0  0  0  0  0  0  0  0  0  0
   38.4700   74.5010   60.8470 C   0  0  0  0  0  0  0  0  0  0  0  0
   39.0120   75.5090   60.1370 N   0  0  0  0  0  0  0  0  0  0  0  0
   40.3400   75.4460   59.8230 C   0  0  0  0  0  0  0  0  0  0  0  0
   41.0810   74.3860   60.2270 N   0  0  0  0  0  0  0  0  0  0  0  0
   38.6980   72.6030   61.8570 H   0  0  0  0  0  0  0  0  0  0  0  0
   37.4060   74.6140   61.0620 H   0  0  0  0  0  0  0  0  0  0  0  0
   42.9700   70.1960   61.2680 C   0  0  0  0  0  0  0  0  0  0  0  0
   42.6600   70.7380   62.4960 C   0  0  0  0  0  0  0  0  0  0  0  0
   41.8400   71.8150   62.5070 C   0  0  0  0  0  0  0  0  0  0  0  0
   41.3550   72.3210   61.3190 C   0  0  0  0  0  0  0  0  0  0  0  0
   42.0940   71.2120   60.0500 S   0  0  0  0  0  0  0  0  0  0  0  0
   43.0420   70.3390   63.4340 H   0  0  0  0  0  0  0  0  0  0  0  0
   41.4810   72.3800   63.3570 H   0  0  0  0  0  0  0  0  0  0  0  0
   45.7780   68.1460   60.0970 C   0  0  0  0  0  0  0  0  0  0  0  0
   45.5150   66.8830   60.6930 C   0  0  0  0  0  0  0  0  0  0  0  0
   44.3740   66.7420   61.4990 C   0  0  0  0  0  0  0  0  0  0  0  0
   43.5800   67.8170   61.6700 N   0  0  0  0  0  0  0  0  0  0  0  0
   43.8580   69.0190   61.0850 C   0  0  0  0  0  0  0  0  0  0  0  0
   44.9400   69.1610   60.3180 N   0  0  0  0  0  0  0  0  0  0  0  0
   46.6370   68.3070   59.4720 H   0  0  0  0  0  0  0  0  0  0  0  0
   46.1980   66.0580   60.5130 H   0  0  0  0  0  0  0  0  0  0  0  0
   44.1540   65.7940   61.9620 H   0  0  0  0  0  0  0  0  0  0  0  0
   40.9010   76.5400   59.0500 C   0  0  0  0  0  0  0  0  0  0  0  0
   41.9070   77.1020   59.5060 O   0  0  0  0  0  0  0  0  0  0  0  0
   40.2890   76.9960   57.7460 C   0  0  1  0  0  0  0  0  0  0  0  0
   41.0840   76.5550   56.5410 C   0  0  0  0  0  0  0  0  0  0  0  0
   39.7460   76.0270   56.8230 C   0  0  2  0  0  0  0  0  0  0  0  0
   40.1300   78.1150   57.7020 H   0  0  0  0  0  0  0  0  0  0  0  0
   42.0050   75.9490   56.7170 H   0  0  0  0  0  0  0  0  0  0  0  0
   41.2450   77.3060   55.7460 H   0  0  0  0  0  0  0  0  0  0  0  0
   39.7160   74.9670   57.2110 H   0  0  0  0  0  0  0  0  0  0  0  0
   38.7150   76.3110   55.8300 C   0  0  0  0  0  0  0  0  0  0  0  0
   37.3960   76.4920   56.0350 C   0  0  0  0  0  0  0  0  0  0  0  0
   36.9610   76.4380   57.0470 H   0  0  0  0  0  0  0  0  0  0  0  0
   36.5640   76.7530   54.9730 C   0  0  0  0  0  3  0  0  0  0  0  0
   37.1460   76.8120   53.7250 C   0  0  0  0  0  3  0  0  0  0  0  0
   38.9790   76.4810   54.0750 S   0  0  0  0  0  0  0  0  0  0  0  0
  1  2  1  0  0  0  0
  1 12  1  0  0  0  0
  2  7  1  0  0  0  0
  3  8  1  0  0  0  0
  3  2  2  0  0  0  0
  4  3  1  0  0  0  0
  5  4  2  0  0  0  0
  5  6  1  0  0  0  0
  6  1  2  0  0  0  0
  9 10  2  0  0  0  0
 10 11  1  0  0  0  0
 10 14  1  0  0  0  0
 11 15  1  0  0  0  0
 12 11  2  0  0  0  0
 13  9  1  0  0  0  0
 13 12  1  0  0  0  0
 16 21  2  0  0  0  0
 16 17  1  0  0  0  0
 17 18  2  0  0  0  0
 18 19  1  0  0  0  0
 18 24  1  0  0  0  0
 20  9  1  0  0  0  0
 20 19  2  0  0  0  0
 21 20  1  0  0  0  0
 22 16  1  0  0  0  0
 23 17  1  0  0  0  0
 25 26  2  0  0  0  0
 25  5  1  0  0  0  0
 27 30  1  6  0  0  0
 27 25  1  0  0  0  0
 28 31  1  0  0  0  0
 28 29  1  0  0  0  0
 28 27  1  0  0  0  0
 29 33  1  1  0  0  0
 29 27  1  0  0  0  0
 32 28  1  0  0  0  0
 34 35  2  0  0  0  0
 34 29  1  0  0  0  0
 35 36  1  0  0  0  0
 37 35  1  0  0  0  0
 38 39  1  0  0  0  0
 38 37  2  0  0  0  0
 39 34  1  0  0  0  0
M  END
>  <minimizedAffinity>
-5.82287598

$$$$

 OpenBabel03212521013D

 39 43  0  0  1  0  0  0  0  0999 V2000
   38.5240   74.7770   55.5570 C   0  0  0  0  0  0  0  0  0  0  0  0
   37.3980   75.3840   55.0980 C   0  0  0  0  0  0  0  0  0  0  0  0
   36.9980   76.4520   55.9180 C   0  0  0  0  0  0  0  0  0  0  0  0
   37.6490   76.8380   57.0320 N   0  0  0  0  0  0  0  0  0  0  0  0
   38.7740   76.1550   57.4020 C   0  0  0  0  0  0  0  0  0  0  0  0
   39.2090   75.1150   56.6520 N   0  0  0  0  0  0  0  0  0  0  0  0
   36.8410   75.1210   54.2220 H   0  0  0  0  0  0  0  0  0  0  0  0
   36.1110   77.0400   55.6810 H   0  0  0  0  0  0  0  0  0  0  0  0
   40.0570   71.2670   54.1550 C   0  0  0  0  0  0  0  0  0  0  0  0
   39.8730   72.1870   53.1470 C   0  0  0  0  0  0  0  0  0  0  0  0
   39.3680   73.3940   53.4960 C   0  0  0  0  0  0  0  0  0  0  0  0
   39.0610   73.6540   54.8150 C   0  0  0  0  0  0  0  0  0  0  0  0
   39.5090   72.0900   55.6750 S   0  0  0  0  0  0  0  0  0  0  0  0
   40.1160   71.9820   52.1060 H   0  0  0  0  0  0  0  0  0  0  0  0
   39.1520   74.2430   52.8610 H   0  0  0  0  0  0  0  0  0  0  0  0
   41.0390   68.1820   52.4300 C   0  0  0  0  0  0  0  0  0  0  0  0
   41.5540   67.3820   53.4850 C   0  0  0  0  0  0  0  0  0  0  0  0
   41.5650   67.9080   54.7870 C   0  0  0  0  0  0  0  0  0  0  0  0
   41.0840   69.1530   54.9730 N   0  0  0  0  0  0  0  0  0  0  0  0
   40.5960   69.8990   53.9390 C   0  0  0  0  0  0  0  0  0  0  0  0
   40.5830   69.4060   52.7000 N   0  0  0  0  0  0  0  0  0  0  0  0
   41.0080   67.8270   51.4160 H   0  0  0  0  0  0  0  0  0  0  0  0
   41.9250   66.3860   53.2630 H   0  0  0  0  0  0  0  0  0  0  0  0
   41.9500   67.3200   55.6030 H   0  0  0  0  0  0  0  0  0  0  0  0
   39.4630   76.5940   58.6030 C   0  0  0  0  0  0  0  0  0  0  0  0
   39.3890   77.7960   58.8940 O   0  0  0  0  0  0  0  0  0  0  0  0
   40.2510   75.6400   59.4680 C   0  0  1  0  0  0  0  0  0  0  0  0
   39.6410   75.4480   60.8350 C   0  0  0  0  0  0  0  0  0  0  0  0
   39.6820   74.3670   59.8470 C   0  0  2  0  0  0  0  0  0  0  0  0
   41.3360   75.9400   59.5800 H   0  0  0  0  0  0  0  0  0  0  0  0
   38.6970   75.9990   61.0670 H   0  0  0  0  0  0  0  0  0  0  0  0
   40.3320   75.4600   61.6980 H   0  0  0  0  0  0  0  0  0  0  0  0
   38.6950   74.1230   59.3550 H   0  0  0  0  0  0  0  0  0  0  0  0
   40.4560   73.1850   60.2120 C   0  0  0  0  0  0  0  0  0  0  0  0
   40.9770   72.2500   59.3930 C   0  0  0  0  0  0  0  0  0  0  0  0
   40.8500   72.3140   58.2990 H   0  0  0  0  0  0  0  0  0  0  0  0
   41.6850   71.1940   59.9150 C   0  0  0  0  0  3  0  0  0  0  0  0
   41.8210   71.1520   61.2850 C   0  0  0  0  0  3  0  0  0  0  0  0
   40.8940   72.6990   61.8710 S   0  0  0  0  0  0  0  0  0  0  0  0
  1  6  1  0  0  0  0
  2  1  2  0  0  0  0
  2  3  1  0  0  0  0
  3  4  2  0  0  0  0
  4  5  1  0  0  0  0
  5 25  1  0  0  0  0
  6  5  2  0  0  0  0
  7  2  1  0  0  0  0
  8  3  1  0  0  0  0
  9 13  1  0  0  0  0
 10 11  1  0  0  0  0
 10  9  2  0  0  0  0
 11 12  2  0  0  0  0
 12  1  1  0  0  0  0
 12 13  1  0  0  0  0
 14 10  1  0  0  0  0
 15 11  1  0  0  0  0
 16 21  2  0  0  0  0
 16 17  1  0  0  0  0
 17 18  2  0  0  0  0
 18 19  1  0  0  0  0
 18 24  1  0  0  0  0
 20  9  1  0  0  0  0
 20 19  2  0  0  0  0
 21 20  1  0  0  0  0
 22 16  1  0  0  0  0
 23 17  1  0  0  0  0
 25 26  2  0  0  0  0
 25 27  1  0  0  0  0
 27 30  1  6  0  0  0
 27 29  1  0  0  0  0
 27 28  1  0  0  0  0
 28 31  1  0  0  0  0
 28 32  1  0  0  0  0
 29 33  1  6  0  0  0
 29 34  1  0  0  0  0
 29 28  1  0  0  0  0
 34 39  1  0  0  0  0
 35 37  1  0  0  0  0
 35 34  2  0  0  0  0
 36 35  1  0  0  0  0
 37 38  2  0  0  0  0
 38 39  1  0  0  0  0
M  END
>  <minimizedAffinity>
-5.81213093

$$$$

 OpenBabel03212521013D

 39 43  0  0  1  0  0  0  0  0999 V2000
   40.5070   73.1290   60.2190 C   0  0  0  0  0  0  0  0  0  0  0  0
   40.1860   73.0430   61.5360 C   0  0  0  0  0  0  0  0  0  0  0  0
   40.9570   72.0830   62.2100 C   0  0  0  0  0  0  0  0  0  0  0  0
   41.9090   71.3290   61.6270 N   0  0  0  0  0  0  0  0  0  0  0  0
   42.1510   71.4990   60.2930 C   0  0  0  0  0  0  0  0  0  0  0  0
   41.4390   72.4090   59.5880 N   0  0  0  0  0  0  0  0  0  0  0  0
   39.4410   73.6150   62.0500 H   0  0  0  0  0  0  0  0  0  0  0  0
   40.8160   71.8970   63.2750 H   0  0  0  0  0  0  0  0  0  0  0  0
   38.4990   75.2360   57.3610 C   0  0  0  0  0  0  0  0  0  0  0  0
   38.6980   75.9790   58.5030 C   0  0  0  0  0  0  0  0  0  0  0  0
   39.3570   75.3810   59.5230 C   0  0  0  0  0  0  0  0  0  0  0  0
   39.7950   74.0800   59.3880 C   0  0  0  0  0  0  0  0  0  0  0  0
   39.2530   73.6210   57.6900 S   0  0  0  0  0  0  0  0  0  0  0  0
   38.3530   77.0060   58.6100 H   0  0  0  0  0  0  0  0  0  0  0  0
   39.6120   75.7890   60.4920 H   0  0  0  0  0  0  0  0  0  0  0  0
   36.4620   77.4110   55.2210 C   0  0  0  0  0  0  0  0  0  0  0  0
   36.4530   76.7140   53.9820 C   0  0  0  0  0  0  0  0  0  0  0  0
   37.1510   75.4990   53.8860 C   0  0  0  0  0  0  0  0  0  0  0  0
   37.8000   75.0520   54.9800 N   0  0  0  0  0  0  0  0  0  0  0  0
   37.7910   75.7430   56.1570 C   0  0  0  0  0  0  0  0  0  0  0  0
   37.1300   76.8980   56.2550 N   0  0  0  0  0  0  0  0  0  0  0  0
   35.9440   78.3440   55.3470 H   0  0  0  0  0  0  0  0  0  0  0  0
   35.9090   77.1330   53.1410 H   0  0  0  0  0  0  0  0  0  0  0  0
   37.1590   74.9530   52.9580 H   0  0  0  0  0  0  0  0  0  0  0  0
   43.1870   70.6800   59.6880 C   0  0  0  0  0  0  0  0  0  0  0  0
   44.1750   70.4070   60.3820 O   0  0  0  0  0  0  0  0  0  0  0  0
   43.0850   70.1810   58.2650 C   0  0  1  0  0  0  0  0  0  0  0  0
   43.2050   68.6800   58.1620 C   0  0  0  0  0  0  0  0  0  0  0  0
   41.9540   69.3800   57.8580 C   0  0  2  0  0  0  0  0  0  0  0  0
   43.8360   70.6660   57.5740 H   0  0  0  0  0  0  0  0  0  0  0  0
   43.3420   68.1010   59.1070 H   0  0  0  0  0  0  0  0  0  0  0  0
   43.8480   68.2840   57.3540 H   0  0  0  0  0  0  0  0  0  0  0  0
   41.1410   69.2760   58.6360 H   0  0  0  0  0  0  0  0  0  0  0  0
   41.4640   69.2660   56.4880 C   0  0  0  0  0  0  0  0  0  0  0  0
   41.4080   68.1620   55.7170 C   0  0  0  0  0  0  0  0  0  0  0  0
   41.7530   67.1840   56.0930 H   0  0  0  0  0  0  0  0  0  0  0  0
   40.9120   68.2400   54.4380 C   0  0  0  0  0  3  0  0  0  0  0  0
   40.4920   69.4800   54.0070 C   0  0  0  0  0  3  0  0  0  0  0  0
   40.8150   70.6010   55.5010 S   0  0  0  0  0  0  0  0  0  0  0  0
  1  2  1  0  0  0  0
  2  7  1  0  0  0  0
  2  3  2  0  0  0  0
  3  8  1  0  0  0  0
  4  3  1  0  0  0  0
  5  4  2  0  0  0  0
  6  1  2  0  0  0  0
  6  5  1  0  0  0  0
  9 13  1  0  0  0  0
  9 10  2  0  0  0  0
 10 14  1  0  0  0  0
 10 11  1  0  0  0  0
 11 15  1  0  0  0  0
 12 11  2  0  0  0  0
 12  1  1  0  0  0  0
 13 12  1  0  0  0  0
 16 22  1  0  0  0  0
 16 21  1  0  0  0  0
 17 16  2  0  0  0  0
 18 17  1  0  0  0  0
 18 19  2  0  0  0  0
 19 20  1  0  0  0  0
 20 21  2  0  0  0  0
 20  9  1  0  0  0  0
 23 17  1  0  0  0  0
 24 18  1  0  0  0  0
 25  5  1  0  0  0  0
 25 26  2  0  0  0  0
 27 30  1  6  0  0  0
 27 25  1  0  0  0  0
 28 27  1  0  0  0  0
 28 31  1  0  0  0  0
 29 28  1  0  0  0  0
 29 27  1  0  0  0  0
 29 33  1  1  0  0  0
 32 28  1  0  0  0  0
 34 29  1  0  0  0  0
 35 36  1  0  0  0  0
 35 34  2  0  0  0  0
 37 35  1  0  0  0  0
 38 37  2  0  0  0  0
 38 39  1  0  0  0  0
 39 34  1  0  0  0  0
M  END
>  <minimizedAffinity>
-5.81072855

$$$$
