
 OpenBabel03212520463D

 17 18  0  0  0  0  0  0  0  0999 V2000
   37.9680   75.0350   54.4760 C   0  0  0  0  0  0  0  0  0  0  0  0
   37.0000   76.0160   54.1190 C   0  0  0  0  0  0  0  0  0  0  0  0
   36.5530   76.8770   55.1260 C   0  0  0  0  0  0  0  0  0  0  0  0
   37.0620   76.7290   56.3660 N   0  0  0  0  0  0  0  0  0  0  0  0
   37.9700   75.7950   56.6610 C   0  0  0  0  0  0  0  0  0  0  0  0
   38.4260   74.9520   55.7370 N   0  0  0  0  0  0  0  0  0  0  0  0
   38.3230   74.2400   53.3620 N   0  0  0  0  0  0  0  0  0  0  0  0
   36.5870   76.1470   53.1450 H   0  0  0  0  0  0  0  0  0  0  0  0
   35.8200   77.6420   54.9130 H   0  0  0  0  0  0  0  0  0  0  0  0
   37.5100   73.6710   52.9900 H   0  0  0  0  0  0  0  0  0  0  0  0
   39.2140   74.1200   52.8610 H   0  0  0  0  0  0  0  0  0  0  0  0
   38.4410   75.7300   58.0170 C   0  0  0  0  0  0  0  0  0  0  0  0
   39.1640   76.7100   58.7370 C   0  0  0  0  0  0  0  0  0  0  0  0
   39.4090   77.6340   58.2320 H   0  0  0  0  0  0  0  0  0  0  0  0
   39.4930   76.3900   60.0330 C   0  0  0  0  0  3  0  0  0  0  0  0
   39.1220   75.1910   60.5380 C   0  0  0  0  0  3  0  0  0  0  0  0
   38.2420   74.4180   59.1350 S   0  0  0  0  0  0  0  0  0  0  0  0
  1  6  1  0  0  0  0
  2  1  2  0  0  0  0
  2  3  1  0  0  0  0
  3  4  2  0  0  0  0
  4  5  1  0  0  0  0
  5 12  1  0  0  0  0
  6  5  2  0  0  0  0
  7  1  1  0  0  0  0
  8  2  1  0  0  0  0
  9  3  1  0  0  0  0
 10  7  1  0  0  0  0
 11  7  1  0  0  0  0
 12 13  2  0  0  0  0
 12 17  1  0  0  0  0
 13 15  1  0  0  0  0
 14 13  1  0  0  0  0
 15 16  2  0  0  0  0
 17 16  1  0  0  0  0
M  END
>  <minimizedAffinity>
-4.33509159

$$$$

 OpenBabel03212520463D

 17 18  0  0  0  0  0  0  0  0999 V2000
   39.3300   75.4070   60.3060 C   0  0  0  0  0  0  0  0  0  0  0  0
   40.0420   76.6020   60.6060 C   0  0  0  0  0  0  0  0  0  0  0  0
   40.0050   77.6300   59.6590 C   0  0  0  0  0  0  0  0  0  0  0  0
   39.3010   77.4310   58.5260 N   0  0  0  0  0  0  0  0  0  0  0  0
   38.6450   76.2920   58.2810 C   0  0  0  0  0  0  0  0  0  0  0  0
   38.6510   75.2860   59.1510 N   0  0  0  0  0  0  0  0  0  0  0  0
   39.4580   74.4620   61.3490 N   0  0  0  0  0  0  0  0  0  0  0  0
   40.6020   76.7780   61.4960 H   0  0  0  0  0  0  0  0  0  0  0  0
   40.5260   78.5610   59.8330 H   0  0  0  0  0  0  0  0  0  0  0  0
   40.4570   74.1340   61.4850 H   0  0  0  0  0  0  0  0  0  0  0  0
   38.7650   74.0440   61.9850 H   0  0  0  0  0  0  0  0  0  0  0  0
   37.9300   76.1920   57.0390 C   0  0  0  0  0  0  0  0  0  0  0  0
   37.0930   75.1390   56.5980 C   0  0  0  0  0  0  0  0  0  0  0  0
   36.9550   74.2910   57.2530 H   0  0  0  0  0  0  0  0  0  0  0  0
   36.5250   75.2970   55.3550 C   0  0  0  0  0  3  0  0  0  0  0  0
   36.7880   76.4150   54.6400 C   0  0  0  0  0  3  0  0  0  0  0  0
   37.9060   77.3470   55.7450 S   0  0  0  0  0  0  0  0  0  0  0  0
  1  2  1  0  0  0  0
  1  7  1  0  0  0  0
  2  8  1  0  0  0  0
  3  9  1  0  0  0  0
  3  2  2  0  0  0  0
  4  3  1  0  0  0  0
  5  4  2  0  0  0  0
  5  6  1  0  0  0  0
  6  1  2  0  0  0  0
  7 10  1  0  0  0  0
  7 11  1  0  0  0  0
 12  5  1  0  0  0  0
 13 12  2  0  0  0  0
 13 14  1  0  0  0  0
 15 13  1  0  0  0  0
 16 15  2  0  0  0  0
 16 17  1  0  0  0  0
 17 12  1  0  0  0  0
M  END
>  <minimizedAffinity>
-4.25255775

$$$$

 OpenBabel03212520463D

 17 18  0  0  0  0  0  0  0  0999 V2000
   38.9210   74.1710   60.9630 C   0  0  0  0  0  0  0  0  0  0  0  0
   39.6020   75.1530   60.1900 C   0  0  0  0  0  0  0  0  0  0  0  0
   40.9640   74.9530   59.9490 C   0  0  0  0  0  0  0  0  0  0  0  0
   41.5490   73.8500   60.4580 N   0  0  0  0  0  0  0  0  0  0  0  0
   40.8740   72.9500   61.1800 C   0  0  0  0  0  0  0  0  0  0  0  0
   39.5770   73.0960   61.4360 N   0  0  0  0  0  0  0  0  0  0  0  0
   37.5570   74.5040   61.1240 N   0  0  0  0  0  0  0  0  0  0  0  0
   39.1570   76.0300   59.7790 H   0  0  0  0  0  0  0  0  0  0  0  0
   41.5330   75.6660   59.3680 H   0  0  0  0  0  0  0  0  0  0  0  0
   37.4160   75.4000   61.6720 H   0  0  0  0  0  0  0  0  0  0  0  0
   36.6940   74.0380   60.8090 H   0  0  0  0  0  0  0  0  0  0  0  0
   41.6010   71.8130   61.6730 C   0  0  0  0  0  0  0  0  0  0  0  0
   41.5100   71.2060   62.9470 C   0  0  0  0  0  0  0  0  0  0  0  0
   40.8170   71.6260   63.6630 H   0  0  0  0  0  0  0  0  0  0  0  0
   42.3270   70.1200   63.1610 C   0  0  0  0  0  3  0  0  0  0  0  0
   43.1510   69.7010   62.1730 C   0  0  0  0  0  3  0  0  0  0  0  0
   42.7930   70.8810   60.8230 S   0  0  0  0  0  0  0  0  0  0  0  0
  1  7  1  0  0  0  0
  1  6  1  0  0  0  0
  2  1  2  0  0  0  0
  3  2  1  0  0  0  0
  3  4  2  0  0  0  0
  4  5  1  0  0  0  0
  5  6  2  0  0  0  0
  5 12  1  0  0  0  0
  7 10  1  0  0  0  0
  8  2  1  0  0  0  0
  9  3  1  0  0  0  0
 11  7  1  0  0  0  0
 12 13  2  0  0  0  0
 13 15  1  0  0  0  0
 13 14  1  0  0  0  0
 16 15  2  0  0  0  0
 17 12  1  0  0  0  0
 17 16  1  0  0  0  0
M  END
>  <minimizedAffinity>
-4.17193365

$$$$

 OpenBabel03212520463D

 17 18  0  0  0  0  0  0  0  0999 V2000
   37.9800   74.0560   57.8010 C   0  0  0  0  0  0  0  0  0  0  0  0
   37.9230   75.4720   57.6680 C   0  0  0  0  0  0  0  0  0  0  0  0
   38.7980   76.2290   58.4530 C   0  0  0  0  0  0  0  0  0  0  0  0
   39.6370   75.5780   59.2840 N   0  0  0  0  0  0  0  0  0  0  0  0
   39.6600   74.2460   59.3800 C   0  0  0  0  0  0  0  0  0  0  0  0
   38.8480   73.4820   58.6530 N   0  0  0  0  0  0  0  0  0  0  0  0
   37.0440   73.4260   56.9490 N   0  0  0  0  0  0  0  0  0  0  0  0
   37.2680   76.0030   57.0170 H   0  0  0  0  0  0  0  0  0  0  0  0
   38.8000   77.3080   58.3940 H   0  0  0  0  0  0  0  0  0  0  0  0
   36.0410   73.6630   57.1970 H   0  0  0  0  0  0  0  0  0  0  0  0
   37.1640   72.7890   56.1490 H   0  0  0  0  0  0  0  0  0  0  0  0
   40.5960   73.6620   60.3000 C   0  0  0  0  0  0  0  0  0  0  0  0
   40.3310   73.0730   61.5590 C   0  0  0  0  0  0  0  0  0  0  0  0
   39.3050   73.0440   61.9000 H   0  0  0  0  0  0  0  0  0  0  0  0
   41.4200   72.5850   62.2420 C   0  0  0  0  0  3  0  0  0  0  0  0
   42.6530   72.6910   61.6940 C   0  0  0  0  0  3  0  0  0  0  0  0
   42.3150   73.5260   60.1030 S   0  0  0  0  0  0  0  0  0  0  0  0
  1  6  1  0  0  0  0
  2  1  2  0  0  0  0
  2  3  1  0  0  0  0
  3  4  2  0  0  0  0
  4  5  1  0  0  0  0
  5 12  1  0  0  0  0
  6  5  2  0  0  0  0
  7 10  1  0  0  0  0
  7  1  1  0  0  0  0
  8  2  1  0  0  0  0
  9  3  1  0  0  0  0
 11  7  1  0  0  0  0
 12 13  2  0  0  0  0
 13 14  1  0  0  0  0
 13 15  1  0  0  0  0
 16 15  2  0  0  0  0
 17 12  1  0  0  0  0
 17 16  1  0  0  0  0
M  END
>  <minimizedAffinity>
-4.12129498

$$$$

 OpenBabel03212520463D

 17 18  0  0  0  0  0  0  0  0999 V2000
   37.2050   75.4390   55.9210 C   0  0  0  0  0  0  0  0  0  0  0  0
   37.4470   76.8400   55.8570 C   0  0  0  0  0  0  0  0  0  0  0  0
   38.1680   77.4180   56.9060 C   0  0  0  0  0  0  0  0  0  0  0  0
   38.5910   76.6210   57.9080 N   0  0  0  0  0  0  0  0  0  0  0  0
   38.3440   75.3080   57.9310 C   0  0  0  0  0  0  0  0  0  0  0  0
   37.6610   74.7120   56.9570 N   0  0  0  0  0  0  0  0  0  0  0  0
   36.4680   74.9960   54.7990 N   0  0  0  0  0  0  0  0  0  0  0  0
   37.1210   77.4860   55.0740 H   0  0  0  0  0  0  0  0  0  0  0  0
   38.3820   78.4780   56.9110 H   0  0  0  0  0  0  0  0  0  0  0  0
   35.4970   75.4190   54.7550 H   0  0  0  0  0  0  0  0  0  0  0  0
   36.7040   74.3490   54.0350 H   0  0  0  0  0  0  0  0  0  0  0  0
   38.8420   74.5580   59.0500 C   0  0  0  0  0  0  0  0  0  0  0  0
   38.2580   74.4090   60.3300 C   0  0  0  0  0  0  0  0  0  0  0  0
   37.3200   74.9110   60.5220 H   0  0  0  0  0  0  0  0  0  0  0  0
   38.9510   73.6280   61.2260 C   0  0  0  0  0  3  0  0  0  0  0  0
   40.1200   73.0600   60.8490 C   0  0  0  0  0  3  0  0  0  0  0  0
   40.3060   73.6280   59.1220 S   0  0  0  0  0  0  0  0  0  0  0  0
  1  6  1  0  0  0  0
  2  1  2  0  0  0  0
  2  3  1  0  0  0  0
  3  9  1  0  0  0  0
  3  4  2  0  0  0  0
  4  5  1  0  0  0  0
  5 12  1  0  0  0  0
  6  5  2  0  0  0  0
  7  1  1  0  0  0  0
  8  2  1  0  0  0  0
 10  7  1  0  0  0  0
 11  7  1  0  0  0  0
 12 17  1  0  0  0  0
 12 13  2  0  0  0  0
 13 14  1  0  0  0  0
 13 15  1  0  0  0  0
 16 15  2  0  0  0  0
 17 16  1  0  0  0  0
M  END
>  <minimizedAffinity>
-3.96852398

$$$$

 OpenBabel03212520463D

 17 18  0  0  0  0  0  0  0  0999 V2000
   38.8170   72.2370   57.1410 C   0  0  0  0  0  0  0  0  0  0  0  0
   37.8250   73.2530   57.2310 C   0  0  0  0  0  0  0  0  0  0  0  0
   37.8520   74.0820   58.3570 C   0  0  0  0  0  0  0  0  0  0  0  0
   38.8080   73.8720   59.2830 N   0  0  0  0  0  0  0  0  0  0  0  0
   39.7230   72.9050   59.1620 C   0  0  0  0  0  0  0  0  0  0  0  0
   39.7390   72.0910   58.1090 N   0  0  0  0  0  0  0  0  0  0  0  0
   38.6670   71.4800   55.9560 N   0  0  0  0  0  0  0  0  0  0  0  0
   37.0620   73.4340   56.5090 H   0  0  0  0  0  0  0  0  0  0  0  0
   37.1230   74.8710   58.4790 H   0  0  0  0  0  0  0  0  0  0  0  0
   37.7530   70.9460   55.9250 H   0  0  0  0  0  0  0  0  0  0  0  0
   39.2780   71.3610   55.1360 H   0  0  0  0  0  0  0  0  0  0  0  0
   40.6940   72.7740   60.2120 C   0  0  0  0  0  0  0  0  0  0  0  0
   40.4770   72.8060   61.6100 C   0  0  0  0  0  0  0  0  0  0  0  0
   39.4650   72.9470   61.9640 H   0  0  0  0  0  0  0  0  0  0  0  0
   41.5930   72.6550   62.4010 C   0  0  0  0  0  3  0  0  0  0  0  0
   42.8030   72.4880   61.8200 C   0  0  0  0  0  3  0  0  0  0  0  0
   42.4050   72.5380   60.0370 S   0  0  0  0  0  0  0  0  0  0  0  0
  1  2  2  0  0  0  0
  1  6  1  0  0  0  0
  2  3  1  0  0  0  0
  3  9  1  0  0  0  0
  3  4  2  0  0  0  0
  5  4  1  0  0  0  0
  5 12  1  0  0  0  0
  6  5  2  0  0  0  0
  7  1  1  0  0  0  0
  8  2  1  0  0  0  0
 10  7  1  0  0  0  0
 11  7  1  0  0  0  0
 12 13  2  0  0  0  0
 13 14  1  0  0  0  0
 13 15  1  0  0  0  0
 16 15  2  0  0  0  0
 17 12  1  0  0  0  0
 17 16  1  0  0  0  0
M  END
>  <minimizedAffinity>
-3.93632984

$$$$

 OpenBabel03212520463D

 17 18  0  0  0  0  0  0  0  0999 V2000
   41.2780   76.1870   59.3360 C   0  0  0  0  0  0  0  0  0  0  0  0
   40.0650   76.7310   59.8450 C   0  0  0  0  0  0  0  0  0  0  0  0
   39.3620   75.9710   60.7860 C   0  0  0  0  0  0  0  0  0  0  0  0
   39.8710   74.7770   61.1520 N   0  0  0  0  0  0  0  0  0  0  0  0
   41.0130   74.3000   60.6490 C   0  0  0  0  0  0  0  0  0  0  0  0
   41.7180   74.9860   59.7520 N   0  0  0  0  0  0  0  0  0  0  0  0
   41.8750   77.0610   58.3990 N   0  0  0  0  0  0  0  0  0  0  0  0
   39.6490   77.6720   59.5690 H   0  0  0  0  0  0  0  0  0  0  0  0
   38.4360   76.3340   61.2080 H   0  0  0  0  0  0  0  0  0  0  0  0
   41.2790   77.2040   57.5350 H   0  0  0  0  0  0  0  0  0  0  0  0
   42.7700   77.5700   58.4100 H   0  0  0  0  0  0  0  0  0  0  0  0
   41.4580   73.0160   61.1130 C   0  0  0  0  0  0  0  0  0  0  0  0
   41.7650   72.6250   62.4370 C   0  0  0  0  0  0  0  0  0  0  0  0
   41.6640   73.3620   63.2210 H   0  0  0  0  0  0  0  0  0  0  0  0
   42.1730   71.3210   62.6060 C   0  0  0  0  0  3  0  0  0  0  0  0
   42.2570   70.5050   61.5300 C   0  0  0  0  0  3  0  0  0  0  0  0
   41.7370   71.5940   60.1570 S   0  0  0  0  0  0  0  0  0  0  0  0
  1  6  2  0  0  0  0
  1  2  1  0  0  0  0
  2  3  2  0  0  0  0
  3  4  1  0  0  0  0
  3  9  1  0  0  0  0
  5 12  1  0  0  0  0
  5  4  2  0  0  0  0
  6  5  1  0  0  0  0
  7 11  1  0  0  0  0
  7  1  1  0  0  0  0
  8  2  1  0  0  0  0
 10  7  1  0  0  0  0
 12 13  2  0  0  0  0
 13 15  1  0  0  0  0
 13 14  1  0  0  0  0
 16 15  2  0  0  0  0
 17 12  1  0  0  0  0
 17 16  1  0  0  0  0
M  END
>  <minimizedAffinity>
-3.89647126

$$$$

 OpenBabel03212520463D

 17 18  0  0  0  0  0  0  0  0999 V2000
   39.6600   75.3440   60.9920 C   0  0  0  0  0  0  0  0  0  0  0  0
   40.2340   76.3900   60.2170 C   0  0  0  0  0  0  0  0  0  0  0  0
   41.3550   76.0780   59.4410 C   0  0  0  0  0  0  0  0  0  0  0  0
   41.8220   74.8130   59.4730 N   0  0  0  0  0  0  0  0  0  0  0  0
   41.2540   73.8580   60.2140 C   0  0  0  0  0  0  0  0  0  0  0  0
   40.1860   74.1060   60.9690 N   0  0  0  0  0  0  0  0  0  0  0  0
   38.5400   75.8050   61.7210 N   0  0  0  0  0  0  0  0  0  0  0  0
   39.8790   77.3950   60.1790 H   0  0  0  0  0  0  0  0  0  0  0  0
   41.8330   76.8320   58.8320 H   0  0  0  0  0  0  0  0  0  0  0  0
   38.7940   76.5420   62.4390 H   0  0  0  0  0  0  0  0  0  0  0  0
   37.5420   75.5540   61.6770 H   0  0  0  0  0  0  0  0  0  0  0  0
   41.8380   72.5470   60.1700 C   0  0  0  0  0  0  0  0  0  0  0  0
   42.9660   72.0700   60.8780 C   0  0  0  0  0  0  0  0  0  0  0  0
   43.4750   72.7540   61.5430 H   0  0  0  0  0  0  0  0  0  0  0  0
   43.3170   70.7590   60.6490 C   0  0  0  0  0  3  0  0  0  0  0  0
   42.5880   70.0160   59.7850 C   0  0  0  0  0  3  0  0  0  0  0  0
   41.3050   71.1910   59.2250 S   0  0  0  0  0  0  0  0  0  0  0  0
  1  7  1  0  0  0  0
  2  1  2  0  0  0  0
  3  4  2  0  0  0  0
  3  2  1  0  0  0  0
  4  5  1  0  0  0  0
  5  6  2  0  0  0  0
  6  1  1  0  0  0  0
  7 10  1  0  0  0  0
  8  2  1  0  0  0  0
  9  3  1  0  0  0  0
 11  7  1  0  0  0  0
 12  5  1  0  0  0  0
 12 13  2  0  0  0  0
 13 14  1  0  0  0  0
 15 13  1  0  0  0  0
 16 15  2  0  0  0  0
 17 16  1  0  0  0  0
 17 12  1  0  0  0  0
M  END
>  <minimizedAffinity>
-3.85319257

$$$$

 OpenBabel03212520463D

 17 18  0  0  0  0  0  0  0  0999 V2000
   42.0690   66.3700   61.3460 C   0  0  0  0  0  0  0  0  0  0  0  0
   41.2500   65.8850   62.4040 C   0  0  0  0  0  0  0  0  0  0  0  0
   40.7480   66.8220   63.3120 C   0  0  0  0  0  0  0  0  0  0  0  0
   41.0660   68.1200   63.1330 N   0  0  0  0  0  0  0  0  0  0  0  0
   41.8390   68.5360   62.1260 C   0  0  0  0  0  0  0  0  0  0  0  0
   42.3410   67.6820   61.2360 N   0  0  0  0  0  0  0  0  0  0  0  0
   42.5020   65.3140   60.5110 N   0  0  0  0  0  0  0  0  0  0  0  0
   40.9870   64.8640   62.5610 H   0  0  0  0  0  0  0  0  0  0  0  0
   40.1200   66.5120   64.1360 H   0  0  0  0  0  0  0  0  0  0  0  0
   43.1250   64.6220   61.0170 H   0  0  0  0  0  0  0  0  0  0  0  0
   42.3220   65.1060   59.5200 H   0  0  0  0  0  0  0  0  0  0  0  0
   42.1130   69.9430   62.0350 C   0  0  0  0  0  0  0  0  0  0  0  0
   41.6800   70.9730   62.9030 C   0  0  0  0  0  0  0  0  0  0  0  0
   41.0660   70.7010   63.7490 H   0  0  0  0  0  0  0  0  0  0  0  0
   42.0890   72.2480   62.5820 C   0  0  0  0  0  3  0  0  0  0  0  0
   42.8580   72.4450   61.4870 C   0  0  0  0  0  3  0  0  0  0  0  0
   43.0540   70.7530   60.8220 S   0  0  0  0  0  0  0  0  0  0  0  0
  1  2  1  0  0  0  0
  2  8  1  0  0  0  0
  2  3  2  0  0  0  0
  3  9  1  0  0  0  0
  4  3  1  0  0  0  0
  5  4  2  0  0  0  0
  6  1  2  0  0  0  0
  6  5  1  0  0  0  0
  7 10  1  0  0  0  0
  7  1  1  0  0  0  0
 11  7  1  0  0  0  0
 12  5  1  0  0  0  0
 12 13  2  0  0  0  0
 13 14  1  0  0  0  0
 15 13  1  0  0  0  0
 16 15  2  0  0  0  0
 17 16  1  0  0  0  0
 17 12  1  0  0  0  0
M  END
>  <minimizedAffinity>
-3.80003023

$$$$
