
 OpenBabel03212520463D

 17 18  0  0  0  0  0  0  0  0999 V2000
   44.6330   81.9790   59.8880 C   0  0  0  0  0  0  0  0  0  0  0  0
   45.3460   83.0980   59.3750 C   0  0  0  0  0  0  0  0  0  0  0  0
   44.6910   84.3330   59.3700 C   0  0  0  0  0  0  0  0  0  0  0  0
   43.4310   84.3910   59.8480 N   0  0  0  0  0  0  0  0  0  0  0  0
   42.7950   83.3150   60.3220 C   0  0  0  0  0  0  0  0  0  0  0  0
   43.3770   82.1190   60.3480 N   0  0  0  0  0  0  0  0  0  0  0  0
   45.4170   80.8040   59.8310 N   0  0  0  0  0  0  0  0  0  0  0  0
   46.3410   83.0720   58.9940 H   0  0  0  0  0  0  0  0  0  0  0  0
   45.1830   85.2180   58.9920 H   0  0  0  0  0  0  0  0  0  0  0  0
   45.6550   80.5190   58.8380 H   0  0  0  0  0  0  0  0  0  0  0  0
   45.7880   80.1900   60.5690 H   0  0  0  0  0  0  0  0  0  0  0  0
   41.4540   83.4960   60.8050 C   0  0  0  0  0  0  0  0  0  0  0  0
   40.4790   84.4130   60.3490 C   0  0  0  0  0  0  0  0  0  0  0  0
   40.7440   85.0760   59.5370 H   0  0  0  0  0  0  0  0  0  0  0  0
   39.2630   84.3760   60.9930 C   0  0  0  0  0  3  0  0  0  0  0  0
   39.0690   83.4920   61.9970 C   0  0  0  0  0  3  0  0  0  0  0  0
   40.6760   82.6240   62.0880 S   0  0  0  0  0  0  0  0  0  0  0  0
  1  6  1  0  0  0  0
  2  1  2  0  0  0  0
  3  2  1  0  0  0  0
  3  4  2  0  0  0  0
  4  5  1  0  0  0  0
  5  6  2  0  0  0  0
  5 12  1  0  0  0  0
  7  1  1  0  0  0  0
  7 11  1  0  0  0  0
  8  2  1  0  0  0  0
  9  3  1  0  0  0  0
 10  7  1  0  0  0  0
 12 17  1  0  0  0  0
 13 12  2  0  0  0  0
 13 15  1  0  0  0  0
 14 13  1  0  0  0  0
 15 16  2  0  0  0  0
 16 17  1  0  0  0  0
M  END
>  <minimizedAffinity>
-2.88962483

>  <minimizedRMSD>
4.51706648

$$$$
