
 OpenBabel03212520593D

 39 43  0  0  1  0  0  0  0  0999 V2000
   39.6580   77.1260   59.1340 C   0  0  0  0  0  0  0  0  0  0  0  0
   40.3190   75.9660   58.8840 C   0  0  0  0  0  0  0  0  0  0  0  0
   39.7430   75.2420   57.8280 C   0  0  0  0  0  0  0  0  0  0  0  0
   38.6600   75.6440   57.1350 N   0  0  0  0  0  0  0  0  0  0  0  0
   38.0730   76.8310   57.4710 C   0  0  0  0  0  0  0  0  0  0  0  0
   38.5820   77.5740   58.4820 N   0  0  0  0  0  0  0  0  0  0  0  0
   41.1820   75.5970   59.4020 H   0  0  0  0  0  0  0  0  0  0  0  0
   40.1620   74.2870   57.5080 H   0  0  0  0  0  0  0  0  0  0  0  0
   40.9500   80.1020   61.6060 C   0  0  0  0  0  0  0  0  0  0  0  0
   40.9090   78.8840   62.2460 C   0  0  0  0  0  0  0  0  0  0  0  0
   40.4950   77.8180   61.5210 C   0  0  0  0  0  0  0  0  0  0  0  0
   40.1350   77.9840   60.2000 C   0  0  0  0  0  0  0  0  0  0  0  0
   40.3900   79.7840   59.9110 S   0  0  0  0  0  0  0  0  0  0  0  0
   41.1930   78.7520   63.2880 H   0  0  0  0  0  0  0  0  0  0  0  0
   40.3930   76.7880   61.8350 H   0  0  0  0  0  0  0  0  0  0  0  0
   43.1020   82.8750   62.6750 C   0  0  0  0  0  0  0  0  0  0  0  0
   42.2230   83.6700   63.4590 C   0  0  0  0  0  0  0  0  0  0  0  0
   40.8910   83.2520   63.6140 C   0  0  0  0  0  0  0  0  0  0  0  0
   40.5100   82.1100   63.0080 N   0  0  0  0  0  0  0  0  0  0  0  0
   41.3770   81.3660   62.2600 C   0  0  0  0  0  0  0  0  0  0  0  0
   42.6430   81.7580   62.1080 N   0  0  0  0  0  0  0  0  0  0  0  0
   44.1300   83.1500   62.5250 H   0  0  0  0  0  0  0  0  0  0  0  0
   42.5980   84.5790   63.9190 H   0  0  0  0  0  0  0  0  0  0  0  0
   40.2070   83.8380   64.2040 H   0  0  0  0  0  0  0  0  0  0  0  0
   36.9110   77.2470   56.7050 C   0  0  0  0  0  0  0  0  0  0  0  0
   35.8030   77.1350   57.2470 O   0  0  0  0  0  0  0  0  0  0  0  0
   37.0290   77.7870   55.2990 C   0  0  1  0  0  0  0  0  0  0  0  0
   37.3580   79.2600   55.2640 C   0  0  0  0  0  0  0  0  0  0  0  0
   38.3070   78.2430   54.8030 C   0  0  2  0  0  0  0  0  0  0  0  0
   36.1080   77.5930   54.6740 H   0  0  0  0  0  0  0  0  0  0  0  0
   37.4880   79.7890   56.2380 H   0  0  0  0  0  0  0  0  0  0  0  0
   36.7940   79.8800   54.5440 H   0  0  0  0  0  0  0  0  0  0  0  0
   39.1800   78.0490   55.4930 H   0  0  0  0  0  0  0  0  0  0  0  0
   38.6820   78.2970   53.3940 C   0  0  0  0  0  0  0  0  0  0  0  0
   39.3760   77.3840   52.6870 C   0  0  0  0  0  0  0  0  0  0  0  0
   39.7420   76.4540   53.1550 H   0  0  0  0  0  0  0  0  0  0  0  0
   39.6410   77.6000   51.3560 C   0  0  0  0  0  3  0  0  0  0  0  0
   39.1670   78.7740   50.8090 C   0  0  0  0  0  3  0  0  0  0  0  0
   38.2950   79.6190   52.2650 S   0  0  0  0  0  0  0  0  0  0  0  0
  1 12  1  0  0  0  0
  2  1  1  0  0  0  0
  2  7  1  0  0  0  0
  3  2  2  0  0  0  0
  4  5  2  0  0  0  0
  4  3  1  0  0  0  0
  5  6  1  0  0  0  0
  6  1  2  0  0  0  0
  8  3  1  0  0  0  0
  9 10  2  0  0  0  0
  9 20  1  0  0  0  0
 10 14  1  0  0  0  0
 11 15  1  0  0  0  0
 11 10  1  0  0  0  0
 12 11  2  0  0  0  0
 13 12  1  0  0  0  0
 13  9  1  0  0  0  0
 16 17  1  0  0  0  0
 17 18  2  0  0  0  0
 17 23  1  0  0  0  0
 18 24  1  0  0  0  0
 19 18  1  0  0  0  0
 20 19  2  0  0  0  0
 21 20  1  0  0  0  0
 21 16  2  0  0  0  0
 22 16  1  0  0  0  0
 25 26  2  0  0  0  0
 25  5  1  0  0  0  0
 27 30  1  6  0  0  0
 27 25  1  0  0  0  0
 28 27  1  0  0  0  0
 28 31  1  0  0  0  0
 29 28  1  0  0  0  0
 29 27  1  0  0  0  0
 29 33  1  1  0  0  0
 32 28  1  0  0  0  0
 34 29  1  0  0  0  0
 35 36  1  0  0  0  0
 35 34  2  0  0  0  0
 37 35  1  0  0  0  0
 38 37  2  0  0  0  0
 38 39  1  0  0  0  0
 39 34  1  0  0  0  0
M  END
>  <minimizedAffinity>
-6.17175055

>  <minimizedRMSD>
0.966210902

$$$$
