
 OpenBabel03212520463D

 17 18  0  0  0  0  0  0  0  0999 V2000
   42.0020   84.1260   63.3440 C   0  0  0  0  0  0  0  0  0  0  0  0
   40.7520   83.5710   63.7380 C   0  0  0  0  0  0  0  0  0  0  0  0
   39.7670   83.4360   62.7550 C   0  0  0  0  0  0  0  0  0  0  0  0
   40.0570   83.8360   61.5000 N   0  0  0  0  0  0  0  0  0  0  0  0
   41.2440   84.3540   61.1690 C   0  0  0  0  0  0  0  0  0  0  0  0
   42.2130   84.5020   62.0700 N   0  0  0  0  0  0  0  0  0  0  0  0
   42.8950   84.2010   64.4370 N   0  0  0  0  0  0  0  0  0  0  0  0
   40.5050   83.2490   64.7240 H   0  0  0  0  0  0  0  0  0  0  0  0
   38.7990   83.0210   62.9970 H   0  0  0  0  0  0  0  0  0  0  0  0
   42.5550   84.8560   65.1980 H   0  0  0  0  0  0  0  0  0  0  0  0
   43.7980   83.7420   64.6190 H   0  0  0  0  0  0  0  0  0  0  0  0
   41.4400   84.7460   59.8020 C   0  0  0  0  0  0  0  0  0  0  0  0
   42.6380   84.7190   59.0500 C   0  0  0  0  0  0  0  0  0  0  0  0
   43.5360   84.3640   59.5360 H   0  0  0  0  0  0  0  0  0  0  0  0
   42.5470   85.1550   57.7480 C   0  0  0  0  0  0  0  0  0  0  0  0
   41.3540   85.5740   57.2680 C   0  0  0  0  0  0  0  0  0  0  0  0
   40.2440   85.3630   58.7050 S   0  0  0  0  0  0  0  0  0  0  0  0
  1  2  1  0  0  0  0
  1  7  1  0  0  0  0
  2  8  1  0  0  0  0
  3  9  1  0  0  0  0
  3  2  2  0  0  0  0
  4  3  1  0  0  0  0
  5  4  2  0  0  0  0
  5  6  1  0  0  0  0
  6  1  2  0  0  0  0
  7 11  1  0  0  0  0
  7 10  1  0  0  0  0
 12  5  1  0  0  0  0
 13 14  1  0  0  0  0
 13 12  2  0  0  0  0
 15 13  1  0  0  0  0
 16 15  2  0  0  0  0
 16 17  1  0  0  0  0
 17 12  1  0  0  0  0
M  END
>  <minimizedAffinity>
-4.11294985

>  <minimizedRMSD>
5.49173832

$$$$
