
 OpenBabel03212520463D

 17 18  0  0  0  0  0  0  0  0999 V2000
   41.8380   83.5220   63.2190 C   0  0  0  0  0  0  0  0  0  0  0  0
   40.5850   84.1680   63.0250 C   0  0  0  0  0  0  0  0  0  0  0  0
   39.5850   83.4490   62.3630 C   0  0  0  0  0  0  0  0  0  0  0  0
   39.8640   82.1950   61.9510 N   0  0  0  0  0  0  0  0  0  0  0  0
   41.0550   81.6240   62.1520 C   0  0  0  0  0  0  0  0  0  0  0  0
   42.0380   82.2680   62.7770 N   0  0  0  0  0  0  0  0  0  0  0  0
   42.7470   84.3650   63.8980 N   0  0  0  0  0  0  0  0  0  0  0  0
   40.3460   85.1560   63.3440 H   0  0  0  0  0  0  0  0  0  0  0  0
   38.6120   83.8880   62.1880 H   0  0  0  0  0  0  0  0  0  0  0  0
   42.9920   85.2340   63.3420 H   0  0  0  0  0  0  0  0  0  0  0  0
   43.2020   84.2850   64.8170 H   0  0  0  0  0  0  0  0  0  0  0  0
   41.2390   80.2840   61.6690 C   0  0  0  0  0  0  0  0  0  0  0  0
   40.2780   79.4300   61.0780 C   0  0  0  0  0  0  0  0  0  0  0  0
   39.2700   79.8030   60.9620 H   0  0  0  0  0  0  0  0  0  0  0  0
   40.7240   78.1850   60.7010 C   0  0  0  0  0  3  0  0  0  0  0  0
   42.0180   77.8500   60.9070 C   0  0  0  0  0  3  0  0  0  0  0  0
   42.7050   79.3550   61.6850 S   0  0  0  0  0  0  0  0  0  0  0  0
  1  7  1  0  0  0  0
  2  1  1  0  0  0  0
  2  8  1  0  0  0  0
  3  2  2  0  0  0  0
  4  5  2  0  0  0  0
  4  3  1  0  0  0  0
  5  6  1  0  0  0  0
  6  1  2  0  0  0  0
  7 11  1  0  0  0  0
  9  3  1  0  0  0  0
 10  7  1  0  0  0  0
 12 17  1  0  0  0  0
 12  5  1  0  0  0  0
 13 12  2  0  0  0  0
 14 13  1  0  0  0  0
 15 16  2  0  0  0  0
 15 13  1  0  0  0  0
 16 17  1  0  0  0  0
M  END
>  <minimizedAffinity>
-4.02639008

>  <minimizedRMSD>
5.65342617

$$$$
