
 OpenBabel03212520593D

 39 43  0  0  1  0  0  0  0  0999 V2000
   39.7140   77.2090   59.1780 C   0  0  0  0  0  0  0  0  0  0  0  0
   40.3780   76.0500   58.9340 C   0  0  0  0  0  0  0  0  0  0  0  0
   39.8170   75.3280   57.8680 C   0  0  0  0  0  0  0  0  0  0  0  0
   38.7430   75.7320   57.1620 N   0  0  0  0  0  0  0  0  0  0  0  0
   38.1510   76.9170   57.4930 C   0  0  0  0  0  0  0  0  0  0  0  0
   38.6460   77.6580   58.5120 N   0  0  0  0  0  0  0  0  0  0  0  0
   41.2340   75.6800   59.4620 H   0  0  0  0  0  0  0  0  0  0  0  0
   40.2410   74.3740   57.5510 H   0  0  0  0  0  0  0  0  0  0  0  0
   40.9680   80.1800   61.6750 C   0  0  0  0  0  0  0  0  0  0  0  0
   40.9250   78.9590   62.3100 C   0  0  0  0  0  0  0  0  0  0  0  0
   40.5220   77.8950   61.5760 C   0  0  0  0  0  0  0  0  0  0  0  0
   40.1760   78.0650   60.2520 C   0  0  0  0  0  0  0  0  0  0  0  0
   40.4270   79.8670   59.9730 S   0  0  0  0  0  0  0  0  0  0  0  0
   41.1980   78.8240   63.3550 H   0  0  0  0  0  0  0  0  0  0  0  0
   40.4210   76.8630   61.8850 H   0  0  0  0  0  0  0  0  0  0  0  0
   43.0940   82.9630   62.7680 C   0  0  0  0  0  0  0  0  0  0  0  0
   42.2070   83.7460   63.5550 C   0  0  0  0  0  0  0  0  0  0  0  0
   40.8780   83.3150   63.7050 C   0  0  0  0  0  0  0  0  0  0  0  0
   40.5080   82.1740   63.0900 N   0  0  0  0  0  0  0  0  0  0  0  0
   41.3820   81.4430   62.3390 C   0  0  0  0  0  0  0  0  0  0  0  0
   42.6450   81.8460   62.1930 N   0  0  0  0  0  0  0  0  0  0  0  0
   44.1200   83.2480   62.6220 H   0  0  0  0  0  0  0  0  0  0  0  0
   42.5730   84.6550   64.0230 H   0  0  0  0  0  0  0  0  0  0  0  0
   40.1870   83.8920   64.2970 H   0  0  0  0  0  0  0  0  0  0  0  0
   36.9990   77.3350   56.7120 C   0  0  0  0  0  0  0  0  0  0  0  0
   35.8790   77.0550   57.1570 O   0  0  0  0  0  0  0  0  0  0  0  0
   37.1440   78.0730   55.4020 C   0  0  1  0  0  0  0  0  0  0  0  0
   37.3910   79.5510   55.5870 C   0  0  0  0  0  0  0  0  0  0  0  0
   38.4140   78.6580   55.0360 C   0  0  2  0  0  0  0  0  0  0  0  0
   36.2610   77.9240   54.7120 H   0  0  0  0  0  0  0  0  0  0  0  0
   37.4510   79.9430   56.6310 H   0  0  0  0  0  0  0  0  0  0  0  0
   36.8230   80.2380   54.9340 H   0  0  0  0  0  0  0  0  0  0  0  0
   39.2680   78.4120   55.7340 H   0  0  0  0  0  0  0  0  0  0  0  0
   38.8420   78.9290   53.6680 C   0  0  0  0  0  0  0  0  0  0  0  0
   38.2320   78.5680   52.5230 C   0  0  0  0  0  0  0  0  0  0  0  0
   37.2880   77.9970   52.5330 H   0  0  0  0  0  0  0  0  0  0  0  0
   38.7810   78.9120   51.3110 C   0  0  0  0  0  3  0  0  0  0  0  0
   39.9600   79.6260   51.3420 C   0  0  0  0  0  3  0  0  0  0  0  0
   40.3100   79.8220   53.1950 S   0  0  0  0  0  0  0  0  0  0  0  0
  1 12  1  0  0  0  0
  2  1  1  0  0  0  0
  2  7  1  0  0  0  0
  3  2  2  0  0  0  0
  4  5  2  0  0  0  0
  4  3  1  0  0  0  0
  5  6  1  0  0  0  0
  6  1  2  0  0  0  0
  8  3  1  0  0  0  0
  9 10  2  0  0  0  0
  9 20  1  0  0  0  0
 10 14  1  0  0  0  0
 11 15  1  0  0  0  0
 11 10  1  0  0  0  0
 12 11  2  0  0  0  0
 13 12  1  0  0  0  0
 13  9  1  0  0  0  0
 16 17  1  0  0  0  0
 17 18  2  0  0  0  0
 17 23  1  0  0  0  0
 18 24  1  0  0  0  0
 19 18  1  0  0  0  0
 20 19  2  0  0  0  0
 21 20  1  0  0  0  0
 21 16  2  0  0  0  0
 22 16  1  0  0  0  0
 25 26  2  0  0  0  0
 25  5  1  0  0  0  0
 27 30  1  6  0  0  0
 27 28  1  0  0  0  0
 27 25  1  0  0  0  0
 28 31  1  0  0  0  0
 29 27  1  0  0  0  0
 29 28  1  0  0  0  0
 29 33  1  1  0  0  0
 32 28  1  0  0  0  0
 34 29  1  0  0  0  0
 35 36  1  0  0  0  0
 35 34  2  0  0  0  0
 37 38  2  0  0  0  0
 37 35  1  0  0  0  0
 38 39  1  0  0  0  0
 39 34  1  0  0  0  0
M  END
>  <minimizedAffinity>
-6.20355225

>  <minimizedRMSD>
0.600359976

$$$$
