
 OpenBabel03212520303D

 25 27  0  0  0  0  0  0  0  0999 V2000
   39.9070   81.0470   59.4910 C   0  0  0  0  0  0  0  0  0  0  0  0
   40.8840   80.0690   59.2090 C   0  0  0  0  0  0  0  0  0  0  0  0
   42.0150   79.9920   60.0200 C   0  0  0  0  0  0  0  0  0  0  0  0
   42.1170   80.8780   61.0540 N   0  0  0  0  0  0  0  0  0  0  0  0
   41.1770   81.7930   61.2930 C   0  0  0  0  0  0  0  0  0  0  0  0
   40.0850   81.8850   60.5300 N   0  0  0  0  0  0  0  0  0  0  0  0
   39.0530   81.0580   58.8260 H   0  0  0  0  0  0  0  0  0  0  0  0
   42.7570   79.2400   59.7980 H   0  0  0  0  0  0  0  0  0  0  0  0
   40.6810   79.1830   58.1000 N   0  0  0  0  0  0  0  0  0  0  0  0
   40.1400   78.0070   58.4600 C   0  0  0  0  0  0  0  0  0  0  0  0
   39.8990   77.0690   57.4490 C   0  0  0  0  0  0  0  0  0  0  0  0
   40.2300   77.3880   56.1220 C   0  0  0  0  0  0  0  0  0  0  0  0
   40.0400   76.5890   55.1710 O   0  0  0  0  0  0  0  0  0  0  0  0
   40.7710   78.5940   55.8630 N   0  0  0  0  0  0  0  0  0  0  0  0
   41.0040   79.5100   56.8450 C   0  0  0  0  0  0  0  0  0  0  0  0
   41.5060   80.6290   56.5960 O   0  0  0  0  0  0  0  0  0  0  0  0
   39.8750   77.7360   59.4720 H   0  0  0  0  0  0  0  0  0  0  0  0
   39.4650   76.1010   57.6680 H   0  0  0  0  0  0  0  0  0  0  0  0
   41.0100   78.8130   54.8660 H   0  0  0  0  0  0  0  0  0  0  0  0
   41.3390   82.7330   62.4310 C   0  0  0  0  0  0  0  0  0  0  0  0
   40.3350   83.2470   63.2360 C   0  0  0  0  0  0  0  0  0  0  0  0
   39.3130   82.9640   63.0590 H   0  0  0  0  0  0  0  0  0  0  0  0
   40.6290   84.0940   64.2350 C   0  0  0  0  0  3  0  0  0  0  0  0
   42.0430   84.4730   64.4670 C   0  0  0  0  0  3  0  0  0  0  0  0
   42.8950   83.4760   63.0860 S   0  0  0  0  0  0  0  0  0  0  0  0
  1  6  1  0  0  0  0
  2  1  2  0  0  0  0
  2  3  1  0  0  0  0
  3  4  2  0  0  0  0
  4  5  1  0  0  0  0
  5 20  1  0  0  0  0
  6  5  2  0  0  0  0
  7  1  1  0  0  0  0
  8  3  1  0  0  0  0
  9 10  1  0  0  0  0
  9  2  1  0  0  0  0
 10 17  1  0  0  0  0
 11 18  1  0  0  0  0
 11 10  2  0  0  0  0
 12 11  1  0  0  0  0
 13 12  2  0  0  0  0
 14 12  1  0  0  0  0
 14 15  1  0  0  0  0
 15  9  1  0  0  0  0
 16 15  2  0  0  0  0
 19 14  1  0  0  0  0
 20 25  1  0  0  0  0
 20 21  2  0  0  0  0
 21 23  1  0  0  0  0
 22 21  1  0  0  0  0
 23 24  2  0  0  0  0
 25 24  1  0  0  0  0
M  END
>  <minimizedAffinity>
-3.89175057

>  <minimizedRMSD>
5.00423098

$$$$
