
 OpenBabel03212520593D

 39 43  0  0  1  0  0  0  0  0999 V2000
   39.6750   77.1590   59.1290 C   0  0  0  0  0  0  0  0  0  0  0  0
   40.3430   76.0050   58.8690 C   0  0  0  0  0  0  0  0  0  0  0  0
   39.7680   75.2850   57.8080 C   0  0  0  0  0  0  0  0  0  0  0  0
   38.6810   75.6860   57.1210 N   0  0  0  0  0  0  0  0  0  0  0  0
   38.0870   76.8670   57.4680 C   0  0  0  0  0  0  0  0  0  0  0  0
   38.5950   77.6050   58.4830 N   0  0  0  0  0  0  0  0  0  0  0  0
   41.2090   75.6380   59.3810 H   0  0  0  0  0  0  0  0  0  0  0  0
   40.1920   74.3360   57.4800 H   0  0  0  0  0  0  0  0  0  0  0  0
   40.9610   80.1230   61.6180 C   0  0  0  0  0  0  0  0  0  0  0  0
   40.9210   78.9010   62.2510 C   0  0  0  0  0  0  0  0  0  0  0  0
   40.5080   77.8390   61.5200 C   0  0  0  0  0  0  0  0  0  0  0  0
   40.1500   78.0120   60.2000 C   0  0  0  0  0  0  0  0  0  0  0  0
   40.4030   79.8140   59.9210 S   0  0  0  0  0  0  0  0  0  0  0  0
   41.2040   78.7640   63.2930 H   0  0  0  0  0  0  0  0  0  0  0  0
   40.4080   76.8070   61.8290 H   0  0  0  0  0  0  0  0  0  0  0  0
   43.1080   82.8930   62.7050 C   0  0  0  0  0  0  0  0  0  0  0  0
   42.2280   83.6830   63.4920 C   0  0  0  0  0  0  0  0  0  0  0  0
   40.8960   83.2620   63.6430 C   0  0  0  0  0  0  0  0  0  0  0  0
   40.5170   82.1230   63.0310 N   0  0  0  0  0  0  0  0  0  0  0  0
   41.3860   81.3840   62.2800 C   0  0  0  0  0  0  0  0  0  0  0  0
   42.6510   81.7780   62.1310 N   0  0  0  0  0  0  0  0  0  0  0  0
   44.1360   83.1700   62.5570 H   0  0  0  0  0  0  0  0  0  0  0  0
   42.6010   84.5900   63.9570 H   0  0  0  0  0  0  0  0  0  0  0  0
   40.2100   83.8440   64.2350 H   0  0  0  0  0  0  0  0  0  0  0  0
   36.9200   77.2820   56.7090 C   0  0  0  0  0  0  0  0  0  0  0  0
   35.8120   77.1240   57.2380 O   0  0  0  0  0  0  0  0  0  0  0  0
   37.0350   77.8730   55.3230 C   0  0  1  0  0  0  0  0  0  0  0  0
   37.3780   79.3430   55.3410 C   0  0  0  0  0  0  0  0  0  0  0  0
   38.3140   78.3350   54.8360 C   0  0  2  0  0  0  0  0  0  0  0  0
   36.1070   77.7110   54.6980 H   0  0  0  0  0  0  0  0  0  0  0  0
   37.5190   79.8340   56.3340 H   0  0  0  0  0  0  0  0  0  0  0  0
   36.8150   79.9960   54.6490 H   0  0  0  0  0  0  0  0  0  0  0  0
   39.1900   78.1060   55.5120 H   0  0  0  0  0  0  0  0  0  0  0  0
   38.6800   78.4380   53.4280 C   0  0  0  0  0  0  0  0  0  0  0  0
   39.7640   77.9230   52.8130 C   0  0  0  0  0  0  0  0  0  0  0  0
   40.5130   77.3380   53.3720 H   0  0  0  0  0  0  0  0  0  0  0  0
   39.9510   78.1210   51.4670 C   0  0  0  0  0  3  0  0  0  0  0  0
   38.9920   78.8570   50.8060 C   0  0  0  0  0  3  0  0  0  0  0  0
   37.7510   79.2940   52.1710 S   0  0  0  0  0  0  0  0  0  0  0  0
  1 12  1  0  0  0  0
  2  1  1  0  0  0  0
  2  7  1  0  0  0  0
  3  2  2  0  0  0  0
  4  5  2  0  0  0  0
  4  3  1  0  0  0  0
  5  6  1  0  0  0  0
  6  1  2  0  0  0  0
  8  3  1  0  0  0  0
  9 10  2  0  0  0  0
  9 20  1  0  0  0  0
 10 14  1  0  0  0  0
 11 15  1  0  0  0  0
 11 10  1  0  0  0  0
 12 11  2  0  0  0  0
 13 12  1  0  0  0  0
 13  9  1  0  0  0  0
 16 17  1  0  0  0  0
 17 18  2  0  0  0  0
 17 23  1  0  0  0  0
 18 24  1  0  0  0  0
 19 18  1  0  0  0  0
 20 19  2  0  0  0  0
 21 20  1  0  0  0  0
 21 16  2  0  0  0  0
 22 16  1  0  0  0  0
 25 26  2  0  0  0  0
 25  5  1  0  0  0  0
 27 30  1  6  0  0  0
 27 28  1  0  0  0  0
 27 25  1  0  0  0  0
 28 31  1  0  0  0  0
 29 27  1  0  0  0  0
 29 28  1  0  0  0  0
 29 33  1  1  0  0  0
 32 28  1  0  0  0  0
 34 29  1  0  0  0  0
 35 36  1  0  0  0  0
 35 34  2  0  0  0  0
 37 35  1  0  0  0  0
 38 37  2  0  0  0  0
 38 39  1  0  0  0  0
 39 34  1  0  0  0  0
M  END
>  <minimizedAffinity>
-6.17051601

>  <minimizedRMSD>
0.876075685

$$$$
