
 OpenBabel03212520593D

 39 43  0  0  1  0  0  0  0  0999 V2000
   39.7910   77.3860   59.1900 C   0  0  0  0  0  0  0  0  0  0  0  0
   40.4980   76.2620   58.9050 C   0  0  0  0  0  0  0  0  0  0  0  0
   39.9500   75.5470   57.8270 C   0  0  0  0  0  0  0  0  0  0  0  0
   38.8500   75.9250   57.1480 N   0  0  0  0  0  0  0  0  0  0  0  0
   38.2150   77.0760   57.5200 C   0  0  0  0  0  0  0  0  0  0  0  0
   38.6950   77.8090   58.5530 N   0  0  0  0  0  0  0  0  0  0  0  0
   41.3770   75.9150   59.4100 H   0  0  0  0  0  0  0  0  0  0  0  0
   40.4080   74.6210   57.4780 H   0  0  0  0  0  0  0  0  0  0  0  0
   40.9800   80.3350   61.7450 C   0  0  0  0  0  0  0  0  0  0  0  0
   40.9630   79.1010   62.3560 C   0  0  0  0  0  0  0  0  0  0  0  0
   40.5840   78.0430   61.6010 C   0  0  0  0  0  0  0  0  0  0  0  0
   40.2340   78.2310   60.2810 C   0  0  0  0  0  0  0  0  0  0  0  0
   40.4450   80.0430   60.0370 S   0  0  0  0  0  0  0  0  0  0  0  0
   41.2390   78.9520   63.3980 H   0  0  0  0  0  0  0  0  0  0  0  0
   40.5070   77.0030   61.8900 H   0  0  0  0  0  0  0  0  0  0  0  0
   43.0460   83.1380   62.9000 C   0  0  0  0  0  0  0  0  0  0  0  0
   42.1400   83.8900   63.6950 C   0  0  0  0  0  0  0  0  0  0  0  0
   40.8180   83.4320   63.8280 C   0  0  0  0  0  0  0  0  0  0  0  0
   40.4730   82.2960   63.1910 N   0  0  0  0  0  0  0  0  0  0  0  0
   41.3660   81.5940   62.4330 C   0  0  0  0  0  0  0  0  0  0  0  0
   42.6220   82.0230   62.3030 N   0  0  0  0  0  0  0  0  0  0  0  0
   44.0670   83.4440   62.7660 H   0  0  0  0  0  0  0  0  0  0  0  0
   42.4860   84.7970   64.1800 H   0  0  0  0  0  0  0  0  0  0  0  0
   40.1130   83.9860   64.4250 H   0  0  0  0  0  0  0  0  0  0  0  0
   37.0360   77.4670   56.7680 C   0  0  0  0  0  0  0  0  0  0  0  0
   35.9440   77.0280   57.1540 O   0  0  0  0  0  0  0  0  0  0  0  0
   37.1190   78.3630   55.5550 C   0  0  1  0  0  0  0  0  0  0  0  0
   37.2950   79.8180   55.9140 C   0  0  0  0  0  0  0  0  0  0  0  0
   38.3510   79.0520   55.2470 C   0  0  2  0  0  0  0  0  0  0  0  0
   36.2320   78.2510   54.8630 H   0  0  0  0  0  0  0  0  0  0  0  0
   37.3550   80.0850   56.9970 H   0  0  0  0  0  0  0  0  0  0  0  0
   36.6810   80.5490   55.3560 H   0  0  0  0  0  0  0  0  0  0  0  0
   39.2290   78.7690   55.8990 H   0  0  0  0  0  0  0  0  0  0  0  0
   38.7400   79.5070   53.9160 C   0  0  0  0  0  0  0  0  0  0  0  0
   37.9410   79.7430   52.8560 C   0  0  0  0  0  0  0  0  0  0  0  0
   36.8490   79.5970   52.9190 H   0  0  0  0  0  0  0  0  0  0  0  0
   38.4820   80.1710   51.6680 C   0  0  0  0  0  3  0  0  0  0  0  0
   39.8500   80.3390   51.6310 C   0  0  0  0  0  3  0  0  0  0  0  0
   40.4010   79.8620   53.3820 S   0  0  0  0  0  0  0  0  0  0  0  0
  1 12  1  0  0  0  0
  2  1  1  0  0  0  0
  2  7  1  0  0  0  0
  3  2  2  0  0  0  0
  4  5  2  0  0  0  0
  4  3  1  0  0  0  0
  5  6  1  0  0  0  0
  6  1  2  0  0  0  0
  8  3  1  0  0  0  0
  9 10  2  0  0  0  0
  9 20  1  0  0  0  0
 10 14  1  0  0  0  0
 11 15  1  0  0  0  0
 11 10  1  0  0  0  0
 12 11  2  0  0  0  0
 13 12  1  0  0  0  0
 13  9  1  0  0  0  0
 16 17  1  0  0  0  0
 17 18  2  0  0  0  0
 17 23  1  0  0  0  0
 18 24  1  0  0  0  0
 19 18  1  0  0  0  0
 20 19  2  0  0  0  0
 21 20  1  0  0  0  0
 21 16  2  0  0  0  0
 22 16  1  0  0  0  0
 25 26  2  0  0  0  0
 25  5  1  0  0  0  0
 27 30  1  6  0  0  0
 27 28  1  0  0  0  0
 27 25  1  0  0  0  0
 28 31  1  0  0  0  0
 29 27  1  0  0  0  0
 29 33  1  1  0  0  0
 29 28  1  0  0  0  0
 32 28  1  0  0  0  0
 34 29  1  0  0  0  0
 35 36  1  0  0  0  0
 35 34  2  0  0  0  0
 37 35  1  0  0  0  0
 38 37  2  0  0  0  0
 38 39  1  0  0  0  0
 39 34  1  0  0  0  0
M  END
>  <minimizedAffinity>
-6.29352427

>  <minimizedRMSD>
0.282320738

$$$$
