
 OpenBabel03212520593D

 39 43  0  0  1  0  0  0  0  0999 V2000
   39.7910   77.3990   59.1750 C   0  0  0  0  0  0  0  0  0  0  0  0
   40.4970   76.2740   58.8890 C   0  0  0  0  0  0  0  0  0  0  0  0
   39.9500   75.5620   57.8090 C   0  0  0  0  0  0  0  0  0  0  0  0
   38.8530   75.9440   57.1280 N   0  0  0  0  0  0  0  0  0  0  0  0
   38.2190   77.0950   57.5000 C   0  0  0  0  0  0  0  0  0  0  0  0
   38.6980   77.8250   58.5360 N   0  0  0  0  0  0  0  0  0  0  0  0
   41.3740   75.9240   59.3960 H   0  0  0  0  0  0  0  0  0  0  0  0
   40.4070   74.6360   57.4600 H   0  0  0  0  0  0  0  0  0  0  0  0
   40.9770   80.3410   61.7390 C   0  0  0  0  0  0  0  0  0  0  0  0
   40.9620   79.1050   62.3460 C   0  0  0  0  0  0  0  0  0  0  0  0
   40.5840   78.0490   61.5880 C   0  0  0  0  0  0  0  0  0  0  0  0
   40.2340   78.2410   60.2680 C   0  0  0  0  0  0  0  0  0  0  0  0
   40.4430   80.0540   60.0310 S   0  0  0  0  0  0  0  0  0  0  0  0
   41.2380   78.9530   63.3870 H   0  0  0  0  0  0  0  0  0  0  0  0
   40.5070   77.0080   61.8740 H   0  0  0  0  0  0  0  0  0  0  0  0
   43.0410   83.1390   62.9070 C   0  0  0  0  0  0  0  0  0  0  0  0
   42.1330   83.8910   63.7000 C   0  0  0  0  0  0  0  0  0  0  0  0
   40.8110   83.4340   63.8280 C   0  0  0  0  0  0  0  0  0  0  0  0
   40.4670   82.2990   63.1880 N   0  0  0  0  0  0  0  0  0  0  0  0
   41.3620   81.5980   62.4310 C   0  0  0  0  0  0  0  0  0  0  0  0
   42.6190   82.0260   62.3060 N   0  0  0  0  0  0  0  0  0  0  0  0
   44.0640   83.4450   62.7770 H   0  0  0  0  0  0  0  0  0  0  0  0
   42.4780   84.7970   64.1890 H   0  0  0  0  0  0  0  0  0  0  0  0
   40.1040   83.9860   64.4240 H   0  0  0  0  0  0  0  0  0  0  0  0
   37.0420   77.4900   56.7460 C   0  0  0  0  0  0  0  0  0  0  0  0
   35.9480   77.0540   57.1300 O   0  0  0  0  0  0  0  0  0  0  0  0
   37.1310   78.3860   55.5330 C   0  0  1  0  0  0  0  0  0  0  0  0
   37.3100   79.8410   55.8930 C   0  0  0  0  0  0  0  0  0  0  0  0
   38.3660   79.0720   55.2280 C   0  0  2  0  0  0  0  0  0  0  0  0
   36.2450   78.2770   54.8390 H   0  0  0  0  0  0  0  0  0  0  0  0
   37.3680   80.1080   56.9750 H   0  0  0  0  0  0  0  0  0  0  0  0
   36.6990   80.5730   55.3330 H   0  0  0  0  0  0  0  0  0  0  0  0
   39.2410   78.7860   55.8820 H   0  0  0  0  0  0  0  0  0  0  0  0
   38.7590   79.5250   53.8980 C   0  0  0  0  0  0  0  0  0  0  0  0
   39.9990   79.8040   53.4510 C   0  0  0  0  0  0  0  0  0  0  0  0
   40.8800   79.7000   54.1070 H   0  0  0  0  0  0  0  0  0  0  0  0
   40.1860   80.2240   52.1560 C   0  0  0  0  0  0  0  0  0  0  0  0
   39.0610   80.3400   51.3700 C   0  0  0  0  0  0  0  0  0  0  0  0
   37.6540   79.8230   52.5310 S   0  0  0  0  0  0  0  0  0  0  0  0
  1 12  1  0  0  0  0
  2  1  1  0  0  0  0
  2  7  1  0  0  0  0
  3  2  2  0  0  0  0
  4  5  2  0  0  0  0
  4  3  1  0  0  0  0
  5  6  1  0  0  0  0
  6  1  2  0  0  0  0
  8  3  1  0  0  0  0
  9 10  2  0  0  0  0
  9 20  1  0  0  0  0
 10 14  1  0  0  0  0
 11 15  1  0  0  0  0
 11 10  1  0  0  0  0
 12 11  2  0  0  0  0
 13 12  1  0  0  0  0
 13  9  1  0  0  0  0
 16 17  1  0  0  0  0
 17 18  2  0  0  0  0
 17 23  1  0  0  0  0
 18 24  1  0  0  0  0
 19 18  1  0  0  0  0
 20 19  2  0  0  0  0
 21 20  1  0  0  0  0
 21 16  2  0  0  0  0
 22 16  1  0  0  0  0
 25 26  2  0  0  0  0
 25  5  1  0  0  0  0
 27 30  1  6  0  0  0
 27 28  1  0  0  0  0
 27 25  1  0  0  0  0
 28 31  1  0  0  0  0
 29 27  1  0  0  0  0
 29 33  1  1  0  0  0
 29 28  1  0  0  0  0
 32 28  1  0  0  0  0
 34 29  1  0  0  0  0
 35 34  2  0  0  0  0
 35 36  1  0  0  0  0
 37 35  1  0  0  0  0
 38 37  2  0  0  0  0
 38 39  1  0  0  0  0
 39 34  1  0  0  0  0
M  END
>  <minimizedAffinity>
-6.31386995

>  <minimizedRMSD>
0.234868035

$$$$
