
 OpenBabel03212520593D

 39 43  0  0  1  0  0  0  0  0999 V2000
   39.6380   77.1310   59.1600 C   0  0  0  0  0  0  0  0  0  0  0  0
   40.2720   75.9530   58.9250 C   0  0  0  0  0  0  0  0  0  0  0  0
   39.6850   75.2330   57.8710 C   0  0  0  0  0  0  0  0  0  0  0  0
   38.6160   75.6540   57.1690 N   0  0  0  0  0  0  0  0  0  0  0  0
   38.0550   76.8580   57.4900 C   0  0  0  0  0  0  0  0  0  0  0  0
   38.5760   77.5980   58.4970 N   0  0  0  0  0  0  0  0  0  0  0  0
   41.1230   75.5690   59.4500 H   0  0  0  0  0  0  0  0  0  0  0  0
   40.0830   74.2660   57.5630 H   0  0  0  0  0  0  0  0  0  0  0  0
   40.9570   80.1040   61.6200 C   0  0  0  0  0  0  0  0  0  0  0  0
   40.9370   78.8830   62.2550 C   0  0  0  0  0  0  0  0  0  0  0  0
   40.5150   77.8180   61.5330 C   0  0  0  0  0  0  0  0  0  0  0  0
   40.1300   77.9880   60.2200 C   0  0  0  0  0  0  0  0  0  0  0  0
   40.3670   79.7900   59.9350 S   0  0  0  0  0  0  0  0  0  0  0  0
   41.2410   78.7480   63.2910 H   0  0  0  0  0  0  0  0  0  0  0  0
   40.4270   76.7850   61.8440 H   0  0  0  0  0  0  0  0  0  0  0  0
   43.1170   82.8730   62.6820 C   0  0  0  0  0  0  0  0  0  0  0  0
   42.2410   83.6720   63.4670 C   0  0  0  0  0  0  0  0  0  0  0  0
   40.9090   83.2570   63.6250 C   0  0  0  0  0  0  0  0  0  0  0  0
   40.5240   82.1150   63.0210 N   0  0  0  0  0  0  0  0  0  0  0  0
   41.3880   81.3680   62.2720 C   0  0  0  0  0  0  0  0  0  0  0  0
   42.6540   81.7570   62.1180 N   0  0  0  0  0  0  0  0  0  0  0  0
   44.1450   83.1460   62.5300 H   0  0  0  0  0  0  0  0  0  0  0  0
   42.6190   84.5810   63.9250 H   0  0  0  0  0  0  0  0  0  0  0  0
   40.2270   83.8450   64.2150 H   0  0  0  0  0  0  0  0  0  0  0  0
   36.9080   77.2950   56.7140 C   0  0  0  0  0  0  0  0  0  0  0  0
   35.7880   77.1490   57.2230 O   0  0  0  0  0  0  0  0  0  0  0  0
   37.0550   77.8940   55.3350 C   0  0  1  0  0  0  0  0  0  0  0  0
   37.4250   79.3570   55.3700 C   0  0  0  0  0  0  0  0  0  0  0  0
   38.3500   78.3350   54.8710 C   0  0  2  0  0  0  0  0  0  0  0  0
   36.1340   77.7550   54.6940 H   0  0  0  0  0  0  0  0  0  0  0  0
   37.5610   79.8380   56.3680 H   0  0  0  0  0  0  0  0  0  0  0  0
   36.8860   80.0260   54.6740 H   0  0  0  0  0  0  0  0  0  0  0  0
   39.2110   78.0850   55.5580 H   0  0  0  0  0  0  0  0  0  0  0  0
   38.7390   78.4420   53.4690 C   0  0  0  0  0  0  0  0  0  0  0  0
   38.6520   79.5210   52.6650 C   0  0  0  0  0  0  0  0  0  0  0  0
   38.2490   80.4790   53.0360 H   0  0  0  0  0  0  0  0  0  0  0  0
   39.0680   79.4430   51.3590 C   0  0  0  0  0  3  0  0  0  0  0  0
   39.5650   78.2280   50.9350 C   0  0  0  0  0  3  0  0  0  0  0  0
   39.4350   77.1340   52.4790 S   0  0  0  0  0  0  0  0  0  0  0  0
  1 12  1  0  0  0  0
  2  1  1  0  0  0  0
  2  7  1  0  0  0  0
  3  2  2  0  0  0  0
  4  5  2  0  0  0  0
  4  3  1  0  0  0  0
  5  6  1  0  0  0  0
  6  1  2  0  0  0  0
  8  3  1  0  0  0  0
  9 10  2  0  0  0  0
  9 20  1  0  0  0  0
 10 14  1  0  0  0  0
 11 15  1  0  0  0  0
 11 10  1  0  0  0  0
 12 11  2  0  0  0  0
 13 12  1  0  0  0  0
 13  9  1  0  0  0  0
 16 17  1  0  0  0  0
 17 18  2  0  0  0  0
 17 23  1  0  0  0  0
 18 24  1  0  0  0  0
 19 18  1  0  0  0  0
 20 19  2  0  0  0  0
 21 20  1  0  0  0  0
 21 16  2  0  0  0  0
 22 16  1  0  0  0  0
 25 26  2  0  0  0  0
 25  5  1  0  0  0  0
 27 30  1  6  0  0  0
 27 28  1  0  0  0  0
 27 25  1  0  0  0  0
 28 31  1  0  0  0  0
 29 27  1  0  0  0  0
 29 28  1  0  0  0  0
 29 33  1  1  0  0  0
 32 28  1  0  0  0  0
 34 29  1  0  0  0  0
 35 36  1  0  0  0  0
 35 34  2  0  0  0  0
 37 35  1  0  0  0  0
 38 37  2  0  0  0  0
 38 39  1  0  0  0  0
 39 34  1  0  0  0  0
M  END
>  <minimizedAffinity>
-6.15692854

>  <minimizedRMSD>
0.867254853

$$$$
