
 OpenBabel03212520593D

 39 43  0  0  1  0  0  0  0  0999 V2000
   39.6330   77.0900   59.1810 C   0  0  0  0  0  0  0  0  0  0  0  0
   40.2640   75.9060   58.9660 C   0  0  0  0  0  0  0  0  0  0  0  0
   39.6840   75.1780   57.9140 C   0  0  0  0  0  0  0  0  0  0  0  0
   38.6250   75.5960   57.1950 N   0  0  0  0  0  0  0  0  0  0  0  0
   38.0670   76.8060   57.4970 C   0  0  0  0  0  0  0  0  0  0  0  0
   38.5810   77.5550   58.5020 N   0  0  0  0  0  0  0  0  0  0  0  0
   41.1070   75.5240   59.5050 H   0  0  0  0  0  0  0  0  0  0  0  0
   40.0810   74.2050   57.6210 H   0  0  0  0  0  0  0  0  0  0  0  0
   40.9430   80.0830   61.6220 C   0  0  0  0  0  0  0  0  0  0  0  0
   40.9040   78.8700   62.2720 C   0  0  0  0  0  0  0  0  0  0  0  0
   40.4830   77.7990   61.5580 C   0  0  0  0  0  0  0  0  0  0  0  0
   40.1170   77.9560   60.2370 C   0  0  0  0  0  0  0  0  0  0  0  0
   40.3730   79.7530   59.9330 S   0  0  0  0  0  0  0  0  0  0  0  0
   41.1930   78.7460   63.3140 H   0  0  0  0  0  0  0  0  0  0  0  0
   40.3820   76.7720   61.8800 H   0  0  0  0  0  0  0  0  0  0  0  0
   43.1060   82.8590   62.6600 C   0  0  0  0  0  0  0  0  0  0  0  0
   42.2320   83.6640   63.4400 C   0  0  0  0  0  0  0  0  0  0  0  0
   40.8990   83.2500   63.6030 C   0  0  0  0  0  0  0  0  0  0  0  0
   40.5130   82.1040   63.0080 N   0  0  0  0  0  0  0  0  0  0  0  0
   41.3750   81.3520   62.2640 C   0  0  0  0  0  0  0  0  0  0  0  0
   42.6420   81.7380   62.1050 N   0  0  0  0  0  0  0  0  0  0  0  0
   44.1340   83.1300   62.5050 H   0  0  0  0  0  0  0  0  0  0  0  0
   42.6100   84.5760   63.8910 H   0  0  0  0  0  0  0  0  0  0  0  0
   40.2180   83.8440   64.1900 H   0  0  0  0  0  0  0  0  0  0  0  0
   36.9310   77.2400   56.7040 C   0  0  0  0  0  0  0  0  0  0  0  0
   35.8100   77.1580   57.2230 O   0  0  0  0  0  0  0  0  0  0  0  0
   37.0900   77.7620   55.2950 C   0  0  1  0  0  0  0  0  0  0  0  0
   37.3850   79.2420   55.2500 C   0  0  0  0  0  0  0  0  0  0  0  0
   38.3750   78.2420   54.8410 C   0  0  2  0  0  0  0  0  0  0  0  0
   36.1970   77.5370   54.6390 H   0  0  0  0  0  0  0  0  0  0  0  0
   37.4650   79.7880   56.2200 H   0  0  0  0  0  0  0  0  0  0  0  0
   36.8340   79.8390   54.5000 H   0  0  0  0  0  0  0  0  0  0  0  0
   39.2250   78.0790   55.5660 H   0  0  0  0  0  0  0  0  0  0  0  0
   38.8020   78.2850   53.4460 C   0  0  0  0  0  0  0  0  0  0  0  0
   39.2830   77.2750   52.6960 C   0  0  0  0  0  0  0  0  0  0  0  0
   39.4010   76.2600   53.1120 H   0  0  0  0  0  0  0  0  0  0  0  0
   39.6390   77.4970   51.3880 C   0  0  0  0  0  3  0  0  0  0  0  0
   39.4780   78.7790   50.9070 C   0  0  0  0  0  3  0  0  0  0  0  0
   38.7800   79.7250   52.3950 S   0  0  0  0  0  0  0  0  0  0  0  0
  1 12  1  0  0  0  0
  2  1  1  0  0  0  0
  2  7  1  0  0  0  0
  3  2  2  0  0  0  0
  4  5  2  0  0  0  0
  4  3  1  0  0  0  0
  5  6  1  0  0  0  0
  6  1  2  0  0  0  0
  8  3  1  0  0  0  0
  9 20  1  0  0  0  0
  9 10  2  0  0  0  0
 10 14  1  0  0  0  0
 11 15  1  0  0  0  0
 11 10  1  0  0  0  0
 12 11  2  0  0  0  0
 13 12  1  0  0  0  0
 13  9  1  0  0  0  0
 16 17  1  0  0  0  0
 17 18  2  0  0  0  0
 17 23  1  0  0  0  0
 18 24  1  0  0  0  0
 19 18  1  0  0  0  0
 20 19  2  0  0  0  0
 21 20  1  0  0  0  0
 21 16  2  0  0  0  0
 22 16  1  0  0  0  0
 25 26  2  0  0  0  0
 25  5  1  0  0  0  0
 27 30  1  6  0  0  0
 27 25  1  0  0  0  0
 28 27  1  0  0  0  0
 28 31  1  0  0  0  0
 29 28  1  0  0  0  0
 29 27  1  0  0  0  0
 29 33  1  1  0  0  0
 32 28  1  0  0  0  0
 34 29  1  0  0  0  0
 35 36  1  0  0  0  0
 35 34  2  0  0  0  0
 37 35  1  0  0  0  0
 38 37  2  0  0  0  0
 38 39  1  0  0  0  0
 39 34  1  0  0  0  0
M  END
>  <minimizedAffinity>
-6.13322544

>  <minimizedRMSD>
0.958542645

$$$$
