
 OpenBabel03212520593D

 39 43  0  0  1  0  0  0  0  0999 V2000
   39.6380   77.1090   59.1390 C   0  0  0  0  0  0  0  0  0  0  0  0
   40.2880   75.9420   58.8960 C   0  0  0  0  0  0  0  0  0  0  0  0
   39.7050   75.2180   57.8420 C   0  0  0  0  0  0  0  0  0  0  0  0
   38.6270   75.6270   57.1470 N   0  0  0  0  0  0  0  0  0  0  0  0
   38.0510   76.8210   57.4760 C   0  0  0  0  0  0  0  0  0  0  0  0
   38.5660   77.5650   58.4830 N   0  0  0  0  0  0  0  0  0  0  0  0
   41.1470   75.5680   59.4150 H   0  0  0  0  0  0  0  0  0  0  0  0
   40.1150   74.2570   57.5280 H   0  0  0  0  0  0  0  0  0  0  0  0
   40.9450   80.0890   61.5990 C   0  0  0  0  0  0  0  0  0  0  0  0
   40.9140   78.8700   62.2390 C   0  0  0  0  0  0  0  0  0  0  0  0
   40.4950   77.8030   61.5180 C   0  0  0  0  0  0  0  0  0  0  0  0
   40.1230   77.9690   60.2000 C   0  0  0  0  0  0  0  0  0  0  0  0
   40.3700   79.7690   59.9100 S   0  0  0  0  0  0  0  0  0  0  0  0
   41.2070   78.7380   63.2790 H   0  0  0  0  0  0  0  0  0  0  0  0
   40.4000   76.7720   61.8320 H   0  0  0  0  0  0  0  0  0  0  0  0
   43.1020   82.8600   62.6600 C   0  0  0  0  0  0  0  0  0  0  0  0
   42.2250   83.6590   63.4420 C   0  0  0  0  0  0  0  0  0  0  0  0
   40.8930   83.2440   63.5990 C   0  0  0  0  0  0  0  0  0  0  0  0
   40.5090   82.1010   62.9960 N   0  0  0  0  0  0  0  0  0  0  0  0
   41.3740   81.3530   62.2500 C   0  0  0  0  0  0  0  0  0  0  0  0
   42.6410   81.7420   62.0970 N   0  0  0  0  0  0  0  0  0  0  0  0
   44.1310   83.1330   62.5090 H   0  0  0  0  0  0  0  0  0  0  0  0
   42.6020   84.5690   63.9000 H   0  0  0  0  0  0  0  0  0  0  0  0
   40.2100   83.8330   64.1870 H   0  0  0  0  0  0  0  0  0  0  0  0
   36.8940   77.2440   56.7070 C   0  0  0  0  0  0  0  0  0  0  0  0
   35.7830   77.1370   57.2450 O   0  0  0  0  0  0  0  0  0  0  0  0
   37.0190   77.7860   55.3020 C   0  0  1  0  0  0  0  0  0  0  0  0
   37.3580   79.2560   55.2700 C   0  0  0  0  0  0  0  0  0  0  0  0
   38.3020   78.2340   54.8110 C   0  0  2  0  0  0  0  0  0  0  0  0
   36.0980   77.5990   54.6740 H   0  0  0  0  0  0  0  0  0  0  0  0
   37.4890   79.7830   56.2460 H   0  0  0  0  0  0  0  0  0  0  0  0
   36.8000   79.8820   54.5500 H   0  0  0  0  0  0  0  0  0  0  0  0
   39.1720   78.0330   55.5030 H   0  0  0  0  0  0  0  0  0  0  0  0
   38.6810   78.2870   53.4030 C   0  0  0  0  0  0  0  0  0  0  0  0
   39.3750   77.3740   52.6960 C   0  0  0  0  0  0  0  0  0  0  0  0
   39.7390   76.4440   53.1660 H   0  0  0  0  0  0  0  0  0  0  0  0
   39.6440   77.5900   51.3670 C   0  0  0  0  0  3  0  0  0  0  0  0
   39.1740   78.7640   50.8180 C   0  0  0  0  0  3  0  0  0  0  0  0
   38.2980   79.6110   52.2710 S   0  0  0  0  0  0  0  0  0  0  0  0
  1 12  1  0  0  0  0
  2  1  1  0  0  0  0
  2  7  1  0  0  0  0
  3  2  2  0  0  0  0
  4  5  2  0  0  0  0
  4  3  1  0  0  0  0
  5  6  1  0  0  0  0
  6  1  2  0  0  0  0
  8  3  1  0  0  0  0
  9 10  2  0  0  0  0
  9 20  1  0  0  0  0
 10 14  1  0  0  0  0
 11 15  1  0  0  0  0
 11 10  1  0  0  0  0
 12 11  2  0  0  0  0
 13 12  1  0  0  0  0
 13  9  1  0  0  0  0
 16 17  1  0  0  0  0
 17 18  2  0  0  0  0
 17 23  1  0  0  0  0
 18 24  1  0  0  0  0
 19 18  1  0  0  0  0
 20 19  2  0  0  0  0
 21 20  1  0  0  0  0
 21 16  2  0  0  0  0
 22 16  1  0  0  0  0
 25 26  2  0  0  0  0
 25  5  1  0  0  0  0
 27 30  1  6  0  0  0
 27 25  1  0  0  0  0
 28 27  1  0  0  0  0
 28 31  1  0  0  0  0
 29 28  1  0  0  0  0
 29 27  1  0  0  0  0
 29 33  1  1  0  0  0
 32 28  1  0  0  0  0
 34 29  1  0  0  0  0
 35 36  1  0  0  0  0
 35 34  2  0  0  0  0
 37 35  1  0  0  0  0
 38 37  2  0  0  0  0
 38 39  1  0  0  0  0
 39 34  1  0  0  0  0
M  END
>  <minimizedAffinity>
-6.16806698

>  <minimizedRMSD>
0.996702254

$$$$
