
 OpenBabel03212520463D

 17 18  0  0  0  0  0  0  0  0999 V2000
   40.6520   83.4180   62.5930 C   0  0  0  0  0  0  0  0  0  0  0  0
   39.3970   83.4810   61.9230 C   0  0  0  0  0  0  0  0  0  0  0  0
   39.3510   84.1600   60.7020 C   0  0  0  0  0  0  0  0  0  0  0  0
   40.4890   84.7110   60.2330 N   0  0  0  0  0  0  0  0  0  0  0  0
   41.6490   84.6310   60.8920 C   0  0  0  0  0  0  0  0  0  0  0  0
   41.7430   83.9950   62.0580 N   0  0  0  0  0  0  0  0  0  0  0  0
   40.5470   82.7050   63.8080 N   0  0  0  0  0  0  0  0  0  0  0  0
   38.4890   83.0510   62.2780 H   0  0  0  0  0  0  0  0  0  0  0  0
   38.4260   84.2390   60.1490 H   0  0  0  0  0  0  0  0  0  0  0  0
   39.9090   83.1810   64.5080 H   0  0  0  0  0  0  0  0  0  0  0  0
   40.9730   81.8230   64.1260 H   0  0  0  0  0  0  0  0  0  0  0  0
   42.7960   85.2560   60.2970 C   0  0  0  0  0  0  0  0  0  0  0  0
   42.9030   85.8410   59.0140 C   0  0  0  0  0  0  0  0  0  0  0  0
   42.0290   85.8330   58.3770 H   0  0  0  0  0  0  0  0  0  0  0  0
   44.1280   86.3760   58.6910 C   0  0  0  0  0  3  0  0  0  0  0  0
   45.1390   86.3160   59.5880 C   0  0  0  0  0  3  0  0  0  0  0  0
   44.3680   85.4580   61.0060 S   0  0  0  0  0  0  0  0  0  0  0  0
  1  7  1  0  0  0  0
  2  8  1  0  0  0  0
  2  1  2  0  0  0  0
  3  2  1  0  0  0  0
  4  3  2  0  0  0  0
  4  5  1  0  0  0  0
  5  6  2  0  0  0  0
  6  1  1  0  0  0  0
  7 11  1  0  0  0  0
  7 10  1  0  0  0  0
  9  3  1  0  0  0  0
 12  5  1  0  0  0  0
 12 17  1  0  0  0  0
 13 12  2  0  0  0  0
 14 13  1  0  0  0  0
 15 13  1  0  0  0  0
 15 16  2  0  0  0  0
 16 17  1  0  0  0  0
M  END
>  <minimizedAffinity>
-4.02087498

>  <minimizedRMSD>
5.67970514

$$$$
