
 OpenBabel03212520593D

 39 43  0  0  1  0  0  0  0  0999 V2000
   39.7880   77.3980   59.1850 C   0  0  0  0  0  0  0  0  0  0  0  0
   40.4840   76.2640   58.9120 C   0  0  0  0  0  0  0  0  0  0  0  0
   39.9380   75.5520   57.8310 C   0  0  0  0  0  0  0  0  0  0  0  0
   38.8500   75.9420   57.1380 N   0  0  0  0  0  0  0  0  0  0  0  0
   38.2270   77.1030   57.4990 C   0  0  0  0  0  0  0  0  0  0  0  0
   38.7060   77.8330   58.5340 N   0  0  0  0  0  0  0  0  0  0  0  0
   41.3520   75.9060   59.4280 H   0  0  0  0  0  0  0  0  0  0  0  0
   40.3860   74.6180   57.4910 H   0  0  0  0  0  0  0  0  0  0  0  0
   40.9760   80.3430   61.7450 C   0  0  0  0  0  0  0  0  0  0  0  0
   40.9610   79.1080   62.3540 C   0  0  0  0  0  0  0  0  0  0  0  0
   40.5820   78.0510   61.5970 C   0  0  0  0  0  0  0  0  0  0  0  0
   40.2320   78.2410   60.2770 C   0  0  0  0  0  0  0  0  0  0  0  0
   40.4420   80.0540   60.0370 S   0  0  0  0  0  0  0  0  0  0  0  0
   41.2370   78.9570   63.3950 H   0  0  0  0  0  0  0  0  0  0  0  0
   40.5050   77.0100   61.8840 H   0  0  0  0  0  0  0  0  0  0  0  0
   43.0430   83.1420   62.9080 C   0  0  0  0  0  0  0  0  0  0  0  0
   42.1350   83.8950   63.7020 C   0  0  0  0  0  0  0  0  0  0  0  0
   40.8140   83.4370   63.8320 C   0  0  0  0  0  0  0  0  0  0  0  0
   40.4690   82.3020   63.1930 N   0  0  0  0  0  0  0  0  0  0  0  0
   41.3630   81.6000   62.4360 C   0  0  0  0  0  0  0  0  0  0  0  0
   42.6190   82.0290   62.3080 N   0  0  0  0  0  0  0  0  0  0  0  0
   44.0650   83.4480   62.7760 H   0  0  0  0  0  0  0  0  0  0  0  0
   42.4810   84.8010   64.1890 H   0  0  0  0  0  0  0  0  0  0  0  0
   40.1080   83.9910   64.4280 H   0  0  0  0  0  0  0  0  0  0  0  0
   37.0610   77.5070   56.7330 C   0  0  0  0  0  0  0  0  0  0  0  0
   35.9600   77.0820   57.1070 O   0  0  0  0  0  0  0  0  0  0  0  0
   37.1690   78.4000   55.5200 C   0  0  1  0  0  0  0  0  0  0  0  0
   37.3220   79.8580   55.8790 C   0  0  0  0  0  0  0  0  0  0  0  0
   38.4030   79.0990   55.2430 C   0  0  2  0  0  0  0  0  0  0  0  0
   36.3030   78.2780   54.8050 H   0  0  0  0  0  0  0  0  0  0  0  0
   37.3500   80.1290   56.9620 H   0  0  0  0  0  0  0  0  0  0  0  0
   36.7170   80.5810   55.3010 H   0  0  0  0  0  0  0  0  0  0  0  0
   39.2650   78.8270   55.9200 H   0  0  0  0  0  0  0  0  0  0  0  0
   38.8240   79.5540   53.9220 C   0  0  0  0  0  0  0  0  0  0  0  0
   38.0510   79.7860   52.8420 C   0  0  0  0  0  0  0  0  0  0  0  0
   36.9580   79.6390   52.8770 H   0  0  0  0  0  0  0  0  0  0  0  0
   38.6210   80.2140   51.6670 C   0  0  0  0  0  3  0  0  0  0  0  0
   39.9890   80.3860   51.6640 C   0  0  0  0  0  3  0  0  0  0  0  0
   40.4970   79.9130   53.4290 S   0  0  0  0  0  0  0  0  0  0  0  0
  1 12  1  0  0  0  0
  2  1  1  0  0  0  0
  2  7  1  0  0  0  0
  3  2  2  0  0  0  0
  4  5  2  0  0  0  0
  4  3  1  0  0  0  0
  5  6  1  0  0  0  0
  6  1  2  0  0  0  0
  8  3  1  0  0  0  0
  9 10  2  0  0  0  0
  9 20  1  0  0  0  0
 10 14  1  0  0  0  0
 11 15  1  0  0  0  0
 11 10  1  0  0  0  0
 12 11  2  0  0  0  0
 13 12  1  0  0  0  0
 13  9  1  0  0  0  0
 16 17  1  0  0  0  0
 17 18  2  0  0  0  0
 17 23  1  0  0  0  0
 18 24  1  0  0  0  0
 19 18  1  0  0  0  0
 20 19  2  0  0  0  0
 21 20  1  0  0  0  0
 21 16  2  0  0  0  0
 22 16  1  0  0  0  0
 25 26  2  0  0  0  0
 25  5  1  0  0  0  0
 27 30  1  6  0  0  0
 27 28  1  0  0  0  0
 27 25  1  0  0  0  0
 28 31  1  0  0  0  0
 29 27  1  0  0  0  0
 29 28  1  0  0  0  0
 29 33  1  1  0  0  0
 32 28  1  0  0  0  0
 34 29  1  0  0  0  0
 35 36  1  0  0  0  0
 35 34  2  0  0  0  0
 37 35  1  0  0  0  0
 38 37  2  0  0  0  0
 38 39  1  0  0  0  0
 39 34  1  0  0  0  0
M  END
>  <minimizedAffinity>
-6.29181385

>  <minimizedRMSD>
0.190202937

$$$$
