
 OpenBabel03212520463D

 17 18  0  0  0  0  0  0  0  0999 V2000
   41.9290   85.0270   59.2500 C   0  0  0  0  0  0  0  0  0  0  0  0
   40.7030   85.6730   58.9240 C   0  0  0  0  0  0  0  0  0  0  0  0
   39.5180   84.9980   59.2310 C   0  0  0  0  0  0  0  0  0  0  0  0
   39.6050   83.7840   59.8120 N   0  0  0  0  0  0  0  0  0  0  0  0
   40.7770   83.2110   60.1010 C   0  0  0  0  0  0  0  0  0  0  0  0
   41.9320   83.8140   59.8290 N   0  0  0  0  0  0  0  0  0  0  0  0
   43.0380   85.8240   58.8840 N   0  0  0  0  0  0  0  0  0  0  0  0
   40.6150   86.6310   58.4660 H   0  0  0  0  0  0  0  0  0  0  0  0
   38.5570   85.4400   59.0070 H   0  0  0  0  0  0  0  0  0  0  0  0
   43.1030   85.9800   57.8380 H   0  0  0  0  0  0  0  0  0  0  0  0
   43.7780   86.2690   59.4440 H   0  0  0  0  0  0  0  0  0  0  0  0
   40.7480   81.9150   60.7190 C   0  0  0  0  0  0  0  0  0  0  0  0
   40.2830   80.6970   60.1710 C   0  0  0  0  0  0  0  0  0  0  0  0
   39.8940   80.7090   59.1610 H   0  0  0  0  0  0  0  0  0  0  0  0
   40.3680   79.5920   60.9860 C   0  0  0  0  0  3  0  0  0  0  0  0
   40.8780   79.7210   62.2320 C   0  0  0  0  0  3  0  0  0  0  0  0
   41.2820   81.5020   62.3190 S   0  0  0  0  0  0  0  0  0  0  0  0
  1  6  1  0  0  0  0
  2  3  1  0  0  0  0
  2  1  2  0  0  0  0
  3  4  2  0  0  0  0
  4  5  1  0  0  0  0
  5 12  1  0  0  0  0
  6  5  2  0  0  0  0
  7  1  1  0  0  0  0
  7 11  1  0  0  0  0
  8  2  1  0  0  0  0
  9  3  1  0  0  0  0
 10  7  1  0  0  0  0
 12 17  1  0  0  0  0
 13 12  2  0  0  0  0
 13 15  1  0  0  0  0
 14 13  1  0  0  0  0
 15 16  2  0  0  0  0
 16 17  1  0  0  0  0
M  END
>  <minimizedAffinity>
-3.34676576

>  <minimizedRMSD>
4.76143265

$$$$
