
 OpenBabel03212520463D

 17 18  0  0  0  0  0  0  0  0999 V2000
   44.1230   84.9350   61.1770 C   0  0  0  0  0  0  0  0  0  0  0  0
   43.7070   85.9290   60.2480 C   0  0  0  0  0  0  0  0  0  0  0  0
   42.5470   85.6770   59.5090 C   0  0  0  0  0  0  0  0  0  0  0  0
   41.8950   84.5150   59.7190 N   0  0  0  0  0  0  0  0  0  0  0  0
   42.3190   83.6060   60.6020 C   0  0  0  0  0  0  0  0  0  0  0  0
   43.4160   83.8010   61.3290 N   0  0  0  0  0  0  0  0  0  0  0  0
   45.3040   85.3260   61.8480 N   0  0  0  0  0  0  0  0  0  0  0  0
   44.2090   86.8530   60.0690 H   0  0  0  0  0  0  0  0  0  0  0  0
   42.1840   86.3960   58.7890 H   0  0  0  0  0  0  0  0  0  0  0  0
   46.1330   85.4240   61.1940 H   0  0  0  0  0  0  0  0  0  0  0  0
   45.4970   85.5260   62.8390 H   0  0  0  0  0  0  0  0  0  0  0  0
   41.5440   82.4040   60.7420 C   0  0  0  0  0  0  0  0  0  0  0  0
   40.7310   81.7720   59.7720 C   0  0  0  0  0  0  0  0  0  0  0  0
   40.6640   82.2260   58.7930 H   0  0  0  0  0  0  0  0  0  0  0  0
   40.0930   80.6220   60.1710 C   0  0  0  0  0  3  0  0  0  0  0  0
   40.2690   80.1660   61.4330 C   0  0  0  0  0  3  0  0  0  0  0  0
   41.4040   81.4040   62.1540 S   0  0  0  0  0  0  0  0  0  0  0  0
  1  6  1  0  0  0  0
  1  7  1  0  0  0  0
  2  1  2  0  0  0  0
  3  4  2  0  0  0  0
  3  2  1  0  0  0  0
  4  5  1  0  0  0  0
  5 12  1  0  0  0  0
  5  6  2  0  0  0  0
  7 11  1  0  0  0  0
  8  2  1  0  0  0  0
  9  3  1  0  0  0  0
 10  7  1  0  0  0  0
 12 17  1  0  0  0  0
 13 15  1  0  0  0  0
 13 12  2  0  0  0  0
 14 13  1  0  0  0  0
 15 16  2  0  0  0  0
 16 17  1  0  0  0  0
M  END
>  <minimizedAffinity>
-3.43554807

>  <minimizedRMSD>
5.1675396

$$$$
