
 OpenBabel03212520343D

 31 34  0  0  0  0  0  0  0  0999 V2000
   42.0000   83.0650   57.2380 C   0  0  0  0  0  0  0  0  0  0  0  0
   42.1270   81.6930   57.4480 C   0  0  0  0  0  0  0  0  0  0  0  0
   41.4360   81.0160   58.4370 C   0  0  0  0  0  0  0  0  0  0  0  0
   40.5830   81.7020   59.2590 C   0  0  0  0  0  0  0  0  0  0  0  0
   40.4490   83.0570   59.0620 C   0  0  0  0  0  0  0  0  0  0  0  0
   39.6080   83.8500   59.8410 C   0  0  0  0  0  0  0  0  0  0  0  0
   39.4870   85.2070   59.6290 C   0  0  0  0  0  0  0  0  0  0  0  0
   40.1940   85.8410   58.6340 C   0  0  0  0  0  0  0  0  0  0  0  0
   41.0370   85.0930   57.8400 C   0  0  0  0  0  0  0  0  0  0  0  0
   41.1320   83.7500   58.0790 C   0  0  0  0  0  0  0  0  0  0  0  0
   42.7800   81.0800   56.8410 H   0  0  0  0  0  0  0  0  0  0  0  0
   41.5470   79.9480   58.5850 H   0  0  0  0  0  0  0  0  0  0  0  0
   40.0220   81.2080   60.0450 H   0  0  0  0  0  0  0  0  0  0  0  0
   39.0530   83.3480   60.6240 H   0  0  0  0  0  0  0  0  0  0  0  0
   38.8180   85.7650   60.2700 H   0  0  0  0  0  0  0  0  0  0  0  0
   40.0990   86.9090   58.4670 H   0  0  0  0  0  0  0  0  0  0  0  0
   41.5800   85.5860   57.0660 H   0  0  0  0  0  0  0  0  0  0  0  0
   43.9510   84.3830   56.1580 C   0  0  0  0  0  0  0  0  0  0  0  0
   42.8070   83.5920   56.1420 C   0  0  0  0  0  0  0  0  0  0  0  0
   42.2850   83.2220   54.8770 C   0  0  0  0  0  0  0  0  0  0  0  0
   42.9210   83.6560   53.7490 N   0  0  0  0  0  0  0  0  0  0  0  0
   44.0410   84.4320   53.8370 C   0  0  0  0  0  0  0  0  0  0  0  0
   44.5280   84.7760   55.0240 N   0  0  0  0  0  0  0  0  0  0  0  0
   44.2750   84.6060   57.1590 H   0  0  0  0  0  0  0  0  0  0  0  0
   41.4030   82.6090   54.7130 H   0  0  0  0  0  0  0  0  0  0  0  0
   44.7250   84.9010   52.6160 C   0  0  0  0  0  0  0  0  0  0  0  0
   45.6470   84.2850   51.8850 C   0  0  0  0  0  0  0  0  0  0  0  0
   45.9860   83.2970   52.1710 H   0  0  0  0  0  0  0  0  0  0  0  0
   46.1750   84.8810   50.7700 C   0  0  0  0  0  3  0  0  0  0  0  0
   45.6480   86.1960   50.4870 C   0  0  0  0  0  3  0  0  0  0  0  0
   44.4240   86.4430   51.8780 S   0  0  0  0  0  0  0  0  0  0  0  0
  1  2  2  0  0  0  0
  1 10  1  0  0  0  0
  2  3  1  0  0  0  0
  3 12  1  0  0  0  0
  3  4  2  0  0  0  0
  4 13  1  0  0  0  0
  5  4  1  0  0  0  0
  5  6  1  0  0  0  0
  6 14  1  0  0  0  0
  7  6  2  0  0  0  0
  7 15  1  0  0  0  0
  8  7  1  0  0  0  0
  9 10  1  0  0  0  0
  9  8  2  0  0  0  0
 10  5  2  0  0  0  0
 11  2  1  0  0  0  0
 16  8  1  0  0  0  0
 17  9  1  0  0  0  0
 18 24  1  0  0  0  0
 19 18  1  0  0  0  0
 19  1  1  0  0  0  0
 20 19  2  0  0  0  0
 21 22  2  0  0  0  0
 21 20  1  0  0  0  0
 22 23  1  0  0  0  0
 23 18  2  0  0  0  0
 25 20  1  0  0  0  0
 26 22  1  0  0  0  0
 27 28  1  0  0  0  0
 27 26  2  0  0  0  0
 29 27  1  0  0  0  0
 30 29  2  0  0  0  0
 30 31  1  0  0  0  0
 31 26  1  0  0  0  0
M  END
>  <minimizedAffinity>
-3.51428294

>  <minimizedRMSD>
8.93251133

$$$$
