
 OpenBabel03212520593D

 39 43  0  0  1  0  0  0  0  0999 V2000
   39.7850   77.3870   59.1730 C   0  0  0  0  0  0  0  0  0  0  0  0
   40.4910   76.2610   58.8890 C   0  0  0  0  0  0  0  0  0  0  0  0
   39.9450   75.5480   57.8100 C   0  0  0  0  0  0  0  0  0  0  0  0
   38.8470   75.9290   57.1270 N   0  0  0  0  0  0  0  0  0  0  0  0
   38.2140   77.0810   57.4980 C   0  0  0  0  0  0  0  0  0  0  0  0
   38.6930   77.8120   58.5330 N   0  0  0  0  0  0  0  0  0  0  0  0
   41.3670   75.9120   59.3970 H   0  0  0  0  0  0  0  0  0  0  0  0
   40.4010   74.6210   57.4620 H   0  0  0  0  0  0  0  0  0  0  0  0
   40.9730   80.3320   61.7320 C   0  0  0  0  0  0  0  0  0  0  0  0
   40.9530   79.0980   62.3420 C   0  0  0  0  0  0  0  0  0  0  0  0
   40.5740   78.0400   61.5870 C   0  0  0  0  0  0  0  0  0  0  0  0
   40.2280   78.2300   60.2650 C   0  0  0  0  0  0  0  0  0  0  0  0
   40.4420   80.0420   60.0240 S   0  0  0  0  0  0  0  0  0  0  0  0
   41.2270   78.9470   63.3850 H   0  0  0  0  0  0  0  0  0  0  0  0
   40.4940   77.0010   61.8740 H   0  0  0  0  0  0  0  0  0  0  0  0
   43.0410   83.1290   62.8960 C   0  0  0  0  0  0  0  0  0  0  0  0
   42.1340   83.8840   63.6880 C   0  0  0  0  0  0  0  0  0  0  0  0
   40.8110   83.4290   63.8160 C   0  0  0  0  0  0  0  0  0  0  0  0
   40.4650   82.2930   63.1770 N   0  0  0  0  0  0  0  0  0  0  0  0
   41.3590   81.5900   62.4230 C   0  0  0  0  0  0  0  0  0  0  0  0
   42.6170   82.0160   62.2970 N   0  0  0  0  0  0  0  0  0  0  0  0
   44.0640   83.4340   62.7660 H   0  0  0  0  0  0  0  0  0  0  0  0
   42.4800   84.7900   64.1750 H   0  0  0  0  0  0  0  0  0  0  0  0
   40.1050   83.9840   64.4110 H   0  0  0  0  0  0  0  0  0  0  0  0
   37.0370   77.4740   56.7430 C   0  0  0  0  0  0  0  0  0  0  0  0
   35.9410   77.0560   57.1400 O   0  0  0  0  0  0  0  0  0  0  0  0
   37.1290   78.3490   55.5150 C   0  0  1  0  0  0  0  0  0  0  0  0
   37.3260   79.8080   55.8500 C   0  0  0  0  0  0  0  0  0  0  0  0
   38.3690   79.0160   55.1920 C   0  0  2  0  0  0  0  0  0  0  0  0
   36.2380   78.2380   54.8280 H   0  0  0  0  0  0  0  0  0  0  0  0
   37.3930   80.0920   56.9270 H   0  0  0  0  0  0  0  0  0  0  0  0
   36.7200   80.5370   55.2810 H   0  0  0  0  0  0  0  0  0  0  0  0
   39.2450   78.7320   55.8460 H   0  0  0  0  0  0  0  0  0  0  0  0
   38.7590   79.4430   53.8520 C   0  0  0  0  0  0  0  0  0  0  0  0
   39.9800   79.8270   53.4290 C   0  0  0  0  0  0  0  0  0  0  0  0
   40.8440   79.8480   54.1150 H   0  0  0  0  0  0  0  0  0  0  0  0
   40.1680   80.2020   52.1210 C   0  0  0  0  0  3  0  0  0  0  0  0
   39.0650   80.1610   51.2960 C   0  0  0  0  0  3  0  0  0  0  0  0
   37.6780   79.5590   52.4400 S   0  0  0  0  0  0  0  0  0  0  0  0
  1 12  1  0  0  0  0
  2  1  1  0  0  0  0
  2  7  1  0  0  0  0
  3  2  2  0  0  0  0
  4  5  2  0  0  0  0
  4  3  1  0  0  0  0
  5  6  1  0  0  0  0
  6  1  2  0  0  0  0
  8  3  1  0  0  0  0
  9 10  2  0  0  0  0
  9 20  1  0  0  0  0
 10 14  1  0  0  0  0
 11 15  1  0  0  0  0
 11 10  1  0  0  0  0
 12 11  2  0  0  0  0
 13 12  1  0  0  0  0
 13  9  1  0  0  0  0
 16 17  1  0  0  0  0
 17 18  2  0  0  0  0
 17 23  1  0  0  0  0
 18 24  1  0  0  0  0
 19 18  1  0  0  0  0
 20 19  2  0  0  0  0
 21 20  1  0  0  0  0
 21 16  2  0  0  0  0
 22 16  1  0  0  0  0
 25 26  2  0  0  0  0
 25  5  1  0  0  0  0
 27 30  1  6  0  0  0
 27 28  1  0  0  0  0
 27 25  1  0  0  0  0
 28 31  1  0  0  0  0
 29 27  1  0  0  0  0
 29 33  1  1  0  0  0
 29 28  1  0  0  0  0
 32 28  1  0  0  0  0
 34 29  1  0  0  0  0
 35 34  2  0  0  0  0
 35 36  1  0  0  0  0
 37 35  1  0  0  0  0
 38 37  2  0  0  0  0
 38 39  1  0  0  0  0
 39 34  1  0  0  0  0
M  END
>  <minimizedAffinity>
-6.30921888

>  <minimizedRMSD>
0.484782368

$$$$
