
 OpenBabel03212520593D

 39 43  0  0  1  0  0  0  0  0999 V2000
   39.7900   77.3860   59.1900 C   0  0  0  0  0  0  0  0  0  0  0  0
   40.4970   76.2610   58.9050 C   0  0  0  0  0  0  0  0  0  0  0  0
   39.9480   75.5470   57.8280 C   0  0  0  0  0  0  0  0  0  0  0  0
   38.8490   75.9250   57.1480 N   0  0  0  0  0  0  0  0  0  0  0  0
   38.2140   77.0760   57.5200 C   0  0  0  0  0  0  0  0  0  0  0  0
   38.6950   77.8090   58.5520 N   0  0  0  0  0  0  0  0  0  0  0  0
   41.3750   75.9130   59.4100 H   0  0  0  0  0  0  0  0  0  0  0  0
   40.4050   74.6200   57.4790 H   0  0  0  0  0  0  0  0  0  0  0  0
   40.9790   80.3350   61.7440 C   0  0  0  0  0  0  0  0  0  0  0  0
   40.9650   79.1010   62.3540 C   0  0  0  0  0  0  0  0  0  0  0  0
   40.5860   78.0420   61.6000 C   0  0  0  0  0  0  0  0  0  0  0  0
   40.2340   78.2310   60.2800 C   0  0  0  0  0  0  0  0  0  0  0  0
   40.4420   80.0430   60.0380 S   0  0  0  0  0  0  0  0  0  0  0  0
   41.2440   78.9510   63.3960 H   0  0  0  0  0  0  0  0  0  0  0  0
   40.5110   77.0020   61.8880 H   0  0  0  0  0  0  0  0  0  0  0  0
   43.0440   83.1370   62.9030 C   0  0  0  0  0  0  0  0  0  0  0  0
   42.1360   83.8910   63.6950 C   0  0  0  0  0  0  0  0  0  0  0  0
   40.8150   83.4340   63.8250 C   0  0  0  0  0  0  0  0  0  0  0  0
   40.4700   82.2970   63.1880 N   0  0  0  0  0  0  0  0  0  0  0  0
   41.3640   81.5940   62.4330 C   0  0  0  0  0  0  0  0  0  0  0  0
   42.6210   82.0220   62.3050 N   0  0  0  0  0  0  0  0  0  0  0  0
   44.0660   83.4430   62.7710 H   0  0  0  0  0  0  0  0  0  0  0  0
   42.4820   84.7980   64.1810 H   0  0  0  0  0  0  0  0  0  0  0  0
   40.1080   83.9880   64.4200 H   0  0  0  0  0  0  0  0  0  0  0  0
   37.0350   77.4670   56.7680 C   0  0  0  0  0  0  0  0  0  0  0  0
   35.9430   77.0290   57.1540 O   0  0  0  0  0  0  0  0  0  0  0  0
   37.1190   78.3630   55.5550 C   0  0  1  0  0  0  0  0  0  0  0  0
   37.2960   79.8190   55.9140 C   0  0  0  0  0  0  0  0  0  0  0  0
   38.3510   79.0520   55.2460 C   0  0  2  0  0  0  0  0  0  0  0  0
   36.2320   78.2530   54.8630 H   0  0  0  0  0  0  0  0  0  0  0  0
   37.3560   80.0860   56.9960 H   0  0  0  0  0  0  0  0  0  0  0  0
   36.6820   80.5500   55.3550 H   0  0  0  0  0  0  0  0  0  0  0  0
   39.2290   78.7680   55.8990 H   0  0  0  0  0  0  0  0  0  0  0  0
   38.7400   79.5060   53.9160 C   0  0  0  0  0  0  0  0  0  0  0  0
   37.9420   79.7420   52.8550 C   0  0  0  0  0  0  0  0  0  0  0  0
   36.8500   79.5970   52.9170 H   0  0  0  0  0  0  0  0  0  0  0  0
   38.4840   80.1690   51.6680 C   0  0  0  0  0  3  0  0  0  0  0  0
   39.8510   80.3380   51.6300 C   0  0  0  0  0  3  0  0  0  0  0  0
   40.4020   79.8630   53.3820 S   0  0  0  0  0  0  0  0  0  0  0  0
  1 12  1  0  0  0  0
  2  1  1  0  0  0  0
  2  7  1  0  0  0  0
  3  2  2  0  0  0  0
  4  5  2  0  0  0  0
  4  3  1  0  0  0  0
  5  6  1  0  0  0  0
  6  1  2  0  0  0  0
  8  3  1  0  0  0  0
  9 10  2  0  0  0  0
  9 20  1  0  0  0  0
 10 14  1  0  0  0  0
 11 15  1  0  0  0  0
 11 10  1  0  0  0  0
 12 11  2  0  0  0  0
 13 12  1  0  0  0  0
 13  9  1  0  0  0  0
 16 17  1  0  0  0  0
 17 18  2  0  0  0  0
 17 23  1  0  0  0  0
 18 24  1  0  0  0  0
 19 18  1  0  0  0  0
 20 19  2  0  0  0  0
 21 20  1  0  0  0  0
 21 16  2  0  0  0  0
 22 16  1  0  0  0  0
 25 26  2  0  0  0  0
 25  5  1  0  0  0  0
 27 30  1  6  0  0  0
 27 28  1  0  0  0  0
 27 25  1  0  0  0  0
 28 31  1  0  0  0  0
 29 27  1  0  0  0  0
 29 33  1  1  0  0  0
 29 28  1  0  0  0  0
 32 28  1  0  0  0  0
 34 29  1  0  0  0  0
 35 36  1  0  0  0  0
 35 34  2  0  0  0  0
 37 35  1  0  0  0  0
 38 37  2  0  0  0  0
 38 39  1  0  0  0  0
 39 34  1  0  0  0  0
M  END
>  <minimizedAffinity>
-6.29344893

>  <minimizedRMSD>
0.292059213

$$$$
