
 OpenBabel03212520143D

 28 30  0  0  0  0  0  0  0  0999 V2000
   40.0870   72.4820   60.6730 Cl  0  0  0  0  0  0  0  0  0  0  0  0
   41.6960   72.5610   59.9820 C   0  0  0  0  0  0  0  0  0  0  0  0
   42.6010   71.5240   60.0920 C   0  0  0  0  0  0  0  0  0  0  0  0
   43.8270   71.7300   59.5010 C   0  0  0  0  0  0  0  0  0  0  0  0
   44.2130   72.8770   58.8170 C   0  0  0  0  0  0  0  0  0  0  0  0
   43.2730   73.8800   58.7350 C   0  0  0  0  0  0  0  0  0  0  0  0
   43.7340   75.3390   57.8850 Cl  0  0  0  0  0  0  0  0  0  0  0  0
   42.0370   73.7210   59.3090 C   0  0  0  0  0  0  0  0  0  0  0  0
   44.5730   70.9550   59.5560 H   0  0  0  0  0  0  0  0  0  0  0  0
   45.1920   72.9790   58.3720 H   0  0  0  0  0  0  0  0  0  0  0  0
   42.2000   70.1280   62.1710 C   0  0  0  0  0  0  0  0  0  0  0  0
   42.2300   70.3370   60.7880 C   0  0  0  0  0  0  0  0  0  0  0  0
   41.8400   69.2570   59.9560 C   0  0  0  0  0  0  0  0  0  0  0  0
   41.4670   68.1010   60.5590 N   0  0  0  0  0  0  0  0  0  0  0  0
   41.4510   67.9380   61.8970 C   0  0  0  0  0  0  0  0  0  0  0  0
   41.8200   68.9590   62.7000 N   0  0  0  0  0  0  0  0  0  0  0  0
   42.5020   70.9730   62.7630 H   0  0  0  0  0  0  0  0  0  0  0  0
   41.8380   69.3410   58.8770 H   0  0  0  0  0  0  0  0  0  0  0  0
   41.0120   66.5960   62.3810 C   0  0  0  0  0  0  0  0  0  0  0  0
   41.7210   66.1910   63.4870 F   0  0  0  0  0  0  0  0  0  0  0  0
   39.6760   66.6470   62.7290 F   0  0  0  0  0  0  0  0  0  0  0  0
   41.2230   65.6260   61.4110 F   0  0  0  0  0  0  0  0  0  0  0  0
   40.9780   74.8050   59.2410 C   0  0  0  0  0  0  0  0  0  0  0  0
   40.6970   75.7680   60.0460 C   0  0  0  0  0  0  0  0  0  0  0  0
   41.1500   76.0450   60.9800 H   0  0  0  0  0  0  0  0  0  0  0  0
   39.7230   76.6520   59.8360 C   0  0  0  0  0  3  0  0  0  0  0  0
   39.0060   76.4910   58.6890 C   0  0  0  0  0  3  0  0  0  0  0  0
   39.8610   74.9690   57.9610 S   0  0  0  0  0  0  0  0  0  0  0  0
  2  3  1  0  0  0  0
  2  1  1  0  0  0  0
  3 12  1  0  0  0  0
  4  9  1  0  0  0  0
  4  3  2  0  0  0  0
  5  4  1  0  0  0  0
  6  5  2  0  0  0  0
  6  8  1  0  0  0  0
  7  6  1  0  0  0  0
  8  2  2  0  0  0  0
 10  5  1  0  0  0  0
 11 16  1  0  0  0  0
 11 17  1  0  0  0  0
 12 11  2  0  0  0  0
 13 14  2  0  0  0  0
 13 12  1  0  0  0  0
 14 15  1  0  0  0  0
 15 19  1  0  0  0  0
 15 16  2  0  0  0  0
 18 13  1  0  0  0  0
 19 21  1  0  0  0  0
 19 20  1  0  0  0  0
 22 19  1  0  0  0  0
 23  8  1  0  0  0  0
 23 24  2  0  0  0  0
 24 25  1  0  0  0  0
 26 24  1  0  0  0  0
 27 26  2  0  0  0  0
 28 27  1  0  0  0  0
 28 23  1  0  0  0  0
M  END
>  <minimizedAffinity>
-5.48061943

$$$$

 OpenBabel03212520143D

 28 30  0  0  0  0  0  0  0  0999 V2000
   39.6720   72.3880   59.6530 Cl  0  0  0  0  0  0  0  0  0  0  0  0
   41.2560   73.1320   59.7600 C   0  0  0  0  0  0  0  0  0  0  0  0
   42.2910   72.5700   60.4790 C   0  0  0  0  0  0  0  0  0  0  0  0
   43.4770   73.2680   60.4730 C   0  0  0  0  0  0  0  0  0  0  0  0
   43.7040   74.4710   59.8130 C   0  0  0  0  0  0  0  0  0  0  0  0
   42.6400   74.9880   59.1110 C   0  0  0  0  0  0  0  0  0  0  0  0
   42.8950   76.5050   58.2740 Cl  0  0  0  0  0  0  0  0  0  0  0  0
   41.4370   74.3270   59.0870 C   0  0  0  0  0  0  0  0  0  0  0  0
   44.3200   72.8770   61.0180 H   0  0  0  0  0  0  0  0  0  0  0  0
   44.6610   74.9730   59.8460 H   0  0  0  0  0  0  0  0  0  0  0  0
   41.7370   71.1510   62.5070 C   0  0  0  0  0  0  0  0  0  0  0  0
   42.0840   71.3370   61.1640 C   0  0  0  0  0  0  0  0  0  0  0  0
   42.2470   70.1780   60.3640 C   0  0  0  0  0  0  0  0  0  0  0  0
   42.0540   68.9730   60.9570 N   0  0  0  0  0  0  0  0  0  0  0  0
   41.7200   68.8340   62.2550 C   0  0  0  0  0  0  0  0  0  0  0  0
   41.5620   69.9310   63.0280 N   0  0  0  0  0  0  0  0  0  0  0  0
   41.6230   72.0560   63.0750 H   0  0  0  0  0  0  0  0  0  0  0  0
   42.5150   70.2400   59.3180 H   0  0  0  0  0  0  0  0  0  0  0  0
   41.5500   67.4310   62.7340 C   0  0  0  0  0  0  0  0  0  0  0  0
   41.4390   66.5410   61.6910 F   0  0  0  0  0  0  0  0  0  0  0  0
   42.6490   67.0650   63.4870 F   0  0  0  0  0  0  0  0  0  0  0  0
   40.3870   67.2980   63.4790 F   0  0  0  0  0  0  0  0  0  0  0  0
   40.2420   74.8690   58.3240 C   0  0  0  0  0  0  0  0  0  0  0  0
   39.3330   75.7130   58.6630 C   0  0  0  0  0  0  0  0  0  0  0  0
   39.1930   76.2500   59.5830 H   0  0  0  0  0  0  0  0  0  0  0  0
   38.3370   76.0920   57.8630 C   0  0  0  0  0  3  0  0  0  0  0  0
   38.3180   75.5290   56.6230 C   0  0  0  0  0  3  0  0  0  0  0  0
   39.8470   74.4220   56.7250 S   0  0  0  0  0  0  0  0  0  0  0  0
  1  2  1  0  0  0  0
  2  3  1  0  0  0  0
  3 12  1  0  0  0  0
  4  3  2  0  0  0  0
  4  9  1  0  0  0  0
  5 10  1  0  0  0  0
  5  4  1  0  0  0  0
  6  5  2  0  0  0  0
  7  6  1  0  0  0  0
  8  6  1  0  0  0  0
  8  2  2  0  0  0  0
 11 16  1  0  0  0  0
 11 17  1  0  0  0  0
 12 11  2  0  0  0  0
 13 14  2  0  0  0  0
 13 12  1  0  0  0  0
 14 15  1  0  0  0  0
 15 19  1  0  0  0  0
 15 16  2  0  0  0  0
 18 13  1  0  0  0  0
 19 22  1  0  0  0  0
 19 21  1  0  0  0  0
 20 19  1  0  0  0  0
 23 24  2  0  0  0  0
 23  8  1  0  0  0  0
 24 25  1  0  0  0  0
 26 24  1  0  0  0  0
 27 28  1  0  0  0  0
 27 26  2  0  0  0  0
 28 23  1  0  0  0  0
M  END
>  <minimizedAffinity>
-5.45146418

$$$$

 OpenBabel03212520143D

 28 30  0  0  0  0  0  0  0  0999 V2000
   41.2070   70.7720   58.4180 Cl  0  0  0  0  0  0  0  0  0  0  0  0
   41.5040   71.2640   60.0740 C   0  0  0  0  0  0  0  0  0  0  0  0
   41.1860   72.5240   60.5400 C   0  0  0  0  0  0  0  0  0  0  0  0
   41.4790   72.7680   61.8620 C   0  0  0  0  0  0  0  0  0  0  0  0
   42.0580   71.8610   62.7440 C   0  0  0  0  0  0  0  0  0  0  0  0
   42.3550   70.6200   62.2290 C   0  0  0  0  0  0  0  0  0  0  0  0
   43.0900   69.4590   63.3140 Cl  0  0  0  0  0  0  0  0  0  0  0  0
   42.0810   70.3300   60.9160 C   0  0  0  0  0  0  0  0  0  0  0  0
   41.2530   73.7340   62.2810 H   0  0  0  0  0  0  0  0  0  0  0  0
   42.2630   72.1130   63.7740 H   0  0  0  0  0  0  0  0  0  0  0  0
   41.2360   74.3240   58.7540 C   0  0  0  0  0  0  0  0  0  0  0  0
   40.5910   73.4720   59.6570 C   0  0  0  0  0  0  0  0  0  0  0  0
   39.1760   73.5320   59.7150 C   0  0  0  0  0  0  0  0  0  0  0  0
   38.5490   74.4090   58.8920 N   0  0  0  0  0  0  0  0  0  0  0  0
   39.2050   75.2140   58.0340 C   0  0  0  0  0  0  0  0  0  0  0  0
   40.5540   75.1670   57.9700 N   0  0  0  0  0  0  0  0  0  0  0  0
   42.3080   74.2450   58.7430 H   0  0  0  0  0  0  0  0  0  0  0  0
   38.6060   72.9050   60.3880 H   0  0  0  0  0  0  0  0  0  0  0  0
   38.3500   76.1150   57.2070 C   0  0  0  0  0  0  0  0  0  0  0  0
   37.0560   75.6590   57.1200 F   0  0  0  0  0  0  0  0  0  0  0  0
   38.3180   77.3720   57.7790 F   0  0  0  0  0  0  0  0  0  0  0  0
   38.8210   76.1880   55.9040 F   0  0  0  0  0  0  0  0  0  0  0  0
   42.3960   68.9730   60.3140 C   0  0  0  0  0  0  0  0  0  0  0  0
   41.6790   67.9110   60.1960 C   0  0  0  0  0  0  0  0  0  0  0  0
   40.6670   67.7210   60.5010 H   0  0  0  0  0  0  0  0  0  0  0  0
   42.1080   66.7840   59.6290 C   0  0  0  0  0  3  0  0  0  0  0  0
   43.3870   66.8000   59.1610 C   0  0  0  0  0  3  0  0  0  0  0  0
   43.8960   68.5650   59.6100 S   0  0  0  0  0  0  0  0  0  0  0  0
  1  2  1  0  0  0  0
  2  3  2  0  0  0  0
  2  8  1  0  0  0  0
  3  4  1  0  0  0  0
  4  9  1  0  0  0  0
  4  5  2  0  0  0  0
  5 10  1  0  0  0  0
  6  5  1  0  0  0  0
  6  7  1  0  0  0  0
  8  6  2  0  0  0  0
 11 12  1  0  0  0  0
 12 13  2  0  0  0  0
 12  3  1  0  0  0  0
 13 18  1  0  0  0  0
 14 13  1  0  0  0  0
 15 14  2  0  0  0  0
 16 15  1  0  0  0  0
 16 11  2  0  0  0  0
 17 11  1  0  0  0  0
 19 21  1  0  0  0  0
 19 15  1  0  0  0  0
 20 19  1  0  0  0  0
 22 19  1  0  0  0  0
 23  8  1  0  0  0  0
 24 23  2  0  0  0  0
 24 25  1  0  0  0  0
 26 24  1  0  0  0  0
 27 28  1  0  0  0  0
 27 26  2  0  0  0  0
 28 23  1  0  0  0  0
M  END
>  <minimizedAffinity>
-5.44963646

$$$$

 OpenBabel03212520143D

 28 30  0  0  0  0  0  0  0  0999 V2000
   42.1280   71.3940   62.1290 Cl  0  0  0  0  0  0  0  0  0  0  0  0
   41.6650   70.7270   60.5760 C   0  0  0  0  0  0  0  0  0  0  0  0
   41.0440   71.4810   59.6010 C   0  0  0  0  0  0  0  0  0  0  0  0
   40.7380   70.8210   58.4330 C   0  0  0  0  0  0  0  0  0  0  0  0
   41.0010   69.4820   58.1680 C   0  0  0  0  0  0  0  0  0  0  0  0
   41.6220   68.7750   59.1730 C   0  0  0  0  0  0  0  0  0  0  0  0
   41.9610   67.0840   58.8690 Cl  0  0  0  0  0  0  0  0  0  0  0  0
   41.9470   69.3900   60.3550 C   0  0  0  0  0  0  0  0  0  0  0  0
   40.2520   71.3600   57.6370 H   0  0  0  0  0  0  0  0  0  0  0  0
   40.7360   69.0190   57.2280 H   0  0  0  0  0  0  0  0  0  0  0  0
   39.6390   73.4030   60.4760 C   0  0  0  0  0  0  0  0  0  0  0  0
   40.7630   72.8570   59.8480 C   0  0  0  0  0  0  0  0  0  0  0  0
   41.7640   73.7570   59.4020 C   0  0  0  0  0  0  0  0  0  0  0  0
   41.5600   75.0800   59.6160 N   0  0  0  0  0  0  0  0  0  0  0  0
   40.4610   75.5690   60.2250 C   0  0  0  0  0  0  0  0  0  0  0  0
   39.5010   74.7210   60.6540 N   0  0  0  0  0  0  0  0  0  0  0  0
   38.9060   72.6850   60.7980 H   0  0  0  0  0  0  0  0  0  0  0  0
   42.6620   73.4120   58.9080 H   0  0  0  0  0  0  0  0  0  0  0  0
   40.4080   77.0530   60.3730 C   0  0  0  0  0  0  0  0  0  0  0  0
   41.6410   77.6330   60.1860 F   0  0  0  0  0  0  0  0  0  0  0  0
   39.5460   77.5790   59.4310 F   0  0  0  0  0  0  0  0  0  0  0  0
   40.0040   77.4100   61.6520 F   0  0  0  0  0  0  0  0  0  0  0  0
   42.6300   68.6420   61.4850 C   0  0  0  0  0  0  0  0  0  0  0  0
   42.1690   68.1680   62.5880 C   0  0  0  0  0  0  0  0  0  0  0  0
   41.1730   68.1870   62.9880 H   0  0  0  0  0  0  0  0  0  0  0  0
   42.9120   67.5230   63.4870 C   0  0  0  0  0  3  0  0  0  0  0  0
   44.2310   67.3780   63.1800 C   0  0  0  0  0  3  0  0  0  0  0  0
   44.2910   68.2470   61.5020 S   0  0  0  0  0  0  0  0  0  0  0  0
  2  1  1  0  0  0  0
  3 12  1  0  0  0  0
  3  2  2  0  0  0  0
  4  3  1  0  0  0  0
  5  4  2  0  0  0  0
  5  6  1  0  0  0  0
  6  8  2  0  0  0  0
  7  6  1  0  0  0  0
  8  2  1  0  0  0  0
  8 23  1  0  0  0  0
  9  4  1  0  0  0  0
 10  5  1  0  0  0  0
 11 16  1  0  0  0  0
 11 17  1  0  0  0  0
 12 11  2  0  0  0  0
 13 14  2  0  0  0  0
 13 12  1  0  0  0  0
 14 15  1  0  0  0  0
 15 19  1  0  0  0  0
 15 16  2  0  0  0  0
 18 13  1  0  0  0  0
 19 22  1  0  0  0  0
 20 19  1  0  0  0  0
 21 19  1  0  0  0  0
 23 28  1  0  0  0  0
 23 24  2  0  0  0  0
 24 25  1  0  0  0  0
 24 26  1  0  0  0  0
 27 26  2  0  0  0  0
 28 27  1  0  0  0  0
M  END
>  <minimizedAffinity>
-5.43533087

$$$$

 OpenBabel03212520143D

 28 30  0  0  0  0  0  0  0  0999 V2000
   41.5310   71.5970   56.9940 Cl  0  0  0  0  0  0  0  0  0  0  0  0
   41.8660   70.6750   58.4470 C   0  0  0  0  0  0  0  0  0  0  0  0
   41.8010   71.2310   59.7090 C   0  0  0  0  0  0  0  0  0  0  0  0
   42.0920   70.3860   60.7550 C   0  0  0  0  0  0  0  0  0  0  0  0
   42.4380   69.0440   60.6390 C   0  0  0  0  0  0  0  0  0  0  0  0
   42.4880   68.5390   59.3590 C   0  0  0  0  0  0  0  0  0  0  0  0
   42.9280   66.8540   59.1810 Cl  0  0  0  0  0  0  0  0  0  0  0  0
   42.2060   69.3440   58.2840 C   0  0  0  0  0  0  0  0  0  0  0  0
   42.0570   70.7660   61.7620 H   0  0  0  0  0  0  0  0  0  0  0  0
   42.6550   68.4300   61.5010 H   0  0  0  0  0  0  0  0  0  0  0  0
   42.2640   73.7250   59.6690 C   0  0  0  0  0  0  0  0  0  0  0  0
   41.4470   72.6050   59.8550 C   0  0  0  0  0  0  0  0  0  0  0  0
   40.0980   72.8350   60.2250 C   0  0  0  0  0  0  0  0  0  0  0  0
   39.6970   74.1220   60.3720 N   0  0  0  0  0  0  0  0  0  0  0  0
   40.5150   75.1760   60.1840 C   0  0  0  0  0  0  0  0  0  0  0  0
   41.8030   74.9700   59.8310 N   0  0  0  0  0  0  0  0  0  0  0  0
   43.2780   73.5040   59.3890 H   0  0  0  0  0  0  0  0  0  0  0  0
   39.4040   72.0200   60.3880 H   0  0  0  0  0  0  0  0  0  0  0  0
   39.8990   76.5190   60.3910 C   0  0  0  0  0  0  0  0  0  0  0  0
   39.0910   76.8830   59.3400 F   0  0  0  0  0  0  0  0  0  0  0  0
   39.1230   76.4990   61.5340 F   0  0  0  0  0  0  0  0  0  0  0  0
   40.8740   77.5030   60.4860 F   0  0  0  0  0  0  0  0  0  0  0  0
   42.2530   68.8220   56.8600 C   0  0  0  0  0  0  0  0  0  0  0  0
   41.3420   68.2950   56.1210 C   0  0  0  0  0  0  0  0  0  0  0  0
   40.3090   68.0890   56.3330 H   0  0  0  0  0  0  0  0  0  0  0  0
   41.5460   67.8850   54.8690 C   0  0  0  0  0  3  0  0  0  0  0  0
   42.8070   68.0540   54.3830 C   0  0  0  0  0  3  0  0  0  0  0  0
   43.6500   68.8440   55.8800 S   0  0  0  0  0  0  0  0  0  0  0  0
  1  2  1  0  0  0  0
  2  3  1  0  0  0  0
  3 12  1  0  0  0  0
  3  4  2  0  0  0  0
  4  9  1  0  0  0  0
  5  4  1  0  0  0  0
  5 10  1  0  0  0  0
  6  5  2  0  0  0  0
  7  6  1  0  0  0  0
  8  2  2  0  0  0  0
  8  6  1  0  0  0  0
 11 16  2  0  0  0  0
 11 12  1  0  0  0  0
 12 13  2  0  0  0  0
 13 14  1  0  0  0  0
 13 18  1  0  0  0  0
 15 14  2  0  0  0  0
 15 19  1  0  0  0  0
 16 15  1  0  0  0  0
 17 11  1  0  0  0  0
 19 22  1  0  0  0  0
 19 21  1  0  0  0  0
 20 19  1  0  0  0  0
 23  8  1  0  0  0  0
 24 25  1  0  0  0  0
 24 23  2  0  0  0  0
 26 24  1  0  0  0  0
 27 26  2  0  0  0  0
 27 28  1  0  0  0  0
 28 23  1  0  0  0  0
M  END
>  <minimizedAffinity>
-5.20948458

$$$$

 OpenBabel03212520143D

 28 30  0  0  0  0  0  0  0  0999 V2000
   40.2920   72.2510   55.5560 Cl  0  0  0  0  0  0  0  0  0  0  0  0
   39.4780   73.5480   54.7030 C   0  0  0  0  0  0  0  0  0  0  0  0
   38.9020   74.6180   55.3570 C   0  0  0  0  0  0  0  0  0  0  0  0
   38.2970   75.5590   54.5550 C   0  0  0  0  0  0  0  0  0  0  0  0
   38.2250   75.5130   53.1670 C   0  0  0  0  0  0  0  0  0  0  0  0
   38.8150   74.4250   52.5640 C   0  0  0  0  0  0  0  0  0  0  0  0
   38.7340   74.3370   50.8170 Cl  0  0  0  0  0  0  0  0  0  0  0  0
   39.4310   73.4610   53.3220 C   0  0  0  0  0  0  0  0  0  0  0  0
   37.8310   76.4160   55.0110 H   0  0  0  0  0  0  0  0  0  0  0  0
   37.7350   76.2850   52.5910 H   0  0  0  0  0  0  0  0  0  0  0  0
   39.9700   75.2580   57.5660 C   0  0  0  0  0  0  0  0  0  0  0  0
   38.9630   74.6900   56.7790 C   0  0  0  0  0  0  0  0  0  0  0  0
   37.8540   74.1160   57.4510 C   0  0  0  0  0  0  0  0  0  0  0  0
   37.8490   74.1610   58.8070 N   0  0  0  0  0  0  0  0  0  0  0  0
   38.8390   74.7180   59.5310 C   0  0  0  0  0  0  0  0  0  0  0  0
   39.9010   75.2670   58.9020 N   0  0  0  0  0  0  0  0  0  0  0  0
   40.7910   75.6810   57.0160 H   0  0  0  0  0  0  0  0  0  0  0  0
   37.0360   73.6570   56.9120 H   0  0  0  0  0  0  0  0  0  0  0  0
   38.6620   74.6740   61.0120 C   0  0  0  0  0  0  0  0  0  0  0  0
   39.6130   73.8890   61.6210 F   0  0  0  0  0  0  0  0  0  0  0  0
   38.7750   75.9510   61.5280 F   0  0  0  0  0  0  0  0  0  0  0  0
   37.4340   74.1230   61.3490 F   0  0  0  0  0  0  0  0  0  0  0  0
   40.0910   72.2480   52.6930 C   0  0  0  0  0  0  0  0  0  0  0  0
   39.6240   71.0850   52.4020 C   0  0  0  0  0  0  0  0  0  0  0  0
   38.6390   70.6800   52.5370 H   0  0  0  0  0  0  0  0  0  0  0  0
   40.3450   70.1160   51.8390 C   0  0  0  0  0  3  0  0  0  0  0  0
   41.6460   70.4160   51.5720 C   0  0  0  0  0  3  0  0  0  0  0  0
   41.7240   72.1970   52.2010 S   0  0  0  0  0  0  0  0  0  0  0  0
  2  3  1  0  0  0  0
  2  1  1  0  0  0  0
  3 12  1  0  0  0  0
  4  9  1  0  0  0  0
  4  3  2  0  0  0  0
  5  4  1  0  0  0  0
  6  5  2  0  0  0  0
  6  8  1  0  0  0  0
  7  6  1  0  0  0  0
  8  2  2  0  0  0  0
 10  5  1  0  0  0  0
 11 16  1  0  0  0  0
 12 13  1  0  0  0  0
 12 11  2  0  0  0  0
 13 14  2  0  0  0  0
 14 15  1  0  0  0  0
 15 19  1  0  0  0  0
 16 15  2  0  0  0  0
 17 11  1  0  0  0  0
 18 13  1  0  0  0  0
 19 22  1  0  0  0  0
 19 21  1  0  0  0  0
 19 20  1  0  0  0  0
 23  8  1  0  0  0  0
 24 25  1  0  0  0  0
 24 23  2  0  0  0  0
 26 24  1  0  0  0  0
 27 26  2  0  0  0  0
 27 28  1  0  0  0  0
 28 23  1  0  0  0  0
M  END
>  <minimizedAffinity>
-5.13067913

$$$$

 OpenBabel03212520143D

 28 30  0  0  0  0  0  0  0  0999 V2000
   40.7310   71.7210   57.5660 Cl  0  0  0  0  0  0  0  0  0  0  0  0
   40.6750   72.3860   59.1870 C   0  0  0  0  0  0  0  0  0  0  0  0
   39.9590   73.5250   59.4950 C   0  0  0  0  0  0  0  0  0  0  0  0
   40.0100   73.9300   60.8100 C   0  0  0  0  0  0  0  0  0  0  0  0
   40.7120   73.2920   61.8260 C   0  0  0  0  0  0  0  0  0  0  0  0
   41.4090   72.1610   61.4660 C   0  0  0  0  0  0  0  0  0  0  0  0
   42.3080   71.3400   62.7240 Cl  0  0  0  0  0  0  0  0  0  0  0  0
   41.3880   71.7190   60.1670 C   0  0  0  0  0  0  0  0  0  0  0  0
   39.4700   74.8130   61.1080 H   0  0  0  0  0  0  0  0  0  0  0  0
   40.7120   73.6600   62.8430 H   0  0  0  0  0  0  0  0  0  0  0  0
   37.9290   73.9340   58.0320 C   0  0  0  0  0  0  0  0  0  0  0  0
   39.2300   74.1980   58.4710 C   0  0  0  0  0  0  0  0  0  0  0  0
   39.9280   75.2620   57.8460 C   0  0  0  0  0  0  0  0  0  0  0  0
   39.2840   75.9470   56.8690 N   0  0  0  0  0  0  0  0  0  0  0  0
   38.0280   75.6640   56.4730 C   0  0  0  0  0  0  0  0  0  0  0  0
   37.3530   74.6510   57.0600 N   0  0  0  0  0  0  0  0  0  0  0  0
   37.4380   73.1200   58.5330 H   0  0  0  0  0  0  0  0  0  0  0  0
   40.9370   75.5270   58.1310 H   0  0  0  0  0  0  0  0  0  0  0  0
   37.4820   76.5240   55.3830 C   0  0  0  0  0  0  0  0  0  0  0  0
   38.4380   77.3640   54.8620 F   0  0  0  0  0  0  0  0  0  0  0  0
   37.0160   75.7260   54.3560 F   0  0  0  0  0  0  0  0  0  0  0  0
   36.4670   77.3430   55.8580 F   0  0  0  0  0  0  0  0  0  0  0  0
   42.1450   70.4770   59.7330 C   0  0  0  0  0  0  0  0  0  0  0  0
   41.7810   69.2460   59.6580 C   0  0  0  0  0  0  0  0  0  0  0  0
   40.8380   68.7870   59.8890 H   0  0  0  0  0  0  0  0  0  0  0  0
   42.5770   68.2600   59.2460 C   0  0  0  0  0  3  0  0  0  0  0  0
   43.8430   68.6200   58.8940 C   0  0  0  0  0  3  0  0  0  0  0  0
   43.7700   70.4830   59.2090 S   0  0  0  0  0  0  0  0  0  0  0  0
  1  2  1  0  0  0  0
  2  3  2  0  0  0  0
  2  8  1  0  0  0  0
  3  4  1  0  0  0  0
  4  9  1  0  0  0  0
  4  5  2  0  0  0  0
  5 10  1  0  0  0  0
  6  5  1  0  0  0  0
  6  7  1  0  0  0  0
  8  6  2  0  0  0  0
 11 12  1  0  0  0  0
 11 17  1  0  0  0  0
 12  3  1  0  0  0  0
 13 18  1  0  0  0  0
 13 12  2  0  0  0  0
 14 13  1  0  0  0  0
 15 14  2  0  0  0  0
 15 16  1  0  0  0  0
 16 11  2  0  0  0  0
 19 22  1  0  0  0  0
 19 15  1  0  0  0  0
 20 19  1  0  0  0  0
 21 19  1  0  0  0  0
 23  8  1  0  0  0  0
 24 23  2  0  0  0  0
 24 25  1  0  0  0  0
 26 24  1  0  0  0  0
 27 28  1  0  0  0  0
 27 26  2  0  0  0  0
 28 23  1  0  0  0  0
M  END
>  <minimizedAffinity>
-5.04253912

$$$$

 OpenBabel03212520143D

 28 30  0  0  0  0  0  0  0  0999 V2000
   40.5020   70.9400   56.6500 Cl  0  0  0  0  0  0  0  0  0  0  0  0
   40.0180   71.9940   55.3350 C   0  0  0  0  0  0  0  0  0  0  0  0
   39.4640   73.2400   55.5500 C   0  0  0  0  0  0  0  0  0  0  0  0
   39.1320   73.9530   54.4210 C   0  0  0  0  0  0  0  0  0  0  0  0
   39.3080   73.5220   53.1100 C   0  0  0  0  0  0  0  0  0  0  0  0
   39.8640   72.2730   52.9520 C   0  0  0  0  0  0  0  0  0  0  0  0
   40.0920   71.7010   51.3130 Cl  0  0  0  0  0  0  0  0  0  0  0  0
   40.2120   71.5240   54.0480 C   0  0  0  0  0  0  0  0  0  0  0  0
   38.6960   74.9320   54.5280 H   0  0  0  0  0  0  0  0  0  0  0  0
   39.0270   74.1310   52.2630 H   0  0  0  0  0  0  0  0  0  0  0  0
   38.1440   73.5480   57.6930 C   0  0  0  0  0  0  0  0  0  0  0  0
   39.2740   73.7050   56.8840 C   0  0  0  0  0  0  0  0  0  0  0  0
   40.3810   74.3990   57.4350 C   0  0  0  0  0  0  0  0  0  0  0  0
   40.2650   74.8600   58.7050 N   0  0  0  0  0  0  0  0  0  0  0  0
   39.1580   74.6890   59.4550 C   0  0  0  0  0  0  0  0  0  0  0  0
   38.0970   74.0300   58.9400 N   0  0  0  0  0  0  0  0  0  0  0  0
   37.3300   73.0160   57.2360 H   0  0  0  0  0  0  0  0  0  0  0  0
   41.2900   74.5620   56.8710 H   0  0  0  0  0  0  0  0  0  0  0  0
   39.2110   75.2650   60.8300 C   0  0  0  0  0  0  0  0  0  0  0  0
   40.2550   74.7510   61.5630 F   0  0  0  0  0  0  0  0  0  0  0  0
   39.3840   76.6330   60.7500 F   0  0  0  0  0  0  0  0  0  0  0  0
   38.0570   74.9630   61.5390 F   0  0  0  0  0  0  0  0  0  0  0  0
   40.8250   70.1430   53.9110 C   0  0  0  0  0  0  0  0  0  0  0  0
   40.2830   68.9810   53.8120 C   0  0  0  0  0  0  0  0  0  0  0  0
   39.2470   68.6980   53.8040 H   0  0  0  0  0  0  0  0  0  0  0  0
   40.9730   67.8470   53.6930 C   0  0  0  0  0  3  0  0  0  0  0  0
   42.3290   67.9710   53.6790 C   0  0  0  0  0  3  0  0  0  0  0  0
   42.5050   69.8460   53.8520 S   0  0  0  0  0  0  0  0  0  0  0  0
  2  3  1  0  0  0  0
  2  1  1  0  0  0  0
  3 12  1  0  0  0  0
  4  9  1  0  0  0  0
  4  3  2  0  0  0  0
  5  4  1  0  0  0  0
  6  5  2  0  0  0  0
  6  8  1  0  0  0  0
  7  6  1  0  0  0  0
  8  2  2  0  0  0  0
 10  5  1  0  0  0  0
 11 16  1  0  0  0  0
 12 13  1  0  0  0  0
 12 11  2  0  0  0  0
 13 14  2  0  0  0  0
 14 15  1  0  0  0  0
 15 19  1  0  0  0  0
 16 15  2  0  0  0  0
 17 11  1  0  0  0  0
 18 13  1  0  0  0  0
 19 22  1  0  0  0  0
 19 20  1  0  0  0  0
 21 19  1  0  0  0  0
 23  8  1  0  0  0  0
 24 23  2  0  0  0  0
 25 24  1  0  0  0  0
 26 24  1  0  0  0  0
 27 26  2  0  0  0  0
 27 28  1  0  0  0  0
 28 23  1  0  0  0  0
M  END
>  <minimizedAffinity>
-5.03406477

$$$$

 OpenBabel03212520143D

 28 30  0  0  0  0  0  0  0  0999 V2000
   41.1650   71.7580   58.1170 Cl  0  0  0  0  0  0  0  0  0  0  0  0
   40.2210   73.2340   58.1330 C   0  0  0  0  0  0  0  0  0  0  0  0
   39.5650   73.7070   57.0150 C   0  0  0  0  0  0  0  0  0  0  0  0
   38.8650   74.8800   57.1780 C   0  0  0  0  0  0  0  0  0  0  0  0
   38.7710   75.6090   58.3590 C   0  0  0  0  0  0  0  0  0  0  0  0
   39.4420   75.0940   59.4450 C   0  0  0  0  0  0  0  0  0  0  0  0
   39.3470   75.9930   60.9440 Cl  0  0  0  0  0  0  0  0  0  0  0  0
   40.1550   73.9260   59.3300 C   0  0  0  0  0  0  0  0  0  0  0  0
   38.3330   75.2960   56.3390 H   0  0  0  0  0  0  0  0  0  0  0  0
   38.2030   76.5250   58.4250 H   0  0  0  0  0  0  0  0  0  0  0  0
   39.4070   71.6150   55.5890 C   0  0  0  0  0  0  0  0  0  0  0  0
   39.6450   72.9790   55.7920 C   0  0  0  0  0  0  0  0  0  0  0  0
   40.0010   73.7550   54.6600 C   0  0  0  0  0  0  0  0  0  0  0  0
   40.0860   73.1210   53.4640 N   0  0  0  0  0  0  0  0  0  0  0  0
   39.8480   71.8040   53.3080 C   0  0  0  0  0  0  0  0  0  0  0  0
   39.5080   71.0530   54.3790 N   0  0  0  0  0  0  0  0  0  0  0  0
   39.1390   71.0660   56.4740 H   0  0  0  0  0  0  0  0  0  0  0  0
   40.2010   74.8160   54.7360 H   0  0  0  0  0  0  0  0  0  0  0  0
   39.9900   71.2790   51.9180 C   0  0  0  0  0  0  0  0  0  0  0  0
   39.0870   71.8560   51.0560 F   0  0  0  0  0  0  0  0  0  0  0  0
   41.2590   71.5560   51.4490 F   0  0  0  0  0  0  0  0  0  0  0  0
   39.7450   69.9140   51.8760 F   0  0  0  0  0  0  0  0  0  0  0  0
   40.9080   73.3300   60.5050 C   0  0  0  0  0  0  0  0  0  0  0  0
   40.4920   72.7040   61.5480 C   0  0  0  0  0  0  0  0  0  0  0  0
   39.4950   72.4460   61.8500 H   0  0  0  0  0  0  0  0  0  0  0  0
   41.2970   72.2330   62.5010 C   0  0  0  0  0  3  0  0  0  0  0  0
   42.6290   72.4480   62.3200 C   0  0  0  0  0  3  0  0  0  0  0  0
   42.6060   73.3790   60.6740 S   0  0  0  0  0  0  0  0  0  0  0  0
  1  2  1  0  0  0  0
  2  8  1  0  0  0  0
  3  4  1  0  0  0  0
  3  2  2  0  0  0  0
  4  5  2  0  0  0  0
  5 10  1  0  0  0  0
  5  6  1  0  0  0  0
  6  7  1  0  0  0  0
  8  6  2  0  0  0  0
  8 23  1  0  0  0  0
  9  4  1  0  0  0  0
 11 12  1  0  0  0  0
 11 17  1  0  0  0  0
 12  3  1  0  0  0  0
 13 18  1  0  0  0  0
 13 12  2  0  0  0  0
 14 13  1  0  0  0  0
 15 14  2  0  0  0  0
 15 16  1  0  0  0  0
 16 11  2  0  0  0  0
 19 15  1  0  0  0  0
 20 19  1  0  0  0  0
 21 19  1  0  0  0  0
 22 19  1  0  0  0  0
 23 28  1  0  0  0  0
 23 24  2  0  0  0  0
 24 25  1  0  0  0  0
 24 26  1  0  0  0  0
 27 26  2  0  0  0  0
 28 27  1  0  0  0  0
M  END
>  <minimizedAffinity>
-5.02355909

$$$$
