
 OpenBabel03212521033D

 25 27  0  0  0  0  0  0  0  0999 V2000
   42.2580   84.2650   61.9880 C   0  0  0  0  0  0  0  0  0  0  0  0
   42.3360   84.8480   63.2460 C   0  0  0  0  0  0  0  0  0  0  0  0
   41.5350   84.4330   64.2820 C   0  0  0  0  0  0  0  0  0  0  0  0
   40.6200   83.4020   64.0720 C   0  0  0  0  0  0  0  0  0  0  0  0
   40.5410   82.8130   62.8030 C   0  0  0  0  0  0  0  0  0  0  0  0
   41.3500   83.2390   61.7710 C   0  0  0  0  0  0  0  0  0  0  0  0
   43.0560   85.6460   63.3750 H   0  0  0  0  0  0  0  0  0  0  0  0
   41.6090   84.9060   65.2730 H   0  0  0  0  0  0  0  0  0  0  0  0
   39.9710   83.0460   64.8640 H   0  0  0  0  0  0  0  0  0  0  0  0
   39.8200   82.0100   62.6610 H   0  0  0  0  0  0  0  0  0  0  0  0
   45.1670   84.7000   59.8110 C   0  0  0  0  0  0  0  0  0  0  0  0
   44.7220   85.6750   58.8930 C   0  0  0  0  0  0  0  0  0  0  0  0
   43.4240   86.1730   59.0310 C   0  0  0  0  0  0  0  0  0  0  0  0
   42.6970   85.6720   60.0480 N   0  0  0  0  0  0  0  0  0  0  0  0
   43.1270   84.7380   60.9240 C   0  0  0  0  0  0  0  0  0  0  0  0
   44.3670   84.2530   60.8040 N   0  0  0  0  0  0  0  0  0  0  0  0
   46.1700   84.3110   59.7100 H   0  0  0  0  0  0  0  0  0  0  0  0
   45.3730   86.0170   58.1140 H   0  0  0  0  0  0  0  0  0  0  0  0
   43.0410   86.9170   58.3550 H   0  0  0  0  0  0  0  0  0  0  0  0
   41.2320   82.5910   60.4510 C   0  0  0  0  0  0  0  0  0  0  0  0
   40.2840   82.8980   59.4730 C   0  0  0  0  0  0  0  0  0  0  0  0
   39.5520   83.6710   59.6590 H   0  0  0  0  0  0  0  0  0  0  0  0
   40.2990   82.2140   58.3000 C   0  0  0  0  0  3  0  0  0  0  0  0
   41.2810   81.2110   58.1150 C   0  0  0  0  0  3  0  0  0  0  0  0
   42.2380   81.2520   59.7130 S   0  0  0  0  0  0  0  0  0  0  0  0
  1  2  1  0  0  0  0
  2  7  1  0  0  0  0
  2  3  2  0  0  0  0
  3  8  1  0  0  0  0
  4  3  1  0  0  0  0
  4  9  1  0  0  0  0
  5  4  2  0  0  0  0
  6  1  2  0  0  0  0
  6  5  1  0  0  0  0
 10  5  1  0  0  0  0
 11 16  1  0  0  0  0
 12 13  1  0  0  0  0
 12 11  2  0  0  0  0
 13 14  2  0  0  0  0
 14 15  1  0  0  0  0
 15  1  1  0  0  0  0
 16 15  2  0  0  0  0
 17 11  1  0  0  0  0
 18 12  1  0  0  0  0
 19 13  1  0  0  0  0
 20  6  1  0  0  0  0
 21 22  1  0  0  0  0
 21 20  2  0  0  0  0
 23 21  1  0  0  0  0
 24 23  2  0  0  0  0
 24 25  1  0  0  0  0
 25 20  1  0  0  0  0
M  END
>  <minimizedAffinity>
-4.62194586

>  <minimizedRMSD>
1.9744612

$$$$
