
 OpenBabel03212519593D

 15 16  0  0  0  0  0  0  0  0999 V2000
   39.0650   77.6230   55.3960 C   0  0  0  0  0  0  0  0  0  0  0  0
   37.8050   77.4250   54.7740 C   0  0  0  0  0  0  0  0  0  0  0  0
   36.8300   76.6880   55.4790 C   0  0  0  0  0  0  0  0  0  0  0  0
   37.1640   76.2190   56.7080 N   0  0  0  0  0  0  0  0  0  0  0  0
   38.3790   76.4310   57.2680 C   0  0  0  0  0  0  0  0  0  0  0  0
   39.3290   77.1250   56.6280 N   0  0  0  0  0  0  0  0  0  0  0  0
   39.7790   78.1790   54.8420 H   0  0  0  0  0  0  0  0  0  0  0  0
   37.5650   77.8020   53.8090 H   0  0  0  0  0  0  0  0  0  0  0  0
   35.8550   76.4920   55.0860 H   0  0  0  0  0  0  0  0  0  0  0  0
   38.7080   75.9110   58.5950 C   0  0  0  0  0  0  0  0  0  0  0  0
   39.4600   76.6480   59.5610 C   0  0  0  0  0  0  0  0  0  0  0  0
   39.8260   77.6400   59.3500 H   0  0  0  0  0  0  0  0  0  0  0  0
   39.6990   76.0470   60.7660 C   0  0  0  0  0  3  0  0  0  0  0  0
   39.1980   74.7300   61.0070 C   0  0  0  0  0  3  0  0  0  0  0  0
   38.3270   74.3200   59.4120 S   0  0  0  0  0  0  0  0  0  0  0  0
  1  6  1  0  0  0  0
  2  1  2  0  0  0  0
  2  3  1  0  0  0  0
  3  4  2  0  0  0  0
  4  5  1  0  0  0  0
  5 10  1  0  0  0  0
  6  5  2  0  0  0  0
  7  1  1  0  0  0  0
  8  2  1  0  0  0  0
  9  3  1  0  0  0  0
 10 15  1  0  0  0  0
 10 11  2  0  0  0  0
 11 13  1  0  0  0  0
 12 11  1  0  0  0  0
 13 14  2  0  0  0  0
 15 14  1  0  0  0  0
M  END
>  <minimizedAffinity>
-3.86655712

$$$$

 OpenBabel03212519593D

 15 16  0  0  0  0  0  0  0  0999 V2000
   39.6300   76.3980   60.1610 C   0  0  0  0  0  0  0  0  0  0  0  0
   39.4130   75.1840   60.8620 C   0  0  0  0  0  0  0  0  0  0  0  0
   38.6160   74.1980   60.2430 C   0  0  0  0  0  0  0  0  0  0  0  0
   38.1110   74.4780   59.0150 N   0  0  0  0  0  0  0  0  0  0  0  0
   38.3420   75.6510   58.3780 C   0  0  0  0  0  0  0  0  0  0  0  0
   39.0920   76.6090   58.9360 N   0  0  0  0  0  0  0  0  0  0  0  0
   40.2310   77.1220   60.6510 H   0  0  0  0  0  0  0  0  0  0  0  0
   39.8190   74.9850   61.8250 H   0  0  0  0  0  0  0  0  0  0  0  0
   38.4020   73.2550   60.6980 H   0  0  0  0  0  0  0  0  0  0  0  0
   37.7810   75.9240   57.0540 C   0  0  0  0  0  0  0  0  0  0  0  0
   36.9240   75.0130   56.3640 C   0  0  0  0  0  0  0  0  0  0  0  0
   36.6470   74.0650   56.7960 H   0  0  0  0  0  0  0  0  0  0  0  0
   36.4670   75.3890   55.1310 C   0  0  0  0  0  3  0  0  0  0  0  0
   36.8570   76.6530   54.5920 C   0  0  0  0  0  3  0  0  0  0  0  0
   37.9480   77.3550   55.9290 S   0  0  0  0  0  0  0  0  0  0  0  0
  1  7  1  0  0  0  0
  1  2  1  0  0  0  0
  2  8  1  0  0  0  0
  3  9  1  0  0  0  0
  3  2  2  0  0  0  0
  4  3  1  0  0  0  0
  5  6  1  0  0  0  0
  5  4  2  0  0  0  0
  6  1  2  0  0  0  0
 10  5  1  0  0  0  0
 11 12  1  0  0  0  0
 11 10  2  0  0  0  0
 13 11  1  0  0  0  0
 14 13  2  0  0  0  0
 14 15  1  0  0  0  0
 15 10  1  0  0  0  0
M  END
>  <minimizedAffinity>
-3.82819295

$$$$

 OpenBabel03212519593D

 15 16  0  0  0  0  0  0  0  0999 V2000
   36.7480   75.3840   56.2420 C   0  0  0  0  0  0  0  0  0  0  0  0
   37.0320   76.6970   55.7860 C   0  0  0  0  0  0  0  0  0  0  0  0
   37.9900   77.4490   56.4990 C   0  0  0  0  0  0  0  0  0  0  0  0
   38.5760   76.8630   57.5740 N   0  0  0  0  0  0  0  0  0  0  0  0
   38.2750   75.6050   57.9770 C   0  0  0  0  0  0  0  0  0  0  0  0
   37.3720   74.8630   57.3250 N   0  0  0  0  0  0  0  0  0  0  0  0
   36.0230   74.8420   55.6880 H   0  0  0  0  0  0  0  0  0  0  0  0
   36.5610   77.1360   54.9400 H   0  0  0  0  0  0  0  0  0  0  0  0
   38.2660   78.4440   56.2250 H   0  0  0  0  0  0  0  0  0  0  0  0
   38.9240   75.0020   59.1420 C   0  0  0  0  0  0  0  0  0  0  0  0
   38.2170   74.2520   60.1310 C   0  0  0  0  0  0  0  0  0  0  0  0
   37.1530   74.0940   60.0620 H   0  0  0  0  0  0  0  0  0  0  0  0
   38.9420   73.7410   61.1720 C   0  0  0  0  0  3  0  0  0  0  0  0
   40.3510   73.9730   61.2280 C   0  0  0  0  0  3  0  0  0  0  0  0
   40.6660   74.9860   59.6970 S   0  0  0  0  0  0  0  0  0  0  0  0
  1  6  1  0  0  0  0
  2  1  2  0  0  0  0
  2  3  1  0  0  0  0
  3  4  2  0  0  0  0
  4  5  1  0  0  0  0
  5 10  1  0  0  0  0
  6  5  2  0  0  0  0
  7  1  1  0  0  0  0
  8  2  1  0  0  0  0
  9  3  1  0  0  0  0
 10 15  1  0  0  0  0
 10 11  2  0  0  0  0
 11 13  1  0  0  0  0
 12 11  1  0  0  0  0
 13 14  2  0  0  0  0
 15 14  1  0  0  0  0
M  END
>  <minimizedAffinity>
-3.81909323

$$$$

 OpenBabel03212519593D

 15 16  0  0  0  0  0  0  0  0999 V2000
   39.7620   73.5200   59.8320 C   0  0  0  0  0  0  0  0  0  0  0  0
   40.0420   74.2850   60.9930 C   0  0  0  0  0  0  0  0  0  0  0  0
   39.6710   75.6470   60.9910 C   0  0  0  0  0  0  0  0  0  0  0  0
   39.0700   76.1320   59.8750 N   0  0  0  0  0  0  0  0  0  0  0  0
   38.8200   75.3670   58.7850 C   0  0  0  0  0  0  0  0  0  0  0  0
   39.1580   74.0720   58.7530 N   0  0  0  0  0  0  0  0  0  0  0  0
   40.0530   72.5000   59.8610 H   0  0  0  0  0  0  0  0  0  0  0  0
   40.5140   73.8840   61.8580 H   0  0  0  0  0  0  0  0  0  0  0  0
   39.8430   76.2960   61.8220 H   0  0  0  0  0  0  0  0  0  0  0  0
   38.1710   75.9210   57.5970 C   0  0  0  0  0  0  0  0  0  0  0  0
   38.4280   77.2380   57.1070 C   0  0  0  0  0  0  0  0  0  0  0  0
   39.1250   77.8950   57.6000 H   0  0  0  0  0  0  0  0  0  0  0  0
   37.7550   77.6350   55.9840 C   0  0  0  0  0  3  0  0  0  0  0  0
   36.8380   76.7340   55.3580 C   0  0  0  0  0  3  0  0  0  0  0  0
   36.9420   75.2200   56.4390 S   0  0  0  0  0  0  0  0  0  0  0  0
  1  7  1  0  0  0  0
  1  2  1  0  0  0  0
  2  8  1  0  0  0  0
  3  2  2  0  0  0  0
  3  9  1  0  0  0  0
  4  3  1  0  0  0  0
  5  4  2  0  0  0  0
  6  5  1  0  0  0  0
  6  1  2  0  0  0  0
 10  5  1  0  0  0  0
 11 10  2  0  0  0  0
 11 12  1  0  0  0  0
 13 11  1  0  0  0  0
 14 13  2  0  0  0  0
 14 15  1  0  0  0  0
 15 10  1  0  0  0  0
M  END
>  <minimizedAffinity>
-3.71924114

$$$$

 OpenBabel03212519593D

 15 16  0  0  0  0  0  0  0  0999 V2000
   42.2940   70.2270   60.9080 C   0  0  0  0  0  0  0  0  0  0  0  0
   42.4160   69.8830   62.2790 C   0  0  0  0  0  0  0  0  0  0  0  0
   41.8360   70.7490   63.2300 C   0  0  0  0  0  0  0  0  0  0  0  0
   41.1980   71.8540   62.7680 N   0  0  0  0  0  0  0  0  0  0  0  0
   41.1030   72.1460   61.4480 C   0  0  0  0  0  0  0  0  0  0  0  0
   41.6420   71.3480   60.5180 N   0  0  0  0  0  0  0  0  0  0  0  0
   42.7410   69.5590   60.2150 H   0  0  0  0  0  0  0  0  0  0  0  0
   42.9210   69.0110   62.6190 H   0  0  0  0  0  0  0  0  0  0  0  0
   41.8790   70.5660   64.2830 H   0  0  0  0  0  0  0  0  0  0  0  0
   40.4080   73.3470   60.9820 C   0  0  0  0  0  0  0  0  0  0  0  0
   39.0380   73.6230   61.2770 C   0  0  0  0  0  0  0  0  0  0  0  0
   38.4430   72.9470   61.8680 H   0  0  0  0  0  0  0  0  0  0  0  0
   38.5080   74.7830   60.7800 C   0  0  0  0  0  3  0  0  0  0  0  0
   39.3300   75.6540   60.0010 C   0  0  0  0  0  3  0  0  0  0  0  0
   40.9670   74.7650   59.9730 S   0  0  0  0  0  0  0  0  0  0  0  0
  1  2  1  0  0  0  0
  2  8  1  0  0  0  0
  2  3  2  0  0  0  0
  3  9  1  0  0  0  0
  4  3  1  0  0  0  0
  5  4  2  0  0  0  0
  6  1  2  0  0  0  0
  6  5  1  0  0  0  0
  7  1  1  0  0  0  0
 10 11  2  0  0  0  0
 10  5  1  0  0  0  0
 11 12  1  0  0  0  0
 13 11  1  0  0  0  0
 14 13  2  0  0  0  0
 15 14  1  0  0  0  0
 15 10  1  0  0  0  0
M  END
>  <minimizedAffinity>
-3.64343047

$$$$

 OpenBabel03212519593D

 15 16  0  0  0  0  0  0  0  0999 V2000
   39.0970   75.4560   60.9430 C   0  0  0  0  0  0  0  0  0  0  0  0
   39.7240   76.3380   60.0250 C   0  0  0  0  0  0  0  0  0  0  0  0
   40.9680   75.9500   59.4830 C   0  0  0  0  0  0  0  0  0  0  0  0
   41.4810   74.7570   59.8790 N   0  0  0  0  0  0  0  0  0  0  0  0
   40.8500   73.9430   60.7580 C   0  0  0  0  0  0  0  0  0  0  0  0
   39.6690   74.2790   61.2920 N   0  0  0  0  0  0  0  0  0  0  0  0
   38.1630   75.7730   61.3350 H   0  0  0  0  0  0  0  0  0  0  0  0
   39.3030   77.2680   59.7290 H   0  0  0  0  0  0  0  0  0  0  0  0
   41.5090   76.5520   58.7850 H   0  0  0  0  0  0  0  0  0  0  0  0
   41.4300   72.6630   61.1650 C   0  0  0  0  0  0  0  0  0  0  0  0
   41.7130   72.3290   62.5250 C   0  0  0  0  0  0  0  0  0  0  0  0
   41.5070   73.0170   63.3280 H   0  0  0  0  0  0  0  0  0  0  0  0
   42.2560   71.0970   62.7710 C   0  0  0  0  0  3  0  0  0  0  0  0
   42.5140   70.2120   61.6790 C   0  0  0  0  0  3  0  0  0  0  0  0
   41.9460   71.1970   60.2030 S   0  0  0  0  0  0  0  0  0  0  0  0
  1  6  1  0  0  0  0
  1  7  1  0  0  0  0
  2  1  2  0  0  0  0
  3  4  2  0  0  0  0
  3  2  1  0  0  0  0
  4  5  1  0  0  0  0
  5 10  1  0  0  0  0
  5  6  2  0  0  0  0
  8  2  1  0  0  0  0
  9  3  1  0  0  0  0
 10 11  2  0  0  0  0
 11 13  1  0  0  0  0
 11 12  1  0  0  0  0
 14 13  2  0  0  0  0
 15 10  1  0  0  0  0
 15 14  1  0  0  0  0
M  END
>  <minimizedAffinity>
-3.59052777

$$$$

 OpenBabel03212519593D

 15 16  0  0  0  0  0  0  0  0999 V2000
   41.0520   72.2950   62.2970 C   0  0  0  0  0  0  0  0  0  0  0  0
   42.4540   72.1770   62.1170 C   0  0  0  0  0  0  0  0  0  0  0  0
   43.0510   72.9250   61.0800 C   0  0  0  0  0  0  0  0  0  0  0  0
   42.2400   73.7090   60.3230 N   0  0  0  0  0  0  0  0  0  0  0  0
   40.9040   73.7930   60.5280 C   0  0  0  0  0  0  0  0  0  0  0  0
   40.3040   73.0970   61.5020 N   0  0  0  0  0  0  0  0  0  0  0  0
   40.6300   71.7200   63.0830 H   0  0  0  0  0  0  0  0  0  0  0  0
   43.0710   71.5570   62.7220 H   0  0  0  0  0  0  0  0  0  0  0  0
   44.1000   72.8980   60.8740 H   0  0  0  0  0  0  0  0  0  0  0  0
   40.0570   74.6470   59.6940 C   0  0  0  0  0  0  0  0  0  0  0  0
   40.3050   76.0390   59.4940 C   0  0  0  0  0  0  0  0  0  0  0  0
   41.1430   76.5330   59.9580 H   0  0  0  0  0  0  0  0  0  0  0  0
   39.4370   76.7250   58.6890 C   0  0  0  0  0  3  0  0  0  0  0  0
   38.3370   76.0340   58.0930 C   0  0  0  0  0  3  0  0  0  0  0  0
   38.5530   74.2920   58.7180 S   0  0  0  0  0  0  0  0  0  0  0  0
  1  7  1  0  0  0  0
  2  1  1  0  0  0  0
  2  8  1  0  0  0  0
  3  2  2  0  0  0  0
  4  5  2  0  0  0  0
  4  3  1  0  0  0  0
  5  6  1  0  0  0  0
  6  1  2  0  0  0  0
  9  3  1  0  0  0  0
 10  5  1  0  0  0  0
 11 10  2  0  0  0  0
 11 12  1  0  0  0  0
 13 11  1  0  0  0  0
 14 13  2  0  0  0  0
 14 15  1  0  0  0  0
 15 10  1  0  0  0  0
M  END
>  <minimizedAffinity>
-3.56750131

$$$$

 OpenBabel03212519593D

 15 16  0  0  0  0  0  0  0  0999 V2000
   39.7040   76.4380   57.9070 C   0  0  0  0  0  0  0  0  0  0  0  0
   38.3890   76.0210   57.5790 C   0  0  0  0  0  0  0  0  0  0  0  0
   37.9040   74.8380   58.1770 C   0  0  0  0  0  0  0  0  0  0  0  0
   38.7320   74.1790   59.0270 N   0  0  0  0  0  0  0  0  0  0  0  0
   39.9830   74.6110   59.3140 C   0  0  0  0  0  0  0  0  0  0  0  0
   40.4760   75.7290   58.7650 N   0  0  0  0  0  0  0  0  0  0  0  0
   40.0430   77.3300   57.4420 H   0  0  0  0  0  0  0  0  0  0  0  0
   37.7560   76.5540   56.9100 H   0  0  0  0  0  0  0  0  0  0  0  0
   36.9250   74.4520   57.9880 H   0  0  0  0  0  0  0  0  0  0  0  0
   40.8510   73.8760   60.2340 C   0  0  0  0  0  0  0  0  0  0  0  0
   40.3740   73.2360   61.4180 C   0  0  0  0  0  0  0  0  0  0  0  0
   39.3320   73.2660   61.6920 H   0  0  0  0  0  0  0  0  0  0  0  0
   41.2910   72.5800   62.1940 C   0  0  0  0  0  3  0  0  0  0  0  0
   42.6630   72.5640   61.7970 C   0  0  0  0  0  3  0  0  0  0  0  0
   42.6490   73.5450   60.2130 S   0  0  0  0  0  0  0  0  0  0  0  0
  1  6  1  0  0  0  0
  2  1  2  0  0  0  0
  2  3  1  0  0  0  0
  3  4  2  0  0  0  0
  4  5  1  0  0  0  0
  5 10  1  0  0  0  0
  6  5  2  0  0  0  0
  7  1  1  0  0  0  0
  8  2  1  0  0  0  0
  9  3  1  0  0  0  0
 10 11  2  0  0  0  0
 11 12  1  0  0  0  0
 11 13  1  0  0  0  0
 14 13  2  0  0  0  0
 15 10  1  0  0  0  0
 15 14  1  0  0  0  0
M  END
>  <minimizedAffinity>
-3.33881116

$$$$

 OpenBabel03212519593D

 15 16  0  0  0  0  0  0  0  0999 V2000
   43.2010   71.6810   60.6560 C   0  0  0  0  0  0  0  0  0  0  0  0
   42.6630   72.6330   61.5600 C   0  0  0  0  0  0  0  0  0  0  0  0
   41.9030   72.1530   62.6480 C   0  0  0  0  0  0  0  0  0  0  0  0
   41.7380   70.8100   62.7550 N   0  0  0  0  0  0  0  0  0  0  0  0
   42.2690   69.9330   61.8690 C   0  0  0  0  0  0  0  0  0  0  0  0
   42.9950   70.3530   60.8250 N   0  0  0  0  0  0  0  0  0  0  0  0
   43.7670   72.0700   59.8470 H   0  0  0  0  0  0  0  0  0  0  0  0
   42.8060   73.6820   61.4570 H   0  0  0  0  0  0  0  0  0  0  0  0
   41.4620   72.7980   63.3770 H   0  0  0  0  0  0  0  0  0  0  0  0
   42.0710   68.4910   62.0120 C   0  0  0  0  0  0  0  0  0  0  0  0
   41.4390   67.6840   61.0160 C   0  0  0  0  0  0  0  0  0  0  0  0
   41.0720   68.1110   60.0970 H   0  0  0  0  0  0  0  0  0  0  0  0
   41.3170   66.3460   61.2730 C   0  0  0  0  0  3  0  0  0  0  0  0
   41.8160   65.8180   62.5040 C   0  0  0  0  0  3  0  0  0  0  0  0
   42.5070   67.3260   63.3520 S   0  0  0  0  0  0  0  0  0  0  0  0
  1  6  2  0  0  0  0
  1  2  1  0  0  0  0
  2  3  2  0  0  0  0
  3  4  1  0  0  0  0
  3  9  1  0  0  0  0
  5 10  1  0  0  0  0
  5  4  2  0  0  0  0
  6  5  1  0  0  0  0
  7  1  1  0  0  0  0
  8  2  1  0  0  0  0
 10 15  1  0  0  0  0
 11 13  1  0  0  0  0
 11 10  2  0  0  0  0
 12 11  1  0  0  0  0
 13 14  2  0  0  0  0
 14 15  1  0  0  0  0
M  END
>  <minimizedAffinity>
-3.32833719

$$$$
