
 OpenBabel03212521033D

 25 27  0  0  0  0  0  0  0  0999 V2000
   42.3950   84.4810   62.5000 C   0  0  0  0  0  0  0  0  0  0  0  0
   42.3170   84.5190   63.8860 C   0  0  0  0  0  0  0  0  0  0  0  0
   41.1660   84.1730   64.5510 C   0  0  0  0  0  0  0  0  0  0  0  0
   40.0460   83.7740   63.8220 C   0  0  0  0  0  0  0  0  0  0  0  0
   40.1240   83.7360   62.4240 C   0  0  0  0  0  0  0  0  0  0  0  0
   41.2850   84.0860   61.7690 C   0  0  0  0  0  0  0  0  0  0  0  0
   43.2040   84.8330   64.4200 H   0  0  0  0  0  0  0  0  0  0  0  0
   41.1210   84.2080   65.6500 H   0  0  0  0  0  0  0  0  0  0  0  0
   39.1190   83.4930   64.3110 H   0  0  0  0  0  0  0  0  0  0  0  0
   39.2380   83.4220   61.8750 H   0  0  0  0  0  0  0  0  0  0  0  0
   45.7240   84.2920   60.9910 C   0  0  0  0  0  0  0  0  0  0  0  0
   45.9590   85.6270   60.5970 C   0  0  0  0  0  0  0  0  0  0  0  0
   44.9710   86.5790   60.8540 C   0  0  0  0  0  0  0  0  0  0  0  0
   43.8580   86.1340   61.4670 N   0  0  0  0  0  0  0  0  0  0  0  0
   43.6360   84.8550   61.8420 C   0  0  0  0  0  0  0  0  0  0  0  0
   44.5730   83.9330   61.6020 N   0  0  0  0  0  0  0  0  0  0  0  0
   46.4840   83.5500   60.7950 H   0  0  0  0  0  0  0  0  0  0  0  0
   46.8790   85.8900   60.1130 H   0  0  0  0  0  0  0  0  0  0  0  0
   45.1060   87.6090   60.5710 H   0  0  0  0  0  0  0  0  0  0  0  0
   41.3220   84.0330   60.2940 C   0  0  0  0  0  0  0  0  0  0  0  0
   40.9250   85.0560   59.4300 C   0  0  0  0  0  0  0  0  0  0  0  0
   40.5520   85.9860   59.8360 H   0  0  0  0  0  0  0  0  0  0  0  0
   41.0180   84.8610   58.0890 C   0  0  0  0  0  3  0  0  0  0  0  0
   41.5150   83.6210   57.6180 C   0  0  0  0  0  3  0  0  0  0  0  0
   41.8710   82.6820   59.1880 S   0  0  0  0  0  0  0  0  0  0  0  0
  1  2  1  0  0  0  0
  2  7  1  0  0  0  0
  2  3  2  0  0  0  0
  3  8  1  0  0  0  0
  4  9  1  0  0  0  0
  4  3  1  0  0  0  0
  5  4  2  0  0  0  0
  6  5  1  0  0  0  0
  6  1  2  0  0  0  0
 10  5  1  0  0  0  0
 11 16  1  0  0  0  0
 12 13  1  0  0  0  0
 12 11  2  0  0  0  0
 13 14  2  0  0  0  0
 14 15  1  0  0  0  0
 15  1  1  0  0  0  0
 16 15  2  0  0  0  0
 17 11  1  0  0  0  0
 18 12  1  0  0  0  0
 19 13  1  0  0  0  0
 20  6  1  0  0  0  0
 21 22  1  0  0  0  0
 21 20  2  0  0  0  0
 23 21  1  0  0  0  0
 24 23  2  0  0  0  0
 24 25  1  0  0  0  0
 25 20  1  0  0  0  0
M  END
>  <minimizedAffinity>
-4.79065275

>  <minimizedRMSD>
2.3861742

$$$$
