
 OpenBabel03212521033D

 25 27  0  0  0  0  0  0  0  0999 V2000
   42.3660   84.4510   62.3450 C   0  0  0  0  0  0  0  0  0  0  0  0
   42.2230   84.5080   63.7250 C   0  0  0  0  0  0  0  0  0  0  0  0
   41.0510   84.1420   64.3420 C   0  0  0  0  0  0  0  0  0  0  0  0
   39.9770   83.7030   63.5690 C   0  0  0  0  0  0  0  0  0  0  0  0
   40.1210   83.6450   62.1770 C   0  0  0  0  0  0  0  0  0  0  0  0
   41.3010   84.0150   61.5700 C   0  0  0  0  0  0  0  0  0  0  0  0
   43.0760   84.8540   64.2940 H   0  0  0  0  0  0  0  0  0  0  0  0
   40.9540   84.1940   65.4370 H   0  0  0  0  0  0  0  0  0  0  0  0
   39.0350   83.4060   64.0190 H   0  0  0  0  0  0  0  0  0  0  0  0
   39.2690   83.3000   61.5930 H   0  0  0  0  0  0  0  0  0  0  0  0
   45.7420   84.3130   60.9390 C   0  0  0  0  0  0  0  0  0  0  0  0
   45.9870   85.6590   60.5930 C   0  0  0  0  0  0  0  0  0  0  0  0
   44.9870   86.6010   60.8460 C   0  0  0  0  0  0  0  0  0  0  0  0
   43.8560   86.1360   61.4090 N   0  0  0  0  0  0  0  0  0  0  0  0
   43.6260   84.8460   61.7390 C   0  0  0  0  0  0  0  0  0  0  0  0
   44.5740   83.9340   61.5030 N   0  0  0  0  0  0  0  0  0  0  0  0
   46.5110   83.5790   60.7460 H   0  0  0  0  0  0  0  0  0  0  0  0
   46.9200   85.9390   60.1480 H   0  0  0  0  0  0  0  0  0  0  0  0
   45.1290   87.6390   60.5990 H   0  0  0  0  0  0  0  0  0  0  0  0
   41.4080   83.9400   60.1000 C   0  0  0  0  0  0  0  0  0  0  0  0
   41.6640   82.7850   59.3580 C   0  0  0  0  0  0  0  0  0  0  0  0
   41.8020   81.8410   59.8660 H   0  0  0  0  0  0  0  0  0  0  0  0
   41.7330   82.8720   58.0050 C   0  0  0  0  0  3  0  0  0  0  0  0
   41.5440   84.1360   57.3970 C   0  0  0  0  0  3  0  0  0  0  0  0
   41.2480   85.2670   58.8480 S   0  0  0  0  0  0  0  0  0  0  0  0
  1  2  1  0  0  0  0
  2  7  1  0  0  0  0
  2  3  2  0  0  0  0
  3  8  1  0  0  0  0
  4  9  1  0  0  0  0
  4  3  1  0  0  0  0
  5  4  2  0  0  0  0
  6  5  1  0  0  0  0
  6  1  2  0  0  0  0
 10  5  1  0  0  0  0
 11 16  1  0  0  0  0
 12 13  1  0  0  0  0
 12 11  2  0  0  0  0
 13 14  2  0  0  0  0
 14 15  1  0  0  0  0
 15  1  1  0  0  0  0
 16 15  2  0  0  0  0
 17 11  1  0  0  0  0
 18 12  1  0  0  0  0
 19 13  1  0  0  0  0
 20  6  1  0  0  0  0
 21 22  1  0  0  0  0
 21 20  2  0  0  0  0
 23 21  1  0  0  0  0
 24 23  2  0  0  0  0
 24 25  1  0  0  0  0
 25 20  1  0  0  0  0
M  END
>  <minimizedAffinity>
-4.66213083

>  <minimizedRMSD>
2.39744997

$$$$
