
 OpenBabel03212521033D

 25 27  0  0  0  0  0  0  0  0999 V2000
   41.7860   84.2410   61.6070 C   0  0  0  0  0  0  0  0  0  0  0  0
   41.4210   83.9730   62.9190 C   0  0  0  0  0  0  0  0  0  0  0  0
   40.1440   83.5870   63.2460 C   0  0  0  0  0  0  0  0  0  0  0  0
   39.1870   83.4600   62.2400 C   0  0  0  0  0  0  0  0  0  0  0  0
   39.5540   83.7300   60.9150 C   0  0  0  0  0  0  0  0  0  0  0  0
   40.8390   84.1170   60.6010 C   0  0  0  0  0  0  0  0  0  0  0  0
   42.1880   84.0830   63.6750 H   0  0  0  0  0  0  0  0  0  0  0  0
   39.8710   83.3790   64.2920 H   0  0  0  0  0  0  0  0  0  0  0  0
   38.1680   83.1570   62.4580 H   0  0  0  0  0  0  0  0  0  0  0  0
   38.7910   83.6240   60.1460 H   0  0  0  0  0  0  0  0  0  0  0  0
   45.3280   84.1170   60.6980 C   0  0  0  0  0  0  0  0  0  0  0  0
   45.7110   85.4740   60.7640 C   0  0  0  0  0  0  0  0  0  0  0  0
   44.7460   86.4190   61.1200 C   0  0  0  0  0  0  0  0  0  0  0  0
   43.5120   85.9450   61.3750 N   0  0  0  0  0  0  0  0  0  0  0  0
   43.1500   84.6450   61.3100 C   0  0  0  0  0  0  0  0  0  0  0  0
   44.0630   83.7300   60.9710 N   0  0  0  0  0  0  0  0  0  0  0  0
   46.0700   83.3810   60.4230 H   0  0  0  0  0  0  0  0  0  0  0  0
   46.7200   85.7590   60.5450 H   0  0  0  0  0  0  0  0  0  0  0  0
   44.9920   87.4650   61.1840 H   0  0  0  0  0  0  0  0  0  0  0  0
   41.1810   84.3920   59.1920 C   0  0  0  0  0  0  0  0  0  0  0  0
   40.9510   85.5920   58.5160 C   0  0  0  0  0  0  0  0  0  0  0  0
   40.4820   86.4180   59.0330 H   0  0  0  0  0  0  0  0  0  0  0  0
   41.3220   85.6980   57.2130 C   0  0  0  0  0  0  0  0  0  0  0  0
   41.9310   84.5830   56.5900 C   0  0  0  0  0  0  0  0  0  0  0  0
   41.9750   83.3070   57.9490 S   0  0  0  0  0  0  0  0  0  0  0  0
  1  2  1  0  0  0  0
  2  3  2  0  0  0  0
  2  7  1  0  0  0  0
  3  8  1  0  0  0  0
  4  9  1  0  0  0  0
  4  3  1  0  0  0  0
  5  4  2  0  0  0  0
  6  5  1  0  0  0  0
  6  1  2  0  0  0  0
 10  5  1  0  0  0  0
 11 12  2  0  0  0  0
 11 16  1  0  0  0  0
 12 13  1  0  0  0  0
 13 19  1  0  0  0  0
 13 14  2  0  0  0  0
 15 14  1  0  0  0  0
 15  1  1  0  0  0  0
 16 15  2  0  0  0  0
 17 11  1  0  0  0  0
 18 12  1  0  0  0  0
 20  6  1  0  0  0  0
 21 22  1  0  0  0  0
 21 20  2  0  0  0  0
 23 21  1  0  0  0  0
 24 23  2  0  0  0  0
 24 25  1  0  0  0  0
 25 20  1  0  0  0  0
M  END
>  <minimizedAffinity>
-4.85637617

>  <minimizedRMSD>
2.60887742

$$$$
