
 OpenBabel03212521033D

 25 27  0  0  0  0  0  0  0  0999 V2000
   41.8180   84.2320   61.5850 C   0  0  0  0  0  0  0  0  0  0  0  0
   41.4350   84.0470   62.9070 C   0  0  0  0  0  0  0  0  0  0  0  0
   40.1630   83.6500   63.2390 C   0  0  0  0  0  0  0  0  0  0  0  0
   39.2290   83.4250   62.2280 C   0  0  0  0  0  0  0  0  0  0  0  0
   39.6140   83.6110   60.8940 C   0  0  0  0  0  0  0  0  0  0  0  0
   40.8930   84.0110   60.5740 C   0  0  0  0  0  0  0  0  0  0  0  0
   42.1840   84.2310   63.6660 H   0  0  0  0  0  0  0  0  0  0  0  0
   39.8760   83.5090   64.2920 H   0  0  0  0  0  0  0  0  0  0  0  0
   38.2150   83.1100   62.4490 H   0  0  0  0  0  0  0  0  0  0  0  0
   38.8680   83.4300   60.1210 H   0  0  0  0  0  0  0  0  0  0  0  0
   45.3580   84.1490   60.6610 C   0  0  0  0  0  0  0  0  0  0  0  0
   45.7260   85.5100   60.7310 C   0  0  0  0  0  0  0  0  0  0  0  0
   44.7530   86.4430   61.0940 C   0  0  0  0  0  0  0  0  0  0  0  0
   43.5250   85.9550   61.3530 N   0  0  0  0  0  0  0  0  0  0  0  0
   43.1760   84.6520   61.2840 C   0  0  0  0  0  0  0  0  0  0  0  0
   44.0970   83.7480   60.9380 N   0  0  0  0  0  0  0  0  0  0  0  0
   46.1050   83.4220   60.3800 H   0  0  0  0  0  0  0  0  0  0  0  0
   46.7310   85.8070   60.5080 H   0  0  0  0  0  0  0  0  0  0  0  0
   44.9870   87.4910   61.1610 H   0  0  0  0  0  0  0  0  0  0  0  0
   41.2550   84.1960   59.1560 C   0  0  0  0  0  0  0  0  0  0  0  0
   41.6100   83.1820   58.2630 C   0  0  0  0  0  0  0  0  0  0  0  0
   41.6350   82.1560   58.6010 H   0  0  0  0  0  0  0  0  0  0  0  0
   41.9190   83.5080   56.9820 C   0  0  0  0  0  3  0  0  0  0  0  0
   41.8690   84.8700   56.5990 C   0  0  0  0  0  3  0  0  0  0  0  0
   41.3500   85.7330   58.1660 S   0  0  0  0  0  0  0  0  0  0  0  0
  1  2  1  0  0  0  0
  2  3  2  0  0  0  0
  2  7  1  0  0  0  0
  3  8  1  0  0  0  0
  4  9  1  0  0  0  0
  4  3  1  0  0  0  0
  5  4  2  0  0  0  0
  6  5  1  0  0  0  0
  6  1  2  0  0  0  0
 10  5  1  0  0  0  0
 11 12  2  0  0  0  0
 11 16  1  0  0  0  0
 12 13  1  0  0  0  0
 13 19  1  0  0  0  0
 13 14  2  0  0  0  0
 15 14  1  0  0  0  0
 15  1  1  0  0  0  0
 16 15  2  0  0  0  0
 17 11  1  0  0  0  0
 18 12  1  0  0  0  0
 20  6  1  0  0  0  0
 21 22  1  0  0  0  0
 21 20  2  0  0  0  0
 23 21  1  0  0  0  0
 24 23  2  0  0  0  0
 24 25  1  0  0  0  0
 25 20  1  0  0  0  0
M  END
>  <minimizedAffinity>
-4.73478079

>  <minimizedRMSD>
2.60698128

$$$$
