
 OpenBabel03212521033D

 25 27  0  0  0  0  0  0  0  0999 V2000
   41.8180   84.2330   61.5850 C   0  0  0  0  0  0  0  0  0  0  0  0
   41.4350   84.0480   62.9070 C   0  0  0  0  0  0  0  0  0  0  0  0
   40.1630   83.6500   63.2380 C   0  0  0  0  0  0  0  0  0  0  0  0
   39.2290   83.4250   62.2270 C   0  0  0  0  0  0  0  0  0  0  0  0
   39.6150   83.6110   60.8930 C   0  0  0  0  0  0  0  0  0  0  0  0
   40.8940   84.0110   60.5740 C   0  0  0  0  0  0  0  0  0  0  0  0
   42.1840   84.2320   63.6660 H   0  0  0  0  0  0  0  0  0  0  0  0
   39.8760   83.5090   64.2910 H   0  0  0  0  0  0  0  0  0  0  0  0
   38.2150   83.1100   62.4490 H   0  0  0  0  0  0  0  0  0  0  0  0
   38.8690   83.4300   60.1210 H   0  0  0  0  0  0  0  0  0  0  0  0
   45.3590   84.1510   60.6620 C   0  0  0  0  0  0  0  0  0  0  0  0
   45.7260   85.5110   60.7310 C   0  0  0  0  0  0  0  0  0  0  0  0
   44.7520   86.4440   61.0930 C   0  0  0  0  0  0  0  0  0  0  0  0
   43.5240   85.9560   61.3510 N   0  0  0  0  0  0  0  0  0  0  0  0
   43.1760   84.6530   61.2840 C   0  0  0  0  0  0  0  0  0  0  0  0
   44.0980   83.7490   60.9390 N   0  0  0  0  0  0  0  0  0  0  0  0
   46.1070   83.4230   60.3830 H   0  0  0  0  0  0  0  0  0  0  0  0
   46.7310   85.8080   60.5080 H   0  0  0  0  0  0  0  0  0  0  0  0
   44.9860   87.4930   61.1580 H   0  0  0  0  0  0  0  0  0  0  0  0
   41.2560   84.1960   59.1560 C   0  0  0  0  0  0  0  0  0  0  0  0
   41.6120   83.1820   58.2640 C   0  0  0  0  0  0  0  0  0  0  0  0
   41.6360   82.1550   58.6020 H   0  0  0  0  0  0  0  0  0  0  0  0
   41.9200   83.5070   56.9820 C   0  0  0  0  0  3  0  0  0  0  0  0
   41.8700   84.8690   56.5980 C   0  0  0  0  0  3  0  0  0  0  0  0
   41.3500   85.7340   58.1660 S   0  0  0  0  0  0  0  0  0  0  0  0
  1  2  1  0  0  0  0
  2  3  2  0  0  0  0
  2  7  1  0  0  0  0
  3  8  1  0  0  0  0
  4  9  1  0  0  0  0
  4  3  1  0  0  0  0
  5  4  2  0  0  0  0
  6  5  1  0  0  0  0
  6  1  2  0  0  0  0
 10  5  1  0  0  0  0
 11 12  2  0  0  0  0
 11 16  1  0  0  0  0
 12 13  1  0  0  0  0
 13 19  1  0  0  0  0
 13 14  2  0  0  0  0
 15 14  1  0  0  0  0
 15  1  1  0  0  0  0
 16 15  2  0  0  0  0
 17 11  1  0  0  0  0
 18 12  1  0  0  0  0
 20  6  1  0  0  0  0
 21 22  1  0  0  0  0
 21 20  2  0  0  0  0
 23 21  1  0  0  0  0
 24 23  2  0  0  0  0
 24 25  1  0  0  0  0
 25 20  1  0  0  0  0
M  END
>  <minimizedAffinity>
-4.73437881

>  <minimizedRMSD>
2.61963797

$$$$
