
 OpenBabel03212521033D

 25 27  0  0  0  0  0  0  0  0999 V2000
   42.2000   84.2480   62.1640 C   0  0  0  0  0  0  0  0  0  0  0  0
   42.3950   84.7910   63.4270 C   0  0  0  0  0  0  0  0  0  0  0  0
   41.5430   84.5150   64.4680 C   0  0  0  0  0  0  0  0  0  0  0  0
   40.4540   83.6690   64.2570 C   0  0  0  0  0  0  0  0  0  0  0  0
   40.2570   83.1200   62.9830 C   0  0  0  0  0  0  0  0  0  0  0  0
   41.1190   83.4060   61.9470 C   0  0  0  0  0  0  0  0  0  0  0  0
   43.2490   85.4440   63.5550 H   0  0  0  0  0  0  0  0  0  0  0  0
   41.7110   84.9540   65.4620 H   0  0  0  0  0  0  0  0  0  0  0  0
   39.7590   83.4260   65.0540 H   0  0  0  0  0  0  0  0  0  0  0  0
   39.4010   82.4620   62.8420 H   0  0  0  0  0  0  0  0  0  0  0  0
   45.0340   84.0800   59.8550 C   0  0  0  0  0  0  0  0  0  0  0  0
   44.8530   85.2330   59.0610 C   0  0  0  0  0  0  0  0  0  0  0  0
   43.7570   86.0560   59.3270 C   0  0  0  0  0  0  0  0  0  0  0  0
   42.9540   85.6730   60.3370 N   0  0  0  0  0  0  0  0  0  0  0  0
   43.1300   84.5680   61.0940 C   0  0  0  0  0  0  0  0  0  0  0  0
   44.1750   83.7710   60.8510 N   0  0  0  0  0  0  0  0  0  0  0  0
   45.8800   83.4380   59.6550 H   0  0  0  0  0  0  0  0  0  0  0  0
   45.5470   85.4590   58.2760 H   0  0  0  0  0  0  0  0  0  0  0  0
   43.5790   86.9450   58.7470 H   0  0  0  0  0  0  0  0  0  0  0  0
   40.8730   82.8070   60.6210 C   0  0  0  0  0  0  0  0  0  0  0  0
   41.1280   81.4810   60.2630 C   0  0  0  0  0  0  0  0  0  0  0  0
   41.5420   80.7990   60.9920 H   0  0  0  0  0  0  0  0  0  0  0  0
   40.8480   81.0730   59.0000 C   0  0  0  0  0  3  0  0  0  0  0  0
   40.3060   82.0120   58.0880 C   0  0  0  0  0  3  0  0  0  0  0  0
   40.1910   83.5700   59.1040 S   0  0  0  0  0  0  0  0  0  0  0  0
  1  2  1  0  0  0  0
  2  7  1  0  0  0  0
  2  3  2  0  0  0  0
  3  8  1  0  0  0  0
  4  3  1  0  0  0  0
  4  9  1  0  0  0  0
  5  4  2  0  0  0  0
  6  1  2  0  0  0  0
  6  5  1  0  0  0  0
 10  5  1  0  0  0  0
 11 16  1  0  0  0  0
 12 13  1  0  0  0  0
 12 11  2  0  0  0  0
 13 14  2  0  0  0  0
 14 15  1  0  0  0  0
 15  1  1  0  0  0  0
 16 15  2  0  0  0  0
 17 11  1  0  0  0  0
 18 12  1  0  0  0  0
 19 13  1  0  0  0  0
 20  6  1  0  0  0  0
 21 20  2  0  0  0  0
 21 22  1  0  0  0  0
 23 21  1  0  0  0  0
 24 23  2  0  0  0  0
 24 25  1  0  0  0  0
 25 20  1  0  0  0  0
M  END
>  <minimizedAffinity>
-4.60619926

>  <minimizedRMSD>
1.73440516

$$$$
