
 OpenBabel03212519593D

 15 16  0  0  0  0  0  0  0  0999 V2000
   42.4490   84.9930   58.1060 C   0  0  0  0  0  0  0  0  0  0  0  0
   43.5040   85.9400   58.1450 C   0  0  0  0  0  0  0  0  0  0  0  0
   43.9670   86.3600   59.4100 C   0  0  0  0  0  0  0  0  0  0  0  0
   43.3680   85.8280   60.5060 N   0  0  0  0  0  0  0  0  0  0  0  0
   42.3620   84.9250   60.4260 C   0  0  0  0  0  0  0  0  0  0  0  0
   41.8980   84.5040   59.2420 N   0  0  0  0  0  0  0  0  0  0  0  0
   42.1210   84.6960   57.1410 H   0  0  0  0  0  0  0  0  0  0  0  0
   43.9590   86.3440   57.2730 H   0  0  0  0  0  0  0  0  0  0  0  0
   44.7570   87.0690   59.5330 H   0  0  0  0  0  0  0  0  0  0  0  0
   41.7370   84.3700   61.6270 C   0  0  0  0  0  0  0  0  0  0  0  0
   40.3490   84.0410   61.7070 C   0  0  0  0  0  0  0  0  0  0  0  0
   39.6880   84.1900   60.8700 H   0  0  0  0  0  0  0  0  0  0  0  0
   39.8900   83.5300   62.8910 C   0  0  0  0  0  3  0  0  0  0  0  0
   40.8000   83.3480   63.9780 C   0  0  0  0  0  3  0  0  0  0  0  0
   42.4160   83.9450   63.2700 S   0  0  0  0  0  0  0  0  0  0  0  0
  1  2  2  0  0  0  0
  1  6  1  0  0  0  0
  2  3  1  0  0  0  0
  3  9  1  0  0  0  0
  3  4  2  0  0  0  0
  5  4  1  0  0  0  0
  5 10  1  0  0  0  0
  6  5  2  0  0  0  0
  7  1  1  0  0  0  0
  8  2  1  0  0  0  0
 10 11  2  0  0  0  0
 10 15  1  0  0  0  0
 11 13  1  0  0  0  0
 12 11  1  0  0  0  0
 13 14  2  0  0  0  0
 15 14  1  0  0  0  0
M  END
>  <minimizedAffinity>
-3.37116718

>  <minimizedRMSD>
4.3581748

$$$$
