
 OpenBabel03212519593D

 15 16  0  0  0  0  0  0  0  0999 V2000
   41.3770   84.0350   62.7440 C   0  0  0  0  0  0  0  0  0  0  0  0
   40.0700   83.6490   63.1370 C   0  0  0  0  0  0  0  0  0  0  0  0
   39.1140   83.4310   62.1220 C   0  0  0  0  0  0  0  0  0  0  0  0
   39.5110   83.6070   60.8360 N   0  0  0  0  0  0  0  0  0  0  0  0
   40.7710   83.9770   60.5030 C   0  0  0  0  0  0  0  0  0  0  0  0
   41.7030   84.1930   61.4390 N   0  0  0  0  0  0  0  0  0  0  0  0
   42.0750   84.1930   63.5280 H   0  0  0  0  0  0  0  0  0  0  0  0
   39.7800   83.5160   64.1510 H   0  0  0  0  0  0  0  0  0  0  0  0
   38.1070   83.1370   62.3270 H   0  0  0  0  0  0  0  0  0  0  0  0
   41.1680   84.1600   59.1060 C   0  0  0  0  0  0  0  0  0  0  0  0
   41.4100   83.0720   58.2130 C   0  0  0  0  0  0  0  0  0  0  0  0
   41.3100   82.0480   58.5340 H   0  0  0  0  0  0  0  0  0  0  0  0
   41.7750   83.3790   56.9300 C   0  0  0  0  0  3  0  0  0  0  0  0
   41.8980   84.7490   56.5430 C   0  0  0  0  0  3  0  0  0  0  0  0
   41.4630   85.6630   58.1080 S   0  0  0  0  0  0  0  0  0  0  0  0
  1  2  1  0  0  0  0
  1  7  1  0  0  0  0
  2  8  1  0  0  0  0
  3  9  1  0  0  0  0
  3  2  2  0  0  0  0
  4  3  1  0  0  0  0
  5  4  2  0  0  0  0
  5  6  1  0  0  0  0
  6  1  2  0  0  0  0
 10  5  1  0  0  0  0
 11 12  1  0  0  0  0
 11 10  2  0  0  0  0
 13 11  1  0  0  0  0
 14 13  2  0  0  0  0
 14 15  1  0  0  0  0
 15 10  1  0  0  0  0
M  END
>  <minimizedAffinity>
-3.43397617

>  <minimizedRMSD>
5.80350304

$$$$
