
 OpenBabel03212519593D

 15 16  0  0  0  0  0  0  0  0999 V2000
   42.0090   85.7540   58.2910 C   0  0  0  0  0  0  0  0  0  0  0  0
   43.0250   86.5800   58.8350 C   0  0  0  0  0  0  0  0  0  0  0  0
   43.5790   86.2120   60.0800 C   0  0  0  0  0  0  0  0  0  0  0  0
   43.0990   85.0890   60.6730 N   0  0  0  0  0  0  0  0  0  0  0  0
   42.1260   84.3260   60.1200 C   0  0  0  0  0  0  0  0  0  0  0  0
   41.5780   84.6460   58.9410 N   0  0  0  0  0  0  0  0  0  0  0  0
   41.6100   86.0550   57.3550 H   0  0  0  0  0  0  0  0  0  0  0  0
   43.3860   87.4560   58.3530 H   0  0  0  0  0  0  0  0  0  0  0  0
   44.3480   86.7760   60.5620 H   0  0  0  0  0  0  0  0  0  0  0  0
   41.6300   83.1220   60.7860 C   0  0  0  0  0  0  0  0  0  0  0  0
   40.3300   82.5780   60.5540 C   0  0  0  0  0  0  0  0  0  0  0  0
   39.6420   83.0390   59.8650 H   0  0  0  0  0  0  0  0  0  0  0  0
   39.9890   81.4450   61.2430 C   0  0  0  0  0  3  0  0  0  0  0  0
   40.9290   80.8630   62.1490 C   0  0  0  0  0  3  0  0  0  0  0  0
   42.3960   82.0030   62.0110 S   0  0  0  0  0  0  0  0  0  0  0  0
  1  2  2  0  0  0  0
  1  6  1  0  0  0  0
  2  3  1  0  0  0  0
  3  9  1  0  0  0  0
  3  4  2  0  0  0  0
  5  4  1  0  0  0  0
  5 10  1  0  0  0  0
  6  5  2  0  0  0  0
  7  1  1  0  0  0  0
  8  2  1  0  0  0  0
 10 15  1  0  0  0  0
 11 10  2  0  0  0  0
 11 13  1  0  0  0  0
 12 11  1  0  0  0  0
 13 14  2  0  0  0  0
 15 14  1  0  0  0  0
M  END
>  <minimizedAffinity>
-3.07868385

>  <minimizedRMSD>
4.89435101

$$$$
