
 OpenBabel03212519593D

 15 16  0  0  0  0  0  0  0  0999 V2000
   40.3890   82.9480   58.8260 C   0  0  0  0  0  0  0  0  0  0  0  0
   40.1330   81.6950   58.2110 C   0  0  0  0  0  0  0  0  0  0  0  0
   40.8640   80.5760   58.6650 C   0  0  0  0  0  0  0  0  0  0  0  0
   41.7640   80.7760   59.6610 N   0  0  0  0  0  0  0  0  0  0  0  0
   41.9790   81.9900   60.2220 C   0  0  0  0  0  0  0  0  0  0  0  0
   41.3050   83.0730   59.8160 N   0  0  0  0  0  0  0  0  0  0  0  0
   39.8270   83.7710   58.4640 H   0  0  0  0  0  0  0  0  0  0  0  0
   39.4230   81.5610   57.4320 H   0  0  0  0  0  0  0  0  0  0  0  0
   40.7350   79.5960   58.2600 H   0  0  0  0  0  0  0  0  0  0  0  0
   42.9580   82.1720   61.2940 C   0  0  0  0  0  0  0  0  0  0  0  0
   43.8600   81.1470   61.7130 C   0  0  0  0  0  0  0  0  0  0  0  0
   43.8610   80.1750   61.2500 H   0  0  0  0  0  0  0  0  0  0  0  0
   44.7270   81.4480   62.7300 C   0  0  0  0  0  3  0  0  0  0  0  0
   44.6950   82.7500   63.3190 C   0  0  0  0  0  3  0  0  0  0  0  0
   43.3420   83.6040   62.3640 S   0  0  0  0  0  0  0  0  0  0  0  0
  1  6  1  0  0  0  0
  2  3  1  0  0  0  0
  2  1  2  0  0  0  0
  3  4  2  0  0  0  0
  4  5  1  0  0  0  0
  5 10  1  0  0  0  0
  6  5  2  0  0  0  0
  7  1  1  0  0  0  0
  8  2  1  0  0  0  0
  9  3  1  0  0  0  0
 10 11  2  0  0  0  0
 10 15  1  0  0  0  0
 11 13  1  0  0  0  0
 12 11  1  0  0  0  0
 13 14  2  0  0  0  0
 15 14  1  0  0  0  0
M  END
>  <minimizedAffinity>
-2.65476608

>  <minimizedRMSD>
5.55013132

$$$$
