
 OpenBabel03212519593D

 15 16  0  0  0  0  0  0  0  0999 V2000
   40.5690   82.1580   60.1740 C   0  0  0  0  0  0  0  0  0  0  0  0
   39.7410   82.2180   61.3240 C   0  0  0  0  0  0  0  0  0  0  0  0
   39.8990   83.3180   62.1930 C   0  0  0  0  0  0  0  0  0  0  0  0
   40.8350   84.2460   61.8690 N   0  0  0  0  0  0  0  0  0  0  0  0
   41.6070   84.1520   60.7600 C   0  0  0  0  0  0  0  0  0  0  0  0
   41.4840   83.1220   59.9130 N   0  0  0  0  0  0  0  0  0  0  0  0
   40.4300   81.3200   59.5380 H   0  0  0  0  0  0  0  0  0  0  0  0
   39.0130   81.4790   61.5590 H   0  0  0  0  0  0  0  0  0  0  0  0
   39.3170   83.4440   63.0810 H   0  0  0  0  0  0  0  0  0  0  0  0
   42.6080   85.1700   60.4380 C   0  0  0  0  0  0  0  0  0  0  0  0
   42.6810   85.8230   59.1700 C   0  0  0  0  0  0  0  0  0  0  0  0
   41.9890   85.5910   58.3790 H   0  0  0  0  0  0  0  0  0  0  0  0
   43.6660   86.7580   58.9990 C   0  0  0  0  0  3  0  0  0  0  0  0
   44.5650   87.0380   60.0740 C   0  0  0  0  0  3  0  0  0  0  0  0
   43.9690   85.8940   61.4200 S   0  0  0  0  0  0  0  0  0  0  0  0
  1  2  1  0  0  0  0
  2  8  1  0  0  0  0
  2  3  2  0  0  0  0
  3  9  1  0  0  0  0
  4  3  1  0  0  0  0
  5  4  2  0  0  0  0
  6  1  2  0  0  0  0
  6  5  1  0  0  0  0
  7  1  1  0  0  0  0
 10  5  1  0  0  0  0
 10 15  1  0  0  0  0
 11 10  2  0  0  0  0
 12 11  1  0  0  0  0
 13 11  1  0  0  0  0
 13 14  2  0  0  0  0
 14 15  1  0  0  0  0
M  END
>  <minimizedAffinity>
-3.25481749

>  <minimizedRMSD>
5.65361452

$$$$
