
 OpenBabel03212520553D

 32 35  0  0  0  0  0  0  0  0999 V2000
   40.9490   80.1650   61.6480 C   0  0  0  0  0  0  0  0  0  0  0  0
   40.8900   78.9330   62.2710 C   0  0  0  0  0  0  0  0  0  0  0  0
   40.4910   77.8690   61.5460 C   0  0  0  0  0  0  0  0  0  0  0  0
   40.1520   78.0410   60.2090 C   0  0  0  0  0  0  0  0  0  0  0  0
   40.4200   79.8580   59.9400 S   0  0  0  0  0  0  0  0  0  0  0  0
   41.1540   78.7990   63.3170 H   0  0  0  0  0  0  0  0  0  0  0  0
   40.3790   76.8360   61.8450 H   0  0  0  0  0  0  0  0  0  0  0  0
   43.0860   82.9380   62.7430 C   0  0  0  0  0  0  0  0  0  0  0  0
   42.1930   83.7240   63.5390 C   0  0  0  0  0  0  0  0  0  0  0  0
   40.8710   83.2940   63.6890 C   0  0  0  0  0  0  0  0  0  0  0  0
   40.5170   82.1460   63.0630 N   0  0  0  0  0  0  0  0  0  0  0  0
   41.3750   81.4240   62.3200 C   0  0  0  0  0  0  0  0  0  0  0  0
   42.6300   81.8160   62.1660 N   0  0  0  0  0  0  0  0  0  0  0  0
   44.1170   83.2300   62.5980 H   0  0  0  0  0  0  0  0  0  0  0  0
   42.5490   84.6180   64.0010 H   0  0  0  0  0  0  0  0  0  0  0  0
   40.1660   83.8560   64.2810 H   0  0  0  0  0  0  0  0  0  0  0  0
   39.6950   77.2060   59.1300 C   0  0  0  0  0  0  0  0  0  0  0  0
   40.3590   76.0610   58.8530 C   0  0  0  0  0  0  0  0  0  0  0  0
   39.7990   75.3520   57.7760 C   0  0  0  0  0  0  0  0  0  0  0  0
   38.7180   75.7560   57.0860 N   0  0  0  0  0  0  0  0  0  0  0  0
   38.1200   76.9170   57.4380 C   0  0  0  0  0  0  0  0  0  0  0  0
   38.6140   77.6490   58.4690 N   0  0  0  0  0  0  0  0  0  0  0  0
   41.2320   75.6810   59.3680 H   0  0  0  0  0  0  0  0  0  0  0  0
   40.2280   74.4080   57.4380 H   0  0  0  0  0  0  0  0  0  0  0  0
   36.9570   77.3510   56.6970 C   0  0  0  0  0  0  0  0  0  0  0  0
   35.8360   77.1220   57.1930 O   0  0  0  0  0  0  0  0  0  0  0  0
   37.0860   78.0470   55.3920 C   0  0  0  0  0  0  0  0  0  0  0  0
   36.8770   77.6270   54.1630 C   0  0  0  0  0  0  0  0  0  0  0  0
   36.5520   76.6010   54.0140 H   0  0  0  0  0  0  0  0  0  0  0  0
   37.0780   78.5020   53.1250 C   0  0  0  0  0  3  0  0  0  0  0  0
   37.4880   79.7670   53.4160 C   0  0  0  0  0  3  0  0  0  0  0  0
   37.5890   79.7070   55.2700 S   0  0  0  0  0  0  0  0  0  0  0  0
  1  2  2  0  0  0  0
  1 12  1  0  0  0  0
  2  6  1  0  0  0  0
  3  7  1  0  0  0  0
  3  2  1  0  0  0  0
  4  3  2  0  0  0  0
  5  4  1  0  0  0  0
  5  1  1  0  0  0  0
  8  9  1  0  0  0  0
  9 10  2  0  0  0  0
  9 15  1  0  0  0  0
 10 16  1  0  0  0  0
 11 10  1  0  0  0  0
 12 11  2  0  0  0  0
 13 12  1  0  0  0  0
 13  8  2  0  0  0  0
 14  8  1  0  0  0  0
 17  4  1  0  0  0  0
 18 17  1  0  0  0  0
 18 23  1  0  0  0  0
 19 18  2  0  0  0  0
 20 21  2  0  0  0  0
 20 19  1  0  0  0  0
 21 22  1  0  0  0  0
 22 17  2  0  0  0  0
 24 19  1  0  0  0  0
 25 26  2  0  0  0  0
 25 21  1  0  0  0  0
 27 25  1  0  0  0  0
 28 27  2  0  0  0  0
 29 28  1  0  0  0  0
 30 31  2  0  0  0  0
 30 28  1  0  0  0  0
 31 32  1  0  0  0  0
 32 27  1  0  0  0  0
M  END
>  <minimizedAffinity>
-6.32744551

>  <minimizedRMSD>
0.534077048

$$$$
