
 OpenBabel03212520553D

 32 35  0  0  0  0  0  0  0  0999 V2000
   40.9530   80.1700   61.6610 C   0  0  0  0  0  0  0  0  0  0  0  0
   40.8940   78.9400   62.2870 C   0  0  0  0  0  0  0  0  0  0  0  0
   40.4990   77.8720   61.5650 C   0  0  0  0  0  0  0  0  0  0  0  0
   40.1650   78.0390   60.2260 C   0  0  0  0  0  0  0  0  0  0  0  0
   40.4300   79.8570   59.9520 S   0  0  0  0  0  0  0  0  0  0  0  0
   41.1540   78.8090   63.3350 H   0  0  0  0  0  0  0  0  0  0  0  0
   40.3880   76.8410   61.8660 H   0  0  0  0  0  0  0  0  0  0  0  0
   43.0790   82.9530   62.7510 C   0  0  0  0  0  0  0  0  0  0  0  0
   42.1840   83.7360   63.5450 C   0  0  0  0  0  0  0  0  0  0  0  0
   40.8630   83.3020   63.6960 C   0  0  0  0  0  0  0  0  0  0  0  0
   40.5130   82.1520   63.0720 N   0  0  0  0  0  0  0  0  0  0  0  0
   41.3740   81.4310   62.3300 C   0  0  0  0  0  0  0  0  0  0  0  0
   42.6270   81.8280   62.1750 N   0  0  0  0  0  0  0  0  0  0  0  0
   44.1090   83.2490   62.6050 H   0  0  0  0  0  0  0  0  0  0  0  0
   42.5370   84.6330   64.0050 H   0  0  0  0  0  0  0  0  0  0  0  0
   40.1570   83.8630   64.2870 H   0  0  0  0  0  0  0  0  0  0  0  0
   39.7130   77.2010   59.1480 C   0  0  0  0  0  0  0  0  0  0  0  0
   40.3900   76.0640   58.8660 C   0  0  0  0  0  0  0  0  0  0  0  0
   39.8320   75.3490   57.7920 C   0  0  0  0  0  0  0  0  0  0  0  0
   38.7440   75.7420   57.1060 N   0  0  0  0  0  0  0  0  0  0  0  0
   38.1340   76.8950   57.4620 C   0  0  0  0  0  0  0  0  0  0  0  0
   38.6230   77.6320   58.4920 N   0  0  0  0  0  0  0  0  0  0  0  0
   41.2690   75.6940   59.3770 H   0  0  0  0  0  0  0  0  0  0  0  0
   40.2720   74.4120   57.4500 H   0  0  0  0  0  0  0  0  0  0  0  0
   36.9630   77.3160   56.7270 C   0  0  0  0  0  0  0  0  0  0  0  0
   35.8460   77.0190   57.1970 O   0  0  0  0  0  0  0  0  0  0  0  0
   37.0780   78.0770   55.4580 C   0  0  0  0  0  0  0  0  0  0  0  0
   37.4710   79.3110   55.2210 C   0  0  0  0  0  0  0  0  0  0  0  0
   37.7730   79.9290   56.0610 H   0  0  0  0  0  0  0  0  0  0  0  0
   37.4780   79.7610   53.9240 C   0  0  0  0  0  3  0  0  0  0  0  0
   37.0810   78.9090   52.9410 C   0  0  0  0  0  3  0  0  0  0  0  0
   36.6710   77.3790   53.9170 S   0  0  0  0  0  0  0  0  0  0  0  0
  1  2  2  0  0  0  0
  1 12  1  0  0  0  0
  2  6  1  0  0  0  0
  3  7  1  0  0  0  0
  3  2  1  0  0  0  0
  4  3  2  0  0  0  0
  5  4  1  0  0  0  0
  5  1  1  0  0  0  0
  8  9  1  0  0  0  0
  9 10  2  0  0  0  0
  9 15  1  0  0  0  0
 10 16  1  0  0  0  0
 11 10  1  0  0  0  0
 12 11  2  0  0  0  0
 13 12  1  0  0  0  0
 13  8  2  0  0  0  0
 14  8  1  0  0  0  0
 17  4  1  0  0  0  0
 18 17  1  0  0  0  0
 18 23  1  0  0  0  0
 19 18  2  0  0  0  0
 20 21  2  0  0  0  0
 20 19  1  0  0  0  0
 21 22  1  0  0  0  0
 22 17  2  0  0  0  0
 24 19  1  0  0  0  0
 25 26  2  0  0  0  0
 25 21  1  0  0  0  0
 27 25  1  0  0  0  0
 28 27  2  0  0  0  0
 28 29  1  0  0  0  0
 30 28  1  0  0  0  0
 31 32  1  0  0  0  0
 31 30  2  0  0  0  0
 32 27  1  0  0  0  0
M  END
>  <minimizedAffinity>
-6.45206881

>  <minimizedRMSD>
0.599682987

$$$$
