
 OpenBabel03212520553D

 32 35  0  0  0  0  0  0  0  0999 V2000
   40.9480   80.1650   61.6470 C   0  0  0  0  0  0  0  0  0  0  0  0
   40.8890   78.9330   62.2700 C   0  0  0  0  0  0  0  0  0  0  0  0
   40.4900   77.8690   61.5460 C   0  0  0  0  0  0  0  0  0  0  0  0
   40.1510   78.0400   60.2090 C   0  0  0  0  0  0  0  0  0  0  0  0
   40.4200   79.8580   59.9400 S   0  0  0  0  0  0  0  0  0  0  0  0
   41.1530   78.7990   63.3170 H   0  0  0  0  0  0  0  0  0  0  0  0
   40.3780   76.8360   61.8450 H   0  0  0  0  0  0  0  0  0  0  0  0
   43.0850   82.9380   62.7410 C   0  0  0  0  0  0  0  0  0  0  0  0
   42.1930   83.7230   63.5380 C   0  0  0  0  0  0  0  0  0  0  0  0
   40.8710   83.2930   63.6890 C   0  0  0  0  0  0  0  0  0  0  0  0
   40.5170   82.1460   63.0630 N   0  0  0  0  0  0  0  0  0  0  0  0
   41.3740   81.4240   62.3190 C   0  0  0  0  0  0  0  0  0  0  0  0
   42.6290   81.8160   62.1640 N   0  0  0  0  0  0  0  0  0  0  0  0
   44.1160   83.2310   62.5950 H   0  0  0  0  0  0  0  0  0  0  0  0
   42.5490   84.6170   64.0000 H   0  0  0  0  0  0  0  0  0  0  0  0
   40.1670   83.8550   64.2820 H   0  0  0  0  0  0  0  0  0  0  0  0
   39.6940   77.2050   59.1300 C   0  0  0  0  0  0  0  0  0  0  0  0
   40.3580   76.0610   58.8530 C   0  0  0  0  0  0  0  0  0  0  0  0
   39.7980   75.3510   57.7770 C   0  0  0  0  0  0  0  0  0  0  0  0
   38.7170   75.7550   57.0860 N   0  0  0  0  0  0  0  0  0  0  0  0
   38.1190   76.9170   57.4370 C   0  0  0  0  0  0  0  0  0  0  0  0
   38.6130   77.6490   58.4690 N   0  0  0  0  0  0  0  0  0  0  0  0
   41.2310   75.6800   59.3680 H   0  0  0  0  0  0  0  0  0  0  0  0
   40.2270   74.4080   57.4390 H   0  0  0  0  0  0  0  0  0  0  0  0
   36.9570   77.3510   56.6970 C   0  0  0  0  0  0  0  0  0  0  0  0
   35.8350   77.1210   57.1920 O   0  0  0  0  0  0  0  0  0  0  0  0
   37.0860   78.0470   55.3920 C   0  0  0  0  0  0  0  0  0  0  0  0
   36.8780   77.6270   54.1620 C   0  0  0  0  0  0  0  0  0  0  0  0
   36.5540   76.6020   54.0130 H   0  0  0  0  0  0  0  0  0  0  0  0
   37.0800   78.5020   53.1250 C   0  0  0  0  0  3  0  0  0  0  0  0
   37.4890   79.7660   53.4160 C   0  0  0  0  0  3  0  0  0  0  0  0
   37.5900   79.7080   55.2710 S   0  0  0  0  0  0  0  0  0  0  0  0
  1  2  2  0  0  0  0
  1 12  1  0  0  0  0
  2  6  1  0  0  0  0
  3  7  1  0  0  0  0
  3  2  1  0  0  0  0
  4  3  2  0  0  0  0
  5  4  1  0  0  0  0
  5  1  1  0  0  0  0
  8  9  1  0  0  0  0
  9 10  2  0  0  0  0
  9 15  1  0  0  0  0
 10 16  1  0  0  0  0
 11 10  1  0  0  0  0
 12 11  2  0  0  0  0
 13 12  1  0  0  0  0
 13  8  2  0  0  0  0
 14  8  1  0  0  0  0
 17  4  1  0  0  0  0
 18 17  1  0  0  0  0
 18 23  1  0  0  0  0
 19 18  2  0  0  0  0
 20 21  2  0  0  0  0
 20 19  1  0  0  0  0
 21 22  1  0  0  0  0
 22 17  2  0  0  0  0
 24 19  1  0  0  0  0
 25 26  2  0  0  0  0
 25 21  1  0  0  0  0
 27 25  1  0  0  0  0
 28 27  2  0  0  0  0
 29 28  1  0  0  0  0
 30 31  2  0  0  0  0
 30 28  1  0  0  0  0
 31 32  1  0  0  0  0
 32 27  1  0  0  0  0
M  END
>  <minimizedAffinity>
-6.32675552

>  <minimizedRMSD>
0.396489799

$$$$
