
 OpenBabel03212520363D

 33 36  0  0  0  0  0  0  0  0999 V2000
   40.8520   73.7090   60.7890 C   0  0  0  0  0  0  0  0  0  0  0  0
   39.5380   73.9770   61.2400 C   0  0  0  0  0  0  0  0  0  0  0  0
   38.8540   75.1320   60.9450 C   0  0  0  0  0  0  0  0  0  0  0  0
   39.4600   76.0920   60.1670 C   0  0  0  0  0  0  0  0  0  0  0  0
   40.7440   75.8520   59.7140 C   0  0  0  0  0  0  0  0  0  0  0  0
   41.4380   76.7330   58.9170 C   0  0  0  0  0  0  0  0  0  0  0  0
   42.7240   76.4560   58.4670 C   0  0  0  0  0  0  0  0  0  0  0  0
   43.3750   75.2830   58.8000 C   0  0  0  0  0  0  0  0  0  0  0  0
   42.6820   74.3900   59.6040 C   0  0  0  0  0  0  0  0  0  0  0  0
   41.4260   74.6890   60.0190 C   0  0  0  0  0  0  0  0  0  0  0  0
   38.9130   73.3370   61.8460 H   0  0  0  0  0  0  0  0  0  0  0  0
   37.8580   75.3770   61.2640 H   0  0  0  0  0  0  0  0  0  0  0  0
   39.0350   77.0380   59.8620 H   0  0  0  0  0  0  0  0  0  0  0  0
   40.9360   77.6610   58.6500 H   0  0  0  0  0  0  0  0  0  0  0  0
   43.1570   77.2440   57.8390 H   0  0  0  0  0  0  0  0  0  0  0  0
   44.3700   75.1610   58.4040 H   0  0  0  0  0  0  0  0  0  0  0  0
   43.3200   73.5720   59.8290 H   0  0  0  0  0  0  0  0  0  0  0  0
   41.5680   71.2770   60.3930 C   0  0  0  0  0  0  0  0  0  0  0  0
   41.3510   72.4030   61.1740 C   0  0  0  0  0  0  0  0  0  0  0  0
   41.6120   72.3370   62.6000 C   0  0  0  0  0  0  0  0  0  0  0  0
   42.0630   71.1540   63.1060 N   0  0  0  0  0  0  0  0  0  0  0  0
   42.2610   70.0640   62.2670 C   0  0  0  0  0  0  0  0  0  0  0  0
   42.0130   70.1400   60.9300 N   0  0  0  0  0  0  0  0  0  0  0  0
   41.3310   71.2340   59.3670 H   0  0  0  0  0  0  0  0  0  0  0  0
   41.5260   73.0700   63.3650 H   0  0  0  0  0  0  0  0  0  0  0  0
   42.7310   68.7780   62.7930 C   0  0  0  0  0  0  0  0  0  0  0  0
   43.9170   68.5970   63.1110 O   0  0  0  0  0  0  0  0  0  0  0  0
   41.7360   67.6850   62.9370 C   0  0  0  0  0  0  0  0  0  0  0  0
   40.4730   67.7860   63.4650 C   0  0  0  0  0  0  0  0  0  0  0  0
   40.1160   68.7390   63.8300 H   0  0  0  0  0  0  0  0  0  0  0  0
   39.7420   66.6240   63.4870 C   0  0  0  0  0  3  0  0  0  0  0  0
   40.2580   65.4790   63.0140 C   0  0  0  0  0  3  0  0  0  0  0  0
   41.9530   66.0550   62.4710 S   0  0  0  0  0  0  0  0  0  0  0  0
  1 19  1  0  0  0  0
  1  2  1  0  0  0  0
  2 11  1  0  0  0  0
  3  2  2  0  0  0  0
  3 12  1  0  0  0  0
  4  3  1  0  0  0  0
  5 10  1  0  0  0  0
  5  4  2  0  0  0  0
  6  5  1  0  0  0  0
  7  8  1  0  0  0  0
  7  6  2  0  0  0  0
  8  9  2  0  0  0  0
  9 17  1  0  0  0  0
  9 10  1  0  0  0  0
 10  1  2  0  0  0  0
 13  4  1  0  0  0  0
 14  6  1  0  0  0  0
 15  7  1  0  0  0  0
 16  8  1  0  0  0  0
 18 23  2  0  0  0  0
 18 19  1  0  0  0  0
 19 20  2  0  0  0  0
 20 21  1  0  0  0  0
 20 25  1  0  0  0  0
 22 26  1  0  0  0  0
 22 21  2  0  0  0  0
 23 22  1  0  0  0  0
 24 18  1  0  0  0  0
 26 28  1  0  0  0  0
 26 27  2  0  0  0  0
 28 29  2  0  0  0  0
 29 31  1  0  0  0  0
 29 30  1  0  0  0  0
 32 31  2  0  0  0  0
 33 28  1  0  0  0  0
 33 32  1  0  0  0  0
M  END
>  <minimizedAffinity>
-6.98819637

$$$$

 OpenBabel03212520363D

 33 36  0  0  0  0  0  0  0  0999 V2000
   42.2970   73.5160   60.4690 C   0  0  0  0  0  0  0  0  0  0  0  0
   43.4860   73.8950   59.8010 C   0  0  0  0  0  0  0  0  0  0  0  0
   43.6120   75.0530   59.0730 C   0  0  0  0  0  0  0  0  0  0  0  0
   42.5380   75.9070   58.9760 C   0  0  0  0  0  0  0  0  0  0  0  0
   41.3650   75.5590   59.6200 C   0  0  0  0  0  0  0  0  0  0  0  0
   40.2350   76.3440   59.6060 C   0  0  0  0  0  0  0  0  0  0  0  0
   39.0760   75.9700   60.2760 C   0  0  0  0  0  0  0  0  0  0  0  0
   38.9940   74.7890   60.9880 C   0  0  0  0  0  0  0  0  0  0  0  0
   40.1290   73.9910   61.0070 C   0  0  0  0  0  0  0  0  0  0  0  0
   41.2460   74.3890   60.3480 C   0  0  0  0  0  0  0  0  0  0  0  0
   44.4220   73.3560   59.7790 H   0  0  0  0  0  0  0  0  0  0  0  0
   44.4930   75.3800   58.5510 H   0  0  0  0  0  0  0  0  0  0  0  0
   42.5050   76.8450   58.4390 H   0  0  0  0  0  0  0  0  0  0  0  0
   40.2870   77.2760   59.0470 H   0  0  0  0  0  0  0  0  0  0  0  0
   38.2540   76.6910   60.1810 H   0  0  0  0  0  0  0  0  0  0  0  0
   38.0520   74.5880   61.4710 H   0  0  0  0  0  0  0  0  0  0  0  0
   39.9050   73.0960   61.5320 H   0  0  0  0  0  0  0  0  0  0  0  0
   42.2480   72.0630   62.5840 C   0  0  0  0  0  0  0  0  0  0  0  0
   42.4140   72.2840   61.2240 C   0  0  0  0  0  0  0  0  0  0  0  0
   42.7870   71.1730   60.3670 C   0  0  0  0  0  0  0  0  0  0  0  0
   42.9570   69.9530   60.9520 N   0  0  0  0  0  0  0  0  0  0  0  0
   42.7730   69.8010   62.3200 C   0  0  0  0  0  0  0  0  0  0  0  0
   42.4220   70.8510   63.1130 N   0  0  0  0  0  0  0  0  0  0  0  0
   42.0490   72.8370   63.2720 H   0  0  0  0  0  0  0  0  0  0  0  0
   42.9510   71.1190   59.3180 H   0  0  0  0  0  0  0  0  0  0  0  0
   42.9660   68.5010   62.9700 C   0  0  0  0  0  0  0  0  0  0  0  0
   44.0490   68.1830   63.4870 O   0  0  0  0  0  0  0  0  0  0  0  0
   41.8160   67.5620   62.9950 C   0  0  0  0  0  0  0  0  0  0  0  0
   40.5550   67.8170   63.4760 C   0  0  0  0  0  0  0  0  0  0  0  0
   40.3230   68.7880   63.8920 H   0  0  0  0  0  0  0  0  0  0  0  0
   39.6610   66.7790   63.3850 C   0  0  0  0  0  3  0  0  0  0  0  0
   40.0270   65.6020   62.8530 C   0  0  0  0  0  3  0  0  0  0  0  0
   41.8140   65.9510   62.4240 S   0  0  0  0  0  0  0  0  0  0  0  0
  1 19  1  0  0  0  0
  2  1  2  0  0  0  0
  3  2  1  0  0  0  0
  4  3  2  0  0  0  0
  4  5  1  0  0  0  0
  5 10  1  0  0  0  0
  6  5  2  0  0  0  0
  6  7  1  0  0  0  0
  7  8  2  0  0  0  0
  8  9  1  0  0  0  0
  8 16  1  0  0  0  0
  9 17  1  0  0  0  0
 10  1  1  0  0  0  0
 10  9  2  0  0  0  0
 11  2  1  0  0  0  0
 12  3  1  0  0  0  0
 13  4  1  0  0  0  0
 14  6  1  0  0  0  0
 15  7  1  0  0  0  0
 18 23  1  0  0  0  0
 18 24  1  0  0  0  0
 19 18  2  0  0  0  0
 20 21  2  0  0  0  0
 20 19  1  0  0  0  0
 21 22  1  0  0  0  0
 22 26  1  0  0  0  0
 22 23  2  0  0  0  0
 25 20  1  0  0  0  0
 26 28  1  0  0  0  0
 26 27  2  0  0  0  0
 28 29  2  0  0  0  0
 29 30  1  0  0  0  0
 31 29  1  0  0  0  0
 32 31  2  0  0  0  0
 33 32  1  0  0  0  0
 33 28  1  0  0  0  0
M  END
>  <minimizedAffinity>
-6.84587622

$$$$

 OpenBabel03212520363D

 33 36  0  0  0  0  0  0  0  0999 V2000
   40.6860   73.5350   60.5780 C   0  0  0  0  0  0  0  0  0  0  0  0
   39.4080   73.6500   61.1730 C   0  0  0  0  0  0  0  0  0  0  0  0
   38.7030   74.8280   61.2390 C   0  0  0  0  0  0  0  0  0  0  0  0
   39.2500   75.9690   60.7010 C   0  0  0  0  0  0  0  0  0  0  0  0
   40.4980   75.8830   60.1130 C   0  0  0  0  0  0  0  0  0  0  0  0
   41.1320   76.9560   59.5290 C   0  0  0  0  0  0  0  0  0  0  0  0
   42.3820   76.8320   58.9350 C   0  0  0  0  0  0  0  0  0  0  0  0
   43.0570   75.6270   58.9020 C   0  0  0  0  0  0  0  0  0  0  0  0
   42.4250   74.5400   59.4900 C   0  0  0  0  0  0  0  0  0  0  0  0
   41.2020   74.6950   60.0540 C   0  0  0  0  0  0  0  0  0  0  0  0
   38.8290   72.8610   61.6310 H   0  0  0  0  0  0  0  0  0  0  0  0
   37.7320   74.9600   61.6800 H   0  0  0  0  0  0  0  0  0  0  0  0
   38.8020   76.9540   60.6850 H   0  0  0  0  0  0  0  0  0  0  0  0
   40.6110   77.9110   59.5510 H   0  0  0  0  0  0  0  0  0  0  0  0
   42.7670   77.7660   58.5080 H   0  0  0  0  0  0  0  0  0  0  0  0
   44.0210   75.6330   58.4200 H   0  0  0  0  0  0  0  0  0  0  0  0
   43.0790   73.7050   59.4470 H   0  0  0  0  0  0  0  0  0  0  0  0
   41.4180   71.3240   59.5020 C   0  0  0  0  0  0  0  0  0  0  0  0
   41.2140   72.1850   60.5700 C   0  0  0  0  0  0  0  0  0  0  0  0
   41.5220   71.7320   61.9140 C   0  0  0  0  0  0  0  0  0  0  0  0
   42.0040   70.4650   62.0590 N   0  0  0  0  0  0  0  0  0  0  0  0
   42.1870   69.6550   60.9460 C   0  0  0  0  0  0  0  0  0  0  0  0
   41.8940   70.0930   59.6900 N   0  0  0  0  0  0  0  0  0  0  0  0
   41.1480   71.5620   58.5110 H   0  0  0  0  0  0  0  0  0  0  0  0
   41.4530   72.2230   62.8550 H   0  0  0  0  0  0  0  0  0  0  0  0
   42.6900   68.2830   61.0810 C   0  0  0  0  0  0  0  0  0  0  0  0
   43.7800   67.9370   60.5980 O   0  0  0  0  0  0  0  0  0  0  0  0
   41.8490   67.3080   61.8190 C   0  0  0  0  0  0  0  0  0  0  0  0
   40.8340   66.5410   61.3040 C   0  0  0  0  0  0  0  0  0  0  0  0
   40.5800   66.6160   60.2550 H   0  0  0  0  0  0  0  0  0  0  0  0
   40.2030   65.7090   62.1970 C   0  0  0  0  0  3  0  0  0  0  0  0
   40.5780   65.6740   63.4850 C   0  0  0  0  0  3  0  0  0  0  0  0
   41.9650   66.9290   63.4820 S   0  0  0  0  0  0  0  0  0  0  0  0
  1  2  1  0  0  0  0
  2  3  2  0  0  0  0
  2 11  1  0  0  0  0
  3 12  1  0  0  0  0
  4  3  1  0  0  0  0
  5  4  2  0  0  0  0
  6 14  1  0  0  0  0
  6  5  1  0  0  0  0
  7  6  2  0  0  0  0
  8  7  1  0  0  0  0
  8  9  2  0  0  0  0
  9 10  1  0  0  0  0
 10  5  1  0  0  0  0
 10  1  2  0  0  0  0
 13  4  1  0  0  0  0
 15  7  1  0  0  0  0
 16  8  1  0  0  0  0
 17  9  1  0  0  0  0
 18 23  2  0  0  0  0
 18 19  1  0  0  0  0
 19  1  1  0  0  0  0
 19 20  2  0  0  0  0
 20 21  1  0  0  0  0
 20 25  1  0  0  0  0
 22 26  1  0  0  0  0
 22 21  2  0  0  0  0
 23 22  1  0  0  0  0
 24 18  1  0  0  0  0
 26 28  1  0  0  0  0
 27 26  2  0  0  0  0
 28 33  1  0  0  0  0
 29 28  2  0  0  0  0
 29 31  1  0  0  0  0
 30 29  1  0  0  0  0
 31 32  2  0  0  0  0
 33 32  1  0  0  0  0
M  END
>  <minimizedAffinity>
-6.63308382

$$$$

 OpenBabel03212520363D

 33 36  0  0  0  0  0  0  0  0999 V2000
   40.8310   73.4450   60.8050 C   0  0  0  0  0  0  0  0  0  0  0  0
   39.4850   73.5200   61.2360 C   0  0  0  0  0  0  0  0  0  0  0  0
   38.6790   74.6130   61.0240 C   0  0  0  0  0  0  0  0  0  0  0  0
   39.1870   75.7030   60.3560 C   0  0  0  0  0  0  0  0  0  0  0  0
   40.4990   75.6530   59.9240 C   0  0  0  0  0  0  0  0  0  0  0  0
   41.1040   76.6770   59.2310 C   0  0  0  0  0  0  0  0  0  0  0  0
   42.4220   76.5900   58.8000 C   0  0  0  0  0  0  0  0  0  0  0  0
   43.1970   75.4720   59.0460 C   0  0  0  0  0  0  0  0  0  0  0  0
   42.5940   74.4350   59.7440 C   0  0  0  0  0  0  0  0  0  0  0  0
   41.3040   74.5510   60.1440 C   0  0  0  0  0  0  0  0  0  0  0  0
   38.9250   72.7600   61.7610 H   0  0  0  0  0  0  0  0  0  0  0  0
   37.6540   74.7130   61.3320 H   0  0  0  0  0  0  0  0  0  0  0  0
   38.6610   76.6190   60.1230 H   0  0  0  0  0  0  0  0  0  0  0  0
   40.5040   77.5630   59.0330 H   0  0  0  0  0  0  0  0  0  0  0  0
   42.7740   77.4770   58.2590 H   0  0  0  0  0  0  0  0  0  0  0  0
   44.2070   75.5010   58.6730 H   0  0  0  0  0  0  0  0  0  0  0  0
   43.3180   73.6770   59.9150 H   0  0  0  0  0  0  0  0  0  0  0  0
   41.6910   71.0930   60.2440 C   0  0  0  0  0  0  0  0  0  0  0  0
   41.4690   72.1740   61.0860 C   0  0  0  0  0  0  0  0  0  0  0  0
   41.8810   72.0860   62.4740 C   0  0  0  0  0  0  0  0  0  0  0  0
   42.4750   70.9290   62.8860 N   0  0  0  0  0  0  0  0  0  0  0  0
   42.6690   69.8860   61.9900 C   0  0  0  0  0  0  0  0  0  0  0  0
   42.2780   69.9820   60.6880 N   0  0  0  0  0  0  0  0  0  0  0  0
   41.3520   71.0620   59.2460 H   0  0  0  0  0  0  0  0  0  0  0  0
   41.8180   72.7860   63.2720 H   0  0  0  0  0  0  0  0  0  0  0  0
   43.2910   68.6280   62.4150 C   0  0  0  0  0  0  0  0  0  0  0  0
   43.9110   68.5350   63.4870 O   0  0  0  0  0  0  0  0  0  0  0  0
   43.1590   67.4530   61.5180 C   0  0  0  0  0  0  0  0  0  0  0  0
   44.0440   67.0550   60.5470 C   0  0  0  0  0  0  0  0  0  0  0  0
   44.9480   67.6220   60.3770 H   0  0  0  0  0  0  0  0  0  0  0  0
   43.6930   65.9270   59.8470 C   0  0  0  0  0  3  0  0  0  0  0  0
   42.5500   65.2770   60.1190 C   0  0  0  0  0  3  0  0  0  0  0  0
   41.8660   66.3350   61.5020 S   0  0  0  0  0  0  0  0  0  0  0  0
  1 19  1  0  0  0  0
  1  2  1  0  0  0  0
  2 11  1  0  0  0  0
  3  2  2  0  0  0  0
  3 12  1  0  0  0  0
  4  3  1  0  0  0  0
  5 10  1  0  0  0  0
  5  4  2  0  0  0  0
  6  5  1  0  0  0  0
  7  8  1  0  0  0  0
  7  6  2  0  0  0  0
  8  9  2  0  0  0  0
  9 17  1  0  0  0  0
  9 10  1  0  0  0  0
 10  1  2  0  0  0  0
 13  4  1  0  0  0  0
 14  6  1  0  0  0  0
 15  7  1  0  0  0  0
 16  8  1  0  0  0  0
 18 23  2  0  0  0  0
 18 19  1  0  0  0  0
 19 20  2  0  0  0  0
 20 21  1  0  0  0  0
 20 25  1  0  0  0  0
 22 26  1  0  0  0  0
 22 21  2  0  0  0  0
 23 22  1  0  0  0  0
 24 18  1  0  0  0  0
 26 27  2  0  0  0  0
 28 26  1  0  0  0  0
 29 28  2  0  0  0  0
 30 29  1  0  0  0  0
 31 32  2  0  0  0  0
 31 29  1  0  0  0  0
 32 33  1  0  0  0  0
 33 28  1  0  0  0  0
M  END
>  <minimizedAffinity>
-6.36842394

$$$$

 OpenBabel03212520363D

 33 36  0  0  0  0  0  0  0  0999 V2000
   41.9970   73.5830   59.4780 C   0  0  0  0  0  0  0  0  0  0  0  0
   43.0670   74.1200   58.7230 C   0  0  0  0  0  0  0  0  0  0  0  0
   43.2150   75.4610   58.4620 C   0  0  0  0  0  0  0  0  0  0  0  0
   42.2860   76.3480   58.9540 C   0  0  0  0  0  0  0  0  0  0  0  0
   41.2310   75.8490   59.6950 C   0  0  0  0  0  0  0  0  0  0  0  0
   40.2550   76.6450   60.2490 C   0  0  0  0  0  0  0  0  0  0  0  0
   39.2150   76.1110   61.0000 C   0  0  0  0  0  0  0  0  0  0  0  0
   39.1030   74.7520   61.2280 C   0  0  0  0  0  0  0  0  0  0  0  0
   40.0830   73.9420   60.6720 C   0  0  0  0  0  0  0  0  0  0  0  0
   41.0880   74.4980   59.9500 C   0  0  0  0  0  0  0  0  0  0  0  0
   43.8850   73.5770   58.2740 H   0  0  0  0  0  0  0  0  0  0  0  0
   44.0090   75.9120   57.8950 H   0  0  0  0  0  0  0  0  0  0  0  0
   42.2860   77.4220   58.8230 H   0  0  0  0  0  0  0  0  0  0  0  0
   40.3320   77.7160   60.0750 H   0  0  0  0  0  0  0  0  0  0  0  0
   38.5110   76.8600   61.3820 H   0  0  0  0  0  0  0  0  0  0  0  0
   38.2600   74.4360   61.8210 H   0  0  0  0  0  0  0  0  0  0  0  0
   39.8380   72.9290   60.8710 H   0  0  0  0  0  0  0  0  0  0  0  0
   41.3980   71.1300   59.0240 C   0  0  0  0  0  0  0  0  0  0  0  0
   42.0770   72.1500   59.6760 C   0  0  0  0  0  0  0  0  0  0  0  0
   43.0000   71.8150   60.7440 C   0  0  0  0  0  0  0  0  0  0  0  0
   43.1550   70.4970   61.0570 N   0  0  0  0  0  0  0  0  0  0  0  0
   42.4450   69.5260   60.3620 C   0  0  0  0  0  0  0  0  0  0  0  0
   41.5820   69.8530   59.3610 N   0  0  0  0  0  0  0  0  0  0  0  0
   40.6620   71.3070   58.2910 H   0  0  0  0  0  0  0  0  0  0  0  0
   43.6190   72.4260   61.3560 H   0  0  0  0  0  0  0  0  0  0  0  0
   42.5850   68.1030   60.6930 C   0  0  0  0  0  0  0  0  0  0  0  0
   43.5110   67.4140   60.2350 O   0  0  0  0  0  0  0  0  0  0  0  0
   41.5770   67.5020   61.6010 C   0  0  0  0  0  0  0  0  0  0  0  0
   40.8560   66.3540   61.3860 C   0  0  0  0  0  0  0  0  0  0  0  0
   41.0010   65.7890   60.4750 H   0  0  0  0  0  0  0  0  0  0  0  0
   39.9800   66.0030   62.3840 C   0  0  0  0  0  3  0  0  0  0  0  0
   39.8590   66.7580   63.4870 C   0  0  0  0  0  3  0  0  0  0  0  0
   41.0930   68.1160   63.1210 S   0  0  0  0  0  0  0  0  0  0  0  0
  1 19  1  0  0  0  0
  1 10  1  0  0  0  0
  2  1  2  0  0  0  0
  3  2  1  0  0  0  0
  3  4  2  0  0  0  0
  4  5  1  0  0  0  0
  5 10  2  0  0  0  0
  5  6  1  0  0  0  0
  6  7  2  0  0  0  0
  7  8  1  0  0  0  0
  7 15  1  0  0  0  0
  8 16  1  0  0  0  0
  9 17  1  0  0  0  0
  9  8  2  0  0  0  0
 10  9  1  0  0  0  0
 11  2  1  0  0  0  0
 12  3  1  0  0  0  0
 13  4  1  0  0  0  0
 14  6  1  0  0  0  0
 18 23  2  0  0  0  0
 18 19  1  0  0  0  0
 19 20  2  0  0  0  0
 20 21  1  0  0  0  0
 20 25  1  0  0  0  0
 22 26  1  0  0  0  0
 22 21  2  0  0  0  0
 23 22  1  0  0  0  0
 24 18  1  0  0  0  0
 26 28  1  0  0  0  0
 27 26  2  0  0  0  0
 28 33  1  0  0  0  0
 29 28  2  0  0  0  0
 29 31  1  0  0  0  0
 30 29  1  0  0  0  0
 31 32  2  0  0  0  0
 33 32  1  0  0  0  0
M  END
>  <minimizedAffinity>
-6.34203911

$$$$

 OpenBabel03212520363D

 33 36  0  0  0  0  0  0  0  0999 V2000
   42.2600   73.2570   60.5770 C   0  0  0  0  0  0  0  0  0  0  0  0
   43.5410   73.4770   60.0160 C   0  0  0  0  0  0  0  0  0  0  0  0
   43.8880   74.6220   59.3400 C   0  0  0  0  0  0  0  0  0  0  0  0
   42.9560   75.6230   59.1900 C   0  0  0  0  0  0  0  0  0  0  0  0
   41.6970   75.4320   59.7300 C   0  0  0  0  0  0  0  0  0  0  0  0
   40.6950   76.3720   59.6560 C   0  0  0  0  0  0  0  0  0  0  0  0
   39.4440   76.1530   60.2210 C   0  0  0  0  0  0  0  0  0  0  0  0
   39.1390   74.9790   60.8840 C   0  0  0  0  0  0  0  0  0  0  0  0
   40.1440   74.0260   60.9620 C   0  0  0  0  0  0  0  0  0  0  0  0
   41.3560   74.2750   60.4060 C   0  0  0  0  0  0  0  0  0  0  0  0
   44.3900   72.8100   60.0470 H   0  0  0  0  0  0  0  0  0  0  0  0
   44.8450   74.8310   58.8990 H   0  0  0  0  0  0  0  0  0  0  0  0
   43.1000   76.5680   58.6850 H   0  0  0  0  0  0  0  0  0  0  0  0
   40.9230   77.2990   59.1350 H   0  0  0  0  0  0  0  0  0  0  0  0
   38.7430   76.9860   60.0880 H   0  0  0  0  0  0  0  0  0  0  0  0
   38.1420   74.9040   61.2850 H   0  0  0  0  0  0  0  0  0  0  0  0
   39.7540   73.1610   61.4370 H   0  0  0  0  0  0  0  0  0  0  0  0
   42.0590   71.7740   62.6610 C   0  0  0  0  0  0  0  0  0  0  0  0
   42.1400   72.0040   61.2950 C   0  0  0  0  0  0  0  0  0  0  0  0
   42.1380   70.8730   60.3860 C   0  0  0  0  0  0  0  0  0  0  0  0
   42.0550   69.6250   60.9290 N   0  0  0  0  0  0  0  0  0  0  0  0
   41.9750   69.4660   62.3070 C   0  0  0  0  0  0  0  0  0  0  0  0
   41.9770   70.5360   63.1490 N   0  0  0  0  0  0  0  0  0  0  0  0
   42.1280   72.5440   63.3780 H   0  0  0  0  0  0  0  0  0  0  0  0
   42.1800   70.8230   59.3240 H   0  0  0  0  0  0  0  0  0  0  0  0
   41.9010   68.1320   62.9130 C   0  0  0  0  0  0  0  0  0  0  0  0
   40.8760   67.7310   63.4870 O   0  0  0  0  0  0  0  0  0  0  0  0
   43.1010   67.2630   62.8200 C   0  0  0  0  0  0  0  0  0  0  0  0
   44.3330   67.4990   63.3790 C   0  0  0  0  0  0  0  0  0  0  0  0
   44.4990   68.3970   63.9580 H   0  0  0  0  0  0  0  0  0  0  0  0
   45.2860   66.5370   63.1490 C   0  0  0  0  0  3  0  0  0  0  0  0
   45.0000   65.4480   62.4190 C   0  0  0  0  0  3  0  0  0  0  0  0
   43.2080   65.7720   61.9910 S   0  0  0  0  0  0  0  0  0  0  0  0
  1 19  1  0  0  0  0
  2 11  1  0  0  0  0
  2  1  2  0  0  0  0
  3  2  1  0  0  0  0
  4  3  2  0  0  0  0
  4  5  1  0  0  0  0
  5 10  1  0  0  0  0
  6  5  2  0  0  0  0
  6  7  1  0  0  0  0
  7  8  2  0  0  0  0
  8  9  1  0  0  0  0
  8 16  1  0  0  0  0
  9 17  1  0  0  0  0
 10  1  1  0  0  0  0
 10  9  2  0  0  0  0
 12  3  1  0  0  0  0
 13  4  1  0  0  0  0
 14  6  1  0  0  0  0
 15  7  1  0  0  0  0
 18 23  1  0  0  0  0
 18 24  1  0  0  0  0
 19 18  2  0  0  0  0
 20 21  2  0  0  0  0
 20 19  1  0  0  0  0
 21 22  1  0  0  0  0
 22 26  1  0  0  0  0
 22 23  2  0  0  0  0
 25 20  1  0  0  0  0
 26 27  2  0  0  0  0
 28 26  1  0  0  0  0
 28 29  2  0  0  0  0
 29 30  1  0  0  0  0
 31 29  1  0  0  0  0
 32 31  2  0  0  0  0
 33 32  1  0  0  0  0
 33 28  1  0  0  0  0
M  END
>  <minimizedAffinity>
-6.33491325

$$$$

 OpenBabel03212520363D

 33 36  0  0  0  0  0  0  0  0999 V2000
   40.6780   73.5530   59.7420 C   0  0  0  0  0  0  0  0  0  0  0  0
   41.2710   74.7600   60.1820 C   0  0  0  0  0  0  0  0  0  0  0  0
   40.8980   76.0010   59.7260 C   0  0  0  0  0  0  0  0  0  0  0  0
   39.8930   76.1000   58.7920 C   0  0  0  0  0  0  0  0  0  0  0  0
   39.2970   74.9350   58.3460 C   0  0  0  0  0  0  0  0  0  0  0  0
   38.2720   74.9160   57.4280 C   0  0  0  0  0  0  0  0  0  0  0  0
   37.6860   73.7270   57.0100 C   0  0  0  0  0  0  0  0  0  0  0  0
   38.1030   72.5000   57.4910 C   0  0  0  0  0  0  0  0  0  0  0  0
   39.1370   72.5110   58.4170 C   0  0  0  0  0  0  0  0  0  0  0  0
   39.6810   73.6890   58.8080 C   0  0  0  0  0  0  0  0  0  0  0  0
   42.0590   74.8700   60.9130 H   0  0  0  0  0  0  0  0  0  0  0  0
   41.3190   76.9410   60.0320 H   0  0  0  0  0  0  0  0  0  0  0  0
   39.5050   77.0100   58.3550 H   0  0  0  0  0  0  0  0  0  0  0  0
   37.9370   75.8760   57.0410 H   0  0  0  0  0  0  0  0  0  0  0  0
   36.8800   73.8600   56.2780 H   0  0  0  0  0  0  0  0  0  0  0  0
   37.5870   71.6360   57.1050 H   0  0  0  0  0  0  0  0  0  0  0  0
   39.3930   71.5070   58.6490 H   0  0  0  0  0  0  0  0  0  0  0  0
   41.7900   71.2440   59.8580 C   0  0  0  0  0  0  0  0  0  0  0  0
   41.1900   72.3690   60.4030 C   0  0  0  0  0  0  0  0  0  0  0  0
   40.9820   72.4350   61.8380 C   0  0  0  0  0  0  0  0  0  0  0  0
   41.3950   71.3720   62.5860 N   0  0  0  0  0  0  0  0  0  0  0  0
   41.9910   70.2770   61.9760 C   0  0  0  0  0  0  0  0  0  0  0  0
   42.1810   70.2280   60.6280 N   0  0  0  0  0  0  0  0  0  0  0  0
   41.9050   71.0990   58.8200 H   0  0  0  0  0  0  0  0  0  0  0  0
   40.5600   73.1930   62.4540 H   0  0  0  0  0  0  0  0  0  0  0  0
   42.4280   69.1160   62.7600 C   0  0  0  0  0  0  0  0  0  0  0  0
   43.5190   69.1010   63.3510 O   0  0  0  0  0  0  0  0  0  0  0  0
   41.5170   67.9460   62.8290 C   0  0  0  0  0  0  0  0  0  0  0  0
   40.3140   67.8770   63.4870 C   0  0  0  0  0  0  0  0  0  0  0  0
   39.9450   68.7380   64.0280 H   0  0  0  0  0  0  0  0  0  0  0  0
   39.6540   66.6760   63.4000 C   0  0  0  0  0  3  0  0  0  0  0  0
   40.1800   65.6530   62.7070 C   0  0  0  0  0  3  0  0  0  0  0  0
   41.7720   66.4230   62.0970 S   0  0  0  0  0  0  0  0  0  0  0  0
  1  2  1  0  0  0  0
  1 19  1  0  0  0  0
  2 11  1  0  0  0  0
  3 12  1  0  0  0  0
  3  2  2  0  0  0  0
  4  3  1  0  0  0  0
  5  4  2  0  0  0  0
  5 10  1  0  0  0  0
  6  5  1  0  0  0  0
  7  6  2  0  0  0  0
  7  8  1  0  0  0  0
  8  9  2  0  0  0  0
  9 17  1  0  0  0  0
  9 10  1  0  0  0  0
 10  1  2  0  0  0  0
 13  4  1  0  0  0  0
 14  6  1  0  0  0  0
 15  7  1  0  0  0  0
 16  8  1  0  0  0  0
 18 19  2  0  0  0  0
 18 23  1  0  0  0  0
 19 20  1  0  0  0  0
 20 25  1  0  0  0  0
 20 21  2  0  0  0  0
 22 21  1  0  0  0  0
 22 26  1  0  0  0  0
 23 22  2  0  0  0  0
 24 18  1  0  0  0  0
 26 28  1  0  0  0  0
 26 27  2  0  0  0  0
 28 29  2  0  0  0  0
 29 30  1  0  0  0  0
 31 29  1  0  0  0  0
 32 31  2  0  0  0  0
 33 32  1  0  0  0  0
 33 28  1  0  0  0  0
M  END
>  <minimizedAffinity>
-6.05890322

$$$$

 OpenBabel03212520363D

 33 36  0  0  0  0  0  0  0  0999 V2000
   41.8720   71.0790   61.2160 C   0  0  0  0  0  0  0  0  0  0  0  0
   42.3250   70.9760   62.5530 C   0  0  0  0  0  0  0  0  0  0  0  0
   42.7990   69.8120   63.1070 C   0  0  0  0  0  0  0  0  0  0  0  0
   42.8490   68.6730   62.3380 C   0  0  0  0  0  0  0  0  0  0  0  0
   42.4120   68.7470   61.0290 C   0  0  0  0  0  0  0  0  0  0  0  0
   42.4330   67.6760   60.1650 C   0  0  0  0  0  0  0  0  0  0  0  0
   41.9980   67.7880   58.8500 C   0  0  0  0  0  0  0  0  0  0  0  0
   41.5190   68.9800   58.3390 C   0  0  0  0  0  0  0  0  0  0  0  0
   41.4940   70.0650   59.2050 C   0  0  0  0  0  0  0  0  0  0  0  0
   41.9320   69.9220   60.4800 C   0  0  0  0  0  0  0  0  0  0  0  0
   42.3670   71.7650   63.2890 H   0  0  0  0  0  0  0  0  0  0  0  0
   43.1530   69.6890   64.1150 H   0  0  0  0  0  0  0  0  0  0  0  0
   43.2000   67.6980   62.6500 H   0  0  0  0  0  0  0  0  0  0  0  0
   42.8060   66.7320   60.5560 H   0  0  0  0  0  0  0  0  0  0  0  0
   42.0720   66.8570   58.2750 H   0  0  0  0  0  0  0  0  0  0  0  0
   41.2040   68.9660   57.3090 H   0  0  0  0  0  0  0  0  0  0  0  0
   41.0480   70.8870   58.7030 H   0  0  0  0  0  0  0  0  0  0  0  0
   42.1420   73.3500   60.0530 C   0  0  0  0  0  0  0  0  0  0  0  0
   41.4710   72.4180   60.8310 C   0  0  0  0  0  0  0  0  0  0  0  0
   40.1850   72.7690   61.4050 C   0  0  0  0  0  0  0  0  0  0  0  0
   39.6960   74.0150   61.1450 N   0  0  0  0  0  0  0  0  0  0  0  0
   40.4200   74.9000   60.3550 C   0  0  0  0  0  0  0  0  0  0  0  0
   41.6250   74.5570   59.8220 N   0  0  0  0  0  0  0  0  0  0  0  0
   43.1100   73.1860   59.6670 H   0  0  0  0  0  0  0  0  0  0  0  0
   39.5100   72.2140   62.0100 H   0  0  0  0  0  0  0  0  0  0  0  0
   39.9190   76.2500   60.0760 C   0  0  0  0  0  0  0  0  0  0  0  0
   40.0940   77.1890   60.8700 O   0  0  0  0  0  0  0  0  0  0  0  0
   39.1890   76.4660   58.8020 C   0  0  0  0  0  0  0  0  0  0  0  0
   39.1130   77.6350   58.0850 C   0  0  0  0  0  0  0  0  0  0  0  0
   39.6220   78.5200   58.4410 H   0  0  0  0  0  0  0  0  0  0  0  0
   38.3720   77.5790   56.9300 C   0  0  0  0  0  3  0  0  0  0  0  0
   37.7700   76.4390   56.5550 C   0  0  0  0  0  3  0  0  0  0  0  0
   38.2780   75.2990   57.9480 S   0  0  0  0  0  0  0  0  0  0  0  0
  1  2  1  0  0  0  0
  2  3  2  0  0  0  0
  2 11  1  0  0  0  0
  3 12  1  0  0  0  0
  4 13  1  0  0  0  0
  4  3  1  0  0  0  0
  5  4  2  0  0  0  0
  6 14  1  0  0  0  0
  6  5  1  0  0  0  0
  7  6  2  0  0  0  0
  8  7  1  0  0  0  0
  8  9  2  0  0  0  0
  9 10  1  0  0  0  0
 10  5  1  0  0  0  0
 10  1  2  0  0  0  0
 15  7  1  0  0  0  0
 16  8  1  0  0  0  0
 17  9  1  0  0  0  0
 18 19  1  0  0  0  0
 19  1  1  0  0  0  0
 19 20  2  0  0  0  0
 20 25  1  0  0  0  0
 21 20  1  0  0  0  0
 22 21  2  0  0  0  0
 23 18  2  0  0  0  0
 23 22  1  0  0  0  0
 24 18  1  0  0  0  0
 26 22  1  0  0  0  0
 26 27  2  0  0  0  0
 28 26  1  0  0  0  0
 29 30  1  0  0  0  0
 29 28  2  0  0  0  0
 31 29  1  0  0  0  0
 32 31  2  0  0  0  0
 32 33  1  0  0  0  0
 33 28  1  0  0  0  0
M  END
>  <minimizedAffinity>
-6.01203632

$$$$

 OpenBabel03212520363D

 33 36  0  0  0  0  0  0  0  0999 V2000
   40.3450   73.6370   60.0720 C   0  0  0  0  0  0  0  0  0  0  0  0
   39.1450   73.7100   60.8190 C   0  0  0  0  0  0  0  0  0  0  0  0
   38.6140   74.8850   61.2920 C   0  0  0  0  0  0  0  0  0  0  0  0
   39.2670   76.0690   61.0350 C   0  0  0  0  0  0  0  0  0  0  0  0
   40.4420   76.0240   60.3080 C   0  0  0  0  0  0  0  0  0  0  0  0
   41.1670   77.1460   59.9780 C   0  0  0  0  0  0  0  0  0  0  0  0
   42.3380   77.0670   59.2330 C   0  0  0  0  0  0  0  0  0  0  0  0
   42.8380   75.8590   58.7870 C   0  0  0  0  0  0  0  0  0  0  0  0
   42.1130   74.7230   59.1160 C   0  0  0  0  0  0  0  0  0  0  0  0
   40.9710   74.8360   59.8380 C   0  0  0  0  0  0  0  0  0  0  0  0
   38.5020   72.8890   61.1010 H   0  0  0  0  0  0  0  0  0  0  0  0
   37.7080   74.9870   61.8610 H   0  0  0  0  0  0  0  0  0  0  0  0
   38.9580   77.0570   61.3470 H   0  0  0  0  0  0  0  0  0  0  0  0
   40.7840   78.1030   60.3260 H   0  0  0  0  0  0  0  0  0  0  0  0
   42.8120   78.0380   59.0430 H   0  0  0  0  0  0  0  0  0  0  0  0
   43.7530   75.9020   58.2190 H   0  0  0  0  0  0  0  0  0  0  0  0
   42.6410   73.8710   58.7670 H   0  0  0  0  0  0  0  0  0  0  0  0
   41.6120   71.4070   60.1390 C   0  0  0  0  0  0  0  0  0  0  0  0
   40.6810   72.2990   59.6270 C   0  0  0  0  0  0  0  0  0  0  0  0
   39.9110   71.9240   58.4560 C   0  0  0  0  0  0  0  0  0  0  0  0
   40.1450   70.6950   57.9120 N   0  0  0  0  0  0  0  0  0  0  0  0
   41.0900   69.8490   58.4770 C   0  0  0  0  0  0  0  0  0  0  0  0
   41.8060   70.2130   59.5770 N   0  0  0  0  0  0  0  0  0  0  0  0
   42.2540   71.6430   60.9410 H   0  0  0  0  0  0  0  0  0  0  0  0
   39.1540   72.4400   57.9170 H   0  0  0  0  0  0  0  0  0  0  0  0
   41.3680   68.5300   57.9000 C   0  0  0  0  0  0  0  0  0  0  0  0
   41.1190   67.4810   58.5160 O   0  0  0  0  0  0  0  0  0  0  0  0
   41.9630   68.4820   56.5410 C   0  0  0  0  0  0  0  0  0  0  0  0
   41.3740   67.9930   55.4010 C   0  0  0  0  0  0  0  0  0  0  0  0
   40.3720   67.5890   55.4430 H   0  0  0  0  0  0  0  0  0  0  0  0
   42.1360   68.0620   54.2600 C   0  0  0  0  0  3  0  0  0  0  0  0
   43.3740   68.5790   54.2910 C   0  0  0  0  0  3  0  0  0  0  0  0
   43.5220   69.0290   56.1000 S   0  0  0  0  0  0  0  0  0  0  0  0
  1  2  1  0  0  0  0
  2 11  1  0  0  0  0
  2  3  2  0  0  0  0
  3 12  1  0  0  0  0
  4  3  1  0  0  0  0
  4 13  1  0  0  0  0
  5  4  2  0  0  0  0
  6  5  1  0  0  0  0
  6 14  1  0  0  0  0
  7  6  2  0  0  0  0
  8  9  2  0  0  0  0
  8  7  1  0  0  0  0
  9 10  1  0  0  0  0
 10  1  2  0  0  0  0
 10  5  1  0  0  0  0
 15  7  1  0  0  0  0
 16  8  1  0  0  0  0
 17  9  1  0  0  0  0
 18 24  1  0  0  0  0
 19  1  1  0  0  0  0
 19 18  1  0  0  0  0
 20 19  2  0  0  0  0
 21 20  1  0  0  0  0
 21 22  2  0  0  0  0
 22 23  1  0  0  0  0
 23 18  2  0  0  0  0
 25 20  1  0  0  0  0
 26 22  1  0  0  0  0
 26 27  2  0  0  0  0
 28 26  1  0  0  0  0
 29 30  1  0  0  0  0
 29 28  2  0  0  0  0
 31 32  2  0  0  0  0
 31 29  1  0  0  0  0
 32 33  1  0  0  0  0
 33 28  1  0  0  0  0
M  END
>  <minimizedAffinity>
-5.93616247

$$$$
