
 OpenBabel03212520553D

 32 35  0  0  0  0  0  0  0  0999 V2000
   40.9520   80.1700   61.6610 C   0  0  0  0  0  0  0  0  0  0  0  0
   40.8930   78.9400   62.2880 C   0  0  0  0  0  0  0  0  0  0  0  0
   40.4980   77.8730   61.5650 C   0  0  0  0  0  0  0  0  0  0  0  0
   40.1640   78.0400   60.2260 C   0  0  0  0  0  0  0  0  0  0  0  0
   40.4310   79.8570   59.9520 S   0  0  0  0  0  0  0  0  0  0  0  0
   41.1530   78.8100   63.3360 H   0  0  0  0  0  0  0  0  0  0  0  0
   40.3870   76.8410   61.8670 H   0  0  0  0  0  0  0  0  0  0  0  0
   43.0790   82.9530   62.7500 C   0  0  0  0  0  0  0  0  0  0  0  0
   42.1840   83.7370   63.5450 C   0  0  0  0  0  0  0  0  0  0  0  0
   40.8640   83.3020   63.6970 C   0  0  0  0  0  0  0  0  0  0  0  0
   40.5140   82.1520   63.0730 N   0  0  0  0  0  0  0  0  0  0  0  0
   41.3740   81.4320   62.3300 C   0  0  0  0  0  0  0  0  0  0  0  0
   42.6270   81.8290   62.1750 N   0  0  0  0  0  0  0  0  0  0  0  0
   44.1090   83.2500   62.6040 H   0  0  0  0  0  0  0  0  0  0  0  0
   42.5370   84.6330   64.0050 H   0  0  0  0  0  0  0  0  0  0  0  0
   40.1570   83.8620   64.2880 H   0  0  0  0  0  0  0  0  0  0  0  0
   39.7130   77.2010   59.1480 C   0  0  0  0  0  0  0  0  0  0  0  0
   40.3900   76.0650   58.8660 C   0  0  0  0  0  0  0  0  0  0  0  0
   39.8330   75.3500   57.7920 C   0  0  0  0  0  0  0  0  0  0  0  0
   38.7450   75.7420   57.1060 N   0  0  0  0  0  0  0  0  0  0  0  0
   38.1340   76.8950   57.4620 C   0  0  0  0  0  0  0  0  0  0  0  0
   38.6230   77.6320   58.4920 N   0  0  0  0  0  0  0  0  0  0  0  0
   41.2690   75.6950   59.3770 H   0  0  0  0  0  0  0  0  0  0  0  0
   40.2730   74.4120   57.4510 H   0  0  0  0  0  0  0  0  0  0  0  0
   36.9630   77.3160   56.7280 C   0  0  0  0  0  0  0  0  0  0  0  0
   35.8460   77.0180   57.1970 O   0  0  0  0  0  0  0  0  0  0  0  0
   37.0780   78.0760   55.4580 C   0  0  0  0  0  0  0  0  0  0  0  0
   37.4710   79.3110   55.2210 C   0  0  0  0  0  0  0  0  0  0  0  0
   37.7740   79.9280   56.0600 H   0  0  0  0  0  0  0  0  0  0  0  0
   37.4790   79.7610   53.9240 C   0  0  0  0  0  3  0  0  0  0  0  0
   37.0810   78.9080   52.9410 C   0  0  0  0  0  3  0  0  0  0  0  0
   36.6710   77.3790   53.9170 S   0  0  0  0  0  0  0  0  0  0  0  0
  1  2  2  0  0  0  0
  1 12  1  0  0  0  0
  2  6  1  0  0  0  0
  3  7  1  0  0  0  0
  3  2  1  0  0  0  0
  4  3  2  0  0  0  0
  5  4  1  0  0  0  0
  5  1  1  0  0  0  0
  8  9  1  0  0  0  0
  9 10  2  0  0  0  0
  9 15  1  0  0  0  0
 10 16  1  0  0  0  0
 11 10  1  0  0  0  0
 12 11  2  0  0  0  0
 13 12  1  0  0  0  0
 13  8  2  0  0  0  0
 14  8  1  0  0  0  0
 17  4  1  0  0  0  0
 18 17  1  0  0  0  0
 18 23  1  0  0  0  0
 19 18  2  0  0  0  0
 20 21  2  0  0  0  0
 20 19  1  0  0  0  0
 21 22  1  0  0  0  0
 22 17  2  0  0  0  0
 24 19  1  0  0  0  0
 25 26  2  0  0  0  0
 25 21  1  0  0  0  0
 27 25  1  0  0  0  0
 28 27  2  0  0  0  0
 28 29  1  0  0  0  0
 30 28  1  0  0  0  0
 31 32  1  0  0  0  0
 31 30  2  0  0  0  0
 32 27  1  0  0  0  0
M  END
>  <minimizedAffinity>
-6.45202971

>  <minimizedRMSD>
0.492281139

$$$$
