
 OpenBabel03212520553D

 32 35  0  0  0  0  0  0  0  0999 V2000
   40.9530   80.1710   61.6620 C   0  0  0  0  0  0  0  0  0  0  0  0
   40.8950   78.9410   62.2890 C   0  0  0  0  0  0  0  0  0  0  0  0
   40.5000   77.8730   61.5670 C   0  0  0  0  0  0  0  0  0  0  0  0
   40.1650   78.0400   60.2280 C   0  0  0  0  0  0  0  0  0  0  0  0
   40.4300   79.8570   59.9540 S   0  0  0  0  0  0  0  0  0  0  0  0
   41.1560   78.8110   63.3370 H   0  0  0  0  0  0  0  0  0  0  0  0
   40.3890   76.8410   61.8680 H   0  0  0  0  0  0  0  0  0  0  0  0
   43.0790   82.9540   62.7510 C   0  0  0  0  0  0  0  0  0  0  0  0
   42.1840   83.7380   63.5460 C   0  0  0  0  0  0  0  0  0  0  0  0
   40.8630   83.3030   63.6970 C   0  0  0  0  0  0  0  0  0  0  0  0
   40.5140   82.1530   63.0730 N   0  0  0  0  0  0  0  0  0  0  0  0
   41.3740   81.4330   62.3310 C   0  0  0  0  0  0  0  0  0  0  0  0
   42.6270   81.8290   62.1770 N   0  0  0  0  0  0  0  0  0  0  0  0
   44.1090   83.2500   62.6050 H   0  0  0  0  0  0  0  0  0  0  0  0
   42.5360   84.6340   64.0050 H   0  0  0  0  0  0  0  0  0  0  0  0
   40.1560   83.8640   64.2870 H   0  0  0  0  0  0  0  0  0  0  0  0
   39.7130   77.2010   59.1500 C   0  0  0  0  0  0  0  0  0  0  0  0
   40.3890   76.0640   58.8690 C   0  0  0  0  0  0  0  0  0  0  0  0
   39.8320   75.3490   57.7950 C   0  0  0  0  0  0  0  0  0  0  0  0
   38.7450   75.7410   57.1090 N   0  0  0  0  0  0  0  0  0  0  0  0
   38.1340   76.8950   57.4640 C   0  0  0  0  0  0  0  0  0  0  0  0
   38.6240   77.6320   58.4940 N   0  0  0  0  0  0  0  0  0  0  0  0
   41.2690   75.6940   59.3800 H   0  0  0  0  0  0  0  0  0  0  0  0
   40.2710   74.4110   57.4550 H   0  0  0  0  0  0  0  0  0  0  0  0
   36.9640   77.3160   56.7290 C   0  0  0  0  0  0  0  0  0  0  0  0
   35.8470   77.0200   57.1990 O   0  0  0  0  0  0  0  0  0  0  0  0
   37.0790   78.0760   55.4590 C   0  0  0  0  0  0  0  0  0  0  0  0
   37.4710   79.3120   55.2230 C   0  0  0  0  0  0  0  0  0  0  0  0
   37.7720   79.9290   56.0630 H   0  0  0  0  0  0  0  0  0  0  0  0
   37.4790   79.7620   53.9260 C   0  0  0  0  0  3  0  0  0  0  0  0
   37.0800   78.9090   52.9430 C   0  0  0  0  0  3  0  0  0  0  0  0
   36.6730   77.3800   53.9190 S   0  0  0  0  0  0  0  0  0  0  0  0
  1  2  2  0  0  0  0
  1 12  1  0  0  0  0
  2  6  1  0  0  0  0
  3  7  1  0  0  0  0
  3  2  1  0  0  0  0
  4  3  2  0  0  0  0
  5  4  1  0  0  0  0
  5  1  1  0  0  0  0
  8  9  1  0  0  0  0
  9 10  2  0  0  0  0
  9 15  1  0  0  0  0
 10 16  1  0  0  0  0
 11 10  1  0  0  0  0
 12 11  2  0  0  0  0
 13 12  1  0  0  0  0
 13  8  2  0  0  0  0
 14  8  1  0  0  0  0
 17  4  1  0  0  0  0
 18 17  1  0  0  0  0
 18 23  1  0  0  0  0
 19 18  2  0  0  0  0
 20 21  2  0  0  0  0
 20 19  1  0  0  0  0
 21 22  1  0  0  0  0
 22 17  2  0  0  0  0
 24 19  1  0  0  0  0
 25 26  2  0  0  0  0
 25 21  1  0  0  0  0
 27 25  1  0  0  0  0
 28 27  2  0  0  0  0
 28 29  1  0  0  0  0
 30 28  1  0  0  0  0
 31 32  1  0  0  0  0
 31 30  2  0  0  0  0
 32 27  1  0  0  0  0
M  END
>  <minimizedAffinity>
-6.45243979

>  <minimizedRMSD>
0.697380245

$$$$
