
 OpenBabel03212520553D

 32 35  0  0  0  0  0  0  0  0999 V2000
   40.9410   80.2860   61.7140 C   0  0  0  0  0  0  0  0  0  0  0  0
   40.8720   79.0540   62.3380 C   0  0  0  0  0  0  0  0  0  0  0  0
   40.5060   77.9850   61.6040 C   0  0  0  0  0  0  0  0  0  0  0  0
   40.2100   78.1510   60.2560 C   0  0  0  0  0  0  0  0  0  0  0  0
   40.4720   79.9700   59.9910 S   0  0  0  0  0  0  0  0  0  0  0  0
   41.1020   78.9250   63.3930 H   0  0  0  0  0  0  0  0  0  0  0  0
   40.3930   76.9520   61.9010 H   0  0  0  0  0  0  0  0  0  0  0  0
   43.0080   83.0980   62.8430 C   0  0  0  0  0  0  0  0  0  0  0  0
   42.0910   83.8590   63.6360 C   0  0  0  0  0  0  0  0  0  0  0  0
   40.7780   83.4000   63.7730 C   0  0  0  0  0  0  0  0  0  0  0  0
   40.4540   82.2490   63.1370 N   0  0  0  0  0  0  0  0  0  0  0  0
   41.3340   81.5490   62.3970 C   0  0  0  0  0  0  0  0  0  0  0  0
   42.5810   81.9700   62.2560 N   0  0  0  0  0  0  0  0  0  0  0  0
   44.0330   83.4140   62.7080 H   0  0  0  0  0  0  0  0  0  0  0  0
   42.4240   84.7580   64.1060 H   0  0  0  0  0  0  0  0  0  0  0  0
   40.0560   83.9430   64.3610 H   0  0  0  0  0  0  0  0  0  0  0  0
   39.7960   77.3100   59.1640 C   0  0  0  0  0  0  0  0  0  0  0  0
   40.5250   76.2110   58.8630 C   0  0  0  0  0  0  0  0  0  0  0  0
   40.0000   75.4890   57.7770 C   0  0  0  0  0  0  0  0  0  0  0  0
   38.8940   75.8420   57.0990 N   0  0  0  0  0  0  0  0  0  0  0  0
   38.2310   76.9600   57.4740 C   0  0  0  0  0  0  0  0  0  0  0  0
   38.6870   77.7010   58.5160 N   0  0  0  0  0  0  0  0  0  0  0  0
   41.4210   75.8740   59.3670 H   0  0  0  0  0  0  0  0  0  0  0  0
   40.4820   74.5790   57.4200 H   0  0  0  0  0  0  0  0  0  0  0  0
   37.0400   77.3380   56.7480 C   0  0  0  0  0  0  0  0  0  0  0  0
   35.9380   77.0040   57.2270 O   0  0  0  0  0  0  0  0  0  0  0  0
   37.1200   78.0970   55.4750 C   0  0  0  0  0  0  0  0  0  0  0  0
   37.4880   79.3390   55.2290 C   0  0  0  0  0  0  0  0  0  0  0  0
   37.7970   79.9620   56.0620 H   0  0  0  0  0  0  0  0  0  0  0  0
   37.4640   79.7870   53.9320 C   0  0  0  0  0  0  0  0  0  0  0  0
   37.0600   78.9270   52.9590 C   0  0  0  0  0  0  0  0  0  0  0  0
   36.6940   77.3940   53.9430 S   0  0  0  0  0  0  0  0  0  0  0  0
  1  2  2  0  0  0  0
  1 12  1  0  0  0  0
  2  6  1  0  0  0  0
  3  7  1  0  0  0  0
  3  2  1  0  0  0  0
  4  3  2  0  0  0  0
  5  4  1  0  0  0  0
  5  1  1  0  0  0  0
  8  9  1  0  0  0  0
  9 10  2  0  0  0  0
  9 15  1  0  0  0  0
 10 16  1  0  0  0  0
 11 10  1  0  0  0  0
 12 11  2  0  0  0  0
 13 12  1  0  0  0  0
 13  8  2  0  0  0  0
 14  8  1  0  0  0  0
 17  4  1  0  0  0  0
 18 17  1  0  0  0  0
 18 23  1  0  0  0  0
 19 18  2  0  0  0  0
 20 21  2  0  0  0  0
 20 19  1  0  0  0  0
 21 22  1  0  0  0  0
 22 17  2  0  0  0  0
 24 19  1  0  0  0  0
 25 26  2  0  0  0  0
 25 21  1  0  0  0  0
 27 25  1  0  0  0  0
 28 27  2  0  0  0  0
 28 29  1  0  0  0  0
 30 28  1  0  0  0  0
 31 30  2  0  0  0  0
 31 32  1  0  0  0  0
 32 27  1  0  0  0  0
M  END
>  <minimizedAffinity>
-6.47253132

>  <minimizedRMSD>
0.479798377

$$$$
