
 OpenBabel03212520553D

 32 35  0  0  0  0  0  0  0  0999 V2000
   40.9330   80.2880   61.7060 C   0  0  0  0  0  0  0  0  0  0  0  0
   40.8590   79.0560   62.3280 C   0  0  0  0  0  0  0  0  0  0  0  0
   40.4900   77.9900   61.5910 C   0  0  0  0  0  0  0  0  0  0  0  0
   40.1980   78.1590   60.2420 C   0  0  0  0  0  0  0  0  0  0  0  0
   40.4670   79.9780   59.9810 S   0  0  0  0  0  0  0  0  0  0  0  0
   41.0860   78.9240   63.3830 H   0  0  0  0  0  0  0  0  0  0  0  0
   40.3720   76.9570   61.8860 H   0  0  0  0  0  0  0  0  0  0  0  0
   43.0070   83.0930   62.8400 C   0  0  0  0  0  0  0  0  0  0  0  0
   42.0940   83.8540   63.6360 C   0  0  0  0  0  0  0  0  0  0  0  0
   40.7790   83.3970   63.7730 C   0  0  0  0  0  0  0  0  0  0  0  0
   40.4520   82.2480   63.1350 N   0  0  0  0  0  0  0  0  0  0  0  0
   41.3300   81.5490   62.3920 C   0  0  0  0  0  0  0  0  0  0  0  0
   42.5770   81.9680   62.2500 N   0  0  0  0  0  0  0  0  0  0  0  0
   44.0330   83.4070   62.7040 H   0  0  0  0  0  0  0  0  0  0  0  0
   42.4280   84.7510   64.1080 H   0  0  0  0  0  0  0  0  0  0  0  0
   40.0590   83.9400   64.3640 H   0  0  0  0  0  0  0  0  0  0  0  0
   39.7830   77.3220   59.1480 C   0  0  0  0  0  0  0  0  0  0  0  0
   40.5070   76.2200   58.8480 C   0  0  0  0  0  0  0  0  0  0  0  0
   39.9820   75.5010   57.7590 C   0  0  0  0  0  0  0  0  0  0  0  0
   38.8800   75.8600   57.0790 N   0  0  0  0  0  0  0  0  0  0  0  0
   38.2210   76.9810   57.4530 C   0  0  0  0  0  0  0  0  0  0  0  0
   38.6770   77.7190   58.4980 N   0  0  0  0  0  0  0  0  0  0  0  0
   41.4000   75.8770   59.3540 H   0  0  0  0  0  0  0  0  0  0  0  0
   40.4610   74.5890   57.4030 H   0  0  0  0  0  0  0  0  0  0  0  0
   37.0340   77.3660   56.7240 C   0  0  0  0  0  0  0  0  0  0  0  0
   35.9280   77.1000   57.2350 O   0  0  0  0  0  0  0  0  0  0  0  0
   37.1220   78.0530   55.4110 C   0  0  0  0  0  0  0  0  0  0  0  0
   36.8950   77.6190   54.1890 C   0  0  0  0  0  0  0  0  0  0  0  0
   36.5860   76.5870   54.0550 H   0  0  0  0  0  0  0  0  0  0  0  0
   37.0590   78.4900   53.1410 C   0  0  0  0  0  3  0  0  0  0  0  0
   37.4490   79.7640   53.4130 C   0  0  0  0  0  3  0  0  0  0  0  0
   37.5920   79.7220   55.2670 S   0  0  0  0  0  0  0  0  0  0  0  0
  1  2  2  0  0  0  0
  1 12  1  0  0  0  0
  2  6  1  0  0  0  0
  3  7  1  0  0  0  0
  3  2  1  0  0  0  0
  4  3  2  0  0  0  0
  5  4  1  0  0  0  0
  5  1  1  0  0  0  0
  8  9  1  0  0  0  0
  9 10  2  0  0  0  0
  9 15  1  0  0  0  0
 10 16  1  0  0  0  0
 11 10  1  0  0  0  0
 12 11  2  0  0  0  0
 13 12  1  0  0  0  0
 13  8  2  0  0  0  0
 14  8  1  0  0  0  0
 17  4  1  0  0  0  0
 18 17  1  0  0  0  0
 18 23  1  0  0  0  0
 19 18  2  0  0  0  0
 20 21  2  0  0  0  0
 20 19  1  0  0  0  0
 21 22  1  0  0  0  0
 22 17  2  0  0  0  0
 24 19  1  0  0  0  0
 25 26  2  0  0  0  0
 25 21  1  0  0  0  0
 27 25  1  0  0  0  0
 28 27  2  0  0  0  0
 29 28  1  0  0  0  0
 30 31  2  0  0  0  0
 30 28  1  0  0  0  0
 31 32  1  0  0  0  0
 32 27  1  0  0  0  0
M  END
>  <minimizedAffinity>
-6.34403372

>  <minimizedRMSD>
0.384910107

$$$$
