
 OpenBabel03212520553D

 32 35  0  0  0  0  0  0  0  0999 V2000
   40.9480   80.1670   61.6480 C   0  0  0  0  0  0  0  0  0  0  0  0
   40.8880   78.9350   62.2720 C   0  0  0  0  0  0  0  0  0  0  0  0
   40.4880   77.8710   61.5470 C   0  0  0  0  0  0  0  0  0  0  0  0
   40.1520   78.0420   60.2090 C   0  0  0  0  0  0  0  0  0  0  0  0
   40.4220   79.8590   59.9400 S   0  0  0  0  0  0  0  0  0  0  0  0
   41.1500   78.8010   63.3180 H   0  0  0  0  0  0  0  0  0  0  0  0
   40.3760   76.8380   61.8450 H   0  0  0  0  0  0  0  0  0  0  0  0
   43.0850   82.9400   62.7440 C   0  0  0  0  0  0  0  0  0  0  0  0
   42.1920   83.7250   63.5400 C   0  0  0  0  0  0  0  0  0  0  0  0
   40.8710   83.2940   63.6910 C   0  0  0  0  0  0  0  0  0  0  0  0
   40.5170   82.1470   63.0650 N   0  0  0  0  0  0  0  0  0  0  0  0
   41.3740   81.4250   62.3210 C   0  0  0  0  0  0  0  0  0  0  0  0
   42.6290   81.8180   62.1660 N   0  0  0  0  0  0  0  0  0  0  0  0
   44.1160   83.2320   62.5980 H   0  0  0  0  0  0  0  0  0  0  0  0
   42.5480   84.6190   64.0020 H   0  0  0  0  0  0  0  0  0  0  0  0
   40.1660   83.8560   64.2830 H   0  0  0  0  0  0  0  0  0  0  0  0
   39.6960   77.2080   59.1300 C   0  0  0  0  0  0  0  0  0  0  0  0
   40.3610   76.0640   58.8520 C   0  0  0  0  0  0  0  0  0  0  0  0
   39.8010   75.3540   57.7750 C   0  0  0  0  0  0  0  0  0  0  0  0
   38.7200   75.7580   57.0850 N   0  0  0  0  0  0  0  0  0  0  0  0
   38.1210   76.9180   57.4370 C   0  0  0  0  0  0  0  0  0  0  0  0
   38.6140   77.6500   58.4690 N   0  0  0  0  0  0  0  0  0  0  0  0
   41.2340   75.6850   59.3660 H   0  0  0  0  0  0  0  0  0  0  0  0
   40.2320   74.4120   57.4360 H   0  0  0  0  0  0  0  0  0  0  0  0
   36.9570   77.3510   56.6970 C   0  0  0  0  0  0  0  0  0  0  0  0
   35.8360   77.1200   57.1930 O   0  0  0  0  0  0  0  0  0  0  0  0
   37.0860   78.0470   55.3920 C   0  0  0  0  0  0  0  0  0  0  0  0
   36.8770   77.6260   54.1630 C   0  0  0  0  0  0  0  0  0  0  0  0
   36.5520   76.6000   54.0140 H   0  0  0  0  0  0  0  0  0  0  0  0
   37.0780   78.5010   53.1240 C   0  0  0  0  0  3  0  0  0  0  0  0
   37.4860   79.7660   53.4150 C   0  0  0  0  0  3  0  0  0  0  0  0
   37.5890   79.7080   55.2700 S   0  0  0  0  0  0  0  0  0  0  0  0
  1  2  2  0  0  0  0
  1 12  1  0  0  0  0
  2  6  1  0  0  0  0
  3  7  1  0  0  0  0
  3  2  1  0  0  0  0
  4  3  2  0  0  0  0
  5  4  1  0  0  0  0
  5  1  1  0  0  0  0
  8  9  1  0  0  0  0
  9 10  2  0  0  0  0
  9 15  1  0  0  0  0
 10 16  1  0  0  0  0
 11 10  1  0  0  0  0
 12 11  2  0  0  0  0
 13 12  1  0  0  0  0
 13  8  2  0  0  0  0
 14  8  1  0  0  0  0
 17  4  1  0  0  0  0
 18 17  1  0  0  0  0
 18 23  1  0  0  0  0
 19 18  2  0  0  0  0
 20 21  2  0  0  0  0
 20 19  1  0  0  0  0
 21 22  1  0  0  0  0
 22 17  2  0  0  0  0
 24 19  1  0  0  0  0
 25 26  2  0  0  0  0
 25 21  1  0  0  0  0
 27 25  1  0  0  0  0
 28 27  2  0  0  0  0
 29 28  1  0  0  0  0
 30 31  2  0  0  0  0
 30 28  1  0  0  0  0
 31 32  1  0  0  0  0
 32 27  1  0  0  0  0
M  END
>  <minimizedAffinity>
-6.32710266

>  <minimizedRMSD>
0.426135004

$$$$
