
 OpenBabel03212520553D

 32 35  0  0  0  0  0  0  0  0999 V2000
   40.9490   80.1580   61.6440 C   0  0  0  0  0  0  0  0  0  0  0  0
   40.8910   78.9260   62.2680 C   0  0  0  0  0  0  0  0  0  0  0  0
   40.4900   77.8620   61.5450 C   0  0  0  0  0  0  0  0  0  0  0  0
   40.1490   78.0330   60.2080 C   0  0  0  0  0  0  0  0  0  0  0  0
   40.4180   79.8500   59.9380 S   0  0  0  0  0  0  0  0  0  0  0  0
   41.1560   78.7920   63.3140 H   0  0  0  0  0  0  0  0  0  0  0  0
   40.3780   76.8290   61.8430 H   0  0  0  0  0  0  0  0  0  0  0  0
   43.0890   82.9290   62.7370 C   0  0  0  0  0  0  0  0  0  0  0  0
   42.1980   83.7160   63.5330 C   0  0  0  0  0  0  0  0  0  0  0  0
   40.8750   83.2880   63.6840 C   0  0  0  0  0  0  0  0  0  0  0  0
   40.5200   82.1400   63.0590 N   0  0  0  0  0  0  0  0  0  0  0  0
   41.3770   81.4170   62.3150 C   0  0  0  0  0  0  0  0  0  0  0  0
   42.6320   81.8080   62.1600 N   0  0  0  0  0  0  0  0  0  0  0  0
   44.1200   83.2210   62.5900 H   0  0  0  0  0  0  0  0  0  0  0  0
   42.5550   84.6100   63.9940 H   0  0  0  0  0  0  0  0  0  0  0  0
   40.1720   83.8510   64.2760 H   0  0  0  0  0  0  0  0  0  0  0  0
   39.6910   77.1980   59.1290 C   0  0  0  0  0  0  0  0  0  0  0  0
   40.3520   76.0520   58.8540 C   0  0  0  0  0  0  0  0  0  0  0  0
   39.7900   75.3420   57.7780 C   0  0  0  0  0  0  0  0  0  0  0  0
   38.7110   75.7490   57.0870 N   0  0  0  0  0  0  0  0  0  0  0  0
   38.1150   76.9120   57.4370 C   0  0  0  0  0  0  0  0  0  0  0  0
   38.6100   77.6440   58.4670 N   0  0  0  0  0  0  0  0  0  0  0  0
   41.2230   75.6700   59.3690 H   0  0  0  0  0  0  0  0  0  0  0  0
   40.2170   74.3970   57.4410 H   0  0  0  0  0  0  0  0  0  0  0  0
   36.9540   77.3480   56.6960 C   0  0  0  0  0  0  0  0  0  0  0  0
   35.8310   77.1190   57.1900 O   0  0  0  0  0  0  0  0  0  0  0  0
   37.0850   78.0450   55.3920 C   0  0  0  0  0  0  0  0  0  0  0  0
   36.8760   77.6260   54.1610 C   0  0  0  0  0  0  0  0  0  0  0  0
   36.5500   76.6020   54.0100 H   0  0  0  0  0  0  0  0  0  0  0  0
   37.0800   78.5020   53.1240 C   0  0  0  0  0  3  0  0  0  0  0  0
   37.4900   79.7660   53.4170 C   0  0  0  0  0  3  0  0  0  0  0  0
   37.5900   79.7060   55.2720 S   0  0  0  0  0  0  0  0  0  0  0  0
  1  2  2  0  0  0  0
  1 12  1  0  0  0  0
  2  6  1  0  0  0  0
  3  7  1  0  0  0  0
  3  2  1  0  0  0  0
  4  3  2  0  0  0  0
  5  4  1  0  0  0  0
  5  1  1  0  0  0  0
  8  9  1  0  0  0  0
  9 10  2  0  0  0  0
  9 15  1  0  0  0  0
 10 16  1  0  0  0  0
 11 10  1  0  0  0  0
 12 11  2  0  0  0  0
 13 12  1  0  0  0  0
 13  8  2  0  0  0  0
 14  8  1  0  0  0  0
 17  4  1  0  0  0  0
 18 17  1  0  0  0  0
 18 23  1  0  0  0  0
 19 18  2  0  0  0  0
 20 21  2  0  0  0  0
 20 19  1  0  0  0  0
 21 22  1  0  0  0  0
 22 17  2  0  0  0  0
 24 19  1  0  0  0  0
 25 26  2  0  0  0  0
 25 21  1  0  0  0  0
 27 25  1  0  0  0  0
 28 27  2  0  0  0  0
 29 28  1  0  0  0  0
 30 31  2  0  0  0  0
 30 28  1  0  0  0  0
 31 32  1  0  0  0  0
 32 27  1  0  0  0  0
M  END
>  <minimizedAffinity>
-6.32953215

>  <minimizedRMSD>
0.603281736

$$$$
