
 OpenBabel03212520403D

 29 32  0  0  1  0  0  0  0  0999 V2000
   42.2990   85.5010   59.7770 C   0  0  1  0  0  0  0  0  0  0  0  0
   43.4520   86.1310   59.0000 C   0  0  0  0  0  0  0  0  0  0  0  0
   42.4850   85.1340   58.3560 C   0  0  1  0  0  0  0  0  0  0  0  0
   41.5320   86.2530   60.1020 H   0  0  0  0  0  0  0  0  0  0  0  0
   44.4720   85.7680   59.1520 H   0  0  0  0  0  0  0  0  0  0  0  0
   43.3740   87.1720   58.6890 H   0  0  0  0  0  0  0  0  0  0  0  0
   41.7460   85.6010   57.6700 H   0  0  0  0  0  0  0  0  0  0  0  0
   42.7690   84.6070   60.7790 O   0  0  0  0  0  0  0  0  0  0  0  0
   40.0410   83.5170   62.8990 C   0  0  0  0  0  0  0  0  0  0  0  0
   40.5750   83.7270   64.1700 C   0  0  0  0  0  0  0  0  0  0  0  0
   41.8860   84.2490   64.2660 C   0  0  0  0  0  0  0  0  0  0  0  0
   42.5030   84.4970   63.0940 N   0  0  0  0  0  0  0  0  0  0  0  0
   41.9860   84.2940   61.8670 C   0  0  0  0  0  0  0  0  0  0  0  0
   40.7530   83.8020   61.7590 N   0  0  0  0  0  0  0  0  0  0  0  0
   39.0410   83.1180   62.7680 H   0  0  0  0  0  0  0  0  0  0  0  0
   40.0110   83.5020   65.0530 H   0  0  0  0  0  0  0  0  0  0  0  0
   42.3340   84.4270   65.2140 H   0  0  0  0  0  0  0  0  0  0  0  0
   42.9360   83.8600   58.0880 O   0  0  0  0  0  0  0  0  0  0  0  0
   42.5130   83.1770   56.9660 C   0  0  0  0  0  0  0  0  0  0  0  0
   42.8480   83.2830   55.6490 C   0  0  0  0  0  0  0  0  0  0  0  0
   43.5830   84.0470   55.4540 H   0  0  0  0  0  0  0  0  0  0  0  0
   42.2900   82.4850   54.6740 C   0  0  0  0  0  3  0  0  0  0  0  0
   41.3530   81.5220   54.9840 C   0  0  0  0  0  3  0  0  0  0  0  0
   41.0040   81.4020   56.3100 C   0  0  0  0  0  0  0  0  0  0  0  0
   40.0570   80.4240   56.5760 C   0  0  0  0  0  3  0  0  0  0  0  0
   39.6420   80.2220   57.8560 C   0  0  0  0  0  3  0  0  0  0  0  0
   40.1690   80.9940   58.8640 C   0  0  0  0  0  3  0  0  0  0  0  0
   41.1020   81.9550   58.5750 C   0  0  0  0  0  3  0  0  0  0  0  0
   41.5630   82.2090   57.3080 C   0  0  0  0  0  0  0  0  0  0  0  0
  1  4  1  1  0  0  0
  1  8  1  0  0  0  0
  2  5  1  0  0  0  0
  2  1  1  0  0  0  0
  3  7  1  6  0  0  0
  3  2  1  0  0  0  0
  3  1  1  0  0  0  0
  6  2  1  0  0  0  0
  8 13  1  0  0  0  0
  9 10  1  0  0  0  0
 10 11  2  0  0  0  0
 10 16  1  0  0  0  0
 11 17  1  0  0  0  0
 12 11  1  0  0  0  0
 13 12  2  0  0  0  0
 14 13  1  0  0  0  0
 14  9  2  0  0  0  0
 15  9  1  0  0  0  0
 18  3  1  0  0  0  0
 19 29  1  0  0  0  0
 19 18  1  0  0  0  0
 20 19  2  0  0  0  0
 21 20  1  0  0  0  0
 22 23  2  0  0  0  0
 22 20  1  0  0  0  0
 23 24  1  0  0  0  0
 24 25  2  0  0  0  0
 24 29  1  0  0  0  0
 25 26  1  0  0  0  0
 26 27  2  0  0  0  0
 28 27  1  0  0  0  0
 29 28  2  0  0  0  0
M  END
>  <minimizedAffinity>
-4.71065855

>  <minimizedRMSD>
1.72915316

$$$$
