
 OpenBabel03212520413D

 29 32  0  0  1  0  0  0  0  0999 V2000
   42.2550   85.5710   59.8020 C   0  0  1  0  0  0  0  0  0  0  0  0
   43.5320   86.3900   59.6360 C   0  0  0  0  0  0  0  0  0  0  0  0
   42.8540   85.6940   58.4540 C   0  0  1  0  0  0  0  0  0  0  0  0
   41.3790   86.1930   60.1220 H   0  0  0  0  0  0  0  0  0  0  0  0
   44.4930   85.9680   59.9450 H   0  0  0  0  0  0  0  0  0  0  0  0
   43.4730   87.4770   59.6740 H   0  0  0  0  0  0  0  0  0  0  0  0
   42.3040   86.3840   57.7790 H   0  0  0  0  0  0  0  0  0  0  0  0
   42.4890   84.3800   60.5450 O   0  0  0  0  0  0  0  0  0  0  0  0
   40.0560   83.5260   63.0890 C   0  0  0  0  0  0  0  0  0  0  0  0
   40.7650   83.8030   64.2580 C   0  0  0  0  0  0  0  0  0  0  0  0
   42.0890   84.2860   64.1370 C   0  0  0  0  0  0  0  0  0  0  0  0
   42.5440   84.4350   62.8770 N   0  0  0  0  0  0  0  0  0  0  0  0
   41.8570   84.1670   61.7490 C   0  0  0  0  0  0  0  0  0  0  0  0
   40.6100   83.7100   61.8460 N   0  0  0  0  0  0  0  0  0  0  0  0
   39.0380   83.1520   63.1240 H   0  0  0  0  0  0  0  0  0  0  0  0
   40.3230   83.6550   65.2220 H   0  0  0  0  0  0  0  0  0  0  0  0
   42.6670   84.5110   65.0000 H   0  0  0  0  0  0  0  0  0  0  0  0
   43.4480   84.5690   57.9240 O   0  0  0  0  0  0  0  0  0  0  0  0
   43.4570   84.3440   56.5620 C   0  0  0  0  0  0  0  0  0  0  0  0
   42.4710   83.9980   55.6870 C   0  0  0  0  0  0  0  0  0  0  0  0
   41.5060   83.8790   56.1520 H   0  0  0  0  0  0  0  0  0  0  0  0
   42.7030   83.8220   54.3400 C   0  0  0  0  0  3  0  0  0  0  0  0
   43.9610   83.9880   53.7990 C   0  0  0  0  0  3  0  0  0  0  0  0
   44.9670   84.3380   54.6720 C   0  0  0  0  0  0  0  0  0  0  0  0
   46.2150   84.4950   54.0860 C   0  0  0  0  0  3  0  0  0  0  0  0
   47.2800   84.8400   54.8590 C   0  0  0  0  0  3  0  0  0  0  0  0
   47.0990   85.0270   56.2080 C   0  0  0  0  0  3  0  0  0  0  0  0
   45.8560   84.8660   56.7630 C   0  0  0  0  0  3  0  0  0  0  0  0
   44.7420   84.5190   56.0410 C   0  0  0  0  0  0  0  0  0  0  0  0
  1  4  1  1  0  0  0
  1  8  1  0  0  0  0
  2  6  1  0  0  0  0
  2  1  1  0  0  0  0
  2  5  1  0  0  0  0
  3  7  1  6  0  0  0
  3  2  1  0  0  0  0
  3  1  1  0  0  0  0
  8 13  1  0  0  0  0
  9 15  1  0  0  0  0
  9 10  1  0  0  0  0
 10 16  1  0  0  0  0
 11 10  2  0  0  0  0
 11 17  1  0  0  0  0
 12 11  1  0  0  0  0
 13 14  1  0  0  0  0
 13 12  2  0  0  0  0
 14  9  2  0  0  0  0
 18  3  1  0  0  0  0
 19 18  1  0  0  0  0
 20 21  1  0  0  0  0
 20 19  2  0  0  0  0
 22 20  1  0  0  0  0
 23 22  2  0  0  0  0
 23 24  1  0  0  0  0
 24 29  1  0  0  0  0
 25 24  2  0  0  0  0
 25 26  1  0  0  0  0
 26 27  2  0  0  0  0
 27 28  1  0  0  0  0
 29 19  1  0  0  0  0
 29 28  2  0  0  0  0
M  END
>  <minimizedAffinity>
-3.87854695

>  <minimizedRMSD>
1.18082726

$$$$
