
 OpenBabel03212520203D

 38 41  0  0  0  0  0  0  0  0999 V2000
   43.0860   83.9680   58.5730 Cl  0  0  0  0  0  0  0  0  0  0  0  0
   41.8660   82.7660   58.1880 C   0  0  0  0  0  0  0  0  0  0  0  0
   41.0030   82.2410   59.1430 C   0  0  0  0  0  0  0  0  0  0  0  0
   40.0960   81.3020   58.6840 C   0  0  0  0  0  0  0  0  0  0  0  0
   39.9760   80.8510   57.3850 C   0  0  0  0  0  0  0  0  0  0  0  0
   40.8410   81.3930   56.4890 C   0  0  0  0  0  0  0  0  0  0  0  0
   40.7850   80.8950   54.7980 Cl  0  0  0  0  0  0  0  0  0  0  0  0
   41.7800   82.3440   56.8830 C   0  0  0  0  0  0  0  0  0  0  0  0
   39.4340   80.9080   59.4450 H   0  0  0  0  0  0  0  0  0  0  0  0
   39.2470   80.1200   57.1050 H   0  0  0  0  0  0  0  0  0  0  0  0
   41.9720   82.1790   61.4850 C   0  0  0  0  0  0  0  0  0  0  0  0
   41.1020   82.6850   60.4820 C   0  0  0  0  0  0  0  0  0  0  0  0
   40.2590   83.7210   60.8450 C   0  0  0  0  0  0  0  0  0  0  0  0
   40.3350   84.1680   62.1310 N   0  0  0  0  0  0  0  0  0  0  0  0
   41.1660   83.6710   63.0560 C   0  0  0  0  0  0  0  0  0  0  0  0
   42.0010   82.6580   62.7270 N   0  0  0  0  0  0  0  0  0  0  0  0
   42.6130   81.3750   61.1690 H   0  0  0  0  0  0  0  0  0  0  0  0
   39.5580   84.1810   60.1680 H   0  0  0  0  0  0  0  0  0  0  0  0
   41.0740   84.3140   64.3880 C   0  0  0  0  0  0  0  0  0  0  0  0
   40.7510   85.6330   64.3260 F   0  0  0  0  0  0  0  0  0  0  0  0
   40.1210   83.6540   65.1650 F   0  0  0  0  0  0  0  0  0  0  0  0
   42.3290   84.2640   65.0400 F   0  0  0  0  0  0  0  0  0  0  0  0
   42.6370   82.8620   55.9230 O   0  0  0  0  0  0  0  0  0  0  0  0
   42.3530   84.0190   55.1690 C   0  0  0  0  0  0  0  0  0  0  0  0
   41.4660   84.5470   55.5250 H   0  0  0  0  0  0  0  0  0  0  0  0
   42.2200   83.6860   54.1170 H   0  0  0  0  0  0  0  0  0  0  0  0
   43.4740   84.8670   55.2840 O   0  0  0  0  0  0  0  0  0  0  0  0
   44.7740   84.5330   55.0220 C   0  0  0  0  0  0  0  0  0  0  0  0
   45.6740   83.9520   55.9190 C   0  0  0  0  0  0  0  0  0  0  0  0
   45.2860   83.7520   56.9220 H   0  0  0  0  0  0  0  0  0  0  0  0
   46.9770   83.6540   55.5440 C   0  0  0  0  0  3  0  0  0  0  0  0
   47.3700   83.9510   54.2390 C   0  0  0  0  0  3  0  0  0  0  0  0
   46.5090   84.5250   53.3230 C   0  0  0  0  0  0  0  0  0  0  0  0
   46.9140   84.8090   52.0470 C   0  0  0  0  0  3  0  0  0  0  0  0
   46.0700   85.3810   51.1190 C   0  0  0  0  0  3  0  0  0  0  0  0
   44.7750   85.6740   51.5020 C   0  0  0  0  0  3  0  0  0  0  0  0
   44.3820   85.3830   52.7910 C   0  0  0  0  0  3  0  0  0  0  0  0
   45.2050   84.8130   53.7320 C   0  0  0  0  0  0  0  0  0  0  0  0
  2  1  1  0  0  0  0
  2  3  1  0  0  0  0
  3 12  1  0  0  0  0
  4  3  2  0  0  0  0
  4  9  1  0  0  0  0
  5  4  1  0  0  0  0
  6  8  1  0  0  0  0
  6  5  2  0  0  0  0
  7  6  1  0  0  0  0
  8  2  2  0  0  0  0
 10  5  1  0  0  0  0
 11 16  1  0  0  0  0
 12 13  1  0  0  0  0
 12 11  2  0  0  0  0
 13 14  2  0  0  0  0
 14 15  1  0  0  0  0
 15 19  1  0  0  0  0
 16 15  2  0  0  0  0
 17 11  1  0  0  0  0
 18 13  1  0  0  0  0
 19 22  1  0  0  0  0
 19 21  1  0  0  0  0
 20 19  1  0  0  0  0
 23  8  1  0  0  0  0
 24 27  1  0  0  0  0
 24 25  1  0  0  0  0
 24 23  1  0  0  0  0
 26 24  1  0  0  0  0
 28 27  1  0  0  0  0
 28 29  1  0  0  0  0
 29 30  1  0  0  0  0
 31 29  2  0  0  0  0
 32 31  1  0  0  0  0
 33 38  1  0  0  0  0
 33 32  2  0  0  0  0
 34 33  1  0  0  0  0
 35 36  1  0  0  0  0
 35 34  2  0  0  0  0
 36 37  2  0  0  0  0
 37 38  1  0  0  0  0
 38 28  2  0  0  0  0
M  END
>  <minimizedAffinity>
-4.97239971

>  <minimizedRMSD>
0.938708842

$$$$
