
 OpenBabel03212520413D

 29 32  0  0  1  0  0  0  0  0999 V2000
   42.4270   85.3260   59.9190 C   0  0  1  0  0  0  0  0  0  0  0  0
   43.5420   85.4260   58.8830 C   0  0  0  0  0  0  0  0  0  0  0  0
   42.3610   84.4670   58.7170 C   0  0  1  0  0  0  0  0  0  0  0  0
   41.8310   86.2730   60.0080 H   0  0  0  0  0  0  0  0  0  0  0  0
   44.5090   84.9540   59.0760 H   0  0  0  0  0  0  0  0  0  0  0  0
   43.5760   86.2920   58.2220 H   0  0  0  0  0  0  0  0  0  0  0  0
   41.6110   84.7990   57.9670 H   0  0  0  0  0  0  0  0  0  0  0  0
   42.8940   84.7590   61.1380 O   0  0  0  0  0  0  0  0  0  0  0  0
   39.9730   83.6540   62.9740 C   0  0  0  0  0  0  0  0  0  0  0  0
   40.3970   83.8120   64.2930 C   0  0  0  0  0  0  0  0  0  0  0  0
   41.7030   84.3050   64.5210 C   0  0  0  0  0  0  0  0  0  0  0  0
   42.4250   84.5790   63.4160 N   0  0  0  0  0  0  0  0  0  0  0  0
   42.0130   84.4260   62.1420 C   0  0  0  0  0  0  0  0  0  0  0  0
   40.7870   83.9620   61.9110 N   0  0  0  0  0  0  0  0  0  0  0  0
   38.9820   83.2790   62.7430 H   0  0  0  0  0  0  0  0  0  0  0  0
   39.7540   83.5690   65.1150 H   0  0  0  0  0  0  0  0  0  0  0  0
   42.0690   84.4430   65.5090 H   0  0  0  0  0  0  0  0  0  0  0  0
   42.5790   83.1180   58.8950 O   0  0  0  0  0  0  0  0  0  0  0  0
   41.6360   82.1880   58.5040 C   0  0  0  0  0  0  0  0  0  0  0  0
   40.8780   82.0730   57.3770 C   0  0  0  0  0  0  0  0  0  0  0  0
   41.0540   82.8570   56.6590 H   0  0  0  0  0  0  0  0  0  0  0  0
   39.9800   81.0450   57.1890 C   0  0  0  0  0  3  0  0  0  0  0  0
   39.7970   80.0670   58.1430 C   0  0  0  0  0  3  0  0  0  0  0  0
   40.5550   80.1700   59.2880 C   0  0  0  0  0  0  0  0  0  0  0  0
   40.3400   79.1660   60.2210 C   0  0  0  0  0  3  0  0  0  0  0  0
   41.0380   79.1730   61.3870 C   0  0  0  0  0  3  0  0  0  0  0  0
   41.9470   80.1770   61.6220 C   0  0  0  0  0  3  0  0  0  0  0  0
   42.1410   81.1580   60.6840 C   0  0  0  0  0  3  0  0  0  0  0  0
   41.4710   81.2090   59.4880 C   0  0  0  0  0  0  0  0  0  0  0  0
  1  4  1  1  0  0  0
  1  8  1  0  0  0  0
  2  5  1  0  0  0  0
  2  1  1  0  0  0  0
  3  7  1  6  0  0  0
  3  2  1  0  0  0  0
  3 18  1  0  0  0  0
  3  1  1  0  0  0  0
  6  2  1  0  0  0  0
  8 13  1  0  0  0  0
  9 10  1  0  0  0  0
 10 11  2  0  0  0  0
 10 16  1  0  0  0  0
 11 17  1  0  0  0  0
 12 11  1  0  0  0  0
 13 12  2  0  0  0  0
 14 13  1  0  0  0  0
 14  9  2  0  0  0  0
 15  9  1  0  0  0  0
 19 18  1  0  0  0  0
 19 29  1  0  0  0  0
 20 19  2  0  0  0  0
 21 20  1  0  0  0  0
 22 20  1  0  0  0  0
 22 23  2  0  0  0  0
 23 24  1  0  0  0  0
 24 29  2  0  0  0  0
 24 25  1  0  0  0  0
 25 26  2  0  0  0  0
 26 27  1  0  0  0  0
 28 27  2  0  0  0  0
 29 28  1  0  0  0  0
M  END
>  <minimizedAffinity>
-4.93507242

>  <minimizedRMSD>
3.5082221

$$$$
