
 OpenBabel03212520413D

 29 32  0  0  1  0  0  0  0  0999 V2000
   41.5680   70.5280   62.5600 C   0  0  1  0  0  0  0  0  0  0  0  0
   42.6010   71.6410   62.7170 C   0  0  0  0  0  0  0  0  0  0  0  0
   41.1310   71.9330   62.4030 C   0  0  1  0  0  0  0  0  0  0  0  0
   41.3990   69.9560   63.5100 H   0  0  0  0  0  0  0  0  0  0  0  0
   43.3070   71.8470   61.9080 H   0  0  0  0  0  0  0  0  0  0  0  0
   42.9560   71.8960   63.7150 H   0  0  0  0  0  0  0  0  0  0  0  0
   40.5540   72.3240   63.2680 H   0  0  0  0  0  0  0  0  0  0  0  0
   41.8070   69.7540   61.3900 O   0  0  0  0  0  0  0  0  0  0  0  0
   41.6020   66.2380   60.5420 C   0  0  0  0  0  0  0  0  0  0  0  0
   41.9000   65.6380   61.7650 C   0  0  0  0  0  0  0  0  0  0  0  0
   42.1690   66.4770   62.8720 C   0  0  0  0  0  0  0  0  0  0  0  0
   42.1090   67.8010   62.6300 N   0  0  0  0  0  0  0  0  0  0  0  0
   41.8210   68.3790   61.4470 C   0  0  0  0  0  0  0  0  0  0  0  0
   41.5670   67.6030   60.3950 N   0  0  0  0  0  0  0  0  0  0  0  0
   41.3900   65.6430   59.6600 H   0  0  0  0  0  0  0  0  0  0  0  0
   41.9260   64.5720   61.8680 H   0  0  0  0  0  0  0  0  0  0  0  0
   42.4000   66.0640   63.8240 H   0  0  0  0  0  0  0  0  0  0  0  0
   40.8020   72.3520   61.1320 O   0  0  0  0  0  0  0  0  0  0  0  0
   40.2250   73.5880   60.9180 C   0  0  0  0  0  0  0  0  0  0  0  0
   39.0040   74.0960   61.2480 C   0  0  0  0  0  0  0  0  0  0  0  0
   38.3760   73.3970   61.7750 H   0  0  0  0  0  0  0  0  0  0  0  0
   38.6250   75.3820   60.9300 C   0  0  0  0  0  3  0  0  0  0  0  0
   39.4710   76.2340   60.2520 C   0  0  0  0  0  3  0  0  0  0  0  0
   40.7090   75.7340   59.9110 C   0  0  0  0  0  0  0  0  0  0  0  0
   41.5280   76.6230   59.2300 C   0  0  0  0  0  3  0  0  0  0  0  0
   42.7720   76.2300   58.8470 C   0  0  0  0  0  3  0  0  0  0  0  0
   43.1970   74.9580   59.1410 C   0  0  0  0  0  3  0  0  0  0  0  0
   42.3680   74.0970   59.8150 C   0  0  0  0  0  3  0  0  0  0  0  0
   41.1030   74.4300   60.2290 C   0  0  0  0  0  0  0  0  0  0  0  0
  1  2  1  0  0  0  0
  1  4  1  1  0  0  0
  2  6  1  0  0  0  0
  3  1  1  0  0  0  0
  3  2  1  0  0  0  0
  3  7  1  1  0  0  0
  5  2  1  0  0  0  0
  8 13  1  0  0  0  0
  8  1  1  0  0  0  0
  9 10  1  0  0  0  0
 10 16  1  0  0  0  0
 10 11  2  0  0  0  0
 11 17  1  0  0  0  0
 12 11  1  0  0  0  0
 13 12  2  0  0  0  0
 14  9  2  0  0  0  0
 14 13  1  0  0  0  0
 15  9  1  0  0  0  0
 18  3  1  0  0  0  0
 19 18  1  0  0  0  0
 19 20  1  0  0  0  0
 20 21  1  0  0  0  0
 22 20  2  0  0  0  0
 23 22  1  0  0  0  0
 24 29  1  0  0  0  0
 24 23  2  0  0  0  0
 25 24  1  0  0  0  0
 26 27  1  0  0  0  0
 26 25  2  0  0  0  0
 27 28  2  0  0  0  0
 28 29  1  0  0  0  0
 29 19  2  0  0  0  0
M  END
>  <minimizedAffinity>
-5.62609482

$$$$

 OpenBabel03212520413D

 29 32  0  0  1  0  0  0  0  0999 V2000
   41.8230   71.1060   62.7070 C   0  0  1  0  0  0  0  0  0  0  0  0
   42.6610   72.3490   62.4230 C   0  0  0  0  0  0  0  0  0  0  0  0
   41.1350   72.3530   62.3050 C   0  0  1  0  0  0  0  0  0  0  0  0
   41.8820   70.7780   63.7780 H   0  0  0  0  0  0  0  0  0  0  0  0
   43.2080   72.4330   61.4800 H   0  0  0  0  0  0  0  0  0  0  0  0
   43.0970   72.8960   63.2580 H   0  0  0  0  0  0  0  0  0  0  0  0
   40.6190   72.8720   63.1410 H   0  0  0  0  0  0  0  0  0  0  0  0
   42.0330   70.0970   61.7260 O   0  0  0  0  0  0  0  0  0  0  0  0
   41.1900   66.9940   63.3930 C   0  0  0  0  0  0  0  0  0  0  0  0
   41.1300   66.1070   62.3190 C   0  0  0  0  0  0  0  0  0  0  0  0
   41.3870   66.6110   61.0230 C   0  0  0  0  0  0  0  0  0  0  0  0
   41.6700   67.9260   60.9520 N   0  0  0  0  0  0  0  0  0  0  0  0
   41.7280   68.7820   61.9920 C   0  0  0  0  0  0  0  0  0  0  0  0
   41.4870   68.3230   63.2190 N   0  0  0  0  0  0  0  0  0  0  0  0
   41.0010   66.6610   64.4080 H   0  0  0  0  0  0  0  0  0  0  0  0
   40.8970   65.0720   62.4670 H   0  0  0  0  0  0  0  0  0  0  0  0
   41.3530   65.9720   60.1730 H   0  0  0  0  0  0  0  0  0  0  0  0
   40.5730   72.3850   61.0470 O   0  0  0  0  0  0  0  0  0  0  0  0
   40.0160   73.5450   60.5470 C   0  0  0  0  0  0  0  0  0  0  0  0
   39.9580   74.8150   61.0360 C   0  0  0  0  0  0  0  0  0  0  0  0
   40.4390   74.9300   61.9920 H   0  0  0  0  0  0  0  0  0  0  0  0
   39.3390   75.8440   60.3580 C   0  0  0  0  0  3  0  0  0  0  0  0
   38.7370   75.6380   59.1350 C   0  0  0  0  0  3  0  0  0  0  0  0
   38.7870   74.3590   58.6280 C   0  0  0  0  0  0  0  0  0  0  0  0
   38.1690   74.1960   57.3960 C   0  0  0  0  0  3  0  0  0  0  0  0
   38.1620   72.9720   56.8060 C   0  0  0  0  0  3  0  0  0  0  0  0
   38.7660   71.9140   57.4410 C   0  0  0  0  0  3  0  0  0  0  0  0
   39.3700   72.1000   58.6590 C   0  0  0  0  0  3  0  0  0  0  0  0
   39.4130   73.3080   59.3080 C   0  0  0  0  0  0  0  0  0  0  0  0
  1  4  1  1  0  0  0
  2  1  1  0  0  0  0
  2  6  1  0  0  0  0
  3  2  1  0  0  0  0
  3  1  1  0  0  0  0
  3  7  1  1  0  0  0
  5  2  1  0  0  0  0
  8 13  1  0  0  0  0
  8  1  1  0  0  0  0
  9 15  1  0  0  0  0
 10 16  1  0  0  0  0
 10  9  2  0  0  0  0
 11 10  1  0  0  0  0
 12 11  2  0  0  0  0
 12 13  1  0  0  0  0
 13 14  2  0  0  0  0
 14  9  1  0  0  0  0
 17 11  1  0  0  0  0
 18  3  1  0  0  0  0
 19 20  1  0  0  0  0
 19 18  1  0  0  0  0
 20 21  1  0  0  0  0
 22 20  2  0  0  0  0
 23 22  1  0  0  0  0
 24 23  2  0  0  0  0
 24 29  1  0  0  0  0
 25 24  1  0  0  0  0
 26 25  2  0  0  0  0
 26 27  1  0  0  0  0
 27 28  2  0  0  0  0
 28 29  1  0  0  0  0
 29 19  2  0  0  0  0
M  END
>  <minimizedAffinity>
-5.53551006

$$$$

 OpenBabel03212520413D

 29 32  0  0  1  0  0  0  0  0999 V2000
   40.3960   71.7490   57.3770 C   0  0  1  0  0  0  0  0  0  0  0  0
   41.7260   71.0320   57.5930 C   0  0  0  0  0  0  0  0  0  0  0  0
   40.9100   71.6010   58.7570 C   0  0  1  0  0  0  0  0  0  0  0  0
   39.6010   71.0740   56.9630 H   0  0  0  0  0  0  0  0  0  0  0  0
   42.6640   71.5490   57.3770 H   0  0  0  0  0  0  0  0  0  0  0  0
   41.7640   69.9470   57.4960 H   0  0  0  0  0  0  0  0  0  0  0  0
   40.3780   70.8300   59.3540 H   0  0  0  0  0  0  0  0  0  0  0  0
   40.5750   72.9940   56.7130 O   0  0  0  0  0  0  0  0  0  0  0  0
   37.5000   74.8170   57.3050 C   0  0  0  0  0  0  0  0  0  0  0  0
   37.8670   76.1100   56.9340 C   0  0  0  0  0  0  0  0  0  0  0  0
   39.1890   76.3250   56.4810 C   0  0  0  0  0  0  0  0  0  0  0  0
   39.9810   75.2360   56.4510 N   0  0  0  0  0  0  0  0  0  0  0  0
   39.6250   73.9860   56.8100 C   0  0  0  0  0  0  0  0  0  0  0  0
   38.3840   73.7670   57.2400 N   0  0  0  0  0  0  0  0  0  0  0  0
   36.5000   74.5960   57.6610 H   0  0  0  0  0  0  0  0  0  0  0  0
   37.1690   76.9210   56.9890 H   0  0  0  0  0  0  0  0  0  0  0  0
   39.5130   77.2940   56.1870 H   0  0  0  0  0  0  0  0  0  0  0  0
   41.3660   72.7400   59.3840 O   0  0  0  0  0  0  0  0  0  0  0  0
   40.4900   73.6110   60.0000 C   0  0  0  0  0  0  0  0  0  0  0  0
   39.3270   73.4080   60.6810 C   0  0  0  0  0  0  0  0  0  0  0  0
   39.0450   72.3710   60.7500 H   0  0  0  0  0  0  0  0  0  0  0  0
   38.5960   74.4420   61.2250 C   0  0  0  0  0  3  0  0  0  0  0  0
   39.0060   75.7530   61.1060 C   0  0  0  0  0  3  0  0  0  0  0  0
   40.1790   75.9740   60.4200 C   0  0  0  0  0  0  0  0  0  0  0  0
   40.5550   77.3060   60.3230 C   0  0  0  0  0  3  0  0  0  0  0  0
   41.6990   77.6340   59.6660 C   0  0  0  0  0  3  0  0  0  0  0  0
   42.4630   76.6400   59.1070 C   0  0  0  0  0  3  0  0  0  0  0  0
   42.0700   75.3300   59.2150 C   0  0  0  0  0  3  0  0  0  0  0  0
   40.9290   74.9310   59.8640 C   0  0  0  0  0  0  0  0  0  0  0  0
  1  4  1  6  0  0  0
  1  2  1  0  0  0  0
  1  3  1  0  0  0  0
  2  3  1  0  0  0  0
  3  7  1  1  0  0  0
  3 18  1  0  0  0  0
  5  2  1  0  0  0  0
  6  2  1  0  0  0  0
  8 13  1  0  0  0  0
  8  1  1  0  0  0  0
  9 15  1  0  0  0  0
 10 16  1  0  0  0  0
 10  9  2  0  0  0  0
 11 10  1  0  0  0  0
 12 11  2  0  0  0  0
 12 13  1  0  0  0  0
 13 14  2  0  0  0  0
 14  9  1  0  0  0  0
 17 11  1  0  0  0  0
 18 19  1  0  0  0  0
 19 20  1  0  0  0  0
 20 21  1  0  0  0  0
 20 22  2  0  0  0  0
 23 22  1  0  0  0  0
 24 23  2  0  0  0  0
 25 24  1  0  0  0  0
 26 25  2  0  0  0  0
 27 28  2  0  0  0  0
 27 26  1  0  0  0  0
 28 29  1  0  0  0  0
 29 19  2  0  0  0  0
 29 24  1  0  0  0  0
M  END
>  <minimizedAffinity>
-5.39413548

$$$$

 OpenBabel03212520413D

 29 32  0  0  1  0  0  0  0  0999 V2000
   43.5710   69.8050   60.5440 C   0  0  1  0  0  0  0  0  0  0  0  0
   42.3390   69.8800   59.6460 C   0  0  0  0  0  0  0  0  0  0  0  0
   43.2380   71.0930   59.8950 C   0  0  1  0  0  0  0  0  0  0  0  0
   44.3630   69.1220   60.1380 H   0  0  0  0  0  0  0  0  0  0  0  0
   41.3430   69.9310   60.0920 H   0  0  0  0  0  0  0  0  0  0  0  0
   42.3780   69.4270   58.6550 H   0  0  0  0  0  0  0  0  0  0  0  0
   43.8980   71.3490   59.0390 H   0  0  0  0  0  0  0  0  0  0  0  0
   43.2140   69.6170   61.9080 O   0  0  0  0  0  0  0  0  0  0  0  0
   40.7390   67.3850   63.3270 C   0  0  0  0  0  0  0  0  0  0  0  0
   41.2760   66.1370   63.0130 C   0  0  0  0  0  0  0  0  0  0  0  0
   42.5010   66.0960   62.3070 C   0  0  0  0  0  0  0  0  0  0  0  0
   43.0400   67.2920   62.0010 N   0  0  0  0  0  0  0  0  0  0  0  0
   42.5190   68.4980   62.3050 C   0  0  0  0  0  0  0  0  0  0  0  0
   41.3660   68.5530   62.9690 N   0  0  0  0  0  0  0  0  0  0  0  0
   39.8020   67.4740   63.8660 H   0  0  0  0  0  0  0  0  0  0  0  0
   40.7790   65.2320   63.2970 H   0  0  0  0  0  0  0  0  0  0  0  0
   42.9490   65.1670   62.0470 H   0  0  0  0  0  0  0  0  0  0  0  0
   42.7690   72.1040   60.7060 O   0  0  0  0  0  0  0  0  0  0  0  0
   42.6160   73.3880   60.2250 C   0  0  0  0  0  0  0  0  0  0  0  0
   43.4810   74.2430   59.6100 C   0  0  0  0  0  0  0  0  0  0  0  0
   44.4680   73.8330   59.4760 H   0  0  0  0  0  0  0  0  0  0  0  0
   43.1120   75.5070   59.2030 C   0  0  0  0  0  3  0  0  0  0  0  0
   41.8330   75.9810   59.4000 C   0  0  0  0  0  3  0  0  0  0  0  0
   40.9470   75.1290   60.0210 C   0  0  0  0  0  0  0  0  0  0  0  0
   39.6710   75.6440   60.2000 C   0  0  0  0  0  3  0  0  0  0  0  0
   38.7190   74.8840   60.8020 C   0  0  0  0  0  3  0  0  0  0  0  0
   39.0360   73.6170   61.2260 C   0  0  0  0  0  3  0  0  0  0  0  0
   40.3050   73.1290   61.0380 C   0  0  0  0  0  3  0  0  0  0  0  0
   41.3110   73.8430   60.4370 C   0  0  0  0  0  0  0  0  0  0  0  0
  1  4  1  6  0  0  0
  1  8  1  0  0  0  0
  2  3  1  0  0  0  0
  2  5  1  0  0  0  0
  2  1  1  0  0  0  0
  3  7  1  6  0  0  0
  3  1  1  0  0  0  0
  3 18  1  0  0  0  0
  6  2  1  0  0  0  0
  8 13  1  0  0  0  0
  9 15  1  0  0  0  0
 10 16  1  0  0  0  0
 10  9  1  0  0  0  0
 11 10  2  0  0  0  0
 12 13  2  0  0  0  0
 12 11  1  0  0  0  0
 13 14  1  0  0  0  0
 14  9  2  0  0  0  0
 17 11  1  0  0  0  0
 19 29  1  0  0  0  0
 19 18  1  0  0  0  0
 20 19  2  0  0  0  0
 21 20  1  0  0  0  0
 22 23  2  0  0  0  0
 22 20  1  0  0  0  0
 23 24  1  0  0  0  0
 24 25  2  0  0  0  0
 24 29  1  0  0  0  0
 25 26  1  0  0  0  0
 26 27  2  0  0  0  0
 28 27  1  0  0  0  0
 29 28  2  0  0  0  0
M  END
>  <minimizedAffinity>
-5.39279461

$$$$

 OpenBabel03212520413D

 29 32  0  0  1  0  0  0  0  0999 V2000
   42.5890   72.2630   60.2840 C   0  0  1  0  0  0  0  0  0  0  0  0
   42.8180   72.5620   61.7630 C   0  0  0  0  0  0  0  0  0  0  0  0
   43.0390   71.1680   61.1720 C   0  0  1  0  0  0  0  0  0  0  0  0
   43.3000   72.8150   59.6140 H   0  0  0  0  0  0  0  0  0  0  0  0
   41.9640   72.6600   62.4370 H   0  0  0  0  0  0  0  0  0  0  0  0
   43.7050   73.1230   62.0590 H   0  0  0  0  0  0  0  0  0  0  0  0
   44.1080   70.8960   61.0440 H   0  0  0  0  0  0  0  0  0  0  0  0
   41.2110   72.3400   59.9420 O   0  0  0  0  0  0  0  0  0  0  0  0
   38.7010   74.6090   61.2360 C   0  0  0  0  0  0  0  0  0  0  0  0
   39.1350   75.8300   60.7200 C   0  0  0  0  0  0  0  0  0  0  0  0
   40.3040   75.8400   59.9240 C   0  0  0  0  0  0  0  0  0  0  0  0
   40.8950   74.6430   59.7390 N   0  0  0  0  0  0  0  0  0  0  0  0
   40.4740   73.4640   60.2380 C   0  0  0  0  0  0  0  0  0  0  0  0
   39.3750   73.4380   60.9910 N   0  0  0  0  0  0  0  0  0  0  0  0
   37.8110   74.5440   61.8540 H   0  0  0  0  0  0  0  0  0  0  0  0
   38.6010   76.7370   60.9190 H   0  0  0  0  0  0  0  0  0  0  0  0
   40.6730   76.7460   59.5090 H   0  0  0  0  0  0  0  0  0  0  0  0
   42.1250   70.1780   61.4630 O   0  0  0  0  0  0  0  0  0  0  0  0
   42.1420   68.9740   60.7880 C   0  0  0  0  0  0  0  0  0  0  0  0
   42.6410   68.6150   59.5720 C   0  0  0  0  0  0  0  0  0  0  0  0
   43.1100   69.4280   59.0430 H   0  0  0  0  0  0  0  0  0  0  0  0
   42.5480   67.3310   59.0810 C   0  0  0  0  0  3  0  0  0  0  0  0
   41.9350   66.3280   59.8030 C   0  0  0  0  0  3  0  0  0  0  0  0
   41.4260   66.6760   61.0340 C   0  0  0  0  0  0  0  0  0  0  0  0
   40.8180   65.6380   61.7270 C   0  0  0  0  0  3  0  0  0  0  0  0
   40.2820   65.8740   62.9540 C   0  0  0  0  0  3  0  0  0  0  0  0
   40.3500   67.1380   63.4870 C   0  0  0  0  0  3  0  0  0  0  0  0
   40.9560   68.1470   62.7830 C   0  0  0  0  0  3  0  0  0  0  0  0
   41.5160   67.9770   61.5420 C   0  0  0  0  0  0  0  0  0  0  0  0
  1  4  1  6  0  0  0
  1  3  1  0  0  0  0
  1  2  1  0  0  0  0
  2  6  1  0  0  0  0
  2  5  1  0  0  0  0
  3  7  1  6  0  0  0
  3 18  1  0  0  0  0
  3  2  1  0  0  0  0
  8 13  1  0  0  0  0
  8  1  1  0  0  0  0
  9 15  1  0  0  0  0
 10 16  1  0  0  0  0
 10  9  2  0  0  0  0
 11 10  1  0  0  0  0
 12 11  2  0  0  0  0
 12 13  1  0  0  0  0
 13 14  2  0  0  0  0
 14  9  1  0  0  0  0
 17 11  1  0  0  0  0
 19 18  1  0  0  0  0
 19 29  1  0  0  0  0
 20 19  2  0  0  0  0
 21 20  1  0  0  0  0
 22 20  1  0  0  0  0
 22 23  2  0  0  0  0
 23 24  1  0  0  0  0
 24 29  2  0  0  0  0
 24 25  1  0  0  0  0
 25 26  2  0  0  0  0
 26 27  1  0  0  0  0
 28 27  2  0  0  0  0
 29 28  1  0  0  0  0
M  END
>  <minimizedAffinity>
-5.37478304

$$$$

 OpenBabel03212520413D

 29 32  0  0  1  0  0  0  0  0999 V2000
   42.6880   70.4580   58.9000 C   0  0  1  0  0  0  0  0  0  0  0  0
   41.9390   71.3760   57.9380 C   0  0  0  0  0  0  0  0  0  0  0  0
   43.0960   71.8770   58.8060 C   0  0  1  0  0  0  0  0  0  0  0  0
   43.2490   69.6420   58.3730 H   0  0  0  0  0  0  0  0  0  0  0  0
   40.9490   71.7540   58.2070 H   0  0  0  0  0  0  0  0  0  0  0  0
   42.1230   71.2850   56.8680 H   0  0  0  0  0  0  0  0  0  0  0  0
   44.0420   72.0370   58.2470 H   0  0  0  0  0  0  0  0  0  0  0  0
   41.8650   70.0560   59.9890 O   0  0  0  0  0  0  0  0  0  0  0  0
   42.0290   67.0710   62.0340 C   0  0  0  0  0  0  0  0  0  0  0  0
   41.8030   66.0720   61.0890 C   0  0  0  0  0  0  0  0  0  0  0  0
   41.5970   66.4600   59.7440 C   0  0  0  0  0  0  0  0  0  0  0  0
   41.6390   67.7850   59.5050 N   0  0  0  0  0  0  0  0  0  0  0  0
   41.8570   68.7490   60.4210 C   0  0  0  0  0  0  0  0  0  0  0  0
   42.0530   68.4010   61.6910 N   0  0  0  0  0  0  0  0  0  0  0  0
   42.1920   66.8300   63.0790 H   0  0  0  0  0  0  0  0  0  0  0  0
   41.7860   65.0380   61.3680 H   0  0  0  0  0  0  0  0  0  0  0  0
   41.4210   65.7330   58.9880 H   0  0  0  0  0  0  0  0  0  0  0  0
   42.8060   72.6880   59.8820 O   0  0  0  0  0  0  0  0  0  0  0  0
   42.4570   74.0110   59.7020 C   0  0  0  0  0  0  0  0  0  0  0  0
   43.1260   75.0670   59.1590 C   0  0  0  0  0  0  0  0  0  0  0  0
   44.1120   74.8150   58.8040 H   0  0  0  0  0  0  0  0  0  0  0  0
   42.5790   76.3290   59.0760 C   0  0  0  0  0  3  0  0  0  0  0  0
   41.3110   76.5950   59.5470 C   0  0  0  0  0  3  0  0  0  0  0  0
   40.6220   75.5380   60.0990 C   0  0  0  0  0  0  0  0  0  0  0  0
   39.3510   75.8480   60.5600 C   0  0  0  0  0  3  0  0  0  0  0  0
   38.5860   74.8760   61.1230 C   0  0  0  0  0  3  0  0  0  0  0  0
   39.0850   73.6010   61.2280 C   0  0  0  0  0  3  0  0  0  0  0  0
   40.3450   73.3190   60.7650 C   0  0  0  0  0  3  0  0  0  0  0  0
   41.1690   74.2530   60.1870 C   0  0  0  0  0  0  0  0  0  0  0  0
  1  4  1  6  0  0  0
  1  8  1  0  0  0  0
  2  5  1  0  0  0  0
  2  3  1  0  0  0  0
  2  1  1  0  0  0  0
  3  7  1  6  0  0  0
  3  1  1  0  0  0  0
  3 18  1  0  0  0  0
  6  2  1  0  0  0  0
  8 13  1  0  0  0  0
  9 15  1  0  0  0  0
 10 16  1  0  0  0  0
 10  9  2  0  0  0  0
 11 10  1  0  0  0  0
 12 11  2  0  0  0  0
 12 13  1  0  0  0  0
 13 14  2  0  0  0  0
 14  9  1  0  0  0  0
 17 11  1  0  0  0  0
 19 18  1  0  0  0  0
 19 29  1  0  0  0  0
 20 19  2  0  0  0  0
 21 20  1  0  0  0  0
 22 20  1  0  0  0  0
 22 23  2  0  0  0  0
 23 24  1  0  0  0  0
 24 29  2  0  0  0  0
 24 25  1  0  0  0  0
 25 26  2  0  0  0  0
 26 27  1  0  0  0  0
 28 27  2  0  0  0  0
 29 28  1  0  0  0  0
M  END
>  <minimizedAffinity>
-5.32800627

$$$$

 OpenBabel03212520413D

 29 32  0  0  1  0  0  0  0  0999 V2000
   42.7300   70.6600   58.6980 C   0  0  1  0  0  0  0  0  0  0  0  0
   41.9970   71.6180   57.7620 C   0  0  0  0  0  0  0  0  0  0  0  0
   43.1350   72.0830   58.6750 C   0  0  1  0  0  0  0  0  0  0  0  0
   43.3040   69.8700   58.1470 H   0  0  0  0  0  0  0  0  0  0  0  0
   41.0010   71.9810   58.0260 H   0  0  0  0  0  0  0  0  0  0  0  0
   42.2040   71.5750   56.6930 H   0  0  0  0  0  0  0  0  0  0  0  0
   44.0920   72.2700   58.1440 H   0  0  0  0  0  0  0  0  0  0  0  0
   41.8860   70.2090   59.7510 O   0  0  0  0  0  0  0  0  0  0  0  0
   43.8770   68.3840   62.1650 C   0  0  0  0  0  0  0  0  0  0  0  0
   43.3580   68.8580   63.3690 C   0  0  0  0  0  0  0  0  0  0  0  0
   42.3150   69.8120   63.3180 C   0  0  0  0  0  0  0  0  0  0  0  0
   41.9170   70.1770   62.0840 N   0  0  0  0  0  0  0  0  0  0  0  0
   42.4200   69.7180   60.9200 C   0  0  0  0  0  0  0  0  0  0  0  0
   43.4030   68.8200   60.9520 N   0  0  0  0  0  0  0  0  0  0  0  0
   44.6770   67.6530   62.1460 H   0  0  0  0  0  0  0  0  0  0  0  0
   43.7350   68.5110   64.3100 H   0  0  0  0  0  0  0  0  0  0  0  0
   41.8880   70.2010   64.2110 H   0  0  0  0  0  0  0  0  0  0  0  0
   42.8210   72.8450   59.7800 O   0  0  0  0  0  0  0  0  0  0  0  0
   42.4490   74.1680   59.6480 C   0  0  0  0  0  0  0  0  0  0  0  0
   43.0940   75.2520   59.1330 C   0  0  0  0  0  0  0  0  0  0  0  0
   44.0790   75.0280   58.7590 H   0  0  0  0  0  0  0  0  0  0  0  0
   42.5270   76.5080   59.1000 C   0  0  0  0  0  3  0  0  0  0  0  0
   41.2600   76.7370   59.5950 C   0  0  0  0  0  3  0  0  0  0  0  0
   40.5950   75.6510   60.1190 C   0  0  0  0  0  0  0  0  0  0  0  0
   39.3250   75.9250   60.6050 C   0  0  0  0  0  3  0  0  0  0  0  0
   38.5820   74.9220   61.1440 C   0  0  0  0  0  3  0  0  0  0  0  0
   39.1030   73.6530   61.1990 C   0  0  0  0  0  3  0  0  0  0  0  0
   40.3610   73.4070   60.7120 C   0  0  0  0  0  3  0  0  0  0  0  0
   41.1630   74.3720   60.1560 C   0  0  0  0  0  0  0  0  0  0  0  0
  1  4  1  6  0  0  0
  1  8  1  0  0  0  0
  2  5  1  0  0  0  0
  2  3  1  0  0  0  0
  2  1  1  0  0  0  0
  3  7  1  6  0  0  0
  3  1  1  0  0  0  0
  3 18  1  0  0  0  0
  6  2  1  0  0  0  0
  8 13  1  0  0  0  0
  9 10  1  0  0  0  0
 10 16  1  0  0  0  0
 11 10  2  0  0  0  0
 11 17  1  0  0  0  0
 12 11  1  0  0  0  0
 13 14  1  0  0  0  0
 13 12  2  0  0  0  0
 14  9  2  0  0  0  0
 15  9  1  0  0  0  0
 19 18  1  0  0  0  0
 19 29  1  0  0  0  0
 20 19  2  0  0  0  0
 21 20  1  0  0  0  0
 22 20  1  0  0  0  0
 22 23  2  0  0  0  0
 23 24  1  0  0  0  0
 24 29  2  0  0  0  0
 24 25  1  0  0  0  0
 25 26  2  0  0  0  0
 26 27  1  0  0  0  0
 28 27  2  0  0  0  0
 29 28  1  0  0  0  0
M  END
>  <minimizedAffinity>
-5.32683945

$$$$

 OpenBabel03212520413D

 29 32  0  0  1  0  0  0  0  0999 V2000
   42.8570   72.2370   61.2020 C   0  0  1  0  0  0  0  0  0  0  0  0
   42.1880   72.1630   62.5710 C   0  0  0  0  0  0  0  0  0  0  0  0
   41.3790   72.2700   61.2760 C   0  0  1  0  0  0  0  0  0  0  0  0
   43.4190   71.3010   60.9420 H   0  0  0  0  0  0  0  0  0  0  0  0
   42.1670   73.0470   63.2150 H   0  0  0  0  0  0  0  0  0  0  0  0
   42.1620   71.2090   63.0970 H   0  0  0  0  0  0  0  0  0  0  0  0
   40.8930   71.3200   60.9690 H   0  0  0  0  0  0  0  0  0  0  0  0
   43.5570   73.4630   61.0270 O   0  0  0  0  0  0  0  0  0  0  0  0
   44.0100   74.9500   57.7540 C   0  0  0  0  0  0  0  0  0  0  0  0
   45.2320   74.4040   57.3660 C   0  0  0  0  0  0  0  0  0  0  0  0
   45.8820   73.5200   58.2590 C   0  0  0  0  0  0  0  0  0  0  0  0
   45.2420   73.2880   59.4210 N   0  0  0  0  0  0  0  0  0  0  0  0
   44.0600   73.8170   59.7950 C   0  0  0  0  0  0  0  0  0  0  0  0
   43.4360   74.6520   58.9660 N   0  0  0  0  0  0  0  0  0  0  0  0
   43.4690   75.6350   57.1090 H   0  0  0  0  0  0  0  0  0  0  0  0
   45.6710   74.6440   56.4190 H   0  0  0  0  0  0  0  0  0  0  0  0
   46.8160   73.0790   58.0050 H   0  0  0  0  0  0  0  0  0  0  0  0
   40.7600   73.4660   60.9840 O   0  0  0  0  0  0  0  0  0  0  0  0
   39.9800   73.6040   59.8540 C   0  0  0  0  0  0  0  0  0  0  0  0
   39.3760   72.6910   59.0430 C   0  0  0  0  0  0  0  0  0  0  0  0
   39.5420   71.6710   59.3460 H   0  0  0  0  0  0  0  0  0  0  0  0
   38.6270   73.0540   57.9440 C   0  0  0  0  0  3  0  0  0  0  0  0
   38.4480   74.3780   57.6020 C   0  0  0  0  0  3  0  0  0  0  0  0
   39.0530   75.3130   58.4120 C   0  0  0  0  0  0  0  0  0  0  0  0
   38.8470   76.6320   58.0330 C   0  0  0  0  0  3  0  0  0  0  0  0
   39.4000   77.6340   58.7660 C   0  0  0  0  0  3  0  0  0  0  0  0
   40.1550   77.3240   59.8710 C   0  0  0  0  0  3  0  0  0  0  0  0
   40.3440   76.0120   60.2250 C   0  0  0  0  0  3  0  0  0  0  0  0
   39.8140   74.9540   59.5300 C   0  0  0  0  0  0  0  0  0  0  0  0
  1  4  1  6  0  0  0
  1  3  1  0  0  0  0
  1  2  1  0  0  0  0
  2  6  1  0  0  0  0
  2  5  1  0  0  0  0
  3  7  1  6  0  0  0
  3  2  1  0  0  0  0
  8  1  1  0  0  0  0
  9 14  1  0  0  0  0
 10  9  2  0  0  0  0
 10 11  1  0  0  0  0
 11 12  2  0  0  0  0
 12 13  1  0  0  0  0
 13  8  1  0  0  0  0
 14 13  2  0  0  0  0
 15  9  1  0  0  0  0
 16 10  1  0  0  0  0
 17 11  1  0  0  0  0
 18  3  1  0  0  0  0
 19 18  1  0  0  0  0
 20 21  1  0  0  0  0
 20 19  2  0  0  0  0
 22 20  1  0  0  0  0
 23 22  2  0  0  0  0
 23 24  1  0  0  0  0
 24 29  1  0  0  0  0
 25 24  2  0  0  0  0
 25 26  1  0  0  0  0
 26 27  2  0  0  0  0
 27 28  1  0  0  0  0
 29 19  1  0  0  0  0
 29 28  2  0  0  0  0
M  END
>  <minimizedAffinity>
-5.27411318

$$$$

 OpenBabel03212520413D

 29 32  0  0  1  0  0  0  0  0999 V2000
   41.8270   70.6270   58.5060 C   0  0  1  0  0  0  0  0  0  0  0  0
   42.8340   71.2880   59.4420 C   0  0  0  0  0  0  0  0  0  0  0  0
   41.3460   71.6420   59.4690 C   0  0  1  0  0  0  0  0  0  0  0  0
   41.7150   69.5270   58.6950 H   0  0  0  0  0  0  0  0  0  0  0  0
   43.4990   72.0690   59.0640 H   0  0  0  0  0  0  0  0  0  0  0  0
   43.2250   70.7190   60.2860 H   0  0  0  0  0  0  0  0  0  0  0  0
   40.7950   71.2160   60.3340 H   0  0  0  0  0  0  0  0  0  0  0  0
   42.0360   71.0170   57.1530 O   0  0  0  0  0  0  0  0  0  0  0  0
   40.2840   69.9510   54.1670 C   0  0  0  0  0  0  0  0  0  0  0  0
   40.6050   68.5950   54.1240 C   0  0  0  0  0  0  0  0  0  0  0  0
   41.4330   68.0720   55.1440 C   0  0  0  0  0  0  0  0  0  0  0  0
   41.8380   68.9550   56.0780 N   0  0  0  0  0  0  0  0  0  0  0  0
   41.5270   70.2660   56.1180 C   0  0  0  0  0  0  0  0  0  0  0  0
   40.7490   70.7740   55.1640 N   0  0  0  0  0  0  0  0  0  0  0  0
   39.6540   70.4050   53.4090 H   0  0  0  0  0  0  0  0  0  0  0  0
   40.2370   67.9630   53.3410 H   0  0  0  0  0  0  0  0  0  0  0  0
   41.7040   67.0440   55.1530 H   0  0  0  0  0  0  0  0  0  0  0  0
   40.9510   72.8590   58.9560 O   0  0  0  0  0  0  0  0  0  0  0  0
   40.2290   73.7530   59.7230 C   0  0  0  0  0  0  0  0  0  0  0  0
   39.1060   73.6080   60.4800 C   0  0  0  0  0  0  0  0  0  0  0  0
   38.7110   72.6060   60.4760 H   0  0  0  0  0  0  0  0  0  0  0  0
   38.5410   74.6540   61.1780 C   0  0  0  0  0  3  0  0  0  0  0  0
   39.0900   75.9180   61.1450 C   0  0  0  0  0  3  0  0  0  0  0  0
   40.2260   76.0810   60.3840 C   0  0  0  0  0  0  0  0  0  0  0  0
   40.7450   77.3670   60.3790 C   0  0  0  0  0  3  0  0  0  0  0  0
   41.8660   77.6350   59.6590 C   0  0  0  0  0  3  0  0  0  0  0  0
   42.4660   76.6270   58.9460 C   0  0  0  0  0  3  0  0  0  0  0  0
   41.9340   75.3620   58.9670 C   0  0  0  0  0  3  0  0  0  0  0  0
   40.8060   75.0250   59.6720 C   0  0  0  0  0  0  0  0  0  0  0  0
  1  4  1  1  0  0  0
  1  2  1  0  0  0  0
  1  3  1  0  0  0  0
  2  3  1  0  0  0  0
  2  6  1  0  0  0  0
  3  7  1  1  0  0  0
  5  2  1  0  0  0  0
  8  1  1  0  0  0  0
  9 14  1  0  0  0  0
 10  9  2  0  0  0  0
 10 11  1  0  0  0  0
 11 17  1  0  0  0  0
 11 12  2  0  0  0  0
 12 13  1  0  0  0  0
 13  8  1  0  0  0  0
 14 13  2  0  0  0  0
 15  9  1  0  0  0  0
 16 10  1  0  0  0  0
 18  3  1  0  0  0  0
 18 19  1  0  0  0  0
 19 20  1  0  0  0  0
 20 22  2  0  0  0  0
 21 20  1  0  0  0  0
 23 22  1  0  0  0  0
 24 23  2  0  0  0  0
 25 24  1  0  0  0  0
 26 25  2  0  0  0  0
 27 28  2  0  0  0  0
 27 26  1  0  0  0  0
 28 29  1  0  0  0  0
 29 19  2  0  0  0  0
 29 24  1  0  0  0  0
M  END
>  <minimizedAffinity>
-5.24153328

$$$$
