
 OpenBabel03212520203D

 38 41  0  0  0  0  0  0  0  0999 V2000
   43.1350   83.9830   58.6730 Cl  0  0  0  0  0  0  0  0  0  0  0  0
   41.9080   82.7960   58.2610 C   0  0  0  0  0  0  0  0  0  0  0  0
   41.0230   82.2760   59.2000 C   0  0  0  0  0  0  0  0  0  0  0  0
   40.1140   81.3490   58.7200 C   0  0  0  0  0  0  0  0  0  0  0  0
   40.0110   80.9050   57.4180 C   0  0  0  0  0  0  0  0  0  0  0  0
   40.8970   81.4420   56.5390 C   0  0  0  0  0  0  0  0  0  0  0  0
   40.8640   80.9520   54.8450 Cl  0  0  0  0  0  0  0  0  0  0  0  0
   41.8400   82.3800   56.9530 C   0  0  0  0  0  0  0  0  0  0  0  0
   39.4350   80.9580   59.4690 H   0  0  0  0  0  0  0  0  0  0  0  0
   39.2790   80.1830   57.1220 H   0  0  0  0  0  0  0  0  0  0  0  0
   41.9400   82.1810   61.5610 C   0  0  0  0  0  0  0  0  0  0  0  0
   41.1040   82.7120   60.5420 C   0  0  0  0  0  0  0  0  0  0  0  0
   40.2800   83.7680   60.8910 C   0  0  0  0  0  0  0  0  0  0  0  0
   40.3390   84.2080   62.1800 N   0  0  0  0  0  0  0  0  0  0  0  0
   41.1380   83.6880   63.1210 C   0  0  0  0  0  0  0  0  0  0  0  0
   41.9540   82.6560   62.8060 N   0  0  0  0  0  0  0  0  0  0  0  0
   42.5680   81.3630   61.2560 H   0  0  0  0  0  0  0  0  0  0  0  0
   39.6050   84.2470   60.2000 H   0  0  0  0  0  0  0  0  0  0  0  0
   41.0330   84.3290   64.4530 C   0  0  0  0  0  0  0  0  0  0  0  0
   40.6850   85.6410   64.3910 F   0  0  0  0  0  0  0  0  0  0  0  0
   40.0930   83.6490   65.2290 F   0  0  0  0  0  0  0  0  0  0  0  0
   42.2890   84.3030   65.1050 F   0  0  0  0  0  0  0  0  0  0  0  0
   42.7190   82.8930   56.0100 O   0  0  0  0  0  0  0  0  0  0  0  0
   42.4430   84.0350   55.2290 C   0  0  0  0  0  0  0  0  0  0  0  0
   41.5350   84.5530   55.5460 H   0  0  0  0  0  0  0  0  0  0  0  0
   42.3520   83.6840   54.1780 H   0  0  0  0  0  0  0  0  0  0  0  0
   43.5460   84.9020   55.3700 O   0  0  0  0  0  0  0  0  0  0  0  0
   44.8560   84.5950   55.1280 C   0  0  0  0  0  0  0  0  0  0  0  0
   45.3390   83.7930   54.0920 C   0  0  0  0  0  0  0  0  0  0  0  0
   44.5840   83.3780   53.4170 H   0  0  0  0  0  0  0  0  0  0  0  0
   46.6970   83.5470   53.9400 C   0  0  0  0  0  0  0  0  0  0  0  0
   47.5760   84.1240   54.8580 C   0  0  0  0  0  0  0  0  0  0  0  0
   47.1370   84.9240   55.8960 C   0  0  0  0  0  0  0  0  0  0  0  0
   48.0160   85.4810   56.7840 C   0  0  0  0  0  0  0  0  0  0  0  0
   47.5960   86.2810   57.8270 C   0  0  0  0  0  0  0  0  0  0  0  0
   46.2430   86.5190   57.9680 C   0  0  0  0  0  0  0  0  0  0  0  0
   45.3700   85.9510   57.0660 C   0  0  0  0  0  0  0  0  0  0  0  0
   45.7640   85.1520   56.0200 C   0  0  0  0  0  0  0  0  0  0  0  0
  2  1  1  0  0  0  0
  2  3  1  0  0  0  0
  3 12  1  0  0  0  0
  4  3  2  0  0  0  0
  4  9  1  0  0  0  0
  5  4  1  0  0  0  0
  6  8  1  0  0  0  0
  6  5  2  0  0  0  0
  7  6  1  0  0  0  0
  8  2  2  0  0  0  0
 10  5  1  0  0  0  0
 11 16  1  0  0  0  0
 12 13  1  0  0  0  0
 12 11  2  0  0  0  0
 13 14  2  0  0  0  0
 14 15  1  0  0  0  0
 15 19  1  0  0  0  0
 16 15  2  0  0  0  0
 17 11  1  0  0  0  0
 18 13  1  0  0  0  0
 19 22  1  0  0  0  0
 19 21  1  0  0  0  0
 20 19  1  0  0  0  0
 23  8  1  0  0  0  0
 24 27  1  0  0  0  0
 24 25  1  0  0  0  0
 24 23  1  0  0  0  0
 26 24  1  0  0  0  0
 28 27  1  0  0  0  0
 28 38  1  0  0  0  0
 29 28  2  0  0  0  0
 30 29  1  0  0  0  0
 31 29  1  0  0  0  0
 31 32  2  0  0  0  0
 32 33  1  0  0  0  0
 33 38  2  0  0  0  0
 33 34  1  0  0  0  0
 34 35  2  0  0  0  0
 35 36  1  0  0  0  0
 37 36  2  0  0  0  0
 38 37  1  0  0  0  0
M  END
>  <minimizedAffinity>
-5.10175514

>  <minimizedRMSD>
0.378189474

$$$$
