
 OpenBabel03212520413D

 29 32  0  0  1  0  0  0  0  0999 V2000
   43.5050   86.2030   61.0220 C   0  0  1  0  0  0  0  0  0  0  0  0
   44.4090   87.2670   61.6380 C   0  0  0  0  0  0  0  0  0  0  0  0
   44.5960   86.7740   60.2010 C   0  0  1  0  0  0  0  0  0  0  0  0
   42.4410   86.5440   60.9180 H   0  0  0  0  0  0  0  0  0  0  0  0
   45.1920   86.9750   62.3420 H   0  0  0  0  0  0  0  0  0  0  0  0
   44.0230   88.2780   61.7710 H   0  0  0  0  0  0  0  0  0  0  0  0
   44.2480   87.4930   59.4280 H   0  0  0  0  0  0  0  0  0  0  0  0
   43.7040   84.9320   61.6290 O   0  0  0  0  0  0  0  0  0  0  0  0
   41.1650   82.6290   62.8010 C   0  0  0  0  0  0  0  0  0  0  0  0
   40.6850   83.2930   63.9290 C   0  0  0  0  0  0  0  0  0  0  0  0
   41.2590   84.5420   64.2630 C   0  0  0  0  0  0  0  0  0  0  0  0
   42.2340   84.9760   63.4410 N   0  0  0  0  0  0  0  0  0  0  0  0
   42.6970   84.3320   62.3510 C   0  0  0  0  0  0  0  0  0  0  0  0
   42.1680   83.1550   62.0230 N   0  0  0  0  0  0  0  0  0  0  0  0
   40.7620   81.6680   62.5000 H   0  0  0  0  0  0  0  0  0  0  0  0
   39.9020   82.8730   64.5280 H   0  0  0  0  0  0  0  0  0  0  0  0
   40.9240   85.0850   65.1140 H   0  0  0  0  0  0  0  0  0  0  0  0
   45.6680   85.9550   59.9210 O   0  0  0  0  0  0  0  0  0  0  0  0
   45.9370   85.5540   58.6270 C   0  0  0  0  0  0  0  0  0  0  0  0
   45.1710   85.5240   57.5010 C   0  0  0  0  0  0  0  0  0  0  0  0
   44.1660   85.8830   57.6550 H   0  0  0  0  0  0  0  0  0  0  0  0
   45.6500   85.0760   56.2900 C   0  0  0  0  0  3  0  0  0  0  0  0
   46.9470   84.6290   56.1500 C   0  0  0  0  0  3  0  0  0  0  0  0
   47.7340   84.6530   57.2800 C   0  0  0  0  0  0  0  0  0  0  0  0
   49.0300   84.1940   57.0960 C   0  0  0  0  0  3  0  0  0  0  0  0
   49.8900   84.1750   58.1480 C   0  0  0  0  0  3  0  0  0  0  0  0
   49.4600   84.6130   59.3770 C   0  0  0  0  0  3  0  0  0  0  0  0
   48.1740   85.0610   59.5330 C   0  0  0  0  0  3  0  0  0  0  0  0
   47.2560   85.1060   58.5150 C   0  0  0  0  0  0  0  0  0  0  0  0
  1  4  1  6  0  0  0
  1  8  1  0  0  0  0
  1  2  1  0  0  0  0
  2  6  1  0  0  0  0
  2  5  1  0  0  0  0
  3  7  1  6  0  0  0
  3  1  1  0  0  0  0
  3  2  1  0  0  0  0
  8 13  1  0  0  0  0
  9 10  1  0  0  0  0
 10 11  2  0  0  0  0
 10 16  1  0  0  0  0
 11 17  1  0  0  0  0
 12 11  1  0  0  0  0
 13 12  2  0  0  0  0
 14 13  1  0  0  0  0
 14  9  2  0  0  0  0
 15  9  1  0  0  0  0
 18  3  1  0  0  0  0
 19 18  1  0  0  0  0
 20 21  1  0  0  0  0
 20 19  2  0  0  0  0
 22 20  1  0  0  0  0
 23 22  2  0  0  0  0
 23 24  1  0  0  0  0
 24 29  1  0  0  0  0
 25 24  2  0  0  0  0
 25 26  1  0  0  0  0
 26 27  2  0  0  0  0
 27 28  1  0  0  0  0
 29 19  1  0  0  0  0
 29 28  2  0  0  0  0
M  END
>  <minimizedAffinity>
-3.81069541

>  <minimizedRMSD>
4.42649889

$$$$
