
 OpenBabel03212520413D

 29 32  0  0  1  0  0  0  0  0999 V2000
   42.2640   85.5640   59.8020 C   0  0  1  0  0  0  0  0  0  0  0  0
   43.5430   86.3780   59.6300 C   0  0  0  0  0  0  0  0  0  0  0  0
   42.8590   85.6800   58.4520 C   0  0  1  0  0  0  0  0  0  0  0  0
   41.3910   86.1910   60.1230 H   0  0  0  0  0  0  0  0  0  0  0  0
   44.5040   85.9550   59.9370 H   0  0  0  0  0  0  0  0  0  0  0  0
   43.4880   87.4660   59.6640 H   0  0  0  0  0  0  0  0  0  0  0  0
   42.3100   86.3690   57.7760 H   0  0  0  0  0  0  0  0  0  0  0  0
   42.4960   84.3760   60.5500 O   0  0  0  0  0  0  0  0  0  0  0  0
   40.0550   83.5300   63.0890 C   0  0  0  0  0  0  0  0  0  0  0  0
   40.7620   83.8080   64.2590 C   0  0  0  0  0  0  0  0  0  0  0  0
   42.0860   84.2890   64.1410 C   0  0  0  0  0  0  0  0  0  0  0  0
   42.5450   84.4350   62.8820 N   0  0  0  0  0  0  0  0  0  0  0  0
   41.8600   84.1650   61.7520 C   0  0  0  0  0  0  0  0  0  0  0  0
   40.6130   83.7110   61.8470 N   0  0  0  0  0  0  0  0  0  0  0  0
   39.0370   83.1580   63.1220 H   0  0  0  0  0  0  0  0  0  0  0  0
   40.3170   83.6630   65.2230 H   0  0  0  0  0  0  0  0  0  0  0  0
   42.6630   84.5150   65.0040 H   0  0  0  0  0  0  0  0  0  0  0  0
   43.4480   84.5510   57.9250 O   0  0  0  0  0  0  0  0  0  0  0  0
   43.4540   84.3220   56.5640 C   0  0  0  0  0  0  0  0  0  0  0  0
   42.4610   84.0080   55.6850 C   0  0  0  0  0  0  0  0  0  0  0  0
   41.4900   83.9240   56.1460 H   0  0  0  0  0  0  0  0  0  0  0  0
   42.6910   83.8200   54.3400 C   0  0  0  0  0  3  0  0  0  0  0  0
   43.9560   83.9400   53.8050 C   0  0  0  0  0  3  0  0  0  0  0  0
   44.9710   84.2570   54.6800 C   0  0  0  0  0  0  0  0  0  0  0  0
   46.2270   84.3670   54.1000 C   0  0  0  0  0  3  0  0  0  0  0  0
   47.2990   84.6770   54.8760 C   0  0  0  0  0  3  0  0  0  0  0  0
   47.1200   84.8750   56.2240 C   0  0  0  0  0  3  0  0  0  0  0  0
   45.8700   84.7590   56.7730 C   0  0  0  0  0  3  0  0  0  0  0  0
   44.7470   84.4500   56.0480 C   0  0  0  0  0  0  0  0  0  0  0  0
  1  4  1  1  0  0  0
  1  8  1  0  0  0  0
  2  6  1  0  0  0  0
  2  1  1  0  0  0  0
  2  5  1  0  0  0  0
  3  7  1  6  0  0  0
  3  2  1  0  0  0  0
  3  1  1  0  0  0  0
  8 13  1  0  0  0  0
  9 15  1  0  0  0  0
  9 10  1  0  0  0  0
 10 16  1  0  0  0  0
 11 10  2  0  0  0  0
 11 17  1  0  0  0  0
 12 11  1  0  0  0  0
 13 14  1  0  0  0  0
 13 12  2  0  0  0  0
 14  9  2  0  0  0  0
 18  3  1  0  0  0  0
 19 18  1  0  0  0  0
 20 21  1  0  0  0  0
 20 19  2  0  0  0  0
 22 20  1  0  0  0  0
 23 22  2  0  0  0  0
 23 24  1  0  0  0  0
 24 29  1  0  0  0  0
 25 24  2  0  0  0  0
 25 26  1  0  0  0  0
 26 27  2  0  0  0  0
 27 28  1  0  0  0  0
 29 19  1  0  0  0  0
 29 28  2  0  0  0  0
M  END
>  <minimizedAffinity>
-3.87050915

>  <minimizedRMSD>
1.67993164

$$$$
