
 OpenBabel03212520403D

 29 32  0  0  1  0  0  0  0  0999 V2000
   42.3260   85.4860   59.7700 C   0  0  1  0  0  0  0  0  0  0  0  0
   43.5430   86.3920   59.6080 C   0  0  0  0  0  0  0  0  0  0  0  0
   42.9790   85.5730   58.4450 C   0  0  1  0  0  0  0  0  0  0  0  0
   41.3900   86.0560   60.0100 H   0  0  0  0  0  0  0  0  0  0  0  0
   44.5170   86.0680   59.9850 H   0  0  0  0  0  0  0  0  0  0  0  0
   43.3990   87.4720   59.5720 H   0  0  0  0  0  0  0  0  0  0  0  0
   42.4120   86.1740   57.7020 H   0  0  0  0  0  0  0  0  0  0  0  0
   42.6140   84.3660   60.5990 O   0  0  0  0  0  0  0  0  0  0  0  0
   40.0120   83.4970   62.9650 C   0  0  0  0  0  0  0  0  0  0  0  0
   40.6390   83.7640   64.1810 C   0  0  0  0  0  0  0  0  0  0  0  0
   41.9690   84.2470   64.1540 C   0  0  0  0  0  0  0  0  0  0  0  0
   42.5090   84.4040   62.9300 N   0  0  0  0  0  0  0  0  0  0  0  0
   41.9000   84.1450   61.7550 C   0  0  0  0  0  0  0  0  0  0  0  0
   40.6490   83.6890   61.7630 N   0  0  0  0  0  0  0  0  0  0  0  0
   38.9940   83.1240   62.9270 H   0  0  0  0  0  0  0  0  0  0  0  0
   40.1330   83.6110   65.1120 H   0  0  0  0  0  0  0  0  0  0  0  0
   42.4870   84.4650   65.0560 H   0  0  0  0  0  0  0  0  0  0  0  0
   43.6830   84.4680   58.0160 O   0  0  0  0  0  0  0  0  0  0  0  0
   43.4750   83.9370   56.7590 C   0  0  0  0  0  0  0  0  0  0  0  0
   42.5340   84.1880   55.8050 C   0  0  0  0  0  0  0  0  0  0  0  0
   41.8220   84.9440   56.0920 H   0  0  0  0  0  0  0  0  0  0  0  0
   42.5100   83.5290   54.5950 C   0  0  0  0  0  3  0  0  0  0  0  0
   43.4480   82.5670   54.2820 C   0  0  0  0  0  3  0  0  0  0  0  0
   44.4050   82.3030   55.2360 C   0  0  0  0  0  0  0  0  0  0  0  0
   45.3280   81.3300   54.8800 C   0  0  0  0  0  3  0  0  0  0  0  0
   46.3160   80.9930   55.7500 C   0  0  0  0  0  3  0  0  0  0  0  0
   46.3830   81.6220   56.9700 C   0  0  0  0  0  3  0  0  0  0  0  0
   45.4590   82.5800   57.2990 C   0  0  0  0  0  3  0  0  0  0  0  0
   44.4380   82.9670   56.4680 C   0  0  0  0  0  0  0  0  0  0  0  0
  1  4  1  1  0  0  0
  1  8  1  0  0  0  0
  2  1  1  0  0  0  0
  2  5  1  0  0  0  0
  3  7  1  6  0  0  0
  3  2  1  0  0  0  0
  3  1  1  0  0  0  0
  6  2  1  0  0  0  0
  8 13  1  0  0  0  0
  9 10  1  0  0  0  0
 10 16  1  0  0  0  0
 11 10  2  0  0  0  0
 11 17  1  0  0  0  0
 12 11  1  0  0  0  0
 13 14  1  0  0  0  0
 13 12  2  0  0  0  0
 14  9  2  0  0  0  0
 15  9  1  0  0  0  0
 18  3  1  0  0  0  0
 19 18  1  0  0  0  0
 20 21  1  0  0  0  0
 20 19  2  0  0  0  0
 22 20  1  0  0  0  0
 23 22  2  0  0  0  0
 23 24  1  0  0  0  0
 24 29  1  0  0  0  0
 25 24  2  0  0  0  0
 25 26  1  0  0  0  0
 26 27  2  0  0  0  0
 27 28  1  0  0  0  0
 29 19  1  0  0  0  0
 29 28  2  0  0  0  0
M  END
>  <minimizedAffinity>
-3.69675803

>  <minimizedRMSD>
0.871982574

$$$$
