
 OpenBabel03212520413D

 29 32  0  0  1  0  0  0  0  0999 V2000
   42.3680   85.4130   59.7970 C   0  0  1  0  0  0  0  0  0  0  0  0
   43.4650   86.4370   59.5190 C   0  0  0  0  0  0  0  0  0  0  0  0
   43.0080   85.4280   58.4630 C   0  0  1  0  0  0  0  0  0  0  0  0
   41.3690   85.8880   59.9820 H   0  0  0  0  0  0  0  0  0  0  0  0
   44.4710   86.2790   59.9190 H   0  0  0  0  0  0  0  0  0  0  0  0
   43.1900   87.4790   59.3630 H   0  0  0  0  0  0  0  0  0  0  0  0
   42.3730   85.8670   57.6640 H   0  0  0  0  0  0  0  0  0  0  0  0
   42.7890   84.4380   60.7440 O   0  0  0  0  0  0  0  0  0  0  0  0
   40.0550   83.4800   62.9190 C   0  0  0  0  0  0  0  0  0  0  0  0
   40.6380   83.6190   64.1780 C   0  0  0  0  0  0  0  0  0  0  0  0
   41.9840   84.0480   64.2470 C   0  0  0  0  0  0  0  0  0  0  0  0
   42.5830   84.2850   63.0630 N   0  0  0  0  0  0  0  0  0  0  0  0
   42.0180   84.1500   61.8470 C   0  0  0  0  0  0  0  0  0  0  0  0
   40.7520   83.7460   61.7660 N   0  0  0  0  0  0  0  0  0  0  0  0
   39.0270   83.1530   62.8090 H   0  0  0  0  0  0  0  0  0  0  0  0
   40.0860   83.4080   65.0710 H   0  0  0  0  0  0  0  0  0  0  0  0
   42.4710   84.1690   65.1840 H   0  0  0  0  0  0  0  0  0  0  0  0
   43.8440   84.3760   58.1540 O   0  0  0  0  0  0  0  0  0  0  0  0
   43.9080   83.8730   56.8700 C   0  0  0  0  0  0  0  0  0  0  0  0
   44.6770   84.2050   55.7960 C   0  0  0  0  0  0  0  0  0  0  0  0
   45.3640   85.0110   55.9910 H   0  0  0  0  0  0  0  0  0  0  0  0
   44.5760   83.5600   54.5820 C   0  0  0  0  0  3  0  0  0  0  0  0
   43.6770   82.5320   54.3880 C   0  0  0  0  0  3  0  0  0  0  0  0
   42.8920   82.1850   55.4650 C   0  0  0  0  0  0  0  0  0  0  0  0
   42.0020   81.1470   55.2270 C   0  0  0  0  0  3  0  0  0  0  0  0
   41.1800   80.7260   56.2240 C   0  0  0  0  0  3  0  0  0  0  0  0
   41.2440   81.3380   57.4520 C   0  0  0  0  0  3  0  0  0  0  0  0
   42.1310   82.3610   57.6630 C   0  0  0  0  0  3  0  0  0  0  0  0
   42.9880   82.8340   56.7010 C   0  0  0  0  0  0  0  0  0  0  0  0
  1  4  1  1  0  0  0
  1  8  1  0  0  0  0
  2  1  1  0  0  0  0
  2  5  1  0  0  0  0
  3  7  1  6  0  0  0
  3  2  1  0  0  0  0
  3  1  1  0  0  0  0
  6  2  1  0  0  0  0
  8 13  1  0  0  0  0
  9 10  1  0  0  0  0
 10 11  2  0  0  0  0
 10 16  1  0  0  0  0
 11 17  1  0  0  0  0
 12 11  1  0  0  0  0
 13 12  2  0  0  0  0
 14 13  1  0  0  0  0
 14  9  2  0  0  0  0
 15  9  1  0  0  0  0
 18  3  1  0  0  0  0
 19 18  1  0  0  0  0
 20 21  1  0  0  0  0
 20 19  2  0  0  0  0
 22 20  1  0  0  0  0
 23 22  2  0  0  0  0
 23 24  1  0  0  0  0
 24 29  1  0  0  0  0
 25 24  2  0  0  0  0
 25 26  1  0  0  0  0
 26 27  2  0  0  0  0
 27 28  1  0  0  0  0
 29 19  1  0  0  0  0
 29 28  2  0  0  0  0
M  END
>  <minimizedAffinity>
-3.89247704

>  <minimizedRMSD>
0.355650157

$$$$
