
 OpenBabel03212520413D

 29 32  0  0  1  0  0  0  0  0999 V2000
   42.2550   85.5700   59.8010 C   0  0  1  0  0  0  0  0  0  0  0  0
   43.5320   86.3900   59.6370 C   0  0  0  0  0  0  0  0  0  0  0  0
   42.8540   85.6940   58.4540 C   0  0  1  0  0  0  0  0  0  0  0  0
   41.3780   86.1930   60.1220 H   0  0  0  0  0  0  0  0  0  0  0  0
   44.4920   85.9690   59.9450 H   0  0  0  0  0  0  0  0  0  0  0  0
   43.4720   87.4770   59.6750 H   0  0  0  0  0  0  0  0  0  0  0  0
   42.3040   86.3840   57.7790 H   0  0  0  0  0  0  0  0  0  0  0  0
   42.4890   84.3800   60.5450 O   0  0  0  0  0  0  0  0  0  0  0  0
   40.0560   83.5250   63.0900 C   0  0  0  0  0  0  0  0  0  0  0  0
   40.7650   83.8020   64.2580 C   0  0  0  0  0  0  0  0  0  0  0  0
   42.0890   84.2860   64.1370 C   0  0  0  0  0  0  0  0  0  0  0  0
   42.5440   84.4350   62.8770 N   0  0  0  0  0  0  0  0  0  0  0  0
   41.8570   84.1660   61.7490 C   0  0  0  0  0  0  0  0  0  0  0  0
   40.6100   83.7090   61.8460 N   0  0  0  0  0  0  0  0  0  0  0  0
   39.0390   83.1510   63.1250 H   0  0  0  0  0  0  0  0  0  0  0  0
   40.3240   83.6550   65.2230 H   0  0  0  0  0  0  0  0  0  0  0  0
   42.6680   84.5120   64.9990 H   0  0  0  0  0  0  0  0  0  0  0  0
   43.4490   84.5690   57.9240 O   0  0  0  0  0  0  0  0  0  0  0  0
   43.4570   84.3450   56.5620 C   0  0  0  0  0  0  0  0  0  0  0  0
   42.4710   83.9980   55.6870 C   0  0  0  0  0  0  0  0  0  0  0  0
   41.5070   83.8780   56.1520 H   0  0  0  0  0  0  0  0  0  0  0  0
   42.7030   83.8210   54.3400 C   0  0  0  0  0  3  0  0  0  0  0  0
   43.9610   83.9870   53.8000 C   0  0  0  0  0  3  0  0  0  0  0  0
   44.9670   84.3380   54.6720 C   0  0  0  0  0  0  0  0  0  0  0  0
   46.2150   84.4950   54.0860 C   0  0  0  0  0  3  0  0  0  0  0  0
   47.2800   84.8400   54.8590 C   0  0  0  0  0  3  0  0  0  0  0  0
   47.1000   85.0280   56.2080 C   0  0  0  0  0  3  0  0  0  0  0  0
   45.8570   84.8670   56.7630 C   0  0  0  0  0  3  0  0  0  0  0  0
   44.7420   84.5200   56.0410 C   0  0  0  0  0  0  0  0  0  0  0  0
  1  4  1  1  0  0  0
  1  8  1  0  0  0  0
  2  6  1  0  0  0  0
  2  1  1  0  0  0  0
  2  5  1  0  0  0  0
  3  7  1  6  0  0  0
  3  2  1  0  0  0  0
  3  1  1  0  0  0  0
  8 13  1  0  0  0  0
  9 15  1  0  0  0  0
  9 10  1  0  0  0  0
 10 16  1  0  0  0  0
 11 10  2  0  0  0  0
 11 17  1  0  0  0  0
 12 11  1  0  0  0  0
 13 14  1  0  0  0  0
 13 12  2  0  0  0  0
 14  9  2  0  0  0  0
 18  3  1  0  0  0  0
 19 18  1  0  0  0  0
 20 21  1  0  0  0  0
 20 19  2  0  0  0  0
 22 20  1  0  0  0  0
 23 22  2  0  0  0  0
 23 24  1  0  0  0  0
 24 29  1  0  0  0  0
 25 24  2  0  0  0  0
 25 26  1  0  0  0  0
 26 27  2  0  0  0  0
 27 28  1  0  0  0  0
 29 19  1  0  0  0  0
 29 28  2  0  0  0  0
M  END
>  <minimizedAffinity>
-3.88135815

>  <minimizedRMSD>
1.45361209

$$$$
