
 OpenBabel03212520203D

 38 41  0  0  0  0  0  0  0  0999 V2000
   43.0870   83.9700   58.5710 Cl  0  0  0  0  0  0  0  0  0  0  0  0
   41.8670   82.7680   58.1850 C   0  0  0  0  0  0  0  0  0  0  0  0
   41.0040   82.2420   59.1410 C   0  0  0  0  0  0  0  0  0  0  0  0
   40.0970   81.3030   58.6810 C   0  0  0  0  0  0  0  0  0  0  0  0
   39.9770   80.8520   57.3820 C   0  0  0  0  0  0  0  0  0  0  0  0
   40.8420   81.3950   56.4860 C   0  0  0  0  0  0  0  0  0  0  0  0
   40.7860   80.8980   54.7950 Cl  0  0  0  0  0  0  0  0  0  0  0  0
   41.7810   82.3460   56.8800 C   0  0  0  0  0  0  0  0  0  0  0  0
   39.4350   80.9080   59.4420 H   0  0  0  0  0  0  0  0  0  0  0  0
   39.2480   80.1210   57.1010 H   0  0  0  0  0  0  0  0  0  0  0  0
   41.9700   82.1760   61.4830 C   0  0  0  0  0  0  0  0  0  0  0  0
   41.1030   82.6850   60.4800 C   0  0  0  0  0  0  0  0  0  0  0  0
   40.2630   83.7240   60.8420 C   0  0  0  0  0  0  0  0  0  0  0  0
   40.3380   84.1710   62.1270 N   0  0  0  0  0  0  0  0  0  0  0  0
   41.1670   83.6710   63.0540 C   0  0  0  0  0  0  0  0  0  0  0  0
   41.9990   82.6550   62.7260 N   0  0  0  0  0  0  0  0  0  0  0  0
   42.6080   81.3710   61.1680 H   0  0  0  0  0  0  0  0  0  0  0  0
   39.5640   84.1870   60.1640 H   0  0  0  0  0  0  0  0  0  0  0  0
   41.0750   84.3140   64.3860 C   0  0  0  0  0  0  0  0  0  0  0  0
   40.7500   85.6320   64.3240 F   0  0  0  0  0  0  0  0  0  0  0  0
   40.1250   83.6520   65.1640 F   0  0  0  0  0  0  0  0  0  0  0  0
   42.3310   84.2660   65.0360 F   0  0  0  0  0  0  0  0  0  0  0  0
   42.6380   82.8650   55.9210 O   0  0  0  0  0  0  0  0  0  0  0  0
   42.3540   84.0230   55.1680 C   0  0  0  0  0  0  0  0  0  0  0  0
   41.4680   84.5510   55.5260 H   0  0  0  0  0  0  0  0  0  0  0  0
   42.2200   83.6910   54.1150 H   0  0  0  0  0  0  0  0  0  0  0  0
   43.4760   84.8690   55.2830 O   0  0  0  0  0  0  0  0  0  0  0  0
   44.7760   84.5340   55.0200 C   0  0  0  0  0  0  0  0  0  0  0  0
   45.6750   83.9520   55.9170 C   0  0  0  0  0  0  0  0  0  0  0  0
   45.2880   83.7520   56.9200 H   0  0  0  0  0  0  0  0  0  0  0  0
   46.9770   83.6520   55.5420 C   0  0  0  0  0  3  0  0  0  0  0  0
   47.3700   83.9490   54.2360 C   0  0  0  0  0  3  0  0  0  0  0  0
   46.5110   84.5240   53.3210 C   0  0  0  0  0  0  0  0  0  0  0  0
   46.9160   84.8080   52.0450 C   0  0  0  0  0  3  0  0  0  0  0  0
   46.0710   85.3820   51.1170 C   0  0  0  0  0  3  0  0  0  0  0  0
   44.7780   85.6760   51.5000 C   0  0  0  0  0  3  0  0  0  0  0  0
   44.3840   85.3850   52.7900 C   0  0  0  0  0  3  0  0  0  0  0  0
   45.2070   84.8140   53.7300 C   0  0  0  0  0  0  0  0  0  0  0  0
  2  1  1  0  0  0  0
  2  3  1  0  0  0  0
  3 12  1  0  0  0  0
  4  3  2  0  0  0  0
  4  9  1  0  0  0  0
  5  4  1  0  0  0  0
  6  8  1  0  0  0  0
  6  5  2  0  0  0  0
  7  6  1  0  0  0  0
  8  2  2  0  0  0  0
 10  5  1  0  0  0  0
 11 16  1  0  0  0  0
 12 13  1  0  0  0  0
 12 11  2  0  0  0  0
 13 14  2  0  0  0  0
 14 15  1  0  0  0  0
 15 19  1  0  0  0  0
 16 15  2  0  0  0  0
 17 11  1  0  0  0  0
 18 13  1  0  0  0  0
 19 22  1  0  0  0  0
 19 21  1  0  0  0  0
 20 19  1  0  0  0  0
 23  8  1  0  0  0  0
 24 27  1  0  0  0  0
 24 25  1  0  0  0  0
 24 23  1  0  0  0  0
 26 24  1  0  0  0  0
 28 27  1  0  0  0  0
 28 29  1  0  0  0  0
 29 30  1  0  0  0  0
 31 29  2  0  0  0  0
 32 31  1  0  0  0  0
 33 38  1  0  0  0  0
 33 32  2  0  0  0  0
 34 33  1  0  0  0  0
 35 36  1  0  0  0  0
 35 34  2  0  0  0  0
 36 37  2  0  0  0  0
 37 38  1  0  0  0  0
 38 28  2  0  0  0  0
M  END
>  <minimizedAffinity>
-4.97245979

>  <minimizedRMSD>
1.2059108

$$$$
