
 OpenBabel03212520203D

 38 41  0  0  0  0  0  0  0  0999 V2000
   43.0850   83.9710   58.5740 Cl  0  0  0  0  0  0  0  0  0  0  0  0
   41.8660   82.7680   58.1880 C   0  0  0  0  0  0  0  0  0  0  0  0
   41.0030   82.2420   59.1430 C   0  0  0  0  0  0  0  0  0  0  0  0
   40.0980   81.3020   58.6830 C   0  0  0  0  0  0  0  0  0  0  0  0
   39.9780   80.8510   57.3840 C   0  0  0  0  0  0  0  0  0  0  0  0
   40.8420   81.3950   56.4890 C   0  0  0  0  0  0  0  0  0  0  0  0
   40.7870   80.8970   54.7970 Cl  0  0  0  0  0  0  0  0  0  0  0  0
   41.7800   82.3460   56.8830 C   0  0  0  0  0  0  0  0  0  0  0  0
   39.4360   80.9070   59.4440 H   0  0  0  0  0  0  0  0  0  0  0  0
   39.2490   80.1200   57.1040 H   0  0  0  0  0  0  0  0  0  0  0  0
   41.9670   82.1740   61.4870 C   0  0  0  0  0  0  0  0  0  0  0  0
   41.1020   82.6850   60.4830 C   0  0  0  0  0  0  0  0  0  0  0  0
   40.2640   83.7250   60.8440 C   0  0  0  0  0  0  0  0  0  0  0  0
   40.3390   84.1720   62.1290 N   0  0  0  0  0  0  0  0  0  0  0  0
   41.1660   83.6710   63.0570 C   0  0  0  0  0  0  0  0  0  0  0  0
   41.9960   82.6530   62.7290 N   0  0  0  0  0  0  0  0  0  0  0  0
   42.6040   81.3670   61.1720 H   0  0  0  0  0  0  0  0  0  0  0  0
   39.5670   84.1890   60.1640 H   0  0  0  0  0  0  0  0  0  0  0  0
   41.0740   84.3150   64.3890 C   0  0  0  0  0  0  0  0  0  0  0  0
   40.7480   85.6320   64.3260 F   0  0  0  0  0  0  0  0  0  0  0  0
   40.1250   83.6520   65.1670 F   0  0  0  0  0  0  0  0  0  0  0  0
   42.3310   84.2680   65.0380 F   0  0  0  0  0  0  0  0  0  0  0  0
   42.6370   82.8660   55.9230 O   0  0  0  0  0  0  0  0  0  0  0  0
   42.3530   84.0250   55.1720 C   0  0  0  0  0  0  0  0  0  0  0  0
   41.4680   84.5540   55.5310 H   0  0  0  0  0  0  0  0  0  0  0  0
   42.2170   83.6940   54.1190 H   0  0  0  0  0  0  0  0  0  0  0  0
   43.4760   84.8700   55.2860 O   0  0  0  0  0  0  0  0  0  0  0  0
   44.7750   84.5330   55.0240 C   0  0  0  0  0  0  0  0  0  0  0  0
   45.6740   83.9510   55.9220 C   0  0  0  0  0  0  0  0  0  0  0  0
   45.2870   83.7520   56.9250 H   0  0  0  0  0  0  0  0  0  0  0  0
   46.9760   83.6490   55.5460 C   0  0  0  0  0  3  0  0  0  0  0  0
   47.3690   83.9440   54.2400 C   0  0  0  0  0  3  0  0  0  0  0  0
   46.5100   84.5200   53.3230 C   0  0  0  0  0  0  0  0  0  0  0  0
   46.9150   84.8010   52.0480 C   0  0  0  0  0  3  0  0  0  0  0  0
   46.0710   85.3750   51.1200 C   0  0  0  0  0  3  0  0  0  0  0  0
   44.7780   85.6720   51.5030 C   0  0  0  0  0  3  0  0  0  0  0  0
   44.3840   85.3830   52.7920 C   0  0  0  0  0  3  0  0  0  0  0  0
   45.2050   84.8110   53.7330 C   0  0  0  0  0  0  0  0  0  0  0  0
  2  1  1  0  0  0  0
  2  3  1  0  0  0  0
  3 12  1  0  0  0  0
  4  3  2  0  0  0  0
  4  9  1  0  0  0  0
  5  4  1  0  0  0  0
  6  8  1  0  0  0  0
  6  5  2  0  0  0  0
  7  6  1  0  0  0  0
  8  2  2  0  0  0  0
 10  5  1  0  0  0  0
 11 16  1  0  0  0  0
 12 13  1  0  0  0  0
 12 11  2  0  0  0  0
 13 14  2  0  0  0  0
 14 15  1  0  0  0  0
 15 19  1  0  0  0  0
 16 15  2  0  0  0  0
 17 11  1  0  0  0  0
 18 13  1  0  0  0  0
 19 22  1  0  0  0  0
 19 21  1  0  0  0  0
 20 19  1  0  0  0  0
 23  8  1  0  0  0  0
 24 27  1  0  0  0  0
 24 25  1  0  0  0  0
 24 23  1  0  0  0  0
 26 24  1  0  0  0  0
 28 27  1  0  0  0  0
 28 29  1  0  0  0  0
 29 30  1  0  0  0  0
 31 29  2  0  0  0  0
 32 31  1  0  0  0  0
 33 38  1  0  0  0  0
 33 32  2  0  0  0  0
 34 33  1  0  0  0  0
 35 36  1  0  0  0  0
 35 34  2  0  0  0  0
 36 37  2  0  0  0  0
 37 38  1  0  0  0  0
 38 28  2  0  0  0  0
M  END
>  <minimizedAffinity>
-4.97224522

>  <minimizedRMSD>
1.68031776

$$$$
