
 OpenBabel03212520493D

 30 33  0  0  0  0  0  0  0  0999 V2000
   41.5420   83.9470   61.5520 C   0  0  0  0  0  0  0  0  0  0  0  0
   41.0190   84.4240   62.7120 C   0  0  0  0  0  0  0  0  0  0  0  0
   40.5780   83.5410   63.7110 C   0  0  0  0  0  0  0  0  0  0  0  0
   40.6680   82.2220   63.5310 N   0  0  0  0  0  0  0  0  0  0  0  0
   41.1790   81.7440   62.3970 C   0  0  0  0  0  0  0  0  0  0  0  0
   41.5880   82.6270   61.4700 N   0  0  0  0  0  0  0  0  0  0  0  0
   40.9290   85.4860   62.8970 H   0  0  0  0  0  0  0  0  0  0  0  0
   40.1560   83.8800   64.6470 H   0  0  0  0  0  0  0  0  0  0  0  0
   43.5820   86.2770   59.6170 C   0  0  0  0  0  0  0  0  0  0  0  0
   42.8390   86.4190   58.4490 C   0  0  0  0  0  0  0  0  0  0  0  0
   41.6310   85.7180   58.3100 C   0  0  0  0  0  0  0  0  0  0  0  0
   41.2730   84.9300   59.3620 N   0  0  0  0  0  0  0  0  0  0  0  0
   42.0150   84.8160   60.4770 C   0  0  0  0  0  0  0  0  0  0  0  0
   43.1510   85.4780   60.6020 N   0  0  0  0  0  0  0  0  0  0  0  0
   44.7650   87.0370   59.6080 N   0  0  0  0  0  0  0  0  0  0  0  0
   43.0560   87.0200   57.5760 H   0  0  0  0  0  0  0  0  0  0  0  0
   41.0060   85.7790   57.4350 H   0  0  0  0  0  0  0  0  0  0  0  0
   45.7030   86.7640   60.0220 H   0  0  0  0  0  0  0  0  0  0  0  0
   44.8580   87.9660   59.1920 H   0  0  0  0  0  0  0  0  0  0  0  0
   41.3940   80.3610   61.9320 C   0  0  0  0  0  0  0  0  0  0  0  0
   40.3790   79.5220   61.4830 C   0  0  0  0  0  0  0  0  0  0  0  0
   39.3690   79.9130   61.4730 H   0  0  0  0  0  0  0  0  0  0  0  0
   40.5820   78.2390   61.0540 C   0  0  0  0  0  3  0  0  0  0  0  0
   41.8440   77.6970   61.0450 C   0  0  0  0  0  3  0  0  0  0  0  0
   42.8830   78.4820   61.4800 C   0  0  0  0  0  0  0  0  0  0  0  0
   44.1290   77.8940   61.4540 C   0  0  0  0  0  3  0  0  0  0  0  0
   45.2270   78.6100   61.8740 C   0  0  0  0  0  3  0  0  0  0  0  0
   45.0160   79.9210   62.3120 C   0  0  0  0  0  3  0  0  0  0  0  0
   43.7470   80.4340   62.3080 C   0  0  0  0  0  3  0  0  0  0  0  0
   42.6300   79.7640   61.9010 C   0  0  0  0  0  0  0  0  0  0  0  0
  1  2  1  0  0  0  0
  2  7  1  0  0  0  0
  2  3  2  0  0  0  0
  3  8  1  0  0  0  0
  4  3  1  0  0  0  0
  5  4  2  0  0  0  0
  6  1  2  0  0  0  0
  6  5  1  0  0  0  0
  9 14  1  0  0  0  0
 10  9  2  0  0  0  0
 11 10  1  0  0  0  0
 11 12  2  0  0  0  0
 12 13  1  0  0  0  0
 13 14  2  0  0  0  0
 13  1  1  0  0  0  0
 15  9  1  0  0  0  0
 15 18  1  0  0  0  0
 16 10  1  0  0  0  0
 17 11  1  0  0  0  0
 19 15  1  0  0  0  0
 20  5  1  0  0  0  0
 21 20  2  0  0  0  0
 22 21  1  0  0  0  0
 23 21  1  0  0  0  0
 24 23  2  0  0  0  0
 24 25  1  0  0  0  0
 25 30  1  0  0  0  0
 26 25  2  0  0  0  0
 26 27  1  0  0  0  0
 27 28  2  0  0  0  0
 29 28  1  0  0  0  0
 30 20  1  0  0  0  0
 30 29  2  0  0  0  0
M  END
>  <minimizedAffinity>
-6.07169294

>  <minimizedRMSD>
0.781557083

$$$$
