
 OpenBabel03212521083D

 38 42  0  0  0  0  0  0  0  0999 V2000
   40.4880   70.8220   55.8910 C   0  0  0  0  0  0  0  0  0  0  0  0
   40.3410   70.2680   54.6250 C   0  0  0  0  0  0  0  0  0  0  0  0
   40.7540   68.9780   54.3440 C   0  0  0  0  0  0  0  0  0  0  0  0
   41.3300   68.2170   55.3520 C   0  0  0  0  0  0  0  0  0  0  0  0
   41.4770   68.7730   56.6200 C   0  0  0  0  0  0  0  0  0  0  0  0
   41.0620   70.0580   56.8870 C   0  0  0  0  0  0  0  0  0  0  0  0
   39.8810   70.8990   53.8500 H   0  0  0  0  0  0  0  0  0  0  0  0
   40.6290   68.5710   53.3550 H   0  0  0  0  0  0  0  0  0  0  0  0
   41.6670   67.2020   55.1750 H   0  0  0  0  0  0  0  0  0  0  0  0
   41.9270   68.1830   57.4160 H   0  0  0  0  0  0  0  0  0  0  0  0
   38.3180   73.6280   56.7600 C   0  0  0  0  0  0  0  0  0  0  0  0
   39.1590   74.7360   56.5920 C   0  0  0  0  0  0  0  0  0  0  0  0
   40.5030   74.5150   56.1710 C   0  0  0  0  0  0  0  0  0  0  0  0
   40.8930   73.2330   55.9550 N   0  0  0  0  0  0  0  0  0  0  0  0
   40.0380   72.1770   56.1300 C   0  0  0  0  0  0  0  0  0  0  0  0
   38.7780   72.3890   56.5260 N   0  0  0  0  0  0  0  0  0  0  0  0
   37.3140   73.8620   57.0800 H   0  0  0  0  0  0  0  0  0  0  0  0
   38.8900   75.7760   56.7540 H   0  0  0  0  0  0  0  0  0  0  0  0
   41.2090   75.3180   56.0200 H   0  0  0  0  0  0  0  0  0  0  0  0
   41.2470   70.5850   58.2260 C   0  0  0  0  0  0  0  0  0  0  0  0
   41.9930   69.7550   59.0340 C   0  0  0  0  0  0  0  0  0  0  0  0
   42.2570   70.1290   60.3520 C   0  0  0  0  0  0  0  0  0  0  0  0
   41.7710   71.2870   60.7790 N   0  0  0  0  0  0  0  0  0  0  0  0
   41.0410   72.1130   60.0060 C   0  0  0  0  0  0  0  0  0  0  0  0
   40.8140   71.7180   58.7610 N   0  0  0  0  0  0  0  0  0  0  0  0
   42.4090   68.8080   58.7390 H   0  0  0  0  0  0  0  0  0  0  0  0
   42.8320   69.5360   61.0500 H   0  0  0  0  0  0  0  0  0  0  0  0
   40.4280   73.4050   60.2860 C   0  0  0  0  0  0  0  0  0  0  0  0
   39.1740   73.5610   60.8920 C   0  0  0  0  0  0  0  0  0  0  0  0
   38.6360   72.6590   61.1650 H   0  0  0  0  0  0  0  0  0  0  0  0
   38.6000   74.7710   61.1540 C   0  0  0  0  0  3  0  0  0  0  0  0
   39.2430   75.9400   60.8270 C   0  0  0  0  0  3  0  0  0  0  0  0
   40.4650   75.8560   60.2360 C   0  0  0  0  0  0  0  0  0  0  0  0
   41.0710   77.0500   59.9260 C   0  0  0  0  0  3  0  0  0  0  0  0
   42.3100   77.0590   59.3250 C   0  0  0  0  0  3  0  0  0  0  0  0
   42.8900   75.8270   59.0610 C   0  0  0  0  0  3  0  0  0  0  0  0
   42.2400   74.6600   59.3910 C   0  0  0  0  0  3  0  0  0  0  0  0
   41.0080   74.6170   59.9880 C   0  0  0  0  0  0  0  0  0  0  0  0
  1 15  1  0  0  0  0
  1  6  1  0  0  0  0
  2  1  2  0  0  0  0
  3  2  1  0  0  0  0
  3  4  2  0  0  0  0
  4  5  1  0  0  0  0
  5  6  2  0  0  0  0
  5 10  1  0  0  0  0
  6 20  1  0  0  0  0
  7  2  1  0  0  0  0
  8  3  1  0  0  0  0
  9  4  1  0  0  0  0
 11 17  1  0  0  0  0
 12 18  1  0  0  0  0
 12 11  1  0  0  0  0
 13 12  2  0  0  0  0
 14 15  2  0  0  0  0
 14 13  1  0  0  0  0
 15 16  1  0  0  0  0
 16 11  2  0  0  0  0
 19 13  1  0  0  0  0
 20 25  2  0  0  0  0
 20 21  1  0  0  0  0
 21 22  2  0  0  0  0
 22 23  1  0  0  0  0
 22 27  1  0  0  0  0
 24 28  1  0  0  0  0
 24 23  2  0  0  0  0
 25 24  1  0  0  0  0
 26 21  1  0  0  0  0
 28 29  1  0  0  0  0
 29 31  2  0  0  0  0
 29 30  1  0  0  0  0
 32 31  1  0  0  0  0
 33 32  2  0  0  0  0
 34 33  1  0  0  0  0
 35 34  2  0  0  0  0
 36 35  1  0  0  0  0
 36 37  2  0  0  0  0
 37 38  1  0  0  0  0
 38 33  1  0  0  0  0
 38 28  2  0  0  0  0
M  END
>  <minimizedAffinity>
-6.86600733

$$$$

 OpenBabel03212521083D

 38 42  0  0  0  0  0  0  0  0999 V2000
   40.1470   75.0820   58.2830 C   0  0  0  0  0  0  0  0  0  0  0  0
   39.1700   75.9900   57.8940 C   0  0  0  0  0  0  0  0  0  0  0  0
   39.0990   77.2600   58.4400 C   0  0  0  0  0  0  0  0  0  0  0  0
   40.0280   77.6350   59.4010 C   0  0  0  0  0  0  0  0  0  0  0  0
   41.0070   76.7240   59.7900 C   0  0  0  0  0  0  0  0  0  0  0  0
   41.0660   75.4640   59.2400 C   0  0  0  0  0  0  0  0  0  0  0  0
   38.4500   75.6600   57.1310 H   0  0  0  0  0  0  0  0  0  0  0  0
   38.3340   77.9460   58.1220 H   0  0  0  0  0  0  0  0  0  0  0  0
   40.0090   78.6200   59.8540 H   0  0  0  0  0  0  0  0  0  0  0  0
   41.7390   77.0110   60.5420 H   0  0  0  0  0  0  0  0  0  0  0  0
   39.3490   71.5820   57.6110 C   0  0  0  0  0  0  0  0  0  0  0  0
   40.2060   71.2650   56.5490 C   0  0  0  0  0  0  0  0  0  0  0  0
   41.0780   72.2770   56.0510 C   0  0  0  0  0  0  0  0  0  0  0  0
   41.0280   73.4990   56.6400 N   0  0  0  0  0  0  0  0  0  0  0  0
   40.1740   73.7670   57.6790 C   0  0  0  0  0  0  0  0  0  0  0  0
   39.3570   72.8150   58.1420 N   0  0  0  0  0  0  0  0  0  0  0  0
   38.7140   70.7740   57.9420 H   0  0  0  0  0  0  0  0  0  0  0  0
   40.2790   70.3040   56.0480 H   0  0  0  0  0  0  0  0  0  0  0  0
   41.7660   72.1080   55.2360 H   0  0  0  0  0  0  0  0  0  0  0  0
   42.1050   74.5560   59.6890 C   0  0  0  0  0  0  0  0  0  0  0  0
   43.3750   75.0060   59.4030 C   0  0  0  0  0  0  0  0  0  0  0  0
   44.4790   74.2390   59.7760 C   0  0  0  0  0  0  0  0  0  0  0  0
   44.2560   73.0910   60.4020 N   0  0  0  0  0  0  0  0  0  0  0  0
   43.0230   72.6340   60.6920 C   0  0  0  0  0  0  0  0  0  0  0  0
   42.0030   73.3930   60.3180 N   0  0  0  0  0  0  0  0  0  0  0  0
   43.6100   75.9260   58.8990 H   0  0  0  0  0  0  0  0  0  0  0  0
   45.5060   74.5190   59.5890 H   0  0  0  0  0  0  0  0  0  0  0  0
   42.5780   71.4180   61.3610 C   0  0  0  0  0  0  0  0  0  0  0  0
   42.3380   71.3270   62.7390 C   0  0  0  0  0  0  0  0  0  0  0  0
   42.4970   72.2200   63.3340 H   0  0  0  0  0  0  0  0  0  0  0  0
   41.9200   70.1890   63.3650 C   0  0  0  0  0  3  0  0  0  0  0  0
   41.7060   69.0330   62.6540 C   0  0  0  0  0  3  0  0  0  0  0  0
   41.9210   69.0570   61.3110 C   0  0  0  0  0  0  0  0  0  0  0  0
   41.6930   67.8790   60.6400 C   0  0  0  0  0  3  0  0  0  0  0  0
   41.8860   67.8130   59.2780 C   0  0  0  0  0  3  0  0  0  0  0  0
   42.3100   68.9720   58.6460 C   0  0  0  0  0  3  0  0  0  0  0  0
   42.5240   70.1260   59.3640 C   0  0  0  0  0  3  0  0  0  0  0  0
   42.3410   70.2240   60.7180 C   0  0  0  0  0  0  0  0  0  0  0  0
  1  6  1  0  0  0  0
  2  1  2  0  0  0  0
  2  3  1  0  0  0  0
  3  4  2  0  0  0  0
  4  5  1  0  0  0  0
  4  9  1  0  0  0  0
  5 10  1  0  0  0  0
  6 20  1  0  0  0  0
  6  5  2  0  0  0  0
  7  2  1  0  0  0  0
  8  3  1  0  0  0  0
 11 17  1  0  0  0  0
 11 16  1  0  0  0  0
 12 11  2  0  0  0  0
 13 12  1  0  0  0  0
 13 14  2  0  0  0  0
 14 15  1  0  0  0  0
 15 16  2  0  0  0  0
 15  1  1  0  0  0  0
 18 12  1  0  0  0  0
 19 13  1  0  0  0  0
 20 25  1  0  0  0  0
 21 20  2  0  0  0  0
 21 22  1  0  0  0  0
 22 23  2  0  0  0  0
 23 24  1  0  0  0  0
 24 28  1  0  0  0  0
 25 24  2  0  0  0  0
 26 21  1  0  0  0  0
 27 22  1  0  0  0  0
 28 29  1  0  0  0  0
 29 30  1  0  0  0  0
 29 31  2  0  0  0  0
 32 31  1  0  0  0  0
 33 32  2  0  0  0  0
 34 33  1  0  0  0  0
 35 34  2  0  0  0  0
 36 35  1  0  0  0  0
 36 37  2  0  0  0  0
 37 38  1  0  0  0  0
 38 33  1  0  0  0  0
 38 28  2  0  0  0  0
M  END
>  <minimizedAffinity>
-6.71703243

$$$$

 OpenBabel03212521083D

 38 42  0  0  0  0  0  0  0  0999 V2000
   42.0740   67.5200   59.5030 C   0  0  0  0  0  0  0  0  0  0  0  0
   41.9570   66.2030   59.9280 C   0  0  0  0  0  0  0  0  0  0  0  0
   41.7260   65.8840   61.2540 C   0  0  0  0  0  0  0  0  0  0  0  0
   41.6090   66.9070   62.1850 C   0  0  0  0  0  0  0  0  0  0  0  0
   41.7270   68.2280   61.7580 C   0  0  0  0  0  0  0  0  0  0  0  0
   41.9560   68.5310   60.4360 C   0  0  0  0  0  0  0  0  0  0  0  0
   42.0550   65.4160   59.1640 H   0  0  0  0  0  0  0  0  0  0  0  0
   41.6390   64.8550   61.5580 H   0  0  0  0  0  0  0  0  0  0  0  0
   41.4280   66.7020   63.2340 H   0  0  0  0  0  0  0  0  0  0  0  0
   41.6350   69.0350   62.4810 H   0  0  0  0  0  0  0  0  0  0  0  0
   43.8430   68.1170   56.3640 C   0  0  0  0  0  0  0  0  0  0  0  0
   42.7990   68.3160   55.4510 C   0  0  0  0  0  0  0  0  0  0  0  0
   41.4560   68.2440   55.9240 C   0  0  0  0  0  0  0  0  0  0  0  0
   41.2650   67.9840   57.2420 N   0  0  0  0  0  0  0  0  0  0  0  0
   42.3150   67.7960   58.1030 C   0  0  0  0  0  0  0  0  0  0  0  0
   43.5730   67.8640   57.6540 N   0  0  0  0  0  0  0  0  0  0  0  0
   44.8350   68.1850   55.9440 H   0  0  0  0  0  0  0  0  0  0  0  0
   42.9060   68.5260   54.3900 H   0  0  0  0  0  0  0  0  0  0  0  0
   40.6000   68.3870   55.2800 H   0  0  0  0  0  0  0  0  0  0  0  0
   42.0760   69.9250   60.0520 C   0  0  0  0  0  0  0  0  0  0  0  0
   43.3190   70.4540   60.3210 C   0  0  0  0  0  0  0  0  0  0  0  0
   43.5860   71.7870   60.0060 C   0  0  0  0  0  0  0  0  0  0  0  0
   42.6150   72.5000   59.4500 N   0  0  0  0  0  0  0  0  0  0  0  0
   41.3940   72.0030   59.1780 C   0  0  0  0  0  0  0  0  0  0  0  0
   41.1840   70.7330   59.4950 N   0  0  0  0  0  0  0  0  0  0  0  0
   44.1380   69.9210   60.7700 H   0  0  0  0  0  0  0  0  0  0  0  0
   44.5320   72.2770   60.1850 H   0  0  0  0  0  0  0  0  0  0  0  0
   40.2140   72.6150   58.5810 C   0  0  0  0  0  0  0  0  0  0  0  0
   39.2780   71.9170   57.8060 C   0  0  0  0  0  0  0  0  0  0  0  0
   39.4520   70.8580   57.6460 H   0  0  0  0  0  0  0  0  0  0  0  0
   38.1730   72.4910   57.2480 C   0  0  0  0  0  3  0  0  0  0  0  0
   37.9110   73.8280   57.4220 C   0  0  0  0  0  3  0  0  0  0  0  0
   38.7820   74.5610   58.1650 C   0  0  0  0  0  0  0  0  0  0  0  0
   38.4800   75.8940   58.3130 C   0  0  0  0  0  3  0  0  0  0  0  0
   39.3080   76.7110   59.0500 C   0  0  0  0  0  3  0  0  0  0  0  0
   40.4300   76.1240   59.6160 C   0  0  0  0  0  3  0  0  0  0  0  0
   40.6870   74.7840   59.4370 C   0  0  0  0  0  3  0  0  0  0  0  0
   39.8840   73.9450   58.7100 C   0  0  0  0  0  0  0  0  0  0  0  0
  1  2  2  0  0  0  0
  1  6  1  0  0  0  0
  2  3  1  0  0  0  0
  3  8  1  0  0  0  0
  3  4  2  0  0  0  0
  4  9  1  0  0  0  0
  5  4  1  0  0  0  0
  5 10  1  0  0  0  0
  6  5  2  0  0  0  0
  7  2  1  0  0  0  0
 11 16  1  0  0  0  0
 12 13  1  0  0  0  0
 12 11  2  0  0  0  0
 13 14  2  0  0  0  0
 14 15  1  0  0  0  0
 15  1  1  0  0  0  0
 16 15  2  0  0  0  0
 17 11  1  0  0  0  0
 18 12  1  0  0  0  0
 19 13  1  0  0  0  0
 20 21  1  0  0  0  0
 20  6  1  0  0  0  0
 21 26  1  0  0  0  0
 22 27  1  0  0  0  0
 22 21  2  0  0  0  0
 23 22  1  0  0  0  0
 24 23  2  0  0  0  0
 24 25  1  0  0  0  0
 25 20  2  0  0  0  0
 28 38  1  0  0  0  0
 28 24  1  0  0  0  0
 29 28  2  0  0  0  0
 30 29  1  0  0  0  0
 31 32  2  0  0  0  0
 31 29  1  0  0  0  0
 32 33  1  0  0  0  0
 33 34  2  0  0  0  0
 33 38  1  0  0  0  0
 34 35  1  0  0  0  0
 35 36  2  0  0  0  0
 37 36  1  0  0  0  0
 38 37  2  0  0  0  0
M  END
>  <minimizedAffinity>
-6.59557533

$$$$

 OpenBabel03212521083D

 38 42  0  0  0  0  0  0  0  0999 V2000
   41.3720   69.6380   58.4180 C   0  0  0  0  0  0  0  0  0  0  0  0
   40.8370   68.3690   58.6050 C   0  0  0  0  0  0  0  0  0  0  0  0
   41.3980   67.4670   59.4910 C   0  0  0  0  0  0  0  0  0  0  0  0
   42.5250   67.8380   60.2110 C   0  0  0  0  0  0  0  0  0  0  0  0
   43.0600   69.1100   60.0230 C   0  0  0  0  0  0  0  0  0  0  0  0
   42.4930   69.9990   59.1390 C   0  0  0  0  0  0  0  0  0  0  0  0
   39.9440   68.1080   58.0170 H   0  0  0  0  0  0  0  0  0  0  0  0
   40.9650   66.4900   59.6180 H   0  0  0  0  0  0  0  0  0  0  0  0
   42.9960   67.1630   60.9160 H   0  0  0  0  0  0  0  0  0  0  0  0
   43.9430   69.4090   60.5850 H   0  0  0  0  0  0  0  0  0  0  0  0
   40.7240   71.5210   55.3560 C   0  0  0  0  0  0  0  0  0  0  0  0
   39.5710   72.2490   55.6770 C   0  0  0  0  0  0  0  0  0  0  0  0
   39.0020   72.0910   56.9740 C   0  0  0  0  0  0  0  0  0  0  0  0
   39.6160   71.2360   57.8320 N   0  0  0  0  0  0  0  0  0  0  0  0
   40.7440   70.5420   57.4780 C   0  0  0  0  0  0  0  0  0  0  0  0
   41.2740   70.6940   56.2590 N   0  0  0  0  0  0  0  0  0  0  0  0
   41.1050   71.6850   54.3600 H   0  0  0  0  0  0  0  0  0  0  0  0
   39.0480   72.9420   55.0230 H   0  0  0  0  0  0  0  0  0  0  0  0
   38.1150   72.6190   57.2940 H   0  0  0  0  0  0  0  0  0  0  0  0
   43.0990   71.3070   58.9810 C   0  0  0  0  0  0  0  0  0  0  0  0
   44.4030   71.2480   58.5400 C   0  0  0  0  0  0  0  0  0  0  0  0
   45.1180   72.4290   58.3390 C   0  0  0  0  0  0  0  0  0  0  0  0
   44.5030   73.5780   58.5850 N   0  0  0  0  0  0  0  0  0  0  0  0
   43.2300   73.6580   59.0160 C   0  0  0  0  0  0  0  0  0  0  0  0
   42.5880   72.5120   59.1940 N   0  0  0  0  0  0  0  0  0  0  0  0
   44.9470   70.3450   58.3270 H   0  0  0  0  0  0  0  0  0  0  0  0
   46.1420   72.4690   57.9960 H   0  0  0  0  0  0  0  0  0  0  0  0
   42.3910   74.8050   59.3380 C   0  0  0  0  0  0  0  0  0  0  0  0
   42.7400   76.1330   59.0550 C   0  0  0  0  0  0  0  0  0  0  0  0
   43.6940   76.3060   58.5680 H   0  0  0  0  0  0  0  0  0  0  0  0
   41.9540   77.2070   59.3560 C   0  0  0  0  0  3  0  0  0  0  0  0
   40.7380   77.0380   59.9730 C   0  0  0  0  0  3  0  0  0  0  0  0
   40.3420   75.7720   60.2740 C   0  0  0  0  0  0  0  0  0  0  0  0
   39.1190   75.6510   60.8900 C   0  0  0  0  0  3  0  0  0  0  0  0
   38.6390   74.4060   61.2300 C   0  0  0  0  0  3  0  0  0  0  0  0
   39.4420   73.3170   60.9230 C   0  0  0  0  0  3  0  0  0  0  0  0
   40.6580   73.4930   60.3050 C   0  0  0  0  0  3  0  0  0  0  0  0
   41.1630   74.7170   59.9540 C   0  0  0  0  0  0  0  0  0  0  0  0
  1  2  2  0  0  0  0
  1  6  1  0  0  0  0
  2  3  1  0  0  0  0
  3  8  1  0  0  0  0
  3  4  2  0  0  0  0
  4  9  1  0  0  0  0
  5  4  1  0  0  0  0
  5 10  1  0  0  0  0
  6  5  2  0  0  0  0
  7  2  1  0  0  0  0
 11 12  2  0  0  0  0
 11 16  1  0  0  0  0
 12 13  1  0  0  0  0
 13 19  1  0  0  0  0
 13 14  2  0  0  0  0
 15 14  1  0  0  0  0
 15  1  1  0  0  0  0
 16 15  2  0  0  0  0
 17 11  1  0  0  0  0
 18 12  1  0  0  0  0
 20  6  1  0  0  0  0
 20 25  1  0  0  0  0
 21 20  2  0  0  0  0
 22 21  1  0  0  0  0
 22 23  2  0  0  0  0
 23 24  1  0  0  0  0
 24 25  2  0  0  0  0
 24 28  1  0  0  0  0
 26 21  1  0  0  0  0
 27 22  1  0  0  0  0
 28 38  1  0  0  0  0
 29 28  2  0  0  0  0
 29 31  1  0  0  0  0
 30 29  1  0  0  0  0
 31 32  2  0  0  0  0
 32 33  1  0  0  0  0
 33 34  1  0  0  0  0
 34 35  2  0  0  0  0
 36 35  1  0  0  0  0
 37 36  2  0  0  0  0
 38 33  2  0  0  0  0
 38 37  1  0  0  0  0
M  END
>  <minimizedAffinity>
-6.5274682

$$$$

 OpenBabel03212521083D

 38 42  0  0  0  0  0  0  0  0999 V2000
   40.3140   74.4610   57.6410 C   0  0  0  0  0  0  0  0  0  0  0  0
   39.5090   74.6590   56.5260 C   0  0  0  0  0  0  0  0  0  0  0  0
   39.8620   74.1770   55.2780 C   0  0  0  0  0  0  0  0  0  0  0  0
   41.0520   73.4770   55.1370 C   0  0  0  0  0  0  0  0  0  0  0  0
   41.8590   73.2780   56.2540 C   0  0  0  0  0  0  0  0  0  0  0  0
   41.4970   73.7630   57.4900 C   0  0  0  0  0  0  0  0  0  0  0  0
   38.5730   75.2180   56.6750 H   0  0  0  0  0  0  0  0  0  0  0  0
   39.2200   74.3430   54.4310 H   0  0  0  0  0  0  0  0  0  0  0  0
   41.3670   73.0810   54.1780 H   0  0  0  0  0  0  0  0  0  0  0  0
   42.7930   72.7300   56.1510 H   0  0  0  0  0  0  0  0  0  0  0  0
   38.7350   74.6760   60.9260 C   0  0  0  0  0  0  0  0  0  0  0  0
   39.0900   75.9600   61.3600 C   0  0  0  0  0  0  0  0  0  0  0  0
   39.8910   76.7720   60.5040 C   0  0  0  0  0  0  0  0  0  0  0  0
   40.2660   76.2490   59.3090 N   0  0  0  0  0  0  0  0  0  0  0  0
   39.8960   74.9870   58.9230 C   0  0  0  0  0  0  0  0  0  0  0  0
   39.1450   74.2290   59.7290 N   0  0  0  0  0  0  0  0  0  0  0  0
   38.1280   74.1120   61.6190 H   0  0  0  0  0  0  0  0  0  0  0  0
   38.8130   76.4180   62.3060 H   0  0  0  0  0  0  0  0  0  0  0  0
   40.2030   77.7710   60.7690 H   0  0  0  0  0  0  0  0  0  0  0  0
   42.3810   73.5310   58.6160 C   0  0  0  0  0  0  0  0  0  0  0  0
   43.4390   74.4120   58.6620 C   0  0  0  0  0  0  0  0  0  0  0  0
   44.3760   74.3140   59.6910 C   0  0  0  0  0  0  0  0  0  0  0  0
   44.2050   73.3600   60.5980 N   0  0  0  0  0  0  0  0  0  0  0  0
   43.1780   72.4900   60.5720 C   0  0  0  0  0  0  0  0  0  0  0  0
   42.3130   72.6190   59.5770 N   0  0  0  0  0  0  0  0  0  0  0  0
   43.6230   75.2000   57.9540 H   0  0  0  0  0  0  0  0  0  0  0  0
   45.2320   74.9630   59.7990 H   0  0  0  0  0  0  0  0  0  0  0  0
   42.8230   71.3910   61.4610 C   0  0  0  0  0  0  0  0  0  0  0  0
   42.0490   71.5410   62.6200 C   0  0  0  0  0  0  0  0  0  0  0  0
   41.7000   72.5400   62.8610 H   0  0  0  0  0  0  0  0  0  0  0  0
   41.7170   70.5110   63.4510 C   0  0  0  0  0  3  0  0  0  0  0  0
   42.1360   69.2300   63.1870 C   0  0  0  0  0  3  0  0  0  0  0  0
   42.8900   69.0190   62.0760 C   0  0  0  0  0  0  0  0  0  0  0  0
   43.2870   67.7220   61.8500 C   0  0  0  0  0  3  0  0  0  0  0  0
   44.0530   67.4170   60.7480 C   0  0  0  0  0  3  0  0  0  0  0  0
   44.3890   68.4660   59.9060 C   0  0  0  0  0  3  0  0  0  0  0  0
   43.9660   69.7470   60.1770 C   0  0  0  0  0  3  0  0  0  0  0  0
   43.2040   70.0830   61.2640 C   0  0  0  0  0  0  0  0  0  0  0  0
  1 15  1  0  0  0  0
  2  7  1  0  0  0  0
  2  1  2  0  0  0  0
  3  2  1  0  0  0  0
  4  3  2  0  0  0  0
  4  5  1  0  0  0  0
  5  6  2  0  0  0  0
  6  1  1  0  0  0  0
  6 20  1  0  0  0  0
  8  3  1  0  0  0  0
  9  4  1  0  0  0  0
 10  5  1  0  0  0  0
 11 12  1  0  0  0  0
 11 17  1  0  0  0  0
 12 18  1  0  0  0  0
 13 19  1  0  0  0  0
 13 12  2  0  0  0  0
 14 13  1  0  0  0  0
 15 14  2  0  0  0  0
 15 16  1  0  0  0  0
 16 11  2  0  0  0  0
 20 21  2  0  0  0  0
 20 25  1  0  0  0  0
 21 22  1  0  0  0  0
 22 27  1  0  0  0  0
 22 23  2  0  0  0  0
 24 23  1  0  0  0  0
 24 28  1  0  0  0  0
 25 24  2  0  0  0  0
 26 21  1  0  0  0  0
 28 29  1  0  0  0  0
 29 30  1  0  0  0  0
 29 31  2  0  0  0  0
 32 31  1  0  0  0  0
 33 32  2  0  0  0  0
 34 33  1  0  0  0  0
 35 34  2  0  0  0  0
 36 37  2  0  0  0  0
 36 35  1  0  0  0  0
 37 38  1  0  0  0  0
 38 28  2  0  0  0  0
 38 33  1  0  0  0  0
M  END
>  <minimizedAffinity>
-6.51357174

$$$$

 OpenBabel03212521083D

 38 42  0  0  0  0  0  0  0  0999 V2000
   41.5690   68.9270   59.0670 C   0  0  0  0  0  0  0  0  0  0  0  0
   41.4430   67.6270   58.5920 C   0  0  0  0  0  0  0  0  0  0  0  0
   41.5940   66.5310   59.4240 C   0  0  0  0  0  0  0  0  0  0  0  0
   41.8790   66.7370   60.7670 C   0  0  0  0  0  0  0  0  0  0  0  0
   42.0040   68.0400   61.2420 C   0  0  0  0  0  0  0  0  0  0  0  0
   41.8520   69.1210   60.4040 C   0  0  0  0  0  0  0  0  0  0  0  0
   41.2180   67.5010   57.5230 H   0  0  0  0  0  0  0  0  0  0  0  0
   41.4920   65.5350   59.0320 H   0  0  0  0  0  0  0  0  0  0  0  0
   42.0050   65.9070   61.4530 H   0  0  0  0  0  0  0  0  0  0  0  0
   42.2260   68.2080   62.2930 H   0  0  0  0  0  0  0  0  0  0  0  0
   40.0020   71.6580   57.2160 C   0  0  0  0  0  0  0  0  0  0  0  0
   41.0530   72.1430   56.4280 C   0  0  0  0  0  0  0  0  0  0  0  0
   42.3310   71.5190   56.5330 C   0  0  0  0  0  0  0  0  0  0  0  0
   42.4550   70.4810   57.3990 N   0  0  0  0  0  0  0  0  0  0  0  0
   41.4000   70.0360   58.1520 C   0  0  0  0  0  0  0  0  0  0  0  0
   40.2040   70.6260   58.0500 N   0  0  0  0  0  0  0  0  0  0  0  0
   39.0620   72.1730   57.0900 H   0  0  0  0  0  0  0  0  0  0  0  0
   40.9990   72.9690   55.7240 H   0  0  0  0  0  0  0  0  0  0  0  0
   43.1880   71.8370   55.9580 H   0  0  0  0  0  0  0  0  0  0  0  0
   42.0000   70.4550   60.9550 C   0  0  0  0  0  0  0  0  0  0  0  0
   41.9630   70.4760   62.3320 C   0  0  0  0  0  0  0  0  0  0  0  0
   42.0940   71.6900   63.0080 C   0  0  0  0  0  0  0  0  0  0  0  0
   42.2530   72.7910   62.2830 N   0  0  0  0  0  0  0  0  0  0  0  0
   42.2940   72.7910   60.9380 C   0  0  0  0  0  0  0  0  0  0  0  0
   42.1640   71.6160   60.3370 N   0  0  0  0  0  0  0  0  0  0  0  0
   41.8360   69.6160   62.9650 H   0  0  0  0  0  0  0  0  0  0  0  0
   42.0750   71.7940   64.0830 H   0  0  0  0  0  0  0  0  0  0  0  0
   42.4570   73.8750   59.9780 C   0  0  0  0  0  0  0  0  0  0  0  0
   43.5960   74.0490   59.1800 C   0  0  0  0  0  0  0  0  0  0  0  0
   44.3990   73.3270   59.2920 H   0  0  0  0  0  0  0  0  0  0  0  0
   43.7480   75.0640   58.2810 C   0  0  0  0  0  3  0  0  0  0  0  0
   42.7600   76.0010   58.1050 C   0  0  0  0  0  3  0  0  0  0  0  0
   41.6280   75.8880   58.8500 C   0  0  0  0  0  0  0  0  0  0  0  0
   40.6660   76.8470   58.6400 C   0  0  0  0  0  3  0  0  0  0  0  0
   39.4880   76.8090   59.3520 C   0  0  0  0  0  3  0  0  0  0  0  0
   39.3370   75.7760   60.2650 C   0  0  0  0  0  3  0  0  0  0  0  0
   40.3310   74.8410   60.4360 C   0  0  0  0  0  3  0  0  0  0  0  0
   41.5140   74.8500   59.7450 C   0  0  0  0  0  0  0  0  0  0  0  0
  1  6  1  0  0  0  0
  2  1  2  0  0  0  0
  2  3  1  0  0  0  0
  3  4  2  0  0  0  0
  4  5  1  0  0  0  0
  4  9  1  0  0  0  0
  5 10  1  0  0  0  0
  6 20  1  0  0  0  0
  6  5  2  0  0  0  0
  7  2  1  0  0  0  0
  8  3  1  0  0  0  0
 11 16  1  0  0  0  0
 12 13  1  0  0  0  0
 12 11  2  0  0  0  0
 13 14  2  0  0  0  0
 14 15  1  0  0  0  0
 15  1  1  0  0  0  0
 16 15  2  0  0  0  0
 17 11  1  0  0  0  0
 18 12  1  0  0  0  0
 19 13  1  0  0  0  0
 20 21  1  0  0  0  0
 21 26  1  0  0  0  0
 21 22  2  0  0  0  0
 22 27  1  0  0  0  0
 23 22  1  0  0  0  0
 24 23  2  0  0  0  0
 25 24  1  0  0  0  0
 25 20  2  0  0  0  0
 28 24  1  0  0  0  0
 29 30  1  0  0  0  0
 29 28  2  0  0  0  0
 31 29  1  0  0  0  0
 32 31  2  0  0  0  0
 32 33  1  0  0  0  0
 33 38  1  0  0  0  0
 34 33  2  0  0  0  0
 34 35  1  0  0  0  0
 35 36  2  0  0  0  0
 36 37  1  0  0  0  0
 38 28  1  0  0  0  0
 38 37  2  0  0  0  0
M  END
>  <minimizedAffinity>
-6.50621319

$$$$

 OpenBabel03212521083D

 38 42  0  0  0  0  0  0  0  0999 V2000
   38.3600   75.1230   57.1770 C   0  0  0  0  0  0  0  0  0  0  0  0
   37.1550   75.5760   56.6560 C   0  0  0  0  0  0  0  0  0  0  0  0
   36.8760   75.5100   55.3020 C   0  0  0  0  0  0  0  0  0  0  0  0
   37.8260   74.9750   54.4430 C   0  0  0  0  0  0  0  0  0  0  0  0
   39.0340   74.5200   54.9660 C   0  0  0  0  0  0  0  0  0  0  0  0
   39.2990   74.5920   56.3140 C   0  0  0  0  0  0  0  0  0  0  0  0
   36.4250   75.9940   57.3660 H   0  0  0  0  0  0  0  0  0  0  0  0
   35.9350   75.8670   54.9240 H   0  0  0  0  0  0  0  0  0  0  0  0
   37.6490   74.9030   53.3750 H   0  0  0  0  0  0  0  0  0  0  0  0
   39.7830   74.0990   54.2980 H   0  0  0  0  0  0  0  0  0  0  0  0
   39.4970   76.4040   60.4020 C   0  0  0  0  0  0  0  0  0  0  0  0
   39.0630   75.4200   61.2990 C   0  0  0  0  0  0  0  0  0  0  0  0
   38.3620   74.2890   60.7860 C   0  0  0  0  0  0  0  0  0  0  0  0
   38.1560   74.2310   59.4450 N   0  0  0  0  0  0  0  0  0  0  0  0
   38.5990   75.2160   58.6010 C   0  0  0  0  0  0  0  0  0  0  0  0
   39.2550   76.2760   59.0880 N   0  0  0  0  0  0  0  0  0  0  0  0
   40.0200   77.2340   60.8530 H   0  0  0  0  0  0  0  0  0  0  0  0
   39.2050   75.4250   62.3770 H   0  0  0  0  0  0  0  0  0  0  0  0
   37.9970   73.4900   61.4150 H   0  0  0  0  0  0  0  0  0  0  0  0
   40.5780   74.1080   56.7990 C   0  0  0  0  0  0  0  0  0  0  0  0
   41.6330   74.9140   56.4330 C   0  0  0  0  0  0  0  0  0  0  0  0
   42.9280   74.5780   56.8290 C   0  0  0  0  0  0  0  0  0  0  0  0
   43.0910   73.4780   57.5530 N   0  0  0  0  0  0  0  0  0  0  0  0
   42.0730   72.6780   57.9220 C   0  0  0  0  0  0  0  0  0  0  0  0
   40.8610   73.0340   57.5240 N   0  0  0  0  0  0  0  0  0  0  0  0
   41.5560   75.8130   55.8490 H   0  0  0  0  0  0  0  0  0  0  0  0
   43.8090   75.1540   56.5840 H   0  0  0  0  0  0  0  0  0  0  0  0
   42.0480   71.4470   58.7020 C   0  0  0  0  0  0  0  0  0  0  0  0
   42.0840   70.1640   58.1400 C   0  0  0  0  0  0  0  0  0  0  0  0
   42.1330   70.0940   57.0580 H   0  0  0  0  0  0  0  0  0  0  0  0
   42.0610   69.0120   58.8710 C   0  0  0  0  0  3  0  0  0  0  0  0
   41.9990   69.0500   60.2420 C   0  0  0  0  0  3  0  0  0  0  0  0
   41.9620   70.2670   60.8490 C   0  0  0  0  0  0  0  0  0  0  0  0
   41.9010   70.2580   62.2220 C   0  0  0  0  0  3  0  0  0  0  0  0
   41.8600   71.4450   62.9190 C   0  0  0  0  0  3  0  0  0  0  0  0
   41.8830   72.6130   62.1720 C   0  0  0  0  0  3  0  0  0  0  0  0
   41.9450   72.5670   60.7990 C   0  0  0  0  0  3  0  0  0  0  0  0
   41.9870   71.4040   60.0760 C   0  0  0  0  0  0  0  0  0  0  0  0
  1 15  1  0  0  0  0
  2  1  1  0  0  0  0
  2  7  1  0  0  0  0
  3  2  2  0  0  0  0
  4  5  2  0  0  0  0
  4  3  1  0  0  0  0
  5  6  1  0  0  0  0
  6 20  1  0  0  0  0
  6  1  2  0  0  0  0
  8  3  1  0  0  0  0
  9  4  1  0  0  0  0
 10  5  1  0  0  0  0
 11 17  1  0  0  0  0
 11 12  1  0  0  0  0
 12 18  1  0  0  0  0
 13 12  2  0  0  0  0
 13 19  1  0  0  0  0
 14 13  1  0  0  0  0
 15 16  1  0  0  0  0
 15 14  2  0  0  0  0
 16 11  2  0  0  0  0
 20 25  1  0  0  0  0
 21 20  2  0  0  0  0
 21 22  1  0  0  0  0
 22 23  2  0  0  0  0
 23 24  1  0  0  0  0
 24 28  1  0  0  0  0
 25 24  2  0  0  0  0
 26 21  1  0  0  0  0
 27 22  1  0  0  0  0
 28 38  1  0  0  0  0
 29 28  2  0  0  0  0
 29 31  1  0  0  0  0
 30 29  1  0  0  0  0
 31 32  2  0  0  0  0
 32 33  1  0  0  0  0
 33 34  1  0  0  0  0
 34 35  2  0  0  0  0
 36 35  1  0  0  0  0
 37 36  2  0  0  0  0
 38 37  1  0  0  0  0
 38 33  2  0  0  0  0
M  END
>  <minimizedAffinity>
-6.49165583

$$$$

 OpenBabel03212521083D

 38 42  0  0  0  0  0  0  0  0999 V2000
   41.7580   68.8520   56.4970 C   0  0  0  0  0  0  0  0  0  0  0  0
   41.3200   68.0530   55.4490 C   0  0  0  0  0  0  0  0  0  0  0  0
   41.0580   68.5770   54.1950 C   0  0  0  0  0  0  0  0  0  0  0  0
   41.2370   69.9370   53.9810 C   0  0  0  0  0  0  0  0  0  0  0  0
   41.6760   70.7370   55.0330 C   0  0  0  0  0  0  0  0  0  0  0  0
   41.9330   70.2030   56.2750 C   0  0  0  0  0  0  0  0  0  0  0  0
   41.1890   66.9800   55.6530 H   0  0  0  0  0  0  0  0  0  0  0  0
   40.7200   67.9380   53.3990 H   0  0  0  0  0  0  0  0  0  0  0  0
   41.0430   70.3900   53.0150 H   0  0  0  0  0  0  0  0  0  0  0  0
   41.8190   71.8040   54.8730 H   0  0  0  0  0  0  0  0  0  0  0  0
   41.2480   67.6920   59.9230 C   0  0  0  0  0  0  0  0  0  0  0  0
   42.4830   67.1130   60.2430 C   0  0  0  0  0  0  0  0  0  0  0  0
   43.5160   67.1190   59.2590 C   0  0  0  0  0  0  0  0  0  0  0  0
   43.2400   67.6920   58.0600 N   0  0  0  0  0  0  0  0  0  0  0  0
   42.0170   68.2490   57.7880 C   0  0  0  0  0  0  0  0  0  0  0  0
   41.0520   68.2400   58.7140 N   0  0  0  0  0  0  0  0  0  0  0  0
   40.5100   67.6540   60.7090 H   0  0  0  0  0  0  0  0  0  0  0  0
   42.7470   66.6440   61.1870 H   0  0  0  0  0  0  0  0  0  0  0  0
   44.4920   66.6930   59.4330 H   0  0  0  0  0  0  0  0  0  0  0  0
   42.3820   71.0870   57.3340 C   0  0  0  0  0  0  0  0  0  0  0  0
   43.7480   71.0690   57.5080 C   0  0  0  0  0  0  0  0  0  0  0  0
   44.3300   71.8710   58.4910 C   0  0  0  0  0  0  0  0  0  0  0  0
   43.5290   72.6290   59.2280 N   0  0  0  0  0  0  0  0  0  0  0  0
   42.1930   72.6620   59.0730 C   0  0  0  0  0  0  0  0  0  0  0  0
   41.6820   71.8850   58.1290 N   0  0  0  0  0  0  0  0  0  0  0  0
   44.4400   70.4740   56.9390 H   0  0  0  0  0  0  0  0  0  0  0  0
   45.3910   71.9150   58.6920 H   0  0  0  0  0  0  0  0  0  0  0  0
   41.1590   73.4160   59.7730 C   0  0  0  0  0  0  0  0  0  0  0  0
   40.0950   72.8240   60.4660 C   0  0  0  0  0  0  0  0  0  0  0  0
   40.0460   71.7400   60.4770 H   0  0  0  0  0  0  0  0  0  0  0  0
   39.1270   73.5300   61.1210 C   0  0  0  0  0  3  0  0  0  0  0  0
   39.1470   74.9030   61.1360 C   0  0  0  0  0  3  0  0  0  0  0  0
   40.1550   75.5370   60.4810 C   0  0  0  0  0  0  0  0  0  0  0  0
   40.1350   76.9110   60.5220 C   0  0  0  0  0  3  0  0  0  0  0  0
   41.1180   77.6350   59.8850 C   0  0  0  0  0  3  0  0  0  0  0  0
   42.0990   76.9140   59.2210 C   0  0  0  0  0  3  0  0  0  0  0  0
   42.0740   75.5390   59.2100 C   0  0  0  0  0  3  0  0  0  0  0  0
   41.1100   74.7900   59.8330 C   0  0  0  0  0  0  0  0  0  0  0  0
  1 15  1  0  0  0  0
  2  7  1  0  0  0  0
  2  1  2  0  0  0  0
  3  2  1  0  0  0  0
  4  3  2  0  0  0  0
  4  5  1  0  0  0  0
  5  6  2  0  0  0  0
  6  1  1  0  0  0  0
  6 20  1  0  0  0  0
  8  3  1  0  0  0  0
  9  4  1  0  0  0  0
 10  5  1  0  0  0  0
 11 12  1  0  0  0  0
 11 17  1  0  0  0  0
 12 18  1  0  0  0  0
 13 19  1  0  0  0  0
 13 12  2  0  0  0  0
 14 13  1  0  0  0  0
 15 14  2  0  0  0  0
 15 16  1  0  0  0  0
 16 11  2  0  0  0  0
 20 21  2  0  0  0  0
 20 25  1  0  0  0  0
 21 22  1  0  0  0  0
 22 27  1  0  0  0  0
 22 23  2  0  0  0  0
 24 23  1  0  0  0  0
 24 28  1  0  0  0  0
 25 24  2  0  0  0  0
 26 21  1  0  0  0  0
 28 38  2  0  0  0  0
 28 29  1  0  0  0  0
 29 30  1  0  0  0  0
 29 31  2  0  0  0  0
 31 32  1  0  0  0  0
 33 34  1  0  0  0  0
 33 32  2  0  0  0  0
 35 34  2  0  0  0  0
 36 35  1  0  0  0  0
 37 36  2  0  0  0  0
 37 38  1  0  0  0  0
 38 33  1  0  0  0  0
M  END
>  <minimizedAffinity>
-6.47954845

$$$$

 OpenBabel03212521083D

 38 42  0  0  0  0  0  0  0  0999 V2000
   42.0740   67.4390   59.6600 C   0  0  0  0  0  0  0  0  0  0  0  0
   41.8170   66.1240   60.0260 C   0  0  0  0  0  0  0  0  0  0  0  0
   41.5840   65.7680   61.3430 C   0  0  0  0  0  0  0  0  0  0  0  0
   41.6070   66.7520   62.3230 C   0  0  0  0  0  0  0  0  0  0  0  0
   41.8640   68.0700   61.9540 C   0  0  0  0  0  0  0  0  0  0  0  0
   42.0950   68.4100   60.6410 C   0  0  0  0  0  0  0  0  0  0  0  0
   41.8070   65.3700   59.2250 H   0  0  0  0  0  0  0  0  0  0  0  0
   41.3870   64.7430   61.6020 H   0  0  0  0  0  0  0  0  0  0  0  0
   41.4300   66.5170   63.3660 H   0  0  0  0  0  0  0  0  0  0  0  0
   41.8830   68.8460   62.7160 H   0  0  0  0  0  0  0  0  0  0  0  0
   43.8240   67.9980   56.5030 C   0  0  0  0  0  0  0  0  0  0  0  0
   42.7860   68.3470   55.6290 C   0  0  0  0  0  0  0  0  0  0  0  0
   41.4540   68.3910   56.1340 C   0  0  0  0  0  0  0  0  0  0  0  0
   41.2660   68.0910   57.4440 N   0  0  0  0  0  0  0  0  0  0  0  0
   42.3100   67.7540   58.2670 C   0  0  0  0  0  0  0  0  0  0  0  0
   43.5590   67.7130   57.7880 N   0  0  0  0  0  0  0  0  0  0  0  0
   44.8080   67.9820   56.0590 H   0  0  0  0  0  0  0  0  0  0  0  0
   42.8900   68.5940   54.5760 H   0  0  0  0  0  0  0  0  0  0  0  0
   40.6030   68.6520   55.5210 H   0  0  0  0  0  0  0  0  0  0  0  0
   42.3630   69.7990   60.3180 C   0  0  0  0  0  0  0  0  0  0  0  0
   43.6830   70.0330   60.0020 C   0  0  0  0  0  0  0  0  0  0  0  0
   44.0950   71.3240   59.6680 C   0  0  0  0  0  0  0  0  0  0  0  0
   43.1820   72.2870   59.6680 N   0  0  0  0  0  0  0  0  0  0  0  0
   41.8870   72.0790   59.9720 C   0  0  0  0  0  0  0  0  0  0  0  0
   41.5400   70.8380   60.2850 N   0  0  0  0  0  0  0  0  0  0  0  0
   44.4610   69.2910   59.9880 H   0  0  0  0  0  0  0  0  0  0  0  0
   45.1090   71.5920   59.4090 H   0  0  0  0  0  0  0  0  0  0  0  0
   40.7510   72.9900   60.0280 C   0  0  0  0  0  0  0  0  0  0  0  0
   40.5400   73.9140   61.0600 C   0  0  0  0  0  0  0  0  0  0  0  0
   41.2720   73.9450   61.8600 H   0  0  0  0  0  0  0  0  0  0  0  0
   39.4760   74.7670   61.1120 C   0  0  0  0  0  3  0  0  0  0  0  0
   38.5240   74.7650   60.1220 C   0  0  0  0  0  3  0  0  0  0  0  0
   38.6720   73.8910   59.0920 C   0  0  0  0  0  0  0  0  0  0  0  0
   37.6960   73.9230   58.1240 C   0  0  0  0  0  3  0  0  0  0  0  0
   37.7670   73.0720   57.0440 C   0  0  0  0  0  3  0  0  0  0  0  0
   38.8490   72.2060   56.9950 C   0  0  0  0  0  3  0  0  0  0  0  0
   39.7990   72.2140   57.9900 C   0  0  0  0  0  3  0  0  0  0  0  0
   39.7580   73.0470   59.0770 C   0  0  0  0  0  0  0  0  0  0  0  0
  1  2  2  0  0  0  0
  1  6  1  0  0  0  0
  2  3  1  0  0  0  0
  3  8  1  0  0  0  0
  3  4  2  0  0  0  0
  4  9  1  0  0  0  0
  5  4  1  0  0  0  0
  5 10  1  0  0  0  0
  6  5  2  0  0  0  0
  7  2  1  0  0  0  0
 11 16  1  0  0  0  0
 12 13  1  0  0  0  0
 12 11  2  0  0  0  0
 13 14  2  0  0  0  0
 14 15  1  0  0  0  0
 15  1  1  0  0  0  0
 16 15  2  0  0  0  0
 17 11  1  0  0  0  0
 18 12  1  0  0  0  0
 19 13  1  0  0  0  0
 20  6  1  0  0  0  0
 21 20  2  0  0  0  0
 22 23  2  0  0  0  0
 22 21  1  0  0  0  0
 23 24  1  0  0  0  0
 24 28  1  0  0  0  0
 24 25  2  0  0  0  0
 25 20  1  0  0  0  0
 26 21  1  0  0  0  0
 27 22  1  0  0  0  0
 28 29  1  0  0  0  0
 29 31  2  0  0  0  0
 29 30  1  0  0  0  0
 32 31  1  0  0  0  0
 33 32  2  0  0  0  0
 34 33  1  0  0  0  0
 35 34  2  0  0  0  0
 36 35  1  0  0  0  0
 36 37  2  0  0  0  0
 37 38  1  0  0  0  0
 38 33  1  0  0  0  0
 38 28  2  0  0  0  0
M  END
>  <minimizedAffinity>
-6.30973816

$$$$
