
 OpenBabel03212521073D

 38 42  0  0  0  0  0  0  0  0999 V2000
   41.7970   84.2410   61.5540 C   0  0  0  0  0  0  0  0  0  0  0  0
   41.4630   83.9090   62.8610 C   0  0  0  0  0  0  0  0  0  0  0  0
   40.1880   83.4950   63.2030 C   0  0  0  0  0  0  0  0  0  0  0  0
   39.2170   83.4080   62.2140 C   0  0  0  0  0  0  0  0  0  0  0  0
   39.5530   83.7400   60.9040 C   0  0  0  0  0  0  0  0  0  0  0  0
   40.8250   84.1510   60.5770 C   0  0  0  0  0  0  0  0  0  0  0  0
   42.2560   83.9890   63.6190 H   0  0  0  0  0  0  0  0  0  0  0  0
   39.9540   83.2430   64.2230 H   0  0  0  0  0  0  0  0  0  0  0  0
   38.2060   83.0870   62.4380 H   0  0  0  0  0  0  0  0  0  0  0  0
   38.7980   83.6740   60.1240 H   0  0  0  0  0  0  0  0  0  0  0  0
   45.3050   84.1180   60.5460 C   0  0  0  0  0  0  0  0  0  0  0  0
   45.7120   85.4520   60.6710 C   0  0  0  0  0  0  0  0  0  0  0  0
   44.7600   86.4180   61.1120 C   0  0  0  0  0  0  0  0  0  0  0  0
   43.5040   85.9840   61.3870 N   0  0  0  0  0  0  0  0  0  0  0  0
   43.1460   84.6680   61.2520 C   0  0  0  0  0  0  0  0  0  0  0  0
   44.0430   83.7660   60.8380 N   0  0  0  0  0  0  0  0  0  0  0  0
   46.0710   83.4370   60.2090 H   0  0  0  0  0  0  0  0  0  0  0  0
   46.7040   85.8430   60.4620 H   0  0  0  0  0  0  0  0  0  0  0  0
   45.0000   87.4640   61.2320 H   0  0  0  0  0  0  0  0  0  0  0  0
   41.1130   84.4900   59.1960 C   0  0  0  0  0  0  0  0  0  0  0  0
   40.6980   85.7590   58.8540 C   0  0  0  0  0  0  0  0  0  0  0  0
   40.9090   86.2280   57.5570 C   0  0  0  0  0  0  0  0  0  0  0  0
   41.5100   85.4200   56.6940 N   0  0  0  0  0  0  0  0  0  0  0  0
   41.9240   84.1790   57.0080 C   0  0  0  0  0  0  0  0  0  0  0  0
   41.7030   83.7730   58.2500 N   0  0  0  0  0  0  0  0  0  0  0  0
   40.2070   86.4520   59.5140 H   0  0  0  0  0  0  0  0  0  0  0  0
   40.6140   87.2080   57.2090 H   0  0  0  0  0  0  0  0  0  0  0  0
   42.5920   83.1550   56.2140 C   0  0  0  0  0  0  0  0  0  0  0  0
   41.9180   82.1860   55.4580 C   0  0  0  0  0  0  0  0  0  0  0  0
   40.8330   82.2090   55.4730 H   0  0  0  0  0  0  0  0  0  0  0  0
   42.5440   81.2290   54.7140 C   0  0  0  0  0  3  0  0  0  0  0  0
   43.9150   81.1610   54.6650 C   0  0  0  0  0  3  0  0  0  0  0  0
   44.6280   82.0750   55.3770 C   0  0  0  0  0  0  0  0  0  0  0  0
   45.9960   81.9690   55.2990 C   0  0  0  0  0  3  0  0  0  0  0  0
   46.7970   82.8530   55.9880 C   0  0  0  0  0  3  0  0  0  0  0  0
   46.1550   83.8250   56.7420 C   0  0  0  0  0  3  0  0  0  0  0  0
   44.7820   83.8860   56.7880 C   0  0  0  0  0  3  0  0  0  0  0  0
   43.9600   83.0240   56.1150 C   0  0  0  0  0  0  0  0  0  0  0  0
  1  2  1  0  0  0  0
  2  3  2  0  0  0  0
  2  7  1  0  0  0  0
  3  8  1  0  0  0  0
  4  9  1  0  0  0  0
  4  3  1  0  0  0  0
  5  4  2  0  0  0  0
  6  5  1  0  0  0  0
  6  1  2  0  0  0  0
 10  5  1  0  0  0  0
 11 12  2  0  0  0  0
 11 16  1  0  0  0  0
 12 13  1  0  0  0  0
 13 19  1  0  0  0  0
 13 14  2  0  0  0  0
 15 14  1  0  0  0  0
 15  1  1  0  0  0  0
 16 15  2  0  0  0  0
 17 11  1  0  0  0  0
 18 12  1  0  0  0  0
 20  6  1  0  0  0  0
 21 20  1  0  0  0  0
 21 26  1  0  0  0  0
 22 21  2  0  0  0  0
 23 24  2  0  0  0  0
 23 22  1  0  0  0  0
 24 25  1  0  0  0  0
 25 20  2  0  0  0  0
 27 22  1  0  0  0  0
 28 24  1  0  0  0  0
 29 30  1  0  0  0  0
 29 28  2  0  0  0  0
 31 29  1  0  0  0  0
 32 31  2  0  0  0  0
 32 33  1  0  0  0  0
 33 38  1  0  0  0  0
 34 33  2  0  0  0  0
 34 35  1  0  0  0  0
 35 36  2  0  0  0  0
 36 37  1  0  0  0  0
 38 28  1  0  0  0  0
 38 37  2  0  0  0  0
M  END
>  <minimizedAffinity>
-5.54754829

>  <minimizedRMSD>
1.01738799

$$$$
