
 OpenBabel03212521073D

 38 42  0  0  0  0  0  0  0  0999 V2000
   41.8300   84.1750   61.6270 C   0  0  0  0  0  0  0  0  0  0  0  0
   41.4830   83.9660   62.9550 C   0  0  0  0  0  0  0  0  0  0  0  0
   40.1950   83.6210   63.3240 C   0  0  0  0  0  0  0  0  0  0  0  0
   39.2250   83.4810   62.3410 C   0  0  0  0  0  0  0  0  0  0  0  0
   39.5740   83.6910   61.0100 C   0  0  0  0  0  0  0  0  0  0  0  0
   40.8590   84.0340   60.6560 C   0  0  0  0  0  0  0  0  0  0  0  0
   42.2760   84.0850   63.7090 H   0  0  0  0  0  0  0  0  0  0  0  0
   39.9510   83.4640   64.3610 H   0  0  0  0  0  0  0  0  0  0  0  0
   38.2030   83.2120   62.5860 H   0  0  0  0  0  0  0  0  0  0  0  0
   38.8200   83.5820   60.2340 H   0  0  0  0  0  0  0  0  0  0  0  0
   45.3040   83.8770   60.5370 C   0  0  0  0  0  0  0  0  0  0  0  0
   45.7830   85.1870   60.6640 C   0  0  0  0  0  0  0  0  0  0  0  0
   44.8940   86.1980   61.1350 C   0  0  0  0  0  0  0  0  0  0  0  0
   43.6230   85.8280   61.4350 N   0  0  0  0  0  0  0  0  0  0  0  0
   43.1940   84.5340   61.2980 C   0  0  0  0  0  0  0  0  0  0  0  0
   44.0320   83.5900   60.8550 N   0  0  0  0  0  0  0  0  0  0  0  0
   46.0250   83.1600   60.1770 H   0  0  0  0  0  0  0  0  0  0  0  0
   46.7900   85.5270   60.4350 H   0  0  0  0  0  0  0  0  0  0  0  0
   45.1920   87.2280   61.2580 H   0  0  0  0  0  0  0  0  0  0  0  0
   41.1620   84.2460   59.2530 C   0  0  0  0  0  0  0  0  0  0  0  0
   41.0510   85.5650   58.8710 C   0  0  0  0  0  0  0  0  0  0  0  0
   41.3130   85.9250   57.5490 C   0  0  0  0  0  0  0  0  0  0  0  0
   41.6650   84.9670   56.7010 N   0  0  0  0  0  0  0  0  0  0  0  0
   41.7800   83.6730   57.0550 C   0  0  0  0  0  0  0  0  0  0  0  0
   41.5210   83.3750   58.3200 N   0  0  0  0  0  0  0  0  0  0  0  0
   40.7700   86.3780   59.5160 H   0  0  0  0  0  0  0  0  0  0  0  0
   41.2490   86.9350   57.1690 H   0  0  0  0  0  0  0  0  0  0  0  0
   42.1470   82.4920   56.2830 C   0  0  0  0  0  0  0  0  0  0  0  0
   43.3920   82.3170   55.6660 C   0  0  0  0  0  0  0  0  0  0  0  0
   44.1200   83.1160   55.7730 H   0  0  0  0  0  0  0  0  0  0  0  0
   43.7360   81.2110   54.9440 C   0  0  0  0  0  3  0  0  0  0  0  0
   42.8490   80.1750   54.7800 C   0  0  0  0  0  3  0  0  0  0  0  0
   41.6220   80.2840   55.3560 C   0  0  0  0  0  0  0  0  0  0  0  0
   40.7680   79.2240   55.1670 C   0  0  0  0  0  3  0  0  0  0  0  0
   39.5040   79.2500   55.7160 C   0  0  0  0  0  3  0  0  0  0  0  0
   39.1600   80.3760   56.4470 C   0  0  0  0  0  3  0  0  0  0  0  0
   40.0530   81.4110   56.6070 C   0  0  0  0  0  3  0  0  0  0  0  0
   41.3150   81.4150   56.0760 C   0  0  0  0  0  0  0  0  0  0  0  0
  1  2  1  0  0  0  0
  2  3  2  0  0  0  0
  2  7  1  0  0  0  0
  3  8  1  0  0  0  0
  4  9  1  0  0  0  0
  4  3  1  0  0  0  0
  5  4  2  0  0  0  0
  6  5  1  0  0  0  0
  6  1  2  0  0  0  0
 10  5  1  0  0  0  0
 11 12  2  0  0  0  0
 11 16  1  0  0  0  0
 12 13  1  0  0  0  0
 13 19  1  0  0  0  0
 13 14  2  0  0  0  0
 15 14  1  0  0  0  0
 15  1  1  0  0  0  0
 16 15  2  0  0  0  0
 17 11  1  0  0  0  0
 18 12  1  0  0  0  0
 20  6  1  0  0  0  0
 21 20  1  0  0  0  0
 21 26  1  0  0  0  0
 22 21  2  0  0  0  0
 23 24  2  0  0  0  0
 23 22  1  0  0  0  0
 24 25  1  0  0  0  0
 25 20  2  0  0  0  0
 27 22  1  0  0  0  0
 28 24  1  0  0  0  0
 29 30  1  0  0  0  0
 29 28  2  0  0  0  0
 31 29  1  0  0  0  0
 32 31  2  0  0  0  0
 32 33  1  0  0  0  0
 33 38  1  0  0  0  0
 34 33  2  0  0  0  0
 34 35  1  0  0  0  0
 35 36  2  0  0  0  0
 36 37  1  0  0  0  0
 38 28  1  0  0  0  0
 38 37  2  0  0  0  0
M  END
>  <minimizedAffinity>
-6.05975103

>  <minimizedRMSD>
1.62775648

$$$$
