
 OpenBabel03212521073D

 38 42  0  0  0  0  0  0  0  0999 V2000
   41.8040   84.2410   61.5590 C   0  0  0  0  0  0  0  0  0  0  0  0
   41.4690   83.8990   62.8630 C   0  0  0  0  0  0  0  0  0  0  0  0
   40.1940   83.4800   63.2000 C   0  0  0  0  0  0  0  0  0  0  0  0
   39.2250   83.4000   62.2090 C   0  0  0  0  0  0  0  0  0  0  0  0
   39.5620   83.7440   60.9020 C   0  0  0  0  0  0  0  0  0  0  0  0
   40.8330   84.1590   60.5800 C   0  0  0  0  0  0  0  0  0  0  0  0
   42.2610   83.9730   63.6230 H   0  0  0  0  0  0  0  0  0  0  0  0
   39.9590   83.2190   64.2170 H   0  0  0  0  0  0  0  0  0  0  0  0
   38.2140   83.0760   62.4290 H   0  0  0  0  0  0  0  0  0  0  0  0
   38.8080   83.6830   60.1200 H   0  0  0  0  0  0  0  0  0  0  0  0
   45.3240   84.1240   60.5910 C   0  0  0  0  0  0  0  0  0  0  0  0
   45.7190   85.4640   60.6930 C   0  0  0  0  0  0  0  0  0  0  0  0
   44.7560   86.4320   61.1030 C   0  0  0  0  0  0  0  0  0  0  0  0
   43.5000   85.9940   61.3740 N   0  0  0  0  0  0  0  0  0  0  0  0
   43.1540   84.6730   61.2630 C   0  0  0  0  0  0  0  0  0  0  0  0
   44.0610   83.7690   60.8770 N   0  0  0  0  0  0  0  0  0  0  0  0
   46.0990   83.4420   60.2760 H   0  0  0  0  0  0  0  0  0  0  0  0
   46.7110   85.8580   60.4860 H   0  0  0  0  0  0  0  0  0  0  0  0
   44.9870   87.4820   61.2040 H   0  0  0  0  0  0  0  0  0  0  0  0
   41.1240   84.5100   59.2020 C   0  0  0  0  0  0  0  0  0  0  0  0
   40.6290   85.7450   58.8450 C   0  0  0  0  0  0  0  0  0  0  0  0
   40.8310   86.2210   57.5490 C   0  0  0  0  0  0  0  0  0  0  0  0
   41.5020   85.4510   56.7020 N   0  0  0  0  0  0  0  0  0  0  0  0
   41.9940   84.2430   57.0310 C   0  0  0  0  0  0  0  0  0  0  0  0
   41.7780   83.8290   58.2720 N   0  0  0  0  0  0  0  0  0  0  0  0
   40.0800   86.4060   59.4910 H   0  0  0  0  0  0  0  0  0  0  0  0
   40.4760   87.1760   57.1890 H   0  0  0  0  0  0  0  0  0  0  0  0
   42.7450   83.2630   56.2560 C   0  0  0  0  0  0  0  0  0  0  0  0
   42.1530   82.2410   55.5020 C   0  0  0  0  0  0  0  0  0  0  0  0
   41.0690   82.1850   55.5020 H   0  0  0  0  0  0  0  0  0  0  0  0
   42.8560   81.3250   54.7750 C   0  0  0  0  0  3  0  0  0  0  0  0
   44.2290   81.3560   54.7450 C   0  0  0  0  0  3  0  0  0  0  0  0
   44.8650   82.3250   55.4570 C   0  0  0  0  0  0  0  0  0  0  0  0
   46.2380   82.3190   55.3980 C   0  0  0  0  0  3  0  0  0  0  0  0
   46.9630   83.2640   56.0880 C   0  0  0  0  0  3  0  0  0  0  0  0
   46.2430   84.1930   56.8250 C   0  0  0  0  0  3  0  0  0  0  0  0
   44.8670   84.1570   56.8510 C   0  0  0  0  0  3  0  0  0  0  0  0
   44.1190   83.2300   56.1760 C   0  0  0  0  0  0  0  0  0  0  0  0
  1  2  1  0  0  0  0
  2  3  2  0  0  0  0
  2  7  1  0  0  0  0
  3  8  1  0  0  0  0
  4  9  1  0  0  0  0
  4  3  1  0  0  0  0
  5  4  2  0  0  0  0
  6  5  1  0  0  0  0
  6  1  2  0  0  0  0
 10  5  1  0  0  0  0
 11 12  2  0  0  0  0
 11 16  1  0  0  0  0
 12 13  1  0  0  0  0
 13 19  1  0  0  0  0
 13 14  2  0  0  0  0
 15 14  1  0  0  0  0
 15  1  1  0  0  0  0
 16 15  2  0  0  0  0
 17 11  1  0  0  0  0
 18 12  1  0  0  0  0
 20  6  1  0  0  0  0
 21 20  1  0  0  0  0
 21 26  1  0  0  0  0
 22 21  2  0  0  0  0
 23 24  2  0  0  0  0
 23 22  1  0  0  0  0
 24 25  1  0  0  0  0
 25 20  2  0  0  0  0
 27 22  1  0  0  0  0
 28 24  1  0  0  0  0
 29 30  1  0  0  0  0
 29 28  2  0  0  0  0
 31 29  1  0  0  0  0
 32 31  2  0  0  0  0
 32 33  1  0  0  0  0
 33 38  1  0  0  0  0
 34 33  2  0  0  0  0
 34 35  1  0  0  0  0
 35 36  2  0  0  0  0
 36 37  1  0  0  0  0
 38 28  1  0  0  0  0
 38 37  2  0  0  0  0
M  END
>  <minimizedAffinity>
-5.53212547

>  <minimizedRMSD>
0.305465251

$$$$
