
 OpenBabel03212521073D

 38 42  0  0  0  0  0  0  0  0999 V2000
   41.7570   84.1500   61.5930 C   0  0  0  0  0  0  0  0  0  0  0  0
   41.3620   83.9030   62.9020 C   0  0  0  0  0  0  0  0  0  0  0  0
   40.0550   83.5790   63.2180 C   0  0  0  0  0  0  0  0  0  0  0  0
   39.1130   83.4990   62.2010 C   0  0  0  0  0  0  0  0  0  0  0  0
   39.5100   83.7480   60.8900 C   0  0  0  0  0  0  0  0  0  0  0  0
   40.8130   84.0690   60.5880 C   0  0  0  0  0  0  0  0  0  0  0  0
   42.1340   83.9740   63.6830 H   0  0  0  0  0  0  0  0  0  0  0  0
   39.7740   83.3910   64.2400 H   0  0  0  0  0  0  0  0  0  0  0  0
   38.0780   83.2480   62.4050 H   0  0  0  0  0  0  0  0  0  0  0  0
   38.7770   83.6870   60.0870 H   0  0  0  0  0  0  0  0  0  0  0  0
   45.2770   83.7820   60.6930 C   0  0  0  0  0  0  0  0  0  0  0  0
   45.7630   85.0920   60.7910 C   0  0  0  0  0  0  0  0  0  0  0  0
   44.8610   86.1270   61.1760 C   0  0  0  0  0  0  0  0  0  0  0  0
   43.5730   85.7800   61.4270 N   0  0  0  0  0  0  0  0  0  0  0  0
   43.1380   84.4850   61.3190 C   0  0  0  0  0  0  0  0  0  0  0  0
   43.9880   83.5170   60.9570 N   0  0  0  0  0  0  0  0  0  0  0  0
   46.0090   83.0450   60.3970 H   0  0  0  0  0  0  0  0  0  0  0  0
   46.7830   85.4140   60.6000 H   0  0  0  0  0  0  0  0  0  0  0  0
   45.1620   87.1600   61.2740 H   0  0  0  0  0  0  0  0  0  0  0  0
   41.1650   84.3230   59.2040 C   0  0  0  0  0  0  0  0  0  0  0  0
   41.0320   85.6470   58.8480 C   0  0  0  0  0  0  0  0  0  0  0  0
   41.3360   86.0470   57.5460 C   0  0  0  0  0  0  0  0  0  0  0  0
   41.7480   85.1200   56.6920 N   0  0  0  0  0  0  0  0  0  0  0  0
   41.8870   83.8210   57.0200 C   0  0  0  0  0  0  0  0  0  0  0  0
   41.5860   83.4860   58.2660 N   0  0  0  0  0  0  0  0  0  0  0  0
   40.7020   86.4370   59.5000 H   0  0  0  0  0  0  0  0  0  0  0  0
   41.2570   87.0630   57.1870 H   0  0  0  0  0  0  0  0  0  0  0  0
   42.3180   82.6700   56.2370 C   0  0  0  0  0  0  0  0  0  0  0  0
   42.1130   82.5410   54.8560 C   0  0  0  0  0  0  0  0  0  0  0  0
   41.6020   83.3530   54.3500 H   0  0  0  0  0  0  0  0  0  0  0  0
   42.5180   81.4640   54.1230 C   0  0  0  0  0  3  0  0  0  0  0  0
   43.1690   80.4110   54.7220 C   0  0  0  0  0  3  0  0  0  0  0  0
   43.3980   80.4760   56.0600 C   0  0  0  0  0  0  0  0  0  0  0  0
   44.0520   79.4020   56.6160 C   0  0  0  0  0  3  0  0  0  0  0  0
   44.3250   79.3840   57.9660 C   0  0  0  0  0  3  0  0  0  0  0  0
   43.9130   80.4820   58.7060 C   0  0  0  0  0  3  0  0  0  0  0  0
   43.2600   81.5310   58.1000 C   0  0  0  0  0  3  0  0  0  0  0  0
   42.9740   81.5800   56.7630 C   0  0  0  0  0  0  0  0  0  0  0  0
  1  2  1  0  0  0  0
  2  3  2  0  0  0  0
  2  7  1  0  0  0  0
  3  8  1  0  0  0  0
  4  9  1  0  0  0  0
  4  3  1  0  0  0  0
  5  4  2  0  0  0  0
  6  5  1  0  0  0  0
  6  1  2  0  0  0  0
 10  5  1  0  0  0  0
 11 12  2  0  0  0  0
 11 16  1  0  0  0  0
 12 13  1  0  0  0  0
 13 19  1  0  0  0  0
 13 14  2  0  0  0  0
 15 14  1  0  0  0  0
 15  1  1  0  0  0  0
 16 15  2  0  0  0  0
 17 11  1  0  0  0  0
 18 12  1  0  0  0  0
 20  6  1  0  0  0  0
 21 20  1  0  0  0  0
 21 26  1  0  0  0  0
 22 21  2  0  0  0  0
 23 24  2  0  0  0  0
 23 22  1  0  0  0  0
 24 25  1  0  0  0  0
 25 20  2  0  0  0  0
 27 22  1  0  0  0  0
 28 38  1  0  0  0  0
 28 24  1  0  0  0  0
 29 28  2  0  0  0  0
 30 29  1  0  0  0  0
 31 32  2  0  0  0  0
 31 29  1  0  0  0  0
 32 33  1  0  0  0  0
 33 34  2  0  0  0  0
 33 38  1  0  0  0  0
 34 35  1  0  0  0  0
 35 36  2  0  0  0  0
 37 36  1  0  0  0  0
 38 37  2  0  0  0  0
M  END
>  <minimizedAffinity>
-5.50047636

>  <minimizedRMSD>
0.636631727

$$$$
