
 OpenBabel03212520493D

 30 33  0  0  0  0  0  0  0  0999 V2000
   42.1190   84.1580   62.0900 C   0  0  0  0  0  0  0  0  0  0  0  0
   41.4200   84.3560   63.2390 C   0  0  0  0  0  0  0  0  0  0  0  0
   40.2970   83.5650   63.5340 C   0  0  0  0  0  0  0  0  0  0  0  0
   39.9050   82.6100   62.6880 N   0  0  0  0  0  0  0  0  0  0  0  0
   40.5830   82.4090   61.5590 C   0  0  0  0  0  0  0  0  0  0  0  0
   41.6510   83.1900   61.3190 N   0  0  0  0  0  0  0  0  0  0  0  0
   41.7060   85.1180   63.9510 H   0  0  0  0  0  0  0  0  0  0  0  0
   39.7150   83.6900   64.4360 H   0  0  0  0  0  0  0  0  0  0  0  0
   44.3630   86.9870   61.5450 C   0  0  0  0  0  0  0  0  0  0  0  0
   45.4980   86.3680   61.0330 C   0  0  0  0  0  0  0  0  0  0  0  0
   45.5110   84.9740   60.8690 C   0  0  0  0  0  0  0  0  0  0  0  0
   44.3730   84.3190   61.2360 N   0  0  0  0  0  0  0  0  0  0  0  0
   43.2920   84.9490   61.7280 C   0  0  0  0  0  0  0  0  0  0  0  0
   43.2870   86.2620   61.8800 N   0  0  0  0  0  0  0  0  0  0  0  0
   44.5020   88.3820   61.6520 N   0  0  0  0  0  0  0  0  0  0  0  0
   46.4330   86.8150   60.7220 H   0  0  0  0  0  0  0  0  0  0  0  0
   46.3530   84.4280   60.4800 H   0  0  0  0  0  0  0  0  0  0  0  0
   44.1140   89.0060   62.4180 H   0  0  0  0  0  0  0  0  0  0  0  0
   45.0060   88.9710   60.9860 H   0  0  0  0  0  0  0  0  0  0  0  0
   40.3810   81.4470   60.4600 C   0  0  0  0  0  0  0  0  0  0  0  0
   40.1760   81.8090   59.1330 C   0  0  0  0  0  0  0  0  0  0  0  0
   40.1670   82.8660   58.8940 H   0  0  0  0  0  0  0  0  0  0  0  0
   39.9890   80.9140   58.1160 C   0  0  0  0  0  0  0  0  0  0  0  0
   39.9940   79.5630   58.3660 C   0  0  0  0  0  0  0  0  0  0  0  0
   40.1910   79.1490   59.6600 C   0  0  0  0  0  0  0  0  0  0  0  0
   40.1860   77.7870   59.8610 C   0  0  0  0  0  0  0  0  0  0  0  0
   40.3770   77.2860   61.1290 C   0  0  0  0  0  0  0  0  0  0  0  0
   40.5680   78.2050   62.1660 C   0  0  0  0  0  0  0  0  0  0  0  0
   40.5590   79.5450   61.8860 C   0  0  0  0  0  0  0  0  0  0  0  0
   40.3750   80.0860   60.6470 C   0  0  0  0  0  0  0  0  0  0  0  0
  1  2  1  0  0  0  0
  2  3  2  0  0  0  0
  2  7  1  0  0  0  0
  3  8  1  0  0  0  0
  4  3  1  0  0  0  0
  5  4  2  0  0  0  0
  6  5  1  0  0  0  0
  6  1  2  0  0  0  0
  9 15  1  0  0  0  0
  9 14  1  0  0  0  0
 10  9  2  0  0  0  0
 11 10  1  0  0  0  0
 11 12  2  0  0  0  0
 12 13  1  0  0  0  0
 13 14  2  0  0  0  0
 13  1  1  0  0  0  0
 15 18  1  0  0  0  0
 16 10  1  0  0  0  0
 17 11  1  0  0  0  0
 19 15  1  0  0  0  0
 20 30  1  0  0  0  0
 20  5  1  0  0  0  0
 21 20  2  0  0  0  0
 22 21  1  0  0  0  0
 23 24  2  0  0  0  0
 23 21  1  0  0  0  0
 24 25  1  0  0  0  0
 25 26  2  0  0  0  0
 25 30  1  0  0  0  0
 26 27  1  0  0  0  0
 27 28  2  0  0  0  0
 29 28  1  0  0  0  0
 30 29  2  0  0  0  0
M  END
>  <minimizedAffinity>
-6.57475948

>  <minimizedRMSD>
2.48285604

$$$$
