
 OpenBabel03212521073D

 38 42  0  0  0  0  0  0  0  0999 V2000
   41.8080   84.2680   61.5910 C   0  0  0  0  0  0  0  0  0  0  0  0
   41.5070   83.8130   62.8690 C   0  0  0  0  0  0  0  0  0  0  0  0
   40.2350   83.3860   63.2070 C   0  0  0  0  0  0  0  0  0  0  0  0
   39.2350   83.4120   62.2450 C   0  0  0  0  0  0  0  0  0  0  0  0
   39.5380   83.8680   60.9650 C   0  0  0  0  0  0  0  0  0  0  0  0
   40.8070   84.2900   60.6410 C   0  0  0  0  0  0  0  0  0  0  0  0
   42.3230   83.8050   63.6070 H   0  0  0  0  0  0  0  0  0  0  0  0
   40.0270   83.0370   64.2040 H   0  0  0  0  0  0  0  0  0  0  0  0
   38.2250   83.0870   62.4680 H   0  0  0  0  0  0  0  0  0  0  0  0
   38.7590   83.8910   60.2050 H   0  0  0  0  0  0  0  0  0  0  0  0
   45.3320   84.1560   60.6360 C   0  0  0  0  0  0  0  0  0  0  0  0
   45.7190   85.5000   60.7160 C   0  0  0  0  0  0  0  0  0  0  0  0
   44.7480   86.4680   61.1080 C   0  0  0  0  0  0  0  0  0  0  0  0
   43.4940   86.0280   61.3820 N   0  0  0  0  0  0  0  0  0  0  0  0
   43.1560   84.7020   61.2920 C   0  0  0  0  0  0  0  0  0  0  0  0
   44.0700   83.7980   60.9240 N   0  0  0  0  0  0  0  0  0  0  0  0
   46.1120   83.4740   60.3350 H   0  0  0  0  0  0  0  0  0  0  0  0
   46.7090   85.8960   60.5060 H   0  0  0  0  0  0  0  0  0  0  0  0
   44.9720   87.5210   61.1920 H   0  0  0  0  0  0  0  0  0  0  0  0
   41.0610   84.7610   59.2920 C   0  0  0  0  0  0  0  0  0  0  0  0
   40.1500   85.7040   58.8700 C   0  0  0  0  0  0  0  0  0  0  0  0
   40.2660   86.2520   57.5910 C   0  0  0  0  0  0  0  0  0  0  0  0
   41.2660   85.8350   56.8250 N   0  0  0  0  0  0  0  0  0  0  0  0
   42.1660   84.9150   57.2190 C   0  0  0  0  0  0  0  0  0  0  0  0
   42.0180   84.4210   58.4390 N   0  0  0  0  0  0  0  0  0  0  0  0
   39.3240   86.0750   59.4490 H   0  0  0  0  0  0  0  0  0  0  0  0
   39.5950   86.9940   57.1840 H   0  0  0  0  0  0  0  0  0  0  0  0
   43.3150   84.3360   56.5350 C   0  0  0  0  0  0  0  0  0  0  0  0
   44.6280   84.8070   56.6740 C   0  0  0  0  0  0  0  0  0  0  0  0
   44.7870   85.6540   57.3320 H   0  0  0  0  0  0  0  0  0  0  0  0
   45.7030   84.2650   56.0320 C   0  0  0  0  0  3  0  0  0  0  0  0
   45.5510   83.1920   55.1880 C   0  0  0  0  0  3  0  0  0  0  0  0
   44.3000   82.6870   55.0100 C   0  0  0  0  0  0  0  0  0  0  0  0
   44.1950   81.6150   54.1590 C   0  0  0  0  0  3  0  0  0  0  0  0
   42.9660   81.0400   53.9210 C   0  0  0  0  0  3  0  0  0  0  0  0
   41.8760   81.5950   54.5750 C   0  0  0  0  0  3  0  0  0  0  0  0
   42.0360   82.6700   55.4180 C   0  0  0  0  0  3  0  0  0  0  0  0
   43.2430   83.2620   55.6760 C   0  0  0  0  0  0  0  0  0  0  0  0
  1  2  1  0  0  0  0
  2  3  2  0  0  0  0
  2  7  1  0  0  0  0
  3  8  1  0  0  0  0
  4  9  1  0  0  0  0
  4  3  1  0  0  0  0
  5  4  2  0  0  0  0
  6  5  1  0  0  0  0
  6  1  2  0  0  0  0
 10  5  1  0  0  0  0
 11 12  2  0  0  0  0
 11 16  1  0  0  0  0
 12 13  1  0  0  0  0
 13 19  1  0  0  0  0
 13 14  2  0  0  0  0
 15 14  1  0  0  0  0
 15  1  1  0  0  0  0
 16 15  2  0  0  0  0
 17 11  1  0  0  0  0
 18 12  1  0  0  0  0
 20  6  1  0  0  0  0
 21 20  1  0  0  0  0
 21 26  1  0  0  0  0
 22 21  2  0  0  0  0
 23 24  2  0  0  0  0
 23 22  1  0  0  0  0
 24 25  1  0  0  0  0
 25 20  2  0  0  0  0
 27 22  1  0  0  0  0
 28 29  1  0  0  0  0
 28 24  1  0  0  0  0
 29 30  1  0  0  0  0
 31 29  2  0  0  0  0
 32 31  1  0  0  0  0
 33 32  2  0  0  0  0
 33 38  1  0  0  0  0
 34 33  1  0  0  0  0
 35 34  2  0  0  0  0
 35 36  1  0  0  0  0
 36 37  2  0  0  0  0
 37 38  1  0  0  0  0
 38 28  2  0  0  0  0
M  END
>  <minimizedAffinity>
-5.82610464

>  <minimizedRMSD>
1.4177618

$$$$
