
 OpenBabel03212521073D

 38 42  0  0  0  0  0  0  0  0999 V2000
   41.8190   84.2300   61.6750 C   0  0  0  0  0  0  0  0  0  0  0  0
   41.5020   83.7470   62.9380 C   0  0  0  0  0  0  0  0  0  0  0  0
   40.2210   83.3330   63.2580 C   0  0  0  0  0  0  0  0  0  0  0  0
   39.2270   83.4020   62.2910 C   0  0  0  0  0  0  0  0  0  0  0  0
   39.5460   83.8870   61.0250 C   0  0  0  0  0  0  0  0  0  0  0  0
   40.8240   84.2960   60.7200 C   0  0  0  0  0  0  0  0  0  0  0  0
   42.3140   83.7060   63.6800 H   0  0  0  0  0  0  0  0  0  0  0  0
   40.0010   82.9620   64.2440 H   0  0  0  0  0  0  0  0  0  0  0  0
   38.2110   83.0880   62.4990 H   0  0  0  0  0  0  0  0  0  0  0  0
   38.7720   83.9430   60.2620 H   0  0  0  0  0  0  0  0  0  0  0  0
   45.3510   84.0800   60.7570 C   0  0  0  0  0  0  0  0  0  0  0  0
   45.7550   85.4180   60.8550 C   0  0  0  0  0  0  0  0  0  0  0  0
   44.7930   86.3960   61.2450 C   0  0  0  0  0  0  0  0  0  0  0  0
   43.5300   85.9690   61.5020 N   0  0  0  0  0  0  0  0  0  0  0  0
   43.1760   84.6500   61.3940 C   0  0  0  0  0  0  0  0  0  0  0  0
   44.0820   83.7360   61.0270 N   0  0  0  0  0  0  0  0  0  0  0  0
   46.1250   83.3910   60.4580 H   0  0  0  0  0  0  0  0  0  0  0  0
   46.7530   85.8030   60.6590 H   0  0  0  0  0  0  0  0  0  0  0  0
   45.0310   87.4450   61.3430 H   0  0  0  0  0  0  0  0  0  0  0  0
   41.0940   84.7970   59.3850 C   0  0  0  0  0  0  0  0  0  0  0  0
   40.1270   85.6660   58.9300 C   0  0  0  0  0  0  0  0  0  0  0  0
   40.2500   86.2330   57.6610 C   0  0  0  0  0  0  0  0  0  0  0  0
   41.3110   85.9060   56.9350 N   0  0  0  0  0  0  0  0  0  0  0  0
   42.2680   85.0600   57.3610 C   0  0  0  0  0  0  0  0  0  0  0  0
   42.1100   84.5440   58.5720 N   0  0  0  0  0  0  0  0  0  0  0  0
   39.2500   85.9630   59.4770 H   0  0  0  0  0  0  0  0  0  0  0  0
   39.5380   86.9210   57.2300 H   0  0  0  0  0  0  0  0  0  0  0  0
   43.4880   84.5830   56.7230 C   0  0  0  0  0  0  0  0  0  0  0  0
   44.7760   84.9900   57.0960 C   0  0  0  0  0  0  0  0  0  0  0  0
   44.8590   85.7030   57.9100 H   0  0  0  0  0  0  0  0  0  0  0  0
   45.9190   84.5430   56.4980 C   0  0  0  0  0  3  0  0  0  0  0  0
   45.8640   83.6410   55.4630 C   0  0  0  0  0  3  0  0  0  0  0  0
   44.6420   83.2070   55.0540 C   0  0  0  0  0  0  0  0  0  0  0  0
   44.6360   82.3050   54.0170 C   0  0  0  0  0  3  0  0  0  0  0  0
   43.4420   81.8130   53.5390 C   0  0  0  0  0  3  0  0  0  0  0  0
   42.2840   82.2700   54.1490 C   0  0  0  0  0  3  0  0  0  0  0  0
   42.3450   83.1740   55.1850 C   0  0  0  0  0  3  0  0  0  0  0  0
   43.5150   83.6810   55.6830 C   0  0  0  0  0  0  0  0  0  0  0  0
  1  2  1  0  0  0  0
  2  3  2  0  0  0  0
  2  7  1  0  0  0  0
  3  8  1  0  0  0  0
  4  9  1  0  0  0  0
  4  3  1  0  0  0  0
  5  4  2  0  0  0  0
  6  5  1  0  0  0  0
  6  1  2  0  0  0  0
 10  5  1  0  0  0  0
 11 12  2  0  0  0  0
 11 16  1  0  0  0  0
 12 13  1  0  0  0  0
 13 19  1  0  0  0  0
 13 14  2  0  0  0  0
 15 14  1  0  0  0  0
 15  1  1  0  0  0  0
 16 15  2  0  0  0  0
 17 11  1  0  0  0  0
 18 12  1  0  0  0  0
 20  6  1  0  0  0  0
 21 20  1  0  0  0  0
 21 26  1  0  0  0  0
 22 21  2  0  0  0  0
 23 24  2  0  0  0  0
 23 22  1  0  0  0  0
 24 25  1  0  0  0  0
 25 20  2  0  0  0  0
 27 22  1  0  0  0  0
 28 29  1  0  0  0  0
 28 24  1  0  0  0  0
 29 30  1  0  0  0  0
 31 29  2  0  0  0  0
 32 31  1  0  0  0  0
 33 32  2  0  0  0  0
 33 38  1  0  0  0  0
 34 33  1  0  0  0  0
 35 34  2  0  0  0  0
 35 36  1  0  0  0  0
 36 37  2  0  0  0  0
 37 38  1  0  0  0  0
 38 28  2  0  0  0  0
M  END
>  <minimizedAffinity>
-5.85048342

>  <minimizedRMSD>
1.38907039

$$$$
