
 OpenBabel03212521073D

 38 42  0  0  0  0  0  0  0  0999 V2000
   41.8300   84.1750   61.6270 C   0  0  0  0  0  0  0  0  0  0  0  0
   41.4820   83.9650   62.9550 C   0  0  0  0  0  0  0  0  0  0  0  0
   40.1940   83.6210   63.3240 C   0  0  0  0  0  0  0  0  0  0  0  0
   39.2240   83.4810   62.3410 C   0  0  0  0  0  0  0  0  0  0  0  0
   39.5740   83.6920   61.0100 C   0  0  0  0  0  0  0  0  0  0  0  0
   40.8590   84.0340   60.6560 C   0  0  0  0  0  0  0  0  0  0  0  0
   42.2750   84.0850   63.7090 H   0  0  0  0  0  0  0  0  0  0  0  0
   39.9500   83.4630   64.3600 H   0  0  0  0  0  0  0  0  0  0  0  0
   38.2030   83.2120   62.5860 H   0  0  0  0  0  0  0  0  0  0  0  0
   38.8190   83.5830   60.2330 H   0  0  0  0  0  0  0  0  0  0  0  0
   45.3030   83.8770   60.5380 C   0  0  0  0  0  0  0  0  0  0  0  0
   45.7830   85.1860   60.6650 C   0  0  0  0  0  0  0  0  0  0  0  0
   44.8940   86.1970   61.1350 C   0  0  0  0  0  0  0  0  0  0  0  0
   43.6230   85.8280   61.4360 N   0  0  0  0  0  0  0  0  0  0  0  0
   43.1930   84.5330   61.2980 C   0  0  0  0  0  0  0  0  0  0  0  0
   44.0310   83.5890   60.8550 N   0  0  0  0  0  0  0  0  0  0  0  0
   46.0250   83.1590   60.1770 H   0  0  0  0  0  0  0  0  0  0  0  0
   46.7900   85.5260   60.4360 H   0  0  0  0  0  0  0  0  0  0  0  0
   45.1920   87.2280   61.2590 H   0  0  0  0  0  0  0  0  0  0  0  0
   41.1620   84.2460   59.2530 C   0  0  0  0  0  0  0  0  0  0  0  0
   41.0510   85.5650   58.8710 C   0  0  0  0  0  0  0  0  0  0  0  0
   41.3130   85.9260   57.5490 C   0  0  0  0  0  0  0  0  0  0  0  0
   41.6650   84.9680   56.7020 N   0  0  0  0  0  0  0  0  0  0  0  0
   41.7800   83.6740   57.0550 C   0  0  0  0  0  0  0  0  0  0  0  0
   41.5200   83.3760   58.3200 N   0  0  0  0  0  0  0  0  0  0  0  0
   40.7700   86.3780   59.5170 H   0  0  0  0  0  0  0  0  0  0  0  0
   41.2490   86.9350   57.1690 H   0  0  0  0  0  0  0  0  0  0  0  0
   42.1470   82.4930   56.2830 C   0  0  0  0  0  0  0  0  0  0  0  0
   43.3920   82.3180   55.6650 C   0  0  0  0  0  0  0  0  0  0  0  0
   44.1200   83.1170   55.7720 H   0  0  0  0  0  0  0  0  0  0  0  0
   43.7360   81.2120   54.9430 C   0  0  0  0  0  0  0  0  0  0  0  0
   42.8490   80.1760   54.7800 C   0  0  0  0  0  0  0  0  0  0  0  0
   41.6220   80.2850   55.3560 C   0  0  0  0  0  0  0  0  0  0  0  0
   40.7670   79.2250   55.1670 C   0  0  0  0  0  0  0  0  0  0  0  0
   39.5050   79.2500   55.7150 C   0  0  0  0  0  0  0  0  0  0  0  0
   39.1600   80.3770   56.4480 C   0  0  0  0  0  0  0  0  0  0  0  0
   40.0530   81.4110   56.6070 C   0  0  0  0  0  0  0  0  0  0  0  0
   41.3150   81.4160   56.0750 C   0  0  0  0  0  0  0  0  0  0  0  0
  1  2  1  0  0  0  0
  2  3  2  0  0  0  0
  2  7  1  0  0  0  0
  3  8  1  0  0  0  0
  4  9  1  0  0  0  0
  4  3  1  0  0  0  0
  5  4  2  0  0  0  0
  6  5  1  0  0  0  0
  6  1  2  0  0  0  0
 10  5  1  0  0  0  0
 11 12  2  0  0  0  0
 11 16  1  0  0  0  0
 12 13  1  0  0  0  0
 13 19  1  0  0  0  0
 13 14  2  0  0  0  0
 15 14  1  0  0  0  0
 15  1  1  0  0  0  0
 16 15  2  0  0  0  0
 17 11  1  0  0  0  0
 18 12  1  0  0  0  0
 20  6  1  0  0  0  0
 21 20  1  0  0  0  0
 21 26  1  0  0  0  0
 22 21  2  0  0  0  0
 23 24  2  0  0  0  0
 23 22  1  0  0  0  0
 24 25  1  0  0  0  0
 25 20  2  0  0  0  0
 27 22  1  0  0  0  0
 28 24  1  0  0  0  0
 29 30  1  0  0  0  0
 29 28  2  0  0  0  0
 31 29  1  0  0  0  0
 32 31  2  0  0  0  0
 32 33  1  0  0  0  0
 33 38  1  0  0  0  0
 34 33  2  0  0  0  0
 34 35  1  0  0  0  0
 35 36  2  0  0  0  0
 36 37  1  0  0  0  0
 38 28  1  0  0  0  0
 38 37  2  0  0  0  0
M  END
>  <minimizedAffinity>
-6.06008768

>  <minimizedRMSD>
1.36331832

$$$$
