
 OpenBabel03212521043D

 30 33  0  0  0  0  0  0  0  0999 V2000
   41.2650   71.3420   59.4350 C   0  0  0  0  0  0  0  0  0  0  0  0
   41.9000   70.0920   59.4650 C   0  0  0  0  0  0  0  0  0  0  0  0
   42.5800   69.6490   60.5790 C   0  0  0  0  0  0  0  0  0  0  0  0
   42.6360   70.4810   61.7140 C   0  0  0  0  0  0  0  0  0  0  0  0
   42.0020   71.7170   61.6710 C   0  0  0  0  0  0  0  0  0  0  0  0
   41.3170   72.1610   60.5480 C   0  0  0  0  0  0  0  0  0  0  0  0
   41.8410   69.4680   58.5690 H   0  0  0  0  0  0  0  0  0  0  0  0
   43.0400   68.6680   60.5100 H   0  0  0  0  0  0  0  0  0  0  0  0
   43.1770   70.1110   62.5740 H   0  0  0  0  0  0  0  0  0  0  0  0
   42.0870   72.3090   62.5860 H   0  0  0  0  0  0  0  0  0  0  0  0
   40.6770   73.4720   60.5660 C   0  0  0  0  0  0  0  0  0  0  0  0
   39.3850   73.5350   61.0980 C   0  0  0  0  0  0  0  0  0  0  0  0
   38.9240   72.6300   61.4670 H   0  0  0  0  0  0  0  0  0  0  0  0
   38.6540   74.7000   61.1830 C   0  0  0  0  0  3  0  0  0  0  0  0
   39.2080   75.8760   60.7230 C   0  0  0  0  0  3  0  0  0  0  0  0
   40.4820   75.8310   60.1950 C   0  0  0  0  0  0  0  0  0  0  0  0
   41.0710   76.9910   59.7230 C   0  0  0  0  0  3  0  0  0  0  0  0
   42.3450   76.9180   59.2000 C   0  0  0  0  0  3  0  0  0  0  0  0
   43.0810   75.7340   59.1170 C   0  0  0  0  0  3  0  0  0  0  0  0
   42.4720   74.5780   59.5960 C   0  0  0  0  0  3  0  0  0  0  0  0
   41.2080   74.6630   60.1120 C   0  0  0  0  0  0  0  0  0  0  0  0
   40.5840   72.6300   56.0810 C   0  0  0  0  0  0  0  0  0  0  0  0
   39.2000   72.4800   55.9630 C   0  0  0  0  0  0  0  0  0  0  0  0
   38.4970   71.9320   57.0400 C   0  0  0  0  0  0  0  0  0  0  0  0
   39.2150   71.5840   58.1300 N   0  0  0  0  0  0  0  0  0  0  0  0
   40.5650   71.7370   58.2300 C   0  0  0  0  0  0  0  0  0  0  0  0
   41.2320   72.2570   57.2060 N   0  0  0  0  0  0  0  0  0  0  0  0
   41.2200   73.0410   55.3100 H   0  0  0  0  0  0  0  0  0  0  0  0
   38.7240   72.7920   55.0440 H   0  0  0  0  0  0  0  0  0  0  0  0
   37.4310   71.8070   56.9720 H   0  0  0  0  0  0  0  0  0  0  0  0
  1  2  2  0  0  0  0
  1  6  1  0  0  0  0
  2  3  1  0  0  0  0
  3  4  2  0  0  0  0
  4  9  1  0  0  0  0
  5  4  1  0  0  0  0
  5 10  1  0  0  0  0
  6 11  1  0  0  0  0
  6  5  2  0  0  0  0
  7  2  1  0  0  0  0
  8  3  1  0  0  0  0
 11 12  1  0  0  0  0
 12 14  2  0  0  0  0
 12 13  1  0  0  0  0
 15 14  1  0  0  0  0
 16 15  2  0  0  0  0
 17 16  1  0  0  0  0
 18 17  2  0  0  0  0
 19 18  1  0  0  0  0
 19 20  2  0  0  0  0
 20 21  1  0  0  0  0
 21 16  1  0  0  0  0
 21 11  2  0  0  0  0
 22 27  1  0  0  0  0
 23 22  2  0  0  0  0
 23 24  1  0  0  0  0
 24 25  2  0  0  0  0
 25 26  1  0  0  0  0
 26  1  1  0  0  0  0
 27 26  2  0  0  0  0
 28 22  1  0  0  0  0
 29 23  1  0  0  0  0
 30 24  1  0  0  0  0
M  END
>  <minimizedAffinity>
-6.26853037

$$$$

 OpenBabel03212521043D

 30 33  0  0  0  0  0  0  0  0999 V2000
   39.7810   72.7830   57.3570 C   0  0  0  0  0  0  0  0  0  0  0  0
   40.1020   71.6670   56.5720 C   0  0  0  0  0  0  0  0  0  0  0  0
   40.9270   70.6650   57.0350 C   0  0  0  0  0  0  0  0  0  0  0  0
   41.4610   70.7740   58.3340 C   0  0  0  0  0  0  0  0  0  0  0  0
   41.1350   71.8860   59.1010 C   0  0  0  0  0  0  0  0  0  0  0  0
   40.3030   72.8930   58.6330 C   0  0  0  0  0  0  0  0  0  0  0  0
   39.6730   71.6090   55.5670 H   0  0  0  0  0  0  0  0  0  0  0  0
   41.1190   69.8390   56.3560 H   0  0  0  0  0  0  0  0  0  0  0  0
   42.1070   69.9760   58.6730 H   0  0  0  0  0  0  0  0  0  0  0  0
   41.5850   71.9030   60.0980 H   0  0  0  0  0  0  0  0  0  0  0  0
   40.0030   74.0360   59.4880 C   0  0  0  0  0  0  0  0  0  0  0  0
   38.9150   73.9060   60.3560 C   0  0  0  0  0  0  0  0  0  0  0  0
   38.3520   72.9830   60.3580 H   0  0  0  0  0  0  0  0  0  0  0  0
   38.5110   74.8990   61.2230 C   0  0  0  0  0  3  0  0  0  0  0  0
   39.2040   76.0910   61.2500 C   0  0  0  0  0  3  0  0  0  0  0  0
   40.2800   76.2340   60.3990 C   0  0  0  0  0  0  0  0  0  0  0  0
   41.0000   77.4170   60.3980 C   0  0  0  0  0  3  0  0  0  0  0  0
   42.0720   77.5350   59.5380 C   0  0  0  0  0  3  0  0  0  0  0  0
   42.4770   76.5260   58.6620 C   0  0  0  0  0  3  0  0  0  0  0  0
   41.7400   75.3450   58.6780 C   0  0  0  0  0  3  0  0  0  0  0  0
   40.6800   75.2400   59.5340 C   0  0  0  0  0  0  0  0  0  0  0  0
   36.7650   74.6610   56.4900 C   0  0  0  0  0  0  0  0  0  0  0  0
   37.2650   75.7250   55.7350 C   0  0  0  0  0  0  0  0  0  0  0  0
   38.6450   75.7990   55.5240 C   0  0  0  0  0  0  0  0  0  0  0  0
   39.4040   74.8250   56.0700 N   0  0  0  0  0  0  0  0  0  0  0  0
   38.9020   73.7930   56.8040 C   0  0  0  0  0  0  0  0  0  0  0  0
   37.5910   73.7240   57.0050 N   0  0  0  0  0  0  0  0  0  0  0  0
   35.7190   74.5110   56.7130 H   0  0  0  0  0  0  0  0  0  0  0  0
   36.5670   76.4510   55.3430 H   0  0  0  0  0  0  0  0  0  0  0  0
   39.0520   76.6100   54.9460 H   0  0  0  0  0  0  0  0  0  0  0  0
  1  6  1  0  0  0  0
  2  3  1  0  0  0  0
  2  1  2  0  0  0  0
  3  4  2  0  0  0  0
  4  9  1  0  0  0  0
  4  5  1  0  0  0  0
  5 10  1  0  0  0  0
  6  5  2  0  0  0  0
  6 11  1  0  0  0  0
  7  2  1  0  0  0  0
  8  3  1  0  0  0  0
 11 21  2  0  0  0  0
 11 12  1  0  0  0  0
 12 13  1  0  0  0  0
 12 14  2  0  0  0  0
 14 15  1  0  0  0  0
 16 15  2  0  0  0  0
 17 16  1  0  0  0  0
 18 17  2  0  0  0  0
 19 20  2  0  0  0  0
 19 18  1  0  0  0  0
 20 21  1  0  0  0  0
 21 16  1  0  0  0  0
 22 28  1  0  0  0  0
 22 27  1  0  0  0  0
 23 22  2  0  0  0  0
 24 23  1  0  0  0  0
 24 25  2  0  0  0  0
 25 26  1  0  0  0  0
 26 27  2  0  0  0  0
 26  1  1  0  0  0  0
 29 23  1  0  0  0  0
 30 24  1  0  0  0  0
M  END
>  <minimizedAffinity>
-5.89476681

$$$$

 OpenBabel03212521043D

 30 33  0  0  0  0  0  0  0  0999 V2000
   41.6110   71.0780   59.2510 C   0  0  0  0  0  0  0  0  0  0  0  0
   41.6720   69.7390   59.6590 C   0  0  0  0  0  0  0  0  0  0  0  0
   42.3950   69.3480   60.7640 C   0  0  0  0  0  0  0  0  0  0  0  0
   43.0910   70.3270   61.5000 C   0  0  0  0  0  0  0  0  0  0  0  0
   43.0220   71.6520   61.0840 C   0  0  0  0  0  0  0  0  0  0  0  0
   42.2930   72.0430   59.9700 C   0  0  0  0  0  0  0  0  0  0  0  0
   41.1220   69.0000   59.0680 H   0  0  0  0  0  0  0  0  0  0  0  0
   42.3830   68.2890   61.0040 H   0  0  0  0  0  0  0  0  0  0  0  0
   43.6520   69.9950   62.3630 H   0  0  0  0  0  0  0  0  0  0  0  0
   43.5860   72.3560   61.7010 H   0  0  0  0  0  0  0  0  0  0  0  0
   42.2650   73.4500   59.5840 C   0  0  0  0  0  0  0  0  0  0  0  0
   43.2960   73.8950   58.7520 C   0  0  0  0  0  0  0  0  0  0  0  0
   44.0550   73.1940   58.4350 H   0  0  0  0  0  0  0  0  0  0  0  0
   43.4040   75.1940   58.3040 C   0  0  0  0  0  3  0  0  0  0  0  0
   42.4540   76.1180   58.6860 C   0  0  0  0  0  3  0  0  0  0  0  0
   41.4300   75.6940   59.5070 C   0  0  0  0  0  0  0  0  0  0  0  0
   40.4580   76.5930   59.9120 C   0  0  0  0  0  3  0  0  0  0  0  0
   39.4460   76.1430   60.7330 C   0  0  0  0  0  3  0  0  0  0  0  0
   39.3410   74.8260   61.1840 C   0  0  0  0  0  3  0  0  0  0  0  0
   40.3280   73.9370   60.7670 C   0  0  0  0  0  3  0  0  0  0  0  0
   41.3270   74.3950   59.9530 C   0  0  0  0  0  0  0  0  0  0  0  0
   40.6730   71.7960   55.7900 C   0  0  0  0  0  0  0  0  0  0  0  0
   39.3040   72.0590   55.8840 C   0  0  0  0  0  0  0  0  0  0  0  0
   38.7000   71.9890   57.1430 C   0  0  0  0  0  0  0  0  0  0  0  0
   39.4920   71.6680   58.1880 N   0  0  0  0  0  0  0  0  0  0  0  0
   40.8260   71.4140   58.0800 C   0  0  0  0  0  0  0  0  0  0  0  0
   41.3990   71.4800   56.8840 N   0  0  0  0  0  0  0  0  0  0  0  0
   41.2360   71.8230   54.8680 H   0  0  0  0  0  0  0  0  0  0  0  0
   38.7630   72.3080   54.9820 H   0  0  0  0  0  0  0  0  0  0  0  0
   37.6470   72.1870   57.2390 H   0  0  0  0  0  0  0  0  0  0  0  0
  1  2  2  0  0  0  0
  1  6  1  0  0  0  0
  2  3  1  0  0  0  0
  3  8  1  0  0  0  0
  3  4  2  0  0  0  0
  4  9  1  0  0  0  0
  5  4  1  0  0  0  0
  5 10  1  0  0  0  0
  6  5  2  0  0  0  0
  7  2  1  0  0  0  0
 11 21  1  0  0  0  0
 11  6  1  0  0  0  0
 12 11  2  0  0  0  0
 13 12  1  0  0  0  0
 14 15  2  0  0  0  0
 14 12  1  0  0  0  0
 15 16  1  0  0  0  0
 16 17  2  0  0  0  0
 16 21  1  0  0  0  0
 17 18  1  0  0  0  0
 18 19  2  0  0  0  0
 20 19  1  0  0  0  0
 21 20  2  0  0  0  0
 22 23  2  0  0  0  0
 22 27  1  0  0  0  0
 23 24  1  0  0  0  0
 24 30  1  0  0  0  0
 24 25  2  0  0  0  0
 26 25  1  0  0  0  0
 26  1  1  0  0  0  0
 27 26  2  0  0  0  0
 28 22  1  0  0  0  0
 29 23  1  0  0  0  0
M  END
>  <minimizedAffinity>
-5.84029198

$$$$

 OpenBabel03212521043D

 30 33  0  0  0  0  0  0  0  0999 V2000
   42.3420   72.7060   60.3620 C   0  0  0  0  0  0  0  0  0  0  0  0
   43.0790   71.7950   61.1310 C   0  0  0  0  0  0  0  0  0  0  0  0
   42.5820   71.2610   62.3000 C   0  0  0  0  0  0  0  0  0  0  0  0
   41.2980   71.6470   62.7290 C   0  0  0  0  0  0  0  0  0  0  0  0
   40.5770   72.5510   61.9570 C   0  0  0  0  0  0  0  0  0  0  0  0
   41.0790   73.0870   60.7800 C   0  0  0  0  0  0  0  0  0  0  0  0
   44.0740   71.5140   60.7740 H   0  0  0  0  0  0  0  0  0  0  0  0
   43.2250   70.5630   62.8280 H   0  0  0  0  0  0  0  0  0  0  0  0
   40.9310   71.2150   63.6500 H   0  0  0  0  0  0  0  0  0  0  0  0
   39.5890   72.8050   62.3500 H   0  0  0  0  0  0  0  0  0  0  0  0
   40.2730   74.0350   60.0180 C   0  0  0  0  0  0  0  0  0  0  0  0
   40.3770   75.3820   60.3780 C   0  0  0  0  0  0  0  0  0  0  0  0
   41.0360   75.6600   61.1880 H   0  0  0  0  0  0  0  0  0  0  0  0
   39.6790   76.3920   59.7510 C   0  0  0  0  0  3  0  0  0  0  0  0
   38.8290   76.0780   58.7120 C   0  0  0  0  0  3  0  0  0  0  0  0
   38.7170   74.7530   58.3450 C   0  0  0  0  0  0  0  0  0  0  0  0
   37.8720   74.3990   57.3060 C   0  0  0  0  0  3  0  0  0  0  0  0
   37.7780   73.0670   56.9590 C   0  0  0  0  0  3  0  0  0  0  0  0
   38.4870   72.0480   57.5970 C   0  0  0  0  0  3  0  0  0  0  0  0
   39.3300   72.4240   58.6390 C   0  0  0  0  0  3  0  0  0  0  0  0
   39.4150   73.7470   58.9750 C   0  0  0  0  0  0  0  0  0  0  0  0
   44.1540   74.8490   58.0180 C   0  0  0  0  0  0  0  0  0  0  0  0
   44.0210   74.1690   56.8040 C   0  0  0  0  0  0  0  0  0  0  0  0
   43.3060   72.9680   56.7920 C   0  0  0  0  0  0  0  0  0  0  0  0
   42.7890   72.5460   57.9660 N   0  0  0  0  0  0  0  0  0  0  0  0
   42.9280   73.2210   59.1420 C   0  0  0  0  0  0  0  0  0  0  0  0
   43.6080   74.3620   59.1530 N   0  0  0  0  0  0  0  0  0  0  0  0
   44.6860   75.7820   58.1380 H   0  0  0  0  0  0  0  0  0  0  0  0
   44.4750   74.5960   55.9220 H   0  0  0  0  0  0  0  0  0  0  0  0
   43.1910   72.4270   55.8690 H   0  0  0  0  0  0  0  0  0  0  0  0
  1  6  2  0  0  0  0
  1  2  1  0  0  0  0
  2  3  2  0  0  0  0
  3  4  1  0  0  0  0
  3  8  1  0  0  0  0
  4  9  1  0  0  0  0
  5 10  1  0  0  0  0
  5  4  2  0  0  0  0
  6  5  1  0  0  0  0
  7  2  1  0  0  0  0
 11 12  1  0  0  0  0
 11  6  1  0  0  0  0
 12 13  1  0  0  0  0
 14 12  2  0  0  0  0
 15 14  1  0  0  0  0
 16 15  2  0  0  0  0
 16 21  1  0  0  0  0
 17 16  1  0  0  0  0
 18 17  2  0  0  0  0
 18 19  1  0  0  0  0
 19 20  2  0  0  0  0
 20 21  1  0  0  0  0
 21 11  2  0  0  0  0
 22 28  1  0  0  0  0
 22 27  1  0  0  0  0
 23 22  2  0  0  0  0
 24 23  1  0  0  0  0
 24 25  2  0  0  0  0
 25 26  1  0  0  0  0
 26 27  2  0  0  0  0
 26  1  1  0  0  0  0
 29 23  1  0  0  0  0
 30 24  1  0  0  0  0
M  END
>  <minimizedAffinity>
-5.78322649

$$$$

 OpenBabel03212521043D

 30 33  0  0  0  0  0  0  0  0999 V2000
   42.1530   72.7810   60.1180 C   0  0  0  0  0  0  0  0  0  0  0  0
   42.9600   72.2000   61.1060 C   0  0  0  0  0  0  0  0  0  0  0  0
   42.4620   71.8610   62.3450 C   0  0  0  0  0  0  0  0  0  0  0  0
   41.1030   72.1090   62.6200 C   0  0  0  0  0  0  0  0  0  0  0  0
   40.3140   72.6860   61.6310 C   0  0  0  0  0  0  0  0  0  0  0  0
   40.8180   73.0260   60.3840 C   0  0  0  0  0  0  0  0  0  0  0  0
   44.0120   72.0190   60.8650 H   0  0  0  0  0  0  0  0  0  0  0  0
   43.1610   71.4150   63.0460 H   0  0  0  0  0  0  0  0  0  0  0  0
   40.7360   71.8350   63.5990 H   0  0  0  0  0  0  0  0  0  0  0  0
   39.2710   72.8500   61.9140 H   0  0  0  0  0  0  0  0  0  0  0  0
   39.9380   73.6330   59.3910 C   0  0  0  0  0  0  0  0  0  0  0  0
   39.1970   72.7610   58.5880 C   0  0  0  0  0  0  0  0  0  0  0  0
   39.3050   71.6950   58.7330 H   0  0  0  0  0  0  0  0  0  0  0  0
   38.3240   73.1840   57.6100 C   0  0  0  0  0  3  0  0  0  0  0  0
   38.1590   74.5360   57.3950 C   0  0  0  0  0  3  0  0  0  0  0  0
   38.8830   75.4100   58.1800 C   0  0  0  0  0  0  0  0  0  0  0  0
   38.7430   76.7750   57.9930 C   0  0  0  0  0  3  0  0  0  0  0  0
   39.4780   77.6270   58.7910 C   0  0  0  0  0  3  0  0  0  0  0  0
   40.3610   77.1930   59.7820 C   0  0  0  0  0  3  0  0  0  0  0  0
   40.4880   75.8170   59.9530 C   0  0  0  0  0  3  0  0  0  0  0  0
   39.7550   74.9820   59.1560 C   0  0  0  0  0  0  0  0  0  0  0  0
   43.2200   72.5460   56.6280 C   0  0  0  0  0  0  0  0  0  0  0  0
   43.8890   73.7560   56.4230 C   0  0  0  0  0  0  0  0  0  0  0  0
   43.9740   74.6570   57.4880 C   0  0  0  0  0  0  0  0  0  0  0  0
   43.3960   74.2890   58.6520 N   0  0  0  0  0  0  0  0  0  0  0  0
   42.7470   73.1060   58.8370 C   0  0  0  0  0  0  0  0  0  0  0  0
   42.6660   72.2510   57.8240 N   0  0  0  0  0  0  0  0  0  0  0  0
   43.0970   71.7820   55.8740 H   0  0  0  0  0  0  0  0  0  0  0  0
   44.3170   73.9490   55.4490 H   0  0  0  0  0  0  0  0  0  0  0  0
   44.4840   75.5940   57.3530 H   0  0  0  0  0  0  0  0  0  0  0  0
  1  6  2  0  0  0  0
  1  2  1  0  0  0  0
  2  3  2  0  0  0  0
  3  4  1  0  0  0  0
  3  8  1  0  0  0  0
  4  9  1  0  0  0  0
  5 10  1  0  0  0  0
  5  4  2  0  0  0  0
  6  5  1  0  0  0  0
  7  2  1  0  0  0  0
 11  6  1  0  0  0  0
 12 13  1  0  0  0  0
 12 11  2  0  0  0  0
 14 12  1  0  0  0  0
 15 14  2  0  0  0  0
 15 16  1  0  0  0  0
 16 21  1  0  0  0  0
 17 16  2  0  0  0  0
 17 18  1  0  0  0  0
 18 19  2  0  0  0  0
 19 20  1  0  0  0  0
 21 11  1  0  0  0  0
 21 20  2  0  0  0  0
 22 27  1  0  0  0  0
 23 22  2  0  0  0  0
 23 24  1  0  0  0  0
 24 25  2  0  0  0  0
 25 26  1  0  0  0  0
 26  1  1  0  0  0  0
 27 26  2  0  0  0  0
 28 22  1  0  0  0  0
 29 23  1  0  0  0  0
 30 24  1  0  0  0  0
M  END
>  <minimizedAffinity>
-5.61926794

$$$$

 OpenBabel03212521043D

 30 33  0  0  0  0  0  0  0  0999 V2000
   41.4990   74.8820   59.7970 C   0  0  0  0  0  0  0  0  0  0  0  0
   40.9330   76.1510   59.6130 C   0  0  0  0  0  0  0  0  0  0  0  0
   39.7500   76.5130   60.2180 C   0  0  0  0  0  0  0  0  0  0  0  0
   39.0960   75.5770   61.0430 C   0  0  0  0  0  0  0  0  0  0  0  0
   39.6680   74.3220   61.2160 C   0  0  0  0  0  0  0  0  0  0  0  0
   40.8610   73.9590   60.6060 C   0  0  0  0  0  0  0  0  0  0  0  0
   41.4630   76.8570   58.9670 H   0  0  0  0  0  0  0  0  0  0  0  0
   39.3880   77.5170   60.0180 H   0  0  0  0  0  0  0  0  0  0  0  0
   38.1680   75.8850   61.5050 H   0  0  0  0  0  0  0  0  0  0  0  0
   39.1070   73.6480   61.8680 H   0  0  0  0  0  0  0  0  0  0  0  0
   41.4070   72.6250   60.8260 C   0  0  0  0  0  0  0  0  0  0  0  0
   42.1070   72.4190   62.0190 C   0  0  0  0  0  0  0  0  0  0  0  0
   42.2130   73.2390   62.7140 H   0  0  0  0  0  0  0  0  0  0  0  0
   42.6780   71.2140   62.3660 C   0  0  0  0  0  3  0  0  0  0  0  0
   42.5640   70.1420   61.5060 C   0  0  0  0  0  3  0  0  0  0  0  0
   41.8760   70.3290   60.3250 C   0  0  0  0  0  0  0  0  0  0  0  0
   41.7410   69.2770   59.4360 C   0  0  0  0  0  3  0  0  0  0  0  0
   41.0480   69.4900   58.2620 C   0  0  0  0  0  3  0  0  0  0  0  0
   40.4710   70.7140   57.9150 C   0  0  0  0  0  3  0  0  0  0  0  0
   40.6180   71.7600   58.8220 C   0  0  0  0  0  3  0  0  0  0  0  0
   41.3070   71.5360   59.9810 C   0  0  0  0  0  0  0  0  0  0  0  0
   43.9520   74.1480   57.1860 C   0  0  0  0  0  0  0  0  0  0  0  0
   45.1390   73.9870   57.9060 C   0  0  0  0  0  0  0  0  0  0  0  0
   45.0960   74.1320   59.2960 C   0  0  0  0  0  0  0  0  0  0  0  0
   43.8980   74.4210   59.8480 N   0  0  0  0  0  0  0  0  0  0  0  0
   42.7500   74.5750   59.1320 C   0  0  0  0  0  0  0  0  0  0  0  0
   42.7910   74.4370   57.8110 N   0  0  0  0  0  0  0  0  0  0  0  0
   43.8750   74.0580   56.1120 H   0  0  0  0  0  0  0  0  0  0  0  0
   46.0440   73.7560   57.3630 H   0  0  0  0  0  0  0  0  0  0  0  0
   45.9970   74.0130   59.8710 H   0  0  0  0  0  0  0  0  0  0  0  0
  1  6  1  0  0  0  0
  2  1  2  0  0  0  0
  2  3  1  0  0  0  0
  3  4  2  0  0  0  0
  4  5  1  0  0  0  0
  4  9  1  0  0  0  0
  5 10  1  0  0  0  0
  6 11  1  0  0  0  0
  6  5  2  0  0  0  0
  7  2  1  0  0  0  0
  8  3  1  0  0  0  0
 11 12  1  0  0  0  0
 12 14  2  0  0  0  0
 12 13  1  0  0  0  0
 15 14  1  0  0  0  0
 16 15  2  0  0  0  0
 17 16  1  0  0  0  0
 18 17  2  0  0  0  0
 19 18  1  0  0  0  0
 19 20  2  0  0  0  0
 20 21  1  0  0  0  0
 21 16  1  0  0  0  0
 21 11  2  0  0  0  0
 22 27  2  0  0  0  0
 22 23  1  0  0  0  0
 23 24  2  0  0  0  0
 24 25  1  0  0  0  0
 24 30  1  0  0  0  0
 26  1  1  0  0  0  0
 26 25  2  0  0  0  0
 27 26  1  0  0  0  0
 28 22  1  0  0  0  0
 29 23  1  0  0  0  0
M  END
>  <minimizedAffinity>
-5.5678854

$$$$

 OpenBabel03212521043D

 30 33  0  0  0  0  0  0  0  0999 V2000
   39.6500   73.4170   55.9720 C   0  0  0  0  0  0  0  0  0  0  0  0
   39.4620   72.3030   55.1430 C   0  0  0  0  0  0  0  0  0  0  0  0
   40.1730   71.1360   55.3210 C   0  0  0  0  0  0  0  0  0  0  0  0
   41.1140   71.0680   56.3670 C   0  0  0  0  0  0  0  0  0  0  0  0
   41.2900   72.1800   57.1820 C   0  0  0  0  0  0  0  0  0  0  0  0
   40.5720   73.3540   57.0010 C   0  0  0  0  0  0  0  0  0  0  0  0
   38.7250   72.3840   54.3380 H   0  0  0  0  0  0  0  0  0  0  0  0
   39.9590   70.3260   54.6290 H   0  0  0  0  0  0  0  0  0  0  0  0
   41.6590   70.1420   56.4850 H   0  0  0  0  0  0  0  0  0  0  0  0
   42.0350   72.0560   57.9720 H   0  0  0  0  0  0  0  0  0  0  0  0
   40.8080   74.4870   57.8890 C   0  0  0  0  0  0  0  0  0  0  0  0
   41.8280   75.3720   57.5250 C   0  0  0  0  0  0  0  0  0  0  0  0
   42.3880   75.1840   56.6200 H   0  0  0  0  0  0  0  0  0  0  0  0
   42.1670   76.4860   58.2620 C   0  0  0  0  0  3  0  0  0  0  0  0
   41.4750   76.7600   59.4230 C   0  0  0  0  0  3  0  0  0  0  0  0
   40.4650   75.8970   59.7950 C   0  0  0  0  0  0  0  0  0  0  0  0
   39.7490   76.1400   60.9550 C   0  0  0  0  0  3  0  0  0  0  0  0
   38.7450   75.2610   61.3050 C   0  0  0  0  0  3  0  0  0  0  0  0
   38.4050   74.1340   60.5540 C   0  0  0  0  0  3  0  0  0  0  0  0
   39.1370   73.9070   59.3920 C   0  0  0  0  0  3  0  0  0  0  0  0
   40.1310   74.7840   59.0560 C   0  0  0  0  0  0  0  0  0  0  0  0
   36.9310   75.8600   56.0720 C   0  0  0  0  0  0  0  0  0  0  0  0
   37.3940   76.8790   55.2340 C   0  0  0  0  0  0  0  0  0  0  0  0
   38.6470   76.7260   54.6340 C   0  0  0  0  0  0  0  0  0  0  0  0
   39.3270   75.5920   54.9080 N   0  0  0  0  0  0  0  0  0  0  0  0
   38.8620   74.6080   55.7270 C   0  0  0  0  0  0  0  0  0  0  0  0
   37.6720   74.7540   56.2990 N   0  0  0  0  0  0  0  0  0  0  0  0
   35.9800   75.8780   56.5850 H   0  0  0  0  0  0  0  0  0  0  0  0
   36.7670   77.7460   55.0830 H   0  0  0  0  0  0  0  0  0  0  0  0
   39.0240   77.4970   53.9860 H   0  0  0  0  0  0  0  0  0  0  0  0
  1  6  1  0  0  0  0
  2  3  1  0  0  0  0
  2  1  2  0  0  0  0
  3  4  2  0  0  0  0
  4  9  1  0  0  0  0
  4  5  1  0  0  0  0
  5 10  1  0  0  0  0
  6  5  2  0  0  0  0
  6 11  1  0  0  0  0
  7  2  1  0  0  0  0
  8  3  1  0  0  0  0
 11 21  1  0  0  0  0
 12 11  2  0  0  0  0
 12 14  1  0  0  0  0
 13 12  1  0  0  0  0
 14 15  2  0  0  0  0
 15 16  1  0  0  0  0
 16 17  1  0  0  0  0
 17 18  2  0  0  0  0
 19 18  1  0  0  0  0
 20 19  2  0  0  0  0
 21 20  1  0  0  0  0
 21 16  2  0  0  0  0
 22 27  1  0  0  0  0
 22 28  1  0  0  0  0
 23 22  2  0  0  0  0
 24 25  2  0  0  0  0
 24 23  1  0  0  0  0
 25 26  1  0  0  0  0
 26  1  1  0  0  0  0
 26 27  2  0  0  0  0
 29 23  1  0  0  0  0
 30 24  1  0  0  0  0
M  END
>  <minimizedAffinity>
-5.49864006

$$$$

 OpenBabel03212521043D

 30 33  0  0  0  0  0  0  0  0999 V2000
   41.3920   72.1230   61.4300 C   0  0  0  0  0  0  0  0  0  0  0  0
   41.4770   71.6680   62.7520 C   0  0  0  0  0  0  0  0  0  0  0  0
   42.2500   70.5810   63.0990 C   0  0  0  0  0  0  0  0  0  0  0  0
   42.9720   69.9140   62.0910 C   0  0  0  0  0  0  0  0  0  0  0  0
   42.8790   70.3760   60.7830 C   0  0  0  0  0  0  0  0  0  0  0  0
   42.1000   71.4710   60.4360 C   0  0  0  0  0  0  0  0  0  0  0  0
   40.9050   72.2050   63.5150 H   0  0  0  0  0  0  0  0  0  0  0  0
   42.2540   70.3020   64.1490 H   0  0  0  0  0  0  0  0  0  0  0  0
   43.5710   69.0640   62.3880 H   0  0  0  0  0  0  0  0  0  0  0  0
   43.4660   69.8110   60.0540 H   0  0  0  0  0  0  0  0  0  0  0  0
   42.0420   71.9030   59.0440 C   0  0  0  0  0  0  0  0  0  0  0  0
   40.9530   71.4560   58.2900 C   0  0  0  0  0  0  0  0  0  0  0  0
   40.2140   70.8220   58.7600 H   0  0  0  0  0  0  0  0  0  0  0  0
   40.7610   71.7800   56.9650 C   0  0  0  0  0  3  0  0  0  0  0  0
   41.6820   72.5870   56.3300 C   0  0  0  0  0  3  0  0  0  0  0  0
   42.7620   73.0370   57.0600 C   0  0  0  0  0  0  0  0  0  0  0  0
   43.7070   73.8490   56.4570 C   0  0  0  0  0  3  0  0  0  0  0  0
   44.7780   74.2840   57.2090 C   0  0  0  0  0  3  0  0  0  0  0  0
   44.9670   73.9530   58.5530 C   0  0  0  0  0  3  0  0  0  0  0  0
   44.0060   73.1350   59.1410 C   0  0  0  0  0  3  0  0  0  0  0  0
   42.9500   72.7090   58.3850 C   0  0  0  0  0  0  0  0  0  0  0  0
   40.3450   75.4950   60.4780 C   0  0  0  0  0  0  0  0  0  0  0  0
   38.9550   75.4410   60.6100 C   0  0  0  0  0  0  0  0  0  0  0  0
   38.3740   74.2400   61.0270 C   0  0  0  0  0  0  0  0  0  0  0  0
   39.2080   73.2070   61.2750 N   0  0  0  0  0  0  0  0  0  0  0  0
   40.5620   73.2750   61.1420 C   0  0  0  0  0  0  0  0  0  0  0  0
   41.1130   74.4170   60.7440 N   0  0  0  0  0  0  0  0  0  0  0  0
   40.8930   76.3710   60.1620 H   0  0  0  0  0  0  0  0  0  0  0  0
   38.3810   76.3290   60.3850 H   0  0  0  0  0  0  0  0  0  0  0  0
   37.3060   74.1740   61.1360 H   0  0  0  0  0  0  0  0  0  0  0  0
  1  2  1  0  0  0  0
  2  3  2  0  0  0  0
  2  7  1  0  0  0  0
  3  8  1  0  0  0  0
  4  9  1  0  0  0  0
  4  3  1  0  0  0  0
  5  4  2  0  0  0  0
  6  5  1  0  0  0  0
  6  1  2  0  0  0  0
 10  5  1  0  0  0  0
 11  6  1  0  0  0  0
 12 13  1  0  0  0  0
 12 11  2  0  0  0  0
 14 12  1  0  0  0  0
 15 14  2  0  0  0  0
 15 16  1  0  0  0  0
 16 21  1  0  0  0  0
 17 16  2  0  0  0  0
 17 18  1  0  0  0  0
 18 19  2  0  0  0  0
 19 20  1  0  0  0  0
 21 11  1  0  0  0  0
 21 20  2  0  0  0  0
 22 23  2  0  0  0  0
 22 27  1  0  0  0  0
 23 24  1  0  0  0  0
 24 30  1  0  0  0  0
 24 25  2  0  0  0  0
 26 25  1  0  0  0  0
 26  1  1  0  0  0  0
 27 26  2  0  0  0  0
 28 22  1  0  0  0  0
 29 23  1  0  0  0  0
M  END
>  <minimizedAffinity>
-5.36643887

$$$$

 OpenBabel03212521043D

 30 33  0  0  0  0  0  0  0  0999 V2000
   41.9810   70.6660   60.3220 C   0  0  0  0  0  0  0  0  0  0  0  0
   41.5030   71.9800   60.2310 C   0  0  0  0  0  0  0  0  0  0  0  0
   41.4480   72.8110   61.3280 C   0  0  0  0  0  0  0  0  0  0  0  0
   41.8850   72.3190   62.5730 C   0  0  0  0  0  0  0  0  0  0  0  0
   42.3580   71.0140   62.6500 C   0  0  0  0  0  0  0  0  0  0  0  0
   42.4130   70.1790   61.5420 C   0  0  0  0  0  0  0  0  0  0  0  0
   41.1690   72.3350   59.2510 H   0  0  0  0  0  0  0  0  0  0  0  0
   41.0620   73.8130   61.1620 H   0  0  0  0  0  0  0  0  0  0  0  0
   41.8310   72.9910   63.4190 H   0  0  0  0  0  0  0  0  0  0  0  0
   42.6800   70.7000   63.6460 H   0  0  0  0  0  0  0  0  0  0  0  0
   42.9150   68.8180   61.6910 C   0  0  0  0  0  0  0  0  0  0  0  0
   44.2610   68.6050   61.3770 C   0  0  0  0  0  0  0  0  0  0  0  0
   44.8610   69.4400   61.0440 H   0  0  0  0  0  0  0  0  0  0  0  0
   44.8780   67.3760   61.4680 C   0  0  0  0  0  3  0  0  0  0  0  0
   44.1460   66.2860   61.8890 C   0  0  0  0  0  3  0  0  0  0  0  0
   42.8170   66.4790   62.2030 C   0  0  0  0  0  0  0  0  0  0  0  0
   42.0500   65.4080   62.6290 C   0  0  0  0  0  3  0  0  0  0  0  0
   40.7240   65.6290   62.9360 C   0  0  0  0  0  3  0  0  0  0  0  0
   40.1030   66.8770   62.8420 C   0  0  0  0  0  3  0  0  0  0  0  0
   40.8910   67.9410   62.4110 C   0  0  0  0  0  3  0  0  0  0  0  0
   42.2040   67.7100   62.1090 C   0  0  0  0  0  0  0  0  0  0  0  0
   41.0820   68.2010   57.7750 C   0  0  0  0  0  0  0  0  0  0  0  0
   42.1140   68.3250   56.8400 C   0  0  0  0  0  0  0  0  0  0  0  0
   43.1230   69.2610   57.0860 C   0  0  0  0  0  0  0  0  0  0  0  0
   43.0270   69.9860   58.2210 N   0  0  0  0  0  0  0  0  0  0  0  0
   42.0140   69.8530   59.1230 C   0  0  0  0  0  0  0  0  0  0  0  0
   41.0550   68.9640   58.8880 N   0  0  0  0  0  0  0  0  0  0  0  0
   40.2560   67.5110   57.6810 H   0  0  0  0  0  0  0  0  0  0  0  0
   42.0940   67.6940   55.9630 H   0  0  0  0  0  0  0  0  0  0  0  0
   43.9270   69.3740   56.3800 H   0  0  0  0  0  0  0  0  0  0  0  0
  1  6  1  0  0  0  0
  2  1  2  0  0  0  0
  2  3  1  0  0  0  0
  3  4  2  0  0  0  0
  4  5  1  0  0  0  0
  4  9  1  0  0  0  0
  5 10  1  0  0  0  0
  6 11  1  0  0  0  0
  6  5  2  0  0  0  0
  7  2  1  0  0  0  0
  8  3  1  0  0  0  0
 11 21  1  0  0  0  0
 12 14  1  0  0  0  0
 12 11  2  0  0  0  0
 13 12  1  0  0  0  0
 14 15  2  0  0  0  0
 15 16  1  0  0  0  0
 16 17  1  0  0  0  0
 17 18  2  0  0  0  0
 19 18  1  0  0  0  0
 20 19  2  0  0  0  0
 21 16  2  0  0  0  0
 21 20  1  0  0  0  0
 22 27  1  0  0  0  0
 23 24  1  0  0  0  0
 23 22  2  0  0  0  0
 24 25  2  0  0  0  0
 25 26  1  0  0  0  0
 26  1  1  0  0  0  0
 27 26  2  0  0  0  0
 28 22  1  0  0  0  0
 29 23  1  0  0  0  0
 30 24  1  0  0  0  0
M  END
>  <minimizedAffinity>
-5.32348251

$$$$
