
 OpenBabel03212521073D

 38 42  0  0  0  0  0  0  0  0999 V2000
   41.7920   84.2440   61.6590 C   0  0  0  0  0  0  0  0  0  0  0  0
   41.4770   83.7730   62.9270 C   0  0  0  0  0  0  0  0  0  0  0  0
   40.1950   83.3670   63.2550 C   0  0  0  0  0  0  0  0  0  0  0  0
   39.1990   83.4330   62.2900 C   0  0  0  0  0  0  0  0  0  0  0  0
   39.5160   83.9050   61.0190 C   0  0  0  0  0  0  0  0  0  0  0  0
   40.7950   84.3050   60.7060 C   0  0  0  0  0  0  0  0  0  0  0  0
   42.2910   83.7340   63.6670 H   0  0  0  0  0  0  0  0  0  0  0  0
   39.9760   83.0060   64.2440 H   0  0  0  0  0  0  0  0  0  0  0  0
   38.1810   83.1250   62.5040 H   0  0  0  0  0  0  0  0  0  0  0  0
   38.7400   83.9580   60.2580 H   0  0  0  0  0  0  0  0  0  0  0  0
   45.3130   84.0750   60.7020 C   0  0  0  0  0  0  0  0  0  0  0  0
   45.7310   85.4070   60.8170 C   0  0  0  0  0  0  0  0  0  0  0  0
   44.7830   86.3870   61.2330 C   0  0  0  0  0  0  0  0  0  0  0  0
   43.5180   85.9690   61.4960 N   0  0  0  0  0  0  0  0  0  0  0  0
   43.1500   84.6550   61.3710 C   0  0  0  0  0  0  0  0  0  0  0  0
   44.0430   83.7390   60.9800 N   0  0  0  0  0  0  0  0  0  0  0  0
   46.0770   83.3830   60.3840 H   0  0  0  0  0  0  0  0  0  0  0  0
   46.7300   85.7860   60.6170 H   0  0  0  0  0  0  0  0  0  0  0  0
   45.0310   87.4320   61.3450 H   0  0  0  0  0  0  0  0  0  0  0  0
   41.0630   84.7940   59.3670 C   0  0  0  0  0  0  0  0  0  0  0  0
   40.1150   85.6870   58.9190 C   0  0  0  0  0  0  0  0  0  0  0  0
   40.2390   86.2460   57.6460 C   0  0  0  0  0  0  0  0  0  0  0  0
   41.2830   85.8870   56.9090 N   0  0  0  0  0  0  0  0  0  0  0  0
   42.2210   85.0180   57.3290 C   0  0  0  0  0  0  0  0  0  0  0  0
   42.0630   84.5110   58.5430 N   0  0  0  0  0  0  0  0  0  0  0  0
   39.2520   86.0100   59.4740 H   0  0  0  0  0  0  0  0  0  0  0  0
   39.5400   86.9510   57.2200 H   0  0  0  0  0  0  0  0  0  0  0  0
   43.4200   84.5050   56.6790 C   0  0  0  0  0  0  0  0  0  0  0  0
   44.7170   84.9520   56.9680 C   0  0  0  0  0  0  0  0  0  0  0  0
   44.8220   85.7250   57.7220 H   0  0  0  0  0  0  0  0  0  0  0  0
   45.8400   84.4720   56.3580 C   0  0  0  0  0  3  0  0  0  0  0  0
   45.7570   83.4940   55.3990 C   0  0  0  0  0  3  0  0  0  0  0  0
   44.5250   83.0180   55.0730 C   0  0  0  0  0  0  0  0  0  0  0  0
   44.4880   82.0400   54.1080 C   0  0  0  0  0  3  0  0  0  0  0  0
   43.2820   81.5010   53.7170 C   0  0  0  0  0  3  0  0  0  0  0  0
   42.1440   81.9910   54.3390 C   0  0  0  0  0  3  0  0  0  0  0  0
   42.2350   82.9720   55.3000 C   0  0  0  0  0  3  0  0  0  0  0  0
   43.4180   83.5270   55.7100 C   0  0  0  0  0  0  0  0  0  0  0  0
  1  2  1  0  0  0  0
  2  3  2  0  0  0  0
  2  7  1  0  0  0  0
  3  8  1  0  0  0  0
  4  9  1  0  0  0  0
  4  3  1  0  0  0  0
  5  4  2  0  0  0  0
  6  5  1  0  0  0  0
  6  1  2  0  0  0  0
 10  5  1  0  0  0  0
 11 12  2  0  0  0  0
 11 16  1  0  0  0  0
 12 13  1  0  0  0  0
 13 19  1  0  0  0  0
 13 14  2  0  0  0  0
 15 14  1  0  0  0  0
 15  1  1  0  0  0  0
 16 15  2  0  0  0  0
 17 11  1  0  0  0  0
 18 12  1  0  0  0  0
 20  6  1  0  0  0  0
 21 20  1  0  0  0  0
 21 26  1  0  0  0  0
 22 21  2  0  0  0  0
 23 24  2  0  0  0  0
 23 22  1  0  0  0  0
 24 25  1  0  0  0  0
 25 20  2  0  0  0  0
 27 22  1  0  0  0  0
 28 29  1  0  0  0  0
 28 24  1  0  0  0  0
 29 30  1  0  0  0  0
 31 29  2  0  0  0  0
 32 31  1  0  0  0  0
 33 32  2  0  0  0  0
 33 38  1  0  0  0  0
 34 33  1  0  0  0  0
 35 34  2  0  0  0  0
 35 36  1  0  0  0  0
 36 37  2  0  0  0  0
 37 38  1  0  0  0  0
 38 28  2  0  0  0  0
M  END
>  <minimizedAffinity>
-5.85112333

>  <minimizedRMSD>
1.34415495

$$$$
