
 OpenBabel03212520493D

 30 33  0  0  0  0  0  0  0  0999 V2000
   41.6780   83.9980   61.6640 C   0  0  0  0  0  0  0  0  0  0  0  0
   41.4120   84.4040   62.9340 C   0  0  0  0  0  0  0  0  0  0  0  0
   40.8800   83.5030   63.8720 C   0  0  0  0  0  0  0  0  0  0  0  0
   40.6300   82.2390   63.5250 N   0  0  0  0  0  0  0  0  0  0  0  0
   40.8880   81.8320   62.2820 C   0  0  0  0  0  0  0  0  0  0  0  0
   41.3970   82.7290   61.4200 N   0  0  0  0  0  0  0  0  0  0  0  0
   41.6000   85.4190   63.2550 H   0  0  0  0  0  0  0  0  0  0  0  0
   40.6540   83.7850   64.8900 H   0  0  0  0  0  0  0  0  0  0  0  0
   43.8120   86.4250   59.9630 C   0  0  0  0  0  0  0  0  0  0  0  0
   43.2030   86.5290   58.7160 C   0  0  0  0  0  0  0  0  0  0  0  0
   42.0550   85.7700   58.4430 C   0  0  0  0  0  0  0  0  0  0  0  0
   41.6150   84.9660   59.4520 N   0  0  0  0  0  0  0  0  0  0  0  0
   42.2290   84.8890   60.6450 C   0  0  0  0  0  0  0  0  0  0  0  0
   43.3100   85.6060   60.8970 N   0  0  0  0  0  0  0  0  0  0  0  0
   44.9500   87.2420   60.0860 N   0  0  0  0  0  0  0  0  0  0  0  0
   43.4900   87.1390   57.8700 H   0  0  0  0  0  0  0  0  0  0  0  0
   41.5320   85.8000   57.5020 H   0  0  0  0  0  0  0  0  0  0  0  0
   45.8460   87.0150   60.6060 H   0  0  0  0  0  0  0  0  0  0  0  0
   45.0450   88.1740   59.6770 H   0  0  0  0  0  0  0  0  0  0  0  0
   40.7130   80.5210   61.6310 C   0  0  0  0  0  0  0  0  0  0  0  0
   40.8240   79.3020   62.2890 C   0  0  0  0  0  0  0  0  0  0  0  0
   41.0550   79.3190   63.3480 H   0  0  0  0  0  0  0  0  0  0  0  0
   40.6620   78.0870   61.6830 C   0  0  0  0  0  3  0  0  0  0  0  0
   40.3690   78.0090   60.3430 C   0  0  0  0  0  3  0  0  0  0  0  0
   40.2470   79.1850   59.6430 C   0  0  0  0  0  0  0  0  0  0  0  0
   39.9540   79.0570   58.3030 C   0  0  0  0  0  3  0  0  0  0  0  0
   39.8150   80.1850   57.5280 C   0  0  0  0  0  3  0  0  0  0  0  0
   39.9820   81.4250   58.1520 C   0  0  0  0  0  3  0  0  0  0  0  0
   40.2720   81.4700   59.4880 C   0  0  0  0  0  3  0  0  0  0  0  0
   40.4190   80.3800   60.2970 C   0  0  0  0  0  0  0  0  0  0  0  0
  1  2  1  0  0  0  0
  2  7  1  0  0  0  0
  2  3  2  0  0  0  0
  3  8  1  0  0  0  0
  4  3  1  0  0  0  0
  5  4  2  0  0  0  0
  6  1  2  0  0  0  0
  6  5  1  0  0  0  0
  9 15  1  0  0  0  0
  9 14  1  0  0  0  0
 10  9  2  0  0  0  0
 11 10  1  0  0  0  0
 11 12  2  0  0  0  0
 12 13  1  0  0  0  0
 13 14  2  0  0  0  0
 13  1  1  0  0  0  0
 15 18  1  0  0  0  0
 16 10  1  0  0  0  0
 17 11  1  0  0  0  0
 19 15  1  0  0  0  0
 20  5  1  0  0  0  0
 20 21  1  0  0  0  0
 21 22  1  0  0  0  0
 23 21  2  0  0  0  0
 24 23  1  0  0  0  0
 25 30  1  0  0  0  0
 25 24  2  0  0  0  0
 26 25  1  0  0  0  0
 27 28  1  0  0  0  0
 27 26  2  0  0  0  0
 28 29  2  0  0  0  0
 29 30  1  0  0  0  0
 30 20  2  0  0  0  0
M  END
>  <minimizedAffinity>
-6.55558681

>  <minimizedRMSD>
0.789774001

$$$$
