
 OpenBabel03212520493D

 30 33  0  0  0  0  0  0  0  0999 V2000
   41.6790   83.9980   61.6640 C   0  0  0  0  0  0  0  0  0  0  0  0
   41.4120   84.4030   62.9340 C   0  0  0  0  0  0  0  0  0  0  0  0
   40.8800   83.5030   63.8720 C   0  0  0  0  0  0  0  0  0  0  0  0
   40.6300   82.2390   63.5250 N   0  0  0  0  0  0  0  0  0  0  0  0
   40.8880   81.8320   62.2830 C   0  0  0  0  0  0  0  0  0  0  0  0
   41.3960   82.7290   61.4200 N   0  0  0  0  0  0  0  0  0  0  0  0
   41.6010   85.4190   63.2550 H   0  0  0  0  0  0  0  0  0  0  0  0
   40.6550   83.7850   64.8910 H   0  0  0  0  0  0  0  0  0  0  0  0
   43.8120   86.4250   59.9620 C   0  0  0  0  0  0  0  0  0  0  0  0
   43.2030   86.5290   58.7160 C   0  0  0  0  0  0  0  0  0  0  0  0
   42.0550   85.7690   58.4420 C   0  0  0  0  0  0  0  0  0  0  0  0
   41.6160   84.9650   59.4510 N   0  0  0  0  0  0  0  0  0  0  0  0
   42.2290   84.8880   60.6450 C   0  0  0  0  0  0  0  0  0  0  0  0
   43.3090   85.6070   60.8970 N   0  0  0  0  0  0  0  0  0  0  0  0
   44.9490   87.2430   60.0860 N   0  0  0  0  0  0  0  0  0  0  0  0
   43.4900   87.1390   57.8690 H   0  0  0  0  0  0  0  0  0  0  0  0
   41.5330   85.7980   57.5010 H   0  0  0  0  0  0  0  0  0  0  0  0
   45.8450   87.0170   60.6070 H   0  0  0  0  0  0  0  0  0  0  0  0
   45.0430   88.1750   59.6770 H   0  0  0  0  0  0  0  0  0  0  0  0
   40.7120   80.5210   61.6310 C   0  0  0  0  0  0  0  0  0  0  0  0
   40.8240   79.3010   62.2890 C   0  0  0  0  0  0  0  0  0  0  0  0
   41.0550   79.3190   63.3490 H   0  0  0  0  0  0  0  0  0  0  0  0
   40.6620   78.0870   61.6840 C   0  0  0  0  0  3  0  0  0  0  0  0
   40.3690   78.0100   60.3430 C   0  0  0  0  0  3  0  0  0  0  0  0
   40.2470   79.1850   59.6430 C   0  0  0  0  0  0  0  0  0  0  0  0
   39.9540   79.0560   58.3040 C   0  0  0  0  0  3  0  0  0  0  0  0
   39.8150   80.1840   57.5280 C   0  0  0  0  0  3  0  0  0  0  0  0
   39.9820   81.4240   58.1520 C   0  0  0  0  0  3  0  0  0  0  0  0
   40.2720   81.4690   59.4890 C   0  0  0  0  0  3  0  0  0  0  0  0
   40.4180   80.3800   60.2970 C   0  0  0  0  0  0  0  0  0  0  0  0
  1  2  1  0  0  0  0
  2  7  1  0  0  0  0
  2  3  2  0  0  0  0
  3  8  1  0  0  0  0
  4  3  1  0  0  0  0
  5  4  2  0  0  0  0
  6  1  2  0  0  0  0
  6  5  1  0  0  0  0
  9 15  1  0  0  0  0
  9 14  1  0  0  0  0
 10  9  2  0  0  0  0
 11 10  1  0  0  0  0
 11 12  2  0  0  0  0
 12 13  1  0  0  0  0
 13 14  2  0  0  0  0
 13  1  1  0  0  0  0
 15 18  1  0  0  0  0
 16 10  1  0  0  0  0
 17 11  1  0  0  0  0
 19 15  1  0  0  0  0
 20  5  1  0  0  0  0
 20 21  1  0  0  0  0
 21 22  1  0  0  0  0
 23 21  2  0  0  0  0
 24 23  1  0  0  0  0
 25 30  1  0  0  0  0
 25 24  2  0  0  0  0
 26 25  1  0  0  0  0
 27 28  1  0  0  0  0
 27 26  2  0  0  0  0
 28 29  2  0  0  0  0
 29 30  1  0  0  0  0
 30 20  2  0  0  0  0
M  END
>  <minimizedAffinity>
-6.55551338

>  <minimizedRMSD>
1.32045352

$$$$
