
 OpenBabel03212520093D

 20 22  0  0  0  0  0  0  0  0999 V2000
   40.7260   82.6690   58.3010 C   0  0  0  0  0  0  0  0  0  0  0  0
   41.6450   83.6610   57.9330 C   0  0  0  0  0  0  0  0  0  0  0  0
   41.9110   84.4900   58.6090 H   0  0  0  0  0  0  0  0  0  0  0  0
   42.2890   83.6950   56.7140 C   0  0  0  0  0  3  0  0  0  0  0  0
   42.0290   82.7060   55.7910 C   0  0  0  0  0  3  0  0  0  0  0  0
   41.1290   81.7190   56.1350 C   0  0  0  0  0  0  0  0  0  0  0  0
   40.7930   80.6670   55.2880 C   0  0  0  0  0  3  0  0  0  0  0  0
   39.8990   79.6900   55.6530 C   0  0  0  0  0  3  0  0  0  0  0  0
   39.2850   79.7090   56.8900 C   0  0  0  0  0  3  0  0  0  0  0  0
   39.5870   80.7330   57.7610 C   0  0  0  0  0  3  0  0  0  0  0  0
   40.4900   81.6940   57.3550 C   0  0  0  0  0  0  0  0  0  0  0  0
   40.1190   81.9750   60.7150 C   0  0  0  0  0  0  0  0  0  0  0  0
   40.1530   82.8540   59.6240 C   0  0  0  0  0  0  0  0  0  0  0  0
   39.5310   84.1120   59.7960 C   0  0  0  0  0  0  0  0  0  0  0  0
   38.9470   84.3940   60.9900 N   0  0  0  0  0  0  0  0  0  0  0  0
   38.9400   83.5180   62.0140 C   0  0  0  0  0  0  0  0  0  0  0  0
   39.5260   82.3260   61.8570 N   0  0  0  0  0  0  0  0  0  0  0  0
   40.5920   81.0400   60.5300 H   0  0  0  0  0  0  0  0  0  0  0  0
   39.4590   84.9070   59.0710 H   0  0  0  0  0  0  0  0  0  0  0  0
   38.4740   83.7430   62.9640 H   0  0  0  0  0  0  0  0  0  0  0  0
  1 13  1  0  0  0  0
  2  1  1  0  0  0  0
  2  3  1  0  0  0  0
  4  2  2  0  0  0  0
  5  6  2  0  0  0  0
  5  4  1  0  0  0  0
  6 11  1  0  0  0  0
  7  8  2  0  0  0  0
  7  6  1  0  0  0  0
  8  9  1  0  0  0  0
  9 10  2  0  0  0  0
 11 10  1  0  0  0  0
 11  1  2  0  0  0  0
 12 17  1  0  0  0  0
 13 14  1  0  0  0  0
 13 12  2  0  0  0  0
 14 15  2  0  0  0  0
 15 16  1  0  0  0  0
 16 20  1  0  0  0  0
 17 16  2  0  0  0  0
 18 12  1  0  0  0  0
 19 14  1  0  0  0  0
M  END
>  <minimizedAffinity>
-5.25119162

>  <minimizedRMSD>
1.72848117

$$$$
