
 OpenBabel03212521073D

 38 42  0  0  0  0  0  0  0  0999 V2000
   41.8030   84.2520   61.6020 C   0  0  0  0  0  0  0  0  0  0  0  0
   41.4200   83.9470   62.9020 C   0  0  0  0  0  0  0  0  0  0  0  0
   40.1300   83.5480   63.2060 C   0  0  0  0  0  0  0  0  0  0  0  0
   39.1950   83.4510   62.1850 C   0  0  0  0  0  0  0  0  0  0  0  0
   39.5800   83.7570   60.8820 C   0  0  0  0  0  0  0  0  0  0  0  0
   40.8650   84.1520   60.5930 C   0  0  0  0  0  0  0  0  0  0  0  0
   42.1870   84.0350   63.6870 H   0  0  0  0  0  0  0  0  0  0  0  0
   39.8590   83.3170   64.2210 H   0  0  0  0  0  0  0  0  0  0  0  0
   38.1740   83.1420   62.3790 H   0  0  0  0  0  0  0  0  0  0  0  0
   38.8520   83.6820   60.0770 H   0  0  0  0  0  0  0  0  0  0  0  0
   45.3710   84.0690   60.8450 C   0  0  0  0  0  0  0  0  0  0  0  0
   45.7580   85.4150   60.8410 C   0  0  0  0  0  0  0  0  0  0  0  0
   44.7710   86.4110   61.1050 C   0  0  0  0  0  0  0  0  0  0  0  0
   43.5030   85.9910   61.3460 N   0  0  0  0  0  0  0  0  0  0  0  0
   43.1660   84.6630   61.3410 C   0  0  0  0  0  0  0  0  0  0  0  0
   44.0950   83.7330   61.0920 N   0  0  0  0  0  0  0  0  0  0  0  0
   46.1630   83.3660   60.6380 H   0  0  0  0  0  0  0  0  0  0  0  0
   46.7590   85.7950   60.6530 H   0  0  0  0  0  0  0  0  0  0  0  0
   44.9940   87.4670   61.1190 H   0  0  0  0  0  0  0  0  0  0  0  0
   41.2060   84.4630   59.2180 C   0  0  0  0  0  0  0  0  0  0  0  0
   40.6430   85.6410   58.7770 C   0  0  0  0  0  0  0  0  0  0  0  0
   40.8820   86.0740   57.4720 C   0  0  0  0  0  0  0  0  0  0  0  0
   41.6540   85.3210   56.6980 N   0  0  0  0  0  0  0  0  0  0  0  0
   42.2130   84.1680   57.1100 C   0  0  0  0  0  0  0  0  0  0  0  0
   41.9600   83.7940   58.3560 N   0  0  0  0  0  0  0  0  0  0  0  0
   40.0120   86.2860   59.3610 H   0  0  0  0  0  0  0  0  0  0  0  0
   40.4790   86.9830   57.0490 H   0  0  0  0  0  0  0  0  0  0  0  0
   43.0760   83.2150   56.4230 C   0  0  0  0  0  0  0  0  0  0  0  0
   44.4660   83.3530   56.3200 C   0  0  0  0  0  0  0  0  0  0  0  0
   44.9180   84.2240   56.7830 H   0  0  0  0  0  0  0  0  0  0  0  0
   45.2750   82.4610   55.6760 C   0  0  0  0  0  3  0  0  0  0  0  0
   44.7480   81.3430   55.0750 C   0  0  0  0  0  3  0  0  0  0  0  0
   43.4040   81.1520   55.1390 C   0  0  0  0  0  0  0  0  0  0  0  0
   42.9210   80.0220   54.5230 C   0  0  0  0  0  3  0  0  0  0  0  0
   41.5710   79.7500   54.5400 C   0  0  0  0  0  3  0  0  0  0  0  0
   40.7540   80.6600   55.1950 C   0  0  0  0  0  3  0  0  0  0  0  0
   41.2880   81.7760   55.7950 C   0  0  0  0  0  3  0  0  0  0  0  0
   42.6240   82.0740   55.7970 C   0  0  0  0  0  0  0  0  0  0  0  0
  1  2  1  0  0  0  0
  2  3  2  0  0  0  0
  2  7  1  0  0  0  0
  3  8  1  0  0  0  0
  4  9  1  0  0  0  0
  4  3  1  0  0  0  0
  5  4  2  0  0  0  0
  6  5  1  0  0  0  0
  6  1  2  0  0  0  0
 10  5  1  0  0  0  0
 11 16  1  0  0  0  0
 12 11  2  0  0  0  0
 12 13  1  0  0  0  0
 13 19  1  0  0  0  0
 13 14  2  0  0  0  0
 15 14  1  0  0  0  0
 15  1  1  0  0  0  0
 16 15  2  0  0  0  0
 17 11  1  0  0  0  0
 18 12  1  0  0  0  0
 20  6  1  0  0  0  0
 21 20  1  0  0  0  0
 21 26  1  0  0  0  0
 22 21  2  0  0  0  0
 23 24  2  0  0  0  0
 23 22  1  0  0  0  0
 24 25  1  0  0  0  0
 25 20  2  0  0  0  0
 27 22  1  0  0  0  0
 28 24  1  0  0  0  0
 29 28  1  0  0  0  0
 29 30  1  0  0  0  0
 31 29  2  0  0  0  0
 32 33  2  0  0  0  0
 32 31  1  0  0  0  0
 33 38  1  0  0  0  0
 34 35  2  0  0  0  0
 34 33  1  0  0  0  0
 35 36  1  0  0  0  0
 36 37  2  0  0  0  0
 37 38  1  0  0  0  0
 38 28  2  0  0  0  0
M  END
>  <minimizedAffinity>
-5.77391291

>  <minimizedRMSD>
0.485111505

$$$$
