
 OpenBabel03212521073D

 38 42  0  0  0  0  0  0  0  0999 V2000
   41.7970   84.1680   61.5440 C   0  0  0  0  0  0  0  0  0  0  0  0
   41.4510   83.8570   62.8530 C   0  0  0  0  0  0  0  0  0  0  0  0
   40.1580   83.5050   63.1990 C   0  0  0  0  0  0  0  0  0  0  0  0
   39.1830   83.4600   62.2130 C   0  0  0  0  0  0  0  0  0  0  0  0
   39.5310   83.7720   60.9010 C   0  0  0  0  0  0  0  0  0  0  0  0
   40.8200   84.1210   60.5700 C   0  0  0  0  0  0  0  0  0  0  0  0
   42.2490   83.9030   63.6100 H   0  0  0  0  0  0  0  0  0  0  0  0
   39.9150   83.2680   64.2200 H   0  0  0  0  0  0  0  0  0  0  0  0
   38.1580   83.1890   62.4400 H   0  0  0  0  0  0  0  0  0  0  0  0
   38.7720   83.7380   60.1220 H   0  0  0  0  0  0  0  0  0  0  0  0
   45.2860   83.8810   60.5030 C   0  0  0  0  0  0  0  0  0  0  0  0
   45.7640   85.1890   60.6500 C   0  0  0  0  0  0  0  0  0  0  0  0
   44.8680   86.1950   61.1170 C   0  0  0  0  0  0  0  0  0  0  0  0
   43.5920   85.8230   61.3950 N   0  0  0  0  0  0  0  0  0  0  0  0
   43.1650   84.5300   61.2390 C   0  0  0  0  0  0  0  0  0  0  0  0
   44.0100   83.5900   60.7990 N   0  0  0  0  0  0  0  0  0  0  0  0
   46.0130   83.1670   60.1460 H   0  0  0  0  0  0  0  0  0  0  0  0
   46.7740   85.5310   60.4390 H   0  0  0  0  0  0  0  0  0  0  0  0
   45.1630   87.2250   61.2550 H   0  0  0  0  0  0  0  0  0  0  0  0
   41.1220   84.4410   59.1870 C   0  0  0  0  0  0  0  0  0  0  0  0
   40.7740   85.7290   58.8440 C   0  0  0  0  0  0  0  0  0  0  0  0
   41.0050   86.1840   57.5450 C   0  0  0  0  0  0  0  0  0  0  0  0
   41.5590   85.3430   56.6810 N   0  0  0  0  0  0  0  0  0  0  0  0
   41.9070   84.0820   56.9970 C   0  0  0  0  0  0  0  0  0  0  0  0
   41.6690   83.6910   58.2410 N   0  0  0  0  0  0  0  0  0  0  0  0
   40.3230   86.4490   59.5040 H   0  0  0  0  0  0  0  0  0  0  0  0
   40.7620   87.1770   57.1950 H   0  0  0  0  0  0  0  0  0  0  0  0
   42.5160   83.0220   56.2030 C   0  0  0  0  0  0  0  0  0  0  0  0
   41.7860   82.0810   55.4630 C   0  0  0  0  0  0  0  0  0  0  0  0
   40.7040   82.1550   55.4900 H   0  0  0  0  0  0  0  0  0  0  0  0
   42.3570   81.0900   54.7180 C   0  0  0  0  0  3  0  0  0  0  0  0
   43.7230   80.9570   54.6540 C   0  0  0  0  0  3  0  0  0  0  0  0
   44.4880   81.8390   55.3500 C   0  0  0  0  0  0  0  0  0  0  0  0
   45.8480   81.6690   55.2570 C   0  0  0  0  0  3  0  0  0  0  0  0
   46.6990   82.5190   55.9300 C   0  0  0  0  0  3  0  0  0  0  0  0
   46.1140   83.5240   56.6840 C   0  0  0  0  0  3  0  0  0  0  0  0
   44.7450   83.6520   56.7450 C   0  0  0  0  0  3  0  0  0  0  0  0
   43.8750   82.8250   56.0880 C   0  0  0  0  0  0  0  0  0  0  0  0
  1  2  1  0  0  0  0
  2  3  2  0  0  0  0
  2  7  1  0  0  0  0
  3  8  1  0  0  0  0
  4  9  1  0  0  0  0
  4  3  1  0  0  0  0
  5  4  2  0  0  0  0
  6  5  1  0  0  0  0
  6  1  2  0  0  0  0
 10  5  1  0  0  0  0
 11 12  2  0  0  0  0
 11 16  1  0  0  0  0
 12 13  1  0  0  0  0
 13 19  1  0  0  0  0
 13 14  2  0  0  0  0
 15 14  1  0  0  0  0
 15  1  1  0  0  0  0
 16 15  2  0  0  0  0
 17 11  1  0  0  0  0
 18 12  1  0  0  0  0
 20  6  1  0  0  0  0
 21 20  1  0  0  0  0
 21 26  1  0  0  0  0
 22 21  2  0  0  0  0
 23 24  2  0  0  0  0
 23 22  1  0  0  0  0
 24 25  1  0  0  0  0
 25 20  2  0  0  0  0
 27 22  1  0  0  0  0
 28 24  1  0  0  0  0
 29 30  1  0  0  0  0
 29 28  2  0  0  0  0
 31 29  1  0  0  0  0
 32 31  2  0  0  0  0
 32 33  1  0  0  0  0
 33 38  1  0  0  0  0
 34 33  2  0  0  0  0
 34 35  1  0  0  0  0
 35 36  2  0  0  0  0
 36 37  1  0  0  0  0
 38 28  1  0  0  0  0
 38 37  2  0  0  0  0
M  END
>  <minimizedAffinity>
-5.54004622

>  <minimizedRMSD>
1.65309453

$$$$
