
 OpenBabel03212520343D

 36 40  0  0  0  0  0  0  0  0999 V2000
   40.1480   79.3610   58.8840 C   0  0  0  0  0  0  0  0  0  0  0  0
   39.9000   80.0940   57.7270 C   0  0  0  0  0  0  0  0  0  0  0  0
   39.9670   81.5090   57.8350 C   0  0  0  0  0  0  0  0  0  0  0  0
   40.2680   82.0330   59.0670 N   0  0  0  0  0  0  0  0  0  0  0  0
   40.4950   81.2780   60.1450 C   0  0  0  0  0  0  0  0  0  0  0  0
   40.4300   79.9810   60.0270 N   0  0  0  0  0  0  0  0  0  0  0  0
   40.0900   78.3130   58.7450 H   0  0  0  0  0  0  0  0  0  0  0  0
   39.7920   82.1800   56.9890 H   0  0  0  0  0  0  0  0  0  0  0  0
   39.5560   79.6570   56.3930 C   0  0  0  0  0  0  0  0  0  0  0  0
   40.3550   80.1890   55.3760 C   0  0  0  0  0  0  0  0  0  0  0  0
   40.1900   79.9080   54.0450 C   0  0  0  0  0  0  0  0  0  0  0  0
   39.1790   79.0480   53.6590 C   0  0  0  0  0  0  0  0  0  0  0  0
   38.3770   78.5110   54.6400 C   0  0  0  0  0  0  0  0  0  0  0  0
   37.3400   77.6430   54.3590 C   0  0  0  0  0  0  0  0  0  0  0  0
   36.5460   77.1140   55.3620 C   0  0  0  0  0  0  0  0  0  0  0  0
   36.7510   77.4270   56.6980 C   0  0  0  0  0  0  0  0  0  0  0  0
   37.7810   78.2930   57.0050 C   0  0  0  0  0  0  0  0  0  0  0  0
   38.5550   78.8020   55.9710 C   0  0  0  0  0  0  0  0  0  0  0  0
   41.1700   80.8690   55.5850 H   0  0  0  0  0  0  0  0  0  0  0  0
   40.8150   80.3260   53.2740 H   0  0  0  0  0  0  0  0  0  0  0  0
   39.0060   78.7940   52.6230 H   0  0  0  0  0  0  0  0  0  0  0  0
   37.1530   77.3780   53.3270 H   0  0  0  0  0  0  0  0  0  0  0  0
   35.7230   76.4280   55.1670 H   0  0  0  0  0  0  0  0  0  0  0  0
   36.1330   77.0160   57.4830 H   0  0  0  0  0  0  0  0  0  0  0  0
   37.9450   78.5440   58.0430 H   0  0  0  0  0  0  0  0  0  0  0  0
   40.7870   82.1120   61.3060 C   0  0  0  0  0  0  0  0  0  0  0  0
   39.8110   82.8330   61.9650 C   0  0  0  0  0  0  0  0  0  0  0  0
   38.7680   82.8080   61.6400 H   0  0  0  0  0  0  0  0  0  0  0  0
   40.0210   83.6360   63.0630 C   0  0  0  0  0  0  0  0  0  0  0  0
   41.2880   83.7620   63.5810 C   0  0  0  0  0  0  0  0  0  0  0  0
   42.3040   83.0700   62.9710 C   0  0  0  0  0  0  0  0  0  0  0  0
   43.5660   83.2120   63.5080 C   0  0  0  0  0  0  0  0  0  0  0  0
   44.6430   82.5520   62.9560 C   0  0  0  0  0  0  0  0  0  0  0  0
   44.3840   81.7460   61.8410 C   0  0  0  0  0  0  0  0  0  0  0  0
   43.1060   81.6430   61.3480 C   0  0  0  0  0  0  0  0  0  0  0  0
   42.0230   82.2890   61.8810 C   0  0  0  0  0  0  0  0  0  0  0  0
  1  6  1  0  0  0  0
  2  3  1  0  0  0  0
  2  1  2  0  0  0  0
  3  4  2  0  0  0  0
  4  5  1  0  0  0  0
  5 26  1  0  0  0  0
  6  5  2  0  0  0  0
  7  1  1  0  0  0  0
  8  3  1  0  0  0  0
  9  2  1  0  0  0  0
 10 19  1  0  0  0  0
 10  9  2  0  0  0  0
 11 10  1  0  0  0  0
 12 11  2  0  0  0  0
 12 13  1  0  0  0  0
 13 18  1  0  0  0  0
 14 13  2  0  0  0  0
 14 15  1  0  0  0  0
 15 16  2  0  0  0  0
 16 17  1  0  0  0  0
 16 24  1  0  0  0  0
 17 25  1  0  0  0  0
 18  9  1  0  0  0  0
 18 17  2  0  0  0  0
 20 11  1  0  0  0  0
 21 12  1  0  0  0  0
 22 14  1  0  0  0  0
 23 15  1  0  0  0  0
 26 36  2  0  0  0  0
 26 27  1  0  0  0  0
 27 29  2  0  0  0  0
 28 27  1  0  0  0  0
 29 30  1  0  0  0  0
 31 32  1  0  0  0  0
 31 30  2  0  0  0  0
 33 32  2  0  0  0  0
 34 33  1  0  0  0  0
 35 34  2  0  0  0  0
 35 36  1  0  0  0  0
 36 31  1  0  0  0  0
M  END
>  <minimizedAffinity>
-6.77887869

>  <minimizedRMSD>
4.46138573

$$$$
