
 OpenBabel03212520493D

 30 33  0  0  0  0  0  0  0  0999 V2000
   41.8930   83.9170   61.2970 C   0  0  0  0  0  0  0  0  0  0  0  0
   41.6710   83.8750   62.6390 C   0  0  0  0  0  0  0  0  0  0  0  0
   40.9930   82.7880   63.2150 C   0  0  0  0  0  0  0  0  0  0  0  0
   40.5600   81.7840   62.4510 N   0  0  0  0  0  0  0  0  0  0  0  0
   40.7720   81.8150   61.1360 C   0  0  0  0  0  0  0  0  0  0  0  0
   41.4250   82.8750   60.6290 N   0  0  0  0  0  0  0  0  0  0  0  0
   42.0070   84.6690   63.2920 H   0  0  0  0  0  0  0  0  0  0  0  0
   40.7970   82.7180   64.2750 H   0  0  0  0  0  0  0  0  0  0  0  0
   43.9460   86.8860   60.7460 C   0  0  0  0  0  0  0  0  0  0  0  0
   43.8550   87.0550   59.3680 C   0  0  0  0  0  0  0  0  0  0  0  0
   43.0900   86.1540   58.6110 C   0  0  0  0  0  0  0  0  0  0  0  0
   42.4800   85.1550   59.3080 N   0  0  0  0  0  0  0  0  0  0  0  0
   42.5890   85.0200   60.6410 C   0  0  0  0  0  0  0  0  0  0  0  0
   43.3100   85.8720   61.3490 N   0  0  0  0  0  0  0  0  0  0  0  0
   44.7450   87.8630   61.3650 N   0  0  0  0  0  0  0  0  0  0  0  0
   44.3070   87.8160   58.7460 H   0  0  0  0  0  0  0  0  0  0  0  0
   42.9760   86.2220   57.5420 H   0  0  0  0  0  0  0  0  0  0  0  0
   45.3990   87.7250   62.1900 H   0  0  0  0  0  0  0  0  0  0  0  0
   44.7890   88.8440   61.0840 H   0  0  0  0  0  0  0  0  0  0  0  0
   40.4100   80.8650   60.0680 C   0  0  0  0  0  0  0  0  0  0  0  0
   40.1310   81.2320   58.7570 C   0  0  0  0  0  0  0  0  0  0  0  0
   40.1840   82.2840   58.5060 H   0  0  0  0  0  0  0  0  0  0  0  0
   39.7950   80.3470   57.7700 C   0  0  0  0  0  3  0  0  0  0  0  0
   39.7140   79.0020   58.0360 C   0  0  0  0  0  3  0  0  0  0  0  0
   39.9800   78.5830   59.3160 C   0  0  0  0  0  0  0  0  0  0  0  0
   39.8830   77.2270   59.5350 C   0  0  0  0  0  3  0  0  0  0  0  0
   40.1330   76.7210   60.7900 C   0  0  0  0  0  3  0  0  0  0  0  0
   40.4770   77.6290   61.7980 C   0  0  0  0  0  3  0  0  0  0  0  0
   40.5510   78.9640   61.5010 C   0  0  0  0  0  3  0  0  0  0  0  0
   40.3130   79.5090   60.2740 C   0  0  0  0  0  0  0  0  0  0  0  0
  1  2  1  0  0  0  0
  2  3  2  0  0  0  0
  2  7  1  0  0  0  0
  3  8  1  0  0  0  0
  4  3  1  0  0  0  0
  5  4  2  0  0  0  0
  6  5  1  0  0  0  0
  6  1  2  0  0  0  0
  9 14  1  0  0  0  0
  9 15  1  0  0  0  0
 10  9  2  0  0  0  0
 11 12  2  0  0  0  0
 11 10  1  0  0  0  0
 12 13  1  0  0  0  0
 13  1  1  0  0  0  0
 13 14  2  0  0  0  0
 15 18  1  0  0  0  0
 16 10  1  0  0  0  0
 17 11  1  0  0  0  0
 19 15  1  0  0  0  0
 20 30  1  0  0  0  0
 20  5  1  0  0  0  0
 21 20  2  0  0  0  0
 22 21  1  0  0  0  0
 23 24  2  0  0  0  0
 23 21  1  0  0  0  0
 24 25  1  0  0  0  0
 25 26  2  0  0  0  0
 25 30  1  0  0  0  0
 26 27  1  0  0  0  0
 27 28  2  0  0  0  0
 29 28  1  0  0  0  0
 30 29  2  0  0  0  0
M  END
>  <minimizedAffinity>
-6.0426755

>  <minimizedRMSD>
2.17741299

$$$$
