
 OpenBabel03212521073D

 38 42  0  0  0  0  0  0  0  0999 V2000
   41.8140   84.2360   61.5900 C   0  0  0  0  0  0  0  0  0  0  0  0
   41.4520   83.9440   62.8990 C   0  0  0  0  0  0  0  0  0  0  0  0
   40.1680   83.5440   63.2270 C   0  0  0  0  0  0  0  0  0  0  0  0
   39.2180   83.4310   62.2210 C   0  0  0  0  0  0  0  0  0  0  0  0
   39.5820   83.7240   60.9090 C   0  0  0  0  0  0  0  0  0  0  0  0
   40.8620   84.1210   60.5960 C   0  0  0  0  0  0  0  0  0  0  0  0
   42.2300   84.0440   63.6710 H   0  0  0  0  0  0  0  0  0  0  0  0
   39.9130   83.3240   64.2490 H   0  0  0  0  0  0  0  0  0  0  0  0
   38.2010   83.1210   62.4340 H   0  0  0  0  0  0  0  0  0  0  0  0
   38.8430   83.6370   60.1160 H   0  0  0  0  0  0  0  0  0  0  0  0
   45.3600   84.0630   60.7360 C   0  0  0  0  0  0  0  0  0  0  0  0
   45.7520   85.4070   60.7550 C   0  0  0  0  0  0  0  0  0  0  0  0
   44.7750   86.3980   61.0680 C   0  0  0  0  0  0  0  0  0  0  0  0
   43.5120   85.9770   61.3330 N   0  0  0  0  0  0  0  0  0  0  0  0
   43.1710   84.6500   61.3040 C   0  0  0  0  0  0  0  0  0  0  0  0
   44.0900   83.7240   61.0090 N   0  0  0  0  0  0  0  0  0  0  0  0
   46.1450   83.3630   60.4920 H   0  0  0  0  0  0  0  0  0  0  0  0
   46.7480   85.7890   60.5500 H   0  0  0  0  0  0  0  0  0  0  0  0
   45.0020   87.4540   61.1030 H   0  0  0  0  0  0  0  0  0  0  0  0
   41.1800   84.4180   59.2120 C   0  0  0  0  0  0  0  0  0  0  0  0
   40.7270   85.6550   58.8090 C   0  0  0  0  0  0  0  0  0  0  0  0
   40.9600   86.0820   57.5010 C   0  0  0  0  0  0  0  0  0  0  0  0
   41.6190   85.2670   56.6880 N   0  0  0  0  0  0  0  0  0  0  0  0
   42.0700   84.0550   57.0630 C   0  0  0  0  0  0  0  0  0  0  0  0
   41.8270   83.6890   58.3130 N   0  0  0  0  0  0  0  0  0  0  0  0
   40.1890   86.3520   59.4260 H   0  0  0  0  0  0  0  0  0  0  0  0
   40.6380   87.0350   57.1060 H   0  0  0  0  0  0  0  0  0  0  0  0
   42.8020   83.0290   56.3300 C   0  0  0  0  0  0  0  0  0  0  0  0
   44.0680   83.2280   55.7630 C   0  0  0  0  0  0  0  0  0  0  0  0
   44.5220   84.2050   55.8820 H   0  0  0  0  0  0  0  0  0  0  0  0
   44.7530   82.2670   55.0780 C   0  0  0  0  0  3  0  0  0  0  0  0
   44.2200   81.0130   54.9010 C   0  0  0  0  0  3  0  0  0  0  0  0
   42.9930   80.7580   55.4280 C   0  0  0  0  0  0  0  0  0  0  0  0
   42.4980   79.4920   55.2270 C   0  0  0  0  0  3  0  0  0  0  0  0
   41.2620   79.1460   55.7270 C   0  0  0  0  0  3  0  0  0  0  0  0
   40.5700   80.1260   56.4240 C   0  0  0  0  0  3  0  0  0  0  0  0
   41.1090   81.3790   56.5960 C   0  0  0  0  0  3  0  0  0  0  0  0
   42.3350   81.7530   56.1120 C   0  0  0  0  0  0  0  0  0  0  0  0
  1  2  1  0  0  0  0
  2  3  2  0  0  0  0
  2  7  1  0  0  0  0
  3  8  1  0  0  0  0
  4  9  1  0  0  0  0
  4  3  1  0  0  0  0
  5  4  2  0  0  0  0
  6  5  1  0  0  0  0
  6  1  2  0  0  0  0
 10  5  1  0  0  0  0
 11 12  2  0  0  0  0
 11 16  1  0  0  0  0
 12 13  1  0  0  0  0
 13 19  1  0  0  0  0
 13 14  2  0  0  0  0
 15 14  1  0  0  0  0
 15  1  1  0  0  0  0
 16 15  2  0  0  0  0
 17 11  1  0  0  0  0
 18 12  1  0  0  0  0
 20  6  1  0  0  0  0
 21 20  1  0  0  0  0
 21 26  1  0  0  0  0
 22 21  2  0  0  0  0
 23 24  2  0  0  0  0
 23 22  1  0  0  0  0
 24 25  1  0  0  0  0
 25 20  2  0  0  0  0
 27 22  1  0  0  0  0
 28 24  1  0  0  0  0
 29 30  1  0  0  0  0
 29 28  2  0  0  0  0
 31 29  1  0  0  0  0
 32 31  2  0  0  0  0
 32 33  1  0  0  0  0
 33 38  1  0  0  0  0
 34 33  2  0  0  0  0
 34 35  1  0  0  0  0
 35 36  2  0  0  0  0
 36 37  1  0  0  0  0
 38 28  1  0  0  0  0
 38 37  2  0  0  0  0
M  END
>  <minimizedAffinity>
-5.72764826

>  <minimizedRMSD>
0.155850932

$$$$
