
 OpenBabel03212520493D

 30 33  0  0  0  0  0  0  0  0999 V2000
   41.5430   83.9470   61.5510 C   0  0  0  0  0  0  0  0  0  0  0  0
   41.0190   84.4240   62.7120 C   0  0  0  0  0  0  0  0  0  0  0  0
   40.5780   83.5410   63.7110 C   0  0  0  0  0  0  0  0  0  0  0  0
   40.6680   82.2220   63.5300 N   0  0  0  0  0  0  0  0  0  0  0  0
   41.1790   81.7440   62.3960 C   0  0  0  0  0  0  0  0  0  0  0  0
   41.5880   82.6270   61.4690 N   0  0  0  0  0  0  0  0  0  0  0  0
   40.9300   85.4860   62.8970 H   0  0  0  0  0  0  0  0  0  0  0  0
   40.1570   83.8800   64.6460 H   0  0  0  0  0  0  0  0  0  0  0  0
   43.5830   86.2770   59.6160 C   0  0  0  0  0  0  0  0  0  0  0  0
   42.8400   86.4190   58.4480 C   0  0  0  0  0  0  0  0  0  0  0  0
   41.6320   85.7180   58.3090 C   0  0  0  0  0  0  0  0  0  0  0  0
   41.2730   84.9310   59.3620 N   0  0  0  0  0  0  0  0  0  0  0  0
   42.0150   84.8160   60.4760 C   0  0  0  0  0  0  0  0  0  0  0  0
   43.1520   85.4780   60.6010 N   0  0  0  0  0  0  0  0  0  0  0  0
   44.7660   87.0370   59.6070 N   0  0  0  0  0  0  0  0  0  0  0  0
   43.0570   87.0200   57.5750 H   0  0  0  0  0  0  0  0  0  0  0  0
   41.0060   85.7800   57.4350 H   0  0  0  0  0  0  0  0  0  0  0  0
   45.7040   86.7630   60.0210 H   0  0  0  0  0  0  0  0  0  0  0  0
   44.8590   87.9650   59.1910 H   0  0  0  0  0  0  0  0  0  0  0  0
   41.3930   80.3610   61.9310 C   0  0  0  0  0  0  0  0  0  0  0  0
   40.3800   79.5220   61.4820 C   0  0  0  0  0  0  0  0  0  0  0  0
   39.3680   79.9120   61.4740 H   0  0  0  0  0  0  0  0  0  0  0  0
   40.5810   78.2400   61.0540 C   0  0  0  0  0  3  0  0  0  0  0  0
   41.8430   77.6970   61.0460 C   0  0  0  0  0  3  0  0  0  0  0  0
   42.8830   78.4820   61.4800 C   0  0  0  0  0  0  0  0  0  0  0  0
   44.1290   77.8940   61.4530 C   0  0  0  0  0  3  0  0  0  0  0  0
   45.2260   78.6100   61.8730 C   0  0  0  0  0  3  0  0  0  0  0  0
   45.0160   79.9210   62.3120 C   0  0  0  0  0  3  0  0  0  0  0  0
   43.7470   80.4350   62.3060 C   0  0  0  0  0  3  0  0  0  0  0  0
   42.6300   79.7650   61.9010 C   0  0  0  0  0  0  0  0  0  0  0  0
  1  2  1  0  0  0  0
  2  7  1  0  0  0  0
  2  3  2  0  0  0  0
  3  8  1  0  0  0  0
  4  3  1  0  0  0  0
  5  4  2  0  0  0  0
  6  1  2  0  0  0  0
  6  5  1  0  0  0  0
  9 14  1  0  0  0  0
 10  9  2  0  0  0  0
 11 10  1  0  0  0  0
 11 12  2  0  0  0  0
 12 13  1  0  0  0  0
 13 14  2  0  0  0  0
 13  1  1  0  0  0  0
 15  9  1  0  0  0  0
 15 18  1  0  0  0  0
 16 10  1  0  0  0  0
 17 11  1  0  0  0  0
 19 15  1  0  0  0  0
 20  5  1  0  0  0  0
 21 20  2  0  0  0  0
 22 21  1  0  0  0  0
 23 21  1  0  0  0  0
 24 23  2  0  0  0  0
 24 25  1  0  0  0  0
 25 30  1  0  0  0  0
 26 25  2  0  0  0  0
 26 27  1  0  0  0  0
 27 28  2  0  0  0  0
 29 28  1  0  0  0  0
 30 20  1  0  0  0  0
 30 29  2  0  0  0  0
M  END
>  <minimizedAffinity>
-6.0730114

>  <minimizedRMSD>
0.444919318

$$$$
