
 OpenBabel03212520103D

 20 22  0  0  0  0  0  0  0  0999 V2000
   40.7340   82.6350   58.3610 C   0  0  0  0  0  0  0  0  0  0  0  0
   40.1250   81.6170   57.6160 C   0  0  0  0  0  0  0  0  0  0  0  0
   39.2640   81.0470   58.0000 H   0  0  0  0  0  0  0  0  0  0  0  0
   40.5370   81.2400   56.3550 C   0  0  0  0  0  3  0  0  0  0  0  0
   41.6080   81.8870   55.7770 C   0  0  0  0  0  3  0  0  0  0  0  0
   42.2210   82.8930   56.4960 C   0  0  0  0  0  0  0  0  0  0  0  0
   43.3050   83.6200   56.0130 C   0  0  0  0  0  3  0  0  0  0  0  0
   43.8970   84.6230   56.7420 C   0  0  0  0  0  3  0  0  0  0  0  0
   43.4380   84.9570   58.0020 C   0  0  0  0  0  3  0  0  0  0  0  0
   42.3670   84.2620   58.5200 C   0  0  0  0  0  3  0  0  0  0  0  0
   41.8010   83.2630   57.7560 C   0  0  0  0  0  0  0  0  0  0  0  0
   40.1160   81.9800   60.7840 C   0  0  0  0  0  0  0  0  0  0  0  0
   40.1480   82.8380   59.6770 C   0  0  0  0  0  0  0  0  0  0  0  0
   39.5110   84.0910   59.8190 C   0  0  0  0  0  0  0  0  0  0  0  0
   38.9130   84.3900   61.0030 N   0  0  0  0  0  0  0  0  0  0  0  0
   38.9090   83.5340   62.0440 C   0  0  0  0  0  0  0  0  0  0  0  0
   39.5090   82.3460   61.9140 N   0  0  0  0  0  0  0  0  0  0  0  0
   40.6010   81.0470   60.6210 H   0  0  0  0  0  0  0  0  0  0  0  0
   39.4350   84.8720   59.0780 H   0  0  0  0  0  0  0  0  0  0  0  0
   38.4330   83.7710   62.9850 H   0  0  0  0  0  0  0  0  0  0  0  0
  1 13  1  0  0  0  0
  2  3  1  0  0  0  0
  2  1  2  0  0  0  0
  4  2  1  0  0  0  0
  5  4  2  0  0  0  0
  5  6  1  0  0  0  0
  6 11  1  0  0  0  0
  7  6  2  0  0  0  0
  7  8  1  0  0  0  0
  8  9  2  0  0  0  0
  9 10  1  0  0  0  0
 11  1  1  0  0  0  0
 11 10  2  0  0  0  0
 12 17  1  0  0  0  0
 13 14  1  0  0  0  0
 13 12  2  0  0  0  0
 14 15  2  0  0  0  0
 15 16  1  0  0  0  0
 16 20  1  0  0  0  0
 17 16  2  0  0  0  0
 18 12  1  0  0  0  0
 19 14  1  0  0  0  0
M  END
>  <minimizedAffinity>
-4.96586514

>  <minimizedRMSD>
1.37062311

$$$$
