
 OpenBabel03212521073D

 38 42  0  0  0  0  0  0  0  0999 V2000
   41.7980   84.1600   61.5510 C   0  0  0  0  0  0  0  0  0  0  0  0
   41.4570   83.8720   62.8670 C   0  0  0  0  0  0  0  0  0  0  0  0
   40.1650   83.5310   63.2260 C   0  0  0  0  0  0  0  0  0  0  0  0
   39.1840   83.4740   62.2460 C   0  0  0  0  0  0  0  0  0  0  0  0
   39.5270   83.7630   60.9270 C   0  0  0  0  0  0  0  0  0  0  0  0
   40.8150   84.1010   60.5830 C   0  0  0  0  0  0  0  0  0  0  0  0
   42.2600   83.9270   63.6180 H   0  0  0  0  0  0  0  0  0  0  0  0
   39.9270   83.3120   64.2520 H   0  0  0  0  0  0  0  0  0  0  0  0
   38.1600   83.2110   62.4830 H   0  0  0  0  0  0  0  0  0  0  0  0
   38.7630   83.7190   60.1530 H   0  0  0  0  0  0  0  0  0  0  0  0
   45.2450   83.8710   60.3810 C   0  0  0  0  0  0  0  0  0  0  0  0
   45.7620   85.1510   60.6150 C   0  0  0  0  0  0  0  0  0  0  0  0
   44.9080   86.1380   61.1880 C   0  0  0  0  0  0  0  0  0  0  0  0
   43.6320   85.7760   61.4770 N   0  0  0  0  0  0  0  0  0  0  0  0
   43.1650   84.5110   61.2320 C   0  0  0  0  0  0  0  0  0  0  0  0
   43.9710   83.5890   60.6930 N   0  0  0  0  0  0  0  0  0  0  0  0
   45.9410   83.1700   59.9450 H   0  0  0  0  0  0  0  0  0  0  0  0
   46.7740   85.4840   60.4000 H   0  0  0  0  0  0  0  0  0  0  0  0
   45.2350   87.1460   61.3980 H   0  0  0  0  0  0  0  0  0  0  0  0
   41.1100   84.3970   59.1940 C   0  0  0  0  0  0  0  0  0  0  0  0
   41.0670   85.7440   58.9090 C   0  0  0  0  0  0  0  0  0  0  0  0
   41.3310   86.1840   57.6110 C   0  0  0  0  0  0  0  0  0  0  0  0
   41.6170   85.2710   56.6910 N   0  0  0  0  0  0  0  0  0  0  0  0
   41.6660   83.9510   56.9500 C   0  0  0  0  0  0  0  0  0  0  0  0
   41.4070   83.5770   58.1950 N   0  0  0  0  0  0  0  0  0  0  0  0
   40.8400   86.5230   59.6150 H   0  0  0  0  0  0  0  0  0  0  0  0
   41.3170   87.2200   57.3040 H   0  0  0  0  0  0  0  0  0  0  0  0
   41.9560   82.8100   56.0900 C   0  0  0  0  0  0  0  0  0  0  0  0
   41.5620   81.4960   56.3740 C   0  0  0  0  0  0  0  0  0  0  0  0
   41.0090   81.3280   57.2920 H   0  0  0  0  0  0  0  0  0  0  0  0
   41.8350   80.4280   55.5700 C   0  0  0  0  0  3  0  0  0  0  0  0
   42.5340   80.5910   54.3990 C   0  0  0  0  0  3  0  0  0  0  0  0
   42.9450   81.8440   54.0650 C   0  0  0  0  0  0  0  0  0  0  0  0
   43.6400   81.9600   52.8850 C   0  0  0  0  0  3  0  0  0  0  0  0
   44.0940   83.1920   52.4700 C   0  0  0  0  0  3  0  0  0  0  0  0
   43.8140   84.2740   53.2920 C   0  0  0  0  0  3  0  0  0  0  0  0
   43.1140   84.1040   54.4630 C   0  0  0  0  0  3  0  0  0  0  0  0
   42.6500   82.8930   54.9040 C   0  0  0  0  0  0  0  0  0  0  0  0
  1  2  1  0  0  0  0
  2  3  2  0  0  0  0
  2  7  1  0  0  0  0
  3  8  1  0  0  0  0
  4  9  1  0  0  0  0
  4  3  1  0  0  0  0
  5  4  2  0  0  0  0
  6  5  1  0  0  0  0
  6  1  2  0  0  0  0
 10  5  1  0  0  0  0
 11 12  2  0  0  0  0
 11 16  1  0  0  0  0
 12 13  1  0  0  0  0
 13 19  1  0  0  0  0
 13 14  2  0  0  0  0
 15 14  1  0  0  0  0
 15  1  1  0  0  0  0
 16 15  2  0  0  0  0
 17 11  1  0  0  0  0
 18 12  1  0  0  0  0
 20  6  1  0  0  0  0
 21 20  1  0  0  0  0
 21 26  1  0  0  0  0
 22 21  2  0  0  0  0
 23 24  2  0  0  0  0
 23 22  1  0  0  0  0
 24 25  1  0  0  0  0
 25 20  2  0  0  0  0
 27 22  1  0  0  0  0
 28 29  1  0  0  0  0
 28 24  1  0  0  0  0
 29 30  1  0  0  0  0
 31 29  2  0  0  0  0
 32 31  1  0  0  0  0
 33 32  2  0  0  0  0
 33 38  1  0  0  0  0
 34 33  1  0  0  0  0
 35 34  2  0  0  0  0
 35 36  1  0  0  0  0
 36 37  2  0  0  0  0
 37 38  1  0  0  0  0
 38 28  2  0  0  0  0
M  END
>  <minimizedAffinity>
-5.77222157

>  <minimizedRMSD>
0.878852665

$$$$
