
 OpenBabel03212520103D

 20 22  0  0  0  0  0  0  0  0999 V2000
   40.9710   82.5100   58.6130 C   0  0  0  0  0  0  0  0  0  0  0  0
   40.2390   81.7440   57.6970 C   0  0  0  0  0  0  0  0  0  0  0  0
   39.2130   81.4020   57.9100 H   0  0  0  0  0  0  0  0  0  0  0  0
   40.7240   81.3510   56.4670 C   0  0  0  0  0  3  0  0  0  0  0  0
   41.9980   81.7230   56.0980 C   0  0  0  0  0  3  0  0  0  0  0  0
   42.7340   82.4800   56.9860 C   0  0  0  0  0  0  0  0  0  0  0  0
   44.0280   82.9200   56.7210 C   0  0  0  0  0  3  0  0  0  0  0  0
   44.7420   83.6780   57.6160 C   0  0  0  0  0  3  0  0  0  0  0  0
   44.2020   84.0420   58.8340 C   0  0  0  0  0  3  0  0  0  0  0  0
   42.9240   83.6280   59.1400 C   0  0  0  0  0  3  0  0  0  0  0  0
   42.2410   82.8690   58.2140 C   0  0  0  0  0  0  0  0  0  0  0  0
   40.1420   81.9870   61.0040 C   0  0  0  0  0  0  0  0  0  0  0  0
   40.2670   82.7810   59.8560 C   0  0  0  0  0  0  0  0  0  0  0  0
   39.6110   84.0330   59.8690 C   0  0  0  0  0  0  0  0  0  0  0  0
   38.9070   84.3910   60.9750 N   0  0  0  0  0  0  0  0  0  0  0  0
   38.8150   83.5940   62.0590 C   0  0  0  0  0  0  0  0  0  0  0  0
   39.4330   82.4090   62.0520 N   0  0  0  0  0  0  0  0  0  0  0  0
   40.6460   81.0520   60.9390 H   0  0  0  0  0  0  0  0  0  0  0  0
   39.5970   84.7690   59.0810 H   0  0  0  0  0  0  0  0  0  0  0  0
   38.2540   83.8800   62.9390 H   0  0  0  0  0  0  0  0  0  0  0  0
  1 13  1  0  0  0  0
  2  3  1  0  0  0  0
  2  1  2  0  0  0  0
  4  2  1  0  0  0  0
  5  4  2  0  0  0  0
  5  6  1  0  0  0  0
  6 11  1  0  0  0  0
  7  6  2  0  0  0  0
  7  8  1  0  0  0  0
  8  9  2  0  0  0  0
  9 10  1  0  0  0  0
 11  1  1  0  0  0  0
 11 10  2  0  0  0  0
 12 17  1  0  0  0  0
 13 14  1  0  0  0  0
 13 12  2  0  0  0  0
 14 15  2  0  0  0  0
 15 16  1  0  0  0  0
 16 20  1  0  0  0  0
 17 16  2  0  0  0  0
 18 12  1  0  0  0  0
 19 14  1  0  0  0  0
M  END
>  <minimizedAffinity>
-4.58751535

>  <minimizedRMSD>
0.410690963

$$$$
