
 OpenBabel03212521073D

 38 42  0  0  0  0  0  0  0  0999 V2000
   41.7970   84.1770   61.5490 C   0  0  0  0  0  0  0  0  0  0  0  0
   41.4550   83.8480   62.8540 C   0  0  0  0  0  0  0  0  0  0  0  0
   40.1650   83.4840   63.1990 C   0  0  0  0  0  0  0  0  0  0  0  0
   39.1870   83.4480   62.2140 C   0  0  0  0  0  0  0  0  0  0  0  0
   39.5310   83.7780   60.9060 C   0  0  0  0  0  0  0  0  0  0  0  0
   40.8170   84.1380   60.5760 C   0  0  0  0  0  0  0  0  0  0  0  0
   42.2540   83.8870   63.6100 H   0  0  0  0  0  0  0  0  0  0  0  0
   39.9250   83.2330   64.2170 H   0  0  0  0  0  0  0  0  0  0  0  0
   38.1640   83.1690   62.4400 H   0  0  0  0  0  0  0  0  0  0  0  0
   38.7700   83.7510   60.1280 H   0  0  0  0  0  0  0  0  0  0  0  0
   45.2910   83.9160   60.5210 C   0  0  0  0  0  0  0  0  0  0  0  0
   45.7560   85.2300   60.6590 C   0  0  0  0  0  0  0  0  0  0  0  0
   44.8490   86.2310   61.1150 C   0  0  0  0  0  0  0  0  0  0  0  0
   43.5760   85.8480   61.3920 N   0  0  0  0  0  0  0  0  0  0  0  0
   43.1620   84.5500   61.2450 C   0  0  0  0  0  0  0  0  0  0  0  0
   44.0170   83.6150   60.8160 N   0  0  0  0  0  0  0  0  0  0  0  0
   46.0260   83.2060   60.1720 H   0  0  0  0  0  0  0  0  0  0  0  0
   46.7630   85.5800   60.4490 H   0  0  0  0  0  0  0  0  0  0  0  0
   45.1340   87.2640   61.2460 H   0  0  0  0  0  0  0  0  0  0  0  0
   41.1140   84.4780   59.1970 C   0  0  0  0  0  0  0  0  0  0  0  0
   40.7280   85.7570   58.8620 C   0  0  0  0  0  0  0  0  0  0  0  0
   40.9500   86.2290   57.5680 C   0  0  0  0  0  0  0  0  0  0  0  0
   41.5330   85.4120   56.7000 N   0  0  0  0  0  0  0  0  0  0  0  0
   41.9180   84.1590   57.0070 C   0  0  0  0  0  0  0  0  0  0  0  0
   41.6880   83.7520   58.2470 N   0  0  0  0  0  0  0  0  0  0  0  0
   40.2530   86.4580   59.5250 H   0  0  0  0  0  0  0  0  0  0  0  0
   40.6770   87.2170   57.2240 H   0  0  0  0  0  0  0  0  0  0  0  0
   42.5630   83.1250   56.2080 C   0  0  0  0  0  0  0  0  0  0  0  0
   41.8660   82.1680   55.4570 C   0  0  0  0  0  0  0  0  0  0  0  0
   40.7830   82.2080   55.4800 H   0  0  0  0  0  0  0  0  0  0  0  0
   42.4710   81.2000   54.7080 C   0  0  0  0  0  3  0  0  0  0  0  0
   43.8400   81.1110   54.6490 C   0  0  0  0  0  3  0  0  0  0  0  0
   44.5740   82.0110   55.3560 C   0  0  0  0  0  0  0  0  0  0  0  0
   45.9390   81.8830   55.2670 C   0  0  0  0  0  3  0  0  0  0  0  0
   46.7590   82.7530   55.9510 C   0  0  0  0  0  3  0  0  0  0  0  0
   46.1410   83.7350   56.7100 C   0  0  0  0  0  3  0  0  0  0  0  0
   44.7690   83.8200   56.7650 C   0  0  0  0  0  3  0  0  0  0  0  0
   43.9270   82.9710   56.0990 C   0  0  0  0  0  0  0  0  0  0  0  0
  1  2  1  0  0  0  0
  2  3  2  0  0  0  0
  2  7  1  0  0  0  0
  3  8  1  0  0  0  0
  4  9  1  0  0  0  0
  4  3  1  0  0  0  0
  5  4  2  0  0  0  0
  6  5  1  0  0  0  0
  6  1  2  0  0  0  0
 10  5  1  0  0  0  0
 11 12  2  0  0  0  0
 11 16  1  0  0  0  0
 12 13  1  0  0  0  0
 13 19  1  0  0  0  0
 13 14  2  0  0  0  0
 15 14  1  0  0  0  0
 15  1  1  0  0  0  0
 16 15  2  0  0  0  0
 17 11  1  0  0  0  0
 18 12  1  0  0  0  0
 20  6  1  0  0  0  0
 21 20  1  0  0  0  0
 21 26  1  0  0  0  0
 22 21  2  0  0  0  0
 23 24  2  0  0  0  0
 23 22  1  0  0  0  0
 24 25  1  0  0  0  0
 25 20  2  0  0  0  0
 27 22  1  0  0  0  0
 28 24  1  0  0  0  0
 29 30  1  0  0  0  0
 29 28  2  0  0  0  0
 31 29  1  0  0  0  0
 32 31  2  0  0  0  0
 32 33  1  0  0  0  0
 33 38  1  0  0  0  0
 34 33  2  0  0  0  0
 34 35  1  0  0  0  0
 35 36  2  0  0  0  0
 36 37  1  0  0  0  0
 38 28  1  0  0  0  0
 38 37  2  0  0  0  0
M  END
>  <minimizedAffinity>
-5.54374981

>  <minimizedRMSD>
0.764327824

$$$$
