
 OpenBabel03212521033D

 30 33  0  0  0  0  0  0  0  0999 V2000
   41.8230   84.1970   61.6790 C   0  0  0  0  0  0  0  0  0  0  0  0
   41.4690   83.9940   63.0190 C   0  0  0  0  0  0  0  0  0  0  0  0
   40.1970   83.6140   63.3860 C   0  0  0  0  0  0  0  0  0  0  0  0
   39.2290   83.4270   62.3790 C   0  0  0  0  0  0  0  0  0  0  0  0
   39.5940   83.6310   61.0540 C   0  0  0  0  0  0  0  0  0  0  0  0
   40.8770   84.0140   60.6870 C   0  0  0  0  0  0  0  0  0  0  0  0
   42.2410   84.1480   63.7800 H   0  0  0  0  0  0  0  0  0  0  0  0
   40.0150   83.4800   64.4480 H   0  0  0  0  0  0  0  0  0  0  0  0
   38.2380   83.1300   62.6930 H   0  0  0  0  0  0  0  0  0  0  0  0
   38.7930   83.4680   60.3270 H   0  0  0  0  0  0  0  0  0  0  0  0
   41.1930   84.2160   59.2780 C   0  0  0  0  0  0  0  0  0  0  0  0
   41.0720   85.5190   58.7850 C   0  0  0  0  0  0  0  0  0  0  0  0
   40.7540   86.3060   59.4540 H   0  0  0  0  0  0  0  0  0  0  0  0
   41.3360   85.8650   57.4770 C   0  0  0  0  0  0  0  0  0  0  0  0
   41.7440   84.8890   56.5930 C   0  0  0  0  0  0  0  0  0  0  0  0
   41.8700   83.5980   57.0640 C   0  0  0  0  0  0  0  0  0  0  0  0
   42.2760   82.5920   56.2050 C   0  0  0  0  0  0  0  0  0  0  0  0
   42.3930   81.3100   56.7010 C   0  0  0  0  0  0  0  0  0  0  0  0
   42.1240   80.9650   58.0270 C   0  0  0  0  0  0  0  0  0  0  0  0
   41.7160   81.9910   58.8750 C   0  0  0  0  0  0  0  0  0  0  0  0
   41.6030   83.2570   58.3710 C   0  0  0  0  0  0  0  0  0  0  0  0
   45.3520   84.0400   60.7320 C   0  0  0  0  0  0  0  0  0  0  0  0
   45.7540   85.3770   60.7950 C   0  0  0  0  0  0  0  0  0  0  0  0
   44.8070   86.3370   61.1640 C   0  0  0  0  0  0  0  0  0  0  0  0
   43.5590   85.8990   61.4350 N   0  0  0  0  0  0  0  0  0  0  0  0
   43.1830   84.5910   61.3700 C   0  0  0  0  0  0  0  0  0  0  0  0
   44.0830   83.6790   61.0190 N   0  0  0  0  0  0  0  0  0  0  0  0
   46.0020   83.2210   60.4590 H   0  0  0  0  0  0  0  0  0  0  0  0
   46.7800   85.6190   60.5580 H   0  0  0  0  0  0  0  0  0  0  0  0
   45.0930   87.3730   61.2180 H   0  0  0  0  0  0  0  0  0  0  0  0
  1  2  1  0  0  0  0
  2  3  2  0  0  0  0
  2  7  1  0  0  0  0
  3  8  1  0  0  0  0
  4  9  1  0  0  0  0
  4  3  1  0  0  0  0
  5  4  2  0  0  0  0
  6  5  1  0  0  0  0
  6  1  2  0  0  0  0
 10  5  1  0  0  0  0
 11  6  1  0  0  0  0
 12 11  1  0  0  0  0
 12 13  1  0  0  0  0
 14 12  2  0  0  0  0
 15 16  2  0  0  0  0
 15 14  1  0  0  0  0
 16 21  1  0  0  0  0
 17 18  2  0  0  0  0
 17 16  1  0  0  0  0
 18 19  1  0  0  0  0
 19 20  2  0  0  0  0
 21 20  1  0  0  0  0
 21 11  2  0  0  0  0
 22 23  2  0  0  0  0
 22 27  1  0  0  0  0
 23 24  1  0  0  0  0
 24 30  1  0  0  0  0
 24 25  2  0  0  0  0
 26 25  1  0  0  0  0
 26  1  1  0  0  0  0
 27 26  2  0  0  0  0
 28 22  1  0  0  0  0
 29 23  1  0  0  0  0
M  END
>  <minimizedAffinity>
-5.51685619

>  <minimizedRMSD>
2.97175169

$$$$
