
 OpenBabel03212520103D

 20 22  0  0  0  0  0  0  0  0999 V2000
   40.7260   82.6680   58.3000 C   0  0  0  0  0  0  0  0  0  0  0  0
   41.6440   83.6610   57.9330 C   0  0  0  0  0  0  0  0  0  0  0  0
   41.9110   84.4900   58.6090 H   0  0  0  0  0  0  0  0  0  0  0  0
   42.2890   83.6940   56.7140 C   0  0  0  0  0  3  0  0  0  0  0  0
   42.0300   82.7060   55.7900 C   0  0  0  0  0  3  0  0  0  0  0  0
   41.1290   81.7190   56.1340 C   0  0  0  0  0  0  0  0  0  0  0  0
   40.7930   80.6670   55.2870 C   0  0  0  0  0  3  0  0  0  0  0  0
   39.8990   79.6900   55.6520 C   0  0  0  0  0  3  0  0  0  0  0  0
   39.2850   79.7090   56.8890 C   0  0  0  0  0  3  0  0  0  0  0  0
   39.5870   80.7330   57.7600 C   0  0  0  0  0  3  0  0  0  0  0  0
   40.4900   81.6940   57.3560 C   0  0  0  0  0  0  0  0  0  0  0  0
   40.1190   81.9740   60.7150 C   0  0  0  0  0  0  0  0  0  0  0  0
   40.1530   82.8540   59.6240 C   0  0  0  0  0  0  0  0  0  0  0  0
   39.5320   84.1110   59.7950 C   0  0  0  0  0  0  0  0  0  0  0  0
   38.9470   84.3940   60.9890 N   0  0  0  0  0  0  0  0  0  0  0  0
   38.9400   83.5180   62.0140 C   0  0  0  0  0  0  0  0  0  0  0  0
   39.5250   82.3260   61.8570 N   0  0  0  0  0  0  0  0  0  0  0  0
   40.5910   81.0390   60.5300 H   0  0  0  0  0  0  0  0  0  0  0  0
   39.4600   84.9070   59.0700 H   0  0  0  0  0  0  0  0  0  0  0  0
   38.4740   83.7430   62.9630 H   0  0  0  0  0  0  0  0  0  0  0  0
  1 13  1  0  0  0  0
  2  1  1  0  0  0  0
  2  3  1  0  0  0  0
  4  2  2  0  0  0  0
  5  6  2  0  0  0  0
  5  4  1  0  0  0  0
  6 11  1  0  0  0  0
  7  8  2  0  0  0  0
  7  6  1  0  0  0  0
  8  9  1  0  0  0  0
  9 10  2  0  0  0  0
 11 10  1  0  0  0  0
 11  1  2  0  0  0  0
 12 17  1  0  0  0  0
 13 14  1  0  0  0  0
 13 12  2  0  0  0  0
 14 15  2  0  0  0  0
 15 16  1  0  0  0  0
 16 20  1  0  0  0  0
 17 16  2  0  0  0  0
 18 12  1  0  0  0  0
 19 14  1  0  0  0  0
M  END
>  <minimizedAffinity>
-5.2519393

>  <minimizedRMSD>
0.651525259

$$$$
