
 OpenBabel03212521073D

 38 42  0  0  0  0  0  0  0  0999 V2000
   41.8350   84.2410   61.6000 C   0  0  0  0  0  0  0  0  0  0  0  0
   41.4650   83.9930   62.9160 C   0  0  0  0  0  0  0  0  0  0  0  0
   40.1860   83.5820   63.2470 C   0  0  0  0  0  0  0  0  0  0  0  0
   39.2480   83.4140   62.2370 C   0  0  0  0  0  0  0  0  0  0  0  0
   39.6200   83.6630   60.9180 C   0  0  0  0  0  0  0  0  0  0  0  0
   40.8960   84.0710   60.6030 C   0  0  0  0  0  0  0  0  0  0  0  0
   42.2330   84.1360   63.6910 H   0  0  0  0  0  0  0  0  0  0  0  0
   39.9240   83.3960   64.2740 H   0  0  0  0  0  0  0  0  0  0  0  0
   38.2350   83.0930   62.4510 H   0  0  0  0  0  0  0  0  0  0  0  0
   38.8910   83.5320   60.1220 H   0  0  0  0  0  0  0  0  0  0  0  0
   45.3780   84.1040   60.7230 C   0  0  0  0  0  0  0  0  0  0  0  0
   45.7600   85.4520   60.7580 C   0  0  0  0  0  0  0  0  0  0  0  0
   44.7780   86.4310   61.0910 C   0  0  0  0  0  0  0  0  0  0  0  0
   43.5200   85.9970   61.3570 N   0  0  0  0  0  0  0  0  0  0  0  0
   43.1880   84.6680   61.3120 C   0  0  0  0  0  0  0  0  0  0  0  0
   44.1120   83.7530   60.9980 N   0  0  0  0  0  0  0  0  0  0  0  0
   46.1660   83.4130   60.4640 H   0  0  0  0  0  0  0  0  0  0  0  0
   46.7530   85.8430   60.5520 H   0  0  0  0  0  0  0  0  0  0  0  0
   44.9980   87.4880   61.1380 H   0  0  0  0  0  0  0  0  0  0  0  0
   41.2230   84.3210   59.2120 C   0  0  0  0  0  0  0  0  0  0  0  0
   40.8280   85.5680   58.7810 C   0  0  0  0  0  0  0  0  0  0  0  0
   41.0770   85.9540   57.4630 C   0  0  0  0  0  0  0  0  0  0  0  0
   41.6930   85.0890   56.6680 N   0  0  0  0  0  0  0  0  0  0  0  0
   42.0880   83.8670   57.0690 C   0  0  0  0  0  0  0  0  0  0  0  0
   41.8310   83.5410   58.3280 N   0  0  0  0  0  0  0  0  0  0  0  0
   40.3270   86.3050   59.3830 H   0  0  0  0  0  0  0  0  0  0  0  0
   40.8000   86.9120   57.0470 H   0  0  0  0  0  0  0  0  0  0  0  0
   42.7660   82.7900   56.3580 C   0  0  0  0  0  0  0  0  0  0  0  0
   44.1420   82.7770   56.0900 C   0  0  0  0  0  0  0  0  0  0  0  0
   44.7260   83.6240   56.4350 H   0  0  0  0  0  0  0  0  0  0  0  0
   44.7780   81.7700   55.4240 C   0  0  0  0  0  3  0  0  0  0  0  0
   44.0790   80.6770   54.9680 C   0  0  0  0  0  3  0  0  0  0  0  0
   42.7400   80.6310   55.1970 C   0  0  0  0  0  0  0  0  0  0  0  0
   42.0810   79.5220   54.7240 C   0  0  0  0  0  3  0  0  0  0  0  0
   40.7230   79.3920   54.9120 C   0  0  0  0  0  3  0  0  0  0  0  0
   40.0820   80.4180   55.5890 C   0  0  0  0  0  3  0  0  0  0  0  0
   40.7870   81.5090   56.0430 C   0  0  0  0  0  3  0  0  0  0  0  0
   42.1360   81.6670   55.8710 C   0  0  0  0  0  0  0  0  0  0  0  0
  1  2  1  0  0  0  0
  2  3  2  0  0  0  0
  2  7  1  0  0  0  0
  3  8  1  0  0  0  0
  4  9  1  0  0  0  0
  4  3  1  0  0  0  0
  5  4  2  0  0  0  0
  6  5  1  0  0  0  0
  6  1  2  0  0  0  0
 10  5  1  0  0  0  0
 11 12  2  0  0  0  0
 11 16  1  0  0  0  0
 12 13  1  0  0  0  0
 13 19  1  0  0  0  0
 13 14  2  0  0  0  0
 15 14  1  0  0  0  0
 15  1  1  0  0  0  0
 16 15  2  0  0  0  0
 17 11  1  0  0  0  0
 18 12  1  0  0  0  0
 20  6  1  0  0  0  0
 21 20  1  0  0  0  0
 21 26  1  0  0  0  0
 22 21  2  0  0  0  0
 23 24  2  0  0  0  0
 23 22  1  0  0  0  0
 24 25  1  0  0  0  0
 25 20  2  0  0  0  0
 27 22  1  0  0  0  0
 28 24  1  0  0  0  0
 29 28  1  0  0  0  0
 29 30  1  0  0  0  0
 31 29  2  0  0  0  0
 32 33  2  0  0  0  0
 32 31  1  0  0  0  0
 33 38  1  0  0  0  0
 34 35  2  0  0  0  0
 34 33  1  0  0  0  0
 35 36  1  0  0  0  0
 36 37  2  0  0  0  0
 38 37  1  0  0  0  0
 38 28  2  0  0  0  0
M  END
>  <minimizedAffinity>
-5.85608816

>  <minimizedRMSD>
0.770555854

$$$$
