
 OpenBabel03212520093D

 20 22  0  0  0  0  0  0  0  0999 V2000
   40.7670   82.7470   58.2990 C   0  0  0  0  0  0  0  0  0  0  0  0
   41.6710   83.7610   57.9580 C   0  0  0  0  0  0  0  0  0  0  0  0
   41.9150   84.5850   58.6490 H   0  0  0  0  0  0  0  0  0  0  0  0
   42.3290   83.8250   56.7480 C   0  0  0  0  0  3  0  0  0  0  0  0
   42.1000   82.8460   55.8050 C   0  0  0  0  0  3  0  0  0  0  0  0
   41.2130   81.8370   56.1240 C   0  0  0  0  0  0  0  0  0  0  0  0
   40.9080   80.7930   55.2570 C   0  0  0  0  0  3  0  0  0  0  0  0
   40.0270   79.7940   55.5970 C   0  0  0  0  0  3  0  0  0  0  0  0
   39.3980   79.7840   56.8250 C   0  0  0  0  0  3  0  0  0  0  0  0
   39.6710   80.8000   57.7150 C   0  0  0  0  0  3  0  0  0  0  0  0
   40.5600   81.7820   57.3370 C   0  0  0  0  0  0  0  0  0  0  0  0
   40.1410   82.0040   60.6940 C   0  0  0  0  0  0  0  0  0  0  0  0
   40.1740   82.9010   59.6180 C   0  0  0  0  0  0  0  0  0  0  0  0
   39.5310   84.1460   59.8020 C   0  0  0  0  0  0  0  0  0  0  0  0
   38.9270   84.4000   60.9930 N   0  0  0  0  0  0  0  0  0  0  0  0
   38.9210   83.5070   62.0020 C   0  0  0  0  0  0  0  0  0  0  0  0
   39.5280   82.3270   61.8330 N   0  0  0  0  0  0  0  0  0  0  0  0
   40.6300   81.0790   60.5000 H   0  0  0  0  0  0  0  0  0  0  0  0
   39.4560   84.9520   59.0890 H   0  0  0  0  0  0  0  0  0  0  0  0
   38.4400   83.7090   62.9500 H   0  0  0  0  0  0  0  0  0  0  0  0
  1 13  1  0  0  0  0
  2  1  1  0  0  0  0
  2  3  1  0  0  0  0
  4  2  2  0  0  0  0
  5  6  2  0  0  0  0
  5  4  1  0  0  0  0
  6 11  1  0  0  0  0
  7  8  2  0  0  0  0
  7  6  1  0  0  0  0
  8  9  1  0  0  0  0
  9 10  2  0  0  0  0
 11 10  1  0  0  0  0
 11  1  2  0  0  0  0
 12 17  1  0  0  0  0
 13 14  1  0  0  0  0
 13 12  2  0  0  0  0
 14 15  2  0  0  0  0
 15 16  1  0  0  0  0
 16 20  1  0  0  0  0
 17 16  2  0  0  0  0
 18 12  1  0  0  0  0
 19 14  1  0  0  0  0
M  END
>  <minimizedAffinity>
-5.25751591

>  <minimizedRMSD>
1.36826909

$$$$
