
 OpenBabel03212520493D

 30 33  0  0  0  0  0  0  0  0999 V2000
   41.6240   84.0450   61.2170 C   0  0  0  0  0  0  0  0  0  0  0  0
   40.6060   84.3040   62.0810 C   0  0  0  0  0  0  0  0  0  0  0  0
   40.2300   83.3530   63.0440 C   0  0  0  0  0  0  0  0  0  0  0  0
   40.8680   82.1840   63.1210 N   0  0  0  0  0  0  0  0  0  0  0  0
   41.8660   81.9200   62.2790 C   0  0  0  0  0  0  0  0  0  0  0  0
   42.1910   82.8600   61.3740 N   0  0  0  0  0  0  0  0  0  0  0  0
   40.0640   85.2400   62.0510 H   0  0  0  0  0  0  0  0  0  0  0  0
   39.4270   83.5210   63.7480 H   0  0  0  0  0  0  0  0  0  0  0  0
   43.5510   86.5780   59.4270 C   0  0  0  0  0  0  0  0  0  0  0  0
   42.8110   86.7400   58.2600 C   0  0  0  0  0  0  0  0  0  0  0  0
   41.6450   85.9840   58.0710 C   0  0  0  0  0  0  0  0  0  0  0  0
   41.3200   85.1240   59.0780 N   0  0  0  0  0  0  0  0  0  0  0  0
   42.0580   84.9920   60.1930 C   0  0  0  0  0  0  0  0  0  0  0  0
   43.1550   85.7070   60.3650 N   0  0  0  0  0  0  0  0  0  0  0  0
   44.6910   87.4000   59.4710 N   0  0  0  0  0  0  0  0  0  0  0  0
   43.0030   87.3960   57.4210 H   0  0  0  0  0  0  0  0  0  0  0  0
   41.0240   86.0560   57.1940 H   0  0  0  0  0  0  0  0  0  0  0  0
   45.6390   87.1570   59.8810 H   0  0  0  0  0  0  0  0  0  0  0  0
   44.7370   88.3530   59.1040 H   0  0  0  0  0  0  0  0  0  0  0  0
   42.7310   80.7340   62.1340 C   0  0  0  0  0  0  0  0  0  0  0  0
   44.1020   80.7340   62.3640 C   0  0  0  0  0  0  0  0  0  0  0  0
   44.5630   81.6670   62.6680 H   0  0  0  0  0  0  0  0  0  0  0  0
   44.9000   79.6330   62.2280 C   0  0  0  0  0  3  0  0  0  0  0  0
   44.3650   78.4260   61.8440 C   0  0  0  0  0  3  0  0  0  0  0  0
   43.0150   78.3700   61.6050 C   0  0  0  0  0  0  0  0  0  0  0  0
   42.5260   77.1400   61.2210 C   0  0  0  0  0  3  0  0  0  0  0  0
   41.1830   76.9950   60.9600 C   0  0  0  0  0  3  0  0  0  0  0  0
   40.3700   78.1240   61.1000 C   0  0  0  0  0  3  0  0  0  0  0  0
   40.9310   79.3110   61.4850 C   0  0  0  0  0  3  0  0  0  0  0  0
   42.2540   79.5030   61.7540 C   0  0  0  0  0  0  0  0  0  0  0  0
  1  6  2  0  0  0  0
  1  2  1  0  0  0  0
  2  3  2  0  0  0  0
  3  4  1  0  0  0  0
  3  8  1  0  0  0  0
  5  4  2  0  0  0  0
  6  5  1  0  0  0  0
  7  2  1  0  0  0  0
  9 15  1  0  0  0  0
  9 14  1  0  0  0  0
 10  9  2  0  0  0  0
 11 10  1  0  0  0  0
 11 12  2  0  0  0  0
 12 13  1  0  0  0  0
 13 14  2  0  0  0  0
 13  1  1  0  0  0  0
 15 18  1  0  0  0  0
 16 10  1  0  0  0  0
 17 11  1  0  0  0  0
 19 15  1  0  0  0  0
 20  5  1  0  0  0  0
 20 21  1  0  0  0  0
 21 22  1  0  0  0  0
 23 21  2  0  0  0  0
 24 23  1  0  0  0  0
 25 30  1  0  0  0  0
 25 24  2  0  0  0  0
 26 25  1  0  0  0  0
 27 28  1  0  0  0  0
 27 26  2  0  0  0  0
 28 29  2  0  0  0  0
 29 30  1  0  0  0  0
 30 20  2  0  0  0  0
M  END
>  <minimizedAffinity>
-5.89452934

>  <minimizedRMSD>
1.77113807

$$$$
