
 OpenBabel03212520093D

 20 22  0  0  0  0  0  0  0  0999 V2000
   42.5060   81.4760   61.8160 C   0  0  0  0  0  0  0  0  0  0  0  0
   43.6580   81.8970   61.1400 C   0  0  0  0  0  0  0  0  0  0  0  0
   44.0510   82.9230   61.2360 H   0  0  0  0  0  0  0  0  0  0  0  0
   44.3970   81.0840   60.3060 C   0  0  0  0  0  3  0  0  0  0  0  0
   43.9970   79.7800   60.1120 C   0  0  0  0  0  3  0  0  0  0  0  0
   42.8640   79.3460   60.7710 C   0  0  0  0  0  0  0  0  0  0  0  0
   42.3690   78.0510   60.6590 C   0  0  0  0  0  3  0  0  0  0  0  0
   41.2430   77.6370   61.3290 C   0  0  0  0  0  3  0  0  0  0  0  0
   40.5450   78.4970   62.1530 C   0  0  0  0  0  3  0  0  0  0  0  0
   41.0000   79.7910   62.2930 C   0  0  0  0  0  3  0  0  0  0  0  0
   42.1320   80.1660   61.6030 C   0  0  0  0  0  0  0  0  0  0  0  0
   40.5230   82.8560   62.7360 C   0  0  0  0  0  0  0  0  0  0  0  0
   41.8770   82.5140   62.6180 C   0  0  0  0  0  0  0  0  0  0  0  0
   42.7990   83.2810   63.3650 C   0  0  0  0  0  0  0  0  0  0  0  0
   42.3290   84.2910   64.1440 N   0  0  0  0  0  0  0  0  0  0  0  0
   41.0160   84.5840   64.2280 C   0  0  0  0  0  0  0  0  0  0  0  0
   40.1400   83.8620   63.5230 N   0  0  0  0  0  0  0  0  0  0  0  0
   39.8740   82.2540   62.1460 H   0  0  0  0  0  0  0  0  0  0  0  0
   43.8710   83.1630   63.3970 H   0  0  0  0  0  0  0  0  0  0  0  0
   40.6430   85.3890   64.8470 H   0  0  0  0  0  0  0  0  0  0  0  0
  1 13  1  0  0  0  0
  2  3  1  0  0  0  0
  2  1  2  0  0  0  0
  4  2  1  0  0  0  0
  5  4  2  0  0  0  0
  5  6  1  0  0  0  0
  6 11  1  0  0  0  0
  7  6  2  0  0  0  0
  7  8  1  0  0  0  0
  8  9  2  0  0  0  0
  9 10  1  0  0  0  0
 11  1  1  0  0  0  0
 11 10  2  0  0  0  0
 12 17  1  0  0  0  0
 13 12  2  0  0  0  0
 13 14  1  0  0  0  0
 14 19  1  0  0  0  0
 14 15  2  0  0  0  0
 15 16  1  0  0  0  0
 16 20  1  0  0  0  0
 17 16  2  0  0  0  0
 18 12  1  0  0  0  0
M  END
>  <minimizedAffinity>
-4.32215071

>  <minimizedRMSD>
4.33840084

$$$$
