
 OpenBabel03212520103D

 20 22  0  0  0  0  0  0  0  0999 V2000
   42.4540   83.5730   59.6010 C   0  0  0  0  0  0  0  0  0  0  0  0
   42.2990   83.7470   58.2200 C   0  0  0  0  0  0  0  0  0  0  0  0
   42.8740   84.4980   57.6560 H   0  0  0  0  0  0  0  0  0  0  0  0
   41.4270   83.0060   57.4490 C   0  0  0  0  0  3  0  0  0  0  0  0
   40.6560   82.0360   58.0510 C   0  0  0  0  0  3  0  0  0  0  0  0
   40.7950   81.8500   59.4120 C   0  0  0  0  0  0  0  0  0  0  0  0
   40.0750   80.8970   60.1260 C   0  0  0  0  0  3  0  0  0  0  0  0
   40.2330   80.7240   61.4800 C   0  0  0  0  0  3  0  0  0  0  0  0
   41.1240   81.4960   62.1990 C   0  0  0  0  0  3  0  0  0  0  0  0
   41.8580   82.4530   61.5320 C   0  0  0  0  0  3  0  0  0  0  0  0
   41.6690   82.5950   60.1740 C   0  0  0  0  0  0  0  0  0  0  0  0
   44.5800   84.2070   60.9280 C   0  0  0  0  0  0  0  0  0  0  0  0
   43.4090   84.4860   60.2090 C   0  0  0  0  0  0  0  0  0  0  0  0
   43.0670   85.8470   60.0450 C   0  0  0  0  0  0  0  0  0  0  0  0
   43.8790   86.7950   60.5830 N   0  0  0  0  0  0  0  0  0  0  0  0
   44.9980   86.4810   61.2670 C   0  0  0  0  0  0  0  0  0  0  0  0
   45.3260   85.1940   61.4260 N   0  0  0  0  0  0  0  0  0  0  0  0
   44.7850   83.1690   61.0320 H   0  0  0  0  0  0  0  0  0  0  0  0
   42.2100   86.2450   59.5260 H   0  0  0  0  0  0  0  0  0  0  0  0
   45.6430   87.2350   61.6960 H   0  0  0  0  0  0  0  0  0  0  0  0
  1 11  1  0  0  0  0
  1 13  1  0  0  0  0
  2  1  2  0  0  0  0
  3  2  1  0  0  0  0
  4  5  2  0  0  0  0
  4  2  1  0  0  0  0
  5  6  1  0  0  0  0
  6  7  2  0  0  0  0
  6 11  1  0  0  0  0
  7  8  1  0  0  0  0
  8  9  2  0  0  0  0
 10  9  1  0  0  0  0
 11 10  2  0  0  0  0
 12 18  1  0  0  0  0
 12 17  1  0  0  0  0
 13 12  2  0  0  0  0
 14 13  1  0  0  0  0
 14 15  2  0  0  0  0
 15 16  1  0  0  0  0
 16 17  2  0  0  0  0
 16 20  1  0  0  0  0
 19 14  1  0  0  0  0
M  END
>  <minimizedAffinity>
-4.24463558

>  <minimizedRMSD>
4.91040945

$$$$
