
 OpenBabel03212520513D

 38 41  0  0  1  0  0  0  0  0999 V2000
   41.7030   83.8590   61.4040 C   0  0  0  0  0  0  0  0  0  0  0  0
   41.1320   84.2420   62.5940 C   0  0  0  0  0  0  0  0  0  0  0  0
   40.6890   83.2970   63.5200 C   0  0  0  0  0  0  0  0  0  0  0  0
   40.8160   81.9860   63.2530 N   0  0  0  0  0  0  0  0  0  0  0  0
   41.3810   81.6290   62.0750 C   0  0  0  0  0  0  0  0  0  0  0  0
   41.8170   82.5300   61.1680 N   0  0  0  0  0  0  0  0  0  0  0  0
   41.0290   85.3040   62.8100 H   0  0  0  0  0  0  0  0  0  0  0  0
   40.2450   83.6410   64.4440 H   0  0  0  0  0  0  0  0  0  0  0  0
   43.6270   86.4860   59.7310 C   0  0  0  0  0  0  0  0  0  0  0  0
   42.9420   86.6140   58.5260 C   0  0  0  0  0  0  0  0  0  0  0  0
   41.8360   85.8240   58.2710 C   0  0  0  0  0  0  0  0  0  0  0  0
   41.4860   84.9420   59.2580 N   0  0  0  0  0  0  0  0  0  0  0  0
   42.1620   84.8330   60.4150 C   0  0  0  0  0  0  0  0  0  0  0  0
   43.2230   85.5900   60.6640 N   0  0  0  0  0  0  0  0  0  0  0  0
   44.7340   87.3590   59.8430 N   0  0  0  0  0  0  0  0  0  0  0  0
   43.2040   87.3050   57.7360 H   0  0  0  0  0  0  0  0  0  0  0  0
   41.2840   85.8950   57.3550 H   0  0  0  0  0  0  0  0  0  0  0  0
   44.3510   88.2620   60.1920 H   0  0  0  0  0  0  0  0  0  0  0  0
   45.6210   86.8880   59.5570 H   0  0  0  0  0  0  0  0  0  0  0  0
   41.4770   80.1550   61.8130 C   0  0  1  0  0  0  0  0  0  0  0  0
   40.6880   79.2210   62.5830 C   0  0  0  0  0  0  0  0  0  0  0  0
   40.2230   79.5850   61.2070 C   0  0  2  0  0  0  0  0  0  0  0  0
   42.4500   79.8450   61.4080 H   0  0  0  0  0  0  0  0  0  0  0  0
   41.0750   78.2310   62.8370 H   0  0  0  0  0  0  0  0  0  0  0  0
   40.1170   79.6690   63.4480 H   0  0  0  0  0  0  0  0  0  0  0  0
   39.3300   80.2320   61.1570 H   0  0  0  0  0  0  0  0  0  0  0  0
   40.1080   78.6170   58.9400 C   0  0  0  0  0  0  0  0  0  0  0  0
   40.1790   78.4370   60.3070 C   0  0  0  0  0  0  0  0  0  0  0  0
   40.2010   77.1000   60.7000 C   0  0  0  0  0  0  0  0  0  0  0  0
   40.2560   76.8970   61.7630 H   0  0  0  0  0  0  0  0  0  0  0  0
   40.1600   76.0310   59.8420 C   0  0  0  0  0  0  0  0  0  0  0  0
   40.1800   75.0150   60.1840 H   0  0  0  0  0  0  0  0  0  0  0  0
   40.0900   76.2710   58.4860 C   0  0  0  0  0  3  0  0  0  0  0  0
   40.0640   77.5700   58.0330 C   0  0  0  0  0  3  0  0  0  0  0  0
   39.4020   81.1180   59.1130 H   0  0  0  0  0  0  0  0  0  0  0  0
   40.0730   80.2370   58.3190 S   0  0  0  0  0  0  0  0  0  0  0  0
   41.4660   80.7250   57.9650 O   0  0  0  0  0  0  0  0  0  0  0  0
   39.3170   80.2360   57.0100 O   0  0  0  0  0  0  0  0  0  0  0  0
  1  2  1  0  0  0  0
  2  7  1  0  0  0  0
  2  3  2  0  0  0  0
  3  8  1  0  0  0  0
  4  3  1  0  0  0  0
  5  4  2  0  0  0  0
  6  1  2  0  0  0  0
  6  5  1  0  0  0  0
  9 15  1  0  0  0  0
  9 14  1  0  0  0  0
 10  9  2  0  0  0  0
 11 10  1  0  0  0  0
 11 12  2  0  0  0  0
 12 13  1  0  0  0  0
 13 14  2  0  0  0  0
 13  1  1  0  0  0  0
 15 18  1  0  0  0  0
 16 10  1  0  0  0  0
 17 11  1  0  0  0  0
 19 15  1  0  0  0  0
 20 23  1  6  0  0  0
 20  5  1  0  0  0  0
 20 21  1  0  0  0  0
 21 24  1  0  0  0  0
 21 25  1  0  0  0  0
 22 26  1  6  0  0  0
 22 20  1  0  0  0  0
 22 21  1  0  0  0  0
 27 28  1  0  0  0  0
 28 29  2  0  0  0  0
 28 22  1  0  0  0  0
 29 30  1  0  0  0  0
 31 32  1  0  0  0  0
 31 29  1  0  0  0  0
 33 31  2  0  0  0  0
 34 33  1  0  0  0  0
 34 27  2  0  0  0  0
 36 27  1  0  0  0  0
 36 35  1  0  0  0  0
 37 36  2  0  0  0  0
 38 36  2  0  0  0  0
M  END
>  <minimizedAffinity>
-5.80908442

>  <minimizedRMSD>
0.298381686

$$$$
