
 OpenBabel03212520203D

 39 41  0  0  0  0  0  0  0  0999 V2000
   43.1790   83.9790   58.6220 Cl  0  0  0  0  0  0  0  0  0  0  0  0
   41.9350   82.7950   58.2140 C   0  0  0  0  0  0  0  0  0  0  0  0
   41.0550   82.2710   59.1510 C   0  0  0  0  0  0  0  0  0  0  0  0
   40.1500   81.3580   58.6580 C   0  0  0  0  0  0  0  0  0  0  0  0
   40.0250   80.9190   57.3660 C   0  0  0  0  0  0  0  0  0  0  0  0
   40.9160   81.4670   56.4840 C   0  0  0  0  0  0  0  0  0  0  0  0
   40.8740   80.9960   54.7830 Cl  0  0  0  0  0  0  0  0  0  0  0  0
   41.8590   82.3910   56.8980 C   0  0  0  0  0  0  0  0  0  0  0  0
   39.4610   80.9530   59.4110 H   0  0  0  0  0  0  0  0  0  0  0  0
   39.3000   80.2080   57.0480 H   0  0  0  0  0  0  0  0  0  0  0  0
   41.9840   82.1900   61.5130 C   0  0  0  0  0  0  0  0  0  0  0  0
   41.1500   82.6980   60.4960 C   0  0  0  0  0  0  0  0  0  0  0  0
   40.3040   83.7540   60.8410 C   0  0  0  0  0  0  0  0  0  0  0  0
   40.3680   84.1930   62.1360 N   0  0  0  0  0  0  0  0  0  0  0  0
   41.1660   83.6930   63.0690 C   0  0  0  0  0  0  0  0  0  0  0  0
   41.9890   82.6720   62.7490 N   0  0  0  0  0  0  0  0  0  0  0  0
   42.6200   81.3700   61.1870 H   0  0  0  0  0  0  0  0  0  0  0  0
   39.6150   84.2340   60.1580 H   0  0  0  0  0  0  0  0  0  0  0  0
   41.0690   84.3230   64.4010 C   0  0  0  0  0  0  0  0  0  0  0  0
   40.7220   85.6510   64.3400 F   0  0  0  0  0  0  0  0  0  0  0  0
   40.1080   83.6610   65.1740 F   0  0  0  0  0  0  0  0  0  0  0  0
   42.3160   84.2780   65.0620 F   0  0  0  0  0  0  0  0  0  0  0  0
   42.7340   82.9100   55.9570 O   0  0  0  0  0  0  0  0  0  0  0  0
   42.4580   84.0240   55.1600 C   0  0  0  0  0  0  0  0  0  0  0  0
   42.2150   83.7950   54.1180 H   0  0  0  0  0  0  0  0  0  0  0  0
   41.5660   84.5260   55.6370 H   0  0  0  0  0  0  0  0  0  0  0  0
   43.5500   84.8980   55.3110 O   0  0  0  0  0  0  0  0  0  0  0  0
   45.2580   84.5820   53.8340 C   0  0  0  0  0  0  0  0  0  0  0  0
   44.8180   84.3560   55.1380 C   0  0  0  0  0  0  0  0  0  0  0  0
   45.6440   83.6760   56.0090 C   0  0  0  0  0  0  0  0  0  0  0  0
   45.1880   83.5670   56.9810 H   0  0  0  0  0  0  0  0  0  0  0  0
   46.8640   83.2390   55.5930 C   0  0  0  0  0  0  0  0  0  0  0  0
   47.4620   82.7160   56.3170 H   0  0  0  0  0  0  0  0  0  0  0  0
   47.3390   83.4390   54.3160 C   0  0  0  0  0  3  0  0  0  0  0  0
   46.5190   84.1190   53.4390 C   0  0  0  0  0  3  0  0  0  0  0  0
   43.6120   86.4420   53.1220 H   0  0  0  0  0  0  0  0  0  0  0  0
   44.3750   85.4180   52.5750 S   0  0  0  0  0  0  0  0  0  0  0  0
   43.5100   84.4760   51.7730 O   0  0  0  0  0  0  0  0  0  0  0  0
   45.3310   86.0660   51.6150 O   0  0  0  0  0  0  0  0  0  0  0  0
  2  1  1  0  0  0  0
  2  3  1  0  0  0  0
  3 12  1  0  0  0  0
  4  3  2  0  0  0  0
  4  9  1  0  0  0  0
  5  4  1  0  0  0  0
  6  8  1  0  0  0  0
  6  5  2  0  0  0  0
  7  6  1  0  0  0  0
  8  2  2  0  0  0  0
 10  5  1  0  0  0  0
 11 16  1  0  0  0  0
 12 13  1  0  0  0  0
 12 11  2  0  0  0  0
 13 14  2  0  0  0  0
 14 15  1  0  0  0  0
 15 19  1  0  0  0  0
 16 15  2  0  0  0  0
 17 11  1  0  0  0  0
 18 13  1  0  0  0  0
 19 22  1  0  0  0  0
 19 21  1  0  0  0  0
 20 19  1  0  0  0  0
 23  8  1  0  0  0  0
 24 27  1  0  0  0  0
 24 26  1  0  0  0  0
 24 23  1  0  0  0  0
 25 24  1  0  0  0  0
 28 29  1  0  0  0  0
 29 27  1  0  0  0  0
 29 30  2  0  0  0  0
 30 31  1  0  0  0  0
 32 30  1  0  0  0  0
 32 33  1  0  0  0  0
 34 32  2  0  0  0  0
 35 28  2  0  0  0  0
 35 34  1  0  0  0  0
 37 36  1  0  0  0  0
 37 28  1  0  0  0  0
 38 37  2  0  0  0  0
 39 37  2  0  0  0  0
M  END
>  <minimizedAffinity>
-4.73950863

>  <minimizedRMSD>
0.534741104

$$$$
