
 OpenBabel03212520403D

 30 32  0  0  1  0  0  0  0  0999 V2000
   42.2510   85.5090   59.7470 C   0  0  1  0  0  0  0  0  0  0  0  0
   43.4910   86.1780   59.1580 C   0  0  0  0  0  0  0  0  0  0  0  0
   42.5200   85.3670   58.3070 C   0  0  1  0  0  0  0  0  0  0  0  0
   41.5290   86.2450   60.1500 H   0  0  0  0  0  0  0  0  0  0  0  0
   43.4830   87.2750   59.0130 H   0  0  0  0  0  0  0  0  0  0  0  0
   44.4750   85.7270   59.2790 H   0  0  0  0  0  0  0  0  0  0  0  0
   41.8940   85.9600   57.6230 H   0  0  0  0  0  0  0  0  0  0  0  0
   42.6080   84.4480   60.6240 O   0  0  0  0  0  0  0  0  0  0  0  0
   40.0750   83.5780   63.0580 C   0  0  0  0  0  0  0  0  0  0  0  0
   40.7320   83.8450   64.2590 C   0  0  0  0  0  0  0  0  0  0  0  0
   42.0600   84.3290   64.1970 C   0  0  0  0  0  0  0  0  0  0  0  0
   42.5800   84.4910   62.9520 N   0  0  0  0  0  0  0  0  0  0  0  0
   41.9350   84.2290   61.8040 C   0  0  0  0  0  0  0  0  0  0  0  0
   40.6880   83.7740   61.8360 N   0  0  0  0  0  0  0  0  0  0  0  0
   39.0460   83.2010   63.0580 H   0  0  0  0  0  0  0  0  0  0  0  0
   40.2530   83.6910   65.2080 H   0  0  0  0  0  0  0  0  0  0  0  0
   42.6200   84.5550   65.0930 H   0  0  0  0  0  0  0  0  0  0  0  0
   42.9200   84.1050   57.8680 O   0  0  0  0  0  0  0  0  0  0  0  0
   41.7580   82.4320   56.7180 C   0  0  0  0  0  0  0  0  0  0  0  0
   42.6450   83.4900   56.6840 C   0  0  0  0  0  0  0  0  0  0  0  0
   43.2260   83.9100   55.5260 C   0  0  0  0  0  0  0  0  0  0  0  0
   43.9180   84.7220   55.4490 H   0  0  0  0  0  0  0  0  0  0  0  0
   42.8810   83.2170   54.3720 C   0  0  0  0  0  0  0  0  0  0  0  0
   43.3410   83.5440   53.4350 H   0  0  0  0  0  0  0  0  0  0  0  0
   42.0090   82.1520   54.3030 C   0  0  0  0  0  3  0  0  0  0  0  0
   41.4630   81.7900   55.5240 C   0  0  0  0  0  3  0  0  0  0  0  0
   42.0070   81.7500   59.1800 H   0  0  0  0  0  0  0  0  0  0  0  0
   41.0340   81.9250   58.2240 S   0  0  0  0  0  0  0  0  0  0  0  0
   40.3810   80.5800   58.0530 O   0  0  0  0  0  0  0  0  0  0  0  0
   39.9960   82.8900   58.7170 O   0  0  0  0  0  0  0  0  0  0  0  0
  1  4  1  1  0  0  0
  1  8  1  0  0  0  0
  2  6  1  0  0  0  0
  2  1  1  0  0  0  0
  3  7  1  6  0  0  0
  3  2  1  0  0  0  0
  3  1  1  0  0  0  0
  5  2  1  0  0  0  0
  8 13  1  0  0  0  0
  9 10  1  0  0  0  0
 10 16  1  0  0  0  0
 11 10  2  0  0  0  0
 11 17  1  0  0  0  0
 12 11  1  0  0  0  0
 13 14  1  0  0  0  0
 13 12  2  0  0  0  0
 14  9  2  0  0  0  0
 15  9  1  0  0  0  0
 18  3  1  0  0  0  0
 19 28  1  0  0  0  0
 20 19  1  0  0  0  0
 20 18  1  0  0  0  0
 21 20  2  0  0  0  0
 22 21  1  0  0  0  0
 23 21  1  0  0  0  0
 24 23  1  0  0  0  0
 25 23  2  0  0  0  0
 25 26  1  0  0  0  0
 26 19  2  0  0  0  0
 28 30  2  0  0  0  0
 28 27  1  0  0  0  0
 29 28  2  0  0  0  0
M  END
>  <minimizedAffinity>
-4.12784863

>  <minimizedRMSD>
1.70665038

$$$$
