
 OpenBabel03212520403D

 30 32  0  0  1  0  0  0  0  0999 V2000
   42.3830   85.4600   59.8180 C   0  0  1  0  0  0  0  0  0  0  0  0
   43.4370   86.4760   59.3800 C   0  0  0  0  0  0  0  0  0  0  0  0
   43.0190   85.3030   58.5000 C   0  0  1  0  0  0  0  0  0  0  0  0
   41.3860   85.9220   59.9490 H   0  0  0  0  0  0  0  0  0  0  0  0
   43.1040   87.4810   59.0610 H   0  0  0  0  0  0  0  0  0  0  0  0
   44.4550   86.4170   59.7610 H   0  0  0  0  0  0  0  0  0  0  0  0
   42.4140   85.5750   57.6200 H   0  0  0  0  0  0  0  0  0  0  0  0
   42.8500   84.6750   60.9070 O   0  0  0  0  0  0  0  0  0  0  0  0
   40.0460   83.5250   62.8860 C   0  0  0  0  0  0  0  0  0  0  0  0
   40.5140   83.7260   64.1840 C   0  0  0  0  0  0  0  0  0  0  0  0
   41.8120   84.2640   64.3480 C   0  0  0  0  0  0  0  0  0  0  0  0
   42.4930   84.5410   63.2040 N   0  0  0  0  0  0  0  0  0  0  0  0
   42.0290   84.3410   61.9610 C   0  0  0  0  0  0  0  0  0  0  0  0
   40.8140   83.8360   61.7820 N   0  0  0  0  0  0  0  0  0  0  0  0
   39.0470   83.1090   62.7130 H   0  0  0  0  0  0  0  0  0  0  0  0
   39.9150   83.4820   65.0430 H   0  0  0  0  0  0  0  0  0  0  0  0
   42.2290   84.4440   65.3280 H   0  0  0  0  0  0  0  0  0  0  0  0
   43.9030   84.2340   58.3560 O   0  0  0  0  0  0  0  0  0  0  0  0
   45.5930   83.1800   57.1310 C   0  0  0  0  0  0  0  0  0  0  0  0
   44.2760   83.5870   57.2180 C   0  0  0  0  0  0  0  0  0  0  0  0
   43.3800   83.3570   56.2180 C   0  0  0  0  0  0  0  0  0  0  0  0
   42.3530   83.6510   56.2390 H   0  0  0  0  0  0  0  0  0  0  0  0
   43.8600   82.6880   55.0980 C   0  0  0  0  0  0  0  0  0  0  0  0
   43.1500   82.4970   54.2880 H   0  0  0  0  0  0  0  0  0  0  0  0
   45.1520   82.2430   54.9180 C   0  0  0  0  0  3  0  0  0  0  0  0
   45.9970   82.5180   55.9820 C   0  0  0  0  0  3  0  0  0  0  0  0
   46.5300   84.7710   58.9150 H   0  0  0  0  0  0  0  0  0  0  0  0
   46.7110   83.4940   58.4360 S   0  0  0  0  0  0  0  0  0  0  0  0
   48.1250   83.4420   57.9260 O   0  0  0  0  0  0  0  0  0  0  0  0
   46.5800   82.5020   59.5550 O   0  0  0  0  0  0  0  0  0  0  0  0
  1  4  1  1  0  0  0
  1  8  1  0  0  0  0
  2  6  1  0  0  0  0
  2  1  1  0  0  0  0
  3  7  1  6  0  0  0
  3  2  1  0  0  0  0
  3  1  1  0  0  0  0
  5  2  1  0  0  0  0
  8 13  1  0  0  0  0
  9 10  1  0  0  0  0
 10 11  2  0  0  0  0
 10 16  1  0  0  0  0
 11 17  1  0  0  0  0
 12 11  1  0  0  0  0
 13 12  2  0  0  0  0
 14 13  1  0  0  0  0
 14  9  2  0  0  0  0
 15  9  1  0  0  0  0
 18  3  1  0  0  0  0
 19 20  1  0  0  0  0
 19 28  1  0  0  0  0
 20 18  1  0  0  0  0
 21 22  1  0  0  0  0
 21 20  2  0  0  0  0
 23 21  1  0  0  0  0
 24 23  1  0  0  0  0
 25 23  2  0  0  0  0
 25 26  1  0  0  0  0
 26 19  2  0  0  0  0
 28 27  1  0  0  0  0
 28 30  2  0  0  0  0
 29 28  2  0  0  0  0
M  END
>  <minimizedAffinity>
-3.39682674

>  <minimizedRMSD>
0.151615098

$$$$
