
 OpenBabel03212520493D

 31 33  0  0  0  0  0  0  0  0999 V2000
   41.8010   83.9370   61.5300 C   0  0  0  0  0  0  0  0  0  0  0  0
   41.3550   84.2320   62.7910 C   0  0  0  0  0  0  0  0  0  0  0  0
   40.7210   83.2640   63.5830 C   0  0  0  0  0  0  0  0  0  0  0  0
   40.5420   82.0090   63.0940 N   0  0  0  0  0  0  0  0  0  0  0  0
   40.9810   81.7340   61.8620 C   0  0  0  0  0  0  0  0  0  0  0  0
   41.5890   82.6860   61.1210 N   0  0  0  0  0  0  0  0  0  0  0  0
   41.4910   85.2250   63.1920 H   0  0  0  0  0  0  0  0  0  0  0  0
   40.3880   83.5460   64.5660 H   0  0  0  0  0  0  0  0  0  0  0  0
   43.8960   86.7370   60.4660 C   0  0  0  0  0  0  0  0  0  0  0  0
   43.6860   86.7460   59.0880 C   0  0  0  0  0  0  0  0  0  0  0  0
   42.8260   85.7920   58.5180 C   0  0  0  0  0  0  0  0  0  0  0  0
   42.2370   84.8970   59.3690 N   0  0  0  0  0  0  0  0  0  0  0  0
   42.4630   84.9200   60.6870 C   0  0  0  0  0  0  0  0  0  0  0  0
   43.2790   85.8230   61.2290 N   0  0  0  0  0  0  0  0  0  0  0  0
   44.7810   87.7540   60.8700 N   0  0  0  0  0  0  0  0  0  0  0  0
   44.1260   87.4310   58.3690 H   0  0  0  0  0  0  0  0  0  0  0  0
   42.6220   85.7480   57.4550 H   0  0  0  0  0  0  0  0  0  0  0  0
   45.7400   87.3740   60.6900 H   0  0  0  0  0  0  0  0  0  0  0  0
   44.5340   88.7050   61.2720 H   0  0  0  0  0  0  0  0  0  0  0  0
   40.5120   80.0420   60.0740 C   0  0  0  0  0  0  0  0  0  0  0  0
   40.7630   80.3740   61.3860 C   0  0  0  0  0  0  0  0  0  0  0  0
   40.8060   79.3360   62.2900 C   0  0  0  0  0  0  0  0  0  0  0  0
   40.9970   79.4800   63.3600 H   0  0  0  0  0  0  0  0  0  0  0  0
   40.6080   78.0020   61.9220 C   0  0  0  0  0  0  0  0  0  0  0  0
   40.6480   77.2090   62.6560 H   0  0  0  0  0  0  0  0  0  0  0  0
   40.3600   77.6880   60.6100 C   0  0  0  0  0  3  0  0  0  0  0  0
   40.3180   78.7320   59.7090 C   0  0  0  0  0  3  0  0  0  0  0  0
   40.0020   82.4310   59.4570 H   0  0  0  0  0  0  0  0  0  0  0  0
   40.4400   81.2790   58.8700 S   0  0  0  0  0  0  0  0  0  0  0  0
   41.7850   81.5560   58.2200 O   0  0  0  0  0  0  0  0  0  0  0  0
   39.4660   80.9010   57.7800 O   0  0  0  0  0  0  0  0  0  0  0  0
  1  2  1  0  0  0  0
  2  7  1  0  0  0  0
  2  3  2  0  0  0  0
  3  8  1  0  0  0  0
  4  3  1  0  0  0  0
  5  4  2  0  0  0  0
  6  1  2  0  0  0  0
  6  5  1  0  0  0  0
  9 15  1  0  0  0  0
  9 14  1  0  0  0  0
 10  9  2  0  0  0  0
 11 10  1  0  0  0  0
 11 12  2  0  0  0  0
 12 13  1  0  0  0  0
 13 14  2  0  0  0  0
 13  1  1  0  0  0  0
 15 19  1  0  0  0  0
 16 10  1  0  0  0  0
 17 11  1  0  0  0  0
 18 15  1  0  0  0  0
 20 21  1  0  0  0  0
 21  5  1  0  0  0  0
 21 22  2  0  0  0  0
 22 23  1  0  0  0  0
 24 22  1  0  0  0  0
 24 25  1  0  0  0  0
 26 24  2  0  0  0  0
 27 20  2  0  0  0  0
 27 26  1  0  0  0  0
 29 28  1  0  0  0  0
 29 20  1  0  0  0  0
 30 29  2  0  0  0  0
 31 29  2  0  0  0  0
M  END
>  <minimizedAffinity>
-5.53522873

>  <minimizedRMSD>
1.10376513

$$$$
