
 OpenBabel03212520183D

 38 40  0  0  0  0  0  0  0  0999 V2000
   43.0910   83.8320   58.5520 Cl  0  0  0  0  0  0  0  0  0  0  0  0
   41.8360   82.6740   58.1830 C   0  0  0  0  0  0  0  0  0  0  0  0
   40.9570   82.1850   59.1200 C   0  0  0  0  0  0  0  0  0  0  0  0
   40.0300   81.2760   58.6570 C   0  0  0  0  0  0  0  0  0  0  0  0
   39.8910   80.8110   57.3780 C   0  0  0  0  0  0  0  0  0  0  0  0
   40.7860   81.3220   56.4770 C   0  0  0  0  0  0  0  0  0  0  0  0
   40.7190   80.8040   54.7880 Cl  0  0  0  0  0  0  0  0  0  0  0  0
   41.7590   82.2560   56.8830 C   0  0  0  0  0  0  0  0  0  0  0  0
   39.3330   80.8940   59.4190 H   0  0  0  0  0  0  0  0  0  0  0  0
   39.1530   80.1070   57.0700 H   0  0  0  0  0  0  0  0  0  0  0  0
   41.9300   82.1270   61.4700 C   0  0  0  0  0  0  0  0  0  0  0  0
   41.0680   82.6420   60.4680 C   0  0  0  0  0  0  0  0  0  0  0  0
   40.2520   83.6870   60.8240 C   0  0  0  0  0  0  0  0  0  0  0  0
   40.3270   84.1530   62.1000 N   0  0  0  0  0  0  0  0  0  0  0  0
   41.1430   83.6560   63.0240 C   0  0  0  0  0  0  0  0  0  0  0  0
   41.9650   82.6200   62.7060 N   0  0  0  0  0  0  0  0  0  0  0  0
   42.5560   81.2960   61.1350 H   0  0  0  0  0  0  0  0  0  0  0  0
   39.5350   84.1940   60.1670 H   0  0  0  0  0  0  0  0  0  0  0  0
   41.0890   84.2890   64.3640 C   0  0  0  0  0  0  0  0  0  0  0  0
   40.7750   85.6280   64.2830 F   0  0  0  0  0  0  0  0  0  0  0  0
   40.1370   83.6620   65.1480 F   0  0  0  0  0  0  0  0  0  0  0  0
   42.3240   84.2500   65.0050 F   0  0  0  0  0  0  0  0  0  0  0  0
   42.6140   82.7120   55.8950 O   0  0  0  0  0  0  0  0  0  0  0  0
   42.4090   83.8870   55.1460 C   0  0  0  0  0  0  0  0  0  0  0  0
   41.4570   83.7680   54.5960 H   0  0  0  0  0  0  0  0  0  0  0  0
   42.2480   84.7620   55.8100 H   0  0  0  0  0  0  0  0  0  0  0  0
   43.5540   83.8430   52.8300 C   0  0  0  0  0  0  0  0  0  0  0  0
   43.4970   84.0770   54.1830 C   0  0  0  0  0  0  0  0  0  0  0  0
   44.7050   84.6090   54.6690 C   0  0  0  0  0  0  0  0  0  0  0  0
   44.7700   84.8320   55.7400 H   0  0  0  0  0  0  0  0  0  0  0  0
   45.8390   84.8870   53.9350 C   0  0  0  0  0  0  0  0  0  0  0  0
   46.7060   85.2950   54.4310 H   0  0  0  0  0  0  0  0  0  0  0  0
   45.8120   84.6250   52.5860 C   0  0  0  0  0  3  0  0  0  0  0  0
   44.6650   84.1060   52.0600 C   0  0  0  0  0  3  0  0  0  0  0  0
   41.0050   83.4090   52.8930 H   0  0  0  0  0  0  0  0  0  0  0  0
   42.1010   83.1540   52.1350 S   0  0  0  0  0  0  0  0  0  0  0  0
   41.8430   83.8600   50.8080 O   0  0  0  0  0  0  0  0  0  0  0  0
   42.2910   81.7150   51.7710 O   0  0  0  0  0  0  0  0  0  0  0  0
  2  1  1  0  0  0  0
  2  3  1  0  0  0  0
  3 12  1  0  0  0  0
  4  3  2  0  0  0  0
  4  9  1  0  0  0  0
  5  4  1  0  0  0  0
  6  8  1  0  0  0  0
  6  5  2  0  0  0  0
  7  6  1  0  0  0  0
  8  2  2  0  0  0  0
 10  5  1  0  0  0  0
 11 16  1  0  0  0  0
 12 13  1  0  0  0  0
 12 11  2  0  0  0  0
 13 14  2  0  0  0  0
 14 15  1  0  0  0  0
 15 19  1  0  0  0  0
 16 15  2  0  0  0  0
 17 11  1  0  0  0  0
 18 13  1  0  0  0  0
 19 22  1  0  0  0  0
 19 21  1  0  0  0  0
 20 19  1  0  0  0  0
 23  8  1  0  0  0  0
 24 26  1  0  0  0  0
 24 23  1  0  0  0  0
 25 24  1  0  0  0  0
 27 28  1  0  0  0  0
 28 29  2  0  0  0  0
 28 24  1  0  0  0  0
 29 30  1  0  0  0  0
 31 32  1  0  0  0  0
 31 29  1  0  0  0  0
 33 31  2  0  0  0  0
 34 33  1  0  0  0  0
 34 27  2  0  0  0  0
 36 27  1  0  0  0  0
 36 35  1  0  0  0  0
 37 36  2  0  0  0  0
 38 36  2  0  0  0  0
M  END
>  <minimizedAffinity>
-4.87213993

>  <minimizedRMSD>
1.25823045

$$$$
