
 OpenBabel03212520203D

 39 41  0  0  0  0  0  0  0  0999 V2000
   43.1280   83.9640   58.5950 Cl  0  0  0  0  0  0  0  0  0  0  0  0
   41.8910   82.7660   58.2040 C   0  0  0  0  0  0  0  0  0  0  0  0
   41.0250   82.2380   59.1520 C   0  0  0  0  0  0  0  0  0  0  0  0
   40.1240   81.3150   58.6720 C   0  0  0  0  0  0  0  0  0  0  0  0
   39.9910   80.8690   57.3830 C   0  0  0  0  0  0  0  0  0  0  0  0
   40.8680   81.4210   56.4900 C   0  0  0  0  0  0  0  0  0  0  0  0
   40.8140   80.9420   54.7910 Cl  0  0  0  0  0  0  0  0  0  0  0  0
   41.8060   82.3560   56.8900 C   0  0  0  0  0  0  0  0  0  0  0  0
   39.4460   80.9060   59.4330 H   0  0  0  0  0  0  0  0  0  0  0  0
   39.2700   80.1500   57.0750 H   0  0  0  0  0  0  0  0  0  0  0  0
   41.9690   82.1690   61.5080 C   0  0  0  0  0  0  0  0  0  0  0  0
   41.1290   82.6720   60.4940 C   0  0  0  0  0  0  0  0  0  0  0  0
   40.2860   83.7300   60.8390 C   0  0  0  0  0  0  0  0  0  0  0  0
   40.3590   84.1760   62.1320 N   0  0  0  0  0  0  0  0  0  0  0  0
   41.1620   83.6810   63.0620 C   0  0  0  0  0  0  0  0  0  0  0  0
   41.9830   82.6570   62.7410 N   0  0  0  0  0  0  0  0  0  0  0  0
   42.6030   81.3470   61.1820 H   0  0  0  0  0  0  0  0  0  0  0  0
   39.5930   84.2080   60.1580 H   0  0  0  0  0  0  0  0  0  0  0  0
   41.0740   84.3180   64.3910 C   0  0  0  0  0  0  0  0  0  0  0  0
   40.7350   85.6470   64.3250 F   0  0  0  0  0  0  0  0  0  0  0  0
   40.1140   83.6640   65.1710 F   0  0  0  0  0  0  0  0  0  0  0  0
   42.3240   84.2700   65.0470 F   0  0  0  0  0  0  0  0  0  0  0  0
   42.6670   82.8800   55.9390 O   0  0  0  0  0  0  0  0  0  0  0  0
   42.3760   83.9920   55.1460 C   0  0  0  0  0  0  0  0  0  0  0  0
   42.1110   83.7620   54.1090 H   0  0  0  0  0  0  0  0  0  0  0  0
   41.4940   84.4960   55.6400 H   0  0  0  0  0  0  0  0  0  0  0  0
   43.4710   84.8640   55.2730 O   0  0  0  0  0  0  0  0  0  0  0  0
   45.7480   84.9920   55.2600 C   0  0  0  0  0  0  0  0  0  0  0  0
   44.6250   84.5320   54.5730 C   0  0  0  0  0  0  0  0  0  0  0  0
   44.8060   83.8600   53.3810 C   0  0  0  0  0  0  0  0  0  0  0  0
   43.8620   83.5590   52.9530 H   0  0  0  0  0  0  0  0  0  0  0  0
   46.0590   83.6560   52.8950 C   0  0  0  0  0  0  0  0  0  0  0  0
   46.1380   83.1260   51.9630 H   0  0  0  0  0  0  0  0  0  0  0  0
   47.1960   84.0930   53.5400 C   0  0  0  0  0  3  0  0  0  0  0  0
   47.0250   84.7660   54.7320 C   0  0  0  0  0  3  0  0  0  0  0  0
   44.8500   85.2790   57.6660 H   0  0  0  0  0  0  0  0  0  0  0  0
   45.7460   85.8630   56.7800 S   0  0  0  0  0  0  0  0  0  0  0  0
   45.4320   87.3260   56.5880 O   0  0  0  0  0  0  0  0  0  0  0  0
   47.1000   85.7810   57.4240 O   0  0  0  0  0  0  0  0  0  0  0  0
  2  1  1  0  0  0  0
  2  3  1  0  0  0  0
  3 12  1  0  0  0  0
  4  3  2  0  0  0  0
  4  9  1  0  0  0  0
  5  4  1  0  0  0  0
  6  8  1  0  0  0  0
  6  5  2  0  0  0  0
  7  6  1  0  0  0  0
  8  2  2  0  0  0  0
 10  5  1  0  0  0  0
 11 16  1  0  0  0  0
 12 13  1  0  0  0  0
 12 11  2  0  0  0  0
 13 14  2  0  0  0  0
 14 15  1  0  0  0  0
 15 19  1  0  0  0  0
 16 15  2  0  0  0  0
 17 11  1  0  0  0  0
 18 13  1  0  0  0  0
 19 22  1  0  0  0  0
 19 21  1  0  0  0  0
 20 19  1  0  0  0  0
 23  8  1  0  0  0  0
 24 27  1  0  0  0  0
 24 26  1  0  0  0  0
 24 23  1  0  0  0  0
 25 24  1  0  0  0  0
 28 37  1  0  0  0  0
 29 28  2  0  0  0  0
 29 27  1  0  0  0  0
 30 29  1  0  0  0  0
 31 30  1  0  0  0  0
 32 30  2  0  0  0  0
 32 34  1  0  0  0  0
 33 32  1  0  0  0  0
 34 35  2  0  0  0  0
 35 28  1  0  0  0  0
 37 39  2  0  0  0  0
 37 36  1  0  0  0  0
 38 37  2  0  0  0  0
M  END
>  <minimizedAffinity>
-4.95407438

>  <minimizedRMSD>
0.662496686

$$$$
