
 OpenBabel03212520203D

 39 41  0  0  0  0  0  0  0  0999 V2000
   43.1810   83.9770   58.6230 Cl  0  0  0  0  0  0  0  0  0  0  0  0
   41.9360   82.7940   58.2130 C   0  0  0  0  0  0  0  0  0  0  0  0
   41.0550   82.2710   59.1500 C   0  0  0  0  0  0  0  0  0  0  0  0
   40.1490   81.3590   58.6570 C   0  0  0  0  0  0  0  0  0  0  0  0
   40.0250   80.9200   57.3640 C   0  0  0  0  0  0  0  0  0  0  0  0
   40.9160   81.4670   56.4830 C   0  0  0  0  0  0  0  0  0  0  0  0
   40.8750   80.9970   54.7820 Cl  0  0  0  0  0  0  0  0  0  0  0  0
   41.8600   82.3910   56.8970 C   0  0  0  0  0  0  0  0  0  0  0  0
   39.4590   80.9540   59.4090 H   0  0  0  0  0  0  0  0  0  0  0  0
   39.2990   80.2100   57.0460 H   0  0  0  0  0  0  0  0  0  0  0  0
   41.9820   82.1870   61.5130 C   0  0  0  0  0  0  0  0  0  0  0  0
   41.1500   82.6970   60.4950 C   0  0  0  0  0  0  0  0  0  0  0  0
   40.3060   83.7550   60.8400 C   0  0  0  0  0  0  0  0  0  0  0  0
   40.3700   84.1940   62.1350 N   0  0  0  0  0  0  0  0  0  0  0  0
   41.1660   83.6920   63.0680 C   0  0  0  0  0  0  0  0  0  0  0  0
   41.9870   82.6690   62.7490 N   0  0  0  0  0  0  0  0  0  0  0  0
   42.6170   81.3660   61.1870 H   0  0  0  0  0  0  0  0  0  0  0  0
   39.6180   84.2370   60.1570 H   0  0  0  0  0  0  0  0  0  0  0  0
   41.0700   84.3220   64.4000 C   0  0  0  0  0  0  0  0  0  0  0  0
   40.7220   85.6500   64.3400 F   0  0  0  0  0  0  0  0  0  0  0  0
   40.1100   83.6590   65.1740 F   0  0  0  0  0  0  0  0  0  0  0  0
   42.3170   84.2780   65.0610 F   0  0  0  0  0  0  0  0  0  0  0  0
   42.7360   82.9100   55.9570 O   0  0  0  0  0  0  0  0  0  0  0  0
   42.4600   84.0220   55.1590 C   0  0  0  0  0  0  0  0  0  0  0  0
   42.2190   83.7930   54.1160 H   0  0  0  0  0  0  0  0  0  0  0  0
   41.5670   84.5240   55.6340 H   0  0  0  0  0  0  0  0  0  0  0  0
   43.5510   84.8970   55.3110 O   0  0  0  0  0  0  0  0  0  0  0  0
   45.2600   84.5840   53.8340 C   0  0  0  0  0  0  0  0  0  0  0  0
   44.8200   84.3570   55.1370 C   0  0  0  0  0  0  0  0  0  0  0  0
   45.6470   83.6780   56.0080 C   0  0  0  0  0  0  0  0  0  0  0  0
   45.1920   83.5670   56.9800 H   0  0  0  0  0  0  0  0  0  0  0  0
   46.8670   83.2420   55.5910 C   0  0  0  0  0  0  0  0  0  0  0  0
   47.4670   82.7180   56.3140 H   0  0  0  0  0  0  0  0  0  0  0  0
   47.3420   83.4430   54.3140 C   0  0  0  0  0  3  0  0  0  0  0  0
   46.5200   84.1220   53.4370 C   0  0  0  0  0  3  0  0  0  0  0  0
   43.6100   86.4410   53.1230 H   0  0  0  0  0  0  0  0  0  0  0  0
   44.3750   85.4200   52.5750 S   0  0  0  0  0  0  0  0  0  0  0  0
   43.5130   84.4770   51.7730 O   0  0  0  0  0  0  0  0  0  0  0  0
   45.3310   86.0710   51.6150 O   0  0  0  0  0  0  0  0  0  0  0  0
  2  1  1  0  0  0  0
  2  3  1  0  0  0  0
  3 12  1  0  0  0  0
  4  3  2  0  0  0  0
  4  9  1  0  0  0  0
  5  4  1  0  0  0  0
  6  8  1  0  0  0  0
  6  5  2  0  0  0  0
  7  6  1  0  0  0  0
  8  2  2  0  0  0  0
 10  5  1  0  0  0  0
 11 16  1  0  0  0  0
 12 13  1  0  0  0  0
 12 11  2  0  0  0  0
 13 14  2  0  0  0  0
 14 15  1  0  0  0  0
 15 19  1  0  0  0  0
 16 15  2  0  0  0  0
 17 11  1  0  0  0  0
 18 13  1  0  0  0  0
 19 22  1  0  0  0  0
 19 21  1  0  0  0  0
 20 19  1  0  0  0  0
 23  8  1  0  0  0  0
 24 27  1  0  0  0  0
 24 26  1  0  0  0  0
 24 23  1  0  0  0  0
 25 24  1  0  0  0  0
 28 29  1  0  0  0  0
 29 27  1  0  0  0  0
 29 30  2  0  0  0  0
 30 31  1  0  0  0  0
 32 30  1  0  0  0  0
 32 33  1  0  0  0  0
 34 32  2  0  0  0  0
 35 28  2  0  0  0  0
 35 34  1  0  0  0  0
 37 36  1  0  0  0  0
 37 28  1  0  0  0  0
 38 37  2  0  0  0  0
 39 37  2  0  0  0  0
M  END
>  <minimizedAffinity>
-4.73962021

>  <minimizedRMSD>
0.897508204

$$$$
