
 OpenBabel03212520203D

 39 41  0  0  0  0  0  0  0  0999 V2000
   43.2860   83.9310   58.7400 Cl  0  0  0  0  0  0  0  0  0  0  0  0
   42.0010   82.8080   58.2850 C   0  0  0  0  0  0  0  0  0  0  0  0
   41.0720   82.3180   59.1930 C   0  0  0  0  0  0  0  0  0  0  0  0
   40.1400   81.4530   58.6660 C   0  0  0  0  0  0  0  0  0  0  0  0
   40.0320   81.0310   57.3670 C   0  0  0  0  0  0  0  0  0  0  0  0
   40.9710   81.5440   56.5150 C   0  0  0  0  0  0  0  0  0  0  0  0
   40.9550   81.0900   54.8090 Cl  0  0  0  0  0  0  0  0  0  0  0  0
   41.9430   82.4200   56.9640 C   0  0  0  0  0  0  0  0  0  0  0  0
   39.4120   81.0730   59.3950 H   0  0  0  0  0  0  0  0  0  0  0  0
   39.2840   80.3570   57.0220 H   0  0  0  0  0  0  0  0  0  0  0  0
   41.9120   82.1600   61.5840 C   0  0  0  0  0  0  0  0  0  0  0  0
   41.1480   82.7280   60.5440 C   0  0  0  0  0  0  0  0  0  0  0  0
   40.3620   83.8350   60.8700 C   0  0  0  0  0  0  0  0  0  0  0  0
   40.4110   84.2610   62.1710 N   0  0  0  0  0  0  0  0  0  0  0  0
   41.1420   83.7030   63.1250 C   0  0  0  0  0  0  0  0  0  0  0  0
   41.9070   82.6320   62.8240 N   0  0  0  0  0  0  0  0  0  0  0  0
   42.5040   81.3020   61.2720 H   0  0  0  0  0  0  0  0  0  0  0  0
   39.7300   84.3650   60.1690 H   0  0  0  0  0  0  0  0  0  0  0  0
   41.0410   84.3290   64.4590 C   0  0  0  0  0  0  0  0  0  0  0  0
   40.6700   85.6510   64.4020 F   0  0  0  0  0  0  0  0  0  0  0  0
   40.0970   83.6480   65.2360 F   0  0  0  0  0  0  0  0  0  0  0  0
   42.2920   84.3060   65.1130 F   0  0  0  0  0  0  0  0  0  0  0  0
   42.8680   82.9060   56.0530 O   0  0  0  0  0  0  0  0  0  0  0  0
   42.6530   84.0200   55.2370 C   0  0  0  0  0  0  0  0  0  0  0  0
   42.5670   83.7980   54.1690 H   0  0  0  0  0  0  0  0  0  0  0  0
   41.6810   84.4740   55.5910 H   0  0  0  0  0  0  0  0  0  0  0  0
   43.6710   84.9380   55.5480 O   0  0  0  0  0  0  0  0  0  0  0  0
   45.9070   85.3110   55.8010 C   0  0  0  0  0  0  0  0  0  0  0  0
   44.9340   84.6780   55.0290 C   0  0  0  0  0  0  0  0  0  0  0  0
   45.3340   83.9360   53.9360 C   0  0  0  0  0  0  0  0  0  0  0  0
   44.4890   83.5010   53.4250 H   0  0  0  0  0  0  0  0  0  0  0  0
   46.6550   83.8320   53.6280 C   0  0  0  0  0  0  0  0  0  0  0  0
   46.9060   83.2400   52.7660 H   0  0  0  0  0  0  0  0  0  0  0  0
   47.6490   84.4390   54.3630 C   0  0  0  0  0  0  0  0  0  0  0  0
   47.2580   85.1830   55.4580 C   0  0  0  0  0  0  0  0  0  0  0  0
   44.6470   85.7110   58.0210 H   0  0  0  0  0  0  0  0  0  0  0  0
   45.6200   86.2960   57.2220 S   0  0  0  0  0  0  0  0  0  0  0  0
   45.2370   87.7090   56.8580 O   0  0  0  0  0  0  0  0  0  0  0  0
   46.8670   86.3760   58.0550 O   0  0  0  0  0  0  0  0  0  0  0  0
  2  1  1  0  0  0  0
  2  3  1  0  0  0  0
  3 12  1  0  0  0  0
  4  3  2  0  0  0  0
  4  9  1  0  0  0  0
  5  4  1  0  0  0  0
  6  8  1  0  0  0  0
  6  5  2  0  0  0  0
  7  6  1  0  0  0  0
  8  2  2  0  0  0  0
 10  5  1  0  0  0  0
 11 16  1  0  0  0  0
 12 13  1  0  0  0  0
 12 11  2  0  0  0  0
 13 14  2  0  0  0  0
 14 15  1  0  0  0  0
 15 19  1  0  0  0  0
 16 15  2  0  0  0  0
 17 11  1  0  0  0  0
 18 13  1  0  0  0  0
 19 22  1  0  0  0  0
 19 21  1  0  0  0  0
 20 19  1  0  0  0  0
 23  8  1  0  0  0  0
 24 27  1  0  0  0  0
 24 26  1  0  0  0  0
 24 23  1  0  0  0  0
 25 24  1  0  0  0  0
 28 37  1  0  0  0  0
 29 27  1  0  0  0  0
 29 28  2  0  0  0  0
 30 29  1  0  0  0  0
 31 30  1  0  0  0  0
 32 30  2  0  0  0  0
 32 34  1  0  0  0  0
 33 32  1  0  0  0  0
 34 35  2  0  0  0  0
 35 28  1  0  0  0  0
 37 36  1  0  0  0  0
 37 39  2  0  0  0  0
 38 37  2  0  0  0  0
M  END
>  <minimizedAffinity>
-4.99321318

>  <minimizedRMSD>
0.615844429

$$$$
