
 OpenBabel03212520203D

 39 41  0  0  0  0  0  0  0  0999 V2000
   43.2870   83.9350   58.7380 Cl  0  0  0  0  0  0  0  0  0  0  0  0
   42.0020   82.8120   58.2850 C   0  0  0  0  0  0  0  0  0  0  0  0
   41.0740   82.3200   59.1930 C   0  0  0  0  0  0  0  0  0  0  0  0
   40.1420   81.4540   58.6670 C   0  0  0  0  0  0  0  0  0  0  0  0
   40.0330   81.0320   57.3680 C   0  0  0  0  0  0  0  0  0  0  0  0
   40.9720   81.5460   56.5150 C   0  0  0  0  0  0  0  0  0  0  0  0
   40.9560   81.0910   54.8090 Cl  0  0  0  0  0  0  0  0  0  0  0  0
   41.9440   82.4230   56.9630 C   0  0  0  0  0  0  0  0  0  0  0  0
   39.4150   81.0740   59.3960 H   0  0  0  0  0  0  0  0  0  0  0  0
   39.2860   80.3570   57.0230 H   0  0  0  0  0  0  0  0  0  0  0  0
   41.9250   82.1720   61.5800 C   0  0  0  0  0  0  0  0  0  0  0  0
   41.1500   82.7310   60.5430 C   0  0  0  0  0  0  0  0  0  0  0  0
   40.3530   83.8290   60.8730 C   0  0  0  0  0  0  0  0  0  0  0  0
   40.4010   84.2550   62.1740 N   0  0  0  0  0  0  0  0  0  0  0  0
   41.1420   83.7050   63.1250 C   0  0  0  0  0  0  0  0  0  0  0  0
   41.9180   82.6430   62.8200 N   0  0  0  0  0  0  0  0  0  0  0  0
   42.5260   81.3210   61.2660 H   0  0  0  0  0  0  0  0  0  0  0  0
   39.7110   84.3510   60.1740 H   0  0  0  0  0  0  0  0  0  0  0  0
   41.0390   84.3290   64.4590 C   0  0  0  0  0  0  0  0  0  0  0  0
   40.6650   85.6500   64.4040 F   0  0  0  0  0  0  0  0  0  0  0  0
   40.0960   83.6450   65.2350 F   0  0  0  0  0  0  0  0  0  0  0  0
   42.2900   84.3090   65.1140 F   0  0  0  0  0  0  0  0  0  0  0  0
   42.8680   82.9090   56.0520 O   0  0  0  0  0  0  0  0  0  0  0  0
   42.6530   84.0250   55.2390 C   0  0  0  0  0  0  0  0  0  0  0  0
   42.5620   83.8060   54.1710 H   0  0  0  0  0  0  0  0  0  0  0  0
   41.6850   84.4820   55.5980 H   0  0  0  0  0  0  0  0  0  0  0  0
   43.6760   84.9390   55.5470 O   0  0  0  0  0  0  0  0  0  0  0  0
   45.9160   85.3010   55.7810 C   0  0  0  0  0  0  0  0  0  0  0  0
   44.9320   84.6840   55.0100 C   0  0  0  0  0  0  0  0  0  0  0  0
   45.3180   83.9580   53.9010 C   0  0  0  0  0  0  0  0  0  0  0  0
   44.4660   83.5330   53.3930 H   0  0  0  0  0  0  0  0  0  0  0  0
   46.6350   83.8530   53.5770 C   0  0  0  0  0  0  0  0  0  0  0  0
   46.8740   83.2750   52.7020 H   0  0  0  0  0  0  0  0  0  0  0  0
   47.6390   84.4460   54.3100 C   0  0  0  0  0  3  0  0  0  0  0  0
   47.2630   85.1740   55.4200 C   0  0  0  0  0  3  0  0  0  0  0  0
   44.7160   85.6460   58.0440 H   0  0  0  0  0  0  0  0  0  0  0  0
   45.6480   86.2640   57.2200 S   0  0  0  0  0  0  0  0  0  0  0  0
   45.2160   87.6690   56.8830 O   0  0  0  0  0  0  0  0  0  0  0  0
   46.9180   86.3700   58.0150 O   0  0  0  0  0  0  0  0  0  0  0  0
  2  1  1  0  0  0  0
  2  3  1  0  0  0  0
  3 12  1  0  0  0  0
  4  3  2  0  0  0  0
  4  9  1  0  0  0  0
  5  4  1  0  0  0  0
  6  8  1  0  0  0  0
  6  5  2  0  0  0  0
  7  6  1  0  0  0  0
  8  2  2  0  0  0  0
 10  5  1  0  0  0  0
 11 16  1  0  0  0  0
 12 13  1  0  0  0  0
 12 11  2  0  0  0  0
 13 14  2  0  0  0  0
 14 15  1  0  0  0  0
 15 19  1  0  0  0  0
 16 15  2  0  0  0  0
 17 11  1  0  0  0  0
 18 13  1  0  0  0  0
 19 22  1  0  0  0  0
 19 21  1  0  0  0  0
 20 19  1  0  0  0  0
 23  8  1  0  0  0  0
 24 27  1  0  0  0  0
 24 26  1  0  0  0  0
 24 23  1  0  0  0  0
 25 24  1  0  0  0  0
 28 37  1  0  0  0  0
 29 27  1  0  0  0  0
 29 28  2  0  0  0  0
 30 29  1  0  0  0  0
 31 30  1  0  0  0  0
 32 30  2  0  0  0  0
 32 34  1  0  0  0  0
 33 32  1  0  0  0  0
 34 35  2  0  0  0  0
 35 28  1  0  0  0  0
 37 39  2  0  0  0  0
 37 36  1  0  0  0  0
 38 37  2  0  0  0  0
M  END
>  <minimizedAffinity>
-4.98889971

>  <minimizedRMSD>
0.541449964

$$$$
