
 OpenBabel03212520403D

 30 32  0  0  1  0  0  0  0  0999 V2000
   42.2480   85.5100   59.7450 C   0  0  1  0  0  0  0  0  0  0  0  0
   43.4870   86.1810   59.1550 C   0  0  0  0  0  0  0  0  0  0  0  0
   42.5170   85.3680   58.3050 C   0  0  1  0  0  0  0  0  0  0  0  0
   41.5260   86.2450   60.1490 H   0  0  0  0  0  0  0  0  0  0  0  0
   43.4780   87.2780   59.0100 H   0  0  0  0  0  0  0  0  0  0  0  0
   44.4720   85.7320   59.2750 H   0  0  0  0  0  0  0  0  0  0  0  0
   41.8890   85.9610   57.6210 H   0  0  0  0  0  0  0  0  0  0  0  0
   42.6080   84.4510   60.6220 O   0  0  0  0  0  0  0  0  0  0  0  0
   40.0750   83.5790   63.0560 C   0  0  0  0  0  0  0  0  0  0  0  0
   40.7330   83.8430   64.2570 C   0  0  0  0  0  0  0  0  0  0  0  0
   42.0610   84.3260   64.1950 C   0  0  0  0  0  0  0  0  0  0  0  0
   42.5810   84.4900   62.9500 N   0  0  0  0  0  0  0  0  0  0  0  0
   41.9350   84.2300   61.8030 C   0  0  0  0  0  0  0  0  0  0  0  0
   40.6880   83.7760   61.8340 N   0  0  0  0  0  0  0  0  0  0  0  0
   39.0450   83.2030   63.0560 H   0  0  0  0  0  0  0  0  0  0  0  0
   40.2540   83.6890   65.2070 H   0  0  0  0  0  0  0  0  0  0  0  0
   42.6220   84.5500   65.0910 H   0  0  0  0  0  0  0  0  0  0  0  0
   42.9180   84.1070   57.8660 O   0  0  0  0  0  0  0  0  0  0  0  0
   41.7580   82.4320   56.7160 C   0  0  0  0  0  0  0  0  0  0  0  0
   42.6430   83.4910   56.6830 C   0  0  0  0  0  0  0  0  0  0  0  0
   43.2250   83.9110   55.5240 C   0  0  0  0  0  0  0  0  0  0  0  0
   43.9150   84.7230   55.4480 H   0  0  0  0  0  0  0  0  0  0  0  0
   42.8800   83.2160   54.3700 C   0  0  0  0  0  0  0  0  0  0  0  0
   43.3390   83.5440   53.4340 H   0  0  0  0  0  0  0  0  0  0  0  0
   42.0080   82.1510   54.3030 C   0  0  0  0  0  3  0  0  0  0  0  0
   41.4630   81.7890   55.5240 C   0  0  0  0  0  3  0  0  0  0  0  0
   42.0080   81.7520   59.1800 H   0  0  0  0  0  0  0  0  0  0  0  0
   41.0340   81.9250   58.2230 S   0  0  0  0  0  0  0  0  0  0  0  0
   40.3820   80.5800   58.0540 O   0  0  0  0  0  0  0  0  0  0  0  0
   39.9960   82.8900   58.7160 O   0  0  0  0  0  0  0  0  0  0  0  0
  1  4  1  1  0  0  0
  1  8  1  0  0  0  0
  2  6  1  0  0  0  0
  2  1  1  0  0  0  0
  3  7  1  6  0  0  0
  3  2  1  0  0  0  0
  3  1  1  0  0  0  0
  5  2  1  0  0  0  0
  8 13  1  0  0  0  0
  9 10  1  0  0  0  0
 10 16  1  0  0  0  0
 11 10  2  0  0  0  0
 11 17  1  0  0  0  0
 12 11  1  0  0  0  0
 13 14  1  0  0  0  0
 13 12  2  0  0  0  0
 14  9  2  0  0  0  0
 15  9  1  0  0  0  0
 18  3  1  0  0  0  0
 19 28  1  0  0  0  0
 20 19  1  0  0  0  0
 20 18  1  0  0  0  0
 21 20  2  0  0  0  0
 22 21  1  0  0  0  0
 23 21  1  0  0  0  0
 24 23  1  0  0  0  0
 25 23  2  0  0  0  0
 25 26  1  0  0  0  0
 26 19  2  0  0  0  0
 28 30  2  0  0  0  0
 28 27  1  0  0  0  0
 29 28  2  0  0  0  0
M  END
>  <minimizedAffinity>
-4.12809944

>  <minimizedRMSD>
1.57435644

$$$$
