
 OpenBabel03212520593D

 45 49  0  0  1  0  0  0  0  0999 V2000
   39.6700   77.1860   59.4170 C   0  0  0  0  0  0  0  0  0  0  0  0
   40.1550   75.9160   59.3490 C   0  0  0  0  0  0  0  0  0  0  0  0
   39.5830   75.1830   58.2960 C   0  0  0  0  0  0  0  0  0  0  0  0
   38.6590   75.6730   57.4460 N   0  0  0  0  0  0  0  0  0  0  0  0
   38.2420   76.9630   57.6070 C   0  0  0  0  0  0  0  0  0  0  0  0
   38.7500   77.7250   58.5980 N   0  0  0  0  0  0  0  0  0  0  0  0
   40.8930   75.4830   60.0060 H   0  0  0  0  0  0  0  0  0  0  0  0
   39.8790   74.1500   58.1220 H   0  0  0  0  0  0  0  0  0  0  0  0
   40.9730   80.2190   61.8120 C   0  0  0  0  0  0  0  0  0  0  0  0
   41.0010   79.0070   62.4530 C   0  0  0  0  0  0  0  0  0  0  0  0
   40.5940   77.9180   61.7700 C   0  0  0  0  0  0  0  0  0  0  0  0
   40.1680   78.0650   60.4570 C   0  0  0  0  0  0  0  0  0  0  0  0
   40.3460   79.8700   60.1430 S   0  0  0  0  0  0  0  0  0  0  0  0
   41.3360   78.8940   63.4850 H   0  0  0  0  0  0  0  0  0  0  0  0
   40.5390   76.8860   62.0850 H   0  0  0  0  0  0  0  0  0  0  0  0
   43.0890   83.0580   62.7920 C   0  0  0  0  0  0  0  0  0  0  0  0
   42.2100   83.8500   63.5630 C   0  0  0  0  0  0  0  0  0  0  0  0
   40.9010   83.4190   63.7420 C   0  0  0  0  0  0  0  0  0  0  0  0
   40.5160   82.2510   63.1690 N   0  0  0  0  0  0  0  0  0  0  0  0
   41.3870   81.5050   62.4290 C   0  0  0  0  0  0  0  0  0  0  0  0
   42.6450   81.9170   62.2560 N   0  0  0  0  0  0  0  0  0  0  0  0
   44.1110   83.3760   62.6410 H   0  0  0  0  0  0  0  0  0  0  0  0
   42.5460   84.7700   64.0030 H   0  0  0  0  0  0  0  0  0  0  0  0
   40.1960   84.0030   64.3290 H   0  0  0  0  0  0  0  0  0  0  0  0
   37.2520   77.4690   56.6770 C   0  0  0  0  0  0  0  0  0  0  0  0
   36.1080   76.9930   56.7410 O   0  0  0  0  0  0  0  0  0  0  0  0
   37.5770   78.5260   55.6540 C   0  0  1  0  0  0  0  0  0  0  0  0
   37.2590   79.9250   56.1210 C   0  0  0  0  0  0  0  0  0  0  0  0
   38.6320   79.4870   55.9170 C   0  0  2  0  0  0  0  0  0  0  0  0
   37.0940   78.2980   54.6690 H   0  0  0  0  0  0  0  0  0  0  0  0
   36.8910   80.0500   57.1870 H   0  0  0  0  0  0  0  0  0  0  0  0
   36.6270   80.5010   55.4370 H   0  0  0  0  0  0  0  0  0  0  0  0
   39.2190   79.3410   56.8850 H   0  0  0  0  0  0  0  0  0  0  0  0
   39.4790   79.5280   53.4470 C   0  0  0  0  0  0  0  0  0  0  0  0
   39.4950   79.8400   54.7830 C   0  0  0  0  0  0  0  0  0  0  0  0
   40.5500   80.6500   55.2260 C   0  0  0  0  0  0  0  0  0  0  0  0
   40.7410   81.0100   56.2490 H   0  0  0  0  0  0  0  0  0  0  0  0
   41.5300   81.1090   54.3450 C   0  0  0  0  0  0  0  0  0  0  0  0
   42.3610   81.7340   54.6370 H   0  0  0  0  0  0  0  0  0  0  0  0
   41.4830   80.7760   53.0150 C   0  0  0  0  0  3  0  0  0  0  0  0
   40.4450   79.9810   52.5780 C   0  0  0  0  0  3  0  0  0  0  0  0
   37.1270   78.4870   53.8720 H   0  0  0  0  0  0  0  0  0  0  0  0
   38.1270   78.5460   52.9720 S   0  0  0  0  0  0  0  0  0  0  0  0
   38.6650   77.2020   52.5440 O   0  0  0  0  0  0  0  0  0  0  0  0
   37.5180   79.1330   51.6980 O   0  0  0  0  0  0  0  0  0  0  0  0
  1 12  1  0  0  0  0
  2  1  1  0  0  0  0
  2  7  1  0  0  0  0
  3  2  2  0  0  0  0
  4  5  2  0  0  0  0
  4  3  1  0  0  0  0
  5  6  1  0  0  0  0
  6  1  2  0  0  0  0
  8  3  1  0  0  0  0
  9 20  1  0  0  0  0
  9 10  2  0  0  0  0
 10 14  1  0  0  0  0
 11 15  1  0  0  0  0
 11 10  1  0  0  0  0
 12 11  2  0  0  0  0
 13 12  1  0  0  0  0
 13  9  1  0  0  0  0
 16 17  1  0  0  0  0
 17 18  2  0  0  0  0
 17 23  1  0  0  0  0
 18 24  1  0  0  0  0
 19 18  1  0  0  0  0
 20 19  2  0  0  0  0
 21 20  1  0  0  0  0
 21 16  2  0  0  0  0
 22 16  1  0  0  0  0
 25 26  2  0  0  0  0
 25  5  1  0  0  0  0
 27 30  1  6  0  0  0
 27 29  1  0  0  0  0
 27 28  1  0  0  0  0
 27 25  1  0  0  0  0
 28 31  1  0  0  0  0
 29 28  1  0  0  0  0
 29 33  1  1  0  0  0
 32 28  1  0  0  0  0
 34 35  1  0  0  0  0
 35 36  2  0  0  0  0
 35 29  1  0  0  0  0
 36 37  1  0  0  0  0
 38 39  1  0  0  0  0
 38 36  1  0  0  0  0
 40 38  2  0  0  0  0
 41 40  1  0  0  0  0
 41 34  2  0  0  0  0
 43 34  1  0  0  0  0
 43 42  1  0  0  0  0
 44 43  2  0  0  0  0
 45 43  2  0  0  0  0
M  END
>  <minimizedAffinity>
-6.58616018

>  <minimizedRMSD>
0.867118597

$$$$
