
 OpenBabel03212520483D

 31 33  0  0  0  0  0  0  0  0999 V2000
   41.6780   83.8790   61.3890 C   0  0  0  0  0  0  0  0  0  0  0  0
   41.3240   84.1780   62.6780 C   0  0  0  0  0  0  0  0  0  0  0  0
   40.7780   83.2030   63.5250 C   0  0  0  0  0  0  0  0  0  0  0  0
   40.5950   81.9380   63.0640 N   0  0  0  0  0  0  0  0  0  0  0  0
   40.9450   81.6600   61.8040 C   0  0  0  0  0  0  0  0  0  0  0  0
   41.4690   82.6190   61.0100 N   0  0  0  0  0  0  0  0  0  0  0  0
   41.4640   85.1780   63.0580 H   0  0  0  0  0  0  0  0  0  0  0  0
   40.5150   83.4870   64.5290 H   0  0  0  0  0  0  0  0  0  0  0  0
   43.7600   86.5890   60.0900 C   0  0  0  0  0  0  0  0  0  0  0  0
   43.2900   86.7110   58.7840 C   0  0  0  0  0  0  0  0  0  0  0  0
   42.2600   85.8650   58.3420 C   0  0  0  0  0  0  0  0  0  0  0  0
   41.7700   84.9560   59.2410 N   0  0  0  0  0  0  0  0  0  0  0  0
   42.2470   84.8690   60.4880 C   0  0  0  0  0  0  0  0  0  0  0  0
   43.2250   85.6710   60.9080 N   0  0  0  0  0  0  0  0  0  0  0  0
   44.7880   87.5080   60.3670 N   0  0  0  0  0  0  0  0  0  0  0  0
   43.6400   87.4120   58.0310 H   0  0  0  0  0  0  0  0  0  0  0  0
   41.8520   85.9110   57.3390 H   0  0  0  0  0  0  0  0  0  0  0  0
   45.6600   87.0730   59.9810 H   0  0  0  0  0  0  0  0  0  0  0  0
   44.7050   88.4430   60.8630 H   0  0  0  0  0  0  0  0  0  0  0  0
   40.4830   79.9260   60.0550 C   0  0  0  0  0  0  0  0  0  0  0  0
   40.7270   80.2900   61.3600 C   0  0  0  0  0  0  0  0  0  0  0  0
   40.7630   79.2730   62.2880 C   0  0  0  0  0  0  0  0  0  0  0  0
   40.9480   79.4430   63.3560 H   0  0  0  0  0  0  0  0  0  0  0  0
   40.5660   77.9310   61.9520 C   0  0  0  0  0  0  0  0  0  0  0  0
   40.6000   77.1550   62.7040 H   0  0  0  0  0  0  0  0  0  0  0  0
   40.3240   77.5860   60.6460 C   0  0  0  0  0  3  0  0  0  0  0  0
   40.2880   78.6080   59.7200 C   0  0  0  0  0  3  0  0  0  0  0  0
   40.0010   82.3070   59.3830 H   0  0  0  0  0  0  0  0  0  0  0  0
   40.4200   81.1350   58.8210 S   0  0  0  0  0  0  0  0  0  0  0  0
   41.7630   81.3770   58.1560 O   0  0  0  0  0  0  0  0  0  0  0  0
   39.4340   80.7440   57.7460 O   0  0  0  0  0  0  0  0  0  0  0  0
  1  2  1  0  0  0  0
  2  7  1  0  0  0  0
  2  3  2  0  0  0  0
  3  8  1  0  0  0  0
  4  3  1  0  0  0  0
  5  4  2  0  0  0  0
  6  1  2  0  0  0  0
  6  5  1  0  0  0  0
  9 15  1  0  0  0  0
  9 14  1  0  0  0  0
 10  9  2  0  0  0  0
 11 10  1  0  0  0  0
 11 12  2  0  0  0  0
 12 13  1  0  0  0  0
 13 14  2  0  0  0  0
 13  1  1  0  0  0  0
 15 19  1  0  0  0  0
 16 10  1  0  0  0  0
 17 11  1  0  0  0  0
 18 15  1  0  0  0  0
 20 21  1  0  0  0  0
 21  5  1  0  0  0  0
 21 22  2  0  0  0  0
 22 23  1  0  0  0  0
 24 22  1  0  0  0  0
 24 25  1  0  0  0  0
 26 24  2  0  0  0  0
 27 20  2  0  0  0  0
 27 26  1  0  0  0  0
 29 28  1  0  0  0  0
 29 20  1  0  0  0  0
 30 29  2  0  0  0  0
 31 29  2  0  0  0  0
M  END
>  <minimizedAffinity>
-5.61418676

>  <minimizedRMSD>
1.26482463

$$$$
