
 OpenBabel03212520513D

 38 41  0  0  1  0  0  0  0  0999 V2000
   41.7020   83.8580   61.4030 C   0  0  0  0  0  0  0  0  0  0  0  0
   41.1310   84.2410   62.5930 C   0  0  0  0  0  0  0  0  0  0  0  0
   40.6880   83.2970   63.5200 C   0  0  0  0  0  0  0  0  0  0  0  0
   40.8150   81.9860   63.2530 N   0  0  0  0  0  0  0  0  0  0  0  0
   41.3810   81.6280   62.0760 C   0  0  0  0  0  0  0  0  0  0  0  0
   41.8160   82.5290   61.1690 N   0  0  0  0  0  0  0  0  0  0  0  0
   41.0270   85.3030   62.8080 H   0  0  0  0  0  0  0  0  0  0  0  0
   40.2440   83.6410   64.4440 H   0  0  0  0  0  0  0  0  0  0  0  0
   43.6250   86.4850   59.7290 C   0  0  0  0  0  0  0  0  0  0  0  0
   42.9400   86.6120   58.5240 C   0  0  0  0  0  0  0  0  0  0  0  0
   41.8340   85.8220   58.2700 C   0  0  0  0  0  0  0  0  0  0  0  0
   41.4840   84.9400   59.2570 N   0  0  0  0  0  0  0  0  0  0  0  0
   42.1600   84.8310   60.4140 C   0  0  0  0  0  0  0  0  0  0  0  0
   43.2220   85.5880   60.6630 N   0  0  0  0  0  0  0  0  0  0  0  0
   44.7330   87.3570   59.8400 N   0  0  0  0  0  0  0  0  0  0  0  0
   43.2020   87.3020   57.7340 H   0  0  0  0  0  0  0  0  0  0  0  0
   41.2810   85.8920   57.3540 H   0  0  0  0  0  0  0  0  0  0  0  0
   44.3500   88.2600   60.1890 H   0  0  0  0  0  0  0  0  0  0  0  0
   45.6190   86.8860   59.5540 H   0  0  0  0  0  0  0  0  0  0  0  0
   41.4780   80.1540   61.8150 C   0  0  1  0  0  0  0  0  0  0  0  0
   40.6900   79.2200   62.5860 C   0  0  0  0  0  0  0  0  0  0  0  0
   40.2230   79.5830   61.2100 C   0  0  2  0  0  0  0  0  0  0  0  0
   42.4510   79.8440   61.4080 H   0  0  0  0  0  0  0  0  0  0  0  0
   41.0780   78.2310   62.8400 H   0  0  0  0  0  0  0  0  0  0  0  0
   40.1200   79.6680   63.4510 H   0  0  0  0  0  0  0  0  0  0  0  0
   39.3300   80.2290   61.1610 H   0  0  0  0  0  0  0  0  0  0  0  0
   40.1110   78.6140   58.9430 C   0  0  0  0  0  0  0  0  0  0  0  0
   40.1790   78.4340   60.3110 C   0  0  0  0  0  0  0  0  0  0  0  0
   40.1990   77.0970   60.7050 C   0  0  0  0  0  0  0  0  0  0  0  0
   40.2520   76.8940   61.7670 H   0  0  0  0  0  0  0  0  0  0  0  0
   40.1590   76.0270   59.8480 C   0  0  0  0  0  0  0  0  0  0  0  0
   40.1760   75.0130   60.1900 H   0  0  0  0  0  0  0  0  0  0  0  0
   40.0910   76.2670   58.4910 C   0  0  0  0  0  3  0  0  0  0  0  0
   40.0680   77.5660   58.0370 C   0  0  0  0  0  3  0  0  0  0  0  0
   39.3970   81.1130   59.1070 H   0  0  0  0  0  0  0  0  0  0  0  0
   40.0790   80.2330   58.3220 S   0  0  0  0  0  0  0  0  0  0  0  0
   41.4760   80.7240   57.9850 O   0  0  0  0  0  0  0  0  0  0  0  0
   39.3390   80.2300   57.0030 O   0  0  0  0  0  0  0  0  0  0  0  0
  1  2  1  0  0  0  0
  2  7  1  0  0  0  0
  2  3  2  0  0  0  0
  3  8  1  0  0  0  0
  4  3  1  0  0  0  0
  5  4  2  0  0  0  0
  6  1  2  0  0  0  0
  6  5  1  0  0  0  0
  9 15  1  0  0  0  0
  9 14  1  0  0  0  0
 10  9  2  0  0  0  0
 11 10  1  0  0  0  0
 11 12  2  0  0  0  0
 12 13  1  0  0  0  0
 13 14  2  0  0  0  0
 13  1  1  0  0  0  0
 15 18  1  0  0  0  0
 16 10  1  0  0  0  0
 17 11  1  0  0  0  0
 19 15  1  0  0  0  0
 20 23  1  6  0  0  0
 20  5  1  0  0  0  0
 20 21  1  0  0  0  0
 21 24  1  0  0  0  0
 21 25  1  0  0  0  0
 22 26  1  6  0  0  0
 22 20  1  0  0  0  0
 22 21  1  0  0  0  0
 27 28  1  0  0  0  0
 28 29  2  0  0  0  0
 28 22  1  0  0  0  0
 29 30  1  0  0  0  0
 31 32  1  0  0  0  0
 31 29  1  0  0  0  0
 33 31  2  0  0  0  0
 34 33  1  0  0  0  0
 34 27  2  0  0  0  0
 36 27  1  0  0  0  0
 36 35  1  0  0  0  0
 37 36  2  0  0  0  0
 38 36  2  0  0  0  0
M  END
>  <minimizedAffinity>
-5.79988623

>  <minimizedRMSD>
0.509606004

$$$$
