
 OpenBabel03212520483D

 31 33  0  0  0  0  0  0  0  0999 V2000
   41.6750   83.8800   61.3840 C   0  0  0  0  0  0  0  0  0  0  0  0
   41.3190   84.1810   62.6720 C   0  0  0  0  0  0  0  0  0  0  0  0
   40.7730   83.2070   63.5210 C   0  0  0  0  0  0  0  0  0  0  0  0
   40.5910   81.9410   63.0610 N   0  0  0  0  0  0  0  0  0  0  0  0
   40.9420   81.6610   61.8020 C   0  0  0  0  0  0  0  0  0  0  0  0
   41.4660   82.6190   61.0060 N   0  0  0  0  0  0  0  0  0  0  0  0
   41.4580   85.1820   63.0500 H   0  0  0  0  0  0  0  0  0  0  0  0
   40.5100   83.4930   64.5240 H   0  0  0  0  0  0  0  0  0  0  0  0
   43.7580   86.5870   60.0810 C   0  0  0  0  0  0  0  0  0  0  0  0
   43.2870   86.7090   58.7750 C   0  0  0  0  0  0  0  0  0  0  0  0
   42.2560   85.8630   58.3350 C   0  0  0  0  0  0  0  0  0  0  0  0
   41.7670   84.9560   59.2350 N   0  0  0  0  0  0  0  0  0  0  0  0
   42.2440   84.8690   60.4810 C   0  0  0  0  0  0  0  0  0  0  0  0
   43.2230   85.6700   60.9010 N   0  0  0  0  0  0  0  0  0  0  0  0
   44.7870   87.5060   60.3570 N   0  0  0  0  0  0  0  0  0  0  0  0
   43.6380   87.4090   58.0220 H   0  0  0  0  0  0  0  0  0  0  0  0
   41.8470   85.9080   57.3320 H   0  0  0  0  0  0  0  0  0  0  0  0
   45.6580   87.0700   59.9710 H   0  0  0  0  0  0  0  0  0  0  0  0
   44.7050   88.4420   60.8520 H   0  0  0  0  0  0  0  0  0  0  0  0
   40.4820   79.9240   60.0550 C   0  0  0  0  0  0  0  0  0  0  0  0
   40.7260   80.2900   61.3600 C   0  0  0  0  0  0  0  0  0  0  0  0
   40.7630   79.2750   62.2900 C   0  0  0  0  0  0  0  0  0  0  0  0
   40.9490   79.4460   63.3570 H   0  0  0  0  0  0  0  0  0  0  0  0
   40.5670   77.9320   61.9560 C   0  0  0  0  0  0  0  0  0  0  0  0
   40.6020   77.1580   62.7090 H   0  0  0  0  0  0  0  0  0  0  0  0
   40.3240   77.5860   60.6490 C   0  0  0  0  0  3  0  0  0  0  0  0
   40.2890   78.6060   59.7230 C   0  0  0  0  0  3  0  0  0  0  0  0
   39.9940   82.3030   59.3800 H   0  0  0  0  0  0  0  0  0  0  0  0
   40.4170   81.1320   58.8200 S   0  0  0  0  0  0  0  0  0  0  0  0
   41.7600   81.3760   58.1570 O   0  0  0  0  0  0  0  0  0  0  0  0
   39.4320   80.7360   57.7450 O   0  0  0  0  0  0  0  0  0  0  0  0
  1  2  1  0  0  0  0
  2  7  1  0  0  0  0
  2  3  2  0  0  0  0
  3  8  1  0  0  0  0
  4  3  1  0  0  0  0
  5  4  2  0  0  0  0
  6  1  2  0  0  0  0
  6  5  1  0  0  0  0
  9 15  1  0  0  0  0
  9 14  1  0  0  0  0
 10  9  2  0  0  0  0
 11 10  1  0  0  0  0
 11 12  2  0  0  0  0
 12 13  1  0  0  0  0
 13 14  2  0  0  0  0
 13  1  1  0  0  0  0
 15 19  1  0  0  0  0
 16 10  1  0  0  0  0
 17 11  1  0  0  0  0
 18 15  1  0  0  0  0
 20 21  1  0  0  0  0
 21  5  1  0  0  0  0
 21 22  2  0  0  0  0
 22 23  1  0  0  0  0
 24 22  1  0  0  0  0
 24 25  1  0  0  0  0
 26 24  2  0  0  0  0
 27 20  2  0  0  0  0
 27 26  1  0  0  0  0
 29 28  1  0  0  0  0
 29 20  1  0  0  0  0
 30 29  2  0  0  0  0
 31 29  2  0  0  0  0
M  END
>  <minimizedAffinity>
-5.60889912

>  <minimizedRMSD>
1.02379155

$$$$
