
 OpenBabel03212520493D

 31 33  0  0  0  0  0  0  0  0999 V2000
   41.6750   83.8790   61.3850 C   0  0  0  0  0  0  0  0  0  0  0  0
   41.3200   84.1790   62.6730 C   0  0  0  0  0  0  0  0  0  0  0  0
   40.7750   83.2050   63.5210 C   0  0  0  0  0  0  0  0  0  0  0  0
   40.5920   81.9400   63.0620 N   0  0  0  0  0  0  0  0  0  0  0  0
   40.9430   81.6600   61.8020 C   0  0  0  0  0  0  0  0  0  0  0  0
   41.4670   82.6180   61.0070 N   0  0  0  0  0  0  0  0  0  0  0  0
   41.4600   85.1800   63.0510 H   0  0  0  0  0  0  0  0  0  0  0  0
   40.5110   83.4910   64.5250 H   0  0  0  0  0  0  0  0  0  0  0  0
   43.7570   86.5870   60.0820 C   0  0  0  0  0  0  0  0  0  0  0  0
   43.2880   86.7080   58.7760 C   0  0  0  0  0  0  0  0  0  0  0  0
   42.2570   85.8610   58.3360 C   0  0  0  0  0  0  0  0  0  0  0  0
   41.7680   84.9540   59.2360 N   0  0  0  0  0  0  0  0  0  0  0  0
   42.2440   84.8680   60.4820 C   0  0  0  0  0  0  0  0  0  0  0  0
   43.2230   85.6690   60.9020 N   0  0  0  0  0  0  0  0  0  0  0  0
   44.7870   87.5060   60.3580 N   0  0  0  0  0  0  0  0  0  0  0  0
   43.6380   87.4080   58.0220 H   0  0  0  0  0  0  0  0  0  0  0  0
   41.8490   85.9060   57.3330 H   0  0  0  0  0  0  0  0  0  0  0  0
   45.6580   87.0700   59.9720 H   0  0  0  0  0  0  0  0  0  0  0  0
   44.7030   88.4420   60.8530 H   0  0  0  0  0  0  0  0  0  0  0  0
   40.4820   79.9230   60.0550 C   0  0  0  0  0  0  0  0  0  0  0  0
   40.7270   80.2890   61.3600 C   0  0  0  0  0  0  0  0  0  0  0  0
   40.7630   79.2730   62.2890 C   0  0  0  0  0  0  0  0  0  0  0  0
   40.9480   79.4440   63.3570 H   0  0  0  0  0  0  0  0  0  0  0  0
   40.5670   77.9310   61.9550 C   0  0  0  0  0  0  0  0  0  0  0  0
   40.6010   77.1560   62.7080 H   0  0  0  0  0  0  0  0  0  0  0  0
   40.3240   77.5840   60.6490 C   0  0  0  0  0  3  0  0  0  0  0  0
   40.2880   78.6060   59.7220 C   0  0  0  0  0  3  0  0  0  0  0  0
   39.9990   82.3030   59.3810 H   0  0  0  0  0  0  0  0  0  0  0  0
   40.4180   81.1300   58.8200 S   0  0  0  0  0  0  0  0  0  0  0  0
   41.7610   81.3730   58.1550 O   0  0  0  0  0  0  0  0  0  0  0  0
   39.4320   80.7380   57.7460 O   0  0  0  0  0  0  0  0  0  0  0  0
  1  2  1  0  0  0  0
  2  7  1  0  0  0  0
  2  3  2  0  0  0  0
  3  8  1  0  0  0  0
  4  3  1  0  0  0  0
  5  4  2  0  0  0  0
  6  1  2  0  0  0  0
  6  5  1  0  0  0  0
  9 15  1  0  0  0  0
  9 14  1  0  0  0  0
 10  9  2  0  0  0  0
 11 10  1  0  0  0  0
 11 12  2  0  0  0  0
 12 13  1  0  0  0  0
 13 14  2  0  0  0  0
 13  1  1  0  0  0  0
 15 19  1  0  0  0  0
 16 10  1  0  0  0  0
 17 11  1  0  0  0  0
 18 15  1  0  0  0  0
 20 21  1  0  0  0  0
 21  5  1  0  0  0  0
 21 22  2  0  0  0  0
 22 23  1  0  0  0  0
 24 22  1  0  0  0  0
 24 25  1  0  0  0  0
 26 24  2  0  0  0  0
 27 20  2  0  0  0  0
 27 26  1  0  0  0  0
 29 28  1  0  0  0  0
 29 20  1  0  0  0  0
 30 29  2  0  0  0  0
 31 29  2  0  0  0  0
M  END
>  <minimizedAffinity>
-5.61149311

>  <minimizedRMSD>
0.862964094

$$$$
