
 OpenBabel03212520593D

 45 49  0  0  1  0  0  0  0  0999 V2000
   39.9570   77.5960   59.1670 C   0  0  0  0  0  0  0  0  0  0  0  0
   40.7600   76.5620   58.7970 C   0  0  0  0  0  0  0  0  0  0  0  0
   40.2480   75.8560   57.6960 C   0  0  0  0  0  0  0  0  0  0  0  0
   39.0930   76.1610   57.0710 N   0  0  0  0  0  0  0  0  0  0  0  0
   38.3650   77.2220   57.5280 C   0  0  0  0  0  0  0  0  0  0  0  0
   38.7980   77.9450   58.5810 N   0  0  0  0  0  0  0  0  0  0  0  0
   41.6910   76.2830   59.2670 H   0  0  0  0  0  0  0  0  0  0  0  0
   40.7880   75.0020   57.2920 H   0  0  0  0  0  0  0  0  0  0  0  0
   41.0210   80.4990   61.8270 C   0  0  0  0  0  0  0  0  0  0  0  0
   41.0100   79.2530   62.4000 C   0  0  0  0  0  0  0  0  0  0  0  0
   40.6740   78.2010   61.6250 C   0  0  0  0  0  0  0  0  0  0  0  0
   40.3570   78.4200   60.2920 C   0  0  0  0  0  0  0  0  0  0  0  0
   40.5390   80.2400   60.0940 S   0  0  0  0  0  0  0  0  0  0  0  0
   41.2600   79.0840   63.4480 H   0  0  0  0  0  0  0  0  0  0  0  0
   40.6050   77.1530   61.8770 H   0  0  0  0  0  0  0  0  0  0  0  0
   42.9960   83.3340   63.0730 C   0  0  0  0  0  0  0  0  0  0  0  0
   42.0660   84.0360   63.8710 C   0  0  0  0  0  0  0  0  0  0  0  0
   40.7710   83.5450   63.9780 C   0  0  0  0  0  0  0  0  0  0  0  0
   40.4470   82.4090   63.3110 N   0  0  0  0  0  0  0  0  0  0  0  0
   41.3680   81.7510   62.5470 C   0  0  0  0  0  0  0  0  0  0  0  0
   42.6120   82.2200   62.4430 N   0  0  0  0  0  0  0  0  0  0  0  0
   44.0100   83.7000   62.9770 H   0  0  0  0  0  0  0  0  0  0  0  0
   42.3540   84.9330   64.3860 H   0  0  0  0  0  0  0  0  0  0  0  0
   40.0270   84.0590   64.5840 H   0  0  0  0  0  0  0  0  0  0  0  0
   37.1290   77.5340   56.8350 C   0  0  0  0  0  0  0  0  0  0  0  0
   36.0990   76.9560   57.2130 O   0  0  0  0  0  0  0  0  0  0  0  0
   37.0750   78.5120   55.6910 C   0  0  1  0  0  0  0  0  0  0  0  0
   37.2250   79.9490   56.1280 C   0  0  0  0  0  0  0  0  0  0  0  0
   38.2540   79.2840   55.3430 C   0  0  2  0  0  0  0  0  0  0  0  0
   36.1530   78.3610   55.0730 H   0  0  0  0  0  0  0  0  0  0  0  0
   37.4330   80.1430   57.2260 H   0  0  0  0  0  0  0  0  0  0  0  0
   36.4340   80.6170   55.7740 H   0  0  0  0  0  0  0  0  0  0  0  0
   39.2030   79.0490   55.9310 H   0  0  0  0  0  0  0  0  0  0  0  0
   39.6200   79.8200   53.1820 C   0  0  0  0  0  0  0  0  0  0  0  0
   38.5110   79.4770   53.9100 C   0  0  0  0  0  0  0  0  0  0  0  0
   37.3250   79.2720   53.1890 C   0  0  0  0  0  0  0  0  0  0  0  0
   36.3340   78.9930   53.5820 H   0  0  0  0  0  0  0  0  0  0  0  0
   37.2880   79.4150   51.8010 C   0  0  0  0  0  0  0  0  0  0  0  0
   36.4030   79.2690   51.2010 H   0  0  0  0  0  0  0  0  0  0  0  0
   38.4190   79.7610   51.1050 C   0  0  0  0  0  3  0  0  0  0  0  0
   39.5850   79.9610   51.8140 C   0  0  0  0  0  3  0  0  0  0  0  0
   41.2930   79.0370   55.0230 H   0  0  0  0  0  0  0  0  0  0  0  0
   41.0530   80.0280   54.1440 S   0  0  0  0  0  0  0  0  0  0  0  0
   40.9980   81.4070   54.7560 O   0  0  0  0  0  0  0  0  0  0  0  0
   42.2650   80.0740   53.2140 O   0  0  0  0  0  0  0  0  0  0  0  0
  1 12  1  0  0  0  0
  2  1  1  0  0  0  0
  2  7  1  0  0  0  0
  3  2  2  0  0  0  0
  4  5  2  0  0  0  0
  4  3  1  0  0  0  0
  5  6  1  0  0  0  0
  6  1  2  0  0  0  0
  8  3  1  0  0  0  0
  9 10  2  0  0  0  0
  9 20  1  0  0  0  0
 10 14  1  0  0  0  0
 11 15  1  0  0  0  0
 11 10  1  0  0  0  0
 12 11  2  0  0  0  0
 13 12  1  0  0  0  0
 13  9  1  0  0  0  0
 16 17  1  0  0  0  0
 17 18  2  0  0  0  0
 17 23  1  0  0  0  0
 18 24  1  0  0  0  0
 19 18  1  0  0  0  0
 20 19  2  0  0  0  0
 21 20  1  0  0  0  0
 21 16  2  0  0  0  0
 22 16  1  0  0  0  0
 25 26  2  0  0  0  0
 25  5  1  0  0  0  0
 27 30  1  6  0  0  0
 27 28  1  0  0  0  0
 27 25  1  0  0  0  0
 28 31  1  0  0  0  0
 29 27  1  0  0  0  0
 29 33  1  1  0  0  0
 29 28  1  0  0  0  0
 32 28  1  0  0  0  0
 34 35  1  0  0  0  0
 34 43  1  0  0  0  0
 35 29  1  0  0  0  0
 36 37  1  0  0  0  0
 36 35  2  0  0  0  0
 38 36  1  0  0  0  0
 39 38  1  0  0  0  0
 40 38  2  0  0  0  0
 40 41  1  0  0  0  0
 41 34  2  0  0  0  0
 43 44  2  0  0  0  0
 43 42  1  0  0  0  0
 45 43  2  0  0  0  0
M  END
>  <minimizedAffinity>
-6.68847799

>  <minimizedRMSD>
0.609601259

$$$$
