
 OpenBabel03212520513D

 38 41  0  0  1  0  0  0  0  0999 V2000
   41.7020   83.8580   61.4040 C   0  0  0  0  0  0  0  0  0  0  0  0
   41.1300   84.2420   62.5940 C   0  0  0  0  0  0  0  0  0  0  0  0
   40.6870   83.2970   63.5200 C   0  0  0  0  0  0  0  0  0  0  0  0
   40.8150   81.9860   63.2530 N   0  0  0  0  0  0  0  0  0  0  0  0
   41.3810   81.6290   62.0760 C   0  0  0  0  0  0  0  0  0  0  0  0
   41.8170   82.5290   61.1690 N   0  0  0  0  0  0  0  0  0  0  0  0
   41.0270   85.3040   62.8090 H   0  0  0  0  0  0  0  0  0  0  0  0
   40.2430   83.6410   64.4440 H   0  0  0  0  0  0  0  0  0  0  0  0
   43.6260   86.4850   59.7310 C   0  0  0  0  0  0  0  0  0  0  0  0
   42.9410   86.6130   58.5260 C   0  0  0  0  0  0  0  0  0  0  0  0
   41.8360   85.8220   58.2710 C   0  0  0  0  0  0  0  0  0  0  0  0
   41.4860   84.9410   59.2580 N   0  0  0  0  0  0  0  0  0  0  0  0
   42.1610   84.8320   60.4150 C   0  0  0  0  0  0  0  0  0  0  0  0
   43.2220   85.5890   60.6640 N   0  0  0  0  0  0  0  0  0  0  0  0
   44.7330   87.3580   59.8430 N   0  0  0  0  0  0  0  0  0  0  0  0
   43.2040   87.3030   57.7360 H   0  0  0  0  0  0  0  0  0  0  0  0
   41.2840   85.8930   57.3550 H   0  0  0  0  0  0  0  0  0  0  0  0
   44.3500   88.2610   60.1910 H   0  0  0  0  0  0  0  0  0  0  0  0
   45.6200   86.8880   59.5570 H   0  0  0  0  0  0  0  0  0  0  0  0
   41.4780   80.1540   61.8150 C   0  0  1  0  0  0  0  0  0  0  0  0
   40.6910   79.2200   62.5860 C   0  0  0  0  0  0  0  0  0  0  0  0
   40.2230   79.5830   61.2110 C   0  0  2  0  0  0  0  0  0  0  0  0
   42.4500   79.8450   61.4080 H   0  0  0  0  0  0  0  0  0  0  0  0
   41.0790   78.2310   62.8400 H   0  0  0  0  0  0  0  0  0  0  0  0
   40.1210   79.6680   63.4520 H   0  0  0  0  0  0  0  0  0  0  0  0
   39.3290   80.2290   61.1620 H   0  0  0  0  0  0  0  0  0  0  0  0
   40.1110   78.6150   58.9440 C   0  0  0  0  0  0  0  0  0  0  0  0
   40.1780   78.4340   60.3120 C   0  0  0  0  0  0  0  0  0  0  0  0
   40.1990   77.0970   60.7050 C   0  0  0  0  0  0  0  0  0  0  0  0
   40.2520   76.8940   61.7680 H   0  0  0  0  0  0  0  0  0  0  0  0
   40.1570   76.0280   59.8470 C   0  0  0  0  0  0  0  0  0  0  0  0
   40.1750   75.0130   60.1900 H   0  0  0  0  0  0  0  0  0  0  0  0
   40.0900   76.2680   58.4920 C   0  0  0  0  0  3  0  0  0  0  0  0
   40.0670   77.5670   58.0370 C   0  0  0  0  0  3  0  0  0  0  0  0
   39.3930   81.1130   59.1050 H   0  0  0  0  0  0  0  0  0  0  0  0
   40.0790   80.2350   58.3230 S   0  0  0  0  0  0  0  0  0  0  0  0
   41.4770   80.7280   57.9910 O   0  0  0  0  0  0  0  0  0  0  0  0
   39.3440   80.2310   57.0020 O   0  0  0  0  0  0  0  0  0  0  0  0
  1  2  1  0  0  0  0
  2  7  1  0  0  0  0
  2  3  2  0  0  0  0
  3  8  1  0  0  0  0
  4  3  1  0  0  0  0
  5  4  2  0  0  0  0
  6  1  2  0  0  0  0
  6  5  1  0  0  0  0
  9 15  1  0  0  0  0
  9 14  1  0  0  0  0
 10  9  2  0  0  0  0
 11 10  1  0  0  0  0
 11 12  2  0  0  0  0
 12 13  1  0  0  0  0
 13 14  2  0  0  0  0
 13  1  1  0  0  0  0
 15 18  1  0  0  0  0
 16 10  1  0  0  0  0
 17 11  1  0  0  0  0
 19 15  1  0  0  0  0
 20 23  1  6  0  0  0
 20  5  1  0  0  0  0
 20 21  1  0  0  0  0
 21 24  1  0  0  0  0
 21 25  1  0  0  0  0
 22 26  1  6  0  0  0
 22 20  1  0  0  0  0
 22 21  1  0  0  0  0
 27 28  1  0  0  0  0
 28 29  2  0  0  0  0
 28 22  1  0  0  0  0
 29 30  1  0  0  0  0
 31 32  1  0  0  0  0
 31 29  1  0  0  0  0
 33 31  2  0  0  0  0
 34 33  1  0  0  0  0
 34 27  2  0  0  0  0
 36 27  1  0  0  0  0
 36 35  1  0  0  0  0
 37 36  2  0  0  0  0
 38 36  2  0  0  0  0
M  END
>  <minimizedAffinity>
-5.80172539

>  <minimizedRMSD>
1.08137465

$$$$
