
 OpenBabel03212520203D

 39 41  0  0  0  0  0  0  0  0999 V2000
   43.0490   84.0100   58.5860 Cl  0  0  0  0  0  0  0  0  0  0  0  0
   41.8440   82.7740   58.2140 C   0  0  0  0  0  0  0  0  0  0  0  0
   41.0080   82.2220   59.1750 C   0  0  0  0  0  0  0  0  0  0  0  0
   40.1290   81.2710   58.7090 C   0  0  0  0  0  0  0  0  0  0  0  0
   39.9920   80.8180   57.4230 C   0  0  0  0  0  0  0  0  0  0  0  0
   40.8390   81.3940   56.5170 C   0  0  0  0  0  0  0  0  0  0  0  0
   40.7760   80.9100   54.8200 Cl  0  0  0  0  0  0  0  0  0  0  0  0
   41.7530   82.3590   56.9020 C   0  0  0  0  0  0  0  0  0  0  0  0
   39.4740   80.8430   59.4800 H   0  0  0  0  0  0  0  0  0  0  0  0
   39.2890   80.0760   57.1260 H   0  0  0  0  0  0  0  0  0  0  0  0
   41.9760   82.1760   61.5220 C   0  0  0  0  0  0  0  0  0  0  0  0
   41.1170   82.6610   60.5150 C   0  0  0  0  0  0  0  0  0  0  0  0
   40.2590   83.7060   60.8650 C   0  0  0  0  0  0  0  0  0  0  0  0
   40.3360   84.1570   62.1550 N   0  0  0  0  0  0  0  0  0  0  0  0
   41.1570   83.6780   63.0790 C   0  0  0  0  0  0  0  0  0  0  0  0
   41.9920   82.6680   62.7540 N   0  0  0  0  0  0  0  0  0  0  0  0
   42.6200   81.3640   61.1930 H   0  0  0  0  0  0  0  0  0  0  0  0
   39.5510   84.1690   60.1890 H   0  0  0  0  0  0  0  0  0  0  0  0
   41.0710   84.3180   64.4070 C   0  0  0  0  0  0  0  0  0  0  0  0
   40.7290   85.6460   64.3390 F   0  0  0  0  0  0  0  0  0  0  0  0
   40.1130   83.6640   65.1910 F   0  0  0  0  0  0  0  0  0  0  0  0
   42.3220   84.2730   65.0610 F   0  0  0  0  0  0  0  0  0  0  0  0
   42.5850   82.9060   55.9380 O   0  0  0  0  0  0  0  0  0  0  0  0
   42.2970   84.0720   55.2260 C   0  0  0  0  0  0  0  0  0  0  0  0
   41.7490   83.9180   54.2910 H   0  0  0  0  0  0  0  0  0  0  0  0
   41.6620   84.7020   55.9160 H   0  0  0  0  0  0  0  0  0  0  0  0
   43.5200   84.7470   55.0640 O   0  0  0  0  0  0  0  0  0  0  0  0
   45.4850   85.0660   53.9510 C   0  0  0  0  0  0  0  0  0  0  0  0
   44.1880   84.5600   53.8600 C   0  0  0  0  0  0  0  0  0  0  0  0
   43.7820   83.9850   52.6740 C   0  0  0  0  0  0  0  0  0  0  0  0
   42.7630   83.6350   52.7330 H   0  0  0  0  0  0  0  0  0  0  0  0
   44.6370   83.9190   51.6180 C   0  0  0  0  0  0  0  0  0  0  0  0
   44.2660   83.4600   50.7200 H   0  0  0  0  0  0  0  0  0  0  0  0
   45.9260   84.4050   51.6630 C   0  0  0  0  0  3  0  0  0  0  0  0
   46.3400   84.9810   52.8470 C   0  0  0  0  0  3  0  0  0  0  0  0
   45.8540   85.1380   56.5070 H   0  0  0  0  0  0  0  0  0  0  0  0
   46.2000   85.8310   55.3540 S   0  0  0  0  0  0  0  0  0  0  0  0
   45.8070   87.2830   55.4640 O   0  0  0  0  0  0  0  0  0  0  0  0
   47.6990   85.7840   55.2610 O   0  0  0  0  0  0  0  0  0  0  0  0
  2  1  1  0  0  0  0
  2  3  1  0  0  0  0
  3 12  1  0  0  0  0
  4  3  2  0  0  0  0
  4  9  1  0  0  0  0
  5  4  1  0  0  0  0
  6  8  1  0  0  0  0
  6  5  2  0  0  0  0
  7  6  1  0  0  0  0
  8  2  2  0  0  0  0
 10  5  1  0  0  0  0
 11 16  1  0  0  0  0
 12 13  1  0  0  0  0
 12 11  2  0  0  0  0
 13 14  2  0  0  0  0
 14 15  1  0  0  0  0
 15 19  1  0  0  0  0
 16 15  2  0  0  0  0
 17 11  1  0  0  0  0
 18 13  1  0  0  0  0
 19 22  1  0  0  0  0
 19 21  1  0  0  0  0
 20 19  1  0  0  0  0
 23  8  1  0  0  0  0
 24 26  1  0  0  0  0
 24 23  1  0  0  0  0
 25 24  1  0  0  0  0
 27 24  1  0  0  0  0
 28 37  1  0  0  0  0
 29 28  1  0  0  0  0
 29 27  1  0  0  0  0
 30 31  1  0  0  0  0
 30 29  2  0  0  0  0
 32 34  2  0  0  0  0
 32 30  1  0  0  0  0
 33 32  1  0  0  0  0
 34 35  1  0  0  0  0
 35 28  2  0  0  0  0
 37 38  2  0  0  0  0
 37 36  1  0  0  0  0
 39 37  2  0  0  0  0
M  END
>  <minimizedAffinity>
-4.96565294

>  <minimizedRMSD>
1.03538775

$$$$
