
 OpenBabel03212520203D

 39 41  0  0  0  0  0  0  0  0999 V2000
   43.0630   84.0960   58.6480 Cl  0  0  0  0  0  0  0  0  0  0  0  0
   41.8790   82.8450   58.2570 C   0  0  0  0  0  0  0  0  0  0  0  0
   41.0430   82.2740   59.2080 C   0  0  0  0  0  0  0  0  0  0  0  0
   40.1820   81.3140   58.7280 C   0  0  0  0  0  0  0  0  0  0  0  0
   40.0610   80.8680   57.4380 C   0  0  0  0  0  0  0  0  0  0  0  0
   40.9070   81.4640   56.5420 C   0  0  0  0  0  0  0  0  0  0  0  0
   40.8650   80.9910   54.8420 Cl  0  0  0  0  0  0  0  0  0  0  0  0
   41.8040   82.4380   56.9420 C   0  0  0  0  0  0  0  0  0  0  0  0
   39.5270   80.8710   59.4910 H   0  0  0  0  0  0  0  0  0  0  0  0
   39.3710   80.1190   57.1310 H   0  0  0  0  0  0  0  0  0  0  0  0
   41.9850   82.2170   61.5650 C   0  0  0  0  0  0  0  0  0  0  0  0
   41.1350   82.7050   60.5510 C   0  0  0  0  0  0  0  0  0  0  0  0
   40.2690   83.7440   60.8980 C   0  0  0  0  0  0  0  0  0  0  0  0
   40.3300   84.1870   62.1930 N   0  0  0  0  0  0  0  0  0  0  0  0
   41.1430   83.7060   63.1230 C   0  0  0  0  0  0  0  0  0  0  0  0
   41.9850   82.7010   62.8000 N   0  0  0  0  0  0  0  0  0  0  0  0
   42.6360   81.4100   61.2380 H   0  0  0  0  0  0  0  0  0  0  0  0
   39.5670   84.2090   60.2180 H   0  0  0  0  0  0  0  0  0  0  0  0
   41.0390   84.3360   64.4540 C   0  0  0  0  0  0  0  0  0  0  0  0
   40.6750   85.6600   64.3910 F   0  0  0  0  0  0  0  0  0  0  0  0
   40.0880   83.6630   65.2290 F   0  0  0  0  0  0  0  0  0  0  0  0
   42.2870   84.3090   65.1130 F   0  0  0  0  0  0  0  0  0  0  0  0
   42.6350   83.0040   55.9890 O   0  0  0  0  0  0  0  0  0  0  0  0
   42.3350   84.1700   55.2800 C   0  0  0  0  0  0  0  0  0  0  0  0
   41.6310   84.0370   54.4530 H   0  0  0  0  0  0  0  0  0  0  0  0
   41.8760   84.8750   56.0340 H   0  0  0  0  0  0  0  0  0  0  0  0
   43.5680   84.7260   54.8950 O   0  0  0  0  0  0  0  0  0  0  0  0
   45.2360   85.0650   53.3790 C   0  0  0  0  0  0  0  0  0  0  0  0
   43.9740   84.5110   53.5840 C   0  0  0  0  0  0  0  0  0  0  0  0
   43.3500   83.8740   52.5300 C   0  0  0  0  0  0  0  0  0  0  0  0
   42.3830   83.4920   52.8190 H   0  0  0  0  0  0  0  0  0  0  0  0
   43.9650   83.7920   51.3200 C   0  0  0  0  0  0  0  0  0  0  0  0
   43.4310   83.2840   50.5380 H   0  0  0  0  0  0  0  0  0  0  0  0
   45.2120   84.3250   51.0730 C   0  0  0  0  0  3  0  0  0  0  0  0
   45.8420   84.9630   52.1210 C   0  0  0  0  0  3  0  0  0  0  0  0
   46.1000   85.2820   55.8050 H   0  0  0  0  0  0  0  0  0  0  0  0
   46.2000   85.9110   54.5710 S   0  0  0  0  0  0  0  0  0  0  0  0
   45.8090   87.3660   54.6800 O   0  0  0  0  0  0  0  0  0  0  0  0
   47.6520   85.8710   54.1880 O   0  0  0  0  0  0  0  0  0  0  0  0
  2  1  1  0  0  0  0
  2  3  1  0  0  0  0
  3 12  1  0  0  0  0
  4  3  2  0  0  0  0
  4  9  1  0  0  0  0
  5  4  1  0  0  0  0
  6  8  1  0  0  0  0
  6  5  2  0  0  0  0
  7  6  1  0  0  0  0
  8  2  2  0  0  0  0
 10  5  1  0  0  0  0
 11 16  1  0  0  0  0
 12 13  1  0  0  0  0
 12 11  2  0  0  0  0
 13 14  2  0  0  0  0
 14 15  1  0  0  0  0
 15 19  1  0  0  0  0
 16 15  2  0  0  0  0
 17 11  1  0  0  0  0
 18 13  1  0  0  0  0
 19 22  1  0  0  0  0
 19 21  1  0  0  0  0
 20 19  1  0  0  0  0
 23  8  1  0  0  0  0
 24 23  1  0  0  0  0
 24 26  1  0  0  0  0
 25 24  1  0  0  0  0
 27 24  1  0  0  0  0
 28 29  1  0  0  0  0
 28 37  1  0  0  0  0
 29 27  1  0  0  0  0
 30 31  1  0  0  0  0
 30 29  2  0  0  0  0
 32 30  1  0  0  0  0
 33 32  1  0  0  0  0
 34 32  2  0  0  0  0
 34 35  1  0  0  0  0
 35 28  2  0  0  0  0
 37 38  2  0  0  0  0
 37 36  1  0  0  0  0
 39 37  2  0  0  0  0
M  END
>  <minimizedAffinity>
-4.98721504

>  <minimizedRMSD>
1.27491331

$$$$
