
 OpenBabel03212520313D

 44 47  0  0  0  0  0  0  0  0999 V2000
   42.5820   82.5920   61.8410 C   0  0  0  0  0  0  0  0  0  0  0  0
   42.9040   81.5800   60.9420 C   0  0  0  0  0  0  0  0  0  0  0  0
   44.0450   80.8260   61.1090 C   0  0  0  0  0  0  0  0  0  0  0  0
   44.9330   81.0260   62.1700 C   0  0  0  0  0  0  0  0  0  0  0  0
   44.6330   82.0230   63.0740 C   0  0  0  0  0  0  0  0  0  0  0  0
   43.4850   82.7830   62.9070 C   0  0  0  0  0  0  0  0  0  0  0  0
   44.3230   80.0340   60.4280 H   0  0  0  0  0  0  0  0  0  0  0  0
   45.8230   80.4410   62.3040 H   0  0  0  0  0  0  0  0  0  0  0  0
   45.2500   82.2610   63.9290 H   0  0  0  0  0  0  0  0  0  0  0  0
   43.2220   83.5700   63.5970 H   0  0  0  0  0  0  0  0  0  0  0  0
   40.2900   80.0910   58.8090 C   0  0  0  0  0  0  0  0  0  0  0  0
   40.4450   80.7850   57.6250 C   0  0  0  0  0  0  0  0  0  0  0  0
   41.4520   81.7560   57.5870 C   0  0  0  0  0  0  0  0  0  0  0  0
   42.2190   81.9660   58.6980 N   0  0  0  0  0  0  0  0  0  0  0  0
   42.0390   81.2790   59.8140 C   0  0  0  0  0  0  0  0  0  0  0  0
   41.0730   80.3410   59.8680 N   0  0  0  0  0  0  0  0  0  0  0  0
   39.5300   79.3430   58.8730 H   0  0  0  0  0  0  0  0  0  0  0  0
   41.6270   82.3320   56.6990 H   0  0  0  0  0  0  0  0  0  0  0  0
   39.6220   80.5290   56.4980 N   0  0  0  0  0  0  0  0  0  0  0  0
   38.3160   80.4750   56.7920 C   0  0  0  0  0  0  0  0  0  0  0  0
   37.4220   80.2250   55.7440 C   0  0  0  0  0  0  0  0  0  0  0  0
   37.9080   80.0460   54.4540 C   0  0  0  0  0  0  0  0  0  0  0  0
   37.1740   79.8200   53.4600 O   0  0  0  0  0  0  0  0  0  0  0  0
   39.2500   80.1180   54.2450 N   0  0  0  0  0  0  0  0  0  0  0  0
   40.1250   80.3590   55.2530 C   0  0  0  0  0  0  0  0  0  0  0  0
   41.3470   80.4260   55.0730 O   0  0  0  0  0  0  0  0  0  0  0  0
   37.8950   80.6050   57.7650 H   0  0  0  0  0  0  0  0  0  0  0  0
   36.3610   80.1670   55.9010 H   0  0  0  0  0  0  0  0  0  0  0  0
   39.7030   79.9960   53.3110 H   0  0  0  0  0  0  0  0  0  0  0  0
   41.1580   83.5500   61.6730 S   0  0  0  0  0  0  0  0  0  0  0  0
   40.9760   84.4430   62.8760 O   0  0  0  0  0  0  0  0  0  0  0  0
   39.9690   82.5830   61.7610 O   0  0  0  0  0  0  0  0  0  0  0  0
   42.0180   85.1900   59.6750 C   0  0  0  0  0  0  0  0  0  0  0  0
   40.9630   84.4730   60.2480 C   0  0  0  0  0  0  0  0  0  0  0  0
   39.7480   84.6380   59.5620 C   0  0  0  0  0  0  0  0  0  0  0  0
   38.9160   84.0750   60.0090 H   0  0  0  0  0  0  0  0  0  0  0  0
   39.5130   85.3990   58.4410 C   0  0  0  0  0  0  0  0  0  0  0  0
   38.5060   85.4100   58.0450 H   0  0  0  0  0  0  0  0  0  0  0  0
   40.5970   86.0810   57.9290 C   0  0  0  0  0  3  0  0  0  0  0  0
   41.8220   85.9650   58.5500 C   0  0  0  0  0  3  0  0  0  0  0  0
   43.8910   83.8650   60.8680 H   0  0  0  0  0  0  0  0  0  0  0  0
   43.5930   85.0950   60.4020 S   0  0  0  0  0  0  0  0  0  0  0  0
   43.6740   86.1910   61.4240 O   0  0  0  0  0  0  0  0  0  0  0  0
   44.6430   85.4190   59.3690 O   0  0  0  0  0  0  0  0  0  0  0  0
  1  6  1  0  0  0  0
  2  3  1  0  0  0  0
  2  1  2  0  0  0  0
  3  4  2  0  0  0  0
  4  8  1  0  0  0  0
  4  5  1  0  0  0  0
  5  9  1  0  0  0  0
  6  5  2  0  0  0  0
  6 10  1  0  0  0  0
  7  3  1  0  0  0  0
 11 17  1  0  0  0  0
 11 16  1  0  0  0  0
 12 11  2  0  0  0  0
 13 12  1  0  0  0  0
 13 14  2  0  0  0  0
 14 15  1  0  0  0  0
 15 16  2  0  0  0  0
 15  2  1  0  0  0  0
 18 13  1  0  0  0  0
 19 20  1  0  0  0  0
 19 12  1  0  0  0  0
 20 27  1  0  0  0  0
 21 28  1  0  0  0  0
 21 20  2  0  0  0  0
 22 21  1  0  0  0  0
 23 22  2  0  0  0  0
 24 22  1  0  0  0  0
 24 25  1  0  0  0  0
 25 19  1  0  0  0  0
 26 25  2  0  0  0  0
 29 24  1  0  0  0  0
 30 32  2  0  0  0  0
 30  1  1  0  0  0  0
 30 31  2  0  0  0  0
 33 34  1  0  0  0  0
 33 42  1  0  0  0  0
 34 30  1  0  0  0  0
 35 36  1  0  0  0  0
 35 34  2  0  0  0  0
 37 35  1  0  0  0  0
 38 37  1  0  0  0  0
 39 37  2  0  0  0  0
 39 40  1  0  0  0  0
 40 33  2  0  0  0  0
 42 41  1  0  0  0  0
 42 43  2  0  0  0  0
 44 42  2  0  0  0  0
M  END
>  <minimizedAffinity>
-6.14042377

>  <minimizedRMSD>
1.21099544

$$$$
