
 OpenBabel03212520513D

 38 41  0  0  1  0  0  0  0  0999 V2000
   41.3450   83.5730   60.6100 C   0  0  0  0  0  0  0  0  0  0  0  0
   40.0670   83.9210   60.9790 C   0  0  0  0  0  0  0  0  0  0  0  0
   39.2670   83.0520   61.7210 C   0  0  0  0  0  0  0  0  0  0  0  0
   39.7430   81.8490   62.0850 N   0  0  0  0  0  0  0  0  0  0  0  0
   41.0040   81.5240   61.7110 C   0  0  0  0  0  0  0  0  0  0  0  0
   41.7930   82.3540   60.9950 N   0  0  0  0  0  0  0  0  0  0  0  0
   39.6830   84.8960   60.6840 H   0  0  0  0  0  0  0  0  0  0  0  0
   38.2680   83.3650   61.9910 H   0  0  0  0  0  0  0  0  0  0  0  0
   43.5780   86.3090   59.6450 C   0  0  0  0  0  0  0  0  0  0  0  0
   43.7500   86.0660   58.2860 C   0  0  0  0  0  0  0  0  0  0  0  0
   43.1210   84.9890   57.6890 C   0  0  0  0  0  0  0  0  0  0  0  0
   42.3480   84.2140   58.5110 N   0  0  0  0  0  0  0  0  0  0  0  0
   42.1940   84.4640   59.8230 C   0  0  0  0  0  0  0  0  0  0  0  0
   42.7960   85.4970   60.3990 N   0  0  0  0  0  0  0  0  0  0  0  0
   44.2860   87.4420   60.1080 N   0  0  0  0  0  0  0  0  0  0  0  0
   44.3570   86.6680   57.6230 H   0  0  0  0  0  0  0  0  0  0  0  0
   43.2300   84.7710   56.6450 H   0  0  0  0  0  0  0  0  0  0  0  0
   43.6710   88.2600   59.9150 H   0  0  0  0  0  0  0  0  0  0  0  0
   45.2110   87.1760   60.5110 H   0  0  0  0  0  0  0  0  0  0  0  0
   41.4790   80.1610   62.1200 C   0  0  1  0  0  0  0  0  0  0  0  0
   40.5380   79.1580   62.5630 C   0  0  0  0  0  0  0  0  0  0  0  0
   41.0560   79.0810   61.1600 C   0  0  2  0  0  0  0  0  0  0  0  0
   42.5080   80.1540   62.5060 H   0  0  0  0  0  0  0  0  0  0  0  0
   40.8060   78.4350   63.3360 H   0  0  0  0  0  0  0  0  0  0  0  0
   39.4760   79.5180   62.6930 H   0  0  0  0  0  0  0  0  0  0  0  0
   40.3370   79.3450   60.3660 H   0  0  0  0  0  0  0  0  0  0  0  0
   41.1930   76.7760   60.2900 C   0  0  0  0  0  0  0  0  0  0  0  0
   41.8030   77.8530   60.9040 C   0  0  0  0  0  0  0  0  0  0  0  0
   43.1390   77.6350   61.2300 C   0  0  0  0  0  0  0  0  0  0  0  0
   43.6700   78.4460   61.7150 H   0  0  0  0  0  0  0  0  0  0  0  0
   43.8260   76.4740   60.9840 C   0  0  0  0  0  0  0  0  0  0  0  0
   44.8550   76.3450   61.2500 H   0  0  0  0  0  0  0  0  0  0  0  0
   43.1660   75.4310   60.3680 C   0  0  0  0  0  3  0  0  0  0  0  0
   41.8440   75.5820   60.0190 C   0  0  0  0  0  3  0  0  0  0  0  0
   38.9850   78.1420   60.0890 H   0  0  0  0  0  0  0  0  0  0  0  0
   39.5250   76.9190   59.8320 S   0  0  0  0  0  0  0  0  0  0  0  0
   39.3070   76.4830   58.3940 O   0  0  0  0  0  0  0  0  0  0  0  0
   38.7120   75.9500   60.6600 O   0  0  0  0  0  0  0  0  0  0  0  0
  1  2  2  0  0  0  0
  1  6  1  0  0  0  0
  2  3  1  0  0  0  0
  3  8  1  0  0  0  0
  3  4  2  0  0  0  0
  5  4  1  0  0  0  0
  5 20  1  0  0  0  0
  6  5  2  0  0  0  0
  7  2  1  0  0  0  0
  9 15  1  0  0  0  0
  9 14  1  0  0  0  0
 10  9  2  0  0  0  0
 11 10  1  0  0  0  0
 11 12  2  0  0  0  0
 12 13  1  0  0  0  0
 13 14  2  0  0  0  0
 13  1  1  0  0  0  0
 15 19  1  0  0  0  0
 16 10  1  0  0  0  0
 17 11  1  0  0  0  0
 18 15  1  0  0  0  0
 20 23  1  1  0  0  0
 20 21  1  0  0  0  0
 21 25  1  0  0  0  0
 21 24  1  0  0  0  0
 22 26  1  6  0  0  0
 22 20  1  0  0  0  0
 22 21  1  0  0  0  0
 27 28  1  0  0  0  0
 28 22  1  0  0  0  0
 28 29  2  0  0  0  0
 29 30  1  0  0  0  0
 31 29  1  0  0  0  0
 31 32  1  0  0  0  0
 33 31  2  0  0  0  0
 34 27  2  0  0  0  0
 34 33  1  0  0  0  0
 36 35  1  0  0  0  0
 36 27  1  0  0  0  0
 36 38  2  0  0  0  0
 37 36  2  0  0  0  0
M  END
>  <minimizedAffinity>
-5.39174986

>  <minimizedRMSD>
1.96932495

$$$$
