
 OpenBabel03212520513D

 38 41  0  0  1  0  0  0  0  0999 V2000
   41.7040   83.8620   61.4030 C   0  0  0  0  0  0  0  0  0  0  0  0
   41.1330   84.2450   62.5940 C   0  0  0  0  0  0  0  0  0  0  0  0
   40.6890   83.3000   63.5190 C   0  0  0  0  0  0  0  0  0  0  0  0
   40.8160   81.9890   63.2520 N   0  0  0  0  0  0  0  0  0  0  0  0
   41.3810   81.6320   62.0730 C   0  0  0  0  0  0  0  0  0  0  0  0
   41.8170   82.5330   61.1670 N   0  0  0  0  0  0  0  0  0  0  0  0
   41.0310   85.3070   62.8100 H   0  0  0  0  0  0  0  0  0  0  0  0
   40.2460   83.6440   64.4440 H   0  0  0  0  0  0  0  0  0  0  0  0
   43.6290   86.4900   59.7320 C   0  0  0  0  0  0  0  0  0  0  0  0
   42.9440   86.6170   58.5270 C   0  0  0  0  0  0  0  0  0  0  0  0
   41.8380   85.8270   58.2710 C   0  0  0  0  0  0  0  0  0  0  0  0
   41.4880   84.9460   59.2580 N   0  0  0  0  0  0  0  0  0  0  0  0
   42.1630   84.8360   60.4150 C   0  0  0  0  0  0  0  0  0  0  0  0
   43.2250   85.5930   60.6650 N   0  0  0  0  0  0  0  0  0  0  0  0
   44.7360   87.3620   59.8440 N   0  0  0  0  0  0  0  0  0  0  0  0
   43.2070   87.3080   57.7370 H   0  0  0  0  0  0  0  0  0  0  0  0
   41.2870   85.8980   57.3550 H   0  0  0  0  0  0  0  0  0  0  0  0
   44.3520   88.2650   60.1930 H   0  0  0  0  0  0  0  0  0  0  0  0
   45.6230   86.8920   59.5590 H   0  0  0  0  0  0  0  0  0  0  0  0
   41.4770   80.1580   61.8110 C   0  0  1  0  0  0  0  0  0  0  0  0
   40.6860   79.2240   62.5780 C   0  0  0  0  0  0  0  0  0  0  0  0
   40.2230   79.5890   61.2020 C   0  0  2  0  0  0  0  0  0  0  0  0
   42.4500   79.8470   61.4070 H   0  0  0  0  0  0  0  0  0  0  0  0
   41.0710   78.2340   62.8330 H   0  0  0  0  0  0  0  0  0  0  0  0
   40.1140   79.6720   63.4430 H   0  0  0  0  0  0  0  0  0  0  0  0
   39.3310   80.2370   61.1510 H   0  0  0  0  0  0  0  0  0  0  0  0
   40.1060   78.6240   58.9340 C   0  0  0  0  0  0  0  0  0  0  0  0
   40.1800   78.4410   60.3010 C   0  0  0  0  0  0  0  0  0  0  0  0
   40.2080   77.1040   60.6930 C   0  0  0  0  0  0  0  0  0  0  0  0
   40.2660   76.8990   61.7540 H   0  0  0  0  0  0  0  0  0  0  0  0
   40.1680   76.0370   59.8330 C   0  0  0  0  0  0  0  0  0  0  0  0
   40.1920   75.0210   60.1730 H   0  0  0  0  0  0  0  0  0  0  0  0
   40.0940   76.2780   58.4770 C   0  0  0  0  0  3  0  0  0  0  0  0
   40.0630   77.5780   58.0260 C   0  0  0  0  0  3  0  0  0  0  0  0
   39.4040   81.1250   59.1190 H   0  0  0  0  0  0  0  0  0  0  0  0
   40.0640   80.2440   58.3170 S   0  0  0  0  0  0  0  0  0  0  0  0
   41.4540   80.7320   57.9460 O   0  0  0  0  0  0  0  0  0  0  0  0
   39.2920   80.2470   57.0160 O   0  0  0  0  0  0  0  0  0  0  0  0
  1  2  1  0  0  0  0
  2  7  1  0  0  0  0
  2  3  2  0  0  0  0
  3  8  1  0  0  0  0
  4  3  1  0  0  0  0
  5  4  2  0  0  0  0
  6  1  2  0  0  0  0
  6  5  1  0  0  0  0
  9 15  1  0  0  0  0
  9 14  1  0  0  0  0
 10  9  2  0  0  0  0
 11 10  1  0  0  0  0
 11 12  2  0  0  0  0
 12 13  1  0  0  0  0
 13 14  2  0  0  0  0
 13  1  1  0  0  0  0
 15 18  1  0  0  0  0
 16 10  1  0  0  0  0
 17 11  1  0  0  0  0
 19 15  1  0  0  0  0
 20 23  1  6  0  0  0
 20  5  1  0  0  0  0
 20 21  1  0  0  0  0
 21 24  1  0  0  0  0
 21 25  1  0  0  0  0
 22 26  1  6  0  0  0
 22 20  1  0  0  0  0
 22 21  1  0  0  0  0
 27 28  1  0  0  0  0
 28 29  2  0  0  0  0
 28 22  1  0  0  0  0
 29 30  1  0  0  0  0
 31 32  1  0  0  0  0
 31 29  1  0  0  0  0
 33 31  2  0  0  0  0
 34 33  1  0  0  0  0
 34 27  2  0  0  0  0
 36 27  1  0  0  0  0
 36 35  1  0  0  0  0
 37 36  2  0  0  0  0
 38 36  2  0  0  0  0
M  END
>  <minimizedAffinity>
-5.80705595

>  <minimizedRMSD>
1.86030912

$$$$
