
 OpenBabel03212520183D

 38 40  0  0  0  0  0  0  0  0999 V2000
   43.0790   83.8600   58.6620 Cl  0  0  0  0  0  0  0  0  0  0  0  0
   41.8380   82.6880   58.2900 C   0  0  0  0  0  0  0  0  0  0  0  0
   40.9590   82.1930   59.2240 C   0  0  0  0  0  0  0  0  0  0  0  0
   40.0440   81.2730   58.7600 C   0  0  0  0  0  0  0  0  0  0  0  0
   39.9160   80.8030   57.4810 C   0  0  0  0  0  0  0  0  0  0  0  0
   40.8100   81.3210   56.5830 C   0  0  0  0  0  0  0  0  0  0  0  0
   40.7560   80.7970   54.8950 Cl  0  0  0  0  0  0  0  0  0  0  0  0
   41.7710   82.2650   56.9910 C   0  0  0  0  0  0  0  0  0  0  0  0
   39.3460   80.8860   59.5190 H   0  0  0  0  0  0  0  0  0  0  0  0
   39.1870   80.0900   57.1720 H   0  0  0  0  0  0  0  0  0  0  0  0
   41.9110   82.1430   61.5840 C   0  0  0  0  0  0  0  0  0  0  0  0
   41.0580   82.6550   60.5710 C   0  0  0  0  0  0  0  0  0  0  0  0
   40.2420   83.7030   60.9160 C   0  0  0  0  0  0  0  0  0  0  0  0
   40.3050   84.1740   62.1900 N   0  0  0  0  0  0  0  0  0  0  0  0
   41.1120   83.6800   63.1240 C   0  0  0  0  0  0  0  0  0  0  0  0
   41.9350   82.6410   62.8180 N   0  0  0  0  0  0  0  0  0  0  0  0
   42.5370   81.3090   61.2570 H   0  0  0  0  0  0  0  0  0  0  0  0
   39.5310   84.2090   60.2500 H   0  0  0  0  0  0  0  0  0  0  0  0
   41.0470   84.3180   64.4600 C   0  0  0  0  0  0  0  0  0  0  0  0
   40.7180   85.6530   64.3730 F   0  0  0  0  0  0  0  0  0  0  0  0
   40.1000   83.6840   65.2450 F   0  0  0  0  0  0  0  0  0  0  0  0
   42.2800   84.2960   65.1050 F   0  0  0  0  0  0  0  0  0  0  0  0
   42.6270   82.7270   56.0060 O   0  0  0  0  0  0  0  0  0  0  0  0
   42.4550   83.9380   55.3070 C   0  0  0  0  0  0  0  0  0  0  0  0
   41.3680   84.0980   55.1820 H   0  0  0  0  0  0  0  0  0  0  0  0
   42.8020   84.8020   55.9120 H   0  0  0  0  0  0  0  0  0  0  0  0
   44.3510   84.1900   53.5700 C   0  0  0  0  0  0  0  0  0  0  0  0
   43.0820   83.8600   53.9860 C   0  0  0  0  0  0  0  0  0  0  0  0
   42.3100   83.3430   52.9310 C   0  0  0  0  0  0  0  0  0  0  0  0
   41.2780   83.0470   53.1530 H   0  0  0  0  0  0  0  0  0  0  0  0
   42.7110   83.1610   51.6250 C   0  0  0  0  0  0  0  0  0  0  0  0
   42.0160   82.7530   50.9060 H   0  0  0  0  0  0  0  0  0  0  0  0
   43.9970   83.5160   51.2930 C   0  0  0  0  0  3  0  0  0  0  0  0
   44.7930   84.0250   52.2760 C   0  0  0  0  0  3  0  0  0  0  0  0
   45.1030   84.3650   56.0390 H   0  0  0  0  0  0  0  0  0  0  0  0
   45.3850   84.8690   54.8110 S   0  0  0  0  0  0  0  0  0  0  0  0
   46.8140   84.4250   54.5160 O   0  0  0  0  0  0  0  0  0  0  0  0
   45.4260   86.3620   54.7400 O   0  0  0  0  0  0  0  0  0  0  0  0
  2  1  1  0  0  0  0
  2  3  1  0  0  0  0
  3 12  1  0  0  0  0
  4  3  2  0  0  0  0
  4  9  1  0  0  0  0
  5  4  1  0  0  0  0
  6  8  1  0  0  0  0
  6  5  2  0  0  0  0
  7  6  1  0  0  0  0
  8  2  2  0  0  0  0
 10  5  1  0  0  0  0
 11 16  1  0  0  0  0
 12 13  1  0  0  0  0
 12 11  2  0  0  0  0
 13 14  2  0  0  0  0
 14 15  1  0  0  0  0
 15 19  1  0  0  0  0
 16 15  2  0  0  0  0
 17 11  1  0  0  0  0
 18 13  1  0  0  0  0
 19 22  1  0  0  0  0
 19 21  1  0  0  0  0
 20 19  1  0  0  0  0
 23  8  1  0  0  0  0
 24 26  1  0  0  0  0
 24 23  1  0  0  0  0
 25 24  1  0  0  0  0
 27 28  1  0  0  0  0
 27 36  1  0  0  0  0
 28 24  1  0  0  0  0
 29 30  1  0  0  0  0
 29 28  2  0  0  0  0
 31 29  1  0  0  0  0
 32 31  1  0  0  0  0
 33 31  2  0  0  0  0
 33 34  1  0  0  0  0
 34 27  2  0  0  0  0
 36 35  1  0  0  0  0
 37 36  2  0  0  0  0
 38 36  2  0  0  0  0
M  END
>  <minimizedAffinity>
-5.05475616

>  <minimizedRMSD>
0.944218993

$$$$
