
 OpenBabel03212520183D

 38 40  0  0  0  0  0  0  0  0999 V2000
   43.0900   83.8320   58.5530 Cl  0  0  0  0  0  0  0  0  0  0  0  0
   41.8360   82.6740   58.1850 C   0  0  0  0  0  0  0  0  0  0  0  0
   40.9560   82.1850   59.1210 C   0  0  0  0  0  0  0  0  0  0  0  0
   40.0300   81.2750   58.6590 C   0  0  0  0  0  0  0  0  0  0  0  0
   39.8910   80.8100   57.3810 C   0  0  0  0  0  0  0  0  0  0  0  0
   40.7850   81.3210   56.4790 C   0  0  0  0  0  0  0  0  0  0  0  0
   40.7180   80.8030   54.7900 Cl  0  0  0  0  0  0  0  0  0  0  0  0
   41.7580   82.2550   56.8850 C   0  0  0  0  0  0  0  0  0  0  0  0
   39.3330   80.8930   59.4220 H   0  0  0  0  0  0  0  0  0  0  0  0
   39.1530   80.1060   57.0730 H   0  0  0  0  0  0  0  0  0  0  0  0
   41.9320   82.1290   61.4720 C   0  0  0  0  0  0  0  0  0  0  0  0
   41.0670   82.6420   60.4700 C   0  0  0  0  0  0  0  0  0  0  0  0
   40.2510   83.6860   60.8260 C   0  0  0  0  0  0  0  0  0  0  0  0
   40.3250   84.1520   62.1020 N   0  0  0  0  0  0  0  0  0  0  0  0
   41.1430   83.6570   63.0250 C   0  0  0  0  0  0  0  0  0  0  0  0
   41.9660   82.6220   62.7080 N   0  0  0  0  0  0  0  0  0  0  0  0
   42.5580   81.2980   61.1360 H   0  0  0  0  0  0  0  0  0  0  0  0
   39.5320   84.1920   60.1700 H   0  0  0  0  0  0  0  0  0  0  0  0
   41.0880   84.2900   64.3650 C   0  0  0  0  0  0  0  0  0  0  0  0
   40.7740   85.6290   64.2840 F   0  0  0  0  0  0  0  0  0  0  0  0
   40.1360   83.6630   65.1490 F   0  0  0  0  0  0  0  0  0  0  0  0
   42.3230   84.2510   65.0060 F   0  0  0  0  0  0  0  0  0  0  0  0
   42.6140   82.7110   55.8970 O   0  0  0  0  0  0  0  0  0  0  0  0
   42.4060   83.8850   55.1450 C   0  0  0  0  0  0  0  0  0  0  0  0
   41.4550   83.7620   54.5940 H   0  0  0  0  0  0  0  0  0  0  0  0
   42.2420   84.7600   55.8070 H   0  0  0  0  0  0  0  0  0  0  0  0
   43.5530   83.8430   52.8300 C   0  0  0  0  0  0  0  0  0  0  0  0
   43.4950   84.0750   54.1830 C   0  0  0  0  0  0  0  0  0  0  0  0
   44.7030   84.6070   54.6700 C   0  0  0  0  0  0  0  0  0  0  0  0
   44.7670   84.8280   55.7420 H   0  0  0  0  0  0  0  0  0  0  0  0
   45.8370   84.8850   53.9380 C   0  0  0  0  0  0  0  0  0  0  0  0
   46.7050   85.2940   54.4350 H   0  0  0  0  0  0  0  0  0  0  0  0
   45.8110   84.6250   52.5880 C   0  0  0  0  0  3  0  0  0  0  0  0
   44.6650   84.1070   52.0610 C   0  0  0  0  0  3  0  0  0  0  0  0
   41.0020   83.4160   52.8870 H   0  0  0  0  0  0  0  0  0  0  0  0
   42.1010   83.1550   52.1330 S   0  0  0  0  0  0  0  0  0  0  0  0
   41.8480   83.8570   50.8020 O   0  0  0  0  0  0  0  0  0  0  0  0
   42.2870   81.7140   51.7750 O   0  0  0  0  0  0  0  0  0  0  0  0
  2  1  1  0  0  0  0
  2  3  1  0  0  0  0
  3 12  1  0  0  0  0
  4  3  2  0  0  0  0
  4  9  1  0  0  0  0
  5  4  1  0  0  0  0
  6  8  1  0  0  0  0
  6  5  2  0  0  0  0
  7  6  1  0  0  0  0
  8  2  2  0  0  0  0
 10  5  1  0  0  0  0
 11 16  1  0  0  0  0
 12 13  1  0  0  0  0
 12 11  2  0  0  0  0
 13 14  2  0  0  0  0
 14 15  1  0  0  0  0
 15 19  1  0  0  0  0
 16 15  2  0  0  0  0
 17 11  1  0  0  0  0
 18 13  1  0  0  0  0
 19 22  1  0  0  0  0
 19 21  1  0  0  0  0
 20 19  1  0  0  0  0
 23  8  1  0  0  0  0
 24 26  1  0  0  0  0
 24 23  1  0  0  0  0
 25 24  1  0  0  0  0
 27 28  1  0  0  0  0
 28 29  2  0  0  0  0
 28 24  1  0  0  0  0
 29 30  1  0  0  0  0
 31 32  1  0  0  0  0
 31 29  1  0  0  0  0
 33 31  2  0  0  0  0
 34 33  1  0  0  0  0
 34 27  2  0  0  0  0
 36 27  1  0  0  0  0
 36 35  1  0  0  0  0
 37 36  2  0  0  0  0
 38 36  2  0  0  0  0
M  END
>  <minimizedAffinity>
-4.87375307

>  <minimizedRMSD>
0.753907144

$$$$
