
 OpenBabel03212520403D

 30 32  0  0  1  0  0  0  0  0999 V2000
   42.4100   85.4510   59.8000 C   0  0  1  0  0  0  0  0  0  0  0  0
   43.4190   86.5320   59.4150 C   0  0  0  0  0  0  0  0  0  0  0  0
   43.1090   85.3450   58.5100 C   0  0  1  0  0  0  0  0  0  0  0  0
   41.3820   85.8500   59.8920 H   0  0  0  0  0  0  0  0  0  0  0  0
   43.0390   87.5180   59.0890 H   0  0  0  0  0  0  0  0  0  0  0  0
   44.4210   86.5310   59.8380 H   0  0  0  0  0  0  0  0  0  0  0  0
   42.5260   85.5880   57.6070 H   0  0  0  0  0  0  0  0  0  0  0  0
   42.8770   84.6850   60.9030 O   0  0  0  0  0  0  0  0  0  0  0  0
   40.0600   83.5240   62.8570 C   0  0  0  0  0  0  0  0  0  0  0  0
   40.5190   83.7200   64.1590 C   0  0  0  0  0  0  0  0  0  0  0  0
   41.8150   84.2590   64.3340 C   0  0  0  0  0  0  0  0  0  0  0  0
   42.5040   84.5410   63.1960 N   0  0  0  0  0  0  0  0  0  0  0  0
   42.0500   84.3460   61.9490 C   0  0  0  0  0  0  0  0  0  0  0  0
   40.8360   83.8400   61.7590 N   0  0  0  0  0  0  0  0  0  0  0  0
   39.0630   83.1080   62.6740 H   0  0  0  0  0  0  0  0  0  0  0  0
   39.9140   83.4720   65.0120 H   0  0  0  0  0  0  0  0  0  0  0  0
   42.2250   84.4350   65.3180 H   0  0  0  0  0  0  0  0  0  0  0  0
   44.0610   84.3320   58.3960 O   0  0  0  0  0  0  0  0  0  0  0  0
   45.6800   83.0210   57.3330 C   0  0  0  0  0  0  0  0  0  0  0  0
   44.4550   83.6550   57.2820 C   0  0  0  0  0  0  0  0  0  0  0  0
   43.6640   83.6140   56.1730 C   0  0  0  0  0  0  0  0  0  0  0  0
   42.7100   84.0880   56.0860 H   0  0  0  0  0  0  0  0  0  0  0  0
   44.1550   82.8970   55.0880 C   0  0  0  0  0  0  0  0  0  0  0  0
   43.5300   82.8550   54.1920 H   0  0  0  0  0  0  0  0  0  0  0  0
   45.3620   82.2310   55.0430 C   0  0  0  0  0  3  0  0  0  0  0  0
   46.1010   82.3240   56.2100 C   0  0  0  0  0  3  0  0  0  0  0  0
   46.6920   84.3860   59.2580 H   0  0  0  0  0  0  0  0  0  0  0  0
   46.6640   83.0980   58.7740 S   0  0  0  0  0  0  0  0  0  0  0  0
   48.0900   82.7510   58.4430 O   0  0  0  0  0  0  0  0  0  0  0  0
   46.1890   82.1580   59.8440 O   0  0  0  0  0  0  0  0  0  0  0  0
  1  4  1  6  0  0  0
  1  8  1  0  0  0  0
  2  1  1  0  0  0  0
  2  6  1  0  0  0  0
  3  7  1  6  0  0  0
  3  2  1  0  0  0  0
  3  1  1  0  0  0  0
  5  2  1  0  0  0  0
  8 13  1  0  0  0  0
  9 10  1  0  0  0  0
 10 11  2  0  0  0  0
 10 16  1  0  0  0  0
 11 17  1  0  0  0  0
 12 11  1  0  0  0  0
 13 12  2  0  0  0  0
 14 13  1  0  0  0  0
 14  9  2  0  0  0  0
 15  9  1  0  0  0  0
 18  3  1  0  0  0  0
 19 28  1  0  0  0  0
 20 19  1  0  0  0  0
 20 18  1  0  0  0  0
 21 20  2  0  0  0  0
 22 21  1  0  0  0  0
 23 21  1  0  0  0  0
 24 23  1  0  0  0  0
 25 23  2  0  0  0  0
 25 26  1  0  0  0  0
 26 19  2  0  0  0  0
 28 27  1  0  0  0  0
 28 30  2  0  0  0  0
 29 28  2  0  0  0  0
M  END
>  <minimizedAffinity>
-3.39056087

>  <minimizedRMSD>
0.28640151

$$$$
