
 OpenBabel03212520183D

 38 40  0  0  0  0  0  0  0  0999 V2000
   43.0880   83.8300   58.5510 Cl  0  0  0  0  0  0  0  0  0  0  0  0
   41.8340   82.6720   58.1840 C   0  0  0  0  0  0  0  0  0  0  0  0
   40.9550   82.1830   59.1210 C   0  0  0  0  0  0  0  0  0  0  0  0
   40.0280   81.2730   58.6600 C   0  0  0  0  0  0  0  0  0  0  0  0
   39.8880   80.8080   57.3810 C   0  0  0  0  0  0  0  0  0  0  0  0
   40.7820   81.3190   56.4790 C   0  0  0  0  0  0  0  0  0  0  0  0
   40.7140   80.8000   54.7900 Cl  0  0  0  0  0  0  0  0  0  0  0  0
   41.7560   82.2530   56.8840 C   0  0  0  0  0  0  0  0  0  0  0  0
   39.3310   80.8920   59.4230 H   0  0  0  0  0  0  0  0  0  0  0  0
   39.1500   80.1030   57.0740 H   0  0  0  0  0  0  0  0  0  0  0  0
   41.9320   82.1290   61.4700 C   0  0  0  0  0  0  0  0  0  0  0  0
   41.0660   82.6410   60.4690 C   0  0  0  0  0  0  0  0  0  0  0  0
   40.2480   83.6840   60.8260 C   0  0  0  0  0  0  0  0  0  0  0  0
   40.3230   84.1500   62.1010 N   0  0  0  0  0  0  0  0  0  0  0  0
   41.1430   83.6560   63.0240 C   0  0  0  0  0  0  0  0  0  0  0  0
   41.9670   82.6230   62.7060 N   0  0  0  0  0  0  0  0  0  0  0  0
   42.5600   81.3000   61.1340 H   0  0  0  0  0  0  0  0  0  0  0  0
   39.5280   84.1880   60.1700 H   0  0  0  0  0  0  0  0  0  0  0  0
   41.0880   84.2890   64.3640 C   0  0  0  0  0  0  0  0  0  0  0  0
   40.7760   85.6290   64.2830 F   0  0  0  0  0  0  0  0  0  0  0  0
   40.1360   83.6640   65.1480 F   0  0  0  0  0  0  0  0  0  0  0  0
   42.3230   84.2500   65.0060 F   0  0  0  0  0  0  0  0  0  0  0  0
   42.6100   82.7080   55.8950 O   0  0  0  0  0  0  0  0  0  0  0  0
   42.4050   83.8840   55.1470 C   0  0  0  0  0  0  0  0  0  0  0  0
   41.4540   83.7650   54.5960 H   0  0  0  0  0  0  0  0  0  0  0  0
   42.2430   84.7580   55.8110 H   0  0  0  0  0  0  0  0  0  0  0  0
   43.5530   83.8430   52.8320 C   0  0  0  0  0  0  0  0  0  0  0  0
   43.4940   84.0750   54.1860 C   0  0  0  0  0  0  0  0  0  0  0  0
   44.7020   84.6070   54.6730 C   0  0  0  0  0  0  0  0  0  0  0  0
   44.7650   84.8290   55.7450 H   0  0  0  0  0  0  0  0  0  0  0  0
   45.8360   84.8870   53.9420 C   0  0  0  0  0  0  0  0  0  0  0  0
   46.7030   85.2950   54.4390 H   0  0  0  0  0  0  0  0  0  0  0  0
   45.8100   84.6250   52.5920 C   0  0  0  0  0  3  0  0  0  0  0  0
   44.6650   84.1080   52.0640 C   0  0  0  0  0  3  0  0  0  0  0  0
   41.0030   83.4160   52.8870 H   0  0  0  0  0  0  0  0  0  0  0  0
   42.1020   83.1540   52.1350 S   0  0  0  0  0  0  0  0  0  0  0  0
   41.8500   83.8550   50.8030 O   0  0  0  0  0  0  0  0  0  0  0  0
   42.2880   81.7130   51.7790 O   0  0  0  0  0  0  0  0  0  0  0  0
  2  1  1  0  0  0  0
  2  3  1  0  0  0  0
  3 12  1  0  0  0  0
  4  3  2  0  0  0  0
  4  9  1  0  0  0  0
  5  4  1  0  0  0  0
  6  8  1  0  0  0  0
  6  5  2  0  0  0  0
  7  6  1  0  0  0  0
  8  2  2  0  0  0  0
 10  5  1  0  0  0  0
 11 16  1  0  0  0  0
 12 13  1  0  0  0  0
 12 11  2  0  0  0  0
 13 14  2  0  0  0  0
 14 15  1  0  0  0  0
 15 19  1  0  0  0  0
 16 15  2  0  0  0  0
 17 11  1  0  0  0  0
 18 13  1  0  0  0  0
 19 22  1  0  0  0  0
 19 21  1  0  0  0  0
 20 19  1  0  0  0  0
 23  8  1  0  0  0  0
 24 26  1  0  0  0  0
 24 23  1  0  0  0  0
 25 24  1  0  0  0  0
 27 28  1  0  0  0  0
 28 29  2  0  0  0  0
 28 24  1  0  0  0  0
 29 30  1  0  0  0  0
 31 32  1  0  0  0  0
 31 29  1  0  0  0  0
 33 31  2  0  0  0  0
 34 33  1  0  0  0  0
 34 27  2  0  0  0  0
 36 27  1  0  0  0  0
 36 35  1  0  0  0  0
 37 36  2  0  0  0  0
 38 36  2  0  0  0  0
M  END
>  <minimizedAffinity>
-4.87615156

>  <minimizedRMSD>
1.00862479

$$$$
