
 OpenBabel03212520403D

 30 32  0  0  1  0  0  0  0  0999 V2000
   41.9460   85.4480   59.5410 C   0  0  1  0  0  0  0  0  0  0  0  0
   43.0340   85.9890   58.6150 C   0  0  0  0  0  0  0  0  0  0  0  0
   41.9460   85.0380   58.1280 C   0  0  1  0  0  0  0  0  0  0  0  0
   41.2900   86.2510   59.9300 H   0  0  0  0  0  0  0  0  0  0  0  0
   42.9650   87.0390   58.2750 H   0  0  0  0  0  0  0  0  0  0  0  0
   44.0360   85.5640   58.6300 H   0  0  0  0  0  0  0  0  0  0  0  0
   41.1850   85.4960   57.4770 H   0  0  0  0  0  0  0  0  0  0  0  0
   42.4920   84.5690   60.5160 O   0  0  0  0  0  0  0  0  0  0  0  0
   39.9620   83.5540   62.8950 C   0  0  0  0  0  0  0  0  0  0  0  0
   40.6250   83.7360   64.1090 C   0  0  0  0  0  0  0  0  0  0  0  0
   41.9550   84.2150   64.0750 C   0  0  0  0  0  0  0  0  0  0  0  0
   42.4720   84.4570   62.8410 N   0  0  0  0  0  0  0  0  0  0  0  0
   41.8220   84.2760   61.6810 C   0  0  0  0  0  0  0  0  0  0  0  0
   40.5720   83.8270   61.6870 N   0  0  0  0  0  0  0  0  0  0  0  0
   38.9300   83.1840   62.8750 H   0  0  0  0  0  0  0  0  0  0  0  0
   40.1480   83.5220   65.0480 H   0  0  0  0  0  0  0  0  0  0  0  0
   42.5200   84.3770   64.9810 H   0  0  0  0  0  0  0  0  0  0  0  0
   42.2950   83.7140   57.8620 O   0  0  0  0  0  0  0  0  0  0  0  0
   41.4650   82.2000   56.2840 C   0  0  0  0  0  0  0  0  0  0  0  0
   41.4790   82.6590   57.5860 C   0  0  0  0  0  0  0  0  0  0  0  0
   40.7160   82.0910   58.5620 C   0  0  0  0  0  0  0  0  0  0  0  0
   40.6920   82.4100   59.5810 H   0  0  0  0  0  0  0  0  0  0  0  0
   39.9180   81.0190   58.1790 C   0  0  0  0  0  0  0  0  0  0  0  0
   39.3020   80.5540   58.9520 H   0  0  0  0  0  0  0  0  0  0  0  0
   39.8360   80.4900   56.9080 C   0  0  0  0  0  3  0  0  0  0  0  0
   40.6430   81.1260   55.9790 C   0  0  0  0  0  3  0  0  0  0  0  0
   42.4430   84.3220   55.2210 H   0  0  0  0  0  0  0  0  0  0  0  0
   42.4590   82.9560   55.0620 S   0  0  0  0  0  0  0  0  0  0  0  0
   41.8850   82.6940   53.6970 O   0  0  0  0  0  0  0  0  0  0  0  0
   43.8740   82.4540   55.0800 O   0  0  0  0  0  0  0  0  0  0  0  0
  1  4  1  1  0  0  0
  1  8  1  0  0  0  0
  2  6  1  0  0  0  0
  2  1  1  0  0  0  0
  3  7  1  6  0  0  0
  3  2  1  0  0  0  0
  3  1  1  0  0  0  0
  5  2  1  0  0  0  0
  8 13  1  0  0  0  0
  9 10  1  0  0  0  0
 10 16  1  0  0  0  0
 11 10  2  0  0  0  0
 11 17  1  0  0  0  0
 12 11  1  0  0  0  0
 13 14  1  0  0  0  0
 13 12  2  0  0  0  0
 14  9  2  0  0  0  0
 15  9  1  0  0  0  0
 18  3  1  0  0  0  0
 19 20  1  0  0  0  0
 20 18  1  0  0  0  0
 20 21  2  0  0  0  0
 21 22  1  0  0  0  0
 23 21  1  0  0  0  0
 23 24  1  0  0  0  0
 25 23  2  0  0  0  0
 26 19  2  0  0  0  0
 26 25  1  0  0  0  0
 28 30  2  0  0  0  0
 28 27  1  0  0  0  0
 28 19  1  0  0  0  0
 29 28  2  0  0  0  0
M  END
>  <minimizedAffinity>
-4.4792428

>  <minimizedRMSD>
3.38569379

$$$$
