
 OpenBabel03212520403D

 30 32  0  0  1  0  0  0  0  0999 V2000
   42.0680   85.0990   59.6130 C   0  0  1  0  0  0  0  0  0  0  0  0
   43.1380   85.4790   58.5900 C   0  0  0  0  0  0  0  0  0  0  0  0
   42.5470   84.0760   58.6690 C   0  0  1  0  0  0  0  0  0  0  0  0
   41.1250   85.6580   59.4600 H   0  0  0  0  0  0  0  0  0  0  0  0
   42.8430   86.0940   57.7190 H   0  0  0  0  0  0  0  0  0  0  0  0
   44.1840   85.5480   58.8810 H   0  0  0  0  0  0  0  0  0  0  0  0
   41.8710   83.8080   57.8410 H   0  0  0  0  0  0  0  0  0  0  0  0
   42.5930   85.1190   60.9340 O   0  0  0  0  0  0  0  0  0  0  0  0
   40.0340   83.5730   62.9740 C   0  0  0  0  0  0  0  0  0  0  0  0
   40.5870   83.6770   64.2500 C   0  0  0  0  0  0  0  0  0  0  0  0
   41.8560   84.2900   64.3760 C   0  0  0  0  0  0  0  0  0  0  0  0
   42.4260   84.7290   63.2230 N   0  0  0  0  0  0  0  0  0  0  0  0
   41.8810   84.6210   62.0020 C   0  0  0  0  0  0  0  0  0  0  0  0
   40.6920   84.0490   61.8570 N   0  0  0  0  0  0  0  0  0  0  0  0
   39.0540   83.1050   62.8290 H   0  0  0  0  0  0  0  0  0  0  0  0
   40.0740   83.3050   65.1180 H   0  0  0  0  0  0  0  0  0  0  0  0
   42.3360   84.4000   65.3380 H   0  0  0  0  0  0  0  0  0  0  0  0
   43.3340   83.0540   59.2010 O   0  0  0  0  0  0  0  0  0  0  0  0
   43.7970   81.7170   61.0630 C   0  0  0  0  0  0  0  0  0  0  0  0
   42.9590   82.0250   60.0100 C   0  0  0  0  0  0  0  0  0  0  0  0
   41.8050   81.3380   59.7790 C   0  0  0  0  0  0  0  0  0  0  0  0
   41.1260   81.5390   58.9790 H   0  0  0  0  0  0  0  0  0  0  0  0
   41.5110   80.3060   60.6610 C   0  0  0  0  0  0  0  0  0  0  0  0
   40.5890   79.7460   60.4870 H   0  0  0  0  0  0  0  0  0  0  0  0
   42.2830   79.9230   61.7390 C   0  0  0  0  0  3  0  0  0  0  0  0
   43.4360   80.6720   61.9000 C   0  0  0  0  0  3  0  0  0  0  0  0
   45.3440   83.6680   60.4320 H   0  0  0  0  0  0  0  0  0  0  0  0
   45.2680   82.6230   61.3250 S   0  0  0  0  0  0  0  0  0  0  0  0
   46.4640   81.7550   61.0430 O   0  0  0  0  0  0  0  0  0  0  0  0
   45.3830   83.1380   62.7290 O   0  0  0  0  0  0  0  0  0  0  0  0
  1  4  1  6  0  0  0
  1  8  1  0  0  0  0
  2  3  1  0  0  0  0
  2  6  1  0  0  0  0
  2  1  1  0  0  0  0
  3  7  1  6  0  0  0
  3 18  1  0  0  0  0
  3  1  1  0  0  0  0
  5  2  1  0  0  0  0
  8 13  1  0  0  0  0
  9 10  1  0  0  0  0
 10 11  2  0  0  0  0
 10 16  1  0  0  0  0
 11 17  1  0  0  0  0
 12 11  1  0  0  0  0
 13 12  2  0  0  0  0
 14 13  1  0  0  0  0
 14  9  2  0  0  0  0
 15  9  1  0  0  0  0
 18 20  1  0  0  0  0
 19 28  1  0  0  0  0
 19 26  1  0  0  0  0
 20 19  2  0  0  0  0
 21 20  1  0  0  0  0
 21 23  2  0  0  0  0
 22 21  1  0  0  0  0
 23 25  1  0  0  0  0
 24 23  1  0  0  0  0
 25 26  2  0  0  0  0
 27 28  1  0  0  0  0
 28 30  2  0  0  0  0
 29 28  2  0  0  0  0
M  END
>  <minimizedAffinity>
-4.2013917

>  <minimizedRMSD>
3.44677901

$$$$
