
 OpenBabel03212520513D

 38 41  0  0  1  0  0  0  0  0999 V2000
   41.7020   83.8570   61.4040 C   0  0  0  0  0  0  0  0  0  0  0  0
   41.1310   84.2400   62.5940 C   0  0  0  0  0  0  0  0  0  0  0  0
   40.6880   83.2960   63.5200 C   0  0  0  0  0  0  0  0  0  0  0  0
   40.8160   81.9850   63.2540 N   0  0  0  0  0  0  0  0  0  0  0  0
   41.3810   81.6270   62.0760 C   0  0  0  0  0  0  0  0  0  0  0  0
   41.8170   82.5280   61.1690 N   0  0  0  0  0  0  0  0  0  0  0  0
   41.0280   85.3020   62.8090 H   0  0  0  0  0  0  0  0  0  0  0  0
   40.2450   83.6400   64.4440 H   0  0  0  0  0  0  0  0  0  0  0  0
   43.6260   86.4850   59.7310 C   0  0  0  0  0  0  0  0  0  0  0  0
   42.9410   86.6110   58.5260 C   0  0  0  0  0  0  0  0  0  0  0  0
   41.8360   85.8200   58.2700 C   0  0  0  0  0  0  0  0  0  0  0  0
   41.4860   84.9390   59.2570 N   0  0  0  0  0  0  0  0  0  0  0  0
   42.1610   84.8310   60.4150 C   0  0  0  0  0  0  0  0  0  0  0  0
   43.2220   85.5880   60.6640 N   0  0  0  0  0  0  0  0  0  0  0  0
   44.7320   87.3580   59.8420 N   0  0  0  0  0  0  0  0  0  0  0  0
   43.2030   87.3020   57.7350 H   0  0  0  0  0  0  0  0  0  0  0  0
   41.2840   85.8900   57.3540 H   0  0  0  0  0  0  0  0  0  0  0  0
   44.3480   88.2610   60.1910 H   0  0  0  0  0  0  0  0  0  0  0  0
   45.6190   86.8880   59.5570 H   0  0  0  0  0  0  0  0  0  0  0  0
   41.4780   80.1530   61.8150 C   0  0  1  0  0  0  0  0  0  0  0  0
   40.6910   79.2190   62.5860 C   0  0  0  0  0  0  0  0  0  0  0  0
   40.2220   79.5820   61.2110 C   0  0  2  0  0  0  0  0  0  0  0  0
   42.4500   79.8440   61.4070 H   0  0  0  0  0  0  0  0  0  0  0  0
   41.0790   78.2300   62.8400 H   0  0  0  0  0  0  0  0  0  0  0  0
   40.1210   79.6670   63.4520 H   0  0  0  0  0  0  0  0  0  0  0  0
   39.3290   80.2280   61.1620 H   0  0  0  0  0  0  0  0  0  0  0  0
   40.1100   78.6120   58.9440 C   0  0  0  0  0  0  0  0  0  0  0  0
   40.1780   78.4330   60.3120 C   0  0  0  0  0  0  0  0  0  0  0  0
   40.1960   77.0960   60.7060 C   0  0  0  0  0  0  0  0  0  0  0  0
   40.2490   76.8940   61.7680 H   0  0  0  0  0  0  0  0  0  0  0  0
   40.1540   76.0270   59.8490 C   0  0  0  0  0  0  0  0  0  0  0  0
   40.1710   75.0120   60.1910 H   0  0  0  0  0  0  0  0  0  0  0  0
   40.0870   76.2660   58.4930 C   0  0  0  0  0  3  0  0  0  0  0  0
   40.0650   77.5650   58.0380 C   0  0  0  0  0  3  0  0  0  0  0  0
   39.3970   81.1130   59.1070 H   0  0  0  0  0  0  0  0  0  0  0  0
   40.0790   80.2330   58.3230 S   0  0  0  0  0  0  0  0  0  0  0  0
   41.4760   80.7230   57.9870 O   0  0  0  0  0  0  0  0  0  0  0  0
   39.3390   80.2300   57.0040 O   0  0  0  0  0  0  0  0  0  0  0  0
  1  2  1  0  0  0  0
  2  7  1  0  0  0  0
  2  3  2  0  0  0  0
  3  8  1  0  0  0  0
  4  3  1  0  0  0  0
  5  4  2  0  0  0  0
  6  1  2  0  0  0  0
  6  5  1  0  0  0  0
  9 15  1  0  0  0  0
  9 14  1  0  0  0  0
 10  9  2  0  0  0  0
 11 10  1  0  0  0  0
 11 12  2  0  0  0  0
 12 13  1  0  0  0  0
 13 14  2  0  0  0  0
 13  1  1  0  0  0  0
 15 18  1  0  0  0  0
 16 10  1  0  0  0  0
 17 11  1  0  0  0  0
 19 15  1  0  0  0  0
 20 23  1  6  0  0  0
 20  5  1  0  0  0  0
 20 21  1  0  0  0  0
 21 24  1  0  0  0  0
 21 25  1  0  0  0  0
 22 26  1  6  0  0  0
 22 20  1  0  0  0  0
 22 21  1  0  0  0  0
 27 28  1  0  0  0  0
 28 29  2  0  0  0  0
 28 22  1  0  0  0  0
 29 30  1  0  0  0  0
 31 32  1  0  0  0  0
 31 29  1  0  0  0  0
 33 31  2  0  0  0  0
 34 33  1  0  0  0  0
 34 27  2  0  0  0  0
 36 27  1  0  0  0  0
 36 35  1  0  0  0  0
 37 36  2  0  0  0  0
 38 36  2  0  0  0  0
M  END
>  <minimizedAffinity>
-5.80000734

>  <minimizedRMSD>
0.355381608

$$$$
