
 OpenBabel03212520593D

 45 49  0  0  1  0  0  0  0  0999 V2000
   39.6740   77.1680   59.1350 C   0  0  0  0  0  0  0  0  0  0  0  0
   40.3140   75.9920   58.8950 C   0  0  0  0  0  0  0  0  0  0  0  0
   39.7410   75.2810   57.8280 C   0  0  0  0  0  0  0  0  0  0  0  0
   38.6780   75.7080   57.1170 N   0  0  0  0  0  0  0  0  0  0  0  0
   38.1130   76.9070   57.4450 C   0  0  0  0  0  0  0  0  0  0  0  0
   38.6130   77.6420   58.4600 N   0  0  0  0  0  0  0  0  0  0  0  0
   41.1670   75.6110   59.4370 H   0  0  0  0  0  0  0  0  0  0  0  0
   40.1520   74.3190   57.5250 H   0  0  0  0  0  0  0  0  0  0  0  0
   40.9650   80.1190   61.6370 C   0  0  0  0  0  0  0  0  0  0  0  0
   40.9310   78.8960   62.2560 C   0  0  0  0  0  0  0  0  0  0  0  0
   40.5210   77.8310   61.5370 C   0  0  0  0  0  0  0  0  0  0  0  0
   40.1540   78.0140   60.2100 C   0  0  0  0  0  0  0  0  0  0  0  0
   40.3980   79.8180   59.9380 S   0  0  0  0  0  0  0  0  0  0  0  0
   41.2200   78.7540   63.2990 H   0  0  0  0  0  0  0  0  0  0  0  0
   40.4230   76.7960   61.8300 H   0  0  0  0  0  0  0  0  0  0  0  0
   43.1120   82.8940   62.7260 C   0  0  0  0  0  0  0  0  0  0  0  0
   42.2340   83.6810   63.5040 C   0  0  0  0  0  0  0  0  0  0  0  0
   40.9150   83.2680   63.6500 C   0  0  0  0  0  0  0  0  0  0  0  0
   40.5200   82.1220   63.0400 N   0  0  0  0  0  0  0  0  0  0  0  0
   41.3910   81.3810   62.2950 C   0  0  0  0  0  0  0  0  0  0  0  0
   42.6570   81.7760   62.1530 N   0  0  0  0  0  0  0  0  0  0  0  0
   44.1420   83.1990   62.6000 H   0  0  0  0  0  0  0  0  0  0  0  0
   42.5780   84.5840   63.9730 H   0  0  0  0  0  0  0  0  0  0  0  0
   40.2100   83.8490   64.2420 H   0  0  0  0  0  0  0  0  0  0  0  0
   36.9750   77.3470   56.6620 C   0  0  0  0  0  0  0  0  0  0  0  0
   35.8460   77.0170   57.0560 O   0  0  0  0  0  0  0  0  0  0  0  0
   37.1320   78.1660   55.4080 C   0  0  1  0  0  0  0  0  0  0  0  0
   37.5880   79.5800   55.6740 C   0  0  0  0  0  0  0  0  0  0  0  0
   38.4490   78.6190   55.0010 C   0  0  2  0  0  0  0  0  0  0  0  0
   36.1990   78.1410   54.7890 H   0  0  0  0  0  0  0  0  0  0  0  0
   37.8340   79.8590   56.7450 H   0  0  0  0  0  0  0  0  0  0  0  0
   36.9590   80.3540   55.2210 H   0  0  0  0  0  0  0  0  0  0  0  0
   39.3260   78.2600   55.6360 H   0  0  0  0  0  0  0  0  0  0  0  0
   39.0080   77.5620   52.6790 C   0  0  0  0  0  0  0  0  0  0  0  0
   38.7410   78.5760   53.5620 C   0  0  0  0  0  0  0  0  0  0  0  0
   38.7550   79.8790   53.0430 C   0  0  0  0  0  0  0  0  0  0  0  0
   38.5660   80.8220   53.5810 H   0  0  0  0  0  0  0  0  0  0  0  0
   39.0290   80.1190   51.6970 C   0  0  0  0  0  0  0  0  0  0  0  0
   39.0500   81.1030   51.2500 H   0  0  0  0  0  0  0  0  0  0  0  0
   39.2930   79.0800   50.8420 C   0  0  0  0  0  3  0  0  0  0  0  0
   39.2790   77.7980   51.3510 C   0  0  0  0  0  3  0  0  0  0  0  0
   37.9160   75.7770   54.2360 H   0  0  0  0  0  0  0  0  0  0  0  0
   38.9440   75.9780   53.3910 S   0  0  0  0  0  0  0  0  0  0  0  0
   40.3050   75.6840   53.9790 O   0  0  0  0  0  0  0  0  0  0  0  0
   38.7850   74.9440   52.2750 O   0  0  0  0  0  0  0  0  0  0  0  0
  1 12  1  0  0  0  0
  2  1  1  0  0  0  0
  2  7  1  0  0  0  0
  3  2  2  0  0  0  0
  4  5  2  0  0  0  0
  4  3  1  0  0  0  0
  5  6  1  0  0  0  0
  6  1  2  0  0  0  0
  8  3  1  0  0  0  0
  9 10  2  0  0  0  0
  9 20  1  0  0  0  0
 10 14  1  0  0  0  0
 11 15  1  0  0  0  0
 11 10  1  0  0  0  0
 12 11  2  0  0  0  0
 13 12  1  0  0  0  0
 13  9  1  0  0  0  0
 16 17  1  0  0  0  0
 17 18  2  0  0  0  0
 17 23  1  0  0  0  0
 18 24  1  0  0  0  0
 19 18  1  0  0  0  0
 20 19  2  0  0  0  0
 21 20  1  0  0  0  0
 21 16  2  0  0  0  0
 22 16  1  0  0  0  0
 25 26  2  0  0  0  0
 25  5  1  0  0  0  0
 27 30  1  6  0  0  0
 27 28  1  0  0  0  0
 27 25  1  0  0  0  0
 28 31  1  0  0  0  0
 29 27  1  0  0  0  0
 29 33  1  1  0  0  0
 29 28  1  0  0  0  0
 32 28  1  0  0  0  0
 34 43  1  0  0  0  0
 34 35  1  0  0  0  0
 35 29  1  0  0  0  0
 36 35  2  0  0  0  0
 36 37  1  0  0  0  0
 38 36  1  0  0  0  0
 39 38  1  0  0  0  0
 40 41  1  0  0  0  0
 40 38  2  0  0  0  0
 41 34  2  0  0  0  0
 43 44  2  0  0  0  0
 43 42  1  0  0  0  0
 45 43  2  0  0  0  0
M  END
>  <minimizedAffinity>
-6.45829201

>  <minimizedRMSD>
0.682999909

$$$$
