
 OpenBabel03212520033D

 34 37  0  0  0  0  0  0  0  0999 V2000
   44.3360   74.2410   60.0360 C   0  0  0  0  0  0  0  0  0  0  0  0
   43.3580   75.0010   59.3500 C   0  0  0  0  0  0  0  0  0  0  0  0
   42.0620   74.5160   59.3450 C   0  0  0  0  0  0  0  0  0  0  0  0
   41.7830   73.3550   59.9860 N   0  0  0  0  0  0  0  0  0  0  0  0
   42.7490   72.6410   60.6410 C   0  0  0  0  0  0  0  0  0  0  0  0
   44.0210   73.0910   60.6600 N   0  0  0  0  0  0  0  0  0  0  0  0
   45.3770   74.5270   60.1030 H   0  0  0  0  0  0  0  0  0  0  0  0
   43.7550   75.8750   58.9110 H   0  0  0  0  0  0  0  0  0  0  0  0
   42.1180   71.4540   62.6860 C   0  0  0  0  0  0  0  0  0  0  0  0
   42.4170   71.4020   61.3110 C   0  0  0  0  0  0  0  0  0  0  0  0
   42.3940   70.2000   60.6540 C   0  0  0  0  0  0  0  0  0  0  0  0
   42.0840   69.0220   61.3020 C   0  0  0  0  0  0  0  0  0  0  0  0
   41.9780   67.7170   60.9670 N   0  0  0  0  0  0  0  0  0  0  0  0
   41.6360   66.9910   62.0530 C   0  0  0  0  0  0  0  0  0  0  0  0
   41.5330   67.8860   63.0700 N   0  0  0  0  0  0  0  0  0  0  0  0
   41.8010   69.1350   62.6390 C   0  0  0  0  0  0  0  0  0  0  0  0
   41.8000   70.3010   63.3780 C   0  0  0  0  0  0  0  0  0  0  0  0
   42.1420   72.4100   63.1770 H   0  0  0  0  0  0  0  0  0  0  0  0
   42.6140   70.1120   59.6000 H   0  0  0  0  0  0  0  0  0  0  0  0
   42.1410   67.3390   60.0040 H   0  0  0  0  0  0  0  0  0  0  0  0
   41.4840   65.9220   62.0660 H   0  0  0  0  0  0  0  0  0  0  0  0
   41.5680   70.3260   64.4290 H   0  0  0  0  0  0  0  0  0  0  0  0
   39.9500   75.8600   59.2150 C   0  0  0  0  0  0  0  0  0  0  0  0
   41.0590   75.2890   58.6350 C   0  0  0  0  0  0  0  0  0  0  0  0
   41.1250   75.5190   57.2830 C   0  0  0  0  0  0  0  0  0  0  0  0
   41.9290   75.1440   56.6700 H   0  0  0  0  0  0  0  0  0  0  0  0
   40.2020   76.2390   56.5570 C   0  0  0  0  0  0  0  0  0  0  0  0
   40.2710   76.4100   55.4960 H   0  0  0  0  0  0  0  0  0  0  0  0
   39.1210   76.7850   57.1830 C   0  0  0  0  0  3  0  0  0  0  0  0
   38.9930   76.5900   58.5410 C   0  0  0  0  0  3  0  0  0  0  0  0
   40.8080   75.0230   61.4720 H   0  0  0  0  0  0  0  0  0  0  0  0
   39.7150   75.6570   60.9530 S   0  0  0  0  0  0  0  0  0  0  0  0
   39.6820   77.0150   61.6440 O   0  0  0  0  0  0  0  0  0  0  0  0
   38.4470   74.9290   61.2670 O   0  0  0  0  0  0  0  0  0  0  0  0
  1  7  1  0  0  0  0
  1  6  1  0  0  0  0
  2  1  2  0  0  0  0
  3  2  1  0  0  0  0
  3  4  2  0  0  0  0
  4  5  1  0  0  0  0
  5  6  2  0  0  0  0
  5 10  1  0  0  0  0
  8  2  1  0  0  0  0
  9 18  1  0  0  0  0
  9 17  1  0  0  0  0
 10  9  2  0  0  0  0
 11 12  2  0  0  0  0
 11 10  1  0  0  0  0
 12 16  1  0  0  0  0
 13 12  1  0  0  0  0
 13 14  1  0  0  0  0
 14 21  1  0  0  0  0
 14 15  2  0  0  0  0
 16 15  1  0  0  0  0
 16 17  2  0  0  0  0
 17 22  1  0  0  0  0
 19 11  1  0  0  0  0
 20 13  1  0  0  0  0
 23 32  1  0  0  0  0
 24 23  1  0  0  0  0
 24  3  1  0  0  0  0
 25 24  2  0  0  0  0
 26 25  1  0  0  0  0
 27 29  2  0  0  0  0
 27 25  1  0  0  0  0
 28 27  1  0  0  0  0
 29 30  1  0  0  0  0
 30 23  2  0  0  0  0
 32 34  2  0  0  0  0
 32 31  1  0  0  0  0
 32 33  2  0  0  0  0
M  END
>  <minimizedAffinity>
-6.45981407

$$$$

 OpenBabel03212520033D

 34 37  0  0  0  0  0  0  0  0999 V2000
   44.3980   74.0450   59.8200 C   0  0  0  0  0  0  0  0  0  0  0  0
   43.4140   74.9520   59.3600 C   0  0  0  0  0  0  0  0  0  0  0  0
   42.0890   74.6260   59.5910 C   0  0  0  0  0  0  0  0  0  0  0  0
   41.7910   73.4730   60.2370 N   0  0  0  0  0  0  0  0  0  0  0  0
   42.7640   72.6140   60.6700 C   0  0  0  0  0  0  0  0  0  0  0  0
   44.0630   72.9090   60.4570 N   0  0  0  0  0  0  0  0  0  0  0  0
   45.4610   74.2010   59.6930 H   0  0  0  0  0  0  0  0  0  0  0  0
   43.8300   75.7960   58.8800 H   0  0  0  0  0  0  0  0  0  0  0  0
   42.0430   71.4710   62.7100 C   0  0  0  0  0  0  0  0  0  0  0  0
   42.4080   71.3890   61.3530 C   0  0  0  0  0  0  0  0  0  0  0  0
   42.4260   70.1710   60.7250 C   0  0  0  0  0  0  0  0  0  0  0  0
   42.0950   69.0060   61.3850 C   0  0  0  0  0  0  0  0  0  0  0  0
   42.0140   67.6930   61.0770 N   0  0  0  0  0  0  0  0  0  0  0  0
   41.6250   66.9900   62.1620 C   0  0  0  0  0  0  0  0  0  0  0  0
   41.4670   67.9080   63.1510 N   0  0  0  0  0  0  0  0  0  0  0  0
   41.7470   69.1480   62.7040 C   0  0  0  0  0  0  0  0  0  0  0  0
   41.7010   70.3320   63.4140 C   0  0  0  0  0  0  0  0  0  0  0  0
   42.0370   72.4380   63.1800 H   0  0  0  0  0  0  0  0  0  0  0  0
   42.6970   70.0600   59.6850 H   0  0  0  0  0  0  0  0  0  0  0  0
   42.2260   67.2940   60.1330 H   0  0  0  0  0  0  0  0  0  0  0  0
   41.4810   65.9200   62.1940 H   0  0  0  0  0  0  0  0  0  0  0  0
   41.4190   70.3800   64.4520 H   0  0  0  0  0  0  0  0  0  0  0  0
   40.3250   75.3720   57.9740 C   0  0  0  0  0  0  0  0  0  0  0  0
   41.0770   75.5500   59.1120 C   0  0  0  0  0  0  0  0  0  0  0  0
   40.7770   76.7200   59.7640 C   0  0  0  0  0  0  0  0  0  0  0  0
   41.2710   77.0180   60.6750 H   0  0  0  0  0  0  0  0  0  0  0  0
   39.8330   77.6350   59.3550 C   0  0  0  0  0  0  0  0  0  0  0  0
   39.6100   78.5470   59.8810 H   0  0  0  0  0  0  0  0  0  0  0  0
   39.1140   77.4080   58.2180 C   0  0  0  0  0  3  0  0  0  0  0  0
   39.3670   76.2510   57.5140 C   0  0  0  0  0  3  0  0  0  0  0  0
   41.8880   73.5180   57.1650 H   0  0  0  0  0  0  0  0  0  0  0  0
   40.5880   73.9130   57.0150 S   0  0  0  0  0  0  0  0  0  0  0  0
   39.7590   72.7600   57.5670 O   0  0  0  0  0  0  0  0  0  0  0  0
   40.2310   74.1130   55.5770 O   0  0  0  0  0  0  0  0  0  0  0  0
  1  6  1  0  0  0  0
  2  3  1  0  0  0  0
  2  1  2  0  0  0  0
  3  4  2  0  0  0  0
  4  5  1  0  0  0  0
  5 10  1  0  0  0  0
  6  5  2  0  0  0  0
  7  1  1  0  0  0  0
  8  2  1  0  0  0  0
  9 18  1  0  0  0  0
  9 17  1  0  0  0  0
 10  9  2  0  0  0  0
 11 10  1  0  0  0  0
 11 12  2  0  0  0  0
 12 16  1  0  0  0  0
 13 12  1  0  0  0  0
 13 14  1  0  0  0  0
 14 21  1  0  0  0  0
 14 15  2  0  0  0  0
 16 15  1  0  0  0  0
 16 17  2  0  0  0  0
 17 22  1  0  0  0  0
 19 11  1  0  0  0  0
 20 13  1  0  0  0  0
 23 24  1  0  0  0  0
 24  3  1  0  0  0  0
 24 25  2  0  0  0  0
 25 26  1  0  0  0  0
 27 25  1  0  0  0  0
 27 28  1  0  0  0  0
 29 27  2  0  0  0  0
 30 23  2  0  0  0  0
 30 29  1  0  0  0  0
 32 31  1  0  0  0  0
 32 33  2  0  0  0  0
 32 23  1  0  0  0  0
 34 32  2  0  0  0  0
M  END
>  <minimizedAffinity>
-6.13704681

$$$$

 OpenBabel03212520033D

 34 37  0  0  0  0  0  0  0  0999 V2000
   43.3780   73.2500   60.2480 C   0  0  0  0  0  0  0  0  0  0  0  0
   43.2800   71.8410   60.3480 C   0  0  0  0  0  0  0  0  0  0  0  0
   42.1330   71.2460   59.8550 C   0  0  0  0  0  0  0  0  0  0  0  0
   41.1660   72.0190   59.3040 N   0  0  0  0  0  0  0  0  0  0  0  0
   41.2870   73.3790   59.2210 C   0  0  0  0  0  0  0  0  0  0  0  0
   42.3960   73.9850   59.6950 N   0  0  0  0  0  0  0  0  0  0  0  0
   44.2290   73.8170   60.6010 H   0  0  0  0  0  0  0  0  0  0  0  0
   44.1270   71.4060   60.8040 H   0  0  0  0  0  0  0  0  0  0  0  0
   39.9130   75.4040   59.2370 C   0  0  0  0  0  0  0  0  0  0  0  0
   40.2330   74.1740   58.6310 C   0  0  0  0  0  0  0  0  0  0  0  0
   39.5440   73.7630   57.5190 C   0  0  0  0  0  0  0  0  0  0  0  0
   38.5340   74.5220   56.9660 C   0  0  0  0  0  0  0  0  0  0  0  0
   37.6860   74.4150   55.9190 N   0  0  0  0  0  0  0  0  0  0  0  0
   36.8850   75.5010   55.8630 C   0  0  0  0  0  0  0  0  0  0  0  0
   37.2620   76.2830   56.9090 N   0  0  0  0  0  0  0  0  0  0  0  0
   38.2680   75.7100   57.5990 C   0  0  0  0  0  0  0  0  0  0  0  0
   38.9100   76.2010   58.7190 C   0  0  0  0  0  0  0  0  0  0  0  0
   40.4690   75.7030   60.1070 H   0  0  0  0  0  0  0  0  0  0  0  0
   39.7550   72.8290   57.0190 H   0  0  0  0  0  0  0  0  0  0  0  0
   37.6650   73.6050   55.2570 H   0  0  0  0  0  0  0  0  0  0  0  0
   36.1160   75.6720   55.1240 H   0  0  0  0  0  0  0  0  0  0  0  0
   38.6560   77.1440   59.1710 H   0  0  0  0  0  0  0  0  0  0  0  0
   42.2570   69.0810   61.1130 C   0  0  0  0  0  0  0  0  0  0  0  0
   42.0260   69.8020   59.9640 C   0  0  0  0  0  0  0  0  0  0  0  0
   41.6840   69.0040   58.9010 C   0  0  0  0  0  0  0  0  0  0  0  0
   41.4680   69.4030   57.9230 H   0  0  0  0  0  0  0  0  0  0  0  0
   41.5730   67.6320   58.9450 C   0  0  0  0  0  0  0  0  0  0  0  0
   41.3020   67.0220   58.1000 H   0  0  0  0  0  0  0  0  0  0  0  0
   41.8120   66.9680   60.1120 C   0  0  0  0  0  3  0  0  0  0  0  0
   42.1610   67.7100   61.2190 C   0  0  0  0  0  3  0  0  0  0  0  0
   43.3290   71.1230   62.2160 H   0  0  0  0  0  0  0  0  0  0  0  0
   42.7090   69.9600   62.5770 S   0  0  0  0  0  0  0  0  0  0  0  0
   41.4620   70.3970   63.3380 O   0  0  0  0  0  0  0  0  0  0  0  0
   43.5600   69.1340   63.4870 O   0  0  0  0  0  0  0  0  0  0  0  0
  1  2  1  0  0  0  0
  1  7  1  0  0  0  0
  2  8  1  0  0  0  0
  3 24  1  0  0  0  0
  3  2  2  0  0  0  0
  4  3  1  0  0  0  0
  5  4  2  0  0  0  0
  5  6  1  0  0  0  0
  6  1  2  0  0  0  0
  9 18  1  0  0  0  0
 10  5  1  0  0  0  0
 10  9  2  0  0  0  0
 11 10  1  0  0  0  0
 12 11  2  0  0  0  0
 12 16  1  0  0  0  0
 13 12  1  0  0  0  0
 14 13  1  0  0  0  0
 14 15  2  0  0  0  0
 15 16  1  0  0  0  0
 16 17  2  0  0  0  0
 17 22  1  0  0  0  0
 17  9  1  0  0  0  0
 19 11  1  0  0  0  0
 20 13  1  0  0  0  0
 21 14  1  0  0  0  0
 23 30  1  0  0  0  0
 23 32  1  0  0  0  0
 24 23  2  0  0  0  0
 25 27  2  0  0  0  0
 25 24  1  0  0  0  0
 26 25  1  0  0  0  0
 27 29  1  0  0  0  0
 28 27  1  0  0  0  0
 29 30  2  0  0  0  0
 31 32  1  0  0  0  0
 32 33  2  0  0  0  0
 32 34  2  0  0  0  0
M  END
>  <minimizedAffinity>
-6.10541153

$$$$

 OpenBabel03212520033D

 34 37  0  0  0  0  0  0  0  0999 V2000
   41.8550   71.6290   57.2450 C   0  0  0  0  0  0  0  0  0  0  0  0
   41.6750   72.9940   57.5740 C   0  0  0  0  0  0  0  0  0  0  0  0
   41.6910   73.3330   58.9160 C   0  0  0  0  0  0  0  0  0  0  0  0
   41.8770   72.3650   59.8450 N   0  0  0  0  0  0  0  0  0  0  0  0
   42.0480   71.0530   59.4980 C   0  0  0  0  0  0  0  0  0  0  0  0
   42.0360   70.6950   58.1970 N   0  0  0  0  0  0  0  0  0  0  0  0
   41.8590   71.2540   56.2310 H   0  0  0  0  0  0  0  0  0  0  0  0
   41.5450   73.6040   56.7230 H   0  0  0  0  0  0  0  0  0  0  0  0
   42.8840   70.4240   61.7100 C   0  0  0  0  0  0  0  0  0  0  0  0
   42.2400   70.0440   60.5170 C   0  0  0  0  0  0  0  0  0  0  0  0
   41.8250   68.7490   60.3500 C   0  0  0  0  0  0  0  0  0  0  0  0
   42.0190   67.7900   61.3220 C   0  0  0  0  0  0  0  0  0  0  0  0
   41.7470   66.4750   61.4720 N   0  0  0  0  0  0  0  0  0  0  0  0
   42.1870   66.0490   62.6760 C   0  0  0  0  0  0  0  0  0  0  0  0
   42.7390   67.1410   63.2670 N   0  0  0  0  0  0  0  0  0  0  0  0
   42.6500   68.2190   62.4620 C   0  0  0  0  0  0  0  0  0  0  0  0
   43.0990   69.5000   62.7150 C   0  0  0  0  0  0  0  0  0  0  0  0
   43.1990   71.4470   61.8170 H   0  0  0  0  0  0  0  0  0  0  0  0
   41.3260   68.4120   59.4530 H   0  0  0  0  0  0  0  0  0  0  0  0
   41.2660   65.8860   60.7530 H   0  0  0  0  0  0  0  0  0  0  0  0
   42.0970   65.0410   63.0520 H   0  0  0  0  0  0  0  0  0  0  0  0
   43.5890   69.7770   63.6330 H   0  0  0  0  0  0  0  0  0  0  0  0
   40.3330   75.2640   59.7600 C   0  0  0  0  0  0  0  0  0  0  0  0
   41.4970   74.7310   59.2560 C   0  0  0  0  0  0  0  0  0  0  0  0
   42.4820   75.6740   59.0950 C   0  0  0  0  0  0  0  0  0  0  0  0
   43.4600   75.4310   58.7110 H   0  0  0  0  0  0  0  0  0  0  0  0
   42.3530   77.0120   59.3950 C   0  0  0  0  0  0  0  0  0  0  0  0
   43.1380   77.7380   59.2630 H   0  0  0  0  0  0  0  0  0  0  0  0
   41.1760   77.4870   59.8930 C   0  0  0  0  0  3  0  0  0  0  0  0
   40.1450   76.5920   60.0790 C   0  0  0  0  0  3  0  0  0  0  0  0
   39.4370   72.9150   60.2230 H   0  0  0  0  0  0  0  0  0  0  0  0
   38.9630   74.1820   60.0280 S   0  0  0  0  0  0  0  0  0  0  0  0
   38.2520   74.5410   61.3270 O   0  0  0  0  0  0  0  0  0  0  0  0
   37.9740   74.2400   58.9090 O   0  0  0  0  0  0  0  0  0  0  0  0
  1  2  2  0  0  0  0
  1  6  1  0  0  0  0
  2  3  1  0  0  0  0
  3 24  1  0  0  0  0
  3  4  2  0  0  0  0
  5  4  1  0  0  0  0
  5 10  1  0  0  0  0
  6  5  2  0  0  0  0
  7  1  1  0  0  0  0
  8  2  1  0  0  0  0
  9 18  1  0  0  0  0
  9 17  1  0  0  0  0
 10  9  2  0  0  0  0
 11 10  1  0  0  0  0
 11 12  2  0  0  0  0
 12 13  1  0  0  0  0
 12 16  1  0  0  0  0
 13 14  1  0  0  0  0
 14 21  1  0  0  0  0
 14 15  2  0  0  0  0
 16 17  2  0  0  0  0
 16 15  1  0  0  0  0
 17 22  1  0  0  0  0
 19 11  1  0  0  0  0
 20 13  1  0  0  0  0
 23 32  1  0  0  0  0
 23 30  1  0  0  0  0
 24 23  2  0  0  0  0
 25 24  1  0  0  0  0
 25 27  2  0  0  0  0
 26 25  1  0  0  0  0
 27 29  1  0  0  0  0
 28 27  1  0  0  0  0
 29 30  2  0  0  0  0
 32 31  1  0  0  0  0
 32 33  2  0  0  0  0
 34 32  2  0  0  0  0
M  END
>  <minimizedAffinity>
-6.10276413

$$$$

 OpenBabel03212520033D

 34 37  0  0  0  0  0  0  0  0999 V2000
   43.6200   74.0010   59.9650 C   0  0  0  0  0  0  0  0  0  0  0  0
   43.4720   72.7770   60.6620 C   0  0  0  0  0  0  0  0  0  0  0  0
   42.2180   72.1910   60.6610 C   0  0  0  0  0  0  0  0  0  0  0  0
   41.2000   72.7980   60.0040 N   0  0  0  0  0  0  0  0  0  0  0  0
   41.3720   73.9810   59.3390 C   0  0  0  0  0  0  0  0  0  0  0  0
   42.5840   74.5740   59.3250 N   0  0  0  0  0  0  0  0  0  0  0  0
   44.5530   74.5440   59.9020 H   0  0  0  0  0  0  0  0  0  0  0  0
   44.3700   72.4540   61.1120 H   0  0  0  0  0  0  0  0  0  0  0  0
   39.8870   75.9030   59.0420 C   0  0  0  0  0  0  0  0  0  0  0  0
   40.2610   74.6030   58.6520 C   0  0  0  0  0  0  0  0  0  0  0  0
   39.5720   73.9670   57.6520 C   0  0  0  0  0  0  0  0  0  0  0  0
   38.5090   74.5630   57.0070 C   0  0  0  0  0  0  0  0  0  0  0  0
   37.6460   74.2280   56.0220 N   0  0  0  0  0  0  0  0  0  0  0  0
   36.7830   75.2440   55.8030 C   0  0  0  0  0  0  0  0  0  0  0  0
   37.1390   76.2180   56.6810 N   0  0  0  0  0  0  0  0  0  0  0  0
   38.1910   75.8280   57.4290 C   0  0  0  0  0  0  0  0  0  0  0  0
   38.8290   76.5430   58.4250 C   0  0  0  0  0  0  0  0  0  0  0  0
   40.4440   76.3800   59.8280 H   0  0  0  0  0  0  0  0  0  0  0  0
   39.8250   72.9710   57.3180 H   0  0  0  0  0  0  0  0  0  0  0  0
   37.6560   73.3130   55.5140 H   0  0  0  0  0  0  0  0  0  0  0  0
   35.9900   75.2410   55.0700 H   0  0  0  0  0  0  0  0  0  0  0  0
   38.5320   77.5360   58.7120 H   0  0  0  0  0  0  0  0  0  0  0  0
   42.0310   69.6950   60.7990 C   0  0  0  0  0  0  0  0  0  0  0  0
   42.0620   70.9410   61.3820 C   0  0  0  0  0  0  0  0  0  0  0  0
   41.9200   70.8880   62.7460 C   0  0  0  0  0  0  0  0  0  0  0  0
   41.9220   71.7720   63.3640 H   0  0  0  0  0  0  0  0  0  0  0  0
   41.7630   69.7340   63.4820 C   0  0  0  0  0  0  0  0  0  0  0  0
   41.6540   69.7120   64.5530 H   0  0  0  0  0  0  0  0  0  0  0  0
   41.7400   68.5250   62.8520 C   0  0  0  0  0  3  0  0  0  0  0  0
   41.8770   68.5070   61.4810 C   0  0  0  0  0  3  0  0  0  0  0  0
   42.8900   70.6800   58.6020 H   0  0  0  0  0  0  0  0  0  0  0  0
   42.2010   69.5860   59.0450 S   0  0  0  0  0  0  0  0  0  0  0  0
   43.0730   68.3930   58.6710 O   0  0  0  0  0  0  0  0  0  0  0  0
   40.8790   69.4460   58.3600 O   0  0  0  0  0  0  0  0  0  0  0  0
  1  2  1  0  0  0  0
  2  8  1  0  0  0  0
  3  2  2  0  0  0  0
  3 24  1  0  0  0  0
  4  3  1  0  0  0  0
  5  4  2  0  0  0  0
  6  5  1  0  0  0  0
  6  1  2  0  0  0  0
  7  1  1  0  0  0  0
  9 18  1  0  0  0  0
 10  9  1  0  0  0  0
 10  5  1  0  0  0  0
 11 10  2  0  0  0  0
 12 16  2  0  0  0  0
 12 11  1  0  0  0  0
 13 12  1  0  0  0  0
 14 13  1  0  0  0  0
 14 15  2  0  0  0  0
 15 16  1  0  0  0  0
 16 17  1  0  0  0  0
 17 22  1  0  0  0  0
 17  9  2  0  0  0  0
 19 11  1  0  0  0  0
 20 13  1  0  0  0  0
 21 14  1  0  0  0  0
 23 24  2  0  0  0  0
 23 30  1  0  0  0  0
 24 25  1  0  0  0  0
 25 26  1  0  0  0  0
 25 27  2  0  0  0  0
 27 28  1  0  0  0  0
 29 27  1  0  0  0  0
 30 29  2  0  0  0  0
 31 32  1  0  0  0  0
 32 23  1  0  0  0  0
 33 32  2  0  0  0  0
 34 32  2  0  0  0  0
M  END
>  <minimizedAffinity>
-6.04157066

$$$$

 OpenBabel03212520033D

 34 37  0  0  0  0  0  0  0  0999 V2000
   42.0380   72.3460   62.6730 C   0  0  0  0  0  0  0  0  0  0  0  0
   42.4120   71.0520   62.2340 C   0  0  0  0  0  0  0  0  0  0  0  0
   41.9690   70.6510   60.9860 C   0  0  0  0  0  0  0  0  0  0  0  0
   41.2120   71.4960   60.2450 N   0  0  0  0  0  0  0  0  0  0  0  0
   40.8660   72.7400   60.6960 C   0  0  0  0  0  0  0  0  0  0  0  0
   41.2830   73.1560   61.9090 N   0  0  0  0  0  0  0  0  0  0  0  0
   42.3280   72.7590   63.6300 H   0  0  0  0  0  0  0  0  0  0  0  0
   43.0020   70.5370   62.9410 H   0  0  0  0  0  0  0  0  0  0  0  0
   40.2080   75.0040   60.0400 C   0  0  0  0  0  0  0  0  0  0  0  0
   40.0510   73.6150   59.8790 C   0  0  0  0  0  0  0  0  0  0  0  0
   39.1410   73.1320   58.9750 C   0  0  0  0  0  0  0  0  0  0  0  0
   38.3620   73.9710   58.2070 C   0  0  0  0  0  0  0  0  0  0  0  0
   37.4060   73.8310   57.2620 N   0  0  0  0  0  0  0  0  0  0  0  0
   36.9850   75.0460   56.8510 C   0  0  0  0  0  0  0  0  0  0  0  0
   37.7100   75.9430   57.5700 N   0  0  0  0  0  0  0  0  0  0  0  0
   38.5590   75.3130   58.4060 C   0  0  0  0  0  0  0  0  0  0  0  0
   39.4510   75.8860   59.2910 C   0  0  0  0  0  0  0  0  0  0  0  0
   40.9290   75.3570   60.7550 H   0  0  0  0  0  0  0  0  0  0  0  0
   38.9880   72.0740   58.8170 H   0  0  0  0  0  0  0  0  0  0  0  0
   37.0530   72.9100   56.9110 H   0  0  0  0  0  0  0  0  0  0  0  0
   36.2270   75.2240   56.1030 H   0  0  0  0  0  0  0  0  0  0  0  0
   39.5610   76.9510   59.4020 H   0  0  0  0  0  0  0  0  0  0  0  0
   43.3930   69.0440   59.6920 C   0  0  0  0  0  0  0  0  0  0  0  0
   42.3440   69.3230   60.5370 C   0  0  0  0  0  0  0  0  0  0  0  0
   41.6610   68.1940   60.9190 C   0  0  0  0  0  0  0  0  0  0  0  0
   40.8100   68.2280   61.5800 H   0  0  0  0  0  0  0  0  0  0  0  0
   41.9670   66.9110   60.5210 C   0  0  0  0  0  0  0  0  0  0  0  0
   41.4210   66.0380   60.8320 H   0  0  0  0  0  0  0  0  0  0  0  0
   43.0200   66.6930   59.6830 C   0  0  0  0  0  3  0  0  0  0  0  0
   43.7480   67.7840   59.2600 C   0  0  0  0  0  3  0  0  0  0  0  0
   44.1960   71.4590   59.9370 H   0  0  0  0  0  0  0  0  0  0  0  0
   44.3760   70.3890   59.1050 S   0  0  0  0  0  0  0  0  0  0  0  0
   45.8580   70.0480   59.2160 O   0  0  0  0  0  0  0  0  0  0  0  0
   44.0680   70.7320   57.6830 O   0  0  0  0  0  0  0  0  0  0  0  0
  1  7  1  0  0  0  0
  2  1  1  0  0  0  0
  2  8  1  0  0  0  0
  3  2  2  0  0  0  0
  4  5  2  0  0  0  0
  4  3  1  0  0  0  0
  5  6  1  0  0  0  0
  6  1  2  0  0  0  0
  9 18  1  0  0  0  0
 10  9  1  0  0  0  0
 10  5  1  0  0  0  0
 11 10  2  0  0  0  0
 12 16  2  0  0  0  0
 12 11  1  0  0  0  0
 13 12  1  0  0  0  0
 14 13  1  0  0  0  0
 14 15  2  0  0  0  0
 15 16  1  0  0  0  0
 16 17  1  0  0  0  0
 17 22  1  0  0  0  0
 17  9  2  0  0  0  0
 19 11  1  0  0  0  0
 20 13  1  0  0  0  0
 21 14  1  0  0  0  0
 23 24  1  0  0  0  0
 24 25  2  0  0  0  0
 24  3  1  0  0  0  0
 25 26  1  0  0  0  0
 27 28  1  0  0  0  0
 27 25  1  0  0  0  0
 29 27  2  0  0  0  0
 30 29  1  0  0  0  0
 30 23  2  0  0  0  0
 32 33  2  0  0  0  0
 32 23  1  0  0  0  0
 32 31  1  0  0  0  0
 34 32  2  0  0  0  0
M  END
>  <minimizedAffinity>
-5.86124945

$$$$

 OpenBabel03212520033D

 34 37  0  0  0  0  0  0  0  0999 V2000
   42.3920   70.5150   56.8380 C   0  0  0  0  0  0  0  0  0  0  0  0
   42.6110   69.9360   58.1120 C   0  0  0  0  0  0  0  0  0  0  0  0
   41.7950   70.3510   59.1490 C   0  0  0  0  0  0  0  0  0  0  0  0
   40.8350   71.2770   58.9100 N   0  0  0  0  0  0  0  0  0  0  0  0
   40.6470   71.8200   57.6690 C   0  0  0  0  0  0  0  0  0  0  0  0
   41.4290   71.4330   56.6410 N   0  0  0  0  0  0  0  0  0  0  0  0
   42.9710   70.2630   55.9590 H   0  0  0  0  0  0  0  0  0  0  0  0
   43.3990   69.2340   58.1100 H   0  0  0  0  0  0  0  0  0  0  0  0
   39.0030   73.3880   58.5800 C   0  0  0  0  0  0  0  0  0  0  0  0
   39.6140   72.8110   57.4510 C   0  0  0  0  0  0  0  0  0  0  0  0
   39.2190   73.1890   56.1950 C   0  0  0  0  0  0  0  0  0  0  0  0
   38.2280   74.1270   55.9940 C   0  0  0  0  0  0  0  0  0  0  0  0
   37.6200   74.7010   54.9320 N   0  0  0  0  0  0  0  0  0  0  0  0
   36.6880   75.5810   55.3570 C   0  0  0  0  0  0  0  0  0  0  0  0
   36.7380   75.5350   56.7150 N   0  0  0  0  0  0  0  0  0  0  0  0
   37.6700   74.6550   57.1310 C   0  0  0  0  0  0  0  0  0  0  0  0
   38.0070   74.3340   58.4310 C   0  0  0  0  0  0  0  0  0  0  0  0
   39.3320   73.0750   59.5550 H   0  0  0  0  0  0  0  0  0  0  0  0
   39.6600   72.7750   55.3000 H   0  0  0  0  0  0  0  0  0  0  0  0
   37.8480   74.4860   53.9340 H   0  0  0  0  0  0  0  0  0  0  0  0
   36.0570   76.1790   54.7170 H   0  0  0  0  0  0  0  0  0  0  0  0
   37.5320   74.7840   59.2850 H   0  0  0  0  0  0  0  0  0  0  0  0
   42.3960   70.4690   61.5800 C   0  0  0  0  0  0  0  0  0  0  0  0
   42.0230   69.7660   60.4570 C   0  0  0  0  0  0  0  0  0  0  0  0
   41.8910   68.4210   60.6980 C   0  0  0  0  0  0  0  0  0  0  0  0
   41.6040   67.7200   59.9300 H   0  0  0  0  0  0  0  0  0  0  0  0
   42.0990   67.8100   61.9150 C   0  0  0  0  0  0  0  0  0  0  0  0
   41.9890   66.7520   62.0850 H   0  0  0  0  0  0  0  0  0  0  0  0
   42.4660   68.5560   62.9950 C   0  0  0  0  0  3  0  0  0  0  0  0
   42.6180   69.9140   62.8220 C   0  0  0  0  0  3  0  0  0  0  0  0
   41.5280   72.7400   60.7890 H   0  0  0  0  0  0  0  0  0  0  0  0
   42.6100   72.2160   61.4410 S   0  0  0  0  0  0  0  0  0  0  0  0
   42.5900   72.8630   62.8210 O   0  0  0  0  0  0  0  0  0  0  0  0
   43.8940   72.5730   60.7640 O   0  0  0  0  0  0  0  0  0  0  0  0
  1  2  1  0  0  0  0
  2  3  2  0  0  0  0
  3 24  1  0  0  0  0
  4  3  1  0  0  0  0
  5  4  2  0  0  0  0
  6  1  2  0  0  0  0
  6  5  1  0  0  0  0
  7  1  1  0  0  0  0
  8  2  1  0  0  0  0
  9 18  1  0  0  0  0
 10  5  1  0  0  0  0
 10  9  2  0  0  0  0
 11 10  1  0  0  0  0
 12 11  2  0  0  0  0
 12 16  1  0  0  0  0
 13 14  1  0  0  0  0
 13 12  1  0  0  0  0
 14 15  2  0  0  0  0
 15 16  1  0  0  0  0
 16 17  2  0  0  0  0
 17  9  1  0  0  0  0
 17 22  1  0  0  0  0
 19 11  1  0  0  0  0
 20 13  1  0  0  0  0
 21 14  1  0  0  0  0
 23 30  1  0  0  0  0
 24 25  1  0  0  0  0
 24 23  2  0  0  0  0
 25 27  2  0  0  0  0
 26 25  1  0  0  0  0
 27 28  1  0  0  0  0
 27 29  1  0  0  0  0
 30 29  2  0  0  0  0
 31 32  1  0  0  0  0
 32 23  1  0  0  0  0
 32 33  2  0  0  0  0
 34 32  2  0  0  0  0
M  END
>  <minimizedAffinity>
-5.85932493

$$$$

 OpenBabel03212520033D

 34 37  0  0  0  0  0  0  0  0999 V2000
   43.2920   73.0270   60.6530 C   0  0  0  0  0  0  0  0  0  0  0  0
   43.1760   71.6290   60.8420 C   0  0  0  0  0  0  0  0  0  0  0  0
   42.0280   71.0150   60.3730 C   0  0  0  0  0  0  0  0  0  0  0  0
   41.0770   71.7610   59.7620 N   0  0  0  0  0  0  0  0  0  0  0  0
   41.2150   73.1110   59.5930 C   0  0  0  0  0  0  0  0  0  0  0  0
   42.3240   73.7350   60.0420 N   0  0  0  0  0  0  0  0  0  0  0  0
   44.1450   73.6070   60.9800 H   0  0  0  0  0  0  0  0  0  0  0  0
   44.0120   71.2150   61.3370 H   0  0  0  0  0  0  0  0  0  0  0  0
   39.9820   75.2110   59.3470 C   0  0  0  0  0  0  0  0  0  0  0  0
   40.1770   73.8780   58.9390 C   0  0  0  0  0  0  0  0  0  0  0  0
   39.3860   73.3450   57.9540 C   0  0  0  0  0  0  0  0  0  0  0  0
   38.3930   74.0790   57.3400 C   0  0  0  0  0  0  0  0  0  0  0  0
   37.4700   73.8670   56.3760 N   0  0  0  0  0  0  0  0  0  0  0  0
   36.7400   74.9870   56.1850 C   0  0  0  0  0  0  0  0  0  0  0  0
   37.2400   75.8990   57.0610 N   0  0  0  0  0  0  0  0  0  0  0  0
   38.2510   75.3710   57.7780 C   0  0  0  0  0  0  0  0  0  0  0  0
   39.0010   75.9880   58.7610 C   0  0  0  0  0  0  0  0  0  0  0  0
   40.6160   75.6050   60.1210 H   0  0  0  0  0  0  0  0  0  0  0  0
   39.5010   72.3280   57.6070 H   0  0  0  0  0  0  0  0  0  0  0  0
   37.3490   72.9630   55.8630 H   0  0  0  0  0  0  0  0  0  0  0  0
   35.9350   75.0940   55.4740 H   0  0  0  0  0  0  0  0  0  0  0  0
   38.8420   77.0090   59.0620 H   0  0  0  0  0  0  0  0  0  0  0  0
   41.8540   68.6480   59.5650 C   0  0  0  0  0  0  0  0  0  0  0  0
   41.9040   69.5820   60.5740 C   0  0  0  0  0  0  0  0  0  0  0  0
   41.8150   69.0160   61.8220 C   0  0  0  0  0  0  0  0  0  0  0  0
   41.8390   69.6020   62.7270 H   0  0  0  0  0  0  0  0  0  0  0  0
   41.6910   67.6670   62.0720 C   0  0  0  0  0  0  0  0  0  0  0  0
   41.6240   67.2410   63.0580 H   0  0  0  0  0  0  0  0  0  0  0  0
   41.6470   66.7850   61.0330 C   0  0  0  0  0  3  0  0  0  0  0  0
   41.7310   67.2880   59.7530 C   0  0  0  0  0  3  0  0  0  0  0  0
   41.3070   70.4120   57.7970 H   0  0  0  0  0  0  0  0  0  0  0  0
   41.9560   69.2120   57.8950 S   0  0  0  0  0  0  0  0  0  0  0  0
   43.4030   69.5160   57.5260 O   0  0  0  0  0  0  0  0  0  0  0  0
   41.4160   68.2070   56.9290 O   0  0  0  0  0  0  0  0  0  0  0  0
  1  2  1  0  0  0  0
  1  7  1  0  0  0  0
  2  8  1  0  0  0  0
  3 24  1  0  0  0  0
  3  2  2  0  0  0  0
  4  3  1  0  0  0  0
  5  4  2  0  0  0  0
  5  6  1  0  0  0  0
  6  1  2  0  0  0  0
  9 18  1  0  0  0  0
 10  9  1  0  0  0  0
 10  5  1  0  0  0  0
 11 10  2  0  0  0  0
 12 16  2  0  0  0  0
 12 11  1  0  0  0  0
 13 12  1  0  0  0  0
 14 13  1  0  0  0  0
 14 15  2  0  0  0  0
 15 16  1  0  0  0  0
 16 17  1  0  0  0  0
 17 22  1  0  0  0  0
 17  9  2  0  0  0  0
 19 11  1  0  0  0  0
 20 13  1  0  0  0  0
 21 14  1  0  0  0  0
 23 30  2  0  0  0  0
 23 24  1  0  0  0  0
 24 25  2  0  0  0  0
 25 27  1  0  0  0  0
 25 26  1  0  0  0  0
 27 28  1  0  0  0  0
 29 27  2  0  0  0  0
 30 29  1  0  0  0  0
 31 32  1  0  0  0  0
 32 23  1  0  0  0  0
 33 32  2  0  0  0  0
 34 32  2  0  0  0  0
M  END
>  <minimizedAffinity>
-5.84408712

$$$$

 OpenBabel03212520033D

 34 37  0  0  0  0  0  0  0  0999 V2000
   42.0130   72.0090   62.6690 C   0  0  0  0  0  0  0  0  0  0  0  0
   42.6030   70.8300   62.1510 C   0  0  0  0  0  0  0  0  0  0  0  0
   42.2870   70.4780   60.8510 C   0  0  0  0  0  0  0  0  0  0  0  0
   41.4430   71.2610   60.1360 N   0  0  0  0  0  0  0  0  0  0  0  0
   40.8880   72.3940   60.6620 C   0  0  0  0  0  0  0  0  0  0  0  0
   41.1780   72.7600   61.9280 N   0  0  0  0  0  0  0  0  0  0  0  0
   42.1910   72.3760   63.6710 H   0  0  0  0  0  0  0  0  0  0  0  0
   43.2320   70.3490   62.8490 H   0  0  0  0  0  0  0  0  0  0  0  0
   39.8020   74.5480   60.2480 C   0  0  0  0  0  0  0  0  0  0  0  0
   39.9870   73.2050   59.8710 C   0  0  0  0  0  0  0  0  0  0  0  0
   39.3140   72.7030   58.7870 C   0  0  0  0  0  0  0  0  0  0  0  0
   38.4510   73.4790   58.0430 C   0  0  0  0  0  0  0  0  0  0  0  0
   37.6590   73.3040   56.9610 N   0  0  0  0  0  0  0  0  0  0  0  0
   37.0170   74.4560   56.6710 C   0  0  0  0  0  0  0  0  0  0  0  0
   37.4360   75.3490   57.6060 N   0  0  0  0  0  0  0  0  0  0  0  0
   38.3120   74.7780   58.4570 C   0  0  0  0  0  0  0  0  0  0  0  0
   38.9480   75.3660   59.5320 C   0  0  0  0  0  0  0  0  0  0  0  0
   40.3420   74.9180   61.1020 H   0  0  0  0  0  0  0  0  0  0  0  0
   39.4260   71.6790   58.4600 H   0  0  0  0  0  0  0  0  0  0  0  0
   37.5670   72.4030   56.4360 H   0  0  0  0  0  0  0  0  0  0  0  0
   36.3230   74.5950   55.8550 H   0  0  0  0  0  0  0  0  0  0  0  0
   38.7990   76.3960   59.8080 H   0  0  0  0  0  0  0  0  0  0  0  0
   42.5870   67.9910   60.7480 C   0  0  0  0  0  0  0  0  0  0  0  0
   42.8830   69.2650   60.3210 C   0  0  0  0  0  0  0  0  0  0  0  0
   43.8270   69.2800   59.3240 C   0  0  0  0  0  0  0  0  0  0  0  0
   44.1770   70.1950   58.8710 H   0  0  0  0  0  0  0  0  0  0  0  0
   44.4290   68.1640   58.7870 C   0  0  0  0  0  0  0  0  0  0  0  0
   45.1670   68.1950   58.0040 H   0  0  0  0  0  0  0  0  0  0  0  0
   44.0960   66.9250   59.2480 C   0  0  0  0  0  3  0  0  0  0  0  0
   43.1550   66.8380   60.2500 C   0  0  0  0  0  3  0  0  0  0  0  0
   40.5740   68.8940   62.0410 H   0  0  0  0  0  0  0  0  0  0  0  0
   41.3880   67.7950   62.0300 S   0  0  0  0  0  0  0  0  0  0  0  0
   40.4650   66.6240   61.7160 O   0  0  0  0  0  0  0  0  0  0  0  0
   42.0240   67.5600   63.3620 O   0  0  0  0  0  0  0  0  0  0  0  0
  1  7  1  0  0  0  0
  2  1  1  0  0  0  0
  2  8  1  0  0  0  0
  3  2  2  0  0  0  0
  4  5  2  0  0  0  0
  4  3  1  0  0  0  0
  5  6  1  0  0  0  0
  6  1  2  0  0  0  0
  9 18  1  0  0  0  0
 10  9  1  0  0  0  0
 10  5  1  0  0  0  0
 11 10  2  0  0  0  0
 12 16  2  0  0  0  0
 12 11  1  0  0  0  0
 13 12  1  0  0  0  0
 14 13  1  0  0  0  0
 14 15  2  0  0  0  0
 15 16  1  0  0  0  0
 16 17  1  0  0  0  0
 17 22  1  0  0  0  0
 17  9  2  0  0  0  0
 19 11  1  0  0  0  0
 20 13  1  0  0  0  0
 21 14  1  0  0  0  0
 23 32  1  0  0  0  0
 24 23  1  0  0  0  0
 24  3  1  0  0  0  0
 25 24  2  0  0  0  0
 26 25  1  0  0  0  0
 27 29  2  0  0  0  0
 27 25  1  0  0  0  0
 28 27  1  0  0  0  0
 29 30  1  0  0  0  0
 30 23  2  0  0  0  0
 32 31  1  0  0  0  0
 32 34  2  0  0  0  0
 33 32  2  0  0  0  0
M  END
>  <minimizedAffinity>
-5.7798152

$$$$
