
 OpenBabel03212520183D

 38 40  0  0  0  0  0  0  0  0999 V2000
   43.0040   83.7140   58.5460 Cl  0  0  0  0  0  0  0  0  0  0  0  0
   41.7520   82.5380   58.2280 C   0  0  0  0  0  0  0  0  0  0  0  0
   40.8930   82.0660   59.1920 C   0  0  0  0  0  0  0  0  0  0  0  0
   39.9650   81.1390   58.7690 C   0  0  0  0  0  0  0  0  0  0  0  0
   39.8070   80.6420   57.5040 C   0  0  0  0  0  0  0  0  0  0  0  0
   40.6810   81.1380   56.5750 C   0  0  0  0  0  0  0  0  0  0  0  0
   40.5870   80.5780   54.9000 Cl  0  0  0  0  0  0  0  0  0  0  0  0
   41.6540   82.0880   56.9400 C   0  0  0  0  0  0  0  0  0  0  0  0
   39.2840   80.7710   59.5520 H   0  0  0  0  0  0  0  0  0  0  0  0
   39.0690   79.9250   57.2270 H   0  0  0  0  0  0  0  0  0  0  0  0
   41.9310   82.0940   61.5150 C   0  0  0  0  0  0  0  0  0  0  0  0
   41.0240   82.5570   60.5260 C   0  0  0  0  0  0  0  0  0  0  0  0
   40.1840   83.5820   60.8820 C   0  0  0  0  0  0  0  0  0  0  0  0
   40.2770   84.0790   62.1450 N   0  0  0  0  0  0  0  0  0  0  0  0
   41.1340   83.6300   63.0560 C   0  0  0  0  0  0  0  0  0  0  0  0
   41.9820   82.6160   62.7390 N   0  0  0  0  0  0  0  0  0  0  0  0
   42.5740   81.2760   61.1810 H   0  0  0  0  0  0  0  0  0  0  0  0
   39.4320   84.0500   60.2340 H   0  0  0  0  0  0  0  0  0  0  0  0
   41.0950   84.2910   64.3830 C   0  0  0  0  0  0  0  0  0  0  0  0
   40.7890   85.6300   64.2770 F   0  0  0  0  0  0  0  0  0  0  0  0
   40.1450   83.6870   65.1880 F   0  0  0  0  0  0  0  0  0  0  0  0
   42.3340   84.2570   65.0150 F   0  0  0  0  0  0  0  0  0  0  0  0
   42.4880   82.5250   55.9260 O   0  0  0  0  0  0  0  0  0  0  0  0
   42.2570   83.6770   55.1480 C   0  0  0  0  0  0  0  0  0  0  0  0
   41.3270   83.5090   54.5740 H   0  0  0  0  0  0  0  0  0  0  0  0
   42.0420   84.5570   55.7890 H   0  0  0  0  0  0  0  0  0  0  0  0
   43.3970   83.8880   52.8390 C   0  0  0  0  0  0  0  0  0  0  0  0
   43.3630   83.8930   54.2130 C   0  0  0  0  0  0  0  0  0  0  0  0
   44.6270   84.1850   54.7610 C   0  0  0  0  0  0  0  0  0  0  0  0
   44.7130   84.2140   55.8530 H   0  0  0  0  0  0  0  0  0  0  0  0
   45.7880   84.4440   54.0650 C   0  0  0  0  0  0  0  0  0  0  0  0
   46.6980   84.6550   54.6090 H   0  0  0  0  0  0  0  0  0  0  0  0
   45.7340   84.4200   52.6930 C   0  0  0  0  0  3  0  0  0  0  0  0
   44.5350   84.1410   52.1060 C   0  0  0  0  0  3  0  0  0  0  0  0
   40.8910   84.3710   52.4210 H   0  0  0  0  0  0  0  0  0  0  0  0
   41.8740   83.5080   52.0620 S   0  0  0  0  0  0  0  0  0  0  0  0
   42.0560   83.7120   50.5610 O   0  0  0  0  0  0  0  0  0  0  0  0
   41.5220   82.0610   52.2110 O   0  0  0  0  0  0  0  0  0  0  0  0
  2  1  1  0  0  0  0
  2  3  1  0  0  0  0
  3 12  1  0  0  0  0
  4  3  2  0  0  0  0
  4  9  1  0  0  0  0
  5  4  1  0  0  0  0
  6  8  1  0  0  0  0
  6  5  2  0  0  0  0
  7  6  1  0  0  0  0
  8  2  2  0  0  0  0
 10  5  1  0  0  0  0
 11 16  1  0  0  0  0
 12 13  1  0  0  0  0
 12 11  2  0  0  0  0
 13 14  2  0  0  0  0
 14 15  1  0  0  0  0
 15 19  1  0  0  0  0
 16 15  2  0  0  0  0
 17 11  1  0  0  0  0
 18 13  1  0  0  0  0
 19 22  1  0  0  0  0
 19 21  1  0  0  0  0
 20 19  1  0  0  0  0
 23  8  1  0  0  0  0
 24 26  1  0  0  0  0
 24 23  1  0  0  0  0
 25 24  1  0  0  0  0
 27 28  1  0  0  0  0
 28 29  2  0  0  0  0
 28 24  1  0  0  0  0
 29 30  1  0  0  0  0
 31 32  1  0  0  0  0
 31 29  1  0  0  0  0
 33 31  2  0  0  0  0
 34 33  1  0  0  0  0
 34 27  2  0  0  0  0
 36 38  2  0  0  0  0
 36 35  1  0  0  0  0
 36 27  1  0  0  0  0
 37 36  2  0  0  0  0
M  END
>  <minimizedAffinity>
-4.77642298

>  <minimizedRMSD>
0.330264956

$$$$
