
 OpenBabel03212520183D

 38 40  0  0  0  0  0  0  0  0999 V2000
   42.9720   83.7260   58.5490 Cl  0  0  0  0  0  0  0  0  0  0  0  0
   41.7310   82.5360   58.2400 C   0  0  0  0  0  0  0  0  0  0  0  0
   40.8830   82.0570   59.2100 C   0  0  0  0  0  0  0  0  0  0  0  0
   39.9630   81.1190   58.7940 C   0  0  0  0  0  0  0  0  0  0  0  0
   39.8030   80.6180   57.5310 C   0  0  0  0  0  0  0  0  0  0  0  0
   40.6670   81.1210   56.5960 C   0  0  0  0  0  0  0  0  0  0  0  0
   40.5700   80.5560   54.9230 Cl  0  0  0  0  0  0  0  0  0  0  0  0
   41.6310   82.0820   56.9540 C   0  0  0  0  0  0  0  0  0  0  0  0
   39.2900   80.7460   59.5820 H   0  0  0  0  0  0  0  0  0  0  0  0
   39.0710   79.8920   57.2590 H   0  0  0  0  0  0  0  0  0  0  0  0
   41.9300   82.0990   61.5290 C   0  0  0  0  0  0  0  0  0  0  0  0
   41.0160   82.5520   60.5430 C   0  0  0  0  0  0  0  0  0  0  0  0
   40.1700   83.5720   60.8990 C   0  0  0  0  0  0  0  0  0  0  0  0
   40.2650   84.0730   62.1610 N   0  0  0  0  0  0  0  0  0  0  0  0
   41.1290   83.6330   63.0700 C   0  0  0  0  0  0  0  0  0  0  0  0
   41.9830   82.6240   62.7510 N   0  0  0  0  0  0  0  0  0  0  0  0
   42.5790   81.2850   61.1940 H   0  0  0  0  0  0  0  0  0  0  0  0
   39.4120   84.0330   60.2540 H   0  0  0  0  0  0  0  0  0  0  0  0
   41.0900   84.2970   64.3950 C   0  0  0  0  0  0  0  0  0  0  0  0
   40.7860   85.6360   64.2860 F   0  0  0  0  0  0  0  0  0  0  0  0
   40.1390   83.6960   65.2010 F   0  0  0  0  0  0  0  0  0  0  0  0
   42.3290   84.2630   65.0280 F   0  0  0  0  0  0  0  0  0  0  0  0
   42.4550   82.5260   55.9340 O   0  0  0  0  0  0  0  0  0  0  0  0
   42.2330   83.7000   55.1870 C   0  0  0  0  0  0  0  0  0  0  0  0
   41.3100   83.5470   54.5970 H   0  0  0  0  0  0  0  0  0  0  0  0
   42.0080   84.5600   55.8500 H   0  0  0  0  0  0  0  0  0  0  0  0
   43.4120   83.9360   52.8990 C   0  0  0  0  0  0  0  0  0  0  0  0
   43.3510   83.9430   54.2730 C   0  0  0  0  0  0  0  0  0  0  0  0
   44.5940   84.2700   54.8440 C   0  0  0  0  0  0  0  0  0  0  0  0
   44.6600   84.3040   55.9380 H   0  0  0  0  0  0  0  0  0  0  0  0
   45.7630   84.5580   54.1710 C   0  0  0  0  0  0  0  0  0  0  0  0
   46.6550   84.7940   54.7310 H   0  0  0  0  0  0  0  0  0  0  0  0
   45.7360   84.5300   52.7960 C   0  0  0  0  0  3  0  0  0  0  0  0
   44.5570   84.2180   52.1880 C   0  0  0  0  0  3  0  0  0  0  0  0
   40.9140   84.3800   52.3950 H   0  0  0  0  0  0  0  0  0  0  0  0
   41.9130   83.5130   52.0950 S   0  0  0  0  0  0  0  0  0  0  0  0
   42.1370   83.6670   50.5930 O   0  0  0  0  0  0  0  0  0  0  0  0
   41.5710   82.0710   52.2850 O   0  0  0  0  0  0  0  0  0  0  0  0
  2  1  1  0  0  0  0
  2  3  1  0  0  0  0
  3 12  1  0  0  0  0
  4  3  2  0  0  0  0
  4  9  1  0  0  0  0
  5  4  1  0  0  0  0
  6  8  1  0  0  0  0
  6  5  2  0  0  0  0
  7  6  1  0  0  0  0
  8  2  2  0  0  0  0
 10  5  1  0  0  0  0
 11 16  1  0  0  0  0
 12 13  1  0  0  0  0
 12 11  2  0  0  0  0
 13 14  2  0  0  0  0
 14 15  1  0  0  0  0
 15 19  1  0  0  0  0
 16 15  2  0  0  0  0
 17 11  1  0  0  0  0
 18 13  1  0  0  0  0
 19 22  1  0  0  0  0
 19 21  1  0  0  0  0
 20 19  1  0  0  0  0
 23  8  1  0  0  0  0
 24 26  1  0  0  0  0
 24 23  1  0  0  0  0
 25 24  1  0  0  0  0
 27 28  1  0  0  0  0
 28 29  2  0  0  0  0
 28 24  1  0  0  0  0
 29 30  1  0  0  0  0
 31 32  1  0  0  0  0
 31 29  1  0  0  0  0
 33 31  2  0  0  0  0
 34 33  1  0  0  0  0
 34 27  2  0  0  0  0
 36 38  2  0  0  0  0
 36 35  1  0  0  0  0
 36 27  1  0  0  0  0
 37 36  2  0  0  0  0
M  END
>  <minimizedAffinity>
-4.78117514

>  <minimizedRMSD>
0.349541664

$$$$
