
 OpenBabel03212520403D

 30 32  0  0  1  0  0  0  0  0999 V2000
   42.3400   85.4820   59.7960 C   0  0  1  0  0  0  0  0  0  0  0  0
   43.5130   85.9380   58.9300 C   0  0  0  0  0  0  0  0  0  0  0  0
   42.3690   85.0960   58.3760 C   0  0  1  0  0  0  0  0  0  0  0  0
   41.7410   86.3330   60.1710 H   0  0  0  0  0  0  0  0  0  0  0  0
   43.5540   86.9950   58.6080 H   0  0  0  0  0  0  0  0  0  0  0  0
   44.4720   85.4250   58.9810 H   0  0  0  0  0  0  0  0  0  0  0  0
   41.6830   85.6310   57.7010 H   0  0  0  0  0  0  0  0  0  0  0  0
   42.7610   84.5420   60.7750 O   0  0  0  0  0  0  0  0  0  0  0  0
   40.0400   83.5420   62.9420 C   0  0  0  0  0  0  0  0  0  0  0  0
   40.5940   83.7460   64.2060 C   0  0  0  0  0  0  0  0  0  0  0  0
   41.9200   84.2330   64.2800 C   0  0  0  0  0  0  0  0  0  0  0  0
   42.5410   84.4620   63.0920 N   0  0  0  0  0  0  0  0  0  0  0  0
   41.9940   84.2600   61.8830 C   0  0  0  0  0  0  0  0  0  0  0  0
   40.7510   83.8020   61.7870 N   0  0  0  0  0  0  0  0  0  0  0  0
   39.0160   83.1650   62.8380 H   0  0  0  0  0  0  0  0  0  0  0  0
   40.0390   83.5420   65.1030 H   0  0  0  0  0  0  0  0  0  0  0  0
   42.4040   84.4120   65.2290 H   0  0  0  0  0  0  0  0  0  0  0  0
   42.6110   83.7510   58.0990 O   0  0  0  0  0  0  0  0  0  0  0  0
   41.8000   82.4160   56.3570 C   0  0  0  0  0  0  0  0  0  0  0  0
   41.7330   82.7970   57.6820 C   0  0  0  0  0  0  0  0  0  0  0  0
   40.8320   82.2500   58.5470 C   0  0  0  0  0  0  0  0  0  0  0  0
   40.7410   82.5120   59.5790 H   0  0  0  0  0  0  0  0  0  0  0  0
   39.9790   81.2850   58.0240 C   0  0  0  0  0  0  0  0  0  0  0  0
   39.2510   80.8390   58.7080 H   0  0  0  0  0  0  0  0  0  0  0  0
   39.9700   80.8400   56.7190 C   0  0  0  0  0  3  0  0  0  0  0  0
   40.9170   81.4470   55.9100 C   0  0  0  0  0  3  0  0  0  0  0  0
   44.1790   83.2860   55.9260 H   0  0  0  0  0  0  0  0  0  0  0  0
   42.9710   83.1410   55.2810 S   0  0  0  0  0  0  0  0  0  0  0  0
   42.5350   84.5310   54.9080 O   0  0  0  0  0  0  0  0  0  0  0  0
   43.1560   82.3530   54.0180 O   0  0  0  0  0  0  0  0  0  0  0  0
  1  4  1  1  0  0  0
  1  8  1  0  0  0  0
  2  6  1  0  0  0  0
  2  1  1  0  0  0  0
  3  7  1  6  0  0  0
  3  2  1  0  0  0  0
  3  1  1  0  0  0  0
  5  2  1  0  0  0  0
  8 13  1  0  0  0  0
  9 10  1  0  0  0  0
 10 11  2  0  0  0  0
 10 16  1  0  0  0  0
 11 17  1  0  0  0  0
 12 11  1  0  0  0  0
 13 12  2  0  0  0  0
 14 13  1  0  0  0  0
 14  9  2  0  0  0  0
 15  9  1  0  0  0  0
 18  3  1  0  0  0  0
 19 20  1  0  0  0  0
 20 18  1  0  0  0  0
 20 21  2  0  0  0  0
 21 22  1  0  0  0  0
 23 21  1  0  0  0  0
 23 24  1  0  0  0  0
 25 23  2  0  0  0  0
 26 19  2  0  0  0  0
 26 25  1  0  0  0  0
 28 27  1  0  0  0  0
 28 19  1  0  0  0  0
 29 28  2  0  0  0  0
 30 28  2  0  0  0  0
M  END
>  <minimizedAffinity>
-4.49556541

>  <minimizedRMSD>
2.98651791

$$$$
