
 OpenBabel03212520183D

 38 40  0  0  0  0  0  0  0  0999 V2000
   43.0770   83.8600   58.6620 Cl  0  0  0  0  0  0  0  0  0  0  0  0
   41.8370   82.6880   58.2900 C   0  0  0  0  0  0  0  0  0  0  0  0
   40.9580   82.1930   59.2240 C   0  0  0  0  0  0  0  0  0  0  0  0
   40.0430   81.2720   58.7600 C   0  0  0  0  0  0  0  0  0  0  0  0
   39.9150   80.8020   57.4810 C   0  0  0  0  0  0  0  0  0  0  0  0
   40.8090   81.3200   56.5830 C   0  0  0  0  0  0  0  0  0  0  0  0
   40.7550   80.7970   54.8950 Cl  0  0  0  0  0  0  0  0  0  0  0  0
   41.7700   82.2650   56.9910 C   0  0  0  0  0  0  0  0  0  0  0  0
   39.3460   80.8850   59.5200 H   0  0  0  0  0  0  0  0  0  0  0  0
   39.1860   80.0890   57.1720 H   0  0  0  0  0  0  0  0  0  0  0  0
   41.9090   82.1410   61.5840 C   0  0  0  0  0  0  0  0  0  0  0  0
   41.0580   82.6550   60.5710 C   0  0  0  0  0  0  0  0  0  0  0  0
   40.2420   83.7040   60.9150 C   0  0  0  0  0  0  0  0  0  0  0  0
   40.3060   84.1750   62.1900 N   0  0  0  0  0  0  0  0  0  0  0  0
   41.1120   83.6790   63.1230 C   0  0  0  0  0  0  0  0  0  0  0  0
   41.9340   82.6400   62.8180 N   0  0  0  0  0  0  0  0  0  0  0  0
   42.5350   81.3070   61.2580 H   0  0  0  0  0  0  0  0  0  0  0  0
   39.5320   84.2100   60.2500 H   0  0  0  0  0  0  0  0  0  0  0  0
   41.0470   84.3180   64.4600 C   0  0  0  0  0  0  0  0  0  0  0  0
   40.7170   85.6520   64.3720 F   0  0  0  0  0  0  0  0  0  0  0  0
   40.1010   83.6830   65.2450 F   0  0  0  0  0  0  0  0  0  0  0  0
   42.2810   84.2960   65.1040 F   0  0  0  0  0  0  0  0  0  0  0  0
   42.6260   82.7270   56.0050 O   0  0  0  0  0  0  0  0  0  0  0  0
   42.4530   83.9380   55.3070 C   0  0  0  0  0  0  0  0  0  0  0  0
   41.3660   84.0970   55.1810 H   0  0  0  0  0  0  0  0  0  0  0  0
   42.7990   84.8020   55.9120 H   0  0  0  0  0  0  0  0  0  0  0  0
   44.3500   84.1920   53.5710 C   0  0  0  0  0  0  0  0  0  0  0  0
   43.0810   83.8610   53.9860 C   0  0  0  0  0  0  0  0  0  0  0  0
   42.3100   83.3430   52.9310 C   0  0  0  0  0  0  0  0  0  0  0  0
   41.2770   83.0470   53.1510 H   0  0  0  0  0  0  0  0  0  0  0  0
   42.7110   83.1620   51.6240 C   0  0  0  0  0  0  0  0  0  0  0  0
   42.0170   82.7540   50.9060 H   0  0  0  0  0  0  0  0  0  0  0  0
   43.9970   83.5180   51.2930 C   0  0  0  0  0  3  0  0  0  0  0  0
   44.7920   84.0270   52.2770 C   0  0  0  0  0  3  0  0  0  0  0  0
   45.0970   84.3700   56.0410 H   0  0  0  0  0  0  0  0  0  0  0  0
   45.3820   84.8700   54.8120 S   0  0  0  0  0  0  0  0  0  0  0  0
   46.8120   84.4240   54.5210 O   0  0  0  0  0  0  0  0  0  0  0  0
   45.4270   86.3630   54.7400 O   0  0  0  0  0  0  0  0  0  0  0  0
  2  1  1  0  0  0  0
  2  3  1  0  0  0  0
  3 12  1  0  0  0  0
  4  3  2  0  0  0  0
  4  9  1  0  0  0  0
  5  4  1  0  0  0  0
  6  8  1  0  0  0  0
  6  5  2  0  0  0  0
  7  6  1  0  0  0  0
  8  2  2  0  0  0  0
 10  5  1  0  0  0  0
 11 16  1  0  0  0  0
 12 13  1  0  0  0  0
 12 11  2  0  0  0  0
 13 14  2  0  0  0  0
 14 15  1  0  0  0  0
 15 19  1  0  0  0  0
 16 15  2  0  0  0  0
 17 11  1  0  0  0  0
 18 13  1  0  0  0  0
 19 22  1  0  0  0  0
 19 21  1  0  0  0  0
 20 19  1  0  0  0  0
 23  8  1  0  0  0  0
 24 26  1  0  0  0  0
 24 23  1  0  0  0  0
 25 24  1  0  0  0  0
 27 28  1  0  0  0  0
 27 36  1  0  0  0  0
 28 24  1  0  0  0  0
 29 30  1  0  0  0  0
 29 28  2  0  0  0  0
 31 29  1  0  0  0  0
 32 31  1  0  0  0  0
 33 31  2  0  0  0  0
 33 34  1  0  0  0  0
 34 27  2  0  0  0  0
 36 35  1  0  0  0  0
 37 36  2  0  0  0  0
 38 36  2  0  0  0  0
M  END
>  <minimizedAffinity>
-5.05478859

>  <minimizedRMSD>
0.868906081

$$$$
