
 OpenBabel03212520513D

 38 41  0  0  1  0  0  0  0  0999 V2000
   41.7040   83.8620   61.4040 C   0  0  0  0  0  0  0  0  0  0  0  0
   41.1340   84.2450   62.5950 C   0  0  0  0  0  0  0  0  0  0  0  0
   40.6900   83.3000   63.5200 C   0  0  0  0  0  0  0  0  0  0  0  0
   40.8160   81.9890   63.2520 N   0  0  0  0  0  0  0  0  0  0  0  0
   41.3810   81.6320   62.0730 C   0  0  0  0  0  0  0  0  0  0  0  0
   41.8170   82.5330   61.1680 N   0  0  0  0  0  0  0  0  0  0  0  0
   41.0310   85.3070   62.8110 H   0  0  0  0  0  0  0  0  0  0  0  0
   40.2470   83.6440   64.4440 H   0  0  0  0  0  0  0  0  0  0  0  0
   43.6290   86.4900   59.7330 C   0  0  0  0  0  0  0  0  0  0  0  0
   42.9440   86.6190   58.5280 C   0  0  0  0  0  0  0  0  0  0  0  0
   41.8380   85.8300   58.2720 C   0  0  0  0  0  0  0  0  0  0  0  0
   41.4870   84.9470   59.2590 N   0  0  0  0  0  0  0  0  0  0  0  0
   42.1630   84.8370   60.4160 C   0  0  0  0  0  0  0  0  0  0  0  0
   43.2250   85.5930   60.6650 N   0  0  0  0  0  0  0  0  0  0  0  0
   44.7370   87.3620   59.8440 N   0  0  0  0  0  0  0  0  0  0  0  0
   43.2060   87.3100   57.7380 H   0  0  0  0  0  0  0  0  0  0  0  0
   41.2850   85.9010   57.3570 H   0  0  0  0  0  0  0  0  0  0  0  0
   44.3540   88.2650   60.1940 H   0  0  0  0  0  0  0  0  0  0  0  0
   45.6240   86.8910   59.5580 H   0  0  0  0  0  0  0  0  0  0  0  0
   41.4770   80.1580   61.8110 C   0  0  1  0  0  0  0  0  0  0  0  0
   40.6850   79.2240   62.5770 C   0  0  0  0  0  0  0  0  0  0  0  0
   40.2230   79.5900   61.2010 C   0  0  2  0  0  0  0  0  0  0  0  0
   42.4500   79.8480   61.4070 H   0  0  0  0  0  0  0  0  0  0  0  0
   41.0700   78.2340   62.8320 H   0  0  0  0  0  0  0  0  0  0  0  0
   40.1120   79.6720   63.4420 H   0  0  0  0  0  0  0  0  0  0  0  0
   39.3310   80.2380   61.1490 H   0  0  0  0  0  0  0  0  0  0  0  0
   40.1050   78.6250   58.9330 C   0  0  0  0  0  0  0  0  0  0  0  0
   40.1800   78.4430   60.3000 C   0  0  0  0  0  0  0  0  0  0  0  0
   40.2090   77.1050   60.6910 C   0  0  0  0  0  0  0  0  0  0  0  0
   40.2660   76.9010   61.7540 H   0  0  0  0  0  0  0  0  0  0  0  0
   40.1680   76.0370   59.8330 C   0  0  0  0  0  0  0  0  0  0  0  0
   40.1920   75.0220   60.1730 H   0  0  0  0  0  0  0  0  0  0  0  0
   40.0940   76.2790   58.4770 C   0  0  0  0  0  0  0  0  0  0  0  0
   40.0620   77.5790   58.0240 C   0  0  0  0  0  0  0  0  0  0  0  0
   39.4240   81.1300   59.1280 H   0  0  0  0  0  0  0  0  0  0  0  0
   40.0640   80.2450   58.3150 S   0  0  0  0  0  0  0  0  0  0  0  0
   41.4500   80.7230   57.9200 O   0  0  0  0  0  0  0  0  0  0  0  0
   39.2680   80.2510   57.0290 O   0  0  0  0  0  0  0  0  0  0  0  0
  1  2  1  0  0  0  0
  2  7  1  0  0  0  0
  2  3  2  0  0  0  0
  3  8  1  0  0  0  0
  4  3  1  0  0  0  0
  5  4  2  0  0  0  0
  6  1  2  0  0  0  0
  6  5  1  0  0  0  0
  9 15  1  0  0  0  0
  9 14  1  0  0  0  0
 10  9  2  0  0  0  0
 11 10  1  0  0  0  0
 11 12  2  0  0  0  0
 12 13  1  0  0  0  0
 13 14  2  0  0  0  0
 13  1  1  0  0  0  0
 15 18  1  0  0  0  0
 16 10  1  0  0  0  0
 17 11  1  0  0  0  0
 19 15  1  0  0  0  0
 20 23  1  6  0  0  0
 20  5  1  0  0  0  0
 20 21  1  0  0  0  0
 21 24  1  0  0  0  0
 21 25  1  0  0  0  0
 22 26  1  6  0  0  0
 22 20  1  0  0  0  0
 22 21  1  0  0  0  0
 27 28  1  0  0  0  0
 28 29  2  0  0  0  0
 28 22  1  0  0  0  0
 29 30  1  0  0  0  0
 31 32  1  0  0  0  0
 31 29  1  0  0  0  0
 33 31  2  0  0  0  0
 34 33  1  0  0  0  0
 34 27  2  0  0  0  0
 36 27  1  0  0  0  0
 36 35  1  0  0  0  0
 37 36  2  0  0  0  0
 38 36  2  0  0  0  0
M  END
>  <minimizedAffinity>
-5.80935574

>  <minimizedRMSD>
0.808532476

$$$$
