
 OpenBabel03212520593D

 45 49  0  0  1  0  0  0  0  0999 V2000
   39.6410   77.0170   59.2790 C   0  0  0  0  0  0  0  0  0  0  0  0
   40.2700   75.8260   59.0920 C   0  0  0  0  0  0  0  0  0  0  0  0
   39.6980   75.0780   58.0500 C   0  0  0  0  0  0  0  0  0  0  0  0
   38.6440   75.4870   57.3140 N   0  0  0  0  0  0  0  0  0  0  0  0
   38.0890   76.7030   57.5890 C   0  0  0  0  0  0  0  0  0  0  0  0
   38.5890   77.4740   58.5770 N   0  0  0  0  0  0  0  0  0  0  0  0
   41.1150   75.4590   59.6550 H   0  0  0  0  0  0  0  0  0  0  0  0
   40.1010   74.1010   57.7880 H   0  0  0  0  0  0  0  0  0  0  0  0
   40.9460   80.0530   61.6700 C   0  0  0  0  0  0  0  0  0  0  0  0
   40.8900   78.8560   62.3390 C   0  0  0  0  0  0  0  0  0  0  0  0
   40.4730   77.7680   61.6600 C   0  0  0  0  0  0  0  0  0  0  0  0
   40.1210   77.9010   60.3230 C   0  0  0  0  0  0  0  0  0  0  0  0
   40.3910   79.6880   59.9790 S   0  0  0  0  0  0  0  0  0  0  0  0
   41.1670   78.7550   63.3890 H   0  0  0  0  0  0  0  0  0  0  0  0
   40.3590   76.7480   61.9950 H   0  0  0  0  0  0  0  0  0  0  0  0
   43.1090   82.8620   62.6320 C   0  0  0  0  0  0  0  0  0  0  0  0
   42.2430   83.6740   63.3980 C   0  0  0  0  0  0  0  0  0  0  0  0
   40.9280   83.2650   63.5810 C   0  0  0  0  0  0  0  0  0  0  0  0
   40.5230   82.1000   63.0150 N   0  0  0  0  0  0  0  0  0  0  0  0
   41.3820   81.3350   62.2790 C   0  0  0  0  0  0  0  0  0  0  0  0
   42.6450   81.7260   62.1030 N   0  0  0  0  0  0  0  0  0  0  0  0
   44.1360   83.1630   62.4780 H   0  0  0  0  0  0  0  0  0  0  0  0
   42.5950   84.5910   63.8330 H   0  0  0  0  0  0  0  0  0  0  0  0
   40.2330   83.8640   64.1650 H   0  0  0  0  0  0  0  0  0  0  0  0
   36.9610   77.1230   56.7800 C   0  0  0  0  0  0  0  0  0  0  0  0
   35.8400   77.1140   57.3120 O   0  0  0  0  0  0  0  0  0  0  0  0
   37.1170   77.5490   55.3440 C   0  0  1  0  0  0  0  0  0  0  0  0
   37.2260   79.0450   55.1760 C   0  0  0  0  0  0  0  0  0  0  0  0
   38.3540   78.1670   54.9040 C   0  0  2  0  0  0  0  0  0  0  0  0
   36.3050   77.1180   54.7040 H   0  0  0  0  0  0  0  0  0  0  0  0
   37.2560   79.6770   56.1160 H   0  0  0  0  0  0  0  0  0  0  0  0
   36.5190   79.4750   54.4590 H   0  0  0  0  0  0  0  0  0  0  0  0
   39.1890   78.2350   55.6790 H   0  0  0  0  0  0  0  0  0  0  0  0
   38.8340   78.3740   52.3450 C   0  0  0  0  0  0  0  0  0  0  0  0
   38.8470   77.7740   53.5780 C   0  0  0  0  0  0  0  0  0  0  0  0
   39.4190   76.4960   53.6480 C   0  0  0  0  0  0  0  0  0  0  0  0
   39.5270   75.8520   54.5340 H   0  0  0  0  0  0  0  0  0  0  0  0
   39.9460   75.8750   52.5140 C   0  0  0  0  0  0  0  0  0  0  0  0
   40.3970   74.8950   52.5160 H   0  0  0  0  0  0  0  0  0  0  0  0
   39.9160   76.5060   51.2960 C   0  0  0  0  0  3  0  0  0  0  0  0
   39.3530   77.7630   51.2270 C   0  0  0  0  0  3  0  0  0  0  0  0
   37.9320   80.4930   53.5680 H   0  0  0  0  0  0  0  0  0  0  0  0
   38.1330   79.9640   52.3460 S   0  0  0  0  0  0  0  0  0  0  0  0
   36.9030   79.9250   51.4720 O   0  0  0  0  0  0  0  0  0  0  0  0
   39.0810   80.9190   51.6200 O   0  0  0  0  0  0  0  0  0  0  0  0
  1 12  1  0  0  0  0
  2  1  1  0  0  0  0
  2  7  1  0  0  0  0
  3  2  2  0  0  0  0
  4  5  2  0  0  0  0
  4  3  1  0  0  0  0
  5  6  1  0  0  0  0
  6  1  2  0  0  0  0
  8  3  1  0  0  0  0
  9 20  1  0  0  0  0
  9 10  2  0  0  0  0
 10 14  1  0  0  0  0
 11 15  1  0  0  0  0
 11 10  1  0  0  0  0
 12 11  2  0  0  0  0
 13 12  1  0  0  0  0
 13  9  1  0  0  0  0
 16 17  1  0  0  0  0
 17 18  2  0  0  0  0
 17 23  1  0  0  0  0
 18 24  1  0  0  0  0
 19 18  1  0  0  0  0
 20 19  2  0  0  0  0
 21 20  1  0  0  0  0
 21 16  2  0  0  0  0
 22 16  1  0  0  0  0
 25 26  2  0  0  0  0
 25  5  1  0  0  0  0
 27 30  1  6  0  0  0
 27 25  1  0  0  0  0
 28 27  1  0  0  0  0
 28 31  1  0  0  0  0
 29 28  1  0  0  0  0
 29 27  1  0  0  0  0
 29 33  1  1  0  0  0
 32 28  1  0  0  0  0
 34 43  1  0  0  0  0
 34 35  1  0  0  0  0
 35 36  2  0  0  0  0
 35 29  1  0  0  0  0
 36 37  1  0  0  0  0
 38 39  1  0  0  0  0
 38 36  1  0  0  0  0
 40 38  2  0  0  0  0
 41 40  1  0  0  0  0
 41 34  2  0  0  0  0
 43 42  1  0  0  0  0
 44 43  2  0  0  0  0
 45 43  2  0  0  0  0
M  END
>  <minimizedAffinity>
-6.53597069

>  <minimizedRMSD>
1.19432831

$$$$
