
 OpenBabel03212520203D

 39 41  0  0  0  0  0  0  0  0999 V2000
   43.1780   83.9730   58.6170 Cl  0  0  0  0  0  0  0  0  0  0  0  0
   41.9330   82.7890   58.2090 C   0  0  0  0  0  0  0  0  0  0  0  0
   41.0530   82.2660   59.1480 C   0  0  0  0  0  0  0  0  0  0  0  0
   40.1470   81.3550   58.6550 C   0  0  0  0  0  0  0  0  0  0  0  0
   40.0220   80.9150   57.3640 C   0  0  0  0  0  0  0  0  0  0  0  0
   40.9120   81.4610   56.4810 C   0  0  0  0  0  0  0  0  0  0  0  0
   40.8690   80.9890   54.7800 Cl  0  0  0  0  0  0  0  0  0  0  0  0
   41.8560   82.3850   56.8930 C   0  0  0  0  0  0  0  0  0  0  0  0
   39.4580   80.9500   59.4080 H   0  0  0  0  0  0  0  0  0  0  0  0
   39.2960   80.2040   57.0460 H   0  0  0  0  0  0  0  0  0  0  0  0
   41.9830   82.1860   61.5090 C   0  0  0  0  0  0  0  0  0  0  0  0
   41.1490   82.6940   60.4920 C   0  0  0  0  0  0  0  0  0  0  0  0
   40.3040   83.7510   60.8370 C   0  0  0  0  0  0  0  0  0  0  0  0
   40.3690   84.1910   62.1320 N   0  0  0  0  0  0  0  0  0  0  0  0
   41.1670   83.6910   63.0650 C   0  0  0  0  0  0  0  0  0  0  0  0
   41.9890   82.6680   62.7450 N   0  0  0  0  0  0  0  0  0  0  0  0
   42.6180   81.3650   61.1830 H   0  0  0  0  0  0  0  0  0  0  0  0
   39.6150   84.2320   60.1540 H   0  0  0  0  0  0  0  0  0  0  0  0
   41.0710   84.3220   64.3960 C   0  0  0  0  0  0  0  0  0  0  0  0
   40.7260   85.6500   64.3350 F   0  0  0  0  0  0  0  0  0  0  0  0
   40.1100   83.6610   65.1700 F   0  0  0  0  0  0  0  0  0  0  0  0
   42.3180   84.2760   65.0570 F   0  0  0  0  0  0  0  0  0  0  0  0
   42.7310   82.9030   55.9520 O   0  0  0  0  0  0  0  0  0  0  0  0
   42.4530   84.0120   55.1500 C   0  0  0  0  0  0  0  0  0  0  0  0
   42.2270   83.7790   54.1040 H   0  0  0  0  0  0  0  0  0  0  0  0
   41.5470   84.5040   55.6130 H   0  0  0  0  0  0  0  0  0  0  0  0
   43.5310   84.9000   55.3150 O   0  0  0  0  0  0  0  0  0  0  0  0
   45.2150   84.5680   53.8120 C   0  0  0  0  0  0  0  0  0  0  0  0
   44.8070   84.3800   55.1330 C   0  0  0  0  0  0  0  0  0  0  0  0
   45.6670   83.7510   56.0090 C   0  0  0  0  0  0  0  0  0  0  0  0
   45.2340   83.6670   56.9940 H   0  0  0  0  0  0  0  0  0  0  0  0
   46.8860   83.3260   55.5820 C   0  0  0  0  0  0  0  0  0  0  0  0
   47.5130   82.8420   56.3100 H   0  0  0  0  0  0  0  0  0  0  0  0
   47.3300   83.4900   54.2880 C   0  0  0  0  0  3  0  0  0  0  0  0
   46.4760   84.1190   53.4060 C   0  0  0  0  0  3  0  0  0  0  0  0
   42.9740   85.5270   52.9560 H   0  0  0  0  0  0  0  0  0  0  0  0
   44.2850   85.3390   52.5440 S   0  0  0  0  0  0  0  0  0  0  0  0
   44.3340   84.5560   51.2550 O   0  0  0  0  0  0  0  0  0  0  0  0
   44.8410   86.7050   52.2530 O   0  0  0  0  0  0  0  0  0  0  0  0
  2  1  1  0  0  0  0
  2  3  1  0  0  0  0
  3 12  1  0  0  0  0
  4  3  2  0  0  0  0
  4  9  1  0  0  0  0
  5  4  1  0  0  0  0
  6  8  1  0  0  0  0
  6  5  2  0  0  0  0
  7  6  1  0  0  0  0
  8  2  2  0  0  0  0
 10  5  1  0  0  0  0
 11 16  1  0  0  0  0
 12 13  1  0  0  0  0
 12 11  2  0  0  0  0
 13 14  2  0  0  0  0
 14 15  1  0  0  0  0
 15 19  1  0  0  0  0
 16 15  2  0  0  0  0
 17 11  1  0  0  0  0
 18 13  1  0  0  0  0
 19 22  1  0  0  0  0
 19 21  1  0  0  0  0
 20 19  1  0  0  0  0
 23  8  1  0  0  0  0
 24 27  1  0  0  0  0
 24 26  1  0  0  0  0
 24 23  1  0  0  0  0
 25 24  1  0  0  0  0
 28 29  1  0  0  0  0
 29 27  1  0  0  0  0
 29 30  2  0  0  0  0
 30 31  1  0  0  0  0
 32 30  1  0  0  0  0
 32 33  1  0  0  0  0
 34 32  2  0  0  0  0
 35 28  2  0  0  0  0
 35 34  1  0  0  0  0
 37 36  1  0  0  0  0
 37 28  1  0  0  0  0
 38 37  2  0  0  0  0
 39 37  2  0  0  0  0
M  END
>  <minimizedAffinity>
-4.76875877

>  <minimizedRMSD>
1.38750052

$$$$
