
 OpenBabel03212520333D

 44 47  0  0  0  0  0  0  0  0999 V2000
   41.3400   71.4170   60.2440 C   0  0  0  0  0  0  0  0  0  0  0  0
   40.9570   71.1400   58.9360 C   0  0  0  0  0  0  0  0  0  0  0  0
   41.2420   69.9210   58.3620 C   0  0  0  0  0  0  0  0  0  0  0  0
   41.9210   68.9060   59.0420 C   0  0  0  0  0  0  0  0  0  0  0  0
   42.3090   69.1580   60.3410 C   0  0  0  0  0  0  0  0  0  0  0  0
   42.0220   70.3860   60.9210 C   0  0  0  0  0  0  0  0  0  0  0  0
   40.9590   69.6760   57.3470 H   0  0  0  0  0  0  0  0  0  0  0  0
   42.1450   67.9550   58.5990 H   0  0  0  0  0  0  0  0  0  0  0  0
   42.8370   68.4440   60.9570 H   0  0  0  0  0  0  0  0  0  0  0  0
   42.3120   70.6130   61.9350 H   0  0  0  0  0  0  0  0  0  0  0  0
   38.2560   73.1850   57.4760 C   0  0  0  0  0  0  0  0  0  0  0  0
   38.9470   74.0130   56.6140 C   0  0  0  0  0  0  0  0  0  0  0  0
   40.3360   73.8490   56.5540 C   0  0  0  0  0  0  0  0  0  0  0  0
   40.9290   72.8960   57.3330 N   0  0  0  0  0  0  0  0  0  0  0  0
   40.2320   72.1210   58.1460 C   0  0  0  0  0  0  0  0  0  0  0  0
   38.8940   72.2670   58.2170 N   0  0  0  0  0  0  0  0  0  0  0  0
   37.1960   73.2830   57.5480 H   0  0  0  0  0  0  0  0  0  0  0  0
   40.9340   74.4590   55.9050 H   0  0  0  0  0  0  0  0  0  0  0  0
   38.2840   74.9880   55.8250 N   0  0  0  0  0  0  0  0  0  0  0  0
   38.2710   74.6960   54.5180 C   0  0  0  0  0  0  0  0  0  0  0  0
   37.6380   75.5990   53.6550 C   0  0  0  0  0  0  0  0  0  0  0  0
   37.0530   76.7500   54.1720 C   0  0  0  0  0  0  0  0  0  0  0  0
   36.4670   77.6090   53.4680 O   0  0  0  0  0  0  0  0  0  0  0  0
   37.1140   76.9670   55.5140 N   0  0  0  0  0  0  0  0  0  0  0  0
   37.7240   76.0980   56.3580 C   0  0  0  0  0  0  0  0  0  0  0  0
   37.7840   76.2870   57.5800 O   0  0  0  0  0  0  0  0  0  0  0  0
   38.7050   73.8270   54.0720 H   0  0  0  0  0  0  0  0  0  0  0  0
   37.5870   75.4350   52.5950 H   0  0  0  0  0  0  0  0  0  0  0  0
   36.7030   77.8030   55.9890 H   0  0  0  0  0  0  0  0  0  0  0  0
   40.9920   72.9270   61.0030 S   0  0  0  0  0  0  0  0  0  0  0  0
   41.5680   72.9630   62.3980 O   0  0  0  0  0  0  0  0  0  0  0  0
   39.4760   72.9560   61.2400 O   0  0  0  0  0  0  0  0  0  0  0  0
   42.7120   74.6180   59.7380 C   0  0  0  0  0  0  0  0  0  0  0  0
   41.4100   74.3650   60.1800 C   0  0  0  0  0  0  0  0  0  0  0  0
   40.5260   75.4260   59.9240 C   0  0  0  0  0  0  0  0  0  0  0  0
   39.5010   75.2300   60.2710 H   0  0  0  0  0  0  0  0  0  0  0  0
   40.8060   76.6260   59.3120 C   0  0  0  0  0  0  0  0  0  0  0  0
   39.9940   77.3310   59.1980 H   0  0  0  0  0  0  0  0  0  0  0  0
   42.1100   76.8090   58.9020 C   0  0  0  0  0  3  0  0  0  0  0  0
   43.0330   75.8090   59.1200 C   0  0  0  0  0  3  0  0  0  0  0  0
   43.5420   72.4140   60.8050 H   0  0  0  0  0  0  0  0  0  0  0  0
   43.9330   73.4060   59.9790 S   0  0  0  0  0  0  0  0  0  0  0  0
   45.1850   74.1180   60.3990 O   0  0  0  0  0  0  0  0  0  0  0  0
   44.2570   72.7500   58.6600 O   0  0  0  0  0  0  0  0  0  0  0  0
  1  6  1  0  0  0  0
  1 30  1  0  0  0  0
  2  1  2  0  0  0  0
  3  2  1  0  0  0  0
  3  4  2  0  0  0  0
  4  5  1  0  0  0  0
  5  6  2  0  0  0  0
  5  9  1  0  0  0  0
  6 10  1  0  0  0  0
  7  3  1  0  0  0  0
  8  4  1  0  0  0  0
 11 17  1  0  0  0  0
 11 16  1  0  0  0  0
 12 11  2  0  0  0  0
 13 12  1  0  0  0  0
 13 14  2  0  0  0  0
 14 15  1  0  0  0  0
 15 16  2  0  0  0  0
 15  2  1  0  0  0  0
 18 13  1  0  0  0  0
 19 25  1  0  0  0  0
 19 12  1  0  0  0  0
 20 19  1  0  0  0  0
 21 22  1  0  0  0  0
 21 20  2  0  0  0  0
 22 24  1  0  0  0  0
 23 22  2  0  0  0  0
 24 29  1  0  0  0  0
 24 25  1  0  0  0  0
 25 26  2  0  0  0  0
 27 20  1  0  0  0  0
 28 21  1  0  0  0  0
 30 32  2  0  0  0  0
 30 31  2  0  0  0  0
 33 42  1  0  0  0  0
 33 34  1  0  0  0  0
 34 30  1  0  0  0  0
 35 34  2  0  0  0  0
 35 36  1  0  0  0  0
 37 35  1  0  0  0  0
 38 37  1  0  0  0  0
 39 40  1  0  0  0  0
 39 37  2  0  0  0  0
 40 33  2  0  0  0  0
 42 43  2  0  0  0  0
 42 41  1  0  0  0  0
 44 42  2  0  0  0  0
M  END
>  <minimizedAffinity>
-6.87150192

$$$$

 OpenBabel03212520333D

 44 47  0  0  0  0  0  0  0  0999 V2000
   41.4400   71.1260   60.1520 C   0  0  0  0  0  0  0  0  0  0  0  0
   41.0790   70.7540   58.8610 C   0  0  0  0  0  0  0  0  0  0  0  0
   41.3430   69.4850   58.3930 C   0  0  0  0  0  0  0  0  0  0  0  0
   41.9760   68.5110   59.1700 C   0  0  0  0  0  0  0  0  0  0  0  0
   42.3420   68.8570   60.4530 C   0  0  0  0  0  0  0  0  0  0  0  0
   42.0770   70.1340   60.9250 C   0  0  0  0  0  0  0  0  0  0  0  0
   41.0760   69.1670   57.3950 H   0  0  0  0  0  0  0  0  0  0  0  0
   42.1840   67.5210   58.8100 H   0  0  0  0  0  0  0  0  0  0  0  0
   42.8350   68.1810   61.1380 H   0  0  0  0  0  0  0  0  0  0  0  0
   42.3510   70.4350   61.9250 H   0  0  0  0  0  0  0  0  0  0  0  0
   40.4020   73.4690   56.4580 C   0  0  0  0  0  0  0  0  0  0  0  0
   39.0300   73.4050   56.3210 C   0  0  0  0  0  0  0  0  0  0  0  0
   38.3630   72.4240   57.0640 C   0  0  0  0  0  0  0  0  0  0  0  0
   39.0860   71.5940   57.8720 N   0  0  0  0  0  0  0  0  0  0  0  0
   40.4010   71.6870   57.9770 C   0  0  0  0  0  0  0  0  0  0  0  0
   41.0590   72.6260   57.2680 N   0  0  0  0  0  0  0  0  0  0  0  0
   40.9430   74.2060   55.9050 H   0  0  0  0  0  0  0  0  0  0  0  0
   37.2970   72.3200   57.0040 H   0  0  0  0  0  0  0  0  0  0  0  0
   38.3240   74.2920   55.4670 N   0  0  0  0  0  0  0  0  0  0  0  0
   38.7940   74.3110   54.2130 C   0  0  0  0  0  0  0  0  0  0  0  0
   38.1630   75.1580   53.2930 C   0  0  0  0  0  0  0  0  0  0  0  0
   37.0870   75.9380   53.7030 C   0  0  0  0  0  0  0  0  0  0  0  0
   36.4670   76.7210   52.9410 O   0  0  0  0  0  0  0  0  0  0  0  0
   36.6760   75.8560   54.9970 N   0  0  0  0  0  0  0  0  0  0  0  0
   37.2810   75.0390   55.8950 C   0  0  0  0  0  0  0  0  0  0  0  0
   36.9130   74.9580   57.0740 O   0  0  0  0  0  0  0  0  0  0  0  0
   39.6160   73.7330   53.8500 H   0  0  0  0  0  0  0  0  0  0  0  0
   38.4830   75.2280   52.2700 H   0  0  0  0  0  0  0  0  0  0  0  0
   35.8780   76.4040   55.3910 H   0  0  0  0  0  0  0  0  0  0  0  0
   41.1190   72.7000   60.7780 S   0  0  0  0  0  0  0  0  0  0  0  0
   41.4190   72.7530   62.2560 O   0  0  0  0  0  0  0  0  0  0  0  0
   39.5970   72.8920   60.7140 O   0  0  0  0  0  0  0  0  0  0  0  0
   41.1810   75.2740   59.8890 C   0  0  0  0  0  0  0  0  0  0  0  0
   41.8370   74.0440   60.0060 C   0  0  0  0  0  0  0  0  0  0  0  0
   43.0950   74.0310   59.3800 C   0  0  0  0  0  0  0  0  0  0  0  0
   43.6130   73.0650   59.4690 H   0  0  0  0  0  0  0  0  0  0  0  0
   43.7080   75.0580   58.7030 C   0  0  0  0  0  0  0  0  0  0  0  0
   44.6860   74.8670   58.2820 H   0  0  0  0  0  0  0  0  0  0  0  0
   43.0050   76.2420   58.6260 C   0  0  0  0  0  3  0  0  0  0  0  0
   41.7630   76.3290   59.2170 C   0  0  0  0  0  3  0  0  0  0  0  0
   39.2420   74.4060   61.3640 H   0  0  0  0  0  0  0  0  0  0  0  0
   39.6100   75.4600   60.6070 S   0  0  0  0  0  0  0  0  0  0  0  0
   38.6570   75.8030   59.5000 O   0  0  0  0  0  0  0  0  0  0  0  0
   39.6160   76.6540   61.5270 O   0  0  0  0  0  0  0  0  0  0  0  0
  1 30  1  0  0  0  0
  1  6  1  0  0  0  0
  2  1  2  0  0  0  0
  3  2  1  0  0  0  0
  3  4  2  0  0  0  0
  4  5  1  0  0  0  0
  5  6  2  0  0  0  0
  5  9  1  0  0  0  0
  6 10  1  0  0  0  0
  7  3  1  0  0  0  0
  8  4  1  0  0  0  0
 11 16  1  0  0  0  0
 12 11  2  0  0  0  0
 12 13  1  0  0  0  0
 13 14  2  0  0  0  0
 14 15  1  0  0  0  0
 15  2  1  0  0  0  0
 16 15  2  0  0  0  0
 17 11  1  0  0  0  0
 18 13  1  0  0  0  0
 19 25  1  0  0  0  0
 19 12  1  0  0  0  0
 20 19  1  0  0  0  0
 21 22  1  0  0  0  0
 21 20  2  0  0  0  0
 22 24  1  0  0  0  0
 23 22  2  0  0  0  0
 24 29  1  0  0  0  0
 24 25  1  0  0  0  0
 25 26  2  0  0  0  0
 27 20  1  0  0  0  0
 28 21  1  0  0  0  0
 30 31  2  0  0  0  0
 32 30  2  0  0  0  0
 33 34  1  0  0  0  0
 33 42  1  0  0  0  0
 34 30  1  0  0  0  0
 35 36  1  0  0  0  0
 35 34  2  0  0  0  0
 37 35  1  0  0  0  0
 38 37  1  0  0  0  0
 39 37  2  0  0  0  0
 39 40  1  0  0  0  0
 40 33  2  0  0  0  0
 42 41  1  0  0  0  0
 42 44  2  0  0  0  0
 43 42  2  0  0  0  0
M  END
>  <minimizedAffinity>
-6.8036108

$$$$

 OpenBabel03212520333D

 44 47  0  0  0  0  0  0  0  0999 V2000
   41.8230   71.1520   59.5020 C   0  0  0  0  0  0  0  0  0  0  0  0
   40.9340   70.8350   58.4800 C   0  0  0  0  0  0  0  0  0  0  0  0
   40.6300   69.5220   58.1930 C   0  0  0  0  0  0  0  0  0  0  0  0
   41.1850   68.4480   58.8950 C   0  0  0  0  0  0  0  0  0  0  0  0
   42.0680   68.7390   59.9130 C   0  0  0  0  0  0  0  0  0  0  0  0
   42.3750   70.0600   60.2030 C   0  0  0  0  0  0  0  0  0  0  0  0
   39.9440   69.2430   57.4050 H   0  0  0  0  0  0  0  0  0  0  0  0
   40.9520   67.4240   58.6750 H   0  0  0  0  0  0  0  0  0  0  0  0
   42.5530   67.9860   60.5180 H   0  0  0  0  0  0  0  0  0  0  0  0
   43.0620   70.3210   60.9930 H   0  0  0  0  0  0  0  0  0  0  0  0
   40.3220   73.5640   56.0760 C   0  0  0  0  0  0  0  0  0  0  0  0
   38.9790   73.8260   56.2640 C   0  0  0  0  0  0  0  0  0  0  0  0
   38.3100   73.0540   57.2210 C   0  0  0  0  0  0  0  0  0  0  0  0
   39.0020   72.0980   57.9090 N   0  0  0  0  0  0  0  0  0  0  0  0
   40.2890   71.8770   57.7000 C   0  0  0  0  0  0  0  0  0  0  0  0
   40.9480   72.6110   56.7820 N   0  0  0  0  0  0  0  0  0  0  0  0
   40.8630   74.1340   55.3540 H   0  0  0  0  0  0  0  0  0  0  0  0
   37.2660   73.2060   57.4170 H   0  0  0  0  0  0  0  0  0  0  0  0
   38.3060   74.8320   55.5230 N   0  0  0  0  0  0  0  0  0  0  0  0
   38.3450   74.6340   54.1990 C   0  0  0  0  0  0  0  0  0  0  0  0
   37.7080   75.5750   53.3810 C   0  0  0  0  0  0  0  0  0  0  0  0
   37.0650   76.6650   53.9580 C   0  0  0  0  0  0  0  0  0  0  0  0
   36.4700   77.5510   53.2960 O   0  0  0  0  0  0  0  0  0  0  0  0
   37.0740   76.7870   55.3120 N   0  0  0  0  0  0  0  0  0  0  0  0
   37.6890   75.8810   56.1140 C   0  0  0  0  0  0  0  0  0  0  0  0
   37.7030   75.9840   57.3470 O   0  0  0  0  0  0  0  0  0  0  0  0
   38.8250   73.8150   53.7090 H   0  0  0  0  0  0  0  0  0  0  0  0
   37.6960   75.4850   52.3110 H   0  0  0  0  0  0  0  0  0  0  0  0
   36.6180   77.5720   55.8310 H   0  0  0  0  0  0  0  0  0  0  0  0
   42.2210   72.7820   59.9000 S   0  0  0  0  0  0  0  0  0  0  0  0
   43.1340   73.3750   58.8540 O   0  0  0  0  0  0  0  0  0  0  0  0
   43.1040   72.7210   61.1540 O   0  0  0  0  0  0  0  0  0  0  0  0
   41.0120   75.2220   59.8580 C   0  0  0  0  0  0  0  0  0  0  0  0
   40.9470   73.8740   60.2230 C   0  0  0  0  0  0  0  0  0  0  0  0
   39.7700   73.5480   60.9170 C   0  0  0  0  0  0  0  0  0  0  0  0
   39.7160   72.4880   61.2070 H   0  0  0  0  0  0  0  0  0  0  0  0
   38.7310   74.3850   61.2520 C   0  0  0  0  0  0  0  0  0  0  0  0
   37.8970   73.9570   61.7910 H   0  0  0  0  0  0  0  0  0  0  0  0
   38.8600   75.7010   60.8610 C   0  0  0  0  0  3  0  0  0  0  0  0
   39.9900   76.0940   60.1750 C   0  0  0  0  0  3  0  0  0  0  0  0
   43.3830   74.8700   58.8900 H   0  0  0  0  0  0  0  0  0  0  0  0
   42.4060   75.7940   58.9930 S   0  0  0  0  0  0  0  0  0  0  0  0
   42.8240   77.0840   59.6330 O   0  0  0  0  0  0  0  0  0  0  0  0
   42.0110   76.1460   57.5810 O   0  0  0  0  0  0  0  0  0  0  0  0
  1 30  1  0  0  0  0
  1  6  1  0  0  0  0
  2  1  2  0  0  0  0
  3  2  1  0  0  0  0
  3  4  2  0  0  0  0
  4  5  1  0  0  0  0
  5  6  2  0  0  0  0
  5  9  1  0  0  0  0
  6 10  1  0  0  0  0
  7  3  1  0  0  0  0
  8  4  1  0  0  0  0
 11 12  2  0  0  0  0
 11 16  1  0  0  0  0
 12 13  1  0  0  0  0
 13 18  1  0  0  0  0
 13 14  2  0  0  0  0
 15 14  1  0  0  0  0
 15  2  1  0  0  0  0
 16 15  2  0  0  0  0
 17 11  1  0  0  0  0
 19 25  1  0  0  0  0
 19 12  1  0  0  0  0
 20 19  1  0  0  0  0
 21 22  1  0  0  0  0
 21 20  2  0  0  0  0
 22 24  1  0  0  0  0
 23 22  2  0  0  0  0
 24 29  1  0  0  0  0
 24 25  1  0  0  0  0
 25 26  2  0  0  0  0
 27 20  1  0  0  0  0
 28 21  1  0  0  0  0
 30 34  1  0  0  0  0
 30 32  2  0  0  0  0
 31 30  2  0  0  0  0
 33 40  2  0  0  0  0
 33 34  1  0  0  0  0
 34 35  2  0  0  0  0
 35 36  1  0  0  0  0
 35 37  1  0  0  0  0
 37 38  1  0  0  0  0
 39 37  2  0  0  0  0
 40 39  1  0  0  0  0
 41 42  1  0  0  0  0
 42 43  2  0  0  0  0
 42 33  1  0  0  0  0
 44 42  2  0  0  0  0
M  END
>  <minimizedAffinity>
-6.78022575

$$$$

 OpenBabel03212520333D

 44 47  0  0  0  0  0  0  0  0999 V2000
   42.4870   70.8350   61.2700 C   0  0  0  0  0  0  0  0  0  0  0  0
   41.9990   70.1230   60.1800 C   0  0  0  0  0  0  0  0  0  0  0  0
   41.9310   68.7470   60.2110 C   0  0  0  0  0  0  0  0  0  0  0  0
   42.3400   67.9950   61.3160 C   0  0  0  0  0  0  0  0  0  0  0  0
   42.8260   68.6820   62.4090 C   0  0  0  0  0  0  0  0  0  0  0  0
   42.8950   70.0670   62.3790 C   0  0  0  0  0  0  0  0  0  0  0  0
   41.5580   68.1650   59.3790 H   0  0  0  0  0  0  0  0  0  0  0  0
   42.2890   66.9240   61.3450 H   0  0  0  0  0  0  0  0  0  0  0  0
   43.1680   68.2000   63.3150 H   0  0  0  0  0  0  0  0  0  0  0  0
   43.2710   70.6320   63.2180 H   0  0  0  0  0  0  0  0  0  0  0  0
   41.9050   71.8680   56.9320 C   0  0  0  0  0  0  0  0  0  0  0  0
   40.5540   72.0920   56.7570 C   0  0  0  0  0  0  0  0  0  0  0  0
   39.6990   71.6350   57.7670 C   0  0  0  0  0  0  0  0  0  0  0  0
   40.2310   71.0040   58.8560 N   0  0  0  0  0  0  0  0  0  0  0  0
   41.5320   70.8080   58.9870 C   0  0  0  0  0  0  0  0  0  0  0  0
   42.3690   71.2410   58.0230 N   0  0  0  0  0  0  0  0  0  0  0  0
   42.5850   72.2030   56.1810 H   0  0  0  0  0  0  0  0  0  0  0  0
   38.6380   71.7760   57.6950 H   0  0  0  0  0  0  0  0  0  0  0  0
   40.0510   72.7540   55.6070 N   0  0  0  0  0  0  0  0  0  0  0  0
   39.9830   74.0850   55.7460 C   0  0  0  0  0  0  0  0  0  0  0  0
   39.4980   74.8280   54.6630 C   0  0  0  0  0  0  0  0  0  0  0  0
   39.1090   74.1750   53.4990 C   0  0  0  0  0  0  0  0  0  0  0  0
   38.6650   74.7680   52.4850 O   0  0  0  0  0  0  0  0  0  0  0  0
   39.2110   72.8200   53.4450 N   0  0  0  0  0  0  0  0  0  0  0  0
   39.6800   72.0900   54.4890 C   0  0  0  0  0  0  0  0  0  0  0  0
   39.7770   70.8570   54.4490 O   0  0  0  0  0  0  0  0  0  0  0  0
   40.2690   74.6320   56.6170 H   0  0  0  0  0  0  0  0  0  0  0  0
   39.4140   75.8990   54.6980 H   0  0  0  0  0  0  0  0  0  0  0  0
   38.9430   72.2470   52.6130 H   0  0  0  0  0  0  0  0  0  0  0  0
   42.5780   72.5580   61.2750 S   0  0  0  0  0  0  0  0  0  0  0  0
   43.7440   73.0290   60.4410 O   0  0  0  0  0  0  0  0  0  0  0  0
   42.9690   72.9690   62.7020 O   0  0  0  0  0  0  0  0  0  0  0  0
   41.2350   74.5490   59.9920 C   0  0  0  0  0  0  0  0  0  0  0  0
   41.1820   73.4470   60.8510 C   0  0  0  0  0  0  0  0  0  0  0  0
   39.8930   73.2000   61.3510 C   0  0  0  0  0  0  0  0  0  0  0  0
   39.8480   72.3340   62.0270 H   0  0  0  0  0  0  0  0  0  0  0  0
   38.7400   73.9030   61.0880 C   0  0  0  0  0  0  0  0  0  0  0  0
   37.8290   73.5670   61.5660 H   0  0  0  0  0  0  0  0  0  0  0  0
   38.8640   74.9780   60.2340 C   0  0  0  0  0  3  0  0  0  0  0  0
   40.1010   75.2800   59.7040 C   0  0  0  0  0  3  0  0  0  0  0  0
   43.7900   74.2490   59.7340 H   0  0  0  0  0  0  0  0  0  0  0  0
   42.7580   74.9940   59.2860 S   0  0  0  0  0  0  0  0  0  0  0  0
   42.9200   76.4720   59.4790 O   0  0  0  0  0  0  0  0  0  0  0  0
   42.7020   74.7790   57.7950 O   0  0  0  0  0  0  0  0  0  0  0  0
  1 30  1  0  0  0  0
  1  6  1  0  0  0  0
  2  3  1  0  0  0  0
  2  1  2  0  0  0  0
  3  4  2  0  0  0  0
  4  8  1  0  0  0  0
  4  5  1  0  0  0  0
  5  9  1  0  0  0  0
  6  5  2  0  0  0  0
  6 10  1  0  0  0  0
  7  3  1  0  0  0  0
 11 16  1  0  0  0  0
 12 11  2  0  0  0  0
 12 13  1  0  0  0  0
 13 14  2  0  0  0  0
 14 15  1  0  0  0  0
 15  2  1  0  0  0  0
 16 15  2  0  0  0  0
 17 11  1  0  0  0  0
 18 13  1  0  0  0  0
 19 20  1  0  0  0  0
 19 12  1  0  0  0  0
 20 27  1  0  0  0  0
 21 28  1  0  0  0  0
 21 20  2  0  0  0  0
 22 21  1  0  0  0  0
 23 22  2  0  0  0  0
 24 22  1  0  0  0  0
 24 25  1  0  0  0  0
 25 19  1  0  0  0  0
 26 25  2  0  0  0  0
 29 24  1  0  0  0  0
 30 32  2  0  0  0  0
 31 30  2  0  0  0  0
 33 34  1  0  0  0  0
 34 30  1  0  0  0  0
 34 35  2  0  0  0  0
 35 36  1  0  0  0  0
 37 35  1  0  0  0  0
 37 38  1  0  0  0  0
 39 37  2  0  0  0  0
 40 33  2  0  0  0  0
 40 39  1  0  0  0  0
 42 43  2  0  0  0  0
 42 41  1  0  0  0  0
 42 33  1  0  0  0  0
 44 42  2  0  0  0  0
M  END
>  <minimizedAffinity>
-6.54357481

$$$$

 OpenBabel03212520333D

 44 47  0  0  0  0  0  0  0  0999 V2000
   42.2560   70.9630   61.2250 C   0  0  0  0  0  0  0  0  0  0  0  0
   42.1440   70.3490   59.9810 C   0  0  0  0  0  0  0  0  0  0  0  0
   42.6030   69.0650   59.7860 C   0  0  0  0  0  0  0  0  0  0  0  0
   43.1960   68.3120   60.8040 C   0  0  0  0  0  0  0  0  0  0  0  0
   43.3150   68.9010   62.0450 C   0  0  0  0  0  0  0  0  0  0  0  0
   42.8550   70.1940   62.2430 C   0  0  0  0  0  0  0  0  0  0  0  0
   42.5320   68.5610   58.8320 H   0  0  0  0  0  0  0  0  0  0  0  0
   43.5540   67.3110   60.6570 H   0  0  0  0  0  0  0  0  0  0  0  0
   43.7570   68.4090   62.9010 H   0  0  0  0  0  0  0  0  0  0  0  0
   42.9330   70.6820   63.2020 H   0  0  0  0  0  0  0  0  0  0  0  0
   39.6560   71.8000   57.6770 C   0  0  0  0  0  0  0  0  0  0  0  0
   40.4540   72.3690   56.7040 C   0  0  0  0  0  0  0  0  0  0  0  0
   41.8380   72.2390   56.8610 C   0  0  0  0  0  0  0  0  0  0  0  0
   42.3250   71.5690   57.9480 N   0  0  0  0  0  0  0  0  0  0  0  0
   41.5280   71.0380   58.8600 C   0  0  0  0  0  0  0  0  0  0  0  0
   40.1930   71.1550   58.7230 N   0  0  0  0  0  0  0  0  0  0  0  0
   38.5960   71.8810   57.5880 H   0  0  0  0  0  0  0  0  0  0  0  0
   42.5150   72.6570   56.1420 H   0  0  0  0  0  0  0  0  0  0  0  0
   39.8980   73.0540   55.5920 N   0  0  0  0  0  0  0  0  0  0  0  0
   39.7340   74.3670   55.8040 C   0  0  0  0  0  0  0  0  0  0  0  0
   39.1900   75.1310   54.7640 C   0  0  0  0  0  0  0  0  0  0  0  0
   38.8450   74.5160   53.5660 C   0  0  0  0  0  0  0  0  0  0  0  0
   38.3530   75.1290   52.5860 O   0  0  0  0  0  0  0  0  0  0  0  0
   39.0460   73.1770   53.4380 N   0  0  0  0  0  0  0  0  0  0  0  0
   39.5720   72.4270   54.4390 C   0  0  0  0  0  0  0  0  0  0  0  0
   39.7590   71.2090   54.3310 O   0  0  0  0  0  0  0  0  0  0  0  0
   39.9820   74.8850   56.7040 H   0  0  0  0  0  0  0  0  0  0  0  0
   39.0280   76.1890   54.8580 H   0  0  0  0  0  0  0  0  0  0  0  0
   38.8160   72.6320   52.5750 H   0  0  0  0  0  0  0  0  0  0  0  0
   41.6850   72.5650   61.5120 S   0  0  0  0  0  0  0  0  0  0  0  0
   42.0290   73.0060   62.9140 O   0  0  0  0  0  0  0  0  0  0  0  0
   40.1520   72.4850   61.5260 O   0  0  0  0  0  0  0  0  0  0  0  0
   41.1850   74.6820   59.8730 C   0  0  0  0  0  0  0  0  0  0  0  0
   42.1230   73.7940   60.4090 C   0  0  0  0  0  0  0  0  0  0  0  0
   43.4180   73.9910   59.9020 C   0  0  0  0  0  0  0  0  0  0  0  0
   44.1590   73.2940   60.3210 H   0  0  0  0  0  0  0  0  0  0  0  0
   43.8280   74.9260   58.9800 C   0  0  0  0  0  0  0  0  0  0  0  0
   44.8750   74.9330   58.7060 H   0  0  0  0  0  0  0  0  0  0  0  0
   42.8520   75.7700   58.4940 C   0  0  0  0  0  3  0  0  0  0  0  0
   41.5560   75.6340   58.9460 C   0  0  0  0  0  3  0  0  0  0  0  0
   39.2610   73.4410   61.0740 H   0  0  0  0  0  0  0  0  0  0  0  0
   39.5310   74.5730   60.3930 S   0  0  0  0  0  0  0  0  0  0  0  0
   38.6730   74.8000   59.1840 O   0  0  0  0  0  0  0  0  0  0  0  0
   39.2240   75.7110   61.3330 O   0  0  0  0  0  0  0  0  0  0  0  0
  1 30  1  0  0  0  0
  1  6  1  0  0  0  0
  2  1  2  0  0  0  0
  3  2  1  0  0  0  0
  3  4  2  0  0  0  0
  4  5  1  0  0  0  0
  5  6  2  0  0  0  0
  5  9  1  0  0  0  0
  6 10  1  0  0  0  0
  7  3  1  0  0  0  0
  8  4  1  0  0  0  0
 11 16  1  0  0  0  0
 12 13  1  0  0  0  0
 12 11  2  0  0  0  0
 13 14  2  0  0  0  0
 14 15  1  0  0  0  0
 15  2  1  0  0  0  0
 16 15  2  0  0  0  0
 17 11  1  0  0  0  0
 18 13  1  0  0  0  0
 19 20  1  0  0  0  0
 19 12  1  0  0  0  0
 20 27  1  0  0  0  0
 21 28  1  0  0  0  0
 21 20  2  0  0  0  0
 22 21  1  0  0  0  0
 23 22  2  0  0  0  0
 24 22  1  0  0  0  0
 24 25  1  0  0  0  0
 25 19  1  0  0  0  0
 26 25  2  0  0  0  0
 29 24  1  0  0  0  0
 30 32  2  0  0  0  0
 30 31  2  0  0  0  0
 33 42  1  0  0  0  0
 33 34  1  0  0  0  0
 34 30  1  0  0  0  0
 35 36  1  0  0  0  0
 35 34  2  0  0  0  0
 37 35  1  0  0  0  0
 38 37  1  0  0  0  0
 39 40  1  0  0  0  0
 39 37  2  0  0  0  0
 40 33  2  0  0  0  0
 42 41  1  0  0  0  0
 42 44  2  0  0  0  0
 43 42  2  0  0  0  0
M  END
>  <minimizedAffinity>
-6.49900627

$$$$

 OpenBabel03212520333D

 44 47  0  0  0  0  0  0  0  0999 V2000
   41.3490   74.5990   60.0160 C   0  0  0  0  0  0  0  0  0  0  0  0
   40.6930   73.6370   60.7780 C   0  0  0  0  0  0  0  0  0  0  0  0
   39.4400   73.8810   61.2940 C   0  0  0  0  0  0  0  0  0  0  0  0
   38.7600   75.0850   61.0900 C   0  0  0  0  0  0  0  0  0  0  0  0
   39.3900   76.0530   60.3360 C   0  0  0  0  0  0  0  0  0  0  0  0
   40.6530   75.8090   59.8170 C   0  0  0  0  0  0  0  0  0  0  0  0
   38.9050   73.1540   61.8910 H   0  0  0  0  0  0  0  0  0  0  0  0
   37.7830   75.2790   61.4890 H   0  0  0  0  0  0  0  0  0  0  0  0
   38.9550   77.0180   60.1170 H   0  0  0  0  0  0  0  0  0  0  0  0
   41.1720   76.5460   59.2230 H   0  0  0  0  0  0  0  0  0  0  0  0
   41.8710   70.1610   60.4050 C   0  0  0  0  0  0  0  0  0  0  0  0
   42.4970   69.9320   61.6140 C   0  0  0  0  0  0  0  0  0  0  0  0
   42.5000   70.9840   62.5370 C   0  0  0  0  0  0  0  0  0  0  0  0
   41.8950   72.1630   62.2060 N   0  0  0  0  0  0  0  0  0  0  0  0
   41.3050   72.3440   61.0360 C   0  0  0  0  0  0  0  0  0  0  0  0
   41.2940   71.3420   60.1360 N   0  0  0  0  0  0  0  0  0  0  0  0
   41.8510   69.3810   59.6770 H   0  0  0  0  0  0  0  0  0  0  0  0
   42.9690   70.8730   63.4950 H   0  0  0  0  0  0  0  0  0  0  0  0
   43.1110   68.6870   61.9100 N   0  0  0  0  0  0  0  0  0  0  0  0
   44.3240   68.5470   61.3580 C   0  0  0  0  0  0  0  0  0  0  0  0
   45.0120   67.3500   61.5930 C   0  0  0  0  0  0  0  0  0  0  0  0
   44.4260   66.3620   62.3780 C   0  0  0  0  0  0  0  0  0  0  0  0
   44.9750   65.2630   62.6360 O   0  0  0  0  0  0  0  0  0  0  0  0
   43.1900   66.5890   62.8990 N   0  0  0  0  0  0  0  0  0  0  0  0
   42.5160   67.7460   62.6770 C   0  0  0  0  0  0  0  0  0  0  0  0
   41.3910   67.9610   63.1470 O   0  0  0  0  0  0  0  0  0  0  0  0
   44.8160   69.2740   60.7500 H   0  0  0  0  0  0  0  0  0  0  0  0
   45.9870   67.1630   61.1850 H   0  0  0  0  0  0  0  0  0  0  0  0
   42.6740   65.9050   63.4980 H   0  0  0  0  0  0  0  0  0  0  0  0
   42.9140   74.3290   59.3440 S   0  0  0  0  0  0  0  0  0  0  0  0
   43.8610   73.8130   60.3990 O   0  0  0  0  0  0  0  0  0  0  0  0
   43.4830   75.7120   58.9970 O   0  0  0  0  0  0  0  0  0  0  0  0
   44.2760   72.9800   57.4100 C   0  0  0  0  0  0  0  0  0  0  0  0
   43.0400   73.3570   57.9440 C   0  0  0  0  0  0  0  0  0  0  0  0
   41.9510   72.9030   57.1840 C   0  0  0  0  0  0  0  0  0  0  0  0
   40.9770   73.1980   57.6010 H   0  0  0  0  0  0  0  0  0  0  0  0
   41.9840   72.1610   56.0260 C   0  0  0  0  0  0  0  0  0  0  0  0
   41.0370   71.8990   55.5730 H   0  0  0  0  0  0  0  0  0  0  0  0
   43.2350   71.8240   55.5550 C   0  0  0  0  0  3  0  0  0  0  0  0
   44.3520   72.2360   56.2510 C   0  0  0  0  0  3  0  0  0  0  0  0
   45.5010   74.0170   59.4380 H   0  0  0  0  0  0  0  0  0  0  0  0
   45.7300   73.4640   58.2290 S   0  0  0  0  0  0  0  0  0  0  0  0
   46.5060   74.3260   57.2790 O   0  0  0  0  0  0  0  0  0  0  0  0
   46.5920   72.2520   58.4790 O   0  0  0  0  0  0  0  0  0  0  0  0
  1  2  1  0  0  0  0
  2 15  1  0  0  0  0
  2  3  2  0  0  0  0
  3  7  1  0  0  0  0
  4  3  1  0  0  0  0
  4  8  1  0  0  0  0
  5  4  2  0  0  0  0
  6  1  2  0  0  0  0
  6  5  1  0  0  0  0
  9  5  1  0  0  0  0
 10  6  1  0  0  0  0
 11 12  1  0  0  0  0
 12 19  1  0  0  0  0
 12 13  2  0  0  0  0
 13 18  1  0  0  0  0
 14 13  1  0  0  0  0
 15 14  2  0  0  0  0
 16 11  2  0  0  0  0
 16 15  1  0  0  0  0
 17 11  1  0  0  0  0
 19 25  1  0  0  0  0
 20 21  2  0  0  0  0
 20 19  1  0  0  0  0
 21 22  1  0  0  0  0
 22 23  2  0  0  0  0
 22 24  1  0  0  0  0
 24 29  1  0  0  0  0
 25 24  1  0  0  0  0
 25 26  2  0  0  0  0
 27 20  1  0  0  0  0
 28 21  1  0  0  0  0
 30  1  1  0  0  0  0
 30 31  2  0  0  0  0
 32 30  2  0  0  0  0
 33 34  1  0  0  0  0
 33 42  1  0  0  0  0
 34 30  1  0  0  0  0
 35 36  1  0  0  0  0
 35 34  2  0  0  0  0
 37 35  1  0  0  0  0
 38 37  1  0  0  0  0
 39 37  2  0  0  0  0
 39 40  1  0  0  0  0
 40 33  2  0  0  0  0
 42 44  2  0  0  0  0
 42 41  1  0  0  0  0
 43 42  2  0  0  0  0
M  END
>  <minimizedAffinity>
-6.27388716

$$$$

 OpenBabel03212520333D

 44 47  0  0  0  0  0  0  0  0999 V2000
   38.7760   75.4760   55.4960 C   0  0  0  0  0  0  0  0  0  0  0  0
   39.1130   74.2020   55.0510 C   0  0  0  0  0  0  0  0  0  0  0  0
   39.0220   73.8750   53.7160 C   0  0  0  0  0  0  0  0  0  0  0  0
   38.5930   74.7830   52.7440 C   0  0  0  0  0  0  0  0  0  0  0  0
   38.2550   76.0530   53.1620 C   0  0  0  0  0  0  0  0  0  0  0  0
   38.3460   76.3830   54.5060 C   0  0  0  0  0  0  0  0  0  0  0  0
   39.2760   72.8940   53.3390 H   0  0  0  0  0  0  0  0  0  0  0  0
   38.5200   74.5330   51.7030 H   0  0  0  0  0  0  0  0  0  0  0  0
   37.9120   76.8320   52.4950 H   0  0  0  0  0  0  0  0  0  0  0  0
   38.0880   77.3680   54.8650 H   0  0  0  0  0  0  0  0  0  0  0  0
   39.2330   71.6000   57.6620 C   0  0  0  0  0  0  0  0  0  0  0  0
   40.5750   71.2750   57.6920 C   0  0  0  0  0  0  0  0  0  0  0  0
   41.4140   71.9630   56.8090 C   0  0  0  0  0  0  0  0  0  0  0  0
   40.8780   72.9050   55.9770 N   0  0  0  0  0  0  0  0  0  0  0  0
   39.5870   73.1880   55.9780 C   0  0  0  0  0  0  0  0  0  0  0  0
   38.7640   72.5340   56.8210 N   0  0  0  0  0  0  0  0  0  0  0  0
   38.5640   71.0940   58.3220 H   0  0  0  0  0  0  0  0  0  0  0  0
   42.4670   71.7600   56.7810 H   0  0  0  0  0  0  0  0  0  0  0  0
   41.0830   70.2890   58.5770 N   0  0  0  0  0  0  0  0  0  0  0  0
   40.8920   69.0350   58.1440 C   0  0  0  0  0  0  0  0  0  0  0  0
   41.3580   67.9900   58.9500 C   0  0  0  0  0  0  0  0  0  0  0  0
   41.9950   68.2790   60.1520 C   0  0  0  0  0  0  0  0  0  0  0  0
   42.4420   67.4010   60.9310 O   0  0  0  0  0  0  0  0  0  0  0  0
   42.1460   69.5820   60.5140 N   0  0  0  0  0  0  0  0  0  0  0  0
   41.6970   70.6020   59.7410 C   0  0  0  0  0  0  0  0  0  0  0  0
   41.8310   71.7900   60.0620 O   0  0  0  0  0  0  0  0  0  0  0  0
   40.4100   68.7620   57.2310 H   0  0  0  0  0  0  0  0  0  0  0  0
   41.2420   66.9590   58.6710 H   0  0  0  0  0  0  0  0  0  0  0  0
   42.6100   69.8910   61.3980 H   0  0  0  0  0  0  0  0  0  0  0  0
   38.8860   75.9280   57.1570 S   0  0  0  0  0  0  0  0  0  0  0  0
   37.7910   75.2690   57.9590 O   0  0  0  0  0  0  0  0  0  0  0  0
   38.5330   77.4210   57.2260 O   0  0  0  0  0  0  0  0  0  0  0  0
   40.4590   75.2770   59.2830 C   0  0  0  0  0  0  0  0  0  0  0  0
   40.3810   75.7180   57.9580 C   0  0  0  0  0  0  0  0  0  0  0  0
   41.6360   76.0140   57.4020 C   0  0  0  0  0  0  0  0  0  0  0  0
   41.5780   76.3630   56.3610 H   0  0  0  0  0  0  0  0  0  0  0  0
   42.8680   75.9140   58.0050 C   0  0  0  0  0  0  0  0  0  0  0  0
   43.7360   76.1860   57.4190 H   0  0  0  0  0  0  0  0  0  0  0  0
   42.8720   75.4720   59.3110 C   0  0  0  0  0  3  0  0  0  0  0  0
   41.6760   75.1630   59.9230 C   0  0  0  0  0  3  0  0  0  0  0  0
   37.9040   74.8820   59.3270 H   0  0  0  0  0  0  0  0  0  0  0  0
   38.9930   74.8690   60.1220 S   0  0  0  0  0  0  0  0  0  0  0  0
   38.9080   75.7660   61.3210 O   0  0  0  0  0  0  0  0  0  0  0  0
   39.0990   73.4670   60.6650 O   0  0  0  0  0  0  0  0  0  0  0  0
  1 30  1  0  0  0  0
  2  1  1  0  0  0  0
  2 15  1  0  0  0  0
  3  2  2  0  0  0  0
  4  5  2  0  0  0  0
  4  3  1  0  0  0  0
  5  6  1  0  0  0  0
  6 10  1  0  0  0  0
  6  1  2  0  0  0  0
  7  3  1  0  0  0  0
  8  4  1  0  0  0  0
  9  5  1  0  0  0  0
 11 12  1  0  0  0  0
 11 17  1  0  0  0  0
 12 19  1  0  0  0  0
 13 12  2  0  0  0  0
 14 15  2  0  0  0  0
 14 13  1  0  0  0  0
 15 16  1  0  0  0  0
 16 11  2  0  0  0  0
 18 13  1  0  0  0  0
 19 25  1  0  0  0  0
 20 19  1  0  0  0  0
 20 21  2  0  0  0  0
 21 22  1  0  0  0  0
 22 24  1  0  0  0  0
 22 23  2  0  0  0  0
 24 29  1  0  0  0  0
 25 26  2  0  0  0  0
 25 24  1  0  0  0  0
 27 20  1  0  0  0  0
 28 21  1  0  0  0  0
 30 32  2  0  0  0  0
 30 34  1  0  0  0  0
 30 31  2  0  0  0  0
 33 40  1  0  0  0  0
 33 42  1  0  0  0  0
 34 33  2  0  0  0  0
 35 34  1  0  0  0  0
 35 37  2  0  0  0  0
 36 35  1  0  0  0  0
 37 39  1  0  0  0  0
 38 37  1  0  0  0  0
 39 40  2  0  0  0  0
 41 42  1  0  0  0  0
 42 44  2  0  0  0  0
 42 43  2  0  0  0  0
M  END
>  <minimizedAffinity>
-6.25842905

$$$$

 OpenBabel03212520333D

 44 47  0  0  0  0  0  0  0  0999 V2000
   41.6220   75.1870   57.3710 C   0  0  0  0  0  0  0  0  0  0  0  0
   41.1180   74.0230   56.7990 C   0  0  0  0  0  0  0  0  0  0  0  0
   40.3810   74.0710   55.6370 C   0  0  0  0  0  0  0  0  0  0  0  0
   40.0970   75.2670   54.9710 C   0  0  0  0  0  0  0  0  0  0  0  0
   40.5870   76.4340   55.5200 C   0  0  0  0  0  0  0  0  0  0  0  0
   41.3300   76.3870   56.6900 C   0  0  0  0  0  0  0  0  0  0  0  0
   39.9750   73.1850   55.1690 H   0  0  0  0  0  0  0  0  0  0  0  0
   39.5230   75.3100   54.0660 H   0  0  0  0  0  0  0  0  0  0  0  0
   40.4280   77.4120   55.0870 H   0  0  0  0  0  0  0  0  0  0  0  0
   41.7270   77.2820   57.1440 H   0  0  0  0  0  0  0  0  0  0  0  0
   42.7470   70.8840   57.8470 C   0  0  0  0  0  0  0  0  0  0  0  0
   41.7550   70.2710   58.5870 C   0  0  0  0  0  0  0  0  0  0  0  0
   40.5400   70.9560   58.7110 C   0  0  0  0  0  0  0  0  0  0  0  0
   40.3960   72.1720   58.1040 N   0  0  0  0  0  0  0  0  0  0  0  0
   41.3700   72.7250   57.4020 C   0  0  0  0  0  0  0  0  0  0  0  0
   42.5460   72.0800   57.2740 N   0  0  0  0  0  0  0  0  0  0  0  0
   43.6860   70.3900   57.7320 H   0  0  0  0  0  0  0  0  0  0  0  0
   39.7280   70.5370   59.2730 H   0  0  0  0  0  0  0  0  0  0  0  0
   41.9550   69.0060   59.1980 N   0  0  0  0  0  0  0  0  0  0  0  0
   42.5140   69.0830   60.4130 C   0  0  0  0  0  0  0  0  0  0  0  0
   42.7530   67.8850   61.0970 C   0  0  0  0  0  0  0  0  0  0  0  0
   42.4080   66.6750   60.5060 C   0  0  0  0  0  0  0  0  0  0  0  0
   42.5880   65.5580   61.0520 O   0  0  0  0  0  0  0  0  0  0  0  0
   41.8450   66.6900   59.2680 N   0  0  0  0  0  0  0  0  0  0  0  0
   41.6090   67.8450   58.5970 C   0  0  0  0  0  0  0  0  0  0  0  0
   41.0970   67.8680   57.4700 O   0  0  0  0  0  0  0  0  0  0  0  0
   42.7960   69.9860   60.9090 H   0  0  0  0  0  0  0  0  0  0  0  0
   43.1970   67.8660   62.0750 H   0  0  0  0  0  0  0  0  0  0  0  0
   41.5550   65.8300   58.7480 H   0  0  0  0  0  0  0  0  0  0  0  0
   42.5580   75.1690   58.8190 S   0  0  0  0  0  0  0  0  0  0  0  0
   42.7290   76.5690   59.3570 O   0  0  0  0  0  0  0  0  0  0  0  0
   43.9820   74.7640   58.4120 O   0  0  0  0  0  0  0  0  0  0  0  0
   40.8050   74.2120   60.6720 C   0  0  0  0  0  0  0  0  0  0  0  0
   42.0730   74.1310   60.0870 C   0  0  0  0  0  0  0  0  0  0  0  0
   42.8940   73.1620   60.6870 C   0  0  0  0  0  0  0  0  0  0  0  0
   43.8920   73.0960   60.2300 H   0  0  0  0  0  0  0  0  0  0  0  0
   42.5840   72.3300   61.7370 C   0  0  0  0  0  0  0  0  0  0  0  0
   43.3470   71.6390   62.0700 H   0  0  0  0  0  0  0  0  0  0  0  0
   41.3170   72.4630   62.2660 C   0  0  0  0  0  3  0  0  0  0  0  0
   40.4560   73.3950   61.7270 C   0  0  0  0  0  3  0  0  0  0  0  0
   40.1740   76.1450   59.0740 H   0  0  0  0  0  0  0  0  0  0  0  0
   39.6640   75.3640   60.0490 S   0  0  0  0  0  0  0  0  0  0  0  0
   39.1030   76.1090   61.2230 O   0  0  0  0  0  0  0  0  0  0  0  0
   38.4980   74.6330   59.4320 O   0  0  0  0  0  0  0  0  0  0  0  0
  1 30  1  0  0  0  0
  2  1  1  0  0  0  0
  2 15  1  0  0  0  0
  3  2  2  0  0  0  0
  4  5  2  0  0  0  0
  4  3  1  0  0  0  0
  5  6  1  0  0  0  0
  6 10  1  0  0  0  0
  6  1  2  0  0  0  0
  7  3  1  0  0  0  0
  8  4  1  0  0  0  0
  9  5  1  0  0  0  0
 11 12  1  0  0  0  0
 12 13  2  0  0  0  0
 12 19  1  0  0  0  0
 13 18  1  0  0  0  0
 14 13  1  0  0  0  0
 15 14  2  0  0  0  0
 16 15  1  0  0  0  0
 16 11  2  0  0  0  0
 17 11  1  0  0  0  0
 19 20  1  0  0  0  0
 20 27  1  0  0  0  0
 20 21  2  0  0  0  0
 21 28  1  0  0  0  0
 22 23  2  0  0  0  0
 22 21  1  0  0  0  0
 24 22  1  0  0  0  0
 25 19  1  0  0  0  0
 25 24  1  0  0  0  0
 26 25  2  0  0  0  0
 29 24  1  0  0  0  0
 30 31  2  0  0  0  0
 30 34  1  0  0  0  0
 32 30  2  0  0  0  0
 33 40  1  0  0  0  0
 34 33  2  0  0  0  0
 34 35  1  0  0  0  0
 35 37  2  0  0  0  0
 36 35  1  0  0  0  0
 37 38  1  0  0  0  0
 37 39  1  0  0  0  0
 40 39  2  0  0  0  0
 41 42  1  0  0  0  0
 42 33  1  0  0  0  0
 42 43  2  0  0  0  0
 44 42  2  0  0  0  0
M  END
>  <minimizedAffinity>
-6.24227762

$$$$

 OpenBabel03212520333D

 44 47  0  0  0  0  0  0  0  0999 V2000
   40.6090   73.4450   60.3490 C   0  0  0  0  0  0  0  0  0  0  0  0
   41.2350   72.4290   59.6340 C   0  0  0  0  0  0  0  0  0  0  0  0
   42.1130   71.5680   60.2560 C   0  0  0  0  0  0  0  0  0  0  0  0
   42.4240   71.6590   61.6160 C   0  0  0  0  0  0  0  0  0  0  0  0
   41.8130   72.6580   62.3440 C   0  0  0  0  0  0  0  0  0  0  0  0
   40.9300   73.5260   61.7190 C   0  0  0  0  0  0  0  0  0  0  0  0
   42.6160   70.7700   59.7280 H   0  0  0  0  0  0  0  0  0  0  0  0
   43.1060   70.9910   62.1050 H   0  0  0  0  0  0  0  0  0  0  0  0
   41.9810   72.8170   63.4000 H   0  0  0  0  0  0  0  0  0  0  0  0
   40.4360   74.3180   62.2620 H   0  0  0  0  0  0  0  0  0  0  0  0
   41.5500   72.4430   55.9590 C   0  0  0  0  0  0  0  0  0  0  0  0
   40.3820   71.8230   55.5620 C   0  0  0  0  0  0  0  0  0  0  0  0
   39.5060   71.4120   56.5730 C   0  0  0  0  0  0  0  0  0  0  0  0
   39.8400   71.6390   57.8780 N   0  0  0  0  0  0  0  0  0  0  0  0
   40.9690   72.2370   58.2190 C   0  0  0  0  0  0  0  0  0  0  0  0
   41.8240   72.6390   57.2570 N   0  0  0  0  0  0  0  0  0  0  0  0
   42.2410   72.7690   55.2140 H   0  0  0  0  0  0  0  0  0  0  0  0
   38.5810   70.9240   56.3340 H   0  0  0  0  0  0  0  0  0  0  0  0
   40.0800   71.6110   54.1920 N   0  0  0  0  0  0  0  0  0  0  0  0
   40.3240   70.3590   53.7800 C   0  0  0  0  0  0  0  0  0  0  0  0
   40.0590   70.0500   52.4410 C   0  0  0  0  0  0  0  0  0  0  0  0
   39.5580   71.0340   51.5940 C   0  0  0  0  0  0  0  0  0  0  0  0
   39.2940   70.8380   50.3820 O   0  0  0  0  0  0  0  0  0  0  0  0
   39.3400   72.2790   52.0970 N   0  0  0  0  0  0  0  0  0  0  0  0
   39.5940   72.5880   53.3930 C   0  0  0  0  0  0  0  0  0  0  0  0
   39.3990   73.7180   53.8590 O   0  0  0  0  0  0  0  0  0  0  0  0
   40.7070   69.5700   54.3900 H   0  0  0  0  0  0  0  0  0  0  0  0
   40.2280   69.0700   52.0370 H   0  0  0  0  0  0  0  0  0  0  0  0
   38.9670   73.0780   51.5350 H   0  0  0  0  0  0  0  0  0  0  0  0
   39.4970   74.5370   59.6100 S   0  0  0  0  0  0  0  0  0  0  0  0
   39.0290   75.5710   60.6050 O   0  0  0  0  0  0  0  0  0  0  0  0
   38.2270   73.7270   59.3100 O   0  0  0  0  0  0  0  0  0  0  0  0
   41.1430   76.0570   58.0610 C   0  0  0  0  0  0  0  0  0  0  0  0
   39.9620   75.3140   58.1610 C   0  0  0  0  0  0  0  0  0  0  0  0
   39.2010   75.3300   56.9810 C   0  0  0  0  0  0  0  0  0  0  0  0
   38.2710   74.7480   57.0560 H   0  0  0  0  0  0  0  0  0  0  0  0
   39.4920   75.9730   55.8000 C   0  0  0  0  0  0  0  0  0  0  0  0
   38.7840   75.8740   54.9880 H   0  0  0  0  0  0  0  0  0  0  0  0
   40.6710   76.6870   55.7710 C   0  0  0  0  0  3  0  0  0  0  0  0
   41.4710   76.7160   56.8950 C   0  0  0  0  0  3  0  0  0  0  0  0
   41.6700   75.6010   60.5510 H   0  0  0  0  0  0  0  0  0  0  0  0
   42.2010   76.1420   59.4360 S   0  0  0  0  0  0  0  0  0  0  0  0
   42.6310   77.5730   59.5730 O   0  0  0  0  0  0  0  0  0  0  0  0
   43.4600   75.3620   59.1500 O   0  0  0  0  0  0  0  0  0  0  0  0
  1  6  1  0  0  0  0
  2  3  1  0  0  0  0
  2  1  2  0  0  0  0
  3  4  2  0  0  0  0
  4  8  1  0  0  0  0
  4  5  1  0  0  0  0
  5  9  1  0  0  0  0
  6 10  1  0  0  0  0
  6  5  2  0  0  0  0
  7  3  1  0  0  0  0
 11 16  1  0  0  0  0
 12 11  2  0  0  0  0
 12 13  1  0  0  0  0
 13 14  2  0  0  0  0
 14 15  1  0  0  0  0
 15  2  1  0  0  0  0
 16 15  2  0  0  0  0
 17 11  1  0  0  0  0
 18 13  1  0  0  0  0
 19 12  1  0  0  0  0
 20 19  1  0  0  0  0
 20 27  1  0  0  0  0
 21 20  2  0  0  0  0
 22 24  1  0  0  0  0
 22 21  1  0  0  0  0
 23 22  2  0  0  0  0
 24 25  1  0  0  0  0
 25 26  2  0  0  0  0
 25 19  1  0  0  0  0
 28 21  1  0  0  0  0
 29 24  1  0  0  0  0
 30  1  1  0  0  0  0
 30 31  2  0  0  0  0
 32 30  2  0  0  0  0
 33 34  1  0  0  0  0
 33 42  1  0  0  0  0
 34 30  1  0  0  0  0
 35 36  1  0  0  0  0
 35 34  2  0  0  0  0
 37 35  1  0  0  0  0
 38 37  1  0  0  0  0
 39 37  2  0  0  0  0
 39 40  1  0  0  0  0
 40 33  2  0  0  0  0
 42 43  2  0  0  0  0
 42 41  1  0  0  0  0
 44 42  2  0  0  0  0
M  END
>  <minimizedAffinity>
-6.16252089

$$$$
