
 OpenBabel03212520403D

 30 32  0  0  1  0  0  0  0  0999 V2000
   42.8700   85.5670   60.0950 C   0  0  1  0  0  0  0  0  0  0  0  0
   43.8400   85.4810   58.9180 C   0  0  0  0  0  0  0  0  0  0  0  0
   42.3390   85.6710   58.7270 C   0  0  1  0  0  0  0  0  0  0  0  0
   43.0610   86.4520   60.7320 H   0  0  0  0  0  0  0  0  0  0  0  0
   44.4840   86.3530   58.6980 H   0  0  0  0  0  0  0  0  0  0  0  0
   44.2210   84.5180   58.5830 H   0  0  0  0  0  0  0  0  0  0  0  0
   42.0370   86.6740   58.3860 H   0  0  0  0  0  0  0  0  0  0  0  0
   42.7800   84.3220   60.7770 O   0  0  0  0  0  0  0  0  0  0  0  0
   40.0180   83.6310   63.0110 C   0  0  0  0  0  0  0  0  0  0  0  0
   40.5820   83.9140   64.2550 C   0  0  0  0  0  0  0  0  0  0  0  0
   41.9280   84.3460   64.2920 C   0  0  0  0  0  0  0  0  0  0  0  0
   42.5580   84.4460   63.0910 N   0  0  0  0  0  0  0  0  0  0  0  0
   42.0020   84.1690   61.9020 C   0  0  0  0  0  0  0  0  0  0  0  0
   40.7400   83.7620   61.8410 N   0  0  0  0  0  0  0  0  0  0  0  0
   38.9780   83.2930   62.9350 H   0  0  0  0  0  0  0  0  0  0  0  0
   40.0190   83.8110   65.1640 H   0  0  0  0  0  0  0  0  0  0  0  0
   42.4200   84.5810   65.2250 H   0  0  0  0  0  0  0  0  0  0  0  0
   41.5880   84.5910   58.2640 O   0  0  0  0  0  0  0  0  0  0  0  0
   41.3530   82.5420   57.1620 C   0  0  0  0  0  0  0  0  0  0  0  0
   41.7600   83.8600   57.1270 C   0  0  0  0  0  0  0  0  0  0  0  0
   42.3110   84.4190   56.0130 C   0  0  0  0  0  0  0  0  0  0  0  0
   42.6410   85.4320   55.9380 H   0  0  0  0  0  0  0  0  0  0  0  0
   42.4450   83.5890   54.9060 C   0  0  0  0  0  0  0  0  0  0  0  0
   42.8850   84.0240   54.0050 H   0  0  0  0  0  0  0  0  0  0  0  0
   42.0680   82.2640   54.8420 C   0  0  0  0  0  3  0  0  0  0  0  0
   41.5170   81.7780   56.0170 C   0  0  0  0  0  3  0  0  0  0  0  0
   39.9520   82.8340   59.2940 H   0  0  0  0  0  0  0  0  0  0  0  0
   40.6500   81.8640   58.6100 S   0  0  0  0  0  0  0  0  0  0  0  0
   41.7360   81.4040   59.5430 O   0  0  0  0  0  0  0  0  0  0  0  0
   39.7540   80.6960   58.3220 O   0  0  0  0  0  0  0  0  0  0  0  0
  1  4  1  1  0  0  0
  1  8  1  0  0  0  0
  2  1  1  0  0  0  0
  3  7  1  6  0  0  0
  3  2  1  0  0  0  0
  3  1  1  0  0  0  0
  5  2  1  0  0  0  0
  6  2  1  0  0  0  0
  8 13  1  0  0  0  0
  9 10  1  0  0  0  0
 10 11  2  0  0  0  0
 10 16  1  0  0  0  0
 11 17  1  0  0  0  0
 12 11  1  0  0  0  0
 13 12  2  0  0  0  0
 14 13  1  0  0  0  0
 14  9  2  0  0  0  0
 15  9  1  0  0  0  0
 18  3  1  0  0  0  0
 19 28  1  0  0  0  0
 20 19  1  0  0  0  0
 20 18  1  0  0  0  0
 21 20  2  0  0  0  0
 22 21  1  0  0  0  0
 23 21  1  0  0  0  0
 24 23  1  0  0  0  0
 25 23  2  0  0  0  0
 25 26  1  0  0  0  0
 26 19  2  0  0  0  0
 28 27  1  0  0  0  0
 28 29  2  0  0  0  0
 30 28  2  0  0  0  0
M  END
>  <minimizedAffinity>
-4.43915749

>  <minimizedRMSD>
2.51294184

$$$$
