
 OpenBabel03212520203D

 39 41  0  0  0  0  0  0  0  0999 V2000
   43.1120   84.0220   58.6680 Cl  0  0  0  0  0  0  0  0  0  0  0  0
   41.8980   82.8040   58.2670 C   0  0  0  0  0  0  0  0  0  0  0  0
   41.0370   82.2590   59.2090 C   0  0  0  0  0  0  0  0  0  0  0  0
   40.1540   81.3220   58.7210 C   0  0  0  0  0  0  0  0  0  0  0  0
   40.0350   80.8780   57.4300 C   0  0  0  0  0  0  0  0  0  0  0  0
   40.9070   81.4470   56.5430 C   0  0  0  0  0  0  0  0  0  0  0  0
   40.8700   80.9730   54.8430 Cl  0  0  0  0  0  0  0  0  0  0  0  0
   41.8260   82.3970   56.9510 C   0  0  0  0  0  0  0  0  0  0  0  0
   39.4790   80.8990   59.4770 H   0  0  0  0  0  0  0  0  0  0  0  0
   39.3280   80.1470   57.1170 H   0  0  0  0  0  0  0  0  0  0  0  0
   41.9410   82.1720   61.5800 C   0  0  0  0  0  0  0  0  0  0  0  0
   41.1260   82.6900   60.5520 C   0  0  0  0  0  0  0  0  0  0  0  0
   40.2960   83.7630   60.8850 C   0  0  0  0  0  0  0  0  0  0  0  0
   40.3560   84.2070   62.1790 N   0  0  0  0  0  0  0  0  0  0  0  0
   41.1350   83.6960   63.1210 C   0  0  0  0  0  0  0  0  0  0  0  0
   41.9430   82.6590   62.8140 N   0  0  0  0  0  0  0  0  0  0  0  0
   42.5650   81.3390   61.2640 H   0  0  0  0  0  0  0  0  0  0  0  0
   39.6230   84.2530   60.1930 H   0  0  0  0  0  0  0  0  0  0  0  0
   41.0370   84.3340   64.4490 C   0  0  0  0  0  0  0  0  0  0  0  0
   40.6800   85.6590   64.3810 F   0  0  0  0  0  0  0  0  0  0  0  0
   40.0840   83.6690   65.2290 F   0  0  0  0  0  0  0  0  0  0  0  0
   42.2860   84.3040   65.1070 F   0  0  0  0  0  0  0  0  0  0  0  0
   42.6840   82.9380   56.0060 O   0  0  0  0  0  0  0  0  0  0  0  0
   42.3830   84.0550   55.2240 C   0  0  0  0  0  0  0  0  0  0  0  0
   42.0530   83.8300   54.2050 H   0  0  0  0  0  0  0  0  0  0  0  0
   41.5460   84.5890   55.7640 H   0  0  0  0  0  0  0  0  0  0  0  0
   43.5100   84.8940   55.2850 O   0  0  0  0  0  0  0  0  0  0  0  0
   45.7890   84.8300   55.2920 C   0  0  0  0  0  0  0  0  0  0  0  0
   44.6380   84.4840   54.5850 C   0  0  0  0  0  0  0  0  0  0  0  0
   44.7730   83.8310   53.3770 C   0  0  0  0  0  0  0  0  0  0  0  0
   43.8120   83.6220   52.9330 H   0  0  0  0  0  0  0  0  0  0  0  0
   46.0100   83.5350   52.8940 C   0  0  0  0  0  0  0  0  0  0  0  0
   46.0510   83.0250   51.9480 H   0  0  0  0  0  0  0  0  0  0  0  0
   47.1730   83.8580   53.5580 C   0  0  0  0  0  3  0  0  0  0  0  0
   47.0480   84.5100   54.7670 C   0  0  0  0  0  3  0  0  0  0  0  0
   44.6870   85.4060   57.5570 H   0  0  0  0  0  0  0  0  0  0  0  0
   45.8460   85.6570   56.8350 S   0  0  0  0  0  0  0  0  0  0  0  0
   46.0620   87.1410   56.6690 O   0  0  0  0  0  0  0  0  0  0  0  0
   46.9860   85.1340   57.6610 O   0  0  0  0  0  0  0  0  0  0  0  0
  2  1  1  0  0  0  0
  2  3  1  0  0  0  0
  3 12  1  0  0  0  0
  4  3  2  0  0  0  0
  4  9  1  0  0  0  0
  5  4  1  0  0  0  0
  6  8  1  0  0  0  0
  6  5  2  0  0  0  0
  7  6  1  0  0  0  0
  8  2  2  0  0  0  0
 10  5  1  0  0  0  0
 11 16  1  0  0  0  0
 12 13  1  0  0  0  0
 12 11  2  0  0  0  0
 13 14  2  0  0  0  0
 14 15  1  0  0  0  0
 15 19  1  0  0  0  0
 16 15  2  0  0  0  0
 17 11  1  0  0  0  0
 18 13  1  0  0  0  0
 19 22  1  0  0  0  0
 19 21  1  0  0  0  0
 20 19  1  0  0  0  0
 23  8  1  0  0  0  0
 24 27  1  0  0  0  0
 24 26  1  0  0  0  0
 24 23  1  0  0  0  0
 25 24  1  0  0  0  0
 28 37  1  0  0  0  0
 29 27  1  0  0  0  0
 29 28  2  0  0  0  0
 30 29  1  0  0  0  0
 31 30  1  0  0  0  0
 32 30  2  0  0  0  0
 32 34  1  0  0  0  0
 33 32  1  0  0  0  0
 34 35  2  0  0  0  0
 35 28  1  0  0  0  0
 37 36  1  0  0  0  0
 37 39  2  0  0  0  0
 38 37  2  0  0  0  0
M  END
>  <minimizedAffinity>
-4.77882195

>  <minimizedRMSD>
0.307333201

$$$$
