
 OpenBabel03212520403D

 30 32  0  0  1  0  0  0  0  0999 V2000
   42.2730   85.4690   59.7630 C   0  0  1  0  0  0  0  0  0  0  0  0
   43.3900   85.8590   58.7970 C   0  0  0  0  0  0  0  0  0  0  0  0
   42.2400   84.9440   58.3890 C   0  0  1  0  0  0  0  0  0  0  0  0
   41.6730   86.3410   60.0850 H   0  0  0  0  0  0  0  0  0  0  0  0
   43.3890   86.8790   58.3700 H   0  0  0  0  0  0  0  0  0  0  0  0
   44.3620   85.3710   58.8470 H   0  0  0  0  0  0  0  0  0  0  0  0
   41.5080   85.3950   57.7020 H   0  0  0  0  0  0  0  0  0  0  0  0
   42.7660   84.6390   60.8080 O   0  0  0  0  0  0  0  0  0  0  0  0
   40.0420   83.5970   62.9500 C   0  0  0  0  0  0  0  0  0  0  0  0
   40.6010   83.7580   64.2180 C   0  0  0  0  0  0  0  0  0  0  0  0
   41.9320   84.2310   64.3030 C   0  0  0  0  0  0  0  0  0  0  0  0
   42.5510   84.4900   63.1210 N   0  0  0  0  0  0  0  0  0  0  0  0
   42.0000   84.3300   61.9080 C   0  0  0  0  0  0  0  0  0  0  0  0
   40.7520   83.8870   61.8020 N   0  0  0  0  0  0  0  0  0  0  0  0
   39.0150   83.2330   62.8380 H   0  0  0  0  0  0  0  0  0  0  0  0
   40.0470   83.5310   65.1110 H   0  0  0  0  0  0  0  0  0  0  0  0
   42.4190   84.3770   65.2560 H   0  0  0  0  0  0  0  0  0  0  0  0
   42.5000   83.5820   58.2340 O   0  0  0  0  0  0  0  0  0  0  0  0
   41.4780   81.5680   57.6260 C   0  0  0  0  0  0  0  0  0  0  0  0
   42.0890   82.7450   57.2410 C   0  0  0  0  0  0  0  0  0  0  0  0
   42.2780   83.0680   55.9310 C   0  0  0  0  0  0  0  0  0  0  0  0
   42.7440   83.9650   55.5850 H   0  0  0  0  0  0  0  0  0  0  0  0
   41.8230   82.1470   54.9940 C   0  0  0  0  0  0  0  0  0  0  0  0
   41.9680   82.3940   53.9390 H   0  0  0  0  0  0  0  0  0  0  0  0
   41.2030   80.9490   55.2790 C   0  0  0  0  0  3  0  0  0  0  0  0
   41.0510   80.7010   56.6330 C   0  0  0  0  0  3  0  0  0  0  0  0
   42.1100   81.9480   60.0850 H   0  0  0  0  0  0  0  0  0  0  0  0
   41.2550   81.1920   59.3160 S   0  0  0  0  0  0  0  0  0  0  0  0
   41.6270   79.7580   59.5790 O   0  0  0  0  0  0  0  0  0  0  0  0
   39.8390   81.3990   59.7690 O   0  0  0  0  0  0  0  0  0  0  0  0
  1  4  1  1  0  0  0
  1  8  1  0  0  0  0
  2  6  1  0  0  0  0
  2  1  1  0  0  0  0
  3  7  1  6  0  0  0
  3  2  1  0  0  0  0
  3  1  1  0  0  0  0
  5  2  1  0  0  0  0
  8 13  1  0  0  0  0
  9 10  1  0  0  0  0
 10 11  2  0  0  0  0
 10 16  1  0  0  0  0
 11 17  1  0  0  0  0
 12 11  1  0  0  0  0
 13 12  2  0  0  0  0
 14 13  1  0  0  0  0
 14  9  2  0  0  0  0
 15  9  1  0  0  0  0
 18  3  1  0  0  0  0
 19 28  1  0  0  0  0
 20 19  1  0  0  0  0
 20 18  1  0  0  0  0
 21 20  2  0  0  0  0
 22 21  1  0  0  0  0
 23 25  2  0  0  0  0
 23 21  1  0  0  0  0
 24 23  1  0  0  0  0
 25 26  1  0  0  0  0
 26 19  2  0  0  0  0
 28 29  2  0  0  0  0
 28 30  2  0  0  0  0
 28 27  1  0  0  0  0
M  END
>  <minimizedAffinity>
-4.15450001

>  <minimizedRMSD>
2.35138345

$$$$
