
 OpenBabel03212520503D

 31 33  0  0  0  0  0  0  0  0999 V2000
   39.1870   76.2150   57.8750 C   0  0  0  0  0  0  0  0  0  0  0  0
   39.4210   77.4630   58.3880 C   0  0  0  0  0  0  0  0  0  0  0  0
   40.1420   77.6350   59.5780 C   0  0  0  0  0  0  0  0  0  0  0  0
   40.6180   76.5470   60.2390 N   0  0  0  0  0  0  0  0  0  0  0  0
   40.3810   75.3340   59.7270 C   0  0  0  0  0  0  0  0  0  0  0  0
   39.6840   75.1980   58.5780 N   0  0  0  0  0  0  0  0  0  0  0  0
   39.0500   78.3360   57.8730 H   0  0  0  0  0  0  0  0  0  0  0  0
   40.3000   78.6360   59.9410 H   0  0  0  0  0  0  0  0  0  0  0  0
   38.2160   74.9380   54.5900 C   0  0  0  0  0  0  0  0  0  0  0  0
   37.0360   75.6370   54.3470 C   0  0  0  0  0  0  0  0  0  0  0  0
   36.5660   76.5480   55.3070 C   0  0  0  0  0  0  0  0  0  0  0  0
   37.3140   76.6950   56.4440 N   0  0  0  0  0  0  0  0  0  0  0  0
   38.4430   76.0060   56.6410 C   0  0  0  0  0  0  0  0  0  0  0  0
   38.8890   75.1410   55.7320 N   0  0  0  0  0  0  0  0  0  0  0  0
   38.5420   74.0700   53.5310 N   0  0  0  0  0  0  0  0  0  0  0  0
   36.4050   75.5590   53.4650 H   0  0  0  0  0  0  0  0  0  0  0  0
   35.6560   77.1210   55.1770 H   0  0  0  0  0  0  0  0  0  0  0  0
   37.9640   73.2110   53.6900 H   0  0  0  0  0  0  0  0  0  0  0  0
   39.2270   74.2440   52.7380 H   0  0  0  0  0  0  0  0  0  0  0  0
   42.2180   73.7670   60.3990 C   0  0  0  0  0  0  0  0  0  0  0  0
   40.9130   74.2020   60.4740 C   0  0  0  0  0  0  0  0  0  0  0  0
   40.0770   73.5060   61.3190 C   0  0  0  0  0  0  0  0  0  0  0  0
   39.0190   73.7620   61.4600 H   0  0  0  0  0  0  0  0  0  0  0  0
   40.5020   72.4100   62.0730 C   0  0  0  0  0  0  0  0  0  0  0  0
   39.8210   71.8840   62.7270 H   0  0  0  0  0  0  0  0  0  0  0  0
   41.8060   71.9880   61.9850 C   0  0  0  0  0  3  0  0  0  0  0  0
   42.6380   72.6890   61.1390 C   0  0  0  0  0  3  0  0  0  0  0  0
   43.1680   75.9270   59.5130 H   0  0  0  0  0  0  0  0  0  0  0  0
   43.3390   74.5800   59.3650 S   0  0  0  0  0  0  0  0  0  0  0  0
   44.7860   74.2440   59.6770 O   0  0  0  0  0  0  0  0  0  0  0  0
   43.0810   74.2240   57.9210 O   0  0  0  0  0  0  0  0  0  0  0  0
  1  2  2  0  0  0  0
  1  6  1  0  0  0  0
  2  3  1  0  0  0  0
  3  8  1  0  0  0  0
  3  4  2  0  0  0  0
  5  4  1  0  0  0  0
  5 21  1  0  0  0  0
  6  5  2  0  0  0  0
  7  2  1  0  0  0  0
  9 14  1  0  0  0  0
 10  9  2  0  0  0  0
 10 11  1  0  0  0  0
 11 12  2  0  0  0  0
 12 13  1  0  0  0  0
 13  1  1  0  0  0  0
 14 13  2  0  0  0  0
 15 18  1  0  0  0  0
 15  9  1  0  0  0  0
 16 10  1  0  0  0  0
 17 11  1  0  0  0  0
 19 15  1  0  0  0  0
 20 21  2  0  0  0  0
 20 27  1  0  0  0  0
 21 22  1  0  0  0  0
 22 23  1  0  0  0  0
 22 24  2  0  0  0  0
 24 25  1  0  0  0  0
 26 24  1  0  0  0  0
 27 26  2  0  0  0  0
 29 28  1  0  0  0  0
 29 30  2  0  0  0  0
 29 20  1  0  0  0  0
 31 29  2  0  0  0  0
M  END
>  <minimizedAffinity>
-5.94139147

$$$$

 OpenBabel03212520503D

 31 33  0  0  0  0  0  0  0  0999 V2000
   41.7410   74.3500   59.5030 C   0  0  0  0  0  0  0  0  0  0  0  0
   42.9690   74.9410   59.3670 C   0  0  0  0  0  0  0  0  0  0  0  0
   44.1210   74.3540   59.9110 C   0  0  0  0  0  0  0  0  0  0  0  0
   44.0220   73.1800   60.5870 N   0  0  0  0  0  0  0  0  0  0  0  0
   42.8170   72.6140   60.7130 C   0  0  0  0  0  0  0  0  0  0  0  0
   41.7240   73.2010   60.1790 N   0  0  0  0  0  0  0  0  0  0  0  0
   43.0620   75.8740   58.8320 H   0  0  0  0  0  0  0  0  0  0  0  0
   45.0620   74.8570   59.7770 H   0  0  0  0  0  0  0  0  0  0  0  0
   38.3850   74.6730   58.0900 C   0  0  0  0  0  0  0  0  0  0  0  0
   38.2780   76.0520   57.9160 C   0  0  0  0  0  0  0  0  0  0  0  0
   39.3540   76.8760   58.2830 C   0  0  0  0  0  0  0  0  0  0  0  0
   40.4630   76.2620   58.7980 N   0  0  0  0  0  0  0  0  0  0  0  0
   40.5290   74.9350   58.9500 C   0  0  0  0  0  0  0  0  0  0  0  0
   39.5080   74.1510   58.6030 N   0  0  0  0  0  0  0  0  0  0  0  0
   37.2220   73.9990   57.6730 N   0  0  0  0  0  0  0  0  0  0  0  0
   37.4240   76.5910   57.5140 H   0  0  0  0  0  0  0  0  0  0  0  0
   39.3320   77.9540   58.1730 H   0  0  0  0  0  0  0  0  0  0  0  0
   36.5530   74.0790   58.4760 H   0  0  0  0  0  0  0  0  0  0  0  0
   37.0550   73.5100   56.7460 H   0  0  0  0  0  0  0  0  0  0  0  0
   43.2290   70.1540   60.9570 C   0  0  0  0  0  0  0  0  0  0  0  0
   42.7660   71.3560   61.4460 C   0  0  0  0  0  0  0  0  0  0  0  0
   42.2270   71.3420   62.7140 C   0  0  0  0  0  0  0  0  0  0  0  0
   41.8280   72.2380   63.2050 H   0  0  0  0  0  0  0  0  0  0  0  0
   42.1390   70.1820   63.4870 C   0  0  0  0  0  0  0  0  0  0  0  0
   41.7090   70.2030   64.4790 H   0  0  0  0  0  0  0  0  0  0  0  0
   42.6040   68.9920   62.9840 C   0  0  0  0  0  3  0  0  0  0  0  0
   43.1440   69.0120   61.7160 C   0  0  0  0  0  3  0  0  0  0  0  0
   43.3560   71.0500   58.6050 H   0  0  0  0  0  0  0  0  0  0  0  0
   43.9230   70.0760   59.3760 S   0  0  0  0  0  0  0  0  0  0  0  0
   45.4260   70.2810   59.3770 O   0  0  0  0  0  0  0  0  0  0  0  0
   43.6360   68.7380   58.7380 O   0  0  0  0  0  0  0  0  0  0  0  0
  1  6  1  0  0  0  0
  2  1  2  0  0  0  0
  2  3  1  0  0  0  0
  3  4  2  0  0  0  0
  4  5  1  0  0  0  0
  5 21  1  0  0  0  0
  6  5  2  0  0  0  0
  7  2  1  0  0  0  0
  8  3  1  0  0  0  0
  9 14  1  0  0  0  0
 10  9  2  0  0  0  0
 10 11  1  0  0  0  0
 11 12  2  0  0  0  0
 12 13  1  0  0  0  0
 13  1  1  0  0  0  0
 14 13  2  0  0  0  0
 15  9  1  0  0  0  0
 15 18  1  0  0  0  0
 16 10  1  0  0  0  0
 17 11  1  0  0  0  0
 19 15  1  0  0  0  0
 20 21  2  0  0  0  0
 20 27  1  0  0  0  0
 21 22  1  0  0  0  0
 22 23  1  0  0  0  0
 22 24  2  0  0  0  0
 24 25  1  0  0  0  0
 26 24  1  0  0  0  0
 27 26  2  0  0  0  0
 28 29  1  0  0  0  0
 29 30  2  0  0  0  0
 29 20  1  0  0  0  0
 31 29  2  0  0  0  0
M  END
>  <minimizedAffinity>
-5.74623728

$$$$

 OpenBabel03212520503D

 31 33  0  0  0  0  0  0  0  0999 V2000
   42.2860   73.4330   59.6010 C   0  0  0  0  0  0  0  0  0  0  0  0
   43.5710   73.5670   59.1470 C   0  0  0  0  0  0  0  0  0  0  0  0
   44.3870   72.4460   58.9350 C   0  0  0  0  0  0  0  0  0  0  0  0
   43.8990   71.2030   59.1850 N   0  0  0  0  0  0  0  0  0  0  0  0
   42.6430   71.0860   59.6290 C   0  0  0  0  0  0  0  0  0  0  0  0
   41.8790   72.1830   59.8230 N   0  0  0  0  0  0  0  0  0  0  0  0
   43.9720   74.5480   58.9440 H   0  0  0  0  0  0  0  0  0  0  0  0
   45.3900   72.6040   58.5770 H   0  0  0  0  0  0  0  0  0  0  0  0
   39.5530   75.5080   60.8600 C   0  0  0  0  0  0  0  0  0  0  0  0
   39.8070   76.7280   60.2360 C   0  0  0  0  0  0  0  0  0  0  0  0
   40.9170   76.8450   59.3820 C   0  0  0  0  0  0  0  0  0  0  0  0
   41.6930   75.7300   59.2130 N   0  0  0  0  0  0  0  0  0  0  0  0
   41.4160   74.5760   59.8290 C   0  0  0  0  0  0  0  0  0  0  0  0
   40.3650   74.4640   60.6400 N   0  0  0  0  0  0  0  0  0  0  0  0
   38.4090   75.5640   61.6770 N   0  0  0  0  0  0  0  0  0  0  0  0
   39.2260   77.6410   60.3340 H   0  0  0  0  0  0  0  0  0  0  0  0
   41.1670   77.7650   58.8680 H   0  0  0  0  0  0  0  0  0  0  0  0
   38.7320   75.9910   62.5770 H   0  0  0  0  0  0  0  0  0  0  0  0
   37.4260   75.2410   61.4370 H   0  0  0  0  0  0  0  0  0  0  0  0
   42.1940   69.1180   61.1150 C   0  0  0  0  0  0  0  0  0  0  0  0
   42.1700   69.7310   59.8810 C   0  0  0  0  0  0  0  0  0  0  0  0
   41.6600   68.9950   58.8350 C   0  0  0  0  0  0  0  0  0  0  0  0
   41.5910   69.3800   57.8100 H   0  0  0  0  0  0  0  0  0  0  0  0
   41.1840   67.6910   58.9860 C   0  0  0  0  0  0  0  0  0  0  0  0
   40.7890   67.1390   58.1450 H   0  0  0  0  0  0  0  0  0  0  0  0
   41.2160   67.0940   60.2220 C   0  0  0  0  0  3  0  0  0  0  0  0
   41.7270   67.8350   61.2660 C   0  0  0  0  0  3  0  0  0  0  0  0
   43.8140   70.7980   62.0660 H   0  0  0  0  0  0  0  0  0  0  0  0
   42.8170   69.9650   62.4860 S   0  0  0  0  0  0  0  0  0  0  0  0
   41.7670   70.7980   63.1980 O   0  0  0  0  0  0  0  0  0  0  0  0
   43.3990   68.9960   63.4870 O   0  0  0  0  0  0  0  0  0  0  0  0
  1  6  1  0  0  0  0
  1 13  1  0  0  0  0
  2  1  2  0  0  0  0
  3  2  1  0  0  0  0
  3  4  2  0  0  0  0
  4  5  1  0  0  0  0
  5  6  2  0  0  0  0
  5 21  1  0  0  0  0
  7  2  1  0  0  0  0
  8  3  1  0  0  0  0
  9 15  1  0  0  0  0
 10 16  1  0  0  0  0
 10  9  2  0  0  0  0
 11 10  1  0  0  0  0
 12 11  2  0  0  0  0
 12 13  1  0  0  0  0
 13 14  2  0  0  0  0
 14  9  1  0  0  0  0
 15 18  1  0  0  0  0
 17 11  1  0  0  0  0
 19 15  1  0  0  0  0
 20 27  1  0  0  0  0
 20 29  1  0  0  0  0
 21 20  2  0  0  0  0
 22 24  2  0  0  0  0
 22 21  1  0  0  0  0
 23 22  1  0  0  0  0
 24 26  1  0  0  0  0
 25 24  1  0  0  0  0
 26 27  2  0  0  0  0
 28 29  1  0  0  0  0
 29 30  2  0  0  0  0
 29 31  2  0  0  0  0
M  END
>  <minimizedAffinity>
-5.71942616

$$$$

 OpenBabel03212520503D

 31 33  0  0  0  0  0  0  0  0999 V2000
   42.4400   73.6100   59.7890 C   0  0  0  0  0  0  0  0  0  0  0  0
   43.6270   73.7230   59.1150 C   0  0  0  0  0  0  0  0  0  0  0  0
   44.5000   72.6330   58.9940 C   0  0  0  0  0  0  0  0  0  0  0  0
   44.1660   71.4400   59.5540 N   0  0  0  0  0  0  0  0  0  0  0  0
   43.0050   71.3430   60.2090 C   0  0  0  0  0  0  0  0  0  0  0  0
   42.1830   72.4100   60.3100 N   0  0  0  0  0  0  0  0  0  0  0  0
   43.9040   74.6640   58.6660 H   0  0  0  0  0  0  0  0  0  0  0  0
   45.4210   72.7720   58.4560 H   0  0  0  0  0  0  0  0  0  0  0  0
   39.5970   75.6340   60.8780 C   0  0  0  0  0  0  0  0  0  0  0  0
   39.8010   76.8190   60.1740 C   0  0  0  0  0  0  0  0  0  0  0  0
   40.9130   76.9300   59.3240 C   0  0  0  0  0  0  0  0  0  0  0  0
   41.7430   75.8450   59.2380 N   0  0  0  0  0  0  0  0  0  0  0  0
   41.5140   74.7240   59.9300 C   0  0  0  0  0  0  0  0  0  0  0  0
   40.4600   74.6170   60.7370 N   0  0  0  0  0  0  0  0  0  0  0  0
   38.4420   75.6900   61.6800 N   0  0  0  0  0  0  0  0  0  0  0  0
   39.1760   77.7070   60.2040 H   0  0  0  0  0  0  0  0  0  0  0  0
   41.1260   77.8240   58.7490 H   0  0  0  0  0  0  0  0  0  0  0  0
   38.7340   76.1940   62.5510 H   0  0  0  0  0  0  0  0  0  0  0  0
   37.4780   75.3050   61.4550 H   0  0  0  0  0  0  0  0  0  0  0  0
   42.0790   69.0160   60.1090 C   0  0  0  0  0  0  0  0  0  0  0  0
   42.6960   70.0430   60.7900 C   0  0  0  0  0  0  0  0  0  0  0  0
   43.0340   69.8000   62.1030 C   0  0  0  0  0  0  0  0  0  0  0  0
   43.5280   70.5430   62.7410 H   0  0  0  0  0  0  0  0  0  0  0  0
   42.7760   68.5840   62.7390 C   0  0  0  0  0  0  0  0  0  0  0  0
   43.0530   68.4240   63.7720 H   0  0  0  0  0  0  0  0  0  0  0  0
   42.1600   67.5710   62.0470 C   0  0  0  0  0  3  0  0  0  0  0  0
   41.8250   67.8190   60.7330 C   0  0  0  0  0  3  0  0  0  0  0  0
   42.6490   69.8380   57.7950 H   0  0  0  0  0  0  0  0  0  0  0  0
   41.6200   69.2310   58.4570 S   0  0  0  0  0  0  0  0  0  0  0  0
   41.3050   67.9230   57.7540 O   0  0  0  0  0  0  0  0  0  0  0  0
   40.4020   70.1170   58.3580 O   0  0  0  0  0  0  0  0  0  0  0  0
  1 13  1  0  0  0  0
  1  6  1  0  0  0  0
  2  1  2  0  0  0  0
  3  2  1  0  0  0  0
  3  4  2  0  0  0  0
  4  5  1  0  0  0  0
  5  6  2  0  0  0  0
  5 21  1  0  0  0  0
  7  2  1  0  0  0  0
  8  3  1  0  0  0  0
  9 15  1  0  0  0  0
 10 16  1  0  0  0  0
 10  9  2  0  0  0  0
 11 10  1  0  0  0  0
 12 11  2  0  0  0  0
 12 13  1  0  0  0  0
 13 14  2  0  0  0  0
 14  9  1  0  0  0  0
 15 18  1  0  0  0  0
 17 11  1  0  0  0  0
 19 15  1  0  0  0  0
 20 27  2  0  0  0  0
 20 21  1  0  0  0  0
 21 22  2  0  0  0  0
 22 24  1  0  0  0  0
 22 23  1  0  0  0  0
 24 25  1  0  0  0  0
 26 24  2  0  0  0  0
 27 26  1  0  0  0  0
 28 29  1  0  0  0  0
 29 20  1  0  0  0  0
 30 29  2  0  0  0  0
 31 29  2  0  0  0  0
M  END
>  <minimizedAffinity>
-5.5152483

$$$$

 OpenBabel03212520503D

 31 33  0  0  0  0  0  0  0  0999 V2000
   41.3110   73.0910   59.5430 C   0  0  0  0  0  0  0  0  0  0  0  0
   42.4230   73.6890   60.0720 C   0  0  0  0  0  0  0  0  0  0  0  0
   43.4940   72.9280   60.5610 C   0  0  0  0  0  0  0  0  0  0  0  0
   43.4320   71.5720   60.5130 N   0  0  0  0  0  0  0  0  0  0  0  0
   42.3400   71.0000   59.9940 C   0  0  0  0  0  0  0  0  0  0  0  0
   41.3230   71.7570   59.5290 N   0  0  0  0  0  0  0  0  0  0  0  0
   42.4860   74.7660   60.1160 H   0  0  0  0  0  0  0  0  0  0  0  0
   44.3450   73.4460   60.9680 H   0  0  0  0  0  0  0  0  0  0  0  0
   38.2080   73.9410   57.8060 C   0  0  0  0  0  0  0  0  0  0  0  0
   38.0940   75.3040   58.0740 C   0  0  0  0  0  0  0  0  0  0  0  0
   39.0770   75.9370   58.8510 C   0  0  0  0  0  0  0  0  0  0  0  0
   40.1090   75.1600   59.3050 N   0  0  0  0  0  0  0  0  0  0  0  0
   40.1850   73.8540   59.0260 C   0  0  0  0  0  0  0  0  0  0  0  0
   39.2520   73.2520   58.2900 N   0  0  0  0  0  0  0  0  0  0  0  0
   37.1430   73.4680   57.0180 N   0  0  0  0  0  0  0  0  0  0  0  0
   37.2990   75.9660   57.7400 H   0  0  0  0  0  0  0  0  0  0  0  0
   39.0450   76.9930   59.0930 H   0  0  0  0  0  0  0  0  0  0  0  0
   36.3550   73.3010   57.6890 H   0  0  0  0  0  0  0  0  0  0  0  0
   37.1350   73.3110   55.9680 H   0  0  0  0  0  0  0  0  0  0  0  0
   42.0780   68.7490   61.0650 C   0  0  0  0  0  0  0  0  0  0  0  0
   42.3250   69.5430   59.9660 C   0  0  0  0  0  0  0  0  0  0  0  0
   42.5680   68.8940   58.7760 C   0  0  0  0  0  0  0  0  0  0  0  0
   42.7760   69.4230   57.8380 H   0  0  0  0  0  0  0  0  0  0  0  0
   42.5720   67.5020   58.6590 C   0  0  0  0  0  0  0  0  0  0  0  0
   42.7670   67.0230   57.7100 H   0  0  0  0  0  0  0  0  0  0  0  0
   42.3260   66.7250   59.7630 C   0  0  0  0  0  3  0  0  0  0  0  0
   42.0820   67.3800   60.9520 C   0  0  0  0  0  3  0  0  0  0  0  0
   41.1640   70.6860   62.3940 H   0  0  0  0  0  0  0  0  0  0  0  0
   41.7620   69.4760   62.6010 S   0  0  0  0  0  0  0  0  0  0  0  0
   40.8530   68.6360   63.4800 O   0  0  0  0  0  0  0  0  0  0  0  0
   43.0520   69.7060   63.3520 O   0  0  0  0  0  0  0  0  0  0  0  0
  1  2  1  0  0  0  0
  2  7  1  0  0  0  0
  2  3  2  0  0  0  0
  3  8  1  0  0  0  0
  4  3  1  0  0  0  0
  5  4  2  0  0  0  0
  6  1  2  0  0  0  0
  6  5  1  0  0  0  0
  9 10  2  0  0  0  0
  9 14  1  0  0  0  0
 10 11  1  0  0  0  0
 11 17  1  0  0  0  0
 11 12  2  0  0  0  0
 13 12  1  0  0  0  0
 13  1  1  0  0  0  0
 14 13  2  0  0  0  0
 15 18  1  0  0  0  0
 15  9  1  0  0  0  0
 16 10  1  0  0  0  0
 19 15  1  0  0  0  0
 20 29  1  0  0  0  0
 21  5  1  0  0  0  0
 21 20  2  0  0  0  0
 22 21  1  0  0  0  0
 23 22  1  0  0  0  0
 24 22  2  0  0  0  0
 24 26  1  0  0  0  0
 25 24  1  0  0  0  0
 26 27  2  0  0  0  0
 27 20  1  0  0  0  0
 28 29  1  0  0  0  0
 29 31  2  0  0  0  0
 29 30  2  0  0  0  0
M  END
>  <minimizedAffinity>
-5.49228239

$$$$

 OpenBabel03212520503D

 31 33  0  0  0  0  0  0  0  0999 V2000
   41.9790   71.0410   59.9030 C   0  0  0  0  0  0  0  0  0  0  0  0
   41.9790   70.6260   58.5980 C   0  0  0  0  0  0  0  0  0  0  0  0
   41.8060   71.5380   57.5470 C   0  0  0  0  0  0  0  0  0  0  0  0
   41.6330   72.8570   57.8220 N   0  0  0  0  0  0  0  0  0  0  0  0
   41.6340   73.2490   59.1010 C   0  0  0  0  0  0  0  0  0  0  0  0
   41.8040   72.3490   60.0940 N   0  0  0  0  0  0  0  0  0  0  0  0
   42.1160   69.5820   58.3650 H   0  0  0  0  0  0  0  0  0  0  0  0
   41.8140   71.1620   56.5380 H   0  0  0  0  0  0  0  0  0  0  0  0
   42.2470   67.9420   61.8230 C   0  0  0  0  0  0  0  0  0  0  0  0
   42.4920   68.4200   63.1090 C   0  0  0  0  0  0  0  0  0  0  0  0
   42.5680   69.8060   63.3230 C   0  0  0  0  0  0  0  0  0  0  0  0
   42.3910   70.6160   62.2340 N   0  0  0  0  0  0  0  0  0  0  0  0
   42.1570   70.1190   61.0150 C   0  0  0  0  0  0  0  0  0  0  0  0
   42.0860   68.8050   60.8090 N   0  0  0  0  0  0  0  0  0  0  0  0
   42.2030   66.5360   61.7840 N   0  0  0  0  0  0  0  0  0  0  0  0
   42.6390   67.8250   64.0060 H   0  0  0  0  0  0  0  0  0  0  0  0
   42.7550   70.2400   64.2980 H   0  0  0  0  0  0  0  0  0  0  0  0
   43.2040   66.2290   61.7410 H   0  0  0  0  0  0  0  0  0  0  0  0
   41.3420   65.9150   61.7950 H   0  0  0  0  0  0  0  0  0  0  0  0
   40.2540   75.2420   59.7370 C   0  0  0  0  0  0  0  0  0  0  0  0
   41.4450   74.6730   59.3410 C   0  0  0  0  0  0  0  0  0  0  0  0
   42.5110   75.5280   59.1680 C   0  0  0  0  0  0  0  0  0  0  0  0
   43.5060   75.1890   58.8550 H   0  0  0  0  0  0  0  0  0  0  0  0
   42.4190   76.9060   59.3760 C   0  0  0  0  0  0  0  0  0  0  0  0
   43.2750   77.5510   59.2310 H   0  0  0  0  0  0  0  0  0  0  0  0
   41.2250   77.4570   59.7700 C   0  0  0  0  0  3  0  0  0  0  0  0
   40.1610   76.5970   59.9430 C   0  0  0  0  0  3  0  0  0  0  0  0
   39.2570   72.9390   59.9730 H   0  0  0  0  0  0  0  0  0  0  0  0
   38.8620   74.2460   59.9800 S   0  0  0  0  0  0  0  0  0  0  0  0
   38.1540   74.5250   61.2920 O   0  0  0  0  0  0  0  0  0  0  0  0
   37.8670   74.4480   58.8620 O   0  0  0  0  0  0  0  0  0  0  0  0
  1  6  1  0  0  0  0
  1 13  1  0  0  0  0
  2  1  2  0  0  0  0
  3  4  2  0  0  0  0
  3  2  1  0  0  0  0
  4  5  1  0  0  0  0
  5 21  1  0  0  0  0
  5  6  2  0  0  0  0
  7  2  1  0  0  0  0
  8  3  1  0  0  0  0
  9 10  1  0  0  0  0
 10 11  2  0  0  0  0
 10 16  1  0  0  0  0
 11 17  1  0  0  0  0
 12 11  1  0  0  0  0
 13 12  2  0  0  0  0
 14 13  1  0  0  0  0
 14  9  2  0  0  0  0
 15 19  1  0  0  0  0
 15  9  1  0  0  0  0
 18 15  1  0  0  0  0
 20 27  1  0  0  0  0
 20 29  1  0  0  0  0
 21 20  2  0  0  0  0
 22 21  1  0  0  0  0
 22 24  2  0  0  0  0
 23 22  1  0  0  0  0
 24 26  1  0  0  0  0
 25 24  1  0  0  0  0
 26 27  2  0  0  0  0
 28 29  1  0  0  0  0
 29 30  2  0  0  0  0
 31 29  2  0  0  0  0
M  END
>  <minimizedAffinity>
-5.48593569

$$$$

 OpenBabel03212520503D

 31 33  0  0  0  0  0  0  0  0999 V2000
   40.8170   74.8290   57.9730 C   0  0  0  0  0  0  0  0  0  0  0  0
   41.8070   75.7740   57.9250 C   0  0  0  0  0  0  0  0  0  0  0  0
   42.9370   75.6850   58.7510 C   0  0  0  0  0  0  0  0  0  0  0  0
   43.0550   74.6460   59.6180 N   0  0  0  0  0  0  0  0  0  0  0  0
   42.0810   73.7310   59.6560 C   0  0  0  0  0  0  0  0  0  0  0  0
   41.0040   73.8410   58.8480 N   0  0  0  0  0  0  0  0  0  0  0  0
   41.7270   76.6050   57.2410 H   0  0  0  0  0  0  0  0  0  0  0  0
   43.6870   76.4520   58.6750 H   0  0  0  0  0  0  0  0  0  0  0  0
   38.6040   74.4970   55.0830 C   0  0  0  0  0  0  0  0  0  0  0  0
   37.4120   75.0300   55.5700 C   0  0  0  0  0  0  0  0  0  0  0  0
   37.3610   75.5040   56.8910 C   0  0  0  0  0  0  0  0  0  0  0  0
   38.5090   75.4120   57.6310 N   0  0  0  0  0  0  0  0  0  0  0  0
   39.6350   74.8950   57.1280 C   0  0  0  0  0  0  0  0  0  0  0  0
   39.6840   74.4430   55.8750 N   0  0  0  0  0  0  0  0  0  0  0  0
   38.4820   74.0700   53.7470 N   0  0  0  0  0  0  0  0  0  0  0  0
   36.4750   75.1270   55.0290 H   0  0  0  0  0  0  0  0  0  0  0  0
   36.4660   75.9300   57.3280 H   0  0  0  0  0  0  0  0  0  0  0  0
   38.0430   73.1210   53.7990 H   0  0  0  0  0  0  0  0  0  0  0  0
   38.7730   74.5950   52.8710 H   0  0  0  0  0  0  0  0  0  0  0  0
   43.0050   71.5070   60.3530 C   0  0  0  0  0  0  0  0  0  0  0  0
   42.2570   72.6370   60.6030 C   0  0  0  0  0  0  0  0  0  0  0  0
   41.6470   72.7150   61.8350 C   0  0  0  0  0  0  0  0  0  0  0  0
   41.0280   73.5660   62.1450 H   0  0  0  0  0  0  0  0  0  0  0  0
   41.7630   71.7140   62.8030 C   0  0  0  0  0  0  0  0  0  0  0  0
   41.2710   71.8040   63.7610 H   0  0  0  0  0  0  0  0  0  0  0  0
   42.5110   70.5940   62.5370 C   0  0  0  0  0  3  0  0  0  0  0  0
   43.1200   70.5220   61.3030 C   0  0  0  0  0  3  0  0  0  0  0  0
   43.2050   72.1450   57.9220 H   0  0  0  0  0  0  0  0  0  0  0  0
   43.8070   71.3230   58.8330 S   0  0  0  0  0  0  0  0  0  0  0  0
   45.2820   71.6750   58.8930 O   0  0  0  0  0  0  0  0  0  0  0  0
   43.6870   69.9010   58.3410 O   0  0  0  0  0  0  0  0  0  0  0  0
  1  6  1  0  0  0  0
  2  1  2  0  0  0  0
  2  3  1  0  0  0  0
  3  4  2  0  0  0  0
  4  5  1  0  0  0  0
  5 21  1  0  0  0  0
  6  5  2  0  0  0  0
  7  2  1  0  0  0  0
  8  3  1  0  0  0  0
  9 10  2  0  0  0  0
  9 14  1  0  0  0  0
 10 11  1  0  0  0  0
 11 17  1  0  0  0  0
 11 12  2  0  0  0  0
 13 12  1  0  0  0  0
 13  1  1  0  0  0  0
 14 13  2  0  0  0  0
 15 18  1  0  0  0  0
 15  9  1  0  0  0  0
 16 10  1  0  0  0  0
 19 15  1  0  0  0  0
 20 21  2  0  0  0  0
 20 27  1  0  0  0  0
 21 22  1  0  0  0  0
 22 23  1  0  0  0  0
 22 24  2  0  0  0  0
 24 25  1  0  0  0  0
 26 24  1  0  0  0  0
 27 26  2  0  0  0  0
 28 29  1  0  0  0  0
 29 30  2  0  0  0  0
 29 20  1  0  0  0  0
 31 29  2  0  0  0  0
M  END
>  <minimizedAffinity>
-5.35396004

$$$$

 OpenBabel03212520503D

 31 33  0  0  0  0  0  0  0  0999 V2000
   40.5440   73.1400   59.9090 C   0  0  0  0  0  0  0  0  0  0  0  0
   39.8410   73.1320   61.0850 C   0  0  0  0  0  0  0  0  0  0  0  0
   38.6720   73.8910   61.2370 C   0  0  0  0  0  0  0  0  0  0  0  0
   38.2250   74.6510   60.2040 N   0  0  0  0  0  0  0  0  0  0  0  0
   38.9210   74.6510   59.0620 C   0  0  0  0  0  0  0  0  0  0  0  0
   40.0440   73.9100   58.9420 N   0  0  0  0  0  0  0  0  0  0  0  0
   40.1850   72.5320   61.9140 H   0  0  0  0  0  0  0  0  0  0  0  0
   38.1560   73.8500   62.1800 H   0  0  0  0  0  0  0  0  0  0  0  0
   43.1430   70.6110   60.3700 C   0  0  0  0  0  0  0  0  0  0  0  0
   44.0370   70.9280   59.3490 C   0  0  0  0  0  0  0  0  0  0  0  0
   43.7530   72.0090   58.4980 C   0  0  0  0  0  0  0  0  0  0  0  0
   42.5930   72.6970   58.7310 N   0  0  0  0  0  0  0  0  0  0  0  0
   41.7600   72.3630   59.7210 C   0  0  0  0  0  0  0  0  0  0  0  0
   42.0270   71.3370   60.5290 N   0  0  0  0  0  0  0  0  0  0  0  0
   43.5770   69.5060   61.1250 N   0  0  0  0  0  0  0  0  0  0  0  0
   44.9690   70.4180   59.1210 H   0  0  0  0  0  0  0  0  0  0  0  0
   44.4080   72.3060   57.6880 H   0  0  0  0  0  0  0  0  0  0  0  0
   43.2930   68.6630   60.5720 H   0  0  0  0  0  0  0  0  0  0  0  0
   44.0850   69.5190   62.0580 H   0  0  0  0  0  0  0  0  0  0  0  0
   38.8380   76.7590   57.7090 C   0  0  0  0  0  0  0  0  0  0  0  0
   38.3980   75.4830   57.9860 C   0  0  0  0  0  0  0  0  0  0  0  0
   37.4000   74.9840   57.1790 C   0  0  0  0  0  0  0  0  0  0  0  0
   36.9730   73.9810   57.3050 H   0  0  0  0  0  0  0  0  0  0  0  0
   36.8420   75.7120   56.1250 C   0  0  0  0  0  0  0  0  0  0  0  0
   36.0590   75.2920   55.5100 H   0  0  0  0  0  0  0  0  0  0  0  0
   37.2910   76.9830   55.8640 C   0  0  0  0  0  3  0  0  0  0  0  0
   38.2900   77.4770   56.6740 C   0  0  0  0  0  3  0  0  0  0  0  0
   40.1660   78.7980   58.3680 H   0  0  0  0  0  0  0  0  0  0  0  0
   40.0880   77.4680   58.6700 S   0  0  0  0  0  0  0  0  0  0  0  0
   39.8420   77.3300   60.1610 O   0  0  0  0  0  0  0  0  0  0  0  0
   41.4200   76.8310   58.3570 O   0  0  0  0  0  0  0  0  0  0  0  0
  1  2  1  0  0  0  0
  2  3  2  0  0  0  0
  2  7  1  0  0  0  0
  3  8  1  0  0  0  0
  4  3  1  0  0  0  0
  5  4  2  0  0  0  0
  6  5  1  0  0  0  0
  6  1  2  0  0  0  0
  9 14  1  0  0  0  0
  9 15  1  0  0  0  0
 10  9  2  0  0  0  0
 11 12  2  0  0  0  0
 11 10  1  0  0  0  0
 12 13  1  0  0  0  0
 13  1  1  0  0  0  0
 13 14  2  0  0  0  0
 15 19  1  0  0  0  0
 16 10  1  0  0  0  0
 17 11  1  0  0  0  0
 18 15  1  0  0  0  0
 20 21  1  0  0  0  0
 20 29  1  0  0  0  0
 21  5  1  0  0  0  0
 22 23  1  0  0  0  0
 22 21  2  0  0  0  0
 24 22  1  0  0  0  0
 25 24  1  0  0  0  0
 26 24  2  0  0  0  0
 26 27  1  0  0  0  0
 27 20  2  0  0  0  0
 28 29  1  0  0  0  0
 29 30  2  0  0  0  0
 31 29  2  0  0  0  0
M  END
>  <minimizedAffinity>
-5.33299208

$$$$

 OpenBabel03212520503D

 31 33  0  0  0  0  0  0  0  0999 V2000
   41.1790   71.4930   57.8180 C   0  0  0  0  0  0  0  0  0  0  0  0
   41.5650   70.7320   58.8880 C   0  0  0  0  0  0  0  0  0  0  0  0
   41.8510   71.3170   60.1300 C   0  0  0  0  0  0  0  0  0  0  0  0
   41.7450   72.6640   60.2780 N   0  0  0  0  0  0  0  0  0  0  0  0
   41.3680   73.3960   59.2250 C   0  0  0  0  0  0  0  0  0  0  0  0
   41.0980   72.8050   58.0400 N   0  0  0  0  0  0  0  0  0  0  0  0
   41.6530   69.6610   58.7850 H   0  0  0  0  0  0  0  0  0  0  0  0
   42.1500   70.6760   60.9410 H   0  0  0  0  0  0  0  0  0  0  0  0
   41.0520   69.1500   55.0150 C   0  0  0  0  0  0  0  0  0  0  0  0
   40.2960   69.8570   54.0830 C   0  0  0  0  0  0  0  0  0  0  0  0
   39.8250   71.1390   54.4110 C   0  0  0  0  0  0  0  0  0  0  0  0
   40.1460   71.6230   55.6500 N   0  0  0  0  0  0  0  0  0  0  0  0
   40.8760   70.9140   56.5180 C   0  0  0  0  0  0  0  0  0  0  0  0
   41.3230   69.6970   56.2090 N   0  0  0  0  0  0  0  0  0  0  0  0
   41.4420   67.8880   54.5280 N   0  0  0  0  0  0  0  0  0  0  0  0
   40.0120   69.5220   53.0880 H   0  0  0  0  0  0  0  0  0  0  0  0
   39.2320   71.7390   53.7300 H   0  0  0  0  0  0  0  0  0  0  0  0
   40.6140   67.2650   54.6810 H   0  0  0  0  0  0  0  0  0  0  0  0
   42.3750   67.6200   54.0970 H   0  0  0  0  0  0  0  0  0  0  0  0
   40.1250   75.4810   59.8500 C   0  0  0  0  0  0  0  0  0  0  0  0
   41.2700   74.8330   59.4380 C   0  0  0  0  0  0  0  0  0  0  0  0
   42.3800   75.6190   59.2210 C   0  0  0  0  0  0  0  0  0  0  0  0
   43.3450   75.2140   58.8920 H   0  0  0  0  0  0  0  0  0  0  0  0
   42.3760   77.0040   59.4010 C   0  0  0  0  0  0  0  0  0  0  0  0
   43.2650   77.5930   59.2220 H   0  0  0  0  0  0  0  0  0  0  0  0
   41.2270   77.6330   59.8110 C   0  0  0  0  0  3  0  0  0  0  0  0
   40.1190   76.8430   60.0280 C   0  0  0  0  0  3  0  0  0  0  0  0
   37.7010   75.4410   60.5370 H   0  0  0  0  0  0  0  0  0  0  0  0
   38.6830   74.5760   60.1480 S   0  0  0  0  0  0  0  0  0  0  0  0
   38.1960   73.8170   58.9270 O   0  0  0  0  0  0  0  0  0  0  0  0
   38.9050   73.5780   61.2580 O   0  0  0  0  0  0  0  0  0  0  0  0
  1  6  2  0  0  0  0
  1  2  1  0  0  0  0
  2  3  2  0  0  0  0
  3  4  1  0  0  0  0
  3  8  1  0  0  0  0
  5 21  1  0  0  0  0
  5  4  2  0  0  0  0
  6  5  1  0  0  0  0
  7  2  1  0  0  0  0
  9 14  1  0  0  0  0
 10 11  1  0  0  0  0
 10  9  2  0  0  0  0
 11 12  2  0  0  0  0
 12 13  1  0  0  0  0
 13  1  1  0  0  0  0
 14 13  2  0  0  0  0
 15 18  1  0  0  0  0
 15  9  1  0  0  0  0
 16 10  1  0  0  0  0
 17 11  1  0  0  0  0
 19 15  1  0  0  0  0
 20 27  1  0  0  0  0
 20 29  1  0  0  0  0
 21 20  2  0  0  0  0
 22 24  2  0  0  0  0
 22 21  1  0  0  0  0
 23 22  1  0  0  0  0
 24 26  1  0  0  0  0
 25 24  1  0  0  0  0
 26 27  2  0  0  0  0
 29 28  1  0  0  0  0
 29 31  2  0  0  0  0
 30 29  2  0  0  0  0
M  END
>  <minimizedAffinity>
-5.30150557

$$$$
