
 OpenBabel03212520183D

 38 40  0  0  0  0  0  0  0  0999 V2000
   43.0420   83.8570   58.6310 Cl  0  0  0  0  0  0  0  0  0  0  0  0
   41.8090   82.6730   58.2740 C   0  0  0  0  0  0  0  0  0  0  0  0
   40.9420   82.1720   59.2170 C   0  0  0  0  0  0  0  0  0  0  0  0
   40.0320   81.2420   58.7640 C   0  0  0  0  0  0  0  0  0  0  0  0
   39.8970   80.7680   57.4880 C   0  0  0  0  0  0  0  0  0  0  0  0
   40.7780   81.2910   56.5800 C   0  0  0  0  0  0  0  0  0  0  0  0
   40.7140   80.7620   54.8940 Cl  0  0  0  0  0  0  0  0  0  0  0  0
   41.7340   82.2450   56.9770 C   0  0  0  0  0  0  0  0  0  0  0  0
   39.3450   80.8520   59.5310 H   0  0  0  0  0  0  0  0  0  0  0  0
   39.1720   80.0470   57.1870 H   0  0  0  0  0  0  0  0  0  0  0  0
   41.9200   82.1420   61.5660 C   0  0  0  0  0  0  0  0  0  0  0  0
   41.0500   82.6390   60.5620 C   0  0  0  0  0  0  0  0  0  0  0  0
   40.2230   83.6770   60.9130 C   0  0  0  0  0  0  0  0  0  0  0  0
   40.2930   84.1520   62.1850 N   0  0  0  0  0  0  0  0  0  0  0  0
   41.1170   83.6710   63.1110 C   0  0  0  0  0  0  0  0  0  0  0  0
   41.9510   82.6430   62.7990 N   0  0  0  0  0  0  0  0  0  0  0  0
   42.5550   81.3160   61.2360 H   0  0  0  0  0  0  0  0  0  0  0  0
   39.4980   84.1710   60.2540 H   0  0  0  0  0  0  0  0  0  0  0  0
   41.0570   84.3120   64.4470 C   0  0  0  0  0  0  0  0  0  0  0  0
   40.7340   85.6480   64.3570 F   0  0  0  0  0  0  0  0  0  0  0  0
   40.1090   83.6830   65.2350 F   0  0  0  0  0  0  0  0  0  0  0  0
   42.2920   84.2860   65.0890 F   0  0  0  0  0  0  0  0  0  0  0  0
   42.5770   82.7120   55.9830 O   0  0  0  0  0  0  0  0  0  0  0  0
   42.3710   83.9040   55.2610 C   0  0  0  0  0  0  0  0  0  0  0  0
   41.2810   84.0160   55.1090 H   0  0  0  0  0  0  0  0  0  0  0  0
   42.6690   84.7900   55.8590 H   0  0  0  0  0  0  0  0  0  0  0  0
   44.3010   84.1850   53.5660 C   0  0  0  0  0  0  0  0  0  0  0  0
   43.0300   83.8320   53.9550 C   0  0  0  0  0  0  0  0  0  0  0  0
   42.2920   83.2950   52.8850 C   0  0  0  0  0  0  0  0  0  0  0  0
   41.2600   82.9810   53.0850 H   0  0  0  0  0  0  0  0  0  0  0  0
   42.7260   83.1170   51.5890 C   0  0  0  0  0  0  0  0  0  0  0  0
   42.0550   82.6920   50.8570 H   0  0  0  0  0  0  0  0  0  0  0  0
   44.0120   83.4950   51.2840 C   0  0  0  0  0  3  0  0  0  0  0  0
   44.7750   84.0230   52.2830 C   0  0  0  0  0  3  0  0  0  0  0  0
   44.5830   85.1330   55.9560 H   0  0  0  0  0  0  0  0  0  0  0  0
   45.2930   84.8880   54.8260 S   0  0  0  0  0  0  0  0  0  0  0  0
   46.3380   83.8510   55.2270 O   0  0  0  0  0  0  0  0  0  0  0  0
   46.0860   86.0530   54.3220 O   0  0  0  0  0  0  0  0  0  0  0  0
  2  1  1  0  0  0  0
  2  3  1  0  0  0  0
  3 12  1  0  0  0  0
  4  3  2  0  0  0  0
  4  9  1  0  0  0  0
  5  4  1  0  0  0  0
  6  8  1  0  0  0  0
  6  5  2  0  0  0  0
  7  6  1  0  0  0  0
  8  2  2  0  0  0  0
 10  5  1  0  0  0  0
 11 16  1  0  0  0  0
 12 13  1  0  0  0  0
 12 11  2  0  0  0  0
 13 14  2  0  0  0  0
 14 15  1  0  0  0  0
 15 19  1  0  0  0  0
 16 15  2  0  0  0  0
 17 11  1  0  0  0  0
 18 13  1  0  0  0  0
 19 22  1  0  0  0  0
 19 21  1  0  0  0  0
 20 19  1  0  0  0  0
 23  8  1  0  0  0  0
 24 26  1  0  0  0  0
 24 23  1  0  0  0  0
 25 24  1  0  0  0  0
 27 28  1  0  0  0  0
 27 36  1  0  0  0  0
 28 24  1  0  0  0  0
 29 30  1  0  0  0  0
 29 28  2  0  0  0  0
 31 29  1  0  0  0  0
 32 31  1  0  0  0  0
 33 31  2  0  0  0  0
 33 34  1  0  0  0  0
 34 27  2  0  0  0  0
 36 37  2  0  0  0  0
 36 35  1  0  0  0  0
 38 36  2  0  0  0  0
M  END
>  <minimizedAffinity>
-4.89360809

>  <minimizedRMSD>
1.50745988

$$$$
