
 OpenBabel03212520193D

 38 40  0  0  0  0  0  0  0  0999 V2000
   39.5880   73.0750   61.4220 Cl  0  0  0  0  0  0  0  0  0  0  0  0
   41.1630   73.4300   60.7550 C   0  0  0  0  0  0  0  0  0  0  0  0
   42.2360   72.5760   60.8500 C   0  0  0  0  0  0  0  0  0  0  0  0
   43.4070   73.0140   60.2690 C   0  0  0  0  0  0  0  0  0  0  0  0
   43.6140   74.1960   59.6130 C   0  0  0  0  0  0  0  0  0  0  0  0
   42.5220   75.0170   59.5400 C   0  0  0  0  0  0  0  0  0  0  0  0
   42.6530   76.5780   58.7200 Cl  0  0  0  0  0  0  0  0  0  0  0  0
   41.2950   74.6300   60.1130 C   0  0  0  0  0  0  0  0  0  0  0  0
   44.2560   72.3180   60.3530 H   0  0  0  0  0  0  0  0  0  0  0  0
   44.5420   74.4880   59.1770 H   0  0  0  0  0  0  0  0  0  0  0  0
   41.8910   71.1430   62.9250 C   0  0  0  0  0  0  0  0  0  0  0  0
   42.0630   71.3310   61.5290 C   0  0  0  0  0  0  0  0  0  0  0  0
   42.0650   70.2060   60.7430 C   0  0  0  0  0  0  0  0  0  0  0  0
   41.9030   68.9990   61.3510 N   0  0  0  0  0  0  0  0  0  0  0  0
   41.7430   68.8450   62.6610 C   0  0  0  0  0  0  0  0  0  0  0  0
   41.7350   69.9380   63.4700 N   0  0  0  0  0  0  0  0  0  0  0  0
   41.8990   72.0700   63.5030 H   0  0  0  0  0  0  0  0  0  0  0  0
   42.1860   70.1840   59.6530 H   0  0  0  0  0  0  0  0  0  0  0  0
   41.5820   67.4540   63.1490 C   0  0  0  0  0  0  0  0  0  0  0  0
   41.9610   66.5330   62.1960 F   0  0  0  0  0  0  0  0  0  0  0  0
   42.3500   67.2540   64.2820 F   0  0  0  0  0  0  0  0  0  0  0  0
   40.2510   67.1540   63.4260 F   0  0  0  0  0  0  0  0  0  0  0  0
   40.2520   75.5310   59.9840 O   0  0  0  0  0  0  0  0  0  0  0  0
   39.1210   75.3270   59.1700 C   0  0  0  0  0  0  0  0  0  0  0  0
   39.3170   74.4330   58.5480 H   0  0  0  0  0  0  0  0  0  0  0  0
   38.2320   75.0610   59.7790 H   0  0  0  0  0  0  0  0  0  0  0  0
   38.2160   76.5960   57.1090 C   0  0  0  0  0  0  0  0  0  0  0  0
   38.9050   76.4810   58.2950 C   0  0  0  0  0  0  0  0  0  0  0  0
   39.4490   77.7120   58.6990 C   0  0  0  0  0  0  0  0  0  0  0  0
   40.0220   77.7340   59.6340 H   0  0  0  0  0  0  0  0  0  0  0  0
   39.3450   78.9190   58.0400 C   0  0  0  0  0  0  0  0  0  0  0  0
   39.8130   79.7960   58.4590 H   0  0  0  0  0  0  0  0  0  0  0  0
   38.6380   78.9470   56.8620 C   0  0  0  0  0  3  0  0  0  0  0  0
   38.0870   77.7810   56.4200 C   0  0  0  0  0  3  0  0  0  0  0  0
   36.7800   74.4720   57.4540 H   0  0  0  0  0  0  0  0  0  0  0  0
   37.5200   75.1060   56.5080 S   0  0  0  0  0  0  0  0  0  0  0  0
   36.5300   75.4690   55.4050 O   0  0  0  0  0  0  0  0  0  0  0  0
   38.5430   74.2480   55.8360 O   0  0  0  0  0  0  0  0  0  0  0  0
  2  3  1  0  0  0  0
  2  1  1  0  0  0  0
  3 12  1  0  0  0  0
  4  9  1  0  0  0  0
  4  3  2  0  0  0  0
  5  4  1  0  0  0  0
  6  5  2  0  0  0  0
  6  8  1  0  0  0  0
  7  6  1  0  0  0  0
  8  2  2  0  0  0  0
 10  5  1  0  0  0  0
 11 16  1  0  0  0  0
 11 17  1  0  0  0  0
 12 11  2  0  0  0  0
 13 14  2  0  0  0  0
 13 12  1  0  0  0  0
 14 15  1  0  0  0  0
 15 19  1  0  0  0  0
 15 16  2  0  0  0  0
 18 13  1  0  0  0  0
 19 22  1  0  0  0  0
 19 21  1  0  0  0  0
 20 19  1  0  0  0  0
 23  8  1  0  0  0  0
 24 26  1  0  0  0  0
 24 23  1  0  0  0  0
 25 24  1  0  0  0  0
 27 28  1  0  0  0  0
 28 29  2  0  0  0  0
 28 24  1  0  0  0  0
 29 30  1  0  0  0  0
 31 32  1  0  0  0  0
 31 29  1  0  0  0  0
 33 31  2  0  0  0  0
 34 33  1  0  0  0  0
 34 27  2  0  0  0  0
 36 27  1  0  0  0  0
 36 35  1  0  0  0  0
 37 36  2  0  0  0  0
 38 36  2  0  0  0  0
M  END
>  <minimizedAffinity>
-7.0227766

$$$$

 OpenBabel03212520193D

 38 40  0  0  0  0  0  0  0  0999 V2000
   42.5840   72.4030   62.2560 Cl  0  0  0  0  0  0  0  0  0  0  0  0
   41.9370   71.6310   60.8290 C   0  0  0  0  0  0  0  0  0  0  0  0
   41.2140   72.2970   59.8680 C   0  0  0  0  0  0  0  0  0  0  0  0
   40.7770   71.5330   58.8070 C   0  0  0  0  0  0  0  0  0  0  0  0
   40.9830   70.1960   58.6080 C   0  0  0  0  0  0  0  0  0  0  0  0
   41.7060   69.5700   59.5870 C   0  0  0  0  0  0  0  0  0  0  0  0
   42.0440   67.8390   59.4550 Cl  0  0  0  0  0  0  0  0  0  0  0  0
   42.1830   70.2920   60.6980 C   0  0  0  0  0  0  0  0  0  0  0  0
   40.2000   72.0820   58.0460 H   0  0  0  0  0  0  0  0  0  0  0  0
   40.6240   69.6500   57.7660 H   0  0  0  0  0  0  0  0  0  0  0  0
   39.9250   74.2910   60.7830 C   0  0  0  0  0  0  0  0  0  0  0  0
   40.9740   73.6940   60.0370 C   0  0  0  0  0  0  0  0  0  0  0  0
   41.8530   74.5420   59.4100 C   0  0  0  0  0  0  0  0  0  0  0  0
   41.6610   75.8820   59.5460 N   0  0  0  0  0  0  0  0  0  0  0  0
   40.6700   76.4200   60.2510 C   0  0  0  0  0  0  0  0  0  0  0  0
   39.7810   75.6110   60.8860 N   0  0  0  0  0  0  0  0  0  0  0  0
   39.2540   73.5720   61.2600 H   0  0  0  0  0  0  0  0  0  0  0  0
   42.7130   74.2390   58.8000 H   0  0  0  0  0  0  0  0  0  0  0  0
   40.6140   77.9010   60.2880 C   0  0  0  0  0  0  0  0  0  0  0  0
   41.8350   78.4650   59.9880 F   0  0  0  0  0  0  0  0  0  0  0  0
   39.6810   78.3650   59.3790 F   0  0  0  0  0  0  0  0  0  0  0  0
   40.3050   78.3760   61.5600 F   0  0  0  0  0  0  0  0  0  0  0  0
   42.9050   69.5660   61.6310 O   0  0  0  0  0  0  0  0  0  0  0  0
   42.4630   69.2930   62.9400 C   0  0  0  0  0  0  0  0  0  0  0  0
   43.3570   69.2450   63.5890 H   0  0  0  0  0  0  0  0  0  0  0  0
   41.8620   70.1340   63.3440 H   0  0  0  0  0  0  0  0  0  0  0  0
   42.2380   66.7210   62.8210 C   0  0  0  0  0  0  0  0  0  0  0  0
   41.7690   68.0040   62.9870 C   0  0  0  0  0  0  0  0  0  0  0  0
   40.3920   68.0190   63.2730 C   0  0  0  0  0  0  0  0  0  0  0  0
   39.9130   68.9940   63.4240 H   0  0  0  0  0  0  0  0  0  0  0  0
   39.5590   66.9270   63.3880 C   0  0  0  0  0  0  0  0  0  0  0  0
   38.5140   67.0750   63.6110 H   0  0  0  0  0  0  0  0  0  0  0  0
   40.1090   65.6790   63.2070 C   0  0  0  0  0  3  0  0  0  0  0  0
   41.4410   65.6030   62.9270 C   0  0  0  0  0  3  0  0  0  0  0  0
   44.3320   67.5520   61.5510 H   0  0  0  0  0  0  0  0  0  0  0  0
   43.9410   66.5990   62.4350 S   0  0  0  0  0  0  0  0  0  0  0  0
   44.7270   66.8920   63.7100 O   0  0  0  0  0  0  0  0  0  0  0  0
   44.3260   65.2040   62.0610 O   0  0  0  0  0  0  0  0  0  0  0  0
  2  1  1  0  0  0  0
  3 12  1  0  0  0  0
  3  2  2  0  0  0  0
  4  3  1  0  0  0  0
  5  4  2  0  0  0  0
  5  6  1  0  0  0  0
  6  8  2  0  0  0  0
  7  6  1  0  0  0  0
  8  2  1  0  0  0  0
  8 23  1  0  0  0  0
  9  4  1  0  0  0  0
 10  5  1  0  0  0  0
 11 16  1  0  0  0  0
 11 17  1  0  0  0  0
 12 11  2  0  0  0  0
 13 14  2  0  0  0  0
 13 12  1  0  0  0  0
 14 15  1  0  0  0  0
 15 19  1  0  0  0  0
 15 16  2  0  0  0  0
 18 13  1  0  0  0  0
 19 22  1  0  0  0  0
 20 19  1  0  0  0  0
 21 19  1  0  0  0  0
 23 24  1  0  0  0  0
 24 28  1  0  0  0  0
 24 26  1  0  0  0  0
 24 25  1  0  0  0  0
 27 34  2  0  0  0  0
 27 28  1  0  0  0  0
 28 29  2  0  0  0  0
 29 31  1  0  0  0  0
 29 30  1  0  0  0  0
 31 32  1  0  0  0  0
 33 31  2  0  0  0  0
 34 33  1  0  0  0  0
 35 36  1  0  0  0  0
 36 27  1  0  0  0  0
 36 37  2  0  0  0  0
 38 36  2  0  0  0  0
M  END
>  <minimizedAffinity>
-6.79422903

$$$$

 OpenBabel03212520193D

 38 40  0  0  0  0  0  0  0  0999 V2000
   41.3300   71.8660   61.4200 Cl  0  0  0  0  0  0  0  0  0  0  0  0
   42.6570   71.3130   60.4280 C   0  0  0  0  0  0  0  0  0  0  0  0
   43.0600   70.0000   60.3650 C   0  0  0  0  0  0  0  0  0  0  0  0
   44.1270   69.7380   59.5330 C   0  0  0  0  0  0  0  0  0  0  0  0
   44.8220   70.6350   58.7690 C   0  0  0  0  0  0  0  0  0  0  0  0
   44.3890   71.9300   58.8600 C   0  0  0  0  0  0  0  0  0  0  0  0
   45.2020   73.1920   57.9250 Cl  0  0  0  0  0  0  0  0  0  0  0  0
   43.3040   72.2670   59.6920 C   0  0  0  0  0  0  0  0  0  0  0  0
   44.4380   68.6820   59.4930 H   0  0  0  0  0  0  0  0  0  0  0  0
   45.6420   70.3800   58.1370 H   0  0  0  0  0  0  0  0  0  0  0  0
   42.3580   68.9290   62.5640 C   0  0  0  0  0  0  0  0  0  0  0  0
   42.3640   69.0310   61.1490 C   0  0  0  0  0  0  0  0  0  0  0  0
   41.6250   68.1060   60.4540 C   0  0  0  0  0  0  0  0  0  0  0  0
   40.9450   67.1650   61.1630 N   0  0  0  0  0  0  0  0  0  0  0  0
   40.9530   67.0870   62.4900 C   0  0  0  0  0  0  0  0  0  0  0  0
   41.6740   67.9870   63.2110 N   0  0  0  0  0  0  0  0  0  0  0  0
   42.9630   69.6880   63.0670 H   0  0  0  0  0  0  0  0  0  0  0  0
   41.5260   68.0520   59.3630 H   0  0  0  0  0  0  0  0  0  0  0  0
   40.1540   65.9940   63.0930 C   0  0  0  0  0  0  0  0  0  0  0  0
   40.9580   65.0190   63.6430 F   0  0  0  0  0  0  0  0  0  0  0  0
   39.3330   66.4960   64.0870 F   0  0  0  0  0  0  0  0  0  0  0  0
   39.3860   65.3280   62.1420 F   0  0  0  0  0  0  0  0  0  0  0  0
   42.9450   73.6040   59.7130 O   0  0  0  0  0  0  0  0  0  0  0  0
   42.0100   74.1890   58.8370 C   0  0  0  0  0  0  0  0  0  0  0  0
   42.5260   74.3740   57.8760 H   0  0  0  0  0  0  0  0  0  0  0  0
   41.1940   73.4790   58.5900 H   0  0  0  0  0  0  0  0  0  0  0  0
   40.3480   75.7930   59.9950 C   0  0  0  0  0  0  0  0  0  0  0  0
   41.5320   75.4640   59.3760 C   0  0  0  0  0  0  0  0  0  0  0  0
   42.4000   76.5670   59.2990 C   0  0  0  0  0  0  0  0  0  0  0  0
   43.3750   76.4160   58.8210 H   0  0  0  0  0  0  0  0  0  0  0  0
   42.1600   77.8430   59.7630 C   0  0  0  0  0  0  0  0  0  0  0  0
   42.9130   78.6050   59.6400 H   0  0  0  0  0  0  0  0  0  0  0  0
   40.9510   78.0870   60.3710 C   0  0  0  0  0  3  0  0  0  0  0  0
   40.0680   77.0540   60.4740 C   0  0  0  0  0  3  0  0  0  0  0  0
   39.7920   73.2850   60.2970 H   0  0  0  0  0  0  0  0  0  0  0  0
   39.1870   74.4870   60.1170 S   0  0  0  0  0  0  0  0  0  0  0  0
   38.3660   74.7150   61.3830 O   0  0  0  0  0  0  0  0  0  0  0  0
   38.1910   74.5270   59.0040 O   0  0  0  0  0  0  0  0  0  0  0  0
  2  1  1  0  0  0  0
  3  2  1  0  0  0  0
  3 12  1  0  0  0  0
  4  3  2  0  0  0  0
  5  6  2  0  0  0  0
  5  4  1  0  0  0  0
  6  8  1  0  0  0  0
  7  6  1  0  0  0  0
  8 23  1  0  0  0  0
  8  2  2  0  0  0  0
  9  4  1  0  0  0  0
 10  5  1  0  0  0  0
 11 17  1  0  0  0  0
 11 16  1  0  0  0  0
 12 11  2  0  0  0  0
 13 12  1  0  0  0  0
 13 14  2  0  0  0  0
 14 15  1  0  0  0  0
 15 19  1  0  0  0  0
 15 16  2  0  0  0  0
 18 13  1  0  0  0  0
 19 20  1  0  0  0  0
 19 21  1  0  0  0  0
 22 19  1  0  0  0  0
 24 28  1  0  0  0  0
 24 23  1  0  0  0  0
 25 24  1  0  0  0  0
 26 24  1  0  0  0  0
 27 36  1  0  0  0  0
 27 34  1  0  0  0  0
 28 27  2  0  0  0  0
 29 28  1  0  0  0  0
 29 31  2  0  0  0  0
 30 29  1  0  0  0  0
 31 33  1  0  0  0  0
 32 31  1  0  0  0  0
 33 34  2  0  0  0  0
 36 35  1  0  0  0  0
 36 37  2  0  0  0  0
 38 36  2  0  0  0  0
M  END
>  <minimizedAffinity>
-6.78412151

$$$$

 OpenBabel03212520193D

 38 40  0  0  0  0  0  0  0  0999 V2000
   40.4630   72.2030   62.1540 Cl  0  0  0  0  0  0  0  0  0  0  0  0
   41.7560   72.3580   60.9900 C   0  0  0  0  0  0  0  0  0  0  0  0
   42.5910   71.3230   60.6420 C   0  0  0  0  0  0  0  0  0  0  0  0
   43.5610   71.6200   59.7080 C   0  0  0  0  0  0  0  0  0  0  0  0
   43.7790   72.8230   59.0950 C   0  0  0  0  0  0  0  0  0  0  0  0
   42.9270   73.8260   59.4690 C   0  0  0  0  0  0  0  0  0  0  0  0
   43.1000   75.4340   58.7530 Cl  0  0  0  0  0  0  0  0  0  0  0  0
   41.9140   73.5910   60.4180 C   0  0  0  0  0  0  0  0  0  0  0  0
   44.2210   70.7810   59.4400 H   0  0  0  0  0  0  0  0  0  0  0  0
   44.5440   73.0010   58.3740 H   0  0  0  0  0  0  0  0  0  0  0  0
   42.7600   69.6870   62.5840 C   0  0  0  0  0  0  0  0  0  0  0  0
   42.3990   70.0500   61.2600 C   0  0  0  0  0  0  0  0  0  0  0  0
   41.8030   69.0840   60.4890 C   0  0  0  0  0  0  0  0  0  0  0  0
   41.6010   67.8570   61.0400 N   0  0  0  0  0  0  0  0  0  0  0  0
   41.9470   67.5370   62.2830 C   0  0  0  0  0  0  0  0  0  0  0  0
   42.5400   68.4690   63.0760 N   0  0  0  0  0  0  0  0  0  0  0  0
   43.2330   70.4910   63.1530 H   0  0  0  0  0  0  0  0  0  0  0  0
   41.4660   69.2080   59.4530 H   0  0  0  0  0  0  0  0  0  0  0  0
   41.6520   66.1500   62.7160 C   0  0  0  0  0  0  0  0  0  0  0  0
   40.5990   65.6100   62.0110 F   0  0  0  0  0  0  0  0  0  0  0  0
   42.7620   65.3460   62.5300 F   0  0  0  0  0  0  0  0  0  0  0  0
   41.2530   66.0980   64.0490 F   0  0  0  0  0  0  0  0  0  0  0  0
   41.1050   74.6710   60.7260 O   0  0  0  0  0  0  0  0  0  0  0  0
   39.8250   74.8870   60.1790 C   0  0  0  0  0  0  0  0  0  0  0  0
   39.6650   74.1220   59.3970 H   0  0  0  0  0  0  0  0  0  0  0  0
   39.0310   74.6960   60.9310 H   0  0  0  0  0  0  0  0  0  0  0  0
   39.1190   76.6470   58.4250 C   0  0  0  0  0  0  0  0  0  0  0  0
   39.7460   76.2170   59.5710 C   0  0  0  0  0  0  0  0  0  0  0  0
   40.3780   77.2760   60.2450 C   0  0  0  0  0  0  0  0  0  0  0  0
   40.9110   77.0440   61.1740 H   0  0  0  0  0  0  0  0  0  0  0  0
   40.4060   78.6010   59.8630 C   0  0  0  0  0  0  0  0  0  0  0  0
   40.9310   79.3200   60.4720 H   0  0  0  0  0  0  0  0  0  0  0  0
   39.7530   78.9470   58.7030 C   0  0  0  0  0  3  0  0  0  0  0  0
   39.1210   77.9600   58.0070 C   0  0  0  0  0  3  0  0  0  0  0  0
   37.8910   74.3750   58.2890 H   0  0  0  0  0  0  0  0  0  0  0  0
   38.3220   75.3920   57.5000 S   0  0  0  0  0  0  0  0  0  0  0  0
   37.0550   75.9950   56.8980 O   0  0  0  0  0  0  0  0  0  0  0  0
   39.1400   74.9680   56.3220 O   0  0  0  0  0  0  0  0  0  0  0  0
  2  1  1  0  0  0  0
  3  2  1  0  0  0  0
  3 12  1  0  0  0  0
  4  3  2  0  0  0  0
  5  6  2  0  0  0  0
  5  4  1  0  0  0  0
  6  8  1  0  0  0  0
  7  6  1  0  0  0  0
  8 23  1  0  0  0  0
  8  2  2  0  0  0  0
  9  4  1  0  0  0  0
 10  5  1  0  0  0  0
 11 16  1  0  0  0  0
 11 17  1  0  0  0  0
 12 11  2  0  0  0  0
 13 14  2  0  0  0  0
 13 12  1  0  0  0  0
 14 15  1  0  0  0  0
 15 19  1  0  0  0  0
 15 16  2  0  0  0  0
 18 13  1  0  0  0  0
 19 22  1  0  0  0  0
 20 19  1  0  0  0  0
 21 19  1  0  0  0  0
 24 23  1  0  0  0  0
 24 26  1  0  0  0  0
 25 24  1  0  0  0  0
 27 28  1  0  0  0  0
 28 24  1  0  0  0  0
 28 29  2  0  0  0  0
 29 30  1  0  0  0  0
 31 29  1  0  0  0  0
 31 32  1  0  0  0  0
 33 31  2  0  0  0  0
 34 27  2  0  0  0  0
 34 33  1  0  0  0  0
 36 35  1  0  0  0  0
 36 27  1  0  0  0  0
 37 36  2  0  0  0  0
 38 36  2  0  0  0  0
M  END
>  <minimizedAffinity>
-6.78234959

$$$$

 OpenBabel03212520193D

 38 40  0  0  0  0  0  0  0  0999 V2000
   42.6620   72.5140   61.4890 Cl  0  0  0  0  0  0  0  0  0  0  0  0
   41.6760   71.9550   60.1600 C   0  0  0  0  0  0  0  0  0  0  0  0
   40.7920   72.7600   59.4810 C   0  0  0  0  0  0  0  0  0  0  0  0
   40.0910   72.1560   58.4590 C   0  0  0  0  0  0  0  0  0  0  0  0
   40.1800   70.8540   58.0500 C   0  0  0  0  0  0  0  0  0  0  0  0
   41.0710   70.0870   58.7510 C   0  0  0  0  0  0  0  0  0  0  0  0
   41.2820   68.3830   58.3260 Cl  0  0  0  0  0  0  0  0  0  0  0  0
   41.8190   70.6410   59.8080 C   0  0  0  0  0  0  0  0  0  0  0  0
   39.3880   72.8140   57.9250 H   0  0  0  0  0  0  0  0  0  0  0  0
   39.6160   70.4350   57.2490 H   0  0  0  0  0  0  0  0  0  0  0  0
   39.7320   74.6590   60.8030 C   0  0  0  0  0  0  0  0  0  0  0  0
   40.6660   74.1260   59.8770 C   0  0  0  0  0  0  0  0  0  0  0  0
   41.5430   75.0090   59.2980 C   0  0  0  0  0  0  0  0  0  0  0  0
   41.4580   76.3210   59.6480 N   0  0  0  0  0  0  0  0  0  0  0  0
   40.5740   76.7990   60.5190 C   0  0  0  0  0  0  0  0  0  0  0  0
   39.6900   75.9540   61.1120 N   0  0  0  0  0  0  0  0  0  0  0  0
   39.0570   73.9150   61.2320 H   0  0  0  0  0  0  0  0  0  0  0  0
   42.3220   74.7550   58.5680 H   0  0  0  0  0  0  0  0  0  0  0  0
   40.6260   78.2590   60.7790 C   0  0  0  0  0  0  0  0  0  0  0  0
   41.9220   78.7200   60.8380 F   0  0  0  0  0  0  0  0  0  0  0  0
   39.9610   78.9440   59.7770 F   0  0  0  0  0  0  0  0  0  0  0  0
   40.0740   78.5830   62.0150 F   0  0  0  0  0  0  0  0  0  0  0  0
   42.6920   69.7820   60.4510 O   0  0  0  0  0  0  0  0  0  0  0  0
   42.3710   69.0400   61.6050 C   0  0  0  0  0  0  0  0  0  0  0  0
   42.7390   69.6090   62.4790 H   0  0  0  0  0  0  0  0  0  0  0  0
   41.2720   68.9770   61.7480 H   0  0  0  0  0  0  0  0  0  0  0  0
   42.6280   66.5070   62.0510 C   0  0  0  0  0  0  0  0  0  0  0  0
   43.0320   67.7330   61.5730 C   0  0  0  0  0  0  0  0  0  0  0  0
   44.2810   67.6540   60.9340 C   0  0  0  0  0  0  0  0  0  0  0  0
   44.7000   68.5770   60.5160 H   0  0  0  0  0  0  0  0  0  0  0  0
   45.0570   66.5250   60.7710 C   0  0  0  0  0  0  0  0  0  0  0  0
   46.0040   66.6000   60.2590 H   0  0  0  0  0  0  0  0  0  0  0  0
   44.5790   65.3400   61.2790 C   0  0  0  0  0  3  0  0  0  0  0  0
   43.3710   65.3570   61.9100 C   0  0  0  0  0  3  0  0  0  0  0  0
   40.0990   67.0460   62.1310 H   0  0  0  0  0  0  0  0  0  0  0  0
   41.0900   66.5080   62.8880 S   0  0  0  0  0  0  0  0  0  0  0  0
   40.6810   65.0540   63.1060 O   0  0  0  0  0  0  0  0  0  0  0  0
   41.2080   67.0830   64.2630 O   0  0  0  0  0  0  0  0  0  0  0  0
  2  1  1  0  0  0  0
  3 12  1  0  0  0  0
  3  2  2  0  0  0  0
  4  3  1  0  0  0  0
  5  4  2  0  0  0  0
  5  6  1  0  0  0  0
  6  8  2  0  0  0  0
  7  6  1  0  0  0  0
  8  2  1  0  0  0  0
  8 23  1  0  0  0  0
  9  4  1  0  0  0  0
 10  5  1  0  0  0  0
 11 16  1  0  0  0  0
 11 17  1  0  0  0  0
 12 11  2  0  0  0  0
 13 14  2  0  0  0  0
 13 12  1  0  0  0  0
 14 15  1  0  0  0  0
 15 19  1  0  0  0  0
 15 16  2  0  0  0  0
 18 13  1  0  0  0  0
 19 20  1  0  0  0  0
 19 22  1  0  0  0  0
 21 19  1  0  0  0  0
 23 24  1  0  0  0  0
 24 26  1  0  0  0  0
 24 25  1  0  0  0  0
 27 36  1  0  0  0  0
 28 24  1  0  0  0  0
 28 27  2  0  0  0  0
 29 28  1  0  0  0  0
 30 29  1  0  0  0  0
 31 29  2  0  0  0  0
 31 33  1  0  0  0  0
 32 31  1  0  0  0  0
 33 34  2  0  0  0  0
 34 27  1  0  0  0  0
 35 36  1  0  0  0  0
 36 37  2  0  0  0  0
 36 38  2  0  0  0  0
M  END
>  <minimizedAffinity>
-6.49473906

$$$$

 OpenBabel03212520193D

 38 40  0  0  0  0  0  0  0  0999 V2000
   41.5460   75.3060   57.8930 Cl  0  0  0  0  0  0  0  0  0  0  0  0
   40.4780   74.7160   59.1420 C   0  0  0  0  0  0  0  0  0  0  0  0
   39.1330   74.9960   59.1840 C   0  0  0  0  0  0  0  0  0  0  0  0
   38.4380   74.4520   60.2420 C   0  0  0  0  0  0  0  0  0  0  0  0
   38.9360   73.6680   61.2460 C   0  0  0  0  0  0  0  0  0  0  0  0
   40.2790   73.4130   61.1680 C   0  0  0  0  0  0  0  0  0  0  0  0
   41.0530   72.4130   62.4040 Cl  0  0  0  0  0  0  0  0  0  0  0  0
   41.0490   73.9380   60.1120 C   0  0  0  0  0  0  0  0  0  0  0  0
   37.3610   74.6850   60.2610 H   0  0  0  0  0  0  0  0  0  0  0  0
   38.3540   73.2680   62.0440 H   0  0  0  0  0  0  0  0  0  0  0  0
   38.9210   77.1540   57.8510 C   0  0  0  0  0  0  0  0  0  0  0  0
   38.5710   75.8130   58.1560 C   0  0  0  0  0  0  0  0  0  0  0  0
   37.5920   75.2340   57.3880 C   0  0  0  0  0  0  0  0  0  0  0  0
   37.0300   75.9780   56.3970 N   0  0  0  0  0  0  0  0  0  0  0  0
   37.3730   77.2330   56.1280 C   0  0  0  0  0  0  0  0  0  0  0  0
   38.3400   77.8390   56.8690 N   0  0  0  0  0  0  0  0  0  0  0  0
   39.7030   77.5670   58.4930 H   0  0  0  0  0  0  0  0  0  0  0  0
   37.2120   74.2110   57.4960 H   0  0  0  0  0  0  0  0  0  0  0  0
   36.6530   77.8910   55.0110 C   0  0  0  0  0  0  0  0  0  0  0  0
   35.5150   78.5340   55.4470 F   0  0  0  0  0  0  0  0  0  0  0  0
   37.4730   78.8200   54.3970 F   0  0  0  0  0  0  0  0  0  0  0  0
   36.2040   76.9680   54.0710 F   0  0  0  0  0  0  0  0  0  0  0  0
   42.3960   73.6200   60.1240 O   0  0  0  0  0  0  0  0  0  0  0  0
   43.0220   72.7770   59.1850 C   0  0  0  0  0  0  0  0  0  0  0  0
   42.6300   73.0450   58.1860 H   0  0  0  0  0  0  0  0  0  0  0  0
   44.1110   72.9800   59.1290 H   0  0  0  0  0  0  0  0  0  0  0  0
   41.7920   70.5250   58.8790 C   0  0  0  0  0  0  0  0  0  0  0  0
   42.7020   71.3750   59.4630 C   0  0  0  0  0  0  0  0  0  0  0  0
   43.4390   70.7300   60.4720 C   0  0  0  0  0  0  0  0  0  0  0  0
   44.1950   71.3180   61.0070 H   0  0  0  0  0  0  0  0  0  0  0  0
   43.3170   69.4170   60.8750 C   0  0  0  0  0  0  0  0  0  0  0  0
   43.9460   69.0430   61.6670 H   0  0  0  0  0  0  0  0  0  0  0  0
   42.3830   68.6350   60.2370 C   0  0  0  0  0  3  0  0  0  0  0  0
   41.6370   69.2080   59.2500 C   0  0  0  0  0  3  0  0  0  0  0  0
   41.3560   72.3870   57.1370 H   0  0  0  0  0  0  0  0  0  0  0  0
   40.8060   71.2460   57.6240 S   0  0  0  0  0  0  0  0  0  0  0  0
   40.7800   70.2790   56.4430 O   0  0  0  0  0  0  0  0  0  0  0  0
   39.3770   71.3700   58.0460 O   0  0  0  0  0  0  0  0  0  0  0  0
  1  2  1  0  0  0  0
  2  3  2  0  0  0  0
  2  8  1  0  0  0  0
  3  4  1  0  0  0  0
  4  9  1  0  0  0  0
  4  5  2  0  0  0  0
  5 10  1  0  0  0  0
  6  5  1  0  0  0  0
  6  7  1  0  0  0  0
  8 23  1  0  0  0  0
  8  6  2  0  0  0  0
 11 12  1  0  0  0  0
 11 17  1  0  0  0  0
 12  3  1  0  0  0  0
 13 18  1  0  0  0  0
 13 12  2  0  0  0  0
 14 13  1  0  0  0  0
 15 14  2  0  0  0  0
 15 16  1  0  0  0  0
 16 11  2  0  0  0  0
 19 20  1  0  0  0  0
 19 15  1  0  0  0  0
 21 19  1  0  0  0  0
 22 19  1  0  0  0  0
 24 28  1  0  0  0  0
 24 23  1  0  0  0  0
 25 24  1  0  0  0  0
 26 24  1  0  0  0  0
 27 34  2  0  0  0  0
 27 28  1  0  0  0  0
 28 29  2  0  0  0  0
 29 31  1  0  0  0  0
 29 30  1  0  0  0  0
 31 32  1  0  0  0  0
 33 31  2  0  0  0  0
 34 33  1  0  0  0  0
 35 36  1  0  0  0  0
 36 38  2  0  0  0  0
 36 27  1  0  0  0  0
 37 36  2  0  0  0  0
M  END
>  <minimizedAffinity>
-6.48337555

$$$$

 OpenBabel03212520193D

 38 40  0  0  0  0  0  0  0  0999 V2000
   39.8780   71.8300   59.4970 Cl  0  0  0  0  0  0  0  0  0  0  0  0
   41.3750   72.7080   59.6910 C   0  0  0  0  0  0  0  0  0  0  0  0
   42.3690   72.3290   60.5620 C   0  0  0  0  0  0  0  0  0  0  0  0
   43.4850   73.1380   60.5910 C   0  0  0  0  0  0  0  0  0  0  0  0
   43.7090   74.2670   59.8520 C   0  0  0  0  0  0  0  0  0  0  0  0
   42.6960   74.6100   58.9980 C   0  0  0  0  0  0  0  0  0  0  0  0
   42.8550   76.0500   57.9850 Cl  0  0  0  0  0  0  0  0  0  0  0  0
   41.5280   73.8270   58.9190 C   0  0  0  0  0  0  0  0  0  0  0  0
   44.2710   72.8200   61.2930 H   0  0  0  0  0  0  0  0  0  0  0  0
   44.5930   74.8580   59.9100 H   0  0  0  0  0  0  0  0  0  0  0  0
   41.7470   71.1070   62.7060 C   0  0  0  0  0  0  0  0  0  0  0  0
   42.1750   71.1560   61.3540 C   0  0  0  0  0  0  0  0  0  0  0  0
   42.4310   69.9570   60.7370 C   0  0  0  0  0  0  0  0  0  0  0  0
   42.2590   68.8160   61.4560 N   0  0  0  0  0  0  0  0  0  0  0  0
   41.8560   68.7920   62.7230 C   0  0  0  0  0  0  0  0  0  0  0  0
   41.5940   69.9610   63.3660 N   0  0  0  0  0  0  0  0  0  0  0  0
   41.5600   72.0880   63.1500 H   0  0  0  0  0  0  0  0  0  0  0  0
   42.7660   69.8280   59.7000 H   0  0  0  0  0  0  0  0  0  0  0  0
   41.7250   67.4550   63.3500 C   0  0  0  0  0  0  0  0  0  0  0  0
   42.6370   67.2760   64.3670 F   0  0  0  0  0  0  0  0  0  0  0  0
   40.4520   67.2960   63.8700 F   0  0  0  0  0  0  0  0  0  0  0  0
   41.9930   66.4310   62.4460 F   0  0  0  0  0  0  0  0  0  0  0  0
   40.5640   74.2590   58.0240 O   0  0  0  0  0  0  0  0  0  0  0  0
   39.3000   74.7580   58.3960 C   0  0  0  0  0  0  0  0  0  0  0  0
   38.5470   74.2590   57.7580 H   0  0  0  0  0  0  0  0  0  0  0  0
   39.0410   74.4570   59.4320 H   0  0  0  0  0  0  0  0  0  0  0  0
   39.5510   77.2580   58.9980 C   0  0  0  0  0  0  0  0  0  0  0  0
   39.2350   76.2040   58.1730 C   0  0  0  0  0  0  0  0  0  0  0  0
   38.8090   76.6460   56.9080 C   0  0  0  0  0  0  0  0  0  0  0  0
   38.5310   75.8850   56.1690 H   0  0  0  0  0  0  0  0  0  0  0  0
   38.6990   77.9530   56.4830 C   0  0  0  0  0  0  0  0  0  0  0  0
   38.3560   78.1590   55.4800 H   0  0  0  0  0  0  0  0  0  0  0  0
   39.0350   78.9470   57.3710 C   0  0  0  0  0  3  0  0  0  0  0  0
   39.4550   78.5770   58.6140 C   0  0  0  0  0  3  0  0  0  0  0  0
   41.2310   76.1060   60.5920 H   0  0  0  0  0  0  0  0  0  0  0  0
   40.0690   76.8080   60.6090 S   0  0  0  0  0  0  0  0  0  0  0  0
   40.3900   78.0930   61.3680 O   0  0  0  0  0  0  0  0  0  0  0  0
   38.9640   76.1700   61.3890 O   0  0  0  0  0  0  0  0  0  0  0  0
  1  2  1  0  0  0  0
  2  3  1  0  0  0  0
  3  4  2  0  0  0  0
  3 12  1  0  0  0  0
  4  9  1  0  0  0  0
  5 10  1  0  0  0  0
  5  4  1  0  0  0  0
  6  5  2  0  0  0  0
  7  6  1  0  0  0  0
  8  6  1  0  0  0  0
  8  2  2  0  0  0  0
 11 17  1  0  0  0  0
 11 16  1  0  0  0  0
 12 11  2  0  0  0  0
 13 12  1  0  0  0  0
 13 14  2  0  0  0  0
 14 15  1  0  0  0  0
 15 19  1  0  0  0  0
 15 16  2  0  0  0  0
 18 13  1  0  0  0  0
 19 21  1  0  0  0  0
 19 20  1  0  0  0  0
 22 19  1  0  0  0  0
 23 24  1  0  0  0  0
 23  8  1  0  0  0  0
 24 26  1  0  0  0  0
 25 24  1  0  0  0  0
 27 36  1  0  0  0  0
 28 24  1  0  0  0  0
 28 27  2  0  0  0  0
 29 28  1  0  0  0  0
 30 29  1  0  0  0  0
 31 29  2  0  0  0  0
 31 33  1  0  0  0  0
 32 31  1  0  0  0  0
 33 34  2  0  0  0  0
 34 27  1  0  0  0  0
 35 36  1  0  0  0  0
 36 37  2  0  0  0  0
 36 38  2  0  0  0  0
M  END
>  <minimizedAffinity>
-6.39813137

$$$$

 OpenBabel03212520193D

 38 40  0  0  0  0  0  0  0  0999 V2000
   41.6660   73.2250   57.9500 Cl  0  0  0  0  0  0  0  0  0  0  0  0
   40.8740   74.3680   59.0070 C   0  0  0  0  0  0  0  0  0  0  0  0
   40.6420   74.1320   60.3420 C   0  0  0  0  0  0  0  0  0  0  0  0
   40.0030   75.1410   61.0290 C   0  0  0  0  0  0  0  0  0  0  0  0
   39.5790   76.3420   60.5320 C   0  0  0  0  0  0  0  0  0  0  0  0
   39.8280   76.5380   59.2010 C   0  0  0  0  0  0  0  0  0  0  0  0
   39.3290   78.0500   58.4300 Cl  0  0  0  0  0  0  0  0  0  0  0  0
   40.4780   75.5480   58.4390 C   0  0  0  0  0  0  0  0  0  0  0  0
   39.8250   74.9360   62.0960 H   0  0  0  0  0  0  0  0  0  0  0  0
   39.0890   77.0930   61.1090 H   0  0  0  0  0  0  0  0  0  0  0  0
   41.3300   71.6860   60.1950 C   0  0  0  0  0  0  0  0  0  0  0  0
   41.0670   72.8880   60.9010 C   0  0  0  0  0  0  0  0  0  0  0  0
   41.2370   72.8620   62.2630 C   0  0  0  0  0  0  0  0  0  0  0  0
   41.6420   71.6960   62.8360 N   0  0  0  0  0  0  0  0  0  0  0  0
   41.8830   70.5800   62.1550 C   0  0  0  0  0  0  0  0  0  0  0  0
   41.7250   70.5700   60.8050 N   0  0  0  0  0  0  0  0  0  0  0  0
   41.1780   71.7610   59.1150 H   0  0  0  0  0  0  0  0  0  0  0  0
   41.0770   73.7040   62.9460 H   0  0  0  0  0  0  0  0  0  0  0  0
   42.3160   69.4030   62.9470 C   0  0  0  0  0  0  0  0  0  0  0  0
   41.5720   69.2620   64.0980 F   0  0  0  0  0  0  0  0  0  0  0  0
   42.1830   68.2490   62.1950 F   0  0  0  0  0  0  0  0  0  0  0  0
   43.6310   69.5290   63.3850 F   0  0  0  0  0  0  0  0  0  0  0  0
   40.6840   75.8450   57.1030 O   0  0  0  0  0  0  0  0  0  0  0  0
   39.7930   75.5040   56.0670 C   0  0  0  0  0  0  0  0  0  0  0  0
   40.2540   74.6800   55.4900 H   0  0  0  0  0  0  0  0  0  0  0  0
   38.8520   75.0770   56.4720 H   0  0  0  0  0  0  0  0  0  0  0  0
   38.4320   77.3330   54.8490 C   0  0  0  0  0  0  0  0  0  0  0  0
   39.5800   76.6490   55.1780 C   0  0  0  0  0  0  0  0  0  0  0  0
   40.7090   77.1990   54.5480 C   0  0  0  0  0  0  0  0  0  0  0  0
   41.6810   76.7280   54.7400 H   0  0  0  0  0  0  0  0  0  0  0  0
   40.7360   78.2850   53.6980 C   0  0  0  0  0  0  0  0  0  0  0  0
   41.6750   78.6080   53.2770 H   0  0  0  0  0  0  0  0  0  0  0  0
   39.5440   78.9120   53.4230 C   0  0  0  0  0  3  0  0  0  0  0  0
   38.4140   78.4210   54.0060 C   0  0  0  0  0  3  0  0  0  0  0  0
   37.1770   76.2140   56.8150 H   0  0  0  0  0  0  0  0  0  0  0  0
   36.9640   76.7050   55.5670 S   0  0  0  0  0  0  0  0  0  0  0  0
   36.0040   77.8770   55.7580 O   0  0  0  0  0  0  0  0  0  0  0  0
   36.2490   75.7730   54.6420 O   0  0  0  0  0  0  0  0  0  0  0  0
  1  2  1  0  0  0  0
  2  3  1  0  0  0  0
  3 12  1  0  0  0  0
  3  4  2  0  0  0  0
  4  9  1  0  0  0  0
  5  4  1  0  0  0  0
  5 10  1  0  0  0  0
  6  5  2  0  0  0  0
  7  6  1  0  0  0  0
  8  2  2  0  0  0  0
  8  6  1  0  0  0  0
 11 16  2  0  0  0  0
 11 12  1  0  0  0  0
 12 13  2  0  0  0  0
 13 14  1  0  0  0  0
 13 18  1  0  0  0  0
 15 14  2  0  0  0  0
 15 19  1  0  0  0  0
 16 15  1  0  0  0  0
 17 11  1  0  0  0  0
 19 22  1  0  0  0  0
 19 20  1  0  0  0  0
 21 19  1  0  0  0  0
 23  8  1  0  0  0  0
 24 26  1  0  0  0  0
 24 23  1  0  0  0  0
 25 24  1  0  0  0  0
 27 28  1  0  0  0  0
 27 36  1  0  0  0  0
 28 24  1  0  0  0  0
 29 30  1  0  0  0  0
 29 28  2  0  0  0  0
 31 29  1  0  0  0  0
 32 31  1  0  0  0  0
 33 31  2  0  0  0  0
 33 34  1  0  0  0  0
 34 27  2  0  0  0  0
 36 37  2  0  0  0  0
 36 35  1  0  0  0  0
 38 36  2  0  0  0  0
M  END
>  <minimizedAffinity>
-6.39586496

$$$$

 OpenBabel03212520193D

 38 40  0  0  0  0  0  0  0  0999 V2000
   41.3700   70.5450   58.5260 Cl  0  0  0  0  0  0  0  0  0  0  0  0
   41.6480   70.9790   60.1950 C   0  0  0  0  0  0  0  0  0  0  0  0
   41.3050   72.1990   60.7280 C   0  0  0  0  0  0  0  0  0  0  0  0
   41.5990   72.3760   62.0630 C   0  0  0  0  0  0  0  0  0  0  0  0
   42.1870   71.4760   62.9080 C   0  0  0  0  0  0  0  0  0  0  0  0
   42.5130   70.2750   62.3390 C   0  0  0  0  0  0  0  0  0  0  0  0
   43.2820   69.0210   63.3200 Cl  0  0  0  0  0  0  0  0  0  0  0  0
   42.2410   70.0280   60.9790 C   0  0  0  0  0  0  0  0  0  0  0  0
   41.3180   73.3580   62.4750 H   0  0  0  0  0  0  0  0  0  0  0  0
   42.3910   71.6610   63.9380 H   0  0  0  0  0  0  0  0  0  0  0  0
   41.3490   74.0760   59.0100 C   0  0  0  0  0  0  0  0  0  0  0  0
   40.6900   73.1690   59.8800 C   0  0  0  0  0  0  0  0  0  0  0  0
   39.3190   73.2230   59.9150 C   0  0  0  0  0  0  0  0  0  0  0  0
   38.6920   74.1330   59.1220 N   0  0  0  0  0  0  0  0  0  0  0  0
   39.3290   74.9740   58.3130 C   0  0  0  0  0  0  0  0  0  0  0  0
   40.6880   74.9480   58.2520 N   0  0  0  0  0  0  0  0  0  0  0  0
   42.4380   73.9910   59.0220 H   0  0  0  0  0  0  0  0  0  0  0  0
   38.6670   72.5920   60.5310 H   0  0  0  0  0  0  0  0  0  0  0  0
   38.4830   75.9000   57.5210 C   0  0  0  0  0  0  0  0  0  0  0  0
   37.1850   75.4480   57.4260 F   0  0  0  0  0  0  0  0  0  0  0  0
   38.4690   77.1520   58.1080 F   0  0  0  0  0  0  0  0  0  0  0  0
   38.9230   76.0040   56.2040 F   0  0  0  0  0  0  0  0  0  0  0  0
   42.6080   68.7820   60.5010 O   0  0  0  0  0  0  0  0  0  0  0  0
   41.6970   67.7670   60.1460 C   0  0  0  0  0  0  0  0  0  0  0  0
   40.7960   68.2590   59.7350 H   0  0  0  0  0  0  0  0  0  0  0  0
   42.0910   67.1510   59.3110 H   0  0  0  0  0  0  0  0  0  0  0  0
   41.9510   65.9310   61.9460 C   0  0  0  0  0  0  0  0  0  0  0  0
   41.3200   66.9830   61.3240 C   0  0  0  0  0  0  0  0  0  0  0  0
   40.1320   67.3390   61.9860 C   0  0  0  0  0  0  0  0  0  0  0  0
   39.5460   68.1680   61.5720 H   0  0  0  0  0  0  0  0  0  0  0  0
   39.6090   66.7520   63.1190 C   0  0  0  0  0  0  0  0  0  0  0  0
   38.6820   67.1220   63.5300 H   0  0  0  0  0  0  0  0  0  0  0  0
   40.3040   65.7060   63.6790 C   0  0  0  0  0  3  0  0  0  0  0  0
   41.4640   65.3170   63.0780 C   0  0  0  0  0  3  0  0  0  0  0  0
   43.9330   66.3330   60.3330 H   0  0  0  0  0  0  0  0  0  0  0  0
   43.4320   65.3960   61.1780 S   0  0  0  0  0  0  0  0  0  0  0  0
   44.4870   65.2360   62.2690 O   0  0  0  0  0  0  0  0  0  0  0  0
   43.2860   64.0320   60.5850 O   0  0  0  0  0  0  0  0  0  0  0  0
  1  2  1  0  0  0  0
  2  3  2  0  0  0  0
  2  8  1  0  0  0  0
  3  4  1  0  0  0  0
  4  9  1  0  0  0  0
  4  5  2  0  0  0  0
  5 10  1  0  0  0  0
  6  5  1  0  0  0  0
  6  7  1  0  0  0  0
  8  6  2  0  0  0  0
 11 17  1  0  0  0  0
 11 12  1  0  0  0  0
 12 13  2  0  0  0  0
 12  3  1  0  0  0  0
 13 18  1  0  0  0  0
 14 13  1  0  0  0  0
 15 14  2  0  0  0  0
 16 15  1  0  0  0  0
 16 11  2  0  0  0  0
 19 21  1  0  0  0  0
 19 15  1  0  0  0  0
 20 19  1  0  0  0  0
 22 19  1  0  0  0  0
 23  8  1  0  0  0  0
 24 23  1  0  0  0  0
 24 28  1  0  0  0  0
 25 24  1  0  0  0  0
 26 24  1  0  0  0  0
 27 34  1  0  0  0  0
 28 27  2  0  0  0  0
 28 29  1  0  0  0  0
 29 31  2  0  0  0  0
 30 29  1  0  0  0  0
 31 32  1  0  0  0  0
 31 33  1  0  0  0  0
 34 33  2  0  0  0  0
 35 36  1  0  0  0  0
 36 27  1  0  0  0  0
 36 37  2  0  0  0  0
 38 36  2  0  0  0  0
M  END
>  <minimizedAffinity>
-6.39484119

$$$$
