
 OpenBabel03212520593D

 45 49  0  0  1  0  0  0  0  0999 V2000
   39.5960   76.9350   59.1200 C   0  0  0  0  0  0  0  0  0  0  0  0
   40.2460   75.7520   58.9470 C   0  0  0  0  0  0  0  0  0  0  0  0
   39.7070   74.9970   57.8920 C   0  0  0  0  0  0  0  0  0  0  0  0
   38.6650   75.3910   57.1330 N   0  0  0  0  0  0  0  0  0  0  0  0
   38.0870   76.6000   57.3960 C   0  0  0  0  0  0  0  0  0  0  0  0
   38.5540   77.3780   58.3950 N   0  0  0  0  0  0  0  0  0  0  0  0
   41.0830   75.3970   59.5290 H   0  0  0  0  0  0  0  0  0  0  0  0
   40.1300   74.0260   57.6400 H   0  0  0  0  0  0  0  0  0  0  0  0
   40.8220   79.9840   61.5350 C   0  0  0  0  0  0  0  0  0  0  0  0
   40.7380   78.7930   62.2100 C   0  0  0  0  0  0  0  0  0  0  0  0
   40.3430   77.7010   61.5240 C   0  0  0  0  0  0  0  0  0  0  0  0
   40.0410   77.8250   60.1750 C   0  0  0  0  0  0  0  0  0  0  0  0
   40.3280   79.6090   59.8280 S   0  0  0  0  0  0  0  0  0  0  0  0
   40.9760   78.6980   63.2710 H   0  0  0  0  0  0  0  0  0  0  0  0
   40.2130   76.6830   61.8620 H   0  0  0  0  0  0  0  0  0  0  0  0
   42.9770   82.7420   62.6510 C   0  0  0  0  0  0  0  0  0  0  0  0
   42.0650   83.6120   63.2890 C   0  0  0  0  0  0  0  0  0  0  0  0
   40.7220   83.2600   63.3330 C   0  0  0  0  0  0  0  0  0  0  0  0
   40.3350   82.0920   62.7600 N   0  0  0  0  0  0  0  0  0  0  0  0
   41.2390   81.2700   62.1510 C   0  0  0  0  0  0  0  0  0  0  0  0
   42.5300   81.6060   62.1080 N   0  0  0  0  0  0  0  0  0  0  0  0
   44.0270   82.9980   62.6070 H   0  0  0  0  0  0  0  0  0  0  0  0
   42.4030   84.5300   63.7320 H   0  0  0  0  0  0  0  0  0  0  0  0
   39.9900   83.9050   63.8150 H   0  0  0  0  0  0  0  0  0  0  0  0
   36.9710   77.0050   56.5620 C   0  0  0  0  0  0  0  0  0  0  0  0
   35.8680   77.1480   57.1100 O   0  0  0  0  0  0  0  0  0  0  0  0
   37.1200   77.2370   55.0810 C   0  0  1  0  0  0  0  0  0  0  0  0
   37.0060   78.6920   54.6930 C   0  0  0  0  0  0  0  0  0  0  0  0
   38.2650   77.9710   54.5750 C   0  0  2  0  0  0  0  0  0  0  0  0
   36.4100   76.5960   54.4980 H   0  0  0  0  0  0  0  0  0  0  0  0
   36.9000   79.4500   55.5290 H   0  0  0  0  0  0  0  0  0  0  0  0
   36.2710   78.8970   53.9070 H   0  0  0  0  0  0  0  0  0  0  0  0
   39.0470   78.2800   55.3460 H   0  0  0  0  0  0  0  0  0  0  0  0
   39.2500   78.0680   52.1580 C   0  0  0  0  0  0  0  0  0  0  0  0
   38.8650   77.4720   53.3320 C   0  0  0  0  0  0  0  0  0  0  0  0
   39.0340   76.0830   53.4140 C   0  0  0  0  0  0  0  0  0  0  0  0
   38.7890   75.4210   54.2600 H   0  0  0  0  0  0  0  0  0  0  0  0
   39.5670   75.3540   52.3500 C   0  0  0  0  0  0  0  0  0  0  0  0
   39.7160   74.2850   52.3640 H   0  0  0  0  0  0  0  0  0  0  0  0
   39.9400   75.9840   51.1900 C   0  0  0  0  0  3  0  0  0  0  0  0
   39.7750   77.3510   51.1090 C   0  0  0  0  0  3  0  0  0  0  0  0
   37.8630   80.2210   52.6460 H   0  0  0  0  0  0  0  0  0  0  0  0
   39.0360   79.7930   52.1450 S   0  0  0  0  0  0  0  0  0  0  0  0
   39.3360   80.2820   50.7490 O   0  0  0  0  0  0  0  0  0  0  0  0
   40.1250   80.4300   53.0090 O   0  0  0  0  0  0  0  0  0  0  0  0
  1 12  1  0  0  0  0
  2  1  1  0  0  0  0
  2  7  1  0  0  0  0
  3  2  2  0  0  0  0
  4  5  2  0  0  0  0
  4  3  1  0  0  0  0
  5  6  1  0  0  0  0
  6  1  2  0  0  0  0
  8  3  1  0  0  0  0
  9 20  1  0  0  0  0
  9 10  2  0  0  0  0
 10 14  1  0  0  0  0
 11 15  1  0  0  0  0
 11 10  1  0  0  0  0
 12 11  2  0  0  0  0
 13 12  1  0  0  0  0
 13  9  1  0  0  0  0
 16 17  1  0  0  0  0
 17 18  2  0  0  0  0
 17 23  1  0  0  0  0
 18 24  1  0  0  0  0
 19 18  1  0  0  0  0
 20 19  2  0  0  0  0
 21 20  1  0  0  0  0
 21 16  2  0  0  0  0
 22 16  1  0  0  0  0
 25 26  2  0  0  0  0
 25  5  1  0  0  0  0
 27 30  1  6  0  0  0
 27 25  1  0  0  0  0
 28 27  1  0  0  0  0
 28 31  1  0  0  0  0
 29 28  1  0  0  0  0
 29 27  1  0  0  0  0
 29 33  1  1  0  0  0
 32 28  1  0  0  0  0
 34 35  1  0  0  0  0
 35 36  2  0  0  0  0
 35 29  1  0  0  0  0
 36 37  1  0  0  0  0
 38 39  1  0  0  0  0
 38 36  1  0  0  0  0
 40 38  2  0  0  0  0
 41 40  1  0  0  0  0
 41 34  2  0  0  0  0
 43 34  1  0  0  0  0
 43 42  1  0  0  0  0
 43 45  2  0  0  0  0
 44 43  2  0  0  0  0
M  END
>  <minimizedAffinity>
-6.50948524

>  <minimizedRMSD>
1.71849859

$$$$
