
 OpenBabel03212520403D

 30 32  0  0  1  0  0  0  0  0999 V2000
   43.9370   86.1080   61.5170 C   0  0  1  0  0  0  0  0  0  0  0  0
   45.3670   86.3390   61.0320 C   0  0  0  0  0  0  0  0  0  0  0  0
   44.1900   86.2170   60.0710 C   0  0  1  0  0  0  0  0  0  0  0  0
   43.5590   86.9540   62.1230 H   0  0  0  0  0  0  0  0  0  0  0  0
   45.8110   87.3460   61.1490 H   0  0  0  0  0  0  0  0  0  0  0  0
   46.0770   85.5160   60.9860 H   0  0  0  0  0  0  0  0  0  0  0  0
   43.8880   87.1570   59.5830 H   0  0  0  0  0  0  0  0  0  0  0  0
   43.7960   84.8190   62.0980 O   0  0  0  0  0  0  0  0  0  0  0  0
   40.6320   83.0990   62.4640 C   0  0  0  0  0  0  0  0  0  0  0  0
   40.1870   83.5830   63.6940 C   0  0  0  0  0  0  0  0  0  0  0  0
   41.0070   84.5100   64.3800 C   0  0  0  0  0  0  0  0  0  0  0  0
   42.1710   84.8480   63.7660 N   0  0  0  0  0  0  0  0  0  0  0  0
   42.5870   84.3730   62.5810 C   0  0  0  0  0  0  0  0  0  0  0  0
   41.8350   83.5020   61.9190 N   0  0  0  0  0  0  0  0  0  0  0  0
   40.0300   82.3790   61.8990 H   0  0  0  0  0  0  0  0  0  0  0  0
   39.2510   83.2680   64.1180 H   0  0  0  0  0  0  0  0  0  0  0  0
   40.7160   84.9210   65.3360 H   0  0  0  0  0  0  0  0  0  0  0  0
   44.0620   85.0460   59.3250 O   0  0  0  0  0  0  0  0  0  0  0  0
   43.5510   84.6490   57.0770 C   0  0  0  0  0  0  0  0  0  0  0  0
   44.5070   84.7870   58.0640 C   0  0  0  0  0  0  0  0  0  0  0  0
   45.8390   84.6730   57.8020 C   0  0  0  0  0  0  0  0  0  0  0  0
   46.6150   84.7710   58.5300 H   0  0  0  0  0  0  0  0  0  0  0  0
   46.1900   84.4080   56.4830 C   0  0  0  0  0  0  0  0  0  0  0  0
   47.2570   84.3130   56.2600 H   0  0  0  0  0  0  0  0  0  0  0  0
   45.3120   84.2530   55.4320 C   0  0  0  0  0  3  0  0  0  0  0  0
   43.9790   84.3850   55.7860 C   0  0  0  0  0  3  0  0  0  0  0  0
   41.6900   85.0670   58.7960 H   0  0  0  0  0  0  0  0  0  0  0  0
   41.8530   84.8030   57.4560 S   0  0  0  0  0  0  0  0  0  0  0  0
   41.1490   83.4970   57.2060 O   0  0  0  0  0  0  0  0  0  0  0  0
   41.1760   85.8630   56.6370 O   0  0  0  0  0  0  0  0  0  0  0  0
  1  8  1  0  0  0  0
  1  4  1  1  0  0  0
  2  5  1  0  0  0  0
  2  1  1  0  0  0  0
  3  7  1  6  0  0  0
  3  2  1  0  0  0  0
  3  1  1  0  0  0  0
  6  2  1  0  0  0  0
  8 13  1  0  0  0  0
  9 10  1  0  0  0  0
 10 16  1  0  0  0  0
 10 11  2  0  0  0  0
 11 17  1  0  0  0  0
 12 11  1  0  0  0  0
 13 12  2  0  0  0  0
 14  9  2  0  0  0  0
 14 13  1  0  0  0  0
 15  9  1  0  0  0  0
 18  3  1  0  0  0  0
 19 28  1  0  0  0  0
 19 20  1  0  0  0  0
 20 18  1  0  0  0  0
 21 20  2  0  0  0  0
 21 22  1  0  0  0  0
 23 21  1  0  0  0  0
 24 23  1  0  0  0  0
 25 26  1  0  0  0  0
 25 23  2  0  0  0  0
 26 19  2  0  0  0  0
 28 27  1  0  0  0  0
 29 28  2  0  0  0  0
 30 28  2  0  0  0  0
M  END
>  <minimizedAffinity>
-4.16264343

>  <minimizedRMSD>
1.65175188

$$$$
