
 OpenBabel03212520513D

 38 41  0  0  1  0  0  0  0  0999 V2000
   41.6960   83.6820   61.1620 C   0  0  0  0  0  0  0  0  0  0  0  0
   40.7490   84.1260   62.0550 C   0  0  0  0  0  0  0  0  0  0  0  0
   40.1720   83.2620   62.9850 C   0  0  0  0  0  0  0  0  0  0  0  0
   40.5400   81.9690   63.0170 N   0  0  0  0  0  0  0  0  0  0  0  0
   41.4740   81.5520   62.1290 C   0  0  0  0  0  0  0  0  0  0  0  0
   42.0440   82.3750   61.2230 N   0  0  0  0  0  0  0  0  0  0  0  0
   40.4520   85.1730   62.0280 H   0  0  0  0  0  0  0  0  0  0  0  0
   39.4320   83.6520   63.6690 H   0  0  0  0  0  0  0  0  0  0  0  0
   43.5930   86.4080   59.6210 C   0  0  0  0  0  0  0  0  0  0  0  0
   43.3890   86.1630   58.2660 C   0  0  0  0  0  0  0  0  0  0  0  0
   42.6170   85.0890   57.8650 C   0  0  0  0  0  0  0  0  0  0  0  0
   42.0930   84.3170   58.8670 N   0  0  0  0  0  0  0  0  0  0  0  0
   42.3030   84.5700   60.1710 C   0  0  0  0  0  0  0  0  0  0  0  0
   43.0430   85.6000   60.5600 N   0  0  0  0  0  0  0  0  0  0  0  0
   44.4050   87.5390   59.8710 N   0  0  0  0  0  0  0  0  0  0  0  0
   43.7950   86.7620   57.4610 H   0  0  0  0  0  0  0  0  0  0  0  0
   42.4370   84.8690   56.8310 H   0  0  0  0  0  0  0  0  0  0  0  0
   43.7640   88.3590   59.8510 H   0  0  0  0  0  0  0  0  0  0  0  0
   45.4040   87.2690   60.0080 H   0  0  0  0  0  0  0  0  0  0  0  0
   41.8310   80.0960   62.1890 C   0  0  1  0  0  0  0  0  0  0  0  0
   40.8100   79.0980   62.4080 C   0  0  0  0  0  0  0  0  0  0  0  0
   41.3060   79.3160   61.0120 C   0  0  2  0  0  0  0  0  0  0  0  0
   42.8590   79.9110   62.5310 H   0  0  0  0  0  0  0  0  0  0  0  0
   41.0200   78.1920   62.9800 H   0  0  0  0  0  0  0  0  0  0  0  0
   39.7840   79.5030   62.6520 H   0  0  0  0  0  0  0  0  0  0  0  0
   40.6060   79.8210   60.3260 H   0  0  0  0  0  0  0  0  0  0  0  0
   41.2360   77.2900   59.6060 C   0  0  0  0  0  0  0  0  0  0  0  0
   41.9400   78.1270   60.4510 C   0  0  0  0  0  0  0  0  0  0  0  0
   43.2510   77.7190   60.6870 C   0  0  0  0  0  0  0  0  0  0  0  0
   43.8520   78.3380   61.3410 H   0  0  0  0  0  0  0  0  0  0  0  0
   43.8310   76.5990   60.1510 C   0  0  0  0  0  0  0  0  0  0  0  0
   44.8440   76.3190   60.3570 H   0  0  0  0  0  0  0  0  0  0  0  0
   43.0810   75.7990   59.3150 C   0  0  0  0  0  3  0  0  0  0  0  0
   41.7770   76.1450   59.0410 C   0  0  0  0  0  3  0  0  0  0  0  0
   39.0780   78.6970   59.9870 H   0  0  0  0  0  0  0  0  0  0  0  0
   39.5890   77.6850   59.2320 S   0  0  0  0  0  0  0  0  0  0  0  0
   39.4020   77.9250   57.7430 O   0  0  0  0  0  0  0  0  0  0  0  0
   38.7220   76.4860   59.5450 O   0  0  0  0  0  0  0  0  0  0  0  0
  1  6  2  0  0  0  0
  1  2  1  0  0  0  0
  2  3  2  0  0  0  0
  3  4  1  0  0  0  0
  3  8  1  0  0  0  0
  5 20  1  0  0  0  0
  5  4  2  0  0  0  0
  6  5  1  0  0  0  0
  7  2  1  0  0  0  0
  9 15  1  0  0  0  0
  9 14  1  0  0  0  0
 10  9  2  0  0  0  0
 11 10  1  0  0  0  0
 11 12  2  0  0  0  0
 12 13  1  0  0  0  0
 13 14  2  0  0  0  0
 13  1  1  0  0  0  0
 15 19  1  0  0  0  0
 16 10  1  0  0  0  0
 17 11  1  0  0  0  0
 18 15  1  0  0  0  0
 20 21  1  0  0  0  0
 20 23  1  1  0  0  0
 21 25  1  0  0  0  0
 21 24  1  0  0  0  0
 22 26  1  6  0  0  0
 22 20  1  0  0  0  0
 22 21  1  0  0  0  0
 27 28  1  0  0  0  0
 28 29  2  0  0  0  0
 28 22  1  0  0  0  0
 29 30  1  0  0  0  0
 31 32  1  0  0  0  0
 31 29  1  0  0  0  0
 33 31  2  0  0  0  0
 34 33  1  0  0  0  0
 34 27  2  0  0  0  0
 36 38  2  0  0  0  0
 36 27  1  0  0  0  0
 36 35  1  0  0  0  0
 37 36  2  0  0  0  0
M  END
>  <minimizedAffinity>
-5.08816624

>  <minimizedRMSD>
1.79287207

$$$$
