
 OpenBabel03212520223D

 39 41  0  0  0  0  0  0  0  0999 V2000
   40.4490   73.3470   57.0500 Cl  0  0  0  0  0  0  0  0  0  0  0  0
   39.7490   73.6000   58.6510 C   0  0  0  0  0  0  0  0  0  0  0  0
   38.6530   74.4230   58.8730 C   0  0  0  0  0  0  0  0  0  0  0  0
   38.2390   74.5050   60.1840 C   0  0  0  0  0  0  0  0  0  0  0  0
   38.7810   73.8740   61.2720 C   0  0  0  0  0  0  0  0  0  0  0  0
   39.8580   73.0760   60.9980 C   0  0  0  0  0  0  0  0  0  0  0  0
   40.6600   72.1980   62.3030 Cl  0  0  0  0  0  0  0  0  0  0  0  0
   40.3380   72.9380   59.7070 C   0  0  0  0  0  0  0  0  0  0  0  0
   37.3720   75.1590   60.3450 H   0  0  0  0  0  0  0  0  0  0  0  0
   38.4130   73.9800   62.2650 H   0  0  0  0  0  0  0  0  0  0  0  0
   37.1490   74.5800   56.8340 C   0  0  0  0  0  0  0  0  0  0  0  0
   38.0630   75.0930   57.7770 C   0  0  0  0  0  0  0  0  0  0  0  0
   38.4460   76.4270   57.6240 C   0  0  0  0  0  0  0  0  0  0  0  0
   37.8940   77.1070   56.5710 N   0  0  0  0  0  0  0  0  0  0  0  0
   37.0350   76.5940   55.7020 C   0  0  0  0  0  0  0  0  0  0  0  0
   36.6570   75.3050   55.8380 N   0  0  0  0  0  0  0  0  0  0  0  0
   36.8870   73.5370   57.0020 H   0  0  0  0  0  0  0  0  0  0  0  0
   39.1390   76.9430   58.2760 H   0  0  0  0  0  0  0  0  0  0  0  0
   36.5680   77.5120   54.6440 C   0  0  0  0  0  0  0  0  0  0  0  0
   35.5640   78.3480   55.0680 F   0  0  0  0  0  0  0  0  0  0  0  0
   37.6310   78.3040   54.1960 F   0  0  0  0  0  0  0  0  0  0  0  0
   36.0340   76.7850   53.5580 F   0  0  0  0  0  0  0  0  0  0  0  0
   41.4320   72.1150   59.4920 O   0  0  0  0  0  0  0  0  0  0  0  0
   41.3420   70.7500   59.2110 C   0  0  0  0  0  0  0  0  0  0  0  0
   40.3230   70.3710   59.0880 H   0  0  0  0  0  0  0  0  0  0  0  0
   41.9010   70.6010   58.2400 H   0  0  0  0  0  0  0  0  0  0  0  0
   42.0780   70.0920   60.2120 O   0  0  0  0  0  0  0  0  0  0  0  0
   42.3150   68.2620   61.5520 C   0  0  0  0  0  0  0  0  0  0  0  0
   41.9480   68.7100   60.2840 C   0  0  0  0  0  0  0  0  0  0  0  0
   41.5370   67.7850   59.3460 C   0  0  0  0  0  0  0  0  0  0  0  0
   41.2830   68.2580   58.4110 H   0  0  0  0  0  0  0  0  0  0  0  0
   41.4950   66.4630   59.6650 C   0  0  0  0  0  0  0  0  0  0  0  0
   41.1660   65.7890   58.8940 H   0  0  0  0  0  0  0  0  0  0  0  0
   41.8480   65.9760   60.9040 C   0  0  0  0  0  3  0  0  0  0  0  0
   42.2610   66.8950   61.8480 C   0  0  0  0  0  3  0  0  0  0  0  0
   43.1790   70.5340   62.4290 H   0  0  0  0  0  0  0  0  0  0  0  0
   42.8640   69.2600   62.8830 S   0  0  0  0  0  0  0  0  0  0  0  0
   44.0380   68.6430   63.6020 O   0  0  0  0  0  0  0  0  0  0  0  0
   41.7650   69.4260   63.8930 O   0  0  0  0  0  0  0  0  0  0  0  0
  1  2  1  0  0  0  0
  2  3  2  0  0  0  0
  2  8  1  0  0  0  0
  3  4  1  0  0  0  0
  4  9  1  0  0  0  0
  4  5  2  0  0  0  0
  5 10  1  0  0  0  0
  6  5  1  0  0  0  0
  6  7  1  0  0  0  0
  8  6  2  0  0  0  0
 11 17  1  0  0  0  0
 11 12  1  0  0  0  0
 12  3  1  0  0  0  0
 13 12  2  0  0  0  0
 13 18  1  0  0  0  0
 14 13  1  0  0  0  0
 15 16  1  0  0  0  0
 15 14  2  0  0  0  0
 16 11  2  0  0  0  0
 19 20  1  0  0  0  0
 19 15  1  0  0  0  0
 21 19  1  0  0  0  0
 22 19  1  0  0  0  0
 23  8  1  0  0  0  0
 24 23  1  0  0  0  0
 24 27  1  0  0  0  0
 25 24  1  0  0  0  0
 26 24  1  0  0  0  0
 27 29  1  0  0  0  0
 28 35  1  0  0  0  0
 28 37  1  0  0  0  0
 29 28  2  0  0  0  0
 30 32  2  0  0  0  0
 30 29  1  0  0  0  0
 31 30  1  0  0  0  0
 32 34  1  0  0  0  0
 33 32  1  0  0  0  0
 34 35  2  0  0  0  0
 36 37  1  0  0  0  0
 37 38  2  0  0  0  0
 37 39  2  0  0  0  0
M  END
>  <minimizedAffinity>
-6.8990612

$$$$

 OpenBabel03212520223D

 39 41  0  0  0  0  0  0  0  0999 V2000
   41.8030   72.1100   61.9290 Cl  0  0  0  0  0  0  0  0  0  0  0  0
   41.6030   71.5350   60.2720 C   0  0  0  0  0  0  0  0  0  0  0  0
   41.2520   72.3720   59.2210 C   0  0  0  0  0  0  0  0  0  0  0  0
   41.1390   71.7550   57.9950 C   0  0  0  0  0  0  0  0  0  0  0  0
   41.3330   70.4300   57.7050 C   0  0  0  0  0  0  0  0  0  0  0  0
   41.6780   69.6510   58.7760 C   0  0  0  0  0  0  0  0  0  0  0  0
   41.9600   67.9230   58.5530 Cl  0  0  0  0  0  0  0  0  0  0  0  0
   41.8120   70.1920   60.0420 C   0  0  0  0  0  0  0  0  0  0  0  0
   40.8610   72.4290   57.1730 H   0  0  0  0  0  0  0  0  0  0  0  0
   41.2300   70.0140   56.7310 H   0  0  0  0  0  0  0  0  0  0  0  0
   39.8740   74.3740   59.9550 C   0  0  0  0  0  0  0  0  0  0  0  0
   41.0420   73.7460   59.4770 C   0  0  0  0  0  0  0  0  0  0  0  0
   42.1410   74.5690   59.2180 C   0  0  0  0  0  0  0  0  0  0  0  0
   41.9740   75.9070   59.4540 N   0  0  0  0  0  0  0  0  0  0  0  0
   40.8600   76.4660   59.9060 C   0  0  0  0  0  0  0  0  0  0  0  0
   39.7910   75.6820   60.1600 N   0  0  0  0  0  0  0  0  0  0  0  0
   39.0530   73.6850   60.1400 H   0  0  0  0  0  0  0  0  0  0  0  0
   43.0950   74.2170   58.8480 H   0  0  0  0  0  0  0  0  0  0  0  0
   40.9050   77.9300   60.0880 C   0  0  0  0  0  0  0  0  0  0  0  0
   40.5220   78.3240   61.3470 F   0  0  0  0  0  0  0  0  0  0  0  0
   42.2050   78.3990   59.8650 F   0  0  0  0  0  0  0  0  0  0  0  0
   40.0160   78.5680   59.1960 F   0  0  0  0  0  0  0  0  0  0  0  0
   42.1620   69.3520   61.0870 O   0  0  0  0  0  0  0  0  0  0  0  0
   43.4220   69.3360   61.6910 C   0  0  0  0  0  0  0  0  0  0  0  0
   44.2660   69.3120   60.9940 H   0  0  0  0  0  0  0  0  0  0  0  0
   43.4810   70.2870   62.2970 H   0  0  0  0  0  0  0  0  0  0  0  0
   43.4080   68.2680   62.6050 O   0  0  0  0  0  0  0  0  0  0  0  0
   42.1450   66.3910   62.3210 C   0  0  0  0  0  0  0  0  0  0  0  0
   42.1770   67.6750   62.8620 C   0  0  0  0  0  0  0  0  0  0  0  0
   41.0630   68.1420   63.5280 C   0  0  0  0  0  0  0  0  0  0  0  0
   41.2160   69.1440   63.8960 H   0  0  0  0  0  0  0  0  0  0  0  0
   39.9590   67.3560   63.6480 C   0  0  0  0  0  0  0  0  0  0  0  0
   39.1220   67.7730   64.1780 H   0  0  0  0  0  0  0  0  0  0  0  0
   39.8840   66.0810   63.1300 C   0  0  0  0  0  3  0  0  0  0  0  0
   40.9940   65.6060   62.4620 C   0  0  0  0  0  3  0  0  0  0  0  0
   43.9740   66.4740   60.4970 H   0  0  0  0  0  0  0  0  0  0  0  0
   43.4410   65.6060   61.4410 S   0  0  0  0  0  0  0  0  0  0  0  0
   42.9840   64.3230   60.7920 O   0  0  0  0  0  0  0  0  0  0  0  0
   44.5620   65.2530   62.3770 O   0  0  0  0  0  0  0  0  0  0  0  0
  2  1  1  0  0  0  0
  3 12  1  0  0  0  0
  3  2  2  0  0  0  0
  4  3  1  0  0  0  0
  5  4  2  0  0  0  0
  5  6  1  0  0  0  0
  6  8  2  0  0  0  0
  7  6  1  0  0  0  0
  8  2  1  0  0  0  0
  8 23  1  0  0  0  0
  9  4  1  0  0  0  0
 10  5  1  0  0  0  0
 11 17  1  0  0  0  0
 11 16  1  0  0  0  0
 12 11  2  0  0  0  0
 13 14  2  0  0  0  0
 13 12  1  0  0  0  0
 14 15  1  0  0  0  0
 15 19  1  0  0  0  0
 15 16  2  0  0  0  0
 18 13  1  0  0  0  0
 19 20  1  0  0  0  0
 21 19  1  0  0  0  0
 22 19  1  0  0  0  0
 23 24  1  0  0  0  0
 24 26  1  0  0  0  0
 24 27  1  0  0  0  0
 25 24  1  0  0  0  0
 27 29  1  0  0  0  0
 28 35  2  0  0  0  0
 28 29  1  0  0  0  0
 29 30  2  0  0  0  0
 30 32  1  0  0  0  0
 30 31  1  0  0  0  0
 32 33  1  0  0  0  0
 34 32  2  0  0  0  0
 35 34  1  0  0  0  0
 36 37  1  0  0  0  0
 37 28  1  0  0  0  0
 37 39  2  0  0  0  0
 38 37  2  0  0  0  0
M  END
>  <minimizedAffinity>
-6.66158342

$$$$

 OpenBabel03212520223D

 39 41  0  0  0  0  0  0  0  0999 V2000
   41.1500   71.4240   59.8960 Cl  0  0  0  0  0  0  0  0  0  0  0  0
   42.7700   70.8430   59.5030 C   0  0  0  0  0  0  0  0  0  0  0  0
   43.2920   69.6620   60.0120 C   0  0  0  0  0  0  0  0  0  0  0  0
   44.5710   69.3620   59.6020 C   0  0  0  0  0  0  0  0  0  0  0  0
   45.3710   70.0900   58.7600 C   0  0  0  0  0  0  0  0  0  0  0  0
   44.8090   71.2440   58.2880 C   0  0  0  0  0  0  0  0  0  0  0  0
   45.7220   72.2850   57.1930 Cl  0  0  0  0  0  0  0  0  0  0  0  0
   43.5280   71.6190   58.6520 C   0  0  0  0  0  0  0  0  0  0  0  0
   44.9710   68.4250   60.0120 H   0  0  0  0  0  0  0  0  0  0  0  0
   46.3570   69.8020   58.4810 H   0  0  0  0  0  0  0  0  0  0  0  0
   42.3210   69.0380   62.2740 C   0  0  0  0  0  0  0  0  0  0  0  0
   42.4990   68.8800   60.8840 C   0  0  0  0  0  0  0  0  0  0  0  0
   41.8160   67.8250   60.2750 C   0  0  0  0  0  0  0  0  0  0  0  0
   41.0390   67.0460   61.0890 N   0  0  0  0  0  0  0  0  0  0  0  0
   40.8920   67.2230   62.3950 C   0  0  0  0  0  0  0  0  0  0  0  0
   41.5460   68.2390   62.9960 N   0  0  0  0  0  0  0  0  0  0  0  0
   42.8760   69.8740   62.6930 H   0  0  0  0  0  0  0  0  0  0  0  0
   41.8660   67.5930   59.2190 H   0  0  0  0  0  0  0  0  0  0  0  0
   40.0020   66.2620   63.0760 C   0  0  0  0  0  0  0  0  0  0  0  0
   40.6700   65.4420   63.9520 F   0  0  0  0  0  0  0  0  0  0  0  0
   39.0160   66.9490   63.7930 F   0  0  0  0  0  0  0  0  0  0  0  0
   39.3870   65.4050   62.1370 F   0  0  0  0  0  0  0  0  0  0  0  0
   43.0130   72.8000   58.1400 O   0  0  0  0  0  0  0  0  0  0  0  0
   43.0860   74.0330   58.7920 C   0  0  0  0  0  0  0  0  0  0  0  0
   43.5790   74.0100   59.7690 H   0  0  0  0  0  0  0  0  0  0  0  0
   43.6790   74.7060   58.1060 H   0  0  0  0  0  0  0  0  0  0  0  0
   41.7750   74.5390   58.8290 O   0  0  0  0  0  0  0  0  0  0  0  0
   40.4210   75.8690   60.0920 C   0  0  0  0  0  0  0  0  0  0  0  0
   41.6050   75.8120   59.3590 C   0  0  0  0  0  0  0  0  0  0  0  0
   42.3860   76.9470   59.2710 C   0  0  0  0  0  0  0  0  0  0  0  0
   43.2700   76.7710   58.6790 H   0  0  0  0  0  0  0  0  0  0  0  0
   41.9970   78.0930   59.8920 C   0  0  0  0  0  0  0  0  0  0  0  0
   42.6460   78.9440   59.7880 H   0  0  0  0  0  0  0  0  0  0  0  0
   40.8360   78.1940   60.6260 C   0  0  0  0  0  3  0  0  0  0  0  0
   40.0490   77.0640   60.7190 C   0  0  0  0  0  3  0  0  0  0  0  0
   39.9560   73.4230   60.7830 H   0  0  0  0  0  0  0  0  0  0  0  0
   39.2880   74.5540   60.3320 S   0  0  0  0  0  0  0  0  0  0  0  0
   38.5070   74.2500   59.0780 O   0  0  0  0  0  0  0  0  0  0  0  0
   38.2930   74.9150   61.3970 O   0  0  0  0  0  0  0  0  0  0  0  0
  2  1  1  0  0  0  0
  2  3  1  0  0  0  0
  3 12  1  0  0  0  0
  4  9  1  0  0  0  0
  4  3  2  0  0  0  0
  5  4  1  0  0  0  0
  6  8  1  0  0  0  0
  6  5  2  0  0  0  0
  7  6  1  0  0  0  0
  8  2  2  0  0  0  0
 10  5  1  0  0  0  0
 11 17  1  0  0  0  0
 11 16  1  0  0  0  0
 12 11  2  0  0  0  0
 13 12  1  0  0  0  0
 13 14  2  0  0  0  0
 14 15  1  0  0  0  0
 15 16  2  0  0  0  0
 15 19  1  0  0  0  0
 18 13  1  0  0  0  0
 19 21  1  0  0  0  0
 19 20  1  0  0  0  0
 22 19  1  0  0  0  0
 23  8  1  0  0  0  0
 23 24  1  0  0  0  0
 24 27  1  0  0  0  0
 24 25  1  0  0  0  0
 26 24  1  0  0  0  0
 27 29  1  0  0  0  0
 28 37  1  0  0  0  0
 28 35  1  0  0  0  0
 29 28  2  0  0  0  0
 30 29  1  0  0  0  0
 30 32  2  0  0  0  0
 31 30  1  0  0  0  0
 32 34  1  0  0  0  0
 33 32  1  0  0  0  0
 34 35  2  0  0  0  0
 37 36  1  0  0  0  0
 37 39  2  0  0  0  0
 38 37  2  0  0  0  0
M  END
>  <minimizedAffinity>
-6.34673834

$$$$

 OpenBabel03212520223D

 39 41  0  0  0  0  0  0  0  0999 V2000
   39.4560   73.1340   61.4070 Cl  0  0  0  0  0  0  0  0  0  0  0  0
   41.0360   73.5290   60.7250 C   0  0  0  0  0  0  0  0  0  0  0  0
   42.1390   72.6950   60.8440 C   0  0  0  0  0  0  0  0  0  0  0  0
   43.2910   73.1600   60.2510 C   0  0  0  0  0  0  0  0  0  0  0  0
   43.4650   74.3370   59.5700 C   0  0  0  0  0  0  0  0  0  0  0  0
   42.3470   75.1210   59.4820 C   0  0  0  0  0  0  0  0  0  0  0  0
   42.4190   76.6660   58.6320 Cl  0  0  0  0  0  0  0  0  0  0  0  0
   41.1480   74.7270   60.0500 C   0  0  0  0  0  0  0  0  0  0  0  0
   44.1560   72.4900   60.3530 H   0  0  0  0  0  0  0  0  0  0  0  0
   44.3860   74.6400   59.1330 H   0  0  0  0  0  0  0  0  0  0  0  0
   41.8530   71.2720   62.9270 C   0  0  0  0  0  0  0  0  0  0  0  0
   42.0030   71.4720   61.5390 C   0  0  0  0  0  0  0  0  0  0  0  0
   42.0230   70.3300   60.7360 C   0  0  0  0  0  0  0  0  0  0  0  0
   41.8950   69.1260   61.3760 N   0  0  0  0  0  0  0  0  0  0  0  0
   41.7540   68.9740   62.6850 C   0  0  0  0  0  0  0  0  0  0  0  0
   41.7340   70.0690   63.4740 N   0  0  0  0  0  0  0  0  0  0  0  0
   41.8440   72.1960   63.5020 H   0  0  0  0  0  0  0  0  0  0  0  0
   42.1330   70.3420   59.6590 H   0  0  0  0  0  0  0  0  0  0  0  0
   41.6320   67.5810   63.1590 C   0  0  0  0  0  0  0  0  0  0  0  0
   42.7030   67.1790   63.9200 F   0  0  0  0  0  0  0  0  0  0  0  0
   40.4740   67.4400   63.9330 F   0  0  0  0  0  0  0  0  0  0  0  0
   41.5770   66.6890   62.0660 F   0  0  0  0  0  0  0  0  0  0  0  0
   40.0510   75.5640   59.9280 O   0  0  0  0  0  0  0  0  0  0  0  0
   38.9680   75.3180   59.0810 C   0  0  0  0  0  0  0  0  0  0  0  0
   38.6890   74.2640   58.9840 H   0  0  0  0  0  0  0  0  0  0  0  0
   38.0970   75.8820   59.5280 H   0  0  0  0  0  0  0  0  0  0  0  0
   39.2750   75.9400   57.8580 O   0  0  0  0  0  0  0  0  0  0  0  0
   38.7060   75.7160   55.6620 C   0  0  0  0  0  0  0  0  0  0  0  0
   39.3600   75.1210   56.7390 C   0  0  0  0  0  0  0  0  0  0  0  0
   39.9580   73.8900   56.5550 C   0  0  0  0  0  0  0  0  0  0  0  0
   40.4270   73.5410   57.4610 H   0  0  0  0  0  0  0  0  0  0  0  0
   39.9020   73.2800   55.3410 C   0  0  0  0  0  0  0  0  0  0  0  0
   40.3860   72.3230   55.2570 H   0  0  0  0  0  0  0  0  0  0  0  0
   39.2670   73.8310   54.2490 C   0  0  0  0  0  3  0  0  0  0  0  0
   38.6670   75.0610   54.4250 C   0  0  0  0  0  3  0  0  0  0  0  0
   38.4550   78.0980   56.6300 H   0  0  0  0  0  0  0  0  0  0  0  0
   37.8860   77.2640   55.6760 S   0  0  0  0  0  0  0  0  0  0  0  0
   36.4030   77.1130   55.9130 O   0  0  0  0  0  0  0  0  0  0  0  0
   38.0540   77.9520   54.3520 O   0  0  0  0  0  0  0  0  0  0  0  0
  2  3  1  0  0  0  0
  2  1  1  0  0  0  0
  3 12  1  0  0  0  0
  4  9  1  0  0  0  0
  4  3  2  0  0  0  0
  5  4  1  0  0  0  0
  6  5  2  0  0  0  0
  6  8  1  0  0  0  0
  7  6  1  0  0  0  0
  8  2  2  0  0  0  0
 10  5  1  0  0  0  0
 11 16  1  0  0  0  0
 11 17  1  0  0  0  0
 12 11  2  0  0  0  0
 13 14  2  0  0  0  0
 13 12  1  0  0  0  0
 14 15  1  0  0  0  0
 15 19  1  0  0  0  0
 15 16  2  0  0  0  0
 18 13  1  0  0  0  0
 19 20  1  0  0  0  0
 19 21  1  0  0  0  0
 22 19  1  0  0  0  0
 23  8  1  0  0  0  0
 24 26  1  0  0  0  0
 24 23  1  0  0  0  0
 25 24  1  0  0  0  0
 27 24  1  0  0  0  0
 28 37  1  0  0  0  0
 28 29  1  0  0  0  0
 29 27  1  0  0  0  0
 30 29  2  0  0  0  0
 30 31  1  0  0  0  0
 32 30  1  0  0  0  0
 33 32  1  0  0  0  0
 34 35  1  0  0  0  0
 34 32  2  0  0  0  0
 35 28  2  0  0  0  0
 37 38  2  0  0  0  0
 37 36  1  0  0  0  0
 39 37  2  0  0  0  0
M  END
>  <minimizedAffinity>
-6.31014395

$$$$

 OpenBabel03212520223D

 39 41  0  0  0  0  0  0  0  0999 V2000
   42.0320   71.1690   60.0930 Cl  0  0  0  0  0  0  0  0  0  0  0  0
   41.5420   71.0570   58.4000 C   0  0  0  0  0  0  0  0  0  0  0  0
   41.0820   72.1470   57.6740 C   0  0  0  0  0  0  0  0  0  0  0  0
   40.7440   71.8780   56.3670 C   0  0  0  0  0  0  0  0  0  0  0  0
   40.8110   70.6740   55.7170 C   0  0  0  0  0  0  0  0  0  0  0  0
   41.2710   69.6340   56.4770 C   0  0  0  0  0  0  0  0  0  0  0  0
   41.4110   68.0220   55.7730 Cl  0  0  0  0  0  0  0  0  0  0  0  0
   41.6320   69.8190   57.8000 C   0  0  0  0  0  0  0  0  0  0  0  0
   40.3810   72.7500   55.8050 H   0  0  0  0  0  0  0  0  0  0  0  0
   40.5330   70.5320   54.7000 H   0  0  0  0  0  0  0  0  0  0  0  0
   42.0260   74.3510   58.5090 C   0  0  0  0  0  0  0  0  0  0  0  0
   40.9980   73.4080   58.3080 C   0  0  0  0  0  0  0  0  0  0  0  0
   39.7300   73.7440   58.7880 C   0  0  0  0  0  0  0  0  0  0  0  0
   39.6110   74.9590   59.4080 N   0  0  0  0  0  0  0  0  0  0  0  0
   40.6010   75.8240   59.5800 C   0  0  0  0  0  0  0  0  0  0  0  0
   41.8310   75.5110   59.1210 N   0  0  0  0  0  0  0  0  0  0  0  0
   42.9900   74.0360   58.1150 H   0  0  0  0  0  0  0  0  0  0  0  0
   38.8550   73.1130   58.7000 H   0  0  0  0  0  0  0  0  0  0  0  0
   40.2440   77.0760   60.2770 C   0  0  0  0  0  0  0  0  0  0  0  0
   39.4780   77.9170   59.5070 F   0  0  0  0  0  0  0  0  0  0  0  0
   39.5280   76.7850   61.4440 F   0  0  0  0  0  0  0  0  0  0  0  0
   41.4060   77.8060   60.6090 F   0  0  0  0  0  0  0  0  0  0  0  0
   42.0900   68.7260   58.5200 O   0  0  0  0  0  0  0  0  0  0  0  0
   41.2870   67.9450   59.3540 C   0  0  0  0  0  0  0  0  0  0  0  0
   40.2820   68.3400   59.5270 H   0  0  0  0  0  0  0  0  0  0  0  0
   41.1980   66.9440   58.8400 H   0  0  0  0  0  0  0  0  0  0  0  0
   42.0270   67.7360   60.5310 O   0  0  0  0  0  0  0  0  0  0  0  0
   41.8570   67.6450   62.8030 C   0  0  0  0  0  0  0  0  0  0  0  0
   41.3590   67.1500   61.5990 C   0  0  0  0  0  0  0  0  0  0  0  0
   40.3440   66.2140   61.6360 C   0  0  0  0  0  0  0  0  0  0  0  0
   40.0510   65.9140   60.6430 H   0  0  0  0  0  0  0  0  0  0  0  0
   39.8490   65.7910   62.8290 C   0  0  0  0  0  0  0  0  0  0  0  0
   39.0590   65.0620   62.7950 H   0  0  0  0  0  0  0  0  0  0  0  0
   40.3110   66.2530   64.0430 C   0  0  0  0  0  3  0  0  0  0  0  0
   41.3250   67.1890   64.0150 C   0  0  0  0  0  3  0  0  0  0  0  0
   43.7690   69.0410   61.7670 H   0  0  0  0  0  0  0  0  0  0  0  0
   43.1350   68.8300   62.9850 S   0  0  0  0  0  0  0  0  0  0  0  0
   44.1310   68.4250   64.0440 O   0  0  0  0  0  0  0  0  0  0  0  0
   42.5590   70.1520   63.4020 O   0  0  0  0  0  0  0  0  0  0  0  0
  2  1  1  0  0  0  0
  3 12  1  0  0  0  0
  3  2  2  0  0  0  0
  4  3  1  0  0  0  0
  5  4  2  0  0  0  0
  5  6  1  0  0  0  0
  6  8  2  0  0  0  0
  7  6  1  0  0  0  0
  8  2  1  0  0  0  0
  8 23  1  0  0  0  0
  9  4  1  0  0  0  0
 10  5  1  0  0  0  0
 11 16  1  0  0  0  0
 12 11  2  0  0  0  0
 12 13  1  0  0  0  0
 13 14  2  0  0  0  0
 14 15  1  0  0  0  0
 15 19  1  0  0  0  0
 16 15  2  0  0  0  0
 17 11  1  0  0  0  0
 18 13  1  0  0  0  0
 19 22  1  0  0  0  0
 19 21  1  0  0  0  0
 20 19  1  0  0  0  0
 23 24  1  0  0  0  0
 24 25  1  0  0  0  0
 24 27  1  0  0  0  0
 26 24  1  0  0  0  0
 27 29  1  0  0  0  0
 28 37  1  0  0  0  0
 28 35  1  0  0  0  0
 29 30  1  0  0  0  0
 29 28  2  0  0  0  0
 30 32  2  0  0  0  0
 31 30  1  0  0  0  0
 32 34  1  0  0  0  0
 33 32  1  0  0  0  0
 35 34  2  0  0  0  0
 36 37  1  0  0  0  0
 37 39  2  0  0  0  0
 37 38  2  0  0  0  0
M  END
>  <minimizedAffinity>
-6.16893864

$$$$

 OpenBabel03212520223D

 39 41  0  0  0  0  0  0  0  0999 V2000
   38.3100   73.8300   59.7080 Cl  0  0  0  0  0  0  0  0  0  0  0  0
   39.7000   74.7990   59.2120 C   0  0  0  0  0  0  0  0  0  0  0  0
   40.9950   74.5320   59.6330 C   0  0  0  0  0  0  0  0  0  0  0  0
   41.9570   75.3890   59.1490 C   0  0  0  0  0  0  0  0  0  0  0  0
   41.7780   76.4590   58.3110 C   0  0  0  0  0  0  0  0  0  0  0  0
   40.4840   76.6780   57.9260 C   0  0  0  0  0  0  0  0  0  0  0  0
   40.1010   78.0210   56.8460 Cl  0  0  0  0  0  0  0  0  0  0  0  0
   39.4570   75.8620   58.3680 C   0  0  0  0  0  0  0  0  0  0  0  0
   42.9770   75.1660   59.4910 H   0  0  0  0  0  0  0  0  0  0  0  0
   42.5680   77.0860   57.9720 H   0  0  0  0  0  0  0  0  0  0  0  0
   41.0000   73.3660   61.8890 C   0  0  0  0  0  0  0  0  0  0  0  0
   41.2240   73.4370   60.4980 C   0  0  0  0  0  0  0  0  0  0  0  0
   41.7350   72.2930   59.8810 C   0  0  0  0  0  0  0  0  0  0  0  0
   41.9700   71.2130   60.6890 N   0  0  0  0  0  0  0  0  0  0  0  0
   41.7470   71.1790   61.9950 C   0  0  0  0  0  0  0  0  0  0  0  0
   41.2530   72.2780   62.6050 N   0  0  0  0  0  0  0  0  0  0  0  0
   40.6010   74.2840   62.3140 H   0  0  0  0  0  0  0  0  0  0  0  0
   41.9530   72.2140   58.8240 H   0  0  0  0  0  0  0  0  0  0  0  0
   42.0720   69.9060   62.6680 C   0  0  0  0  0  0  0  0  0  0  0  0
   43.4240   69.6650   62.7330 F   0  0  0  0  0  0  0  0  0  0  0  0
   41.5720   69.9150   63.9750 F   0  0  0  0  0  0  0  0  0  0  0  0
   41.5190   68.8160   61.9610 F   0  0  0  0  0  0  0  0  0  0  0  0
   38.1660   76.1350   57.9430 O   0  0  0  0  0  0  0  0  0  0  0  0
   37.4650   75.3580   57.0180 C   0  0  0  0  0  0  0  0  0  0  0  0
   37.4250   74.2890   57.2500 H   0  0  0  0  0  0  0  0  0  0  0  0
   36.4110   75.7650   57.0140 H   0  0  0  0  0  0  0  0  0  0  0  0
   38.0210   75.6460   55.7590 O   0  0  0  0  0  0  0  0  0  0  0  0
   37.9940   76.7320   53.7550 C   0  0  0  0  0  0  0  0  0  0  0  0
   37.4220   76.6620   55.0240 C   0  0  0  0  0  0  0  0  0  0  0  0
   36.4130   77.5470   55.3470 C   0  0  0  0  0  0  0  0  0  0  0  0
   36.0590   77.3880   56.3530 H   0  0  0  0  0  0  0  0  0  0  0  0
   35.9940   78.4660   54.4370 C   0  0  0  0  0  0  0  0  0  0  0  0
   35.2050   79.1290   54.7450 H   0  0  0  0  0  0  0  0  0  0  0  0
   36.5300   78.5720   53.1720 C   0  0  0  0  0  3  0  0  0  0  0  0
   37.5390   77.6900   52.8400 C   0  0  0  0  0  3  0  0  0  0  0  0
   40.2180   75.4730   54.1350 H   0  0  0  0  0  0  0  0  0  0  0  0
   39.2780   75.7110   53.1400 S   0  0  0  0  0  0  0  0  0  0  0  0
   39.9320   76.3050   51.9180 O   0  0  0  0  0  0  0  0  0  0  0  0
   38.7290   74.3720   52.7420 O   0  0  0  0  0  0  0  0  0  0  0  0
  2  3  1  0  0  0  0
  2  1  1  0  0  0  0
  3 12  1  0  0  0  0
  4  9  1  0  0  0  0
  4  3  2  0  0  0  0
  5  4  1  0  0  0  0
  6  5  2  0  0  0  0
  6  8  1  0  0  0  0
  7  6  1  0  0  0  0
  8  2  2  0  0  0  0
 10  5  1  0  0  0  0
 11 17  1  0  0  0  0
 11 16  1  0  0  0  0
 12 11  2  0  0  0  0
 13 12  1  0  0  0  0
 13 14  2  0  0  0  0
 14 15  1  0  0  0  0
 15 16  2  0  0  0  0
 15 19  1  0  0  0  0
 18 13  1  0  0  0  0
 19 20  1  0  0  0  0
 19 21  1  0  0  0  0
 22 19  1  0  0  0  0
 23  8  1  0  0  0  0
 24 25  1  0  0  0  0
 24 23  1  0  0  0  0
 26 24  1  0  0  0  0
 27 24  1  0  0  0  0
 28 29  1  0  0  0  0
 29 30  2  0  0  0  0
 29 27  1  0  0  0  0
 30 31  1  0  0  0  0
 32 33  1  0  0  0  0
 32 30  1  0  0  0  0
 34 32  2  0  0  0  0
 35 34  1  0  0  0  0
 35 28  2  0  0  0  0
 37 28  1  0  0  0  0
 37 36  1  0  0  0  0
 38 37  2  0  0  0  0
 39 37  2  0  0  0  0
M  END
>  <minimizedAffinity>
-6.0631876

$$$$

 OpenBabel03212520223D

 39 41  0  0  0  0  0  0  0  0999 V2000
   39.7140   73.0190   61.3530 Cl  0  0  0  0  0  0  0  0  0  0  0  0
   41.1640   73.5520   60.4980 C   0  0  0  0  0  0  0  0  0  0  0  0
   42.1990   72.6910   60.1600 C   0  0  0  0  0  0  0  0  0  0  0  0
   43.2530   73.2760   59.4950 C   0  0  0  0  0  0  0  0  0  0  0  0
   43.3880   74.5920   59.1370 C   0  0  0  0  0  0  0  0  0  0  0  0
   42.3400   75.3960   59.4930 C   0  0  0  0  0  0  0  0  0  0  0  0
   42.3740   77.1160   59.0970 Cl  0  0  0  0  0  0  0  0  0  0  0  0
   41.2420   74.8870   60.1640 C   0  0  0  0  0  0  0  0  0  0  0  0
   44.0650   72.5840   59.2340 H   0  0  0  0  0  0  0  0  0  0  0  0
   44.2330   74.9830   58.6210 H   0  0  0  0  0  0  0  0  0  0  0  0
   42.2940   70.7360   61.7770 C   0  0  0  0  0  0  0  0  0  0  0  0
   42.0990   71.3250   60.5110 C   0  0  0  0  0  0  0  0  0  0  0  0
   41.7670   70.4680   59.4600 C   0  0  0  0  0  0  0  0  0  0  0  0
   41.6620   69.1370   59.7630 N   0  0  0  0  0  0  0  0  0  0  0  0
   41.8510   68.6150   60.9660 C   0  0  0  0  0  0  0  0  0  0  0  0
   42.1730   69.4320   61.9920 N   0  0  0  0  0  0  0  0  0  0  0  0
   42.5500   71.4500   62.5560 H   0  0  0  0  0  0  0  0  0  0  0  0
   41.5910   70.7890   58.4410 H   0  0  0  0  0  0  0  0  0  0  0  0
   41.6850   67.1510   61.0640 C   0  0  0  0  0  0  0  0  0  0  0  0
   40.5510   66.7860   61.7480 F   0  0  0  0  0  0  0  0  0  0  0  0
   41.6150   66.5920   59.7830 F   0  0  0  0  0  0  0  0  0  0  0  0
   42.7640   66.5760   61.7690 F   0  0  0  0  0  0  0  0  0  0  0  0
   40.2110   75.7510   60.4990 O   0  0  0  0  0  0  0  0  0  0  0  0
   39.4390   76.4470   59.5660 C   0  0  0  0  0  0  0  0  0  0  0  0
   38.8710   77.2890   59.9740 H   0  0  0  0  0  0  0  0  0  0  0  0
   40.1680   76.8410   58.7990 H   0  0  0  0  0  0  0  0  0  0  0  0
   38.6430   75.4860   58.9180 O   0  0  0  0  0  0  0  0  0  0  0  0
   38.4910   74.5100   56.8630 C   0  0  0  0  0  0  0  0  0  0  0  0
   38.3630   75.7020   57.5740 C   0  0  0  0  0  0  0  0  0  0  0  0
   38.0030   76.8470   56.8920 C   0  0  0  0  0  0  0  0  0  0  0  0
   37.9390   77.6960   57.5540 H   0  0  0  0  0  0  0  0  0  0  0  0
   37.7790   76.8000   55.5510 C   0  0  0  0  0  0  0  0  0  0  0  0
   37.5010   77.7230   55.0740 H   0  0  0  0  0  0  0  0  0  0  0  0
   37.8930   75.6450   54.8090 C   0  0  0  0  0  3  0  0  0  0  0  0
   38.2530   74.4960   55.4830 C   0  0  0  0  0  3  0  0  0  0  0  0
   38.7460   72.9460   58.9040 H   0  0  0  0  0  0  0  0  0  0  0  0
   38.9350   72.9510   57.5280 S   0  0  0  0  0  0  0  0  0  0  0  0
   40.3550   72.5760   57.1810 O   0  0  0  0  0  0  0  0  0  0  0  0
   38.0450   71.8780   56.9700 O   0  0  0  0  0  0  0  0  0  0  0  0
  2  1  1  0  0  0  0
  3  2  2  0  0  0  0
  3 12  1  0  0  0  0
  4  3  1  0  0  0  0
  5  6  1  0  0  0  0
  5  4  2  0  0  0  0
  6  8  2  0  0  0  0
  7  6  1  0  0  0  0
  8  2  1  0  0  0  0
  8 23  1  0  0  0  0
  9  4  1  0  0  0  0
 10  5  1  0  0  0  0
 11 16  1  0  0  0  0
 11 17  1  0  0  0  0
 12 11  2  0  0  0  0
 13 14  2  0  0  0  0
 13 12  1  0  0  0  0
 14 15  1  0  0  0  0
 15 19  1  0  0  0  0
 15 16  2  0  0  0  0
 18 13  1  0  0  0  0
 19 20  1  0  0  0  0
 19 22  1  0  0  0  0
 21 19  1  0  0  0  0
 24 25  1  0  0  0  0
 24 23  1  0  0  0  0
 26 24  1  0  0  0  0
 27 24  1  0  0  0  0
 28 37  1  0  0  0  0
 28 29  1  0  0  0  0
 29 27  1  0  0  0  0
 30 31  1  0  0  0  0
 30 29  2  0  0  0  0
 32 30  1  0  0  0  0
 33 32  1  0  0  0  0
 34 35  1  0  0  0  0
 34 32  2  0  0  0  0
 35 28  2  0  0  0  0
 37 36  1  0  0  0  0
 38 37  2  0  0  0  0
 39 37  2  0  0  0  0
M  END
>  <minimizedAffinity>
-6.0406127

$$$$

 OpenBabel03212520223D

 39 41  0  0  0  0  0  0  0  0999 V2000
   39.9970   72.9890   57.5400 Cl  0  0  0  0  0  0  0  0  0  0  0  0
   41.1050   74.2260   58.1380 C   0  0  0  0  0  0  0  0  0  0  0  0
   40.9040   75.5840   57.9290 C   0  0  0  0  0  0  0  0  0  0  0  0
   41.8680   76.4080   58.4650 C   0  0  0  0  0  0  0  0  0  0  0  0
   42.9840   76.0400   59.1690 C   0  0  0  0  0  0  0  0  0  0  0  0
   43.1350   74.6920   59.3460 C   0  0  0  0  0  0  0  0  0  0  0  0
   44.5280   74.0700   60.2350 Cl  0  0  0  0  0  0  0  0  0  0  0  0
   42.2110   73.7950   58.8390 C   0  0  0  0  0  0  0  0  0  0  0  0
   41.6950   77.4790   58.2930 H   0  0  0  0  0  0  0  0  0  0  0  0
   43.6950   76.7300   59.5580 H   0  0  0  0  0  0  0  0  0  0  0  0
   38.4440   76.1610   57.6800 C   0  0  0  0  0  0  0  0  0  0  0  0
   39.7630   76.0060   57.2080 C   0  0  0  0  0  0  0  0  0  0  0  0
   39.9920   76.3010   55.8620 C   0  0  0  0  0  0  0  0  0  0  0  0
   38.9090   76.7120   55.1320 N   0  0  0  0  0  0  0  0  0  0  0  0
   37.6800   76.8480   55.6080 C   0  0  0  0  0  0  0  0  0  0  0  0
   37.4450   76.5670   56.9070 N   0  0  0  0  0  0  0  0  0  0  0  0
   38.3260   75.9180   58.7340 H   0  0  0  0  0  0  0  0  0  0  0  0
   40.9550   76.2230   55.3730 H   0  0  0  0  0  0  0  0  0  0  0  0
   36.6640   77.3070   54.6390 C   0  0  0  0  0  0  0  0  0  0  0  0
   36.0520   76.2720   53.9750 F   0  0  0  0  0  0  0  0  0  0  0  0
   35.6740   78.0440   55.2980 F   0  0  0  0  0  0  0  0  0  0  0  0
   37.2590   78.1090   53.6400 F   0  0  0  0  0  0  0  0  0  0  0  0
   42.4180   72.4410   59.0510 O   0  0  0  0  0  0  0  0  0  0  0  0
   41.9230   71.7350   60.1490 C   0  0  0  0  0  0  0  0  0  0  0  0
   41.2830   72.3160   60.8200 H   0  0  0  0  0  0  0  0  0  0  0  0
   41.3150   70.8860   59.7170 H   0  0  0  0  0  0  0  0  0  0  0  0
   43.0380   71.1590   60.7830 O   0  0  0  0  0  0  0  0  0  0  0  0
   43.4730   69.1360   61.7410 C   0  0  0  0  0  0  0  0  0  0  0  0
   42.7860   70.3410   61.8790 C   0  0  0  0  0  0  0  0  0  0  0  0
   42.0100   70.5390   63.0030 C   0  0  0  0  0  0  0  0  0  0  0  0
   41.5340   71.5060   62.9880 H   0  0  0  0  0  0  0  0  0  0  0  0
   41.9240   69.5680   63.9520 C   0  0  0  0  0  0  0  0  0  0  0  0
   41.3040   69.7780   64.8060 H   0  0  0  0  0  0  0  0  0  0  0  0
   42.5840   68.3620   63.8570 C   0  0  0  0  0  3  0  0  0  0  0  0
   43.3630   68.1570   62.7360 C   0  0  0  0  0  3  0  0  0  0  0  0
   45.0910   69.8110   59.8440 H   0  0  0  0  0  0  0  0  0  0  0  0
   44.5070   68.6810   60.4030 S   0  0  0  0  0  0  0  0  0  0  0  0
   43.7590   67.8920   59.3570 O   0  0  0  0  0  0  0  0  0  0  0  0
   45.6330   67.8150   60.8900 O   0  0  0  0  0  0  0  0  0  0  0  0
  1  2  1  0  0  0  0
  2  8  1  0  0  0  0
  3  2  2  0  0  0  0
  3  4  1  0  0  0  0
  4  5  2  0  0  0  0
  5  6  1  0  0  0  0
  5 10  1  0  0  0  0
  6  7  1  0  0  0  0
  8 23  1  0  0  0  0
  8  6  2  0  0  0  0
  9  4  1  0  0  0  0
 11 17  1  0  0  0  0
 12 11  1  0  0  0  0
 12  3  1  0  0  0  0
 13 12  2  0  0  0  0
 14 15  2  0  0  0  0
 14 13  1  0  0  0  0
 15 16  1  0  0  0  0
 16 11  2  0  0  0  0
 18 13  1  0  0  0  0
 19 21  1  0  0  0  0
 19 15  1  0  0  0  0
 20 19  1  0  0  0  0
 22 19  1  0  0  0  0
 23 24  1  0  0  0  0
 24 27  1  0  0  0  0
 24 25  1  0  0  0  0
 26 24  1  0  0  0  0
 27 29  1  0  0  0  0
 28 29  2  0  0  0  0
 28 35  1  0  0  0  0
 29 30  1  0  0  0  0
 30 32  2  0  0  0  0
 31 30  1  0  0  0  0
 32 33  1  0  0  0  0
 34 32  1  0  0  0  0
 35 34  2  0  0  0  0
 36 37  1  0  0  0  0
 37 39  2  0  0  0  0
 37 28  1  0  0  0  0
 38 37  2  0  0  0  0
M  END
>  <minimizedAffinity>
-5.98656988

$$$$

 OpenBabel03212520223D

 39 41  0  0  0  0  0  0  0  0999 V2000
   40.3290   72.2250   57.1850 Cl  0  0  0  0  0  0  0  0  0  0  0  0
   40.1510   73.2650   58.6000 C   0  0  0  0  0  0  0  0  0  0  0  0
   39.4860   74.4830   58.5630 C   0  0  0  0  0  0  0  0  0  0  0  0
   39.4430   75.1640   59.7580 C   0  0  0  0  0  0  0  0  0  0  0  0
   39.9760   74.7760   60.9600 C   0  0  0  0  0  0  0  0  0  0  0  0
   40.6190   73.5700   60.9420 C   0  0  0  0  0  0  0  0  0  0  0  0
   41.3550   72.9410   62.4180 Cl  0  0  0  0  0  0  0  0  0  0  0  0
   40.7080   72.8220   59.7810 C   0  0  0  0  0  0  0  0  0  0  0  0
   38.9140   76.1250   59.7140 H   0  0  0  0  0  0  0  0  0  0  0  0
   39.9070   75.3510   61.8530 H   0  0  0  0  0  0  0  0  0  0  0  0
   39.5670   75.5640   56.2670 C   0  0  0  0  0  0  0  0  0  0  0  0
   38.9220   74.9200   57.3420 C   0  0  0  0  0  0  0  0  0  0  0  0
   37.5540   74.6750   57.2030 C   0  0  0  0  0  0  0  0  0  0  0  0
   36.9730   75.0860   56.0330 N   0  0  0  0  0  0  0  0  0  0  0  0
   37.6100   75.6890   55.0400 C   0  0  0  0  0  0  0  0  0  0  0  0
   38.9320   75.9320   55.1610 N   0  0  0  0  0  0  0  0  0  0  0  0
   40.6300   75.7280   56.4300 H   0  0  0  0  0  0  0  0  0  0  0  0
   36.9400   74.1900   57.9510 H   0  0  0  0  0  0  0  0  0  0  0  0
   36.7830   76.0440   53.8690 C   0  0  0  0  0  0  0  0  0  0  0  0
   36.0950   77.2210   54.0370 F   0  0  0  0  0  0  0  0  0  0  0  0
   37.5920   76.1740   52.7350 F   0  0  0  0  0  0  0  0  0  0  0  0
   35.8040   75.0530   53.6360 F   0  0  0  0  0  0  0  0  0  0  0  0
   41.3740   71.6070   59.8250 O   0  0  0  0  0  0  0  0  0  0  0  0
   42.7630   71.4730   59.7760 C   0  0  0  0  0  0  0  0  0  0  0  0
   43.2400   71.9300   58.9040 H   0  0  0  0  0  0  0  0  0  0  0  0
   43.1510   71.9820   60.7070 H   0  0  0  0  0  0  0  0  0  0  0  0
   43.0320   70.1000   59.9180 O   0  0  0  0  0  0  0  0  0  0  0  0
   42.1600   68.2840   60.9860 C   0  0  0  0  0  0  0  0  0  0  0  0
   42.7620   69.5300   61.1560 C   0  0  0  0  0  0  0  0  0  0  0  0
   42.9890   69.9870   62.4380 C   0  0  0  0  0  0  0  0  0  0  0  0
   43.4580   70.9590   62.4320 H   0  0  0  0  0  0  0  0  0  0  0  0
   42.6270   69.2290   63.5080 C   0  0  0  0  0  0  0  0  0  0  0  0
   42.8290   69.6370   64.4820 H   0  0  0  0  0  0  0  0  0  0  0  0
   42.0300   67.9930   63.3870 C   0  0  0  0  0  3  0  0  0  0  0  0
   41.7990   67.5280   62.1080 C   0  0  0  0  0  3  0  0  0  0  0  0
   42.9100   67.4860   58.6460 H   0  0  0  0  0  0  0  0  0  0  0  0
   41.7820   67.5180   59.4560 S   0  0  0  0  0  0  0  0  0  0  0  0
   40.6360   68.2010   58.7530 O   0  0  0  0  0  0  0  0  0  0  0  0
   41.3760   66.0890   59.6790 O   0  0  0  0  0  0  0  0  0  0  0  0
  1  2  1  0  0  0  0
  2  8  1  0  0  0  0
  3  2  2  0  0  0  0
  3  4  1  0  0  0  0
  4  5  2  0  0  0  0
  5 10  1  0  0  0  0
  6  5  1  0  0  0  0
  6  7  1  0  0  0  0
  8 23  1  0  0  0  0
  8  6  2  0  0  0  0
  9  4  1  0  0  0  0
 11 17  1  0  0  0  0
 11 12  1  0  0  0  0
 12  3  1  0  0  0  0
 13 12  2  0  0  0  0
 13 18  1  0  0  0  0
 14 13  1  0  0  0  0
 15 16  1  0  0  0  0
 15 14  2  0  0  0  0
 16 11  2  0  0  0  0
 19 20  1  0  0  0  0
 19 15  1  0  0  0  0
 21 19  1  0  0  0  0
 22 19  1  0  0  0  0
 24 23  1  0  0  0  0
 24 27  1  0  0  0  0
 24 26  1  0  0  0  0
 25 24  1  0  0  0  0
 27 29  1  0  0  0  0
 28 29  2  0  0  0  0
 28 35  1  0  0  0  0
 29 30  1  0  0  0  0
 30 32  2  0  0  0  0
 31 30  1  0  0  0  0
 32 33  1  0  0  0  0
 34 32  1  0  0  0  0
 35 34  2  0  0  0  0
 36 37  1  0  0  0  0
 37 39  2  0  0  0  0
 37 28  1  0  0  0  0
 38 37  2  0  0  0  0
M  END
>  <minimizedAffinity>
-5.97823858

$$$$
