
 OpenBabel03212520463D

 23 24  0  0  0  0  0  0  0  0999 V2000
   42.4870   83.5210   62.5140 C   0  0  0  0  0  0  0  0  0  0  0  0
   41.1890   83.1490   62.2280 C   0  0  0  0  0  0  0  0  0  0  0  0
   40.1630   83.3820   63.1280 C   0  0  0  0  0  0  0  0  0  0  0  0
   39.1230   83.0920   62.9160 H   0  0  0  0  0  0  0  0  0  0  0  0
   40.3990   83.9930   64.3410 C   0  0  0  0  0  0  0  0  0  0  0  0
   39.5770   84.1710   65.0440 H   0  0  0  0  0  0  0  0  0  0  0  0
   41.6880   84.3880   64.6800 C   0  0  0  0  0  0  0  0  0  0  0  0
   42.6680   84.1260   63.7370 C   0  0  0  0  0  0  0  0  0  0  0  0
   40.4210   80.5790   59.7270 C   0  0  0  0  0  0  0  0  0  0  0  0
   40.1920   81.3350   58.5590 C   0  0  0  0  0  0  0  0  0  0  0  0
   40.3100   82.7240   58.6700 C   0  0  0  0  0  0  0  0  0  0  0  0
   40.6340   83.2470   59.8800 N   0  0  0  0  0  0  0  0  0  0  0  0
   40.8440   82.4960   60.9660 C   0  0  0  0  0  0  0  0  0  0  0  0
   40.7340   81.1700   60.8720 N   0  0  0  0  0  0  0  0  0  0  0  0
   40.2700   79.1970   59.4740 N   0  0  0  0  0  0  0  0  0  0  0  0
   39.9330   80.9360   57.5860 H   0  0  0  0  0  0  0  0  0  0  0  0
   40.1500   83.3760   57.8210 H   0  0  0  0  0  0  0  0  0  0  0  0
   41.1430   78.6670   59.1940 H   0  0  0  0  0  0  0  0  0  0  0  0
   39.3540   78.7340   59.5580 H   0  0  0  0  0  0  0  0  0  0  0  0
   43.4230   83.6720   60.1500 H   0  0  0  0  0  0  0  0  0  0  0  0
   43.7750   83.2350   61.3990 S   0  0  0  0  0  0  0  0  0  0  0  0
   44.2770   81.8410   61.3650 O   0  0  0  0  0  0  0  0  0  0  0  0
   44.9500   84.0880   61.8420 O   0  0  0  0  0  0  0  0  0  0  0  0
  1  8  1  0  0  0  0
  2  1  2  0  0  0  0
  2  3  1  0  0  0  0
  3  5  2  0  0  0  0
  4  3  1  0  0  0  0
  5  7  1  0  0  0  0
  5  6  1  0  0  0  0
  8  7  2  0  0  0  0
  9 14  1  0  0  0  0
 10 11  1  0  0  0  0
 10  9  2  0  0  0  0
 11 12  2  0  0  0  0
 12 13  1  0  0  0  0
 13  2  1  0  0  0  0
 14 13  2  0  0  0  0
 15 19  1  0  0  0  0
 15  9  1  0  0  0  0
 16 10  1  0  0  0  0
 17 11  1  0  0  0  0
 18 15  1  0  0  0  0
 20 21  1  0  0  0  0
 21 23  2  0  0  0  0
 21  1  1  0  0  0  0
 22 21  2  0  0  0  0
M  END
>  <minimizedAffinity>
-4.41805506

>  <minimizedRMSD>
3.59845948

$$$$
