
 OpenBabel03212520593D

 45 49  0  0  1  0  0  0  0  0999 V2000
   39.9610   77.5980   59.1690 C   0  0  0  0  0  0  0  0  0  0  0  0
   40.7650   76.5640   58.8000 C   0  0  0  0  0  0  0  0  0  0  0  0
   40.2530   75.8580   57.6990 C   0  0  0  0  0  0  0  0  0  0  0  0
   39.0980   76.1620   57.0750 N   0  0  0  0  0  0  0  0  0  0  0  0
   38.3690   77.2220   57.5310 C   0  0  0  0  0  0  0  0  0  0  0  0
   38.8020   77.9450   58.5850 N   0  0  0  0  0  0  0  0  0  0  0  0
   41.6960   76.2860   59.2690 H   0  0  0  0  0  0  0  0  0  0  0  0
   40.7940   75.0040   57.2940 H   0  0  0  0  0  0  0  0  0  0  0  0
   41.0230   80.5010   61.8300 C   0  0  0  0  0  0  0  0  0  0  0  0
   41.0130   79.2550   62.4030 C   0  0  0  0  0  0  0  0  0  0  0  0
   40.6780   78.2030   61.6280 C   0  0  0  0  0  0  0  0  0  0  0  0
   40.3600   78.4210   60.2950 C   0  0  0  0  0  0  0  0  0  0  0  0
   40.5410   80.2420   60.0970 S   0  0  0  0  0  0  0  0  0  0  0  0
   41.2630   79.0860   63.4510 H   0  0  0  0  0  0  0  0  0  0  0  0
   40.6100   77.1540   61.8800 H   0  0  0  0  0  0  0  0  0  0  0  0
   42.9960   83.3380   63.0760 C   0  0  0  0  0  0  0  0  0  0  0  0
   42.0650   84.0390   63.8740 C   0  0  0  0  0  0  0  0  0  0  0  0
   40.7700   83.5470   63.9810 C   0  0  0  0  0  0  0  0  0  0  0  0
   40.4470   82.4110   63.3140 N   0  0  0  0  0  0  0  0  0  0  0  0
   41.3680   81.7530   62.5500 C   0  0  0  0  0  0  0  0  0  0  0  0
   42.6130   82.2230   62.4470 N   0  0  0  0  0  0  0  0  0  0  0  0
   44.0090   83.7050   62.9800 H   0  0  0  0  0  0  0  0  0  0  0  0
   42.3520   84.9370   64.3890 H   0  0  0  0  0  0  0  0  0  0  0  0
   40.0250   84.0610   64.5860 H   0  0  0  0  0  0  0  0  0  0  0  0
   37.1320   77.5330   56.8390 C   0  0  0  0  0  0  0  0  0  0  0  0
   36.1030   76.9540   57.2180 O   0  0  0  0  0  0  0  0  0  0  0  0
   37.0770   78.5100   55.6940 C   0  0  1  0  0  0  0  0  0  0  0  0
   37.2230   79.9480   56.1310 C   0  0  0  0  0  0  0  0  0  0  0  0
   38.2550   79.2840   55.3470 C   0  0  2  0  0  0  0  0  0  0  0  0
   36.1560   78.3560   55.0760 H   0  0  0  0  0  0  0  0  0  0  0  0
   37.4290   80.1430   57.2280 H   0  0  0  0  0  0  0  0  0  0  0  0
   36.4300   80.6140   55.7750 H   0  0  0  0  0  0  0  0  0  0  0  0
   39.2040   79.0520   55.9360 H   0  0  0  0  0  0  0  0  0  0  0  0
   39.6220   79.8200   53.1880 C   0  0  0  0  0  0  0  0  0  0  0  0
   38.5120   79.4770   53.9150 C   0  0  0  0  0  0  0  0  0  0  0  0
   37.3280   79.2710   53.1910 C   0  0  0  0  0  0  0  0  0  0  0  0
   36.3370   78.9920   53.5830 H   0  0  0  0  0  0  0  0  0  0  0  0
   37.2930   79.4130   51.8040 C   0  0  0  0  0  0  0  0  0  0  0  0
   36.4080   79.2660   51.2030 H   0  0  0  0  0  0  0  0  0  0  0  0
   38.4230   79.7590   51.1090 C   0  0  0  0  0  3  0  0  0  0  0  0
   39.5880   79.9610   51.8190 C   0  0  0  0  0  3  0  0  0  0  0  0
   41.2920   79.0400   55.0310 H   0  0  0  0  0  0  0  0  0  0  0  0
   41.0540   80.0290   54.1500 S   0  0  0  0  0  0  0  0  0  0  0  0
   40.9990   81.4100   54.7600 O   0  0  0  0  0  0  0  0  0  0  0  0
   42.2680   80.0730   53.2220 O   0  0  0  0  0  0  0  0  0  0  0  0
  1 12  1  0  0  0  0
  2  1  1  0  0  0  0
  2  7  1  0  0  0  0
  3  2  2  0  0  0  0
  4  5  2  0  0  0  0
  4  3  1  0  0  0  0
  5  6  1  0  0  0  0
  6  1  2  0  0  0  0
  8  3  1  0  0  0  0
  9 10  2  0  0  0  0
  9 20  1  0  0  0  0
 10 14  1  0  0  0  0
 11 15  1  0  0  0  0
 11 10  1  0  0  0  0
 12 11  2  0  0  0  0
 13 12  1  0  0  0  0
 13  9  1  0  0  0  0
 16 17  1  0  0  0  0
 17 18  2  0  0  0  0
 17 23  1  0  0  0  0
 18 24  1  0  0  0  0
 19 18  1  0  0  0  0
 20 19  2  0  0  0  0
 21 20  1  0  0  0  0
 21 16  2  0  0  0  0
 22 16  1  0  0  0  0
 25 26  2  0  0  0  0
 25  5  1  0  0  0  0
 27 30  1  6  0  0  0
 27 28  1  0  0  0  0
 27 25  1  0  0  0  0
 28 31  1  0  0  0  0
 29 27  1  0  0  0  0
 29 33  1  1  0  0  0
 29 28  1  0  0  0  0
 32 28  1  0  0  0  0
 34 35  1  0  0  0  0
 34 43  1  0  0  0  0
 35 29  1  0  0  0  0
 36 37  1  0  0  0  0
 36 35  2  0  0  0  0
 38 36  1  0  0  0  0
 39 38  1  0  0  0  0
 40 38  2  0  0  0  0
 40 41  1  0  0  0  0
 41 34  2  0  0  0  0
 43 44  2  0  0  0  0
 43 42  1  0  0  0  0
 45 43  2  0  0  0  0
M  END
>  <minimizedAffinity>
-6.68431711

>  <minimizedRMSD>
0.779122293

$$$$
