
 OpenBabel03212520483D

 31 33  0  0  0  0  0  0  0  0999 V2000
   41.8840   83.7510   61.4930 C   0  0  0  0  0  0  0  0  0  0  0  0
   40.8590   84.1370   62.3140 C   0  0  0  0  0  0  0  0  0  0  0  0
   39.6920   83.3680   62.4290 C   0  0  0  0  0  0  0  0  0  0  0  0
   39.5710   82.2200   61.7130 N   0  0  0  0  0  0  0  0  0  0  0  0
   40.5790   81.8550   60.9140 C   0  0  0  0  0  0  0  0  0  0  0  0
   41.6920   82.6140   60.8230 N   0  0  0  0  0  0  0  0  0  0  0  0
   40.9420   85.0460   62.8890 H   0  0  0  0  0  0  0  0  0  0  0  0
   38.9150   83.7140   63.0880 H   0  0  0  0  0  0  0  0  0  0  0  0
   44.2300   86.5550   61.5350 C   0  0  0  0  0  0  0  0  0  0  0  0
   45.4040   85.9540   61.0850 C   0  0  0  0  0  0  0  0  0  0  0  0
   45.3980   84.5860   60.7670 C   0  0  0  0  0  0  0  0  0  0  0  0
   44.2140   83.9160   60.9200 N   0  0  0  0  0  0  0  0  0  0  0  0
   43.1070   84.5280   61.3540 C   0  0  0  0  0  0  0  0  0  0  0  0
   43.1110   85.8250   61.6580 N   0  0  0  0  0  0  0  0  0  0  0  0
   44.4100   87.9240   61.8080 N   0  0  0  0  0  0  0  0  0  0  0  0
   46.3670   86.4370   60.9450 H   0  0  0  0  0  0  0  0  0  0  0  0
   46.2770   84.0620   60.4120 H   0  0  0  0  0  0  0  0  0  0  0  0
   44.8320   87.9610   62.7660 H   0  0  0  0  0  0  0  0  0  0  0  0
   44.1700   88.7460   61.1810 H   0  0  0  0  0  0  0  0  0  0  0  0
   40.6050   79.3580   60.6930 C   0  0  0  0  0  0  0  0  0  0  0  0
   40.3980   80.6160   60.1690 C   0  0  0  0  0  0  0  0  0  0  0  0
   39.9930   80.6790   58.8540 C   0  0  0  0  0  0  0  0  0  0  0  0
   39.7970   81.6240   58.3320 H   0  0  0  0  0  0  0  0  0  0  0  0
   39.7940   79.5430   58.0660 C   0  0  0  0  0  0  0  0  0  0  0  0
   39.4760   79.6260   57.0360 H   0  0  0  0  0  0  0  0  0  0  0  0
   40.0060   78.2970   58.6030 C   0  0  0  0  0  0  0  0  0  0  0  0
   40.4100   78.2390   59.9200 C   0  0  0  0  0  0  0  0  0  0  0  0
   41.5770   80.3880   62.7780 H   0  0  0  0  0  0  0  0  0  0  0  0
   41.1140   79.1820   62.3350 S   0  0  0  0  0  0  0  0  0  0  0  0
   39.9970   78.7290   63.2580 O   0  0  0  0  0  0  0  0  0  0  0  0
   42.2360   78.1770   62.4350 O   0  0  0  0  0  0  0  0  0  0  0  0
  1  2  1  0  0  0  0
  2  3  2  0  0  0  0
  2  7  1  0  0  0  0
  3  8  1  0  0  0  0
  4  3  1  0  0  0  0
  5  4  2  0  0  0  0
  6  5  1  0  0  0  0
  6  1  2  0  0  0  0
  9 14  1  0  0  0  0
  9 15  1  0  0  0  0
 10  9  2  0  0  0  0
 11 12  2  0  0  0  0
 11 10  1  0  0  0  0
 12 13  1  0  0  0  0
 13  1  1  0  0  0  0
 13 14  2  0  0  0  0
 15 18  1  0  0  0  0
 16 10  1  0  0  0  0
 17 11  1  0  0  0  0
 19 15  1  0  0  0  0
 20 29  1  0  0  0  0
 21 20  1  0  0  0  0
 21  5  1  0  0  0  0
 22 21  2  0  0  0  0
 23 22  1  0  0  0  0
 24 26  2  0  0  0  0
 24 22  1  0  0  0  0
 25 24  1  0  0  0  0
 26 27  1  0  0  0  0
 27 20  2  0  0  0  0
 29 31  2  0  0  0  0
 29 28  1  0  0  0  0
 29 30  2  0  0  0  0
M  END
>  <minimizedAffinity>
-5.77707863

>  <minimizedRMSD>
2.52791691

$$$$
