
 OpenBabel03212520013D

 34 37  0  0  0  0  0  0  0  0999 V2000
   40.4460   81.6510   57.1910 C   0  0  0  0  0  0  0  0  0  0  0  0
   41.4730   82.2370   56.4120 C   0  0  0  0  0  0  0  0  0  0  0  0
   42.3050   83.1480   57.0380 C   0  0  0  0  0  0  0  0  0  0  0  0
   42.1100   83.4380   58.3470 N   0  0  0  0  0  0  0  0  0  0  0  0
   41.1090   82.8560   59.0750 C   0  0  0  0  0  0  0  0  0  0  0  0
   40.2830   81.9650   58.4890 N   0  0  0  0  0  0  0  0  0  0  0  0
   39.7400   80.9280   56.8030 H   0  0  0  0  0  0  0  0  0  0  0  0
   41.4740   81.8930   55.4140 H   0  0  0  0  0  0  0  0  0  0  0  0
   39.6340   83.0760   61.0160 C   0  0  0  0  0  0  0  0  0  0  0  0
   40.9270   83.1930   60.4700 C   0  0  0  0  0  0  0  0  0  0  0  0
   41.9620   83.6220   61.2590 C   0  0  0  0  0  0  0  0  0  0  0  0
   41.7800   83.9490   62.5860 C   0  0  0  0  0  0  0  0  0  0  0  0
   42.5530   84.3900   63.6030 N   0  0  0  0  0  0  0  0  0  0  0  0
   41.8040   84.5430   64.7170 C   0  0  0  0  0  0  0  0  0  0  0  0
   40.5440   84.1820   64.3580 N   0  0  0  0  0  0  0  0  0  0  0  0
   40.5010   83.8150   63.0610 C   0  0  0  0  0  0  0  0  0  0  0  0
   39.4020   83.3900   62.3410 C   0  0  0  0  0  0  0  0  0  0  0  0
   38.8400   82.7360   60.3760 H   0  0  0  0  0  0  0  0  0  0  0  0
   42.9710   83.7250   60.8850 H   0  0  0  0  0  0  0  0  0  0  0  0
   43.5790   84.5820   63.5250 H   0  0  0  0  0  0  0  0  0  0  0  0
   42.1710   84.8830   65.6740 H   0  0  0  0  0  0  0  0  0  0  0  0
   38.4190   83.3040   62.7720 H   0  0  0  0  0  0  0  0  0  0  0  0
   43.5420   83.5430   54.8940 C   0  0  0  0  0  0  0  0  0  0  0  0
   43.3540   83.7570   56.2390 C   0  0  0  0  0  0  0  0  0  0  0  0
   44.2790   84.6230   56.7700 C   0  0  0  0  0  0  0  0  0  0  0  0
   44.2770   84.9030   57.8110 H   0  0  0  0  0  0  0  0  0  0  0  0
   45.2950   85.2270   56.0630 C   0  0  0  0  0  0  0  0  0  0  0  0
   46.0110   85.9030   56.4980 H   0  0  0  0  0  0  0  0  0  0  0  0
   45.4360   84.9770   54.7290 C   0  0  0  0  0  3  0  0  0  0  0  0
   44.5400   84.1180   54.1340 C   0  0  0  0  0  3  0  0  0  0  0  0
   41.4150   82.1250   54.9040 H   0  0  0  0  0  0  0  0  0  0  0  0
   42.4350   82.4530   54.0550 S   0  0  0  0  0  0  0  0  0  0  0  0
   41.7620   83.1750   52.8930 O   0  0  0  0  0  0  0  0  0  0  0  0
   43.1310   81.2410   53.5270 O   0  0  0  0  0  0  0  0  0  0  0  0
  1  6  1  0  0  0  0
  2  3  1  0  0  0  0
  2  1  2  0  0  0  0
  3  4  2  0  0  0  0
  4  5  1  0  0  0  0
  5 10  1  0  0  0  0
  6  5  2  0  0  0  0
  7  1  1  0  0  0  0
  8  2  1  0  0  0  0
  9 17  1  0  0  0  0
 10  9  2  0  0  0  0
 10 11  1  0  0  0  0
 11 12  2  0  0  0  0
 12 16  1  0  0  0  0
 12 13  1  0  0  0  0
 13 14  1  0  0  0  0
 14 21  1  0  0  0  0
 15 14  2  0  0  0  0
 16 15  1  0  0  0  0
 17 22  1  0  0  0  0
 17 16  2  0  0  0  0
 18  9  1  0  0  0  0
 19 11  1  0  0  0  0
 20 13  1  0  0  0  0
 23 24  1  0  0  0  0
 24 25  2  0  0  0  0
 24  3  1  0  0  0  0
 25 26  1  0  0  0  0
 27 28  1  0  0  0  0
 27 25  1  0  0  0  0
 29 27  2  0  0  0  0
 30 29  1  0  0  0  0
 30 23  2  0  0  0  0
 32 23  1  0  0  0  0
 32 31  1  0  0  0  0
 33 32  2  0  0  0  0
 34 32  2  0  0  0  0
M  END
>  <minimizedAffinity>
-4.98753548

>  <minimizedRMSD>
0.630681276

$$$$
