
 OpenBabel03212520203D

 39 41  0  0  0  0  0  0  0  0999 V2000
   43.0650   83.9640   58.5920 Cl  0  0  0  0  0  0  0  0  0  0  0  0
   41.8430   82.7450   58.2200 C   0  0  0  0  0  0  0  0  0  0  0  0
   40.9960   82.2090   59.1800 C   0  0  0  0  0  0  0  0  0  0  0  0
   40.1040   81.2690   58.7140 C   0  0  0  0  0  0  0  0  0  0  0  0
   39.9640   80.8150   57.4290 C   0  0  0  0  0  0  0  0  0  0  0  0
   40.8230   81.3760   56.5230 C   0  0  0  0  0  0  0  0  0  0  0  0
   40.7580   80.8880   54.8280 Cl  0  0  0  0  0  0  0  0  0  0  0  0
   41.7500   82.3280   56.9090 C   0  0  0  0  0  0  0  0  0  0  0  0
   39.4400   80.8540   59.4840 H   0  0  0  0  0  0  0  0  0  0  0  0
   39.2510   80.0830   57.1320 H   0  0  0  0  0  0  0  0  0  0  0  0
   41.9580   82.1580   61.5290 C   0  0  0  0  0  0  0  0  0  0  0  0
   41.1070   82.6500   60.5190 C   0  0  0  0  0  0  0  0  0  0  0  0
   40.2600   83.7060   60.8640 C   0  0  0  0  0  0  0  0  0  0  0  0
   40.3400   84.1590   62.1540 N   0  0  0  0  0  0  0  0  0  0  0  0
   41.1530   83.6730   63.0810 C   0  0  0  0  0  0  0  0  0  0  0  0
   41.9770   82.6530   62.7600 N   0  0  0  0  0  0  0  0  0  0  0  0
   42.5940   81.3380   61.2030 H   0  0  0  0  0  0  0  0  0  0  0  0
   39.5590   84.1750   60.1860 H   0  0  0  0  0  0  0  0  0  0  0  0
   41.0720   84.3170   64.4070 C   0  0  0  0  0  0  0  0  0  0  0  0
   40.7330   85.6470   64.3350 F   0  0  0  0  0  0  0  0  0  0  0  0
   40.1140   83.6690   65.1940 F   0  0  0  0  0  0  0  0  0  0  0  0
   42.3240   84.2720   65.0580 F   0  0  0  0  0  0  0  0  0  0  0  0
   42.5930   82.8590   55.9460 O   0  0  0  0  0  0  0  0  0  0  0  0
   42.3400   84.0450   55.2520 C   0  0  0  0  0  0  0  0  0  0  0  0
   41.9130   83.9120   54.2540 H   0  0  0  0  0  0  0  0  0  0  0  0
   41.6020   84.6180   55.8870 H   0  0  0  0  0  0  0  0  0  0  0  0
   43.5430   84.7730   55.2640 O   0  0  0  0  0  0  0  0  0  0  0  0
   45.6650   84.1660   54.6880 C   0  0  0  0  0  0  0  0  0  0  0  0
   44.4180   84.5620   54.2050 C   0  0  0  0  0  0  0  0  0  0  0  0
   44.2420   84.6790   52.8420 C   0  0  0  0  0  0  0  0  0  0  0  0
   43.2380   84.9910   52.6000 H   0  0  0  0  0  0  0  0  0  0  0  0
   45.2710   84.4120   51.9940 C   0  0  0  0  0  0  0  0  0  0  0  0
   45.0740   84.5200   50.9420 H   0  0  0  0  0  0  0  0  0  0  0  0
   46.5190   84.0180   52.4260 C   0  0  0  0  0  3  0  0  0  0  0  0
   46.7040   83.8990   53.7880 C   0  0  0  0  0  3  0  0  0  0  0  0
   45.1540   83.1760   57.0200 H   0  0  0  0  0  0  0  0  0  0  0  0
   46.1030   83.9560   56.3700 S   0  0  0  0  0  0  0  0  0  0  0  0
   46.2810   85.2780   57.0740 O   0  0  0  0  0  0  0  0  0  0  0  0
   47.4070   83.2180   56.4780 O   0  0  0  0  0  0  0  0  0  0  0  0
  2  1  1  0  0  0  0
  2  3  1  0  0  0  0
  3 12  1  0  0  0  0
  4  3  2  0  0  0  0
  4  9  1  0  0  0  0
  5  4  1  0  0  0  0
  6  8  1  0  0  0  0
  6  5  2  0  0  0  0
  7  6  1  0  0  0  0
  8  2  2  0  0  0  0
 10  5  1  0  0  0  0
 11 16  1  0  0  0  0
 12 13  1  0  0  0  0
 12 11  2  0  0  0  0
 13 14  2  0  0  0  0
 14 15  1  0  0  0  0
 15 19  1  0  0  0  0
 16 15  2  0  0  0  0
 17 11  1  0  0  0  0
 18 13  1  0  0  0  0
 19 22  1  0  0  0  0
 19 21  1  0  0  0  0
 20 19  1  0  0  0  0
 23  8  1  0  0  0  0
 24 27  1  0  0  0  0
 24 26  1  0  0  0  0
 24 23  1  0  0  0  0
 25 24  1  0  0  0  0
 28 37  1  0  0  0  0
 29 28  1  0  0  0  0
 29 27  1  0  0  0  0
 30 29  2  0  0  0  0
 31 30  1  0  0  0  0
 32 34  2  0  0  0  0
 32 30  1  0  0  0  0
 33 32  1  0  0  0  0
 34 35  1  0  0  0  0
 35 28  2  0  0  0  0
 37 39  2  0  0  0  0
 37 36  1  0  0  0  0
 37 38  2  0  0  0  0
M  END
>  <minimizedAffinity>
-4.71499395

>  <minimizedRMSD>
1.10685551

$$$$
