
 OpenBabel03212520013D

 34 37  0  0  0  0  0  0  0  0999 V2000
   40.1120   81.2110   57.2820 C   0  0  0  0  0  0  0  0  0  0  0  0
   41.1010   81.7170   56.4040 C   0  0  0  0  0  0  0  0  0  0  0  0
   41.9840   82.6540   56.9100 C   0  0  0  0  0  0  0  0  0  0  0  0
   41.8720   83.0430   58.2030 N   0  0  0  0  0  0  0  0  0  0  0  0
   40.9060   82.5370   59.0290 C   0  0  0  0  0  0  0  0  0  0  0  0
   40.0320   81.6230   58.5600 N   0  0  0  0  0  0  0  0  0  0  0  0
   39.3730   80.4770   56.9910 H   0  0  0  0  0  0  0  0  0  0  0  0
   41.0370   81.3000   55.4360 H   0  0  0  0  0  0  0  0  0  0  0  0
   39.5370   83.0320   60.9970 C   0  0  0  0  0  0  0  0  0  0  0  0
   40.8130   82.9790   60.4040 C   0  0  0  0  0  0  0  0  0  0  0  0
   41.9160   83.3480   61.1290 C   0  0  0  0  0  0  0  0  0  0  0  0
   41.8190   83.7760   62.4360 C   0  0  0  0  0  0  0  0  0  0  0  0
   42.6710   84.1980   63.3970 N   0  0  0  0  0  0  0  0  0  0  0  0
   41.9850   84.4980   64.5200 C   0  0  0  0  0  0  0  0  0  0  0  0
   40.6820   84.2480   64.2260 N   0  0  0  0  0  0  0  0  0  0  0  0
   40.5520   83.8050   62.9600 C   0  0  0  0  0  0  0  0  0  0  0  0
   39.3880   83.4520   62.3050 C   0  0  0  0  0  0  0  0  0  0  0  0
   38.6880   82.7370   60.4070 H   0  0  0  0  0  0  0  0  0  0  0  0
   42.9140   83.3210   60.7170 H   0  0  0  0  0  0  0  0  0  0  0  0
   43.7080   84.2760   63.2740 H   0  0  0  0  0  0  0  0  0  0  0  0
   42.4210   84.8580   65.4400 H   0  0  0  0  0  0  0  0  0  0  0  0
   38.4190   83.4970   62.7710 H   0  0  0  0  0  0  0  0  0  0  0  0
   44.3470   82.9790   56.1410 C   0  0  0  0  0  0  0  0  0  0  0  0
   42.9930   83.1800   56.0090 C   0  0  0  0  0  0  0  0  0  0  0  0
   42.6780   83.9510   54.9170 C   0  0  0  0  0  0  0  0  0  0  0  0
   41.6620   84.2070   54.6630 H   0  0  0  0  0  0  0  0  0  0  0  0
   43.5910   84.4800   54.0310 C   0  0  0  0  0  0  0  0  0  0  0  0
   43.3250   85.0830   53.1810 H   0  0  0  0  0  0  0  0  0  0  0  0
   44.9240   84.2490   54.2110 C   0  0  0  0  0  3  0  0  0  0  0  0
   45.3080   83.4820   55.2880 C   0  0  0  0  0  3  0  0  0  0  0  0
   43.9610   81.0880   57.8180 H   0  0  0  0  0  0  0  0  0  0  0  0
   44.9240   82.0050   57.4970 S   0  0  0  0  0  0  0  0  0  0  0  0
   46.1330   81.1800   57.0790 O   0  0  0  0  0  0  0  0  0  0  0  0
   45.3010   82.8480   58.6720 O   0  0  0  0  0  0  0  0  0  0  0  0
  1  6  1  0  0  0  0
  2  3  1  0  0  0  0
  2  1  2  0  0  0  0
  3  4  2  0  0  0  0
  4  5  1  0  0  0  0
  5 10  1  0  0  0  0
  6  5  2  0  0  0  0
  7  1  1  0  0  0  0
  8  2  1  0  0  0  0
  9 17  1  0  0  0  0
 10  9  2  0  0  0  0
 10 11  1  0  0  0  0
 11 12  2  0  0  0  0
 12 16  1  0  0  0  0
 12 13  1  0  0  0  0
 13 14  1  0  0  0  0
 14 21  1  0  0  0  0
 15 14  2  0  0  0  0
 16 15  1  0  0  0  0
 17 22  1  0  0  0  0
 17 16  2  0  0  0  0
 18  9  1  0  0  0  0
 19 11  1  0  0  0  0
 20 13  1  0  0  0  0
 23 32  1  0  0  0  0
 24 23  1  0  0  0  0
 24  3  1  0  0  0  0
 25 24  2  0  0  0  0
 26 25  1  0  0  0  0
 27 29  2  0  0  0  0
 27 25  1  0  0  0  0
 28 27  1  0  0  0  0
 29 30  1  0  0  0  0
 30 23  2  0  0  0  0
 32 31  1  0  0  0  0
 32 34  2  0  0  0  0
 33 32  2  0  0  0  0
M  END
>  <minimizedAffinity>
-4.63427877

>  <minimizedRMSD>
1.61337507

$$$$
