
 OpenBabel03212520183D

 38 40  0  0  0  0  0  0  0  0999 V2000
   43.0780   83.8580   58.6570 Cl  0  0  0  0  0  0  0  0  0  0  0  0
   41.8370   82.6860   58.2860 C   0  0  0  0  0  0  0  0  0  0  0  0
   40.9580   82.1920   59.2210 C   0  0  0  0  0  0  0  0  0  0  0  0
   40.0430   81.2710   58.7570 C   0  0  0  0  0  0  0  0  0  0  0  0
   39.9150   80.8010   57.4790 C   0  0  0  0  0  0  0  0  0  0  0  0
   40.8080   81.3190   56.5800 C   0  0  0  0  0  0  0  0  0  0  0  0
   40.7530   80.7940   54.8920 Cl  0  0  0  0  0  0  0  0  0  0  0  0
   41.7700   82.2630   56.9870 C   0  0  0  0  0  0  0  0  0  0  0  0
   39.3460   80.8850   59.5170 H   0  0  0  0  0  0  0  0  0  0  0  0
   39.1850   80.0880   57.1700 H   0  0  0  0  0  0  0  0  0  0  0  0
   41.9140   82.1440   61.5790 C   0  0  0  0  0  0  0  0  0  0  0  0
   41.0590   82.6540   60.5680 C   0  0  0  0  0  0  0  0  0  0  0  0
   40.2410   83.7010   60.9130 C   0  0  0  0  0  0  0  0  0  0  0  0
   40.3050   84.1720   62.1880 N   0  0  0  0  0  0  0  0  0  0  0  0
   41.1140   83.6790   63.1200 C   0  0  0  0  0  0  0  0  0  0  0  0
   41.9390   82.6420   62.8130 N   0  0  0  0  0  0  0  0  0  0  0  0
   42.5420   81.3110   61.2520 H   0  0  0  0  0  0  0  0  0  0  0  0
   39.5280   84.2040   60.2490 H   0  0  0  0  0  0  0  0  0  0  0  0
   41.0490   84.3170   64.4570 C   0  0  0  0  0  0  0  0  0  0  0  0
   40.7220   85.6520   64.3690 F   0  0  0  0  0  0  0  0  0  0  0  0
   40.1010   83.6840   65.2410 F   0  0  0  0  0  0  0  0  0  0  0  0
   42.2830   84.2930   65.1020 F   0  0  0  0  0  0  0  0  0  0  0  0
   42.6250   82.7250   56.0020 O   0  0  0  0  0  0  0  0  0  0  0  0
   42.4530   83.9360   55.3030 C   0  0  0  0  0  0  0  0  0  0  0  0
   41.3660   84.0960   55.1780 H   0  0  0  0  0  0  0  0  0  0  0  0
   42.8010   84.7990   55.9080 H   0  0  0  0  0  0  0  0  0  0  0  0
   44.3490   84.1890   53.5660 C   0  0  0  0  0  0  0  0  0  0  0  0
   43.0800   83.8580   53.9820 C   0  0  0  0  0  0  0  0  0  0  0  0
   42.3080   83.3410   52.9270 C   0  0  0  0  0  0  0  0  0  0  0  0
   41.2760   83.0450   53.1490 H   0  0  0  0  0  0  0  0  0  0  0  0
   42.7090   83.1610   51.6210 C   0  0  0  0  0  0  0  0  0  0  0  0
   42.0140   82.7520   50.9020 H   0  0  0  0  0  0  0  0  0  0  0  0
   43.9950   83.5170   51.2880 C   0  0  0  0  0  3  0  0  0  0  0  0
   44.7900   84.0250   52.2720 C   0  0  0  0  0  3  0  0  0  0  0  0
   45.1000   84.3640   56.0350 H   0  0  0  0  0  0  0  0  0  0  0  0
   45.3820   84.8680   54.8070 S   0  0  0  0  0  0  0  0  0  0  0  0
   46.8120   84.4230   54.5130 O   0  0  0  0  0  0  0  0  0  0  0  0
   45.4250   86.3610   54.7360 O   0  0  0  0  0  0  0  0  0  0  0  0
  2  1  1  0  0  0  0
  2  3  1  0  0  0  0
  3 12  1  0  0  0  0
  4  3  2  0  0  0  0
  4  9  1  0  0  0  0
  5  4  1  0  0  0  0
  6  8  1  0  0  0  0
  6  5  2  0  0  0  0
  7  6  1  0  0  0  0
  8  2  2  0  0  0  0
 10  5  1  0  0  0  0
 11 16  1  0  0  0  0
 12 13  1  0  0  0  0
 12 11  2  0  0  0  0
 13 14  2  0  0  0  0
 14 15  1  0  0  0  0
 15 19  1  0  0  0  0
 16 15  2  0  0  0  0
 17 11  1  0  0  0  0
 18 13  1  0  0  0  0
 19 22  1  0  0  0  0
 19 21  1  0  0  0  0
 20 19  1  0  0  0  0
 23  8  1  0  0  0  0
 24 26  1  0  0  0  0
 24 23  1  0  0  0  0
 25 24  1  0  0  0  0
 27 28  1  0  0  0  0
 27 36  1  0  0  0  0
 28 24  1  0  0  0  0
 29 30  1  0  0  0  0
 29 28  2  0  0  0  0
 31 29  1  0  0  0  0
 32 31  1  0  0  0  0
 33 31  2  0  0  0  0
 33 34  1  0  0  0  0
 34 27  2  0  0  0  0
 36 35  1  0  0  0  0
 37 36  2  0  0  0  0
 38 36  2  0  0  0  0
M  END
>  <minimizedAffinity>
-5.05382204

>  <minimizedRMSD>
0.932512701

$$$$
