
 OpenBabel03212520403D

 30 32  0  0  1  0  0  0  0  0999 V2000
   42.5350   85.5100   59.9820 C   0  0  1  0  0  0  0  0  0  0  0  0
   43.8110   86.0110   59.3100 C   0  0  0  0  0  0  0  0  0  0  0  0
   42.7290   85.2560   58.5460 C   0  0  1  0  0  0  0  0  0  0  0  0
   41.9080   86.3390   60.3630 H   0  0  0  0  0  0  0  0  0  0  0  0
   43.9090   87.0920   59.0960 H   0  0  0  0  0  0  0  0  0  0  0  0
   44.7480   85.4680   59.4250 H   0  0  0  0  0  0  0  0  0  0  0  0
   42.1390   85.8700   57.8480 H   0  0  0  0  0  0  0  0  0  0  0  0
   42.8180   84.4720   60.9120 O   0  0  0  0  0  0  0  0  0  0  0  0
   40.0340   83.5880   63.0470 C   0  0  0  0  0  0  0  0  0  0  0  0
   40.5530   83.8510   64.3140 C   0  0  0  0  0  0  0  0  0  0  0  0
   41.8790   84.3380   64.4020 C   0  0  0  0  0  0  0  0  0  0  0  0
   42.5330   84.5060   63.2220 N   0  0  0  0  0  0  0  0  0  0  0  0
   42.0200   84.2470   62.0100 C   0  0  0  0  0  0  0  0  0  0  0  0
   40.7780   83.7890   61.9020 N   0  0  0  0  0  0  0  0  0  0  0  0
   39.0110   83.2090   62.9330 H   0  0  0  0  0  0  0  0  0  0  0  0
   39.9730   83.6930   65.2050 H   0  0  0  0  0  0  0  0  0  0  0  0
   42.3360   84.5610   65.3550 H   0  0  0  0  0  0  0  0  0  0  0  0
   42.9800   83.9350   58.1730 O   0  0  0  0  0  0  0  0  0  0  0  0
   41.5970   82.4160   57.0550 C   0  0  0  0  0  0  0  0  0  0  0  0
   42.6550   83.3030   57.0120 C   0  0  0  0  0  0  0  0  0  0  0  0
   43.3510   83.5420   55.8650 C   0  0  0  0  0  0  0  0  0  0  0  0
   44.1760   84.2180   55.7820 H   0  0  0  0  0  0  0  0  0  0  0  0
   42.9400   82.8470   54.7340 C   0  0  0  0  0  0  0  0  0  0  0  0
   43.4910   83.0300   53.8080 H   0  0  0  0  0  0  0  0  0  0  0  0
   41.8990   81.9440   54.6780 C   0  0  0  0  0  3  0  0  0  0  0  0
   41.2470   81.7600   55.8860 C   0  0  0  0  0  3  0  0  0  0  0  0
   41.6160   81.8980   59.5710 H   0  0  0  0  0  0  0  0  0  0  0  0
   40.7290   82.1380   58.5460 S   0  0  0  0  0  0  0  0  0  0  0  0
   39.8920   80.8930   58.4290 O   0  0  0  0  0  0  0  0  0  0  0  0
   39.8250   83.2790   58.9070 O   0  0  0  0  0  0  0  0  0  0  0  0
  1  4  1  1  0  0  0
  1  8  1  0  0  0  0
  2  6  1  0  0  0  0
  2  1  1  0  0  0  0
  3  7  1  6  0  0  0
  3  2  1  0  0  0  0
  3  1  1  0  0  0  0
  5  2  1  0  0  0  0
  8 13  1  0  0  0  0
  9 10  1  0  0  0  0
 10 11  2  0  0  0  0
 10 16  1  0  0  0  0
 11 17  1  0  0  0  0
 12 11  1  0  0  0  0
 13 12  2  0  0  0  0
 14 13  1  0  0  0  0
 14  9  2  0  0  0  0
 15  9  1  0  0  0  0
 18  3  1  0  0  0  0
 19 28  1  0  0  0  0
 20 19  1  0  0  0  0
 20 18  1  0  0  0  0
 21 20  2  0  0  0  0
 22 21  1  0  0  0  0
 23 21  1  0  0  0  0
 24 23  1  0  0  0  0
 25 23  2  0  0  0  0
 25 26  1  0  0  0  0
 26 19  2  0  0  0  0
 28 30  2  0  0  0  0
 28 27  1  0  0  0  0
 29 28  2  0  0  0  0
M  END
>  <minimizedAffinity>
-4.18951225

>  <minimizedRMSD>
2.07260871

$$$$
