
 OpenBabel03212520593D

 45 49  0  0  1  0  0  0  0  0999 V2000
   39.7340   77.2530   59.2200 C   0  0  0  0  0  0  0  0  0  0  0  0
   40.4240   76.1160   58.9330 C   0  0  0  0  0  0  0  0  0  0  0  0
   39.8470   75.3950   57.8750 C   0  0  0  0  0  0  0  0  0  0  0  0
   38.7360   75.7770   57.2150 N   0  0  0  0  0  0  0  0  0  0  0  0
   38.1230   76.9390   57.5870 C   0  0  0  0  0  0  0  0  0  0  0  0
   38.6240   77.6820   58.5960 N   0  0  0  0  0  0  0  0  0  0  0  0
   41.3160   75.7720   59.4340 H   0  0  0  0  0  0  0  0  0  0  0  0
   40.2950   74.4620   57.5370 H   0  0  0  0  0  0  0  0  0  0  0  0
   40.9890   80.2210   61.7210 C   0  0  0  0  0  0  0  0  0  0  0  0
   41.0070   78.9920   62.3290 C   0  0  0  0  0  0  0  0  0  0  0  0
   40.6140   77.9210   61.6080 C   0  0  0  0  0  0  0  0  0  0  0  0
   40.2120   78.1040   60.2920 C   0  0  0  0  0  0  0  0  0  0  0  0
   40.3930   79.9170   60.0310 S   0  0  0  0  0  0  0  0  0  0  0  0
   41.3230   78.8500   63.3630 H   0  0  0  0  0  0  0  0  0  0  0  0
   40.5550   76.8810   61.8940 H   0  0  0  0  0  0  0  0  0  0  0  0
   43.0780   83.0410   62.8050 C   0  0  0  0  0  0  0  0  0  0  0  0
   42.1880   83.8040   63.5930 C   0  0  0  0  0  0  0  0  0  0  0  0
   40.8810   83.3590   63.7480 C   0  0  0  0  0  0  0  0  0  0  0  0
   40.5070   82.2070   63.1350 N   0  0  0  0  0  0  0  0  0  0  0  0
   41.3900   81.4900   62.3810 C   0  0  0  0  0  0  0  0  0  0  0  0
   42.6460   81.9140   62.2310 N   0  0  0  0  0  0  0  0  0  0  0  0
   44.1000   83.3700   62.6720 H   0  0  0  0  0  0  0  0  0  0  0  0
   42.5140   84.7120   64.0640 H   0  0  0  0  0  0  0  0  0  0  0  0
   40.1670   83.9210   64.3470 H   0  0  0  0  0  0  0  0  0  0  0  0
   36.9330   77.3330   56.8570 C   0  0  0  0  0  0  0  0  0  0  0  0
   35.8360   76.9770   57.3150 O   0  0  0  0  0  0  0  0  0  0  0  0
   37.0010   78.1340   55.5840 C   0  0  1  0  0  0  0  0  0  0  0  0
   37.3360   79.5880   55.8130 C   0  0  0  0  0  0  0  0  0  0  0  0
   38.2680   78.6910   55.1460 C   0  0  2  0  0  0  0  0  0  0  0  0
   36.0640   78.0150   54.9810 H   0  0  0  0  0  0  0  0  0  0  0  0
   37.5710   79.9100   56.8740 H   0  0  0  0  0  0  0  0  0  0  0  0
   36.6360   80.2940   55.3540 H   0  0  0  0  0  0  0  0  0  0  0  0
   39.1810   78.4230   55.7750 H   0  0  0  0  0  0  0  0  0  0  0  0
   39.3060   77.8240   52.9120 C   0  0  0  0  0  0  0  0  0  0  0  0
   38.5420   78.6410   53.7050 C   0  0  0  0  0  0  0  0  0  0  0  0
   37.8650   79.6860   53.0600 C   0  0  0  0  0  0  0  0  0  0  0  0
   37.2060   80.4460   53.5130 H   0  0  0  0  0  0  0  0  0  0  0  0
   37.9730   79.8790   51.6820 C   0  0  0  0  0  0  0  0  0  0  0  0
   37.4730   80.6680   51.1410 H   0  0  0  0  0  0  0  0  0  0  0  0
   38.7480   79.0430   50.9200 C   0  0  0  0  0  3  0  0  0  0  0  0
   39.4130   78.0130   51.5530 C   0  0  0  0  0  3  0  0  0  0  0  0
   39.5230   76.2250   54.9600 H   0  0  0  0  0  0  0  0  0  0  0  0
   40.0880   76.5370   53.7790 S   0  0  0  0  0  0  0  0  0  0  0  0
   41.5600   76.8650   53.8560 O   0  0  0  0  0  0  0  0  0  0  0  0
   40.0270   75.2670   52.9300 O   0  0  0  0  0  0  0  0  0  0  0  0
  1 12  1  0  0  0  0
  2  1  1  0  0  0  0
  2  7  1  0  0  0  0
  3  2  2  0  0  0  0
  4  5  2  0  0  0  0
  4  3  1  0  0  0  0
  5  6  1  0  0  0  0
  6  1  2  0  0  0  0
  8  3  1  0  0  0  0
  9 10  2  0  0  0  0
  9 20  1  0  0  0  0
 10 14  1  0  0  0  0
 11 15  1  0  0  0  0
 11 10  1  0  0  0  0
 12 11  2  0  0  0  0
 13 12  1  0  0  0  0
 13  9  1  0  0  0  0
 16 17  1  0  0  0  0
 17 18  2  0  0  0  0
 17 23  1  0  0  0  0
 18 24  1  0  0  0  0
 19 18  1  0  0  0  0
 20 19  2  0  0  0  0
 21 20  1  0  0  0  0
 21 16  2  0  0  0  0
 22 16  1  0  0  0  0
 25 26  2  0  0  0  0
 25  5  1  0  0  0  0
 27 30  1  6  0  0  0
 27 28  1  0  0  0  0
 27 25  1  0  0  0  0
 28 31  1  0  0  0  0
 29 27  1  0  0  0  0
 29 33  1  1  0  0  0
 29 28  1  0  0  0  0
 32 28  1  0  0  0  0
 34 35  1  0  0  0  0
 34 43  1  0  0  0  0
 35 29  1  0  0  0  0
 36 37  1  0  0  0  0
 36 35  2  0  0  0  0
 38 36  1  0  0  0  0
 39 38  1  0  0  0  0
 40 41  1  0  0  0  0
 40 38  2  0  0  0  0
 41 34  2  0  0  0  0
 43 44  2  0  0  0  0
 43 42  1  0  0  0  0
 45 43  2  0  0  0  0
M  END
>  <minimizedAffinity>
-6.44286537

>  <minimizedRMSD>
0.738545775

$$$$
