
 OpenBabel03212520523D

 38 41  0  0  1  0  0  0  0  0999 V2000
   38.4510   75.6820   57.6860 C   0  0  0  0  0  0  0  0  0  0  0  0
   38.9390   76.5330   58.6490 C   0  0  0  0  0  0  0  0  0  0  0  0
   39.6260   76.0470   59.7620 C   0  0  0  0  0  0  0  0  0  0  0  0
   39.8190   74.7250   59.9050 N   0  0  0  0  0  0  0  0  0  0  0  0
   39.3320   73.9030   58.9450 C   0  0  0  0  0  0  0  0  0  0  0  0
   38.6660   74.3560   57.8620 N   0  0  0  0  0  0  0  0  0  0  0  0
   38.7820   77.6040   58.5330 H   0  0  0  0  0  0  0  0  0  0  0  0
   39.9930   76.7510   60.4960 H   0  0  0  0  0  0  0  0  0  0  0  0
   36.6220   75.8020   54.5170 C   0  0  0  0  0  0  0  0  0  0  0  0
   36.3670   77.1640   54.3900 C   0  0  0  0  0  0  0  0  0  0  0  0
   36.8060   78.0450   55.3610 C   0  0  0  0  0  0  0  0  0  0  0  0
   37.4830   77.4900   56.4140 N   0  0  0  0  0  0  0  0  0  0  0  0
   37.7180   76.1700   56.5200 C   0  0  0  0  0  0  0  0  0  0  0  0
   37.2980   75.3220   55.5890 N   0  0  0  0  0  0  0  0  0  0  0  0
   36.1080   75.0320   53.4480 N   0  0  0  0  0  0  0  0  0  0  0  0
   35.8340   77.6190   53.5660 H   0  0  0  0  0  0  0  0  0  0  0  0
   36.6290   79.1000   55.2970 H   0  0  0  0  0  0  0  0  0  0  0  0
   36.8310   75.0660   52.6990 H   0  0  0  0  0  0  0  0  0  0  0  0
   35.1680   74.6400   53.6770 H   0  0  0  0  0  0  0  0  0  0  0  0
   39.5510   72.4350   59.1640 C   0  0  1  0  0  0  0  0  0  0  0  0
   39.8150   71.5580   58.0460 C   0  0  0  0  0  0  0  0  0  0  0  0
   40.9690   72.0080   58.8890 C   0  0  2  0  0  0  0  0  0  0  0  0
   39.0440   72.0450   60.0580 H   0  0  0  0  0  0  0  0  0  0  0  0
   39.4500   70.5290   58.0380 H   0  0  0  0  0  0  0  0  0  0  0  0
   39.7150   72.0330   57.0270 H   0  0  0  0  0  0  0  0  0  0  0  0
   41.6490   72.7390   58.4200 H   0  0  0  0  0  0  0  0  0  0  0  0
   42.4290   71.1150   60.6650 C   0  0  0  0  0  0  0  0  0  0  0  0
   41.6480   70.8970   59.5480 C   0  0  0  0  0  0  0  0  0  0  0  0
   41.5900   69.5620   59.1510 C   0  0  0  0  0  0  0  0  0  0  0  0
   40.9900   69.3310   58.2780 H   0  0  0  0  0  0  0  0  0  0  0  0
   42.2330   68.5290   59.7810 C   0  0  0  0  0  0  0  0  0  0  0  0
   42.1630   67.5150   59.4450 H   0  0  0  0  0  0  0  0  0  0  0  0
   43.0000   68.8060   60.8940 C   0  0  0  0  0  3  0  0  0  0  0  0
   43.0990   70.1050   61.3380 C   0  0  0  0  0  3  0  0  0  0  0  0
   41.7480   73.6290   60.6640 H   0  0  0  0  0  0  0  0  0  0  0  0
   42.5840   72.7360   61.2640 S   0  0  0  0  0  0  0  0  0  0  0  0
   42.4830   72.7790   62.7790 O   0  0  0  0  0  0  0  0  0  0  0  0
   43.9770   73.2350   60.9520 O   0  0  0  0  0  0  0  0  0  0  0  0
  1  6  2  0  0  0  0
  1  2  1  0  0  0  0
  2  3  2  0  0  0  0
  3  4  1  0  0  0  0
  3  8  1  0  0  0  0
  5 20  1  0  0  0  0
  5  4  2  0  0  0  0
  6  5  1  0  0  0  0
  7  2  1  0  0  0  0
  9 14  1  0  0  0  0
 10  9  2  0  0  0  0
 10 11  1  0  0  0  0
 11 12  2  0  0  0  0
 12 13  1  0  0  0  0
 13  1  1  0  0  0  0
 14 13  2  0  0  0  0
 15 19  1  0  0  0  0
 15  9  1  0  0  0  0
 16 10  1  0  0  0  0
 17 11  1  0  0  0  0
 18 15  1  0  0  0  0
 20 23  1  1  0  0  0
 21 22  1  0  0  0  0
 21 20  1  0  0  0  0
 22 26  1  6  0  0  0
 22 20  1  0  0  0  0
 22 28  1  0  0  0  0
 24 21  1  0  0  0  0
 25 21  1  0  0  0  0
 27 36  1  0  0  0  0
 27 34  1  0  0  0  0
 28 27  2  0  0  0  0
 29 28  1  0  0  0  0
 29 31  2  0  0  0  0
 30 29  1  0  0  0  0
 31 33  1  0  0  0  0
 32 31  1  0  0  0  0
 33 34  2  0  0  0  0
 35 36  1  0  0  0  0
 36 37  2  0  0  0  0
 38 36  2  0  0  0  0
M  END
>  <minimizedAffinity>
-6.81025314

$$$$

 OpenBabel03212520523D

 38 41  0  0  1  0  0  0  0  0999 V2000
   38.9670   77.0290   58.1970 C   0  0  0  0  0  0  0  0  0  0  0  0
   39.6410   78.1630   58.5840 C   0  0  0  0  0  0  0  0  0  0  0  0
   40.3770   78.1970   59.7690 C   0  0  0  0  0  0  0  0  0  0  0  0
   40.4340   77.1080   60.5540 N   0  0  0  0  0  0  0  0  0  0  0  0
   39.7640   76.0000   60.1550 C   0  0  0  0  0  0  0  0  0  0  0  0
   39.0480   75.9490   59.0120 N   0  0  0  0  0  0  0  0  0  0  0  0
   39.5940   79.0450   57.9480 H   0  0  0  0  0  0  0  0  0  0  0  0
   40.8920   79.1090   60.0360 H   0  0  0  0  0  0  0  0  0  0  0  0
   36.8400   75.8360   55.4670 C   0  0  0  0  0  0  0  0  0  0  0  0
   36.7440   76.9710   54.6680 C   0  0  0  0  0  0  0  0  0  0  0  0
   37.3890   78.1360   55.0390 C   0  0  0  0  0  0  0  0  0  0  0  0
   38.1000   78.0840   56.2070 N   0  0  0  0  0  0  0  0  0  0  0  0
   38.1800   76.9770   56.9670 C   0  0  0  0  0  0  0  0  0  0  0  0
   37.5620   75.8570   56.6140 N   0  0  0  0  0  0  0  0  0  0  0  0
   36.1240   74.7280   54.9570 N   0  0  0  0  0  0  0  0  0  0  0  0
   36.1870   77.0300   53.7420 H   0  0  0  0  0  0  0  0  0  0  0  0
   37.3380   79.0290   54.4480 H   0  0  0  0  0  0  0  0  0  0  0  0
   36.7620   74.2650   54.2770 H   0  0  0  0  0  0  0  0  0  0  0  0
   35.1720   74.6610   55.3810 H   0  0  0  0  0  0  0  0  0  0  0  0
   39.8380   74.8200   61.0780 C   0  0  1  0  0  0  0  0  0  0  0  0
   39.0070   73.6600   60.8540 C   0  0  0  0  0  0  0  0  0  0  0  0
   40.4410   73.6040   60.4260 C   0  0  2  0  0  0  0  0  0  0  0  0
   40.1470   75.0820   62.1000 H   0  0  0  0  0  0  0  0  0  0  0  0
   38.6120   73.0780   61.6890 H   0  0  0  0  0  0  0  0  0  0  0  0
   38.2360   73.7700   60.0350 H   0  0  0  0  0  0  0  0  0  0  0  0
   40.6190   73.6340   59.3370 H   0  0  0  0  0  0  0  0  0  0  0  0
   42.3600   72.0620   60.5860 C   0  0  0  0  0  0  0  0  0  0  0  0
   41.1950   72.5700   61.1260 C   0  0  0  0  0  0  0  0  0  0  0  0
   40.8480   72.0060   62.3530 C   0  0  0  0  0  0  0  0  0  0  0  0
   39.9420   72.3660   62.8250 H   0  0  0  0  0  0  0  0  0  0  0  0
   41.5670   71.0340   63.0000 C   0  0  0  0  0  0  0  0  0  0  0  0
   41.2670   70.6260   63.9430 H   0  0  0  0  0  0  0  0  0  0  0  0
   42.7240   70.5650   62.4130 C   0  0  0  0  0  3  0  0  0  0  0  0
   43.1220   71.0800   61.2000 C   0  0  0  0  0  3  0  0  0  0  0  0
   42.5640   73.9820   58.8390 H   0  0  0  0  0  0  0  0  0  0  0  0
   42.9030   72.6810   59.0600 S   0  0  0  0  0  0  0  0  0  0  0  0
   44.3870   72.4290   58.8560 O   0  0  0  0  0  0  0  0  0  0  0  0
   42.2210   71.9070   57.9540 O   0  0  0  0  0  0  0  0  0  0  0  0
  1  2  2  0  0  0  0
  1  6  1  0  0  0  0
  2  3  1  0  0  0  0
  3  8  1  0  0  0  0
  3  4  2  0  0  0  0
  5  4  1  0  0  0  0
  5 20  1  0  0  0  0
  6  5  2  0  0  0  0
  7  2  1  0  0  0  0
  9 14  1  0  0  0  0
 10 11  1  0  0  0  0
 10  9  2  0  0  0  0
 11 12  2  0  0  0  0
 12 13  1  0  0  0  0
 13  1  1  0  0  0  0
 14 13  2  0  0  0  0
 15 19  1  0  0  0  0
 15  9  1  0  0  0  0
 16 10  1  0  0  0  0
 17 11  1  0  0  0  0
 18 15  1  0  0  0  0
 20 23  1  1  0  0  0
 21 20  1  0  0  0  0
 21 24  1  0  0  0  0
 22 26  1  6  0  0  0
 22 21  1  0  0  0  0
 22 20  1  0  0  0  0
 22 28  1  0  0  0  0
 25 21  1  0  0  0  0
 27 28  2  0  0  0  0
 27 34  1  0  0  0  0
 28 29  1  0  0  0  0
 29 30  1  0  0  0  0
 29 31  2  0  0  0  0
 31 32  1  0  0  0  0
 33 31  1  0  0  0  0
 34 33  2  0  0  0  0
 35 36  1  0  0  0  0
 36 27  1  0  0  0  0
 37 36  2  0  0  0  0
 38 36  2  0  0  0  0
M  END
>  <minimizedAffinity>
-6.7814703

$$$$

 OpenBabel03212520523D

 38 41  0  0  1  0  0  0  0  0999 V2000
   43.4350   70.0760   60.8050 C   0  0  0  0  0  0  0  0  0  0  0  0
   44.1820   69.5390   59.7830 C   0  0  0  0  0  0  0  0  0  0  0  0
   44.8030   70.3550   58.8370 C   0  0  0  0  0  0  0  0  0  0  0  0
   44.6740   71.6910   58.9160 N   0  0  0  0  0  0  0  0  0  0  0  0
   43.9340   72.2000   59.9300 C   0  0  0  0  0  0  0  0  0  0  0  0
   43.3280   71.4250   60.8550 N   0  0  0  0  0  0  0  0  0  0  0  0
   44.2860   68.4580   59.7190 H   0  0  0  0  0  0  0  0  0  0  0  0
   45.3820   69.8930   58.0490 H   0  0  0  0  0  0  0  0  0  0  0  0
   42.3210   67.1690   62.7310 C   0  0  0  0  0  0  0  0  0  0  0  0
   41.4850   67.7590   63.6750 C   0  0  0  0  0  0  0  0  0  0  0  0
   41.2910   69.1280   63.6680 C   0  0  0  0  0  0  0  0  0  0  0  0
   41.9620   69.8260   62.7000 N   0  0  0  0  0  0  0  0  0  0  0  0
   42.7660   69.2370   61.7980 C   0  0  0  0  0  0  0  0  0  0  0  0
   42.9540   67.9230   61.8000 N   0  0  0  0  0  0  0  0  0  0  0  0
   42.4190   65.7650   62.8680 N   0  0  0  0  0  0  0  0  0  0  0  0
   40.9480   67.2240   64.4460 H   0  0  0  0  0  0  0  0  0  0  0  0
   40.6550   69.6170   64.3790 H   0  0  0  0  0  0  0  0  0  0  0  0
   41.6060   65.3700   62.3500 H   0  0  0  0  0  0  0  0  0  0  0  0
   43.2530   65.4940   63.4340 H   0  0  0  0  0  0  0  0  0  0  0  0
   43.8000   73.6940   59.9600 C   0  0  1  0  0  0  0  0  0  0  0  0
   43.9420   74.4670   58.7480 C   0  0  0  0  0  0  0  0  0  0  0  0
   42.5620   74.1840   59.2570 C   0  0  2  0  0  0  0  0  0  0  0  0
   44.0720   74.1380   60.9280 H   0  0  0  0  0  0  0  0  0  0  0  0
   44.3890   75.4630   58.7630 H   0  0  0  0  0  0  0  0  0  0  0  0
   44.2780   73.8850   57.8410 H   0  0  0  0  0  0  0  0  0  0  0  0
   41.9740   73.4560   58.6730 H   0  0  0  0  0  0  0  0  0  0  0  0
   40.6220   75.3280   60.2640 C   0  0  0  0  0  0  0  0  0  0  0  0
   41.8330   75.4000   59.6040 C   0  0  0  0  0  0  0  0  0  0  0  0
   42.2490   76.7010   59.3270 C   0  0  0  0  0  0  0  0  0  0  0  0
   43.1940   76.8180   58.8090 H   0  0  0  0  0  0  0  0  0  0  0  0
   41.5530   77.8340   59.6600 C   0  0  0  0  0  0  0  0  0  0  0  0
   41.9070   78.8170   59.4290 H   0  0  0  0  0  0  0  0  0  0  0  0
   40.3480   77.7010   60.3190 C   0  0  0  0  0  3  0  0  0  0  0  0
   39.8810   76.4430   60.6230 C   0  0  0  0  0  3  0  0  0  0  0  0
   39.9940   72.8810   59.6310 H   0  0  0  0  0  0  0  0  0  0  0  0
   39.9910   73.7640   60.6690 S   0  0  0  0  0  0  0  0  0  0  0  0
   40.6640   73.1980   61.9090 O   0  0  0  0  0  0  0  0  0  0  0  0
   38.5360   73.9130   61.0500 O   0  0  0  0  0  0  0  0  0  0  0  0
  1  6  1  0  0  0  0
  1 13  1  0  0  0  0
  2  1  2  0  0  0  0
  3  4  2  0  0  0  0
  3  2  1  0  0  0  0
  4  5  1  0  0  0  0
  5 20  1  0  0  0  0
  5  6  2  0  0  0  0
  7  2  1  0  0  0  0
  8  3  1  0  0  0  0
  9 15  1  0  0  0  0
  9 10  1  0  0  0  0
 10 16  1  0  0  0  0
 11 10  2  0  0  0  0
 11 17  1  0  0  0  0
 12 11  1  0  0  0  0
 13 14  1  0  0  0  0
 13 12  2  0  0  0  0
 14  9  2  0  0  0  0
 15 19  1  0  0  0  0
 18 15  1  0  0  0  0
 20 23  1  1  0  0  0
 21 24  1  0  0  0  0
 21 22  1  0  0  0  0
 21 20  1  0  0  0  0
 22 26  1  6  0  0  0
 22 28  1  0  0  0  0
 22 20  1  0  0  0  0
 25 21  1  0  0  0  0
 27 34  1  0  0  0  0
 27 36  1  0  0  0  0
 28 27  2  0  0  0  0
 29 28  1  0  0  0  0
 29 31  2  0  0  0  0
 30 29  1  0  0  0  0
 31 33  1  0  0  0  0
 32 31  1  0  0  0  0
 33 34  2  0  0  0  0
 35 36  1  0  0  0  0
 36 38  2  0  0  0  0
 36 37  2  0  0  0  0
M  END
>  <minimizedAffinity>
-6.3903079

$$$$

 OpenBabel03212520523D

 38 41  0  0  1  0  0  0  0  0999 V2000
   41.9510   74.6560   59.5610 C   0  0  0  0  0  0  0  0  0  0  0  0
   43.2360   74.9680   59.1850 C   0  0  0  0  0  0  0  0  0  0  0  0
   44.3320   74.3020   59.7360 C   0  0  0  0  0  0  0  0  0  0  0  0
   44.1380   73.3370   60.6510 N   0  0  0  0  0  0  0  0  0  0  0  0
   42.8650   73.0440   61.0080 C   0  0  0  0  0  0  0  0  0  0  0  0
   41.7930   73.6780   60.4840 N   0  0  0  0  0  0  0  0  0  0  0  0
   43.3920   75.7500   58.4440 H   0  0  0  0  0  0  0  0  0  0  0  0
   45.3260   74.5780   59.4130 H   0  0  0  0  0  0  0  0  0  0  0  0
   38.5920   75.3680   58.2910 C   0  0  0  0  0  0  0  0  0  0  0  0
   38.6920   76.7190   57.9710 C   0  0  0  0  0  0  0  0  0  0  0  0
   39.8810   77.3940   58.1770 C   0  0  0  0  0  0  0  0  0  0  0  0
   40.9080   76.6560   58.7010 N   0  0  0  0  0  0  0  0  0  0  0  0
   40.7910   75.3510   59.0060 C   0  0  0  0  0  0  0  0  0  0  0  0
   39.6520   74.7000   58.8090 N   0  0  0  0  0  0  0  0  0  0  0  0
   37.3150   74.8220   58.0260 N   0  0  0  0  0  0  0  0  0  0  0  0
   37.8920   77.3170   57.5560 H   0  0  0  0  0  0  0  0  0  0  0  0
   39.9960   78.4330   57.9420 H   0  0  0  0  0  0  0  0  0  0  0  0
   37.3240   74.5510   57.0210 H   0  0  0  0  0  0  0  0  0  0  0  0
   36.7120   74.8290   58.8790 H   0  0  0  0  0  0  0  0  0  0  0  0
   42.7030   71.9780   62.0510 C   0  0  1  0  0  0  0  0  0  0  0  0
   41.3960   71.6590   62.5770 C   0  0  0  0  0  0  0  0  0  0  0  0
   41.9860   70.7590   61.5350 C   0  0  2  0  0  0  0  0  0  0  0  0
   43.5940   71.8430   62.6800 H   0  0  0  0  0  0  0  0  0  0  0  0
   41.2650   71.3570   63.6180 H   0  0  0  0  0  0  0  0  0  0  0  0
   40.5620   72.3430   62.2440 H   0  0  0  0  0  0  0  0  0  0  0  0
   41.5240   70.8130   60.5350 H   0  0  0  0  0  0  0  0  0  0  0  0
   42.9250   68.4920   61.2800 C   0  0  0  0  0  0  0  0  0  0  0  0
   42.1970   69.3990   62.0230 C   0  0  0  0  0  0  0  0  0  0  0  0
   41.7170   68.8880   63.2270 C   0  0  0  0  0  0  0  0  0  0  0  0
   41.1370   69.5560   63.8530 H   0  0  0  0  0  0  0  0  0  0  0  0
   41.9230   67.6080   63.6730 C   0  0  0  0  0  0  0  0  0  0  0  0
   41.5370   67.2520   64.6060 H   0  0  0  0  0  0  0  0  0  0  0  0
   42.6590   66.7440   62.8880 C   0  0  0  0  0  3  0  0  0  0  0  0
   43.1620   67.1870   61.6860 C   0  0  0  0  0  3  0  0  0  0  0  0
   42.7150   69.7340   59.0010 H   0  0  0  0  0  0  0  0  0  0  0  0
   43.5810   69.0040   59.7580 S   0  0  0  0  0  0  0  0  0  0  0  0
   44.9190   69.6990   59.9370 O   0  0  0  0  0  0  0  0  0  0  0  0
   43.8870   67.7780   58.9260 O   0  0  0  0  0  0  0  0  0  0  0  0
  1  6  1  0  0  0  0
  2  1  2  0  0  0  0
  2  3  1  0  0  0  0
  3  4  2  0  0  0  0
  4  5  1  0  0  0  0
  5 20  1  0  0  0  0
  6  5  2  0  0  0  0
  7  2  1  0  0  0  0
  8  3  1  0  0  0  0
  9 14  1  0  0  0  0
 10 11  1  0  0  0  0
 10  9  2  0  0  0  0
 11 12  2  0  0  0  0
 12 13  1  0  0  0  0
 13  1  1  0  0  0  0
 14 13  2  0  0  0  0
 15  9  1  0  0  0  0
 15 19  1  0  0  0  0
 16 10  1  0  0  0  0
 17 11  1  0  0  0  0
 18 15  1  0  0  0  0
 20 21  1  0  0  0  0
 20 23  1  1  0  0  0
 21 24  1  0  0  0  0
 22 26  1  6  0  0  0
 22 28  1  0  0  0  0
 22 20  1  0  0  0  0
 22 21  1  0  0  0  0
 25 21  1  0  0  0  0
 27 34  2  0  0  0  0
 27 28  1  0  0  0  0
 28 29  2  0  0  0  0
 29 31  1  0  0  0  0
 29 30  1  0  0  0  0
 31 32  1  0  0  0  0
 33 31  2  0  0  0  0
 34 33  1  0  0  0  0
 35 36  1  0  0  0  0
 36 37  2  0  0  0  0
 36 27  1  0  0  0  0
 38 36  2  0  0  0  0
M  END
>  <minimizedAffinity>
-6.15133953

$$$$

 OpenBabel03212520523D

 38 41  0  0  1  0  0  0  0  0999 V2000
   42.3600   73.6570   59.8540 C   0  0  0  0  0  0  0  0  0  0  0  0
   43.3870   73.5570   58.9460 C   0  0  0  0  0  0  0  0  0  0  0  0
   44.2750   72.4810   58.9750 C   0  0  0  0  0  0  0  0  0  0  0  0
   44.1340   71.5210   59.9040 N   0  0  0  0  0  0  0  0  0  0  0  0
   43.1160   71.6370   60.7900 C   0  0  0  0  0  0  0  0  0  0  0  0
   42.2460   72.6700   60.7750 N   0  0  0  0  0  0  0  0  0  0  0  0
   43.5010   74.3350   58.1940 H   0  0  0  0  0  0  0  0  0  0  0  0
   45.0690   72.4410   58.2420 H   0  0  0  0  0  0  0  0  0  0  0  0
   40.7260   76.8260   59.0240 C   0  0  0  0  0  0  0  0  0  0  0  0
   39.6490   76.8280   59.9060 C   0  0  0  0  0  0  0  0  0  0  0  0
   39.4680   75.7710   60.7800 C   0  0  0  0  0  0  0  0  0  0  0  0
   40.3940   74.7660   60.7080 N   0  0  0  0  0  0  0  0  0  0  0  0
   41.4270   74.7820   59.8480 C   0  0  0  0  0  0  0  0  0  0  0  0
   41.6050   75.7940   59.0080 N   0  0  0  0  0  0  0  0  0  0  0  0
   40.7740   77.9700   58.1940 N   0  0  0  0  0  0  0  0  0  0  0  0
   38.9090   77.6130   59.9760 H   0  0  0  0  0  0  0  0  0  0  0  0
   38.6520   75.7390   61.4730 H   0  0  0  0  0  0  0  0  0  0  0  0
   41.2680   78.7020   58.7470 H   0  0  0  0  0  0  0  0  0  0  0  0
   40.3180   77.7930   57.2720 H   0  0  0  0  0  0  0  0  0  0  0  0
   43.0160   70.5530   61.8220 C   0  0  1  0  0  0  0  0  0  0  0  0
   42.0310   70.6320   62.8760 C   0  0  0  0  0  0  0  0  0  0  0  0
   41.7510   69.7450   61.7020 C   0  0  2  0  0  0  0  0  0  0  0  0
   43.9650   70.0280   61.9980 H   0  0  0  0  0  0  0  0  0  0  0  0
   42.2430   70.2470   63.8760 H   0  0  0  0  0  0  0  0  0  0  0  0
   41.4570   71.6030   62.9280 H   0  0  0  0  0  0  0  0  0  0  0  0
   40.9720   70.1010   61.0060 H   0  0  0  0  0  0  0  0  0  0  0  0
   41.8800   67.3410   61.1640 C   0  0  0  0  0  0  0  0  0  0  0  0
   41.6190   68.3410   62.0790 C   0  0  0  0  0  0  0  0  0  0  0  0
   41.2370   67.8730   63.3350 C   0  0  0  0  0  0  0  0  0  0  0  0
   41.0190   68.6140   64.0950 H   0  0  0  0  0  0  0  0  0  0  0  0
   41.1190   66.5500   63.6750 C   0  0  0  0  0  0  0  0  0  0  0  0
   40.8220   66.2300   64.6520 H   0  0  0  0  0  0  0  0  0  0  0  0
   41.3920   65.5940   62.7190 C   0  0  0  0  0  3  0  0  0  0  0  0
   41.7740   65.9900   61.4580 C   0  0  0  0  0  3  0  0  0  0  0  0
   42.7770   69.0860   59.4510 H   0  0  0  0  0  0  0  0  0  0  0  0
   42.3660   67.7920   59.5600 S   0  0  0  0  0  0  0  0  0  0  0  0
   43.3810   66.8140   58.9940 O   0  0  0  0  0  0  0  0  0  0  0  0
   41.1680   67.6840   58.6440 O   0  0  0  0  0  0  0  0  0  0  0  0
  1  6  1  0  0  0  0
  2  3  1  0  0  0  0
  2  1  2  0  0  0  0
  3  4  2  0  0  0  0
  4  5  1  0  0  0  0
  5 20  1  0  0  0  0
  6  5  2  0  0  0  0
  7  2  1  0  0  0  0
  8  3  1  0  0  0  0
  9 10  1  0  0  0  0
 10 16  1  0  0  0  0
 10 11  2  0  0  0  0
 11 17  1  0  0  0  0
 12 11  1  0  0  0  0
 13  1  1  0  0  0  0
 13 12  2  0  0  0  0
 14  9  2  0  0  0  0
 14 13  1  0  0  0  0
 15 18  1  0  0  0  0
 15  9  1  0  0  0  0
 19 15  1  0  0  0  0
 20 23  1  1  0  0  0
 20 21  1  0  0  0  0
 21 25  1  0  0  0  0
 21 24  1  0  0  0  0
 22 26  1  6  0  0  0
 22 20  1  0  0  0  0
 22 28  1  0  0  0  0
 22 21  1  0  0  0  0
 27 34  2  0  0  0  0
 27 28  1  0  0  0  0
 28 29  2  0  0  0  0
 29 31  1  0  0  0  0
 29 30  1  0  0  0  0
 31 32  1  0  0  0  0
 33 31  2  0  0  0  0
 34 33  1  0  0  0  0
 35 36  1  0  0  0  0
 36 27  1  0  0  0  0
 37 36  2  0  0  0  0
 38 36  2  0  0  0  0
M  END
>  <minimizedAffinity>
-6.05792952

$$$$

 OpenBabel03212520523D

 38 41  0  0  1  0  0  0  0  0999 V2000
   42.2760   69.5510   60.7300 C   0  0  0  0  0  0  0  0  0  0  0  0
   42.9810   70.4230   61.5260 C   0  0  0  0  0  0  0  0  0  0  0  0
   42.9490   71.7980   61.2950 C   0  0  0  0  0  0  0  0  0  0  0  0
   42.2200   72.2900   60.2790 N   0  0  0  0  0  0  0  0  0  0  0  0
   41.5320   71.4150   59.5070 C   0  0  0  0  0  0  0  0  0  0  0  0
   41.5510   70.0820   59.7170 N   0  0  0  0  0  0  0  0  0  0  0  0
   43.5710   70.0230   62.3480 H   0  0  0  0  0  0  0  0  0  0  0  0
   43.5180   72.4490   61.9440 H   0  0  0  0  0  0  0  0  0  0  0  0
   41.9490   66.2510   62.2820 C   0  0  0  0  0  0  0  0  0  0  0  0
   42.3990   65.4150   61.2640 C   0  0  0  0  0  0  0  0  0  0  0  0
   42.8130   65.9520   60.0590 C   0  0  0  0  0  0  0  0  0  0  0  0
   42.7460   67.3150   59.9530 N   0  0  0  0  0  0  0  0  0  0  0  0
   42.3070   68.1060   60.9470 C   0  0  0  0  0  0  0  0  0  0  0  0
   41.9090   67.5940   62.1060 N   0  0  0  0  0  0  0  0  0  0  0  0
   41.5590   65.5550   63.4490 N   0  0  0  0  0  0  0  0  0  0  0  0
   42.4590   64.3370   61.3300 H   0  0  0  0  0  0  0  0  0  0  0  0
   43.1660   65.3390   59.2530 H   0  0  0  0  0  0  0  0  0  0  0  0
   42.4320   65.4080   63.9980 H   0  0  0  0  0  0  0  0  0  0  0  0
   40.5310   65.3750   63.4600 H   0  0  0  0  0  0  0  0  0  0  0  0
   40.7550   72.0120   58.3710 C   0  0  1  0  0  0  0  0  0  0  0  0
   39.5000   71.4300   57.9550 C   0  0  0  0  0  0  0  0  0  0  0  0
   39.4690   72.6550   58.8160 C   0  0  2  0  0  0  0  0  0  0  0  0
   41.3840   72.5370   57.6380 H   0  0  0  0  0  0  0  0  0  0  0  0
   39.1970   71.4320   56.9060 H   0  0  0  0  0  0  0  0  0  0  0  0
   39.2330   70.4520   58.4530 H   0  0  0  0  0  0  0  0  0  0  0  0
   39.1460   72.5010   59.8600 H   0  0  0  0  0  0  0  0  0  0  0  0
   39.0110   75.0720   58.6310 C   0  0  0  0  0  0  0  0  0  0  0  0
   38.8300   73.7890   58.1550 C   0  0  0  0  0  0  0  0  0  0  0  0
   38.0110   73.7130   57.0290 C   0  0  0  0  0  0  0  0  0  0  0  0
   37.8340   72.7290   56.6120 H   0  0  0  0  0  0  0  0  0  0  0  0
   37.4190   74.7880   56.4180 C   0  0  0  0  0  0  0  0  0  0  0  0
   36.7950   74.6880   55.5530 H   0  0  0  0  0  0  0  0  0  0  0  0
   37.6350   76.0470   56.9380 C   0  0  0  0  0  3  0  0  0  0  0  0
   38.4340   76.1910   58.0490 C   0  0  0  0  0  3  0  0  0  0  0  0
   39.9300   74.2940   60.9390 H   0  0  0  0  0  0  0  0  0  0  0  0
   40.0110   75.3040   60.0290 S   0  0  0  0  0  0  0  0  0  0  0  0
   41.4460   75.6160   59.6390 O   0  0  0  0  0  0  0  0  0  0  0  0
   39.5320   76.5330   60.7670 O   0  0  0  0  0  0  0  0  0  0  0  0
  1 13  1  0  0  0  0
  1  2  1  0  0  0  0
  2  7  1  0  0  0  0
  3  2  2  0  0  0  0
  3  8  1  0  0  0  0
  4  3  1  0  0  0  0
  5  6  1  0  0  0  0
  5  4  2  0  0  0  0
  6  1  2  0  0  0  0
  9 15  1  0  0  0  0
 10 16  1  0  0  0  0
 10  9  2  0  0  0  0
 11 10  1  0  0  0  0
 12 11  2  0  0  0  0
 12 13  1  0  0  0  0
 13 14  2  0  0  0  0
 14  9  1  0  0  0  0
 15 19  1  0  0  0  0
 15 18  1  0  0  0  0
 17 11  1  0  0  0  0
 20 23  1  6  0  0  0
 20 22  1  0  0  0  0
 20  5  1  0  0  0  0
 21 20  1  0  0  0  0
 21 25  1  0  0  0  0
 21 22  1  0  0  0  0
 22 26  1  1  0  0  0
 24 21  1  0  0  0  0
 27 36  1  0  0  0  0
 28 27  1  0  0  0  0
 28 22  1  0  0  0  0
 29 28  2  0  0  0  0
 30 29  1  0  0  0  0
 31 33  2  0  0  0  0
 31 29  1  0  0  0  0
 32 31  1  0  0  0  0
 33 34  1  0  0  0  0
 34 27  2  0  0  0  0
 36 38  2  0  0  0  0
 36 35  1  0  0  0  0
 37 36  2  0  0  0  0
M  END
>  <minimizedAffinity>
-6.0070014

$$$$

 OpenBabel03212520523D

 38 41  0  0  1  0  0  0  0  0999 V2000
   40.6130   73.0870   60.3400 C   0  0  0  0  0  0  0  0  0  0  0  0
   40.7840   73.1980   61.7000 C   0  0  0  0  0  0  0  0  0  0  0  0
   41.5330   72.2610   62.4130 C   0  0  0  0  0  0  0  0  0  0  0  0
   42.1000   71.2270   61.7690 N   0  0  0  0  0  0  0  0  0  0  0  0
   41.9200   71.1360   60.4290 C   0  0  0  0  0  0  0  0  0  0  0  0
   41.2000   72.0340   59.7240 N   0  0  0  0  0  0  0  0  0  0  0  0
   40.3240   74.0360   62.2210 H   0  0  0  0  0  0  0  0  0  0  0  0
   41.6420   72.3850   63.4810 H   0  0  0  0  0  0  0  0  0  0  0  0
   38.0820   74.5570   58.1400 C   0  0  0  0  0  0  0  0  0  0  0  0
   38.4110   75.9080   58.1960 C   0  0  0  0  0  0  0  0  0  0  0  0
   39.4780   76.3300   58.9670 C   0  0  0  0  0  0  0  0  0  0  0  0
   40.1560   75.3520   59.6430 N   0  0  0  0  0  0  0  0  0  0  0  0
   39.8220   74.0510   59.5780 C   0  0  0  0  0  0  0  0  0  0  0  0
   38.7990   73.6420   58.8380 N   0  0  0  0  0  0  0  0  0  0  0  0
   36.9680   74.2830   57.3140 N   0  0  0  0  0  0  0  0  0  0  0  0
   37.8870   76.6940   57.6680 H   0  0  0  0  0  0  0  0  0  0  0  0
   39.7610   77.3620   59.0330 H   0  0  0  0  0  0  0  0  0  0  0  0
   37.3450   74.2000   56.3460 H   0  0  0  0  0  0  0  0  0  0  0  0
   36.0840   74.2360   57.8680 H   0  0  0  0  0  0  0  0  0  0  0  0
   42.5520   69.9500   59.7610 C   0  0  1  0  0  0  0  0  0  0  0  0
   43.9890   69.8010   59.7380 C   0  0  0  0  0  0  0  0  0  0  0  0
   43.2040   69.0070   60.7370 C   0  0  2  0  0  0  0  0  0  0  0  0
   41.9460   69.5330   58.9450 H   0  0  0  0  0  0  0  0  0  0  0  0
   44.4960   69.3480   58.8840 H   0  0  0  0  0  0  0  0  0  0  0  0
   44.5720   70.6830   60.1350 H   0  0  0  0  0  0  0  0  0  0  0  0
   43.2980   69.3310   61.7880 H   0  0  0  0  0  0  0  0  0  0  0  0
   42.4990   66.6870   61.1900 C   0  0  0  0  0  0  0  0  0  0  0  0
   43.3410   67.5680   60.5410 C   0  0  0  0  0  0  0  0  0  0  0  0
   44.2830   66.9480   59.7210 C   0  0  0  0  0  0  0  0  0  0  0  0
   44.9730   67.5900   59.1860 H   0  0  0  0  0  0  0  0  0  0  0  0
   44.3990   65.5930   59.5460 C   0  0  0  0  0  0  0  0  0  0  0  0
   45.1380   65.1550   58.9070 H   0  0  0  0  0  0  0  0  0  0  0  0
   43.5300   64.7620   60.2210 C   0  0  0  0  0  3  0  0  0  0  0  0
   42.5750   65.3100   61.0460 C   0  0  0  0  0  3  0  0  0  0  0  0
   41.0470   68.6630   62.0690 H   0  0  0  0  0  0  0  0  0  0  0  0
   41.2780   67.3310   62.2410 S   0  0  0  0  0  0  0  0  0  0  0  0
   40.0010   66.5110   62.1750 O   0  0  0  0  0  0  0  0  0  0  0  0
   41.7530   67.1990   63.6700 O   0  0  0  0  0  0  0  0  0  0  0  0
  1  2  1  0  0  0  0
  2  7  1  0  0  0  0
  2  3  2  0  0  0  0
  3  8  1  0  0  0  0
  4  3  1  0  0  0  0
  5  4  2  0  0  0  0
  6  1  2  0  0  0  0
  6  5  1  0  0  0  0
  9 10  2  0  0  0  0
  9 14  1  0  0  0  0
 10 11  1  0  0  0  0
 11 17  1  0  0  0  0
 11 12  2  0  0  0  0
 13 12  1  0  0  0  0
 13  1  1  0  0  0  0
 14 13  2  0  0  0  0
 15 19  1  0  0  0  0
 15  9  1  0  0  0  0
 16 10  1  0  0  0  0
 18 15  1  0  0  0  0
 20 23  1  6  0  0  0
 20  5  1  0  0  0  0
 20 22  1  0  0  0  0
 21 20  1  0  0  0  0
 21 25  1  0  0  0  0
 21 22  1  0  0  0  0
 22 26  1  1  0  0  0
 24 21  1  0  0  0  0
 27 36  1  0  0  0  0
 28 22  1  0  0  0  0
 28 27  2  0  0  0  0
 29 28  1  0  0  0  0
 30 29  1  0  0  0  0
 31 29  2  0  0  0  0
 31 33  1  0  0  0  0
 32 31  1  0  0  0  0
 33 34  2  0  0  0  0
 34 27  1  0  0  0  0
 35 36  1  0  0  0  0
 36 38  2  0  0  0  0
 37 36  2  0  0  0  0
M  END
>  <minimizedAffinity>
-5.98223686

$$$$

 OpenBabel03212520523D

 38 41  0  0  1  0  0  0  0  0999 V2000
   42.4870   69.1360   61.7150 C   0  0  0  0  0  0  0  0  0  0  0  0
   41.8130   69.1470   62.9130 C   0  0  0  0  0  0  0  0  0  0  0  0
   41.5030   70.3460   63.5560 C   0  0  0  0  0  0  0  0  0  0  0  0
   41.8650   71.5160   63.0030 N   0  0  0  0  0  0  0  0  0  0  0  0
   42.5280   71.4840   61.8230 C   0  0  0  0  0  0  0  0  0  0  0  0
   42.8350   70.3330   61.1860 N   0  0  0  0  0  0  0  0  0  0  0  0
   41.5200   68.1990   63.3600 H   0  0  0  0  0  0  0  0  0  0  0  0
   40.9720   70.3100   64.4970 H   0  0  0  0  0  0  0  0  0  0  0  0
   44.0280   66.7220   59.4330 C   0  0  0  0  0  0  0  0  0  0  0  0
   43.4130   65.5360   59.8210 C   0  0  0  0  0  0  0  0  0  0  0  0
   42.4820   65.5400   60.8430 C   0  0  0  0  0  0  0  0  0  0  0  0
   42.2270   66.7550   61.4200 N   0  0  0  0  0  0  0  0  0  0  0  0
   42.8330   67.8910   61.0320 C   0  0  0  0  0  0  0  0  0  0  0  0
   43.7260   67.8910   60.0500 N   0  0  0  0  0  0  0  0  0  0  0  0
   44.9550   66.5560   58.3780 N   0  0  0  0  0  0  0  0  0  0  0  0
   43.6020   64.5680   59.3770 H   0  0  0  0  0  0  0  0  0  0  0  0
   41.9880   64.6460   61.1680 H   0  0  0  0  0  0  0  0  0  0  0  0
   44.3970   66.5940   57.5000 H   0  0  0  0  0  0  0  0  0  0  0  0
   45.9280   66.4420   58.7400 H   0  0  0  0  0  0  0  0  0  0  0  0
   42.9330   72.8140   61.2600 C   0  0  1  0  0  0  0  0  0  0  0  0
   43.4970   72.9090   59.9330 C   0  0  0  0  0  0  0  0  0  0  0  0
   42.0530   73.2610   60.1230 C   0  0  2  0  0  0  0  0  0  0  0  0
   43.2170   73.5460   62.0290 H   0  0  0  0  0  0  0  0  0  0  0  0
   44.2640   73.6500   59.6980 H   0  0  0  0  0  0  0  0  0  0  0  0
   43.7180   71.9220   59.4310 H   0  0  0  0  0  0  0  0  0  0  0  0
   41.3250   72.5390   59.7150 H   0  0  0  0  0  0  0  0  0  0  0  0
   40.4700   75.1260   59.8050 C   0  0  0  0  0  0  0  0  0  0  0  0
   41.7670   74.6520   59.7870 C   0  0  0  0  0  0  0  0  0  0  0  0
   42.7140   75.6110   59.4300 C   0  0  0  0  0  0  0  0  0  0  0  0
   43.7500   75.2950   59.3990 H   0  0  0  0  0  0  0  0  0  0  0  0
   42.4300   76.9140   59.1180 C   0  0  0  0  0  0  0  0  0  0  0  0
   43.1870   77.6220   58.8480 H   0  0  0  0  0  0  0  0  0  0  0  0
   41.1150   77.3320   59.1520 C   0  0  0  0  0  3  0  0  0  0  0  0
   40.1310   76.4350   59.4970 C   0  0  0  0  0  3  0  0  0  0  0  0
   39.6080   72.7480   60.4250 H   0  0  0  0  0  0  0  0  0  0  0  0
   39.1940   74.0320   60.2340 S   0  0  0  0  0  0  0  0  0  0  0  0
   38.3850   74.5570   61.4070 O   0  0  0  0  0  0  0  0  0  0  0  0
   38.2130   73.9590   59.0860 O   0  0  0  0  0  0  0  0  0  0  0  0
  1  2  1  0  0  0  0
  2  7  1  0  0  0  0
  2  3  2  0  0  0  0
  3  8  1  0  0  0  0
  4  3  1  0  0  0  0
  5  4  2  0  0  0  0
  6  1  2  0  0  0  0
  6  5  1  0  0  0  0
  9 10  2  0  0  0  0
  9 14  1  0  0  0  0
 10 11  1  0  0  0  0
 11 17  1  0  0  0  0
 11 12  2  0  0  0  0
 13 12  1  0  0  0  0
 13  1  1  0  0  0  0
 14 13  2  0  0  0  0
 15 19  1  0  0  0  0
 15  9  1  0  0  0  0
 16 10  1  0  0  0  0
 18 15  1  0  0  0  0
 20  5  1  0  0  0  0
 20 23  1  1  0  0  0
 21 22  1  0  0  0  0
 21 20  1  0  0  0  0
 22 26  1  6  0  0  0
 22 20  1  0  0  0  0
 24 21  1  0  0  0  0
 25 21  1  0  0  0  0
 27 36  1  0  0  0  0
 28 27  1  0  0  0  0
 28 22  1  0  0  0  0
 29 28  2  0  0  0  0
 30 29  1  0  0  0  0
 31 33  2  0  0  0  0
 31 29  1  0  0  0  0
 32 31  1  0  0  0  0
 33 34  1  0  0  0  0
 34 27  2  0  0  0  0
 36 35  1  0  0  0  0
 36 37  2  0  0  0  0
 38 36  2  0  0  0  0
M  END
>  <minimizedAffinity>
-5.94445372

$$$$

 OpenBabel03212520523D

 38 41  0  0  1  0  0  0  0  0999 V2000
   40.7980   73.0810   58.1040 C   0  0  0  0  0  0  0  0  0  0  0  0
   41.2620   73.1600   56.8120 C   0  0  0  0  0  0  0  0  0  0  0  0
   41.5120   72.0100   56.0630 C   0  0  0  0  0  0  0  0  0  0  0  0
   41.3020   70.7980   56.6050 N   0  0  0  0  0  0  0  0  0  0  0  0
   40.8440   70.7420   57.8790 C   0  0  0  0  0  0  0  0  0  0  0  0
   40.5950   71.8440   58.6170 N   0  0  0  0  0  0  0  0  0  0  0  0
   41.4320   74.1410   56.3740 H   0  0  0  0  0  0  0  0  0  0  0  0
   41.8770   72.1160   55.0510 H   0  0  0  0  0  0  0  0  0  0  0  0
   39.3780   75.3810   60.5730 C   0  0  0  0  0  0  0  0  0  0  0  0
   40.1320   76.5300   60.3540 C   0  0  0  0  0  0  0  0  0  0  0  0
   41.1150   76.5390   59.3810 C   0  0  0  0  0  0  0  0  0  0  0  0
   41.2790   75.3740   58.6820 N   0  0  0  0  0  0  0  0  0  0  0  0
   40.5410   74.2740   58.9090 C   0  0  0  0  0  0  0  0  0  0  0  0
   39.5970   74.2610   59.8420 N   0  0  0  0  0  0  0  0  0  0  0  0
   38.4170   75.5270   61.6000 N   0  0  0  0  0  0  0  0  0  0  0  0
   40.0160   77.4590   60.8970 H   0  0  0  0  0  0  0  0  0  0  0  0
   41.7140   77.4060   59.1840 H   0  0  0  0  0  0  0  0  0  0  0  0
   37.5810   75.9530   61.1490 H   0  0  0  0  0  0  0  0  0  0  0  0
   38.7810   75.1820   62.5160 H   0  0  0  0  0  0  0  0  0  0  0  0
   40.6490   69.3660   58.4460 C   0  0  1  0  0  0  0  0  0  0  0  0
   41.3750   68.2400   57.9050 C   0  0  0  0  0  0  0  0  0  0  0  0
   41.8620   68.8590   59.1800 C   0  0  2  0  0  0  0  0  0  0  0  0
   39.6570   69.2140   58.8930 H   0  0  0  0  0  0  0  0  0  0  0  0
   40.9240   67.2470   57.8600 H   0  0  0  0  0  0  0  0  0  0  0  0
   41.9760   68.4560   56.9740 H   0  0  0  0  0  0  0  0  0  0  0  0
   42.7950   69.4420   59.1050 H   0  0  0  0  0  0  0  0  0  0  0  0
   41.8770   68.3930   61.6020 C   0  0  0  0  0  0  0  0  0  0  0  0
   41.8270   67.9280   60.3030 C   0  0  0  0  0  0  0  0  0  0  0  0
   41.7430   66.5400   60.2030 C   0  0  0  0  0  0  0  0  0  0  0  0
   41.7010   66.1180   59.2060 H   0  0  0  0  0  0  0  0  0  0  0  0
   41.7100   65.6780   61.2680 C   0  0  0  0  0  0  0  0  0  0  0  0
   41.6460   64.6160   61.1490 H   0  0  0  0  0  0  0  0  0  0  0  0
   41.7640   66.1990   62.5440 C   0  0  0  0  0  3  0  0  0  0  0  0
   41.8470   67.5620   62.7130 C   0  0  0  0  0  3  0  0  0  0  0  0
   41.2180   70.8420   61.0140 H   0  0  0  0  0  0  0  0  0  0  0  0
   41.9820   70.1040   61.8660 S   0  0  0  0  0  0  0  0  0  0  0  0
   41.7280   70.4570   63.3220 O   0  0  0  0  0  0  0  0  0  0  0  0
   43.4030   70.5480   61.6000 O   0  0  0  0  0  0  0  0  0  0  0  0
  1  6  1  0  0  0  0
  1 13  1  0  0  0  0
  2  1  2  0  0  0  0
  3  4  2  0  0  0  0
  3  2  1  0  0  0  0
  4  5  1  0  0  0  0
  5 20  1  0  0  0  0
  5  6  2  0  0  0  0
  7  2  1  0  0  0  0
  8  3  1  0  0  0  0
  9 15  1  0  0  0  0
 10  9  1  0  0  0  0
 10 16  1  0  0  0  0
 11 10  2  0  0  0  0
 12 13  2  0  0  0  0
 12 11  1  0  0  0  0
 13 14  1  0  0  0  0
 14  9  2  0  0  0  0
 15 19  1  0  0  0  0
 17 11  1  0  0  0  0
 18 15  1  0  0  0  0
 20 23  1  1  0  0  0
 20 22  1  0  0  0  0
 21 20  1  0  0  0  0
 21 22  1  0  0  0  0
 22 26  1  6  0  0  0
 22 28  1  0  0  0  0
 24 21  1  0  0  0  0
 25 21  1  0  0  0  0
 27 36  1  0  0  0  0
 27 34  1  0  0  0  0
 28 27  2  0  0  0  0
 29 28  1  0  0  0  0
 29 31  2  0  0  0  0
 30 29  1  0  0  0  0
 31 33  1  0  0  0  0
 32 31  1  0  0  0  0
 33 34  2  0  0  0  0
 35 36  1  0  0  0  0
 36 37  2  0  0  0  0
 38 36  2  0  0  0  0
M  END
>  <minimizedAffinity>
-5.92575932

$$$$
