
 OpenBabel03212520303D

 31 33  0  0  0  0  0  0  0  0999 V2000
   41.6760   70.7590   59.9570 C   0  0  0  0  0  0  0  0  0  0  0  0
   41.6800   71.7180   60.9650 C   0  0  0  0  0  0  0  0  0  0  0  0
   42.2580   71.3580   62.2010 C   0  0  0  0  0  0  0  0  0  0  0  0
   42.7720   70.1020   62.3310 N   0  0  0  0  0  0  0  0  0  0  0  0
   42.7460   69.2100   61.3340 C   0  0  0  0  0  0  0  0  0  0  0  0
   42.2000   69.5440   60.1590 N   0  0  0  0  0  0  0  0  0  0  0  0
   41.2290   71.0400   59.0010 H   0  0  0  0  0  0  0  0  0  0  0  0
   42.2820   72.0850   63.0220 H   0  0  0  0  0  0  0  0  0  0  0  0
   41.1260   73.0050   60.7540 N   0  0  0  0  0  0  0  0  0  0  0  0
   39.8930   73.1420   61.2520 C   0  0  0  0  0  0  0  0  0  0  0  0
   39.2480   74.3720   61.1020 C   0  0  0  0  0  0  0  0  0  0  0  0
   39.9100   75.4060   60.4430 C   0  0  0  0  0  0  0  0  0  0  0  0
   39.4220   76.5480   60.2550 O   0  0  0  0  0  0  0  0  0  0  0  0
   41.1680   75.1830   59.9660 N   0  0  0  0  0  0  0  0  0  0  0  0
   41.7940   73.9840   60.1140 C   0  0  0  0  0  0  0  0  0  0  0  0
   42.9380   73.7730   59.6830 O   0  0  0  0  0  0  0  0  0  0  0  0
   39.3420   72.3680   61.7690 H   0  0  0  0  0  0  0  0  0  0  0  0
   38.2490   74.5580   61.4770 H   0  0  0  0  0  0  0  0  0  0  0  0
   41.6980   75.9330   59.4670 H   0  0  0  0  0  0  0  0  0  0  0  0
   42.5570   66.8150   61.9720 C   0  0  0  0  0  0  0  0  0  0  0  0
   43.3270   67.8960   61.5910 C   0  0  0  0  0  0  0  0  0  0  0  0
   44.6910   67.7490   61.4430 C   0  0  0  0  0  0  0  0  0  0  0  0
   45.3420   68.5620   61.1460 H   0  0  0  0  0  0  0  0  0  0  0  0
   45.3540   66.5400   61.6620 C   0  0  0  0  0  0  0  0  0  0  0  0
   46.4210   66.4220   61.5470 H   0  0  0  0  0  0  0  0  0  0  0  0
   44.5870   65.4570   62.0430 C   0  0  0  0  0  3  0  0  0  0  0  0
   43.2210   65.6040   62.1910 C   0  0  0  0  0  3  0  0  0  0  0  0
   40.2320   67.6320   61.1240 H   0  0  0  0  0  0  0  0  0  0  0  0
   40.8270   66.9850   62.1650 S   0  0  0  0  0  0  0  0  0  0  0  0
   40.5220   67.6540   63.4870 O   0  0  0  0  0  0  0  0  0  0  0  0
   40.2550   65.5830   62.2860 O   0  0  0  0  0  0  0  0  0  0  0  0
  1  6  2  0  0  0  0
  1  2  1  0  0  0  0
  2  3  2  0  0  0  0
  3  4  1  0  0  0  0
  3  8  1  0  0  0  0
  5 21  1  0  0  0  0
  5  4  2  0  0  0  0
  6  5  1  0  0  0  0
  7  1  1  0  0  0  0
  9  2  1  0  0  0  0
  9 10  1  0  0  0  0
 10 17  1  0  0  0  0
 11 10  2  0  0  0  0
 11 18  1  0  0  0  0
 12 11  1  0  0  0  0
 13 12  2  0  0  0  0
 14 15  1  0  0  0  0
 14 12  1  0  0  0  0
 15  9  1  0  0  0  0
 16 15  2  0  0  0  0
 19 14  1  0  0  0  0
 20 29  1  0  0  0  0
 20 27  1  0  0  0  0
 21 20  2  0  0  0  0
 22 21  1  0  0  0  0
 22 24  2  0  0  0  0
 23 22  1  0  0  0  0
 24 26  1  0  0  0  0
 25 24  1  0  0  0  0
 26 27  2  0  0  0  0
 28 29  1  0  0  0  0
 29 31  2  0  0  0  0
 29 30  2  0  0  0  0
M  END
>  <minimizedAffinity>
-5.65989494

$$$$

 OpenBabel03212520303D

 31 33  0  0  0  0  0  0  0  0999 V2000
   41.7990   70.4230   60.1840 C   0  0  0  0  0  0  0  0  0  0  0  0
   42.4530   70.1440   61.3800 C   0  0  0  0  0  0  0  0  0  0  0  0
   42.5910   71.2000   62.3050 C   0  0  0  0  0  0  0  0  0  0  0  0
   42.0800   72.4190   61.9740 N   0  0  0  0  0  0  0  0  0  0  0  0
   41.4580   72.6440   60.8120 C   0  0  0  0  0  0  0  0  0  0  0  0
   41.3230   71.6480   59.9280 N   0  0  0  0  0  0  0  0  0  0  0  0
   41.6920   69.6050   59.4690 H   0  0  0  0  0  0  0  0  0  0  0  0
   43.1010   71.0220   63.2600 H   0  0  0  0  0  0  0  0  0  0  0  0
   42.9580   68.8490   61.6530 N   0  0  0  0  0  0  0  0  0  0  0  0
   44.1700   68.6290   61.1320 C   0  0  0  0  0  0  0  0  0  0  0  0
   44.7670   67.3830   61.3390 C   0  0  0  0  0  0  0  0  0  0  0  0
   44.0820   66.4210   62.0780 C   0  0  0  0  0  0  0  0  0  0  0  0
   44.5270   65.2720   62.3210 O   0  0  0  0  0  0  0  0  0  0  0  0
   42.8500   66.7270   62.5750 N   0  0  0  0  0  0  0  0  0  0  0  0
   42.2710   67.9410   62.3720 C   0  0  0  0  0  0  0  0  0  0  0  0
   41.1510   68.2280   62.8210 O   0  0  0  0  0  0  0  0  0  0  0  0
   44.7360   69.3450   60.5520 H   0  0  0  0  0  0  0  0  0  0  0  0
   45.7450   67.1310   60.9470 H   0  0  0  0  0  0  0  0  0  0  0  0
   42.3050   66.0330   63.1340 H   0  0  0  0  0  0  0  0  0  0  0  0
   41.6170   74.8900   59.7590 C   0  0  0  0  0  0  0  0  0  0  0  0
   40.9510   73.9910   60.5690 C   0  0  0  0  0  0  0  0  0  0  0  0
   39.7690   74.3600   61.1760 C   0  0  0  0  0  0  0  0  0  0  0  0
   39.2060   73.6950   61.8200 H   0  0  0  0  0  0  0  0  0  0  0  0
   39.1910   75.6210   61.0150 C   0  0  0  0  0  0  0  0  0  0  0  0
   38.2670   75.9120   61.4880 H   0  0  0  0  0  0  0  0  0  0  0  0
   39.8550   76.5220   60.2060 C   0  0  0  0  0  3  0  0  0  0  0  0
   41.0390   76.1530   59.5970 C   0  0  0  0  0  3  0  0  0  0  0  0
   43.0590   73.2250   58.3650 H   0  0  0  0  0  0  0  0  0  0  0  0
   43.1180   74.4380   58.9820 S   0  0  0  0  0  0  0  0  0  0  0  0
   44.2510   74.5040   59.9810 O   0  0  0  0  0  0  0  0  0  0  0  0
   43.4270   75.5150   57.9570 O   0  0  0  0  0  0  0  0  0  0  0  0
  1  2  1  0  0  0  0
  2  9  1  0  0  0  0
  2  3  2  0  0  0  0
  3  8  1  0  0  0  0
  4  3  1  0  0  0  0
  5  4  2  0  0  0  0
  6  1  2  0  0  0  0
  6  5  1  0  0  0  0
  7  1  1  0  0  0  0
  9 15  1  0  0  0  0
 10 11  2  0  0  0  0
 10  9  1  0  0  0  0
 11 12  1  0  0  0  0
 12 13  2  0  0  0  0
 12 14  1  0  0  0  0
 14 19  1  0  0  0  0
 15 14  1  0  0  0  0
 15 16  2  0  0  0  0
 17 10  1  0  0  0  0
 18 11  1  0  0  0  0
 20 21  1  0  0  0  0
 21  5  1  0  0  0  0
 21 22  2  0  0  0  0
 22 23  1  0  0  0  0
 24 22  1  0  0  0  0
 24 25  1  0  0  0  0
 26 24  2  0  0  0  0
 27 20  2  0  0  0  0
 27 26  1  0  0  0  0
 28 29  1  0  0  0  0
 29 20  1  0  0  0  0
 29 30  2  0  0  0  0
 31 29  2  0  0  0  0
M  END
>  <minimizedAffinity>
-5.63040209

$$$$

 OpenBabel03212520303D

 31 33  0  0  0  0  0  0  0  0999 V2000
   39.1870   72.3370   58.1550 C   0  0  0  0  0  0  0  0  0  0  0  0
   40.3130   72.8670   58.7780 C   0  0  0  0  0  0  0  0  0  0  0  0
   40.9940   73.9070   58.1100 C   0  0  0  0  0  0  0  0  0  0  0  0
   40.5110   74.3250   56.9060 N   0  0  0  0  0  0  0  0  0  0  0  0
   39.4240   73.7860   56.3430 C   0  0  0  0  0  0  0  0  0  0  0  0
   38.7720   72.7990   56.9700 N   0  0  0  0  0  0  0  0  0  0  0  0
   38.6610   71.5330   58.6740 H   0  0  0  0  0  0  0  0  0  0  0  0
   41.8860   74.3520   58.5670 H   0  0  0  0  0  0  0  0  0  0  0  0
   40.7540   72.3790   60.0330 N   0  0  0  0  0  0  0  0  0  0  0  0
   41.7020   71.4410   59.9360 C   0  0  0  0  0  0  0  0  0  0  0  0
   42.2120   70.8880   61.1130 C   0  0  0  0  0  0  0  0  0  0  0  0
   41.7180   71.3320   62.3380 C   0  0  0  0  0  0  0  0  0  0  0  0
   42.1070   70.9010   63.4520 O   0  0  0  0  0  0  0  0  0  0  0  0
   40.7520   72.2940   62.3480 N   0  0  0  0  0  0  0  0  0  0  0  0
   40.2560   72.8310   61.1990 C   0  0  0  0  0  0  0  0  0  0  0  0
   39.3770   73.7060   61.2000 O   0  0  0  0  0  0  0  0  0  0  0  0
   42.1130   71.0660   59.0090 H   0  0  0  0  0  0  0  0  0  0  0  0
   42.9790   70.1230   61.1150 H   0  0  0  0  0  0  0  0  0  0  0  0
   40.3560   72.6540   63.2450 H   0  0  0  0  0  0  0  0  0  0  0  0
   38.1510   75.3990   54.9450 C   0  0  0  0  0  0  0  0  0  0  0  0
   39.0010   74.3170   55.0510 C   0  0  0  0  0  0  0  0  0  0  0  0
   39.4770   73.7040   53.9100 C   0  0  0  0  0  0  0  0  0  0  0  0
   40.1460   72.8530   53.9350 H   0  0  0  0  0  0  0  0  0  0  0  0
   39.1400   74.1250   52.6220 C   0  0  0  0  0  0  0  0  0  0  0  0
   39.5100   73.6480   51.7290 H   0  0  0  0  0  0  0  0  0  0  0  0
   38.2890   75.2070   52.5130 C   0  0  0  0  0  3  0  0  0  0  0  0
   37.8120   75.8210   53.6550 C   0  0  0  0  0  3  0  0  0  0  0  0
   38.5150   76.5170   57.2710 H   0  0  0  0  0  0  0  0  0  0  0  0
   37.5380   76.1870   56.3810 S   0  0  0  0  0  0  0  0  0  0  0  0
   36.4670   75.3300   57.0180 O   0  0  0  0  0  0  0  0  0  0  0  0
   36.8200   77.4460   55.9240 O   0  0  0  0  0  0  0  0  0  0  0  0
  1  7  1  0  0  0  0
  1  2  1  0  0  0  0
  2  9  1  0  0  0  0
  3  8  1  0  0  0  0
  3  2  2  0  0  0  0
  4  3  1  0  0  0  0
  5  4  2  0  0  0  0
  5  6  1  0  0  0  0
  6  1  2  0  0  0  0
  9 15  1  0  0  0  0
 10  9  1  0  0  0  0
 10 11  2  0  0  0  0
 11 18  1  0  0  0  0
 11 12  1  0  0  0  0
 12 14  1  0  0  0  0
 12 13  2  0  0  0  0
 14 19  1  0  0  0  0
 15 16  2  0  0  0  0
 15 14  1  0  0  0  0
 17 10  1  0  0  0  0
 20 21  1  0  0  0  0
 20 29  1  0  0  0  0
 21  5  1  0  0  0  0
 22 23  1  0  0  0  0
 22 21  2  0  0  0  0
 24 22  1  0  0  0  0
 25 24  1  0  0  0  0
 26 24  2  0  0  0  0
 26 27  1  0  0  0  0
 27 20  2  0  0  0  0
 29 30  2  0  0  0  0
 29 28  1  0  0  0  0
 31 29  2  0  0  0  0
M  END
>  <minimizedAffinity>
-5.4516058

$$$$

 OpenBabel03212520303D

 31 33  0  0  0  0  0  0  0  0999 V2000
   43.3040   72.7820   60.6990 C   0  0  0  0  0  0  0  0  0  0  0  0
   42.5960   71.5850   60.6600 C   0  0  0  0  0  0  0  0  0  0  0  0
   41.3830   71.5720   59.9410 C   0  0  0  0  0  0  0  0  0  0  0  0
   40.9810   72.7230   59.3320 N   0  0  0  0  0  0  0  0  0  0  0  0
   41.6940   73.8530   59.3950 C   0  0  0  0  0  0  0  0  0  0  0  0
   42.8460   73.8750   60.0760 N   0  0  0  0  0  0  0  0  0  0  0  0
   44.2430   72.7900   61.2550 H   0  0  0  0  0  0  0  0  0  0  0  0
   40.7940   70.6480   59.8860 H   0  0  0  0  0  0  0  0  0  0  0  0
   43.0790   70.4270   61.3190 N   0  0  0  0  0  0  0  0  0  0  0  0
   43.7880   69.6190   60.5240 C   0  0  0  0  0  0  0  0  0  0  0  0
   44.3140   68.4450   61.0690 C   0  0  0  0  0  0  0  0  0  0  0  0
   44.0830   68.1610   62.4130 C   0  0  0  0  0  0  0  0  0  0  0  0
   44.5100   67.1360   63.0000 O   0  0  0  0  0  0  0  0  0  0  0  0
   43.3510   69.0400   63.1550 N   0  0  0  0  0  0  0  0  0  0  0  0
   42.8390   70.1830   62.6210 C   0  0  0  0  0  0  0  0  0  0  0  0
   42.1720   70.9880   63.2890 O   0  0  0  0  0  0  0  0  0  0  0  0
   43.9900   69.7980   59.4770 H   0  0  0  0  0  0  0  0  0  0  0  0
   44.8960   67.7410   60.4870 H   0  0  0  0  0  0  0  0  0  0  0  0
   43.1560   68.8640   64.1660 H   0  0  0  0  0  0  0  0  0  0  0  0
   40.3040   75.9120   59.3170 C   0  0  0  0  0  0  0  0  0  0  0  0
   41.1630   75.0240   58.7030 C   0  0  0  0  0  0  0  0  0  0  0  0
   41.5440   75.2320   57.3930 C   0  0  0  0  0  0  0  0  0  0  0  0
   42.2150   74.5680   56.8630 H   0  0  0  0  0  0  0  0  0  0  0  0
   41.0990   76.3170   56.6340 C   0  0  0  0  0  0  0  0  0  0  0  0
   41.3950   76.4820   55.6100 H   0  0  0  0  0  0  0  0  0  0  0  0
   40.2390   77.2070   57.2460 C   0  0  0  0  0  3  0  0  0  0  0  0
   39.8580   76.9990   58.5580 C   0  0  0  0  0  3  0  0  0  0  0  0
   40.7180   74.9540   61.7060 H   0  0  0  0  0  0  0  0  0  0  0  0
   39.8110   75.6620   60.9770 S   0  0  0  0  0  0  0  0  0  0  0  0
   38.4410   75.0220   61.0130 O   0  0  0  0  0  0  0  0  0  0  0  0
   39.6240   77.0370   61.5950 O   0  0  0  0  0  0  0  0  0  0  0  0
  1  7  1  0  0  0  0
  2  1  1  0  0  0  0
  2  9  1  0  0  0  0
  3  2  2  0  0  0  0
  4  5  2  0  0  0  0
  4  3  1  0  0  0  0
  5  6  1  0  0  0  0
  6  1  2  0  0  0  0
  8  3  1  0  0  0  0
  9 15  1  0  0  0  0
 10 11  2  0  0  0  0
 10  9  1  0  0  0  0
 11 12  1  0  0  0  0
 12 13  2  0  0  0  0
 12 14  1  0  0  0  0
 14 19  1  0  0  0  0
 15 14  1  0  0  0  0
 15 16  2  0  0  0  0
 17 10  1  0  0  0  0
 18 11  1  0  0  0  0
 20 29  1  0  0  0  0
 21 20  1  0  0  0  0
 21  5  1  0  0  0  0
 22 21  2  0  0  0  0
 23 22  1  0  0  0  0
 24 26  2  0  0  0  0
 24 22  1  0  0  0  0
 25 24  1  0  0  0  0
 26 27  1  0  0  0  0
 27 20  2  0  0  0  0
 29 30  2  0  0  0  0
 29 31  2  0  0  0  0
 29 28  1  0  0  0  0
M  END
>  <minimizedAffinity>
-5.40677071

$$$$

 OpenBabel03212520303D

 31 33  0  0  0  0  0  0  0  0999 V2000
   39.6270   73.9580   56.8540 C   0  0  0  0  0  0  0  0  0  0  0  0
   39.1790   75.2730   56.9270 C   0  0  0  0  0  0  0  0  0  0  0  0
   39.4090   75.9700   58.1320 C   0  0  0  0  0  0  0  0  0  0  0  0
   40.0510   75.3190   59.1420 N   0  0  0  0  0  0  0  0  0  0  0  0
   40.4650   74.0520   59.0290 C   0  0  0  0  0  0  0  0  0  0  0  0
   40.2510   73.3830   57.8900 N   0  0  0  0  0  0  0  0  0  0  0  0
   39.4480   73.4190   55.9210 H   0  0  0  0  0  0  0  0  0  0  0  0
   39.0720   77.0090   58.2300 H   0  0  0  0  0  0  0  0  0  0  0  0
   38.5180   75.8840   55.8320 N   0  0  0  0  0  0  0  0  0  0  0  0
   39.3550   76.3680   54.9090 C   0  0  0  0  0  0  0  0  0  0  0  0
   38.8120   76.9920   53.7830 C   0  0  0  0  0  0  0  0  0  0  0  0
   37.4270   77.0860   53.6640 C   0  0  0  0  0  0  0  0  0  0  0  0
   36.8390   77.6260   52.6950 O   0  0  0  0  0  0  0  0  0  0  0  0
   36.6450   76.5640   54.6510 N   0  0  0  0  0  0  0  0  0  0  0  0
   37.1770   75.9570   55.7470 C   0  0  0  0  0  0  0  0  0  0  0  0
   36.4720   75.4800   56.6500 O   0  0  0  0  0  0  0  0  0  0  0  0
   40.4330   76.3180   54.9600 H   0  0  0  0  0  0  0  0  0  0  0  0
   39.4260   77.4100   52.9940 H   0  0  0  0  0  0  0  0  0  0  0  0
   35.6030   76.6140   54.5990 H   0  0  0  0  0  0  0  0  0  0  0  0
   42.5170   73.3510   60.2440 C   0  0  0  0  0  0  0  0  0  0  0  0
   41.1420   73.4590   60.1780 C   0  0  0  0  0  0  0  0  0  0  0  0
   40.3670   72.9970   61.2210 C   0  0  0  0  0  0  0  0  0  0  0  0
   39.2860   73.0570   61.2220 H   0  0  0  0  0  0  0  0  0  0  0  0
   40.9060   72.4120   62.3690 C   0  0  0  0  0  0  0  0  0  0  0  0
   40.3020   72.0500   63.1860 H   0  0  0  0  0  0  0  0  0  0  0  0
   42.2800   72.3020   62.4380 C   0  0  0  0  0  3  0  0  0  0  0  0
   43.0570   72.7650   61.3940 C   0  0  0  0  0  3  0  0  0  0  0  0
   43.0610   75.0940   58.3830 H   0  0  0  0  0  0  0  0  0  0  0  0
   43.5150   73.9320   58.9290 S   0  0  0  0  0  0  0  0  0  0  0  0
   43.6700   72.8470   57.8870 O   0  0  0  0  0  0  0  0  0  0  0  0
   44.9090   74.1460   59.4930 O   0  0  0  0  0  0  0  0  0  0  0  0
  1  2  2  0  0  0  0
  1  6  1  0  0  0  0
  2  3  1  0  0  0  0
  3  8  1  0  0  0  0
  3  4  2  0  0  0  0
  5  4  1  0  0  0  0
  5 21  1  0  0  0  0
  6  5  2  0  0  0  0
  7  1  1  0  0  0  0
  9  2  1  0  0  0  0
 10 17  1  0  0  0  0
 10  9  1  0  0  0  0
 11 10  2  0  0  0  0
 12 11  1  0  0  0  0
 12 14  1  0  0  0  0
 13 12  2  0  0  0  0
 14 15  1  0  0  0  0
 15  9  1  0  0  0  0
 15 16  2  0  0  0  0
 18 11  1  0  0  0  0
 19 14  1  0  0  0  0
 20 27  1  0  0  0  0
 21 20  2  0  0  0  0
 21 22  1  0  0  0  0
 22 23  1  0  0  0  0
 22 24  2  0  0  0  0
 24 26  1  0  0  0  0
 24 25  1  0  0  0  0
 27 26  2  0  0  0  0
 28 29  1  0  0  0  0
 29 31  2  0  0  0  0
 29 20  1  0  0  0  0
 30 29  2  0  0  0  0
M  END
>  <minimizedAffinity>
-5.32449627

$$$$

 OpenBabel03212520303D

 31 33  0  0  0  0  0  0  0  0999 V2000
   40.5840   74.4770   57.6490 C   0  0  0  0  0  0  0  0  0  0  0  0
   39.1930   74.4510   57.6040 C   0  0  0  0  0  0  0  0  0  0  0  0
   38.5300   73.6050   58.5170 C   0  0  0  0  0  0  0  0  0  0  0  0
   39.2860   72.8700   59.3810 N   0  0  0  0  0  0  0  0  0  0  0  0
   40.6220   72.9260   59.3910 C   0  0  0  0  0  0  0  0  0  0  0  0
   41.2590   73.7250   58.5280 N   0  0  0  0  0  0  0  0  0  0  0  0
   41.0960   75.1330   56.9420 H   0  0  0  0  0  0  0  0  0  0  0  0
   37.4350   73.5560   58.5140 H   0  0  0  0  0  0  0  0  0  0  0  0
   38.4770   75.2460   56.6750 N   0  0  0  0  0  0  0  0  0  0  0  0
   38.1690   74.5980   55.5460 C   0  0  0  0  0  0  0  0  0  0  0  0
   37.4610   75.2860   54.5580 C   0  0  0  0  0  0  0  0  0  0  0  0
   37.1020   76.6130   54.7830 C   0  0  0  0  0  0  0  0  0  0  0  0
   36.4670   77.3200   53.9620 O   0  0  0  0  0  0  0  0  0  0  0  0
   37.4550   77.1990   55.9620 N   0  0  0  0  0  0  0  0  0  0  0  0
   38.1450   76.5270   56.9240 C   0  0  0  0  0  0  0  0  0  0  0  0
   38.4690   77.0520   58.0000 O   0  0  0  0  0  0  0  0  0  0  0  0
   38.4270   73.5710   55.3290 H   0  0  0  0  0  0  0  0  0  0  0  0
   37.1770   74.8290   53.6170 H   0  0  0  0  0  0  0  0  0  0  0  0
   37.2040   78.1920   56.1690 H   0  0  0  0  0  0  0  0  0  0  0  0
   41.7960   70.8350   60.0450 C   0  0  0  0  0  0  0  0  0  0  0  0
   41.3240   72.0930   60.3630 C   0  0  0  0  0  0  0  0  0  0  0  0
   41.5110   72.5950   61.6340 C   0  0  0  0  0  0  0  0  0  0  0  0
   41.1610   73.5750   61.9360 H   0  0  0  0  0  0  0  0  0  0  0  0
   42.1670   71.8880   62.6430 C   0  0  0  0  0  0  0  0  0  0  0  0
   42.3150   72.2780   63.6380 H   0  0  0  0  0  0  0  0  0  0  0  0
   42.6400   70.6290   62.3280 C   0  0  0  0  0  3  0  0  0  0  0  0
   42.4530   70.1260   61.0560 C   0  0  0  0  0  3  0  0  0  0  0  0
   41.1010   71.1020   57.5470 H   0  0  0  0  0  0  0  0  0  0  0  0
   41.5660   70.1820   58.4380 S   0  0  0  0  0  0  0  0  0  0  0  0
   40.6720   68.9640   58.5030 O   0  0  0  0  0  0  0  0  0  0  0  0
   42.9150   69.6620   57.9740 O   0  0  0  0  0  0  0  0  0  0  0  0
  1  6  1  0  0  0  0
  2  1  2  0  0  0  0
  2  3  1  0  0  0  0
  3  4  2  0  0  0  0
  4  5  1  0  0  0  0
  5 21  1  0  0  0  0
  6  5  2  0  0  0  0
  7  1  1  0  0  0  0
  8  3  1  0  0  0  0
  9 15  1  0  0  0  0
  9  2  1  0  0  0  0
 10  9  1  0  0  0  0
 11 12  1  0  0  0  0
 11 10  2  0  0  0  0
 12 14  1  0  0  0  0
 13 12  2  0  0  0  0
 14 19  1  0  0  0  0
 14 15  1  0  0  0  0
 15 16  2  0  0  0  0
 17 10  1  0  0  0  0
 18 11  1  0  0  0  0
 20 21  2  0  0  0  0
 20 27  1  0  0  0  0
 21 22  1  0  0  0  0
 22 23  1  0  0  0  0
 22 24  2  0  0  0  0
 24 25  1  0  0  0  0
 26 24  1  0  0  0  0
 27 26  2  0  0  0  0
 28 29  1  0  0  0  0
 29 30  2  0  0  0  0
 29 20  1  0  0  0  0
 31 29  2  0  0  0  0
M  END
>  <minimizedAffinity>
-5.27195644

$$$$

 OpenBabel03212520303D

 31 33  0  0  0  0  0  0  0  0999 V2000
   41.0650   70.9750   59.2900 C   0  0  0  0  0  0  0  0  0  0  0  0
   41.5870   71.8430   60.2450 C   0  0  0  0  0  0  0  0  0  0  0  0
   42.5770   71.3340   61.1110 C   0  0  0  0  0  0  0  0  0  0  0  0
   42.9580   70.0340   60.9620 N   0  0  0  0  0  0  0  0  0  0  0  0
   42.4290   69.2340   60.0300 C   0  0  0  0  0  0  0  0  0  0  0  0
   41.4890   69.7090   59.2040 N   0  0  0  0  0  0  0  0  0  0  0  0
   40.2990   71.3710   58.6200 H   0  0  0  0  0  0  0  0  0  0  0  0
   43.0150   71.9850   61.8780 H   0  0  0  0  0  0  0  0  0  0  0  0
   41.1390   73.1840   60.3390 N   0  0  0  0  0  0  0  0  0  0  0  0
   41.7400   74.0070   59.4730 C   0  0  0  0  0  0  0  0  0  0  0  0
   41.3760   75.3560   59.4770 C   0  0  0  0  0  0  0  0  0  0  0  0
   40.4040   75.7910   60.3760 C   0  0  0  0  0  0  0  0  0  0  0  0
   40.0050   76.9790   60.4610 O   0  0  0  0  0  0  0  0  0  0  0  0
   39.8400   74.8850   61.2240 N   0  0  0  0  0  0  0  0  0  0  0  0
   40.1980   73.5720   61.2190 C   0  0  0  0  0  0  0  0  0  0  0  0
   39.6890   72.7410   61.9880 O   0  0  0  0  0  0  0  0  0  0  0  0
   42.4980   73.7140   58.7600 H   0  0  0  0  0  0  0  0  0  0  0  0
   41.8180   76.0830   58.8070 H   0  0  0  0  0  0  0  0  0  0  0  0
   39.1080   75.1710   61.9130 H   0  0  0  0  0  0  0  0  0  0  0  0
   42.3350   66.8400   60.6900 C   0  0  0  0  0  0  0  0  0  0  0  0
   42.9170   67.8600   59.9650 C   0  0  0  0  0  0  0  0  0  0  0  0
   43.9970   67.5920   59.1490 C   0  0  0  0  0  0  0  0  0  0  0  0
   44.4910   68.3530   58.5580 H   0  0  0  0  0  0  0  0  0  0  0  0
   44.5470   66.3160   59.0090 C   0  0  0  0  0  0  0  0  0  0  0  0
   45.3910   66.1040   58.3710 H   0  0  0  0  0  0  0  0  0  0  0  0
   43.9670   65.2940   59.7330 C   0  0  0  0  0  3  0  0  0  0  0  0
   42.8860   65.5620   60.5510 C   0  0  0  0  0  3  0  0  0  0  0  0
   40.0420   67.9860   61.1630 H   0  0  0  0  0  0  0  0  0  0  0  0
   40.9670   67.1630   61.7310 S   0  0  0  0  0  0  0  0  0  0  0  0
   41.4500   67.6980   63.0610 O   0  0  0  0  0  0  0  0  0  0  0  0
   40.3260   65.8230   62.0500 O   0  0  0  0  0  0  0  0  0  0  0  0
  1  2  1  0  0  0  0
  2  9  1  0  0  0  0
  2  3  2  0  0  0  0
  3  8  1  0  0  0  0
  4  3  1  0  0  0  0
  5  4  2  0  0  0  0
  6  1  2  0  0  0  0
  6  5  1  0  0  0  0
  7  1  1  0  0  0  0
  9 15  1  0  0  0  0
 10 11  2  0  0  0  0
 10  9  1  0  0  0  0
 11 12  1  0  0  0  0
 12 13  2  0  0  0  0
 12 14  1  0  0  0  0
 14 19  1  0  0  0  0
 15 14  1  0  0  0  0
 15 16  2  0  0  0  0
 17 10  1  0  0  0  0
 18 11  1  0  0  0  0
 20 29  1  0  0  0  0
 21  5  1  0  0  0  0
 21 20  2  0  0  0  0
 22 21  1  0  0  0  0
 23 22  1  0  0  0  0
 24 22  2  0  0  0  0
 24 26  1  0  0  0  0
 25 24  1  0  0  0  0
 26 27  2  0  0  0  0
 27 20  1  0  0  0  0
 28 29  1  0  0  0  0
 29 31  2  0  0  0  0
 29 30  2  0  0  0  0
M  END
>  <minimizedAffinity>
-5.25260878

$$$$

 OpenBabel03212520303D

 31 33  0  0  0  0  0  0  0  0999 V2000
   41.4710   73.0610   57.9250 C   0  0  0  0  0  0  0  0  0  0  0  0
   40.2400   73.2610   58.5430 C   0  0  0  0  0  0  0  0  0  0  0  0
   39.1880   72.3890   58.1910 C   0  0  0  0  0  0  0  0  0  0  0  0
   39.4390   71.4120   57.2750 N   0  0  0  0  0  0  0  0  0  0  0  0
   40.6390   71.2540   56.7050 C   0  0  0  0  0  0  0  0  0  0  0  0
   41.6420   72.0780   57.0330 N   0  0  0  0  0  0  0  0  0  0  0  0
   42.2840   73.7360   58.1980 H   0  0  0  0  0  0  0  0  0  0  0  0
   38.2020   72.5130   58.6550 H   0  0  0  0  0  0  0  0  0  0  0  0
   40.0550   74.3010   59.4870 N   0  0  0  0  0  0  0  0  0  0  0  0
   40.0040   75.5180   58.9350 C   0  0  0  0  0  0  0  0  0  0  0  0
   39.8250   76.6210   59.7740 C   0  0  0  0  0  0  0  0  0  0  0  0
   39.7050   76.4130   61.1470 C   0  0  0  0  0  0  0  0  0  0  0  0
   39.5410   77.3330   61.9860 O   0  0  0  0  0  0  0  0  0  0  0  0
   39.7670   75.1390   61.6270 N   0  0  0  0  0  0  0  0  0  0  0  0
   39.9420   74.0670   60.8080 C   0  0  0  0  0  0  0  0  0  0  0  0
   39.9990   72.9040   61.2370 O   0  0  0  0  0  0  0  0  0  0  0  0
   40.0930   75.7250   57.8780 H   0  0  0  0  0  0  0  0  0  0  0  0
   39.7750   77.6370   59.4010 H   0  0  0  0  0  0  0  0  0  0  0  0
   39.6810   74.9420   62.6490 H   0  0  0  0  0  0  0  0  0  0  0  0
   41.3720   68.9650   56.0720 C   0  0  0  0  0  0  0  0  0  0  0  0
   40.7890   70.1720   55.7380 C   0  0  0  0  0  0  0  0  0  0  0  0
   40.3280   70.3790   54.4540 C   0  0  0  0  0  0  0  0  0  0  0  0
   39.8630   71.3040   54.1390 H   0  0  0  0  0  0  0  0  0  0  0  0
   40.4190   69.4150   53.4480 C   0  0  0  0  0  0  0  0  0  0  0  0
   40.0600   69.5740   52.4430 H   0  0  0  0  0  0  0  0  0  0  0  0
   41.0020   68.2080   53.7790 C   0  0  0  0  0  3  0  0  0  0  0  0
   41.4630   68.0000   55.0640 C   0  0  0  0  0  3  0  0  0  0  0  0
   42.2290   69.8370   58.3740 H   0  0  0  0  0  0  0  0  0  0  0  0
   41.9620   68.6870   57.6950 S   0  0  0  0  0  0  0  0  0  0  0  0
   43.1650   67.7710   57.6520 O   0  0  0  0  0  0  0  0  0  0  0  0
   40.8890   67.9010   58.4280 O   0  0  0  0  0  0  0  0  0  0  0  0
  1  7  1  0  0  0  0
  1  2  1  0  0  0  0
  2  9  1  0  0  0  0
  3  2  2  0  0  0  0
  3  8  1  0  0  0  0
  4  3  1  0  0  0  0
  5  6  1  0  0  0  0
  5  4  2  0  0  0  0
  6  1  2  0  0  0  0
  9 15  1  0  0  0  0
 10  9  1  0  0  0  0
 10 11  2  0  0  0  0
 11 12  1  0  0  0  0
 12 14  1  0  0  0  0
 12 13  2  0  0  0  0
 14 19  1  0  0  0  0
 15 16  2  0  0  0  0
 15 14  1  0  0  0  0
 17 10  1  0  0  0  0
 18 11  1  0  0  0  0
 20 29  1  0  0  0  0
 21 20  1  0  0  0  0
 21  5  1  0  0  0  0
 22 21  2  0  0  0  0
 23 22  1  0  0  0  0
 24 26  2  0  0  0  0
 24 22  1  0  0  0  0
 25 24  1  0  0  0  0
 26 27  1  0  0  0  0
 27 20  2  0  0  0  0
 29 28  1  0  0  0  0
 29 31  2  0  0  0  0
 30 29  2  0  0  0  0
M  END
>  <minimizedAffinity>
-5.24531078

$$$$

 OpenBabel03212520303D

 31 33  0  0  0  0  0  0  0  0999 V2000
   41.7660   71.7660   61.3220 C   0  0  0  0  0  0  0  0  0  0  0  0
   41.2620   72.3980   60.1890 C   0  0  0  0  0  0  0  0  0  0  0  0
   41.1300   71.6220   59.0180 C   0  0  0  0  0  0  0  0  0  0  0  0
   41.5020   70.3120   59.0670 N   0  0  0  0  0  0  0  0  0  0  0  0
   41.9830   69.7440   60.1780 C   0  0  0  0  0  0  0  0  0  0  0  0
   42.1120   70.4730   61.2940 N   0  0  0  0  0  0  0  0  0  0  0  0
   41.8670   72.3680   62.2270 H   0  0  0  0  0  0  0  0  0  0  0  0
   40.7360   72.0820   58.1040 H   0  0  0  0  0  0  0  0  0  0  0  0
   40.8950   73.7660   60.2160 N   0  0  0  0  0  0  0  0  0  0  0  0
   41.7790   74.5650   59.6080 C   0  0  0  0  0  0  0  0  0  0  0  0
   41.5190   75.9370   59.5740 C   0  0  0  0  0  0  0  0  0  0  0  0
   40.3550   76.4200   60.1690 C   0  0  0  0  0  0  0  0  0  0  0  0
   40.0280   77.6330   60.1950 O   0  0  0  0  0  0  0  0  0  0  0  0
   39.5070   75.5370   60.7670 N   0  0  0  0  0  0  0  0  0  0  0  0
   39.7630   74.2000   60.8000 C   0  0  0  0  0  0  0  0  0  0  0  0
   38.9960   73.3890   61.3410 O   0  0  0  0  0  0  0  0  0  0  0  0
   42.6920   74.2350   59.1350 H   0  0  0  0  0  0  0  0  0  0  0  0
   42.1880   76.6470   59.1010 H   0  0  0  0  0  0  0  0  0  0  0  0
   38.6250   75.8590   61.2240 H   0  0  0  0  0  0  0  0  0  0  0  0
   43.6420   67.9210   59.8590 C   0  0  0  0  0  0  0  0  0  0  0  0
   42.3480   68.3320   60.1110 C   0  0  0  0  0  0  0  0  0  0  0  0
   41.3560   67.3950   60.3060 C   0  0  0  0  0  0  0  0  0  0  0  0
   40.3250   67.6620   60.5070 H   0  0  0  0  0  0  0  0  0  0  0  0
   41.5890   66.0180   60.2640 C   0  0  0  0  0  0  0  0  0  0  0  0
   40.8150   65.2830   60.4160 H   0  0  0  0  0  0  0  0  0  0  0  0
   42.8820   65.6040   60.0120 C   0  0  0  0  0  3  0  0  0  0  0  0
   43.8760   66.5420   59.8160 C   0  0  0  0  0  3  0  0  0  0  0  0
   44.7760   70.2080   60.3840 H   0  0  0  0  0  0  0  0  0  0  0  0
   44.9120   69.0970   59.6070 S   0  0  0  0  0  0  0  0  0  0  0  0
   45.0010   69.4480   58.1390 O   0  0  0  0  0  0  0  0  0  0  0  0
   46.2260   68.4070   59.9320 O   0  0  0  0  0  0  0  0  0  0  0  0
  1  7  1  0  0  0  0
  2  9  1  0  0  0  0
  2  1  2  0  0  0  0
  3  4  2  0  0  0  0
  3  2  1  0  0  0  0
  4  5  1  0  0  0  0
  5  6  2  0  0  0  0
  6  1  1  0  0  0  0
  8  3  1  0  0  0  0
  9 15  1  0  0  0  0
 10  9  1  0  0  0  0
 11 10  2  0  0  0  0
 11 12  1  0  0  0  0
 12 13  2  0  0  0  0
 12 14  1  0  0  0  0
 14 15  1  0  0  0  0
 14 19  1  0  0  0  0
 15 16  2  0  0  0  0
 17 10  1  0  0  0  0
 18 11  1  0  0  0  0
 20 21  1  0  0  0  0
 21  5  1  0  0  0  0
 21 22  2  0  0  0  0
 22 23  1  0  0  0  0
 24 22  1  0  0  0  0
 24 25  1  0  0  0  0
 26 24  2  0  0  0  0
 27 20  2  0  0  0  0
 27 26  1  0  0  0  0
 29 20  1  0  0  0  0
 29 31  2  0  0  0  0
 29 28  1  0  0  0  0
 30 29  2  0  0  0  0
M  END
>  <minimizedAffinity>
-5.19970226

$$$$
