
 OpenBabel03212520383D

 29 31  0  0  1  0  0  0  0  0999 V2000
   42.7250   85.5870   60.0910 C   0  0  1  0  0  0  0  0  0  0  0  0
   44.0170   86.3790   60.1420 C   0  0  0  0  0  0  0  0  0  0  0  0
   43.5400   85.6950   58.8590 C   0  0  1  0  0  0  0  0  0  0  0  0
   41.7820   86.1950   60.2080 H   0  0  0  0  0  0  0  0  0  0  0  0
   44.8530   85.9450   60.6890 H   0  0  0  0  0  0  0  0  0  0  0  0
   43.9100   87.4790   60.1080 H   0  0  0  0  0  0  0  0  0  0  0  0
   43.1730   86.3410   58.0270 H   0  0  0  0  0  0  0  0  0  0  0  0
   43.7950   83.8300   57.4250 C   0  0  0  0  0  0  0  0  0  0  0  0
   44.4240   84.5870   58.4240 C   0  0  0  0  0  0  0  0  0  0  0  0
   45.6850   84.2030   58.8200 C   0  0  0  0  0  0  0  0  0  0  0  0
   46.0790   84.8390   59.5870 H   0  0  0  0  0  0  0  0  0  0  0  0
   46.3120   83.1120   58.2590 C   0  0  0  0  0  0  0  0  0  0  0  0
   47.2990   82.8880   58.6330 H   0  0  0  0  0  0  0  0  0  0  0  0
   45.7070   82.3590   57.2750 C   0  0  0  0  0  3  0  0  0  0  0  0
   44.4430   82.7270   56.8640 C   0  0  0  0  0  3  0  0  0  0  0  0
   41.4140   84.8070   57.5760 H   0  0  0  0  0  0  0  0  0  0  0  0
   42.2060   84.0830   56.7270 S   0  0  0  0  0  0  0  0  0  0  0  0
   41.4970   82.7440   56.5710 O   0  0  0  0  0  0  0  0  0  0  0  0
   42.3140   84.7800   55.3920 O   0  0  0  0  0  0  0  0  0  0  0  0
   42.7540   84.3980   60.8230 O   0  0  0  0  0  0  0  0  0  0  0  0
   40.0010   83.5580   63.0180 C   0  0  0  0  0  0  0  0  0  0  0  0
   40.5450   83.8450   64.2810 C   0  0  0  0  0  0  0  0  0  0  0  0
   41.8790   84.3320   64.3330 C   0  0  0  0  0  0  0  0  0  0  0  0
   42.5100   84.4740   63.1500 N   0  0  0  0  0  0  0  0  0  0  0  0
   41.9680   84.1920   61.9480 C   0  0  0  0  0  0  0  0  0  0  0  0
   40.7110   83.7330   61.8830 N   0  0  0  0  0  0  0  0  0  0  0  0
   39.0040   83.1960   62.9990 H   0  0  0  0  0  0  0  0  0  0  0  0
   39.9820   83.7070   65.1950 H   0  0  0  0  0  0  0  0  0  0  0  0
   42.3490   84.5690   65.2760 H   0  0  0  0  0  0  0  0  0  0  0  0
  1  2  1  0  0  0  0
  1  4  1  1  0  0  0
  1 20  1  0  0  0  0
  2  5  1  0  0  0  0
  3  7  1  6  0  0  0
  3  1  1  0  0  0  0
  3  2  1  0  0  0  0
  6  2  1  0  0  0  0
  8  9  1  0  0  0  0
  9 10  2  0  0  0  0
  9  3  1  0  0  0  0
 10 11  1  0  0  0  0
 12 13  1  0  0  0  0
 12 10  1  0  0  0  0
 14 12  2  0  0  0  0
 15 14  1  0  0  0  0
 15  8  2  0  0  0  0
 17  8  1  0  0  0  0
 17 16  1  0  0  0  0
 18 17  2  0  0  0  0
 19 17  2  0  0  0  0
 20 25  1  0  0  0  0
 21 22  1  0  0  0  0
 22 23  2  0  0  0  0
 22 28  1  0  0  0  0
 23 29  1  0  0  0  0
 24 23  1  0  0  0  0
 25 24  2  0  0  0  0
 26 25  1  0  0  0  0
 26 21  2  0  0  0  0
 27 21  1  0  0  0  0
M  END
>  <minimizedAffinity>
-4.06200361

>  <minimizedRMSD>
0.554549098

$$$$
