
 OpenBabel03212521033D

 31 33  0  0  0  0  0  0  0  0999 V2000
   41.9770   83.7650   60.8950 C   0  0  0  0  0  0  0  0  0  0  0  0
   41.4900   84.0040   62.1790 C   0  0  0  0  0  0  0  0  0  0  0  0
   40.1570   84.0260   62.4950 C   0  0  0  0  0  0  0  0  0  0  0  0
   39.2550   83.7950   61.4670 C   0  0  0  0  0  0  0  0  0  0  0  0
   39.7230   83.5530   60.1780 C   0  0  0  0  0  0  0  0  0  0  0  0
   41.0810   83.5320   59.8610 C   0  0  0  0  0  0  0  0  0  0  0  0
   42.2260   84.1780   62.9480 H   0  0  0  0  0  0  0  0  0  0  0  0
   39.8930   84.2190   63.5150 H   0  0  0  0  0  0  0  0  0  0  0  0
   38.2030   83.8070   61.6990 H   0  0  0  0  0  0  0  0  0  0  0  0
   39.0040   83.3760   59.3900 H   0  0  0  0  0  0  0  0  0  0  0  0
   45.4330   82.5940   60.5350 C   0  0  0  0  0  0  0  0  0  0  0  0
   46.1280   83.7800   60.2290 C   0  0  0  0  0  0  0  0  0  0  0  0
   45.3940   84.9670   60.1500 C   0  0  0  0  0  0  0  0  0  0  0  0
   44.0540   84.9320   60.3690 N   0  0  0  0  0  0  0  0  0  0  0  0
   43.4170   83.7580   60.6650 C   0  0  0  0  0  0  0  0  0  0  0  0
   44.0960   82.6000   60.7470 N   0  0  0  0  0  0  0  0  0  0  0  0
   45.9270   81.6480   60.6130 H   0  0  0  0  0  0  0  0  0  0  0  0
   47.1890   83.7390   60.0670 H   0  0  0  0  0  0  0  0  0  0  0  0
   45.9290   85.8690   59.9150 H   0  0  0  0  0  0  0  0  0  0  0  0
   41.6410   84.4100   57.6840 C   0  0  0  0  0  0  0  0  0  0  0  0
   41.5350   83.2840   58.4980 C   0  0  0  0  0  0  0  0  0  0  0  0
   41.8450   82.0250   58.0250 C   0  0  0  0  0  0  0  0  0  0  0  0
   41.7300   81.2060   58.7400 H   0  0  0  0  0  0  0  0  0  0  0  0
   42.2710   81.8830   56.7160 C   0  0  0  0  0  0  0  0  0  0  0  0
   42.4980   80.8570   56.4120 H   0  0  0  0  0  0  0  0  0  0  0  0
   42.3810   82.9930   55.8950 C   0  0  0  0  0  3  0  0  0  0  0  0
   42.0660   84.2540   56.3780 C   0  0  0  0  0  3  0  0  0  0  0  0
   40.8860   86.1850   59.4200 H   0  0  0  0  0  0  0  0  0  0  0  0
   41.2820   86.0500   58.1340 S   0  0  0  0  0  0  0  0  0  0  0  0
   40.1360   86.5100   57.2560 O   0  0  0  0  0  0  0  0  0  0  0  0
   42.4930   86.8960   57.8480 O   0  0  0  0  0  0  0  0  0  0  0  0
  1  2  1  0  0  0  0
  2  3  2  0  0  0  0
  2  7  1  0  0  0  0
  3  8  1  0  0  0  0
  4  9  1  0  0  0  0
  4  3  1  0  0  0  0
  5  4  2  0  0  0  0
  6  5  1  0  0  0  0
  6  1  2  0  0  0  0
 10  5  1  0  0  0  0
 11 17  1  0  0  0  0
 11 16  1  0  0  0  0
 12 11  2  0  0  0  0
 13 12  1  0  0  0  0
 13 14  2  0  0  0  0
 14 15  1  0  0  0  0
 15 16  2  0  0  0  0
 15  1  1  0  0  0  0
 18 12  1  0  0  0  0
 19 13  1  0  0  0  0
 20 29  1  0  0  0  0
 20 21  1  0  0  0  0
 21  6  1  0  0  0  0
 22 21  2  0  0  0  0
 22 23  1  0  0  0  0
 24 22  1  0  0  0  0
 25 24  1  0  0  0  0
 26 27  1  0  0  0  0
 26 24  2  0  0  0  0
 27 20  2  0  0  0  0
 29 28  1  0  0  0  0
 30 29  2  0  0  0  0
 31 29  2  0  0  0  0
M  END
>  <minimizedAffinity>
-5.05955172

>  <minimizedRMSD>
3.11729622

$$$$
