
 OpenBabel03212521033D

 31 33  0  0  0  0  0  0  0  0999 V2000
   42.3420   84.4600   62.6210 C   0  0  0  0  0  0  0  0  0  0  0  0
   42.2780   84.5700   64.0090 C   0  0  0  0  0  0  0  0  0  0  0  0
   41.1620   84.2670   64.7460 C   0  0  0  0  0  0  0  0  0  0  0  0
   40.0440   83.8280   64.0540 C   0  0  0  0  0  0  0  0  0  0  0  0
   40.0880   83.7110   62.6670 C   0  0  0  0  0  0  0  0  0  0  0  0
   41.2260   84.0210   61.9210 C   0  0  0  0  0  0  0  0  0  0  0  0
   43.1710   84.9140   64.5060 H   0  0  0  0  0  0  0  0  0  0  0  0
   41.2230   84.3870   65.8080 H   0  0  0  0  0  0  0  0  0  0  0  0
   39.1580   83.5840   64.6180 H   0  0  0  0  0  0  0  0  0  0  0  0
   39.2050   83.3680   62.1470 H   0  0  0  0  0  0  0  0  0  0  0  0
   45.6160   84.1530   61.0000 C   0  0  0  0  0  0  0  0  0  0  0  0
   45.9040   85.4840   60.6360 C   0  0  0  0  0  0  0  0  0  0  0  0
   44.9630   86.4670   60.9540 C   0  0  0  0  0  0  0  0  0  0  0  0
   43.8200   86.1070   61.5950 N   0  0  0  0  0  0  0  0  0  0  0  0
   43.5800   84.8030   61.9320 C   0  0  0  0  0  0  0  0  0  0  0  0
   44.4660   83.8350   61.6380 N   0  0  0  0  0  0  0  0  0  0  0  0
   46.2880   83.3470   60.7910 H   0  0  0  0  0  0  0  0  0  0  0  0
   46.8260   85.7010   60.1310 H   0  0  0  0  0  0  0  0  0  0  0  0
   45.1870   87.4800   60.6730 H   0  0  0  0  0  0  0  0  0  0  0  0
   41.4430   82.6070   59.9790 C   0  0  0  0  0  0  0  0  0  0  0  0
   41.2350   83.8940   60.4690 C   0  0  0  0  0  0  0  0  0  0  0  0
   41.0490   84.9640   59.6190 C   0  0  0  0  0  0  0  0  0  0  0  0
   40.8930   85.9340   60.1000 H   0  0  0  0  0  0  0  0  0  0  0  0
   41.0710   84.7500   58.2510 C   0  0  0  0  0  0  0  0  0  0  0  0
   40.9180   85.6450   57.6400 H   0  0  0  0  0  0  0  0  0  0  0  0
   41.2770   83.4770   57.7480 C   0  0  0  0  0  3  0  0  0  0  0  0
   41.4620   82.4060   58.6110 C   0  0  0  0  0  3  0  0  0  0  0  0
   42.3570   81.3870   62.0790 H   0  0  0  0  0  0  0  0  0  0  0  0
   41.6930   81.1690   60.9220 S   0  0  0  0  0  0  0  0  0  0  0  0
   42.5410   80.2320   60.0830 O   0  0  0  0  0  0  0  0  0  0  0  0
   40.3570   80.5270   61.1750 O   0  0  0  0  0  0  0  0  0  0  0  0
  1  2  1  0  0  0  0
  2  7  1  0  0  0  0
  2  3  2  0  0  0  0
  3  8  1  0  0  0  0
  4  9  1  0  0  0  0
  4  3  1  0  0  0  0
  5  4  2  0  0  0  0
  6  1  2  0  0  0  0
  6  5  1  0  0  0  0
 10  5  1  0  0  0  0
 11 16  1  0  0  0  0
 12 13  1  0  0  0  0
 12 11  2  0  0  0  0
 13 14  2  0  0  0  0
 14 15  1  0  0  0  0
 15  1  1  0  0  0  0
 16 15  2  0  0  0  0
 17 11  1  0  0  0  0
 18 12  1  0  0  0  0
 19 13  1  0  0  0  0
 20 21  1  0  0  0  0
 20 29  1  0  0  0  0
 21  6  1  0  0  0  0
 22 23  1  0  0  0  0
 22 21  2  0  0  0  0
 24 22  1  0  0  0  0
 25 24  1  0  0  0  0
 26 24  2  0  0  0  0
 26 27  1  0  0  0  0
 27 20  2  0  0  0  0
 29 31  2  0  0  0  0
 29 28  1  0  0  0  0
 30 29  2  0  0  0  0
M  END
>  <minimizedAffinity>
-5.26721716

>  <minimizedRMSD>
2.21806335

$$$$
