
 OpenBabel03212520383D

 29 31  0  0  1  0  0  0  0  0999 V2000
   42.8170   85.5970   60.1190 C   0  0  1  0  0  0  0  0  0  0  0  0
   44.1160   86.3770   60.1030 C   0  0  0  0  0  0  0  0  0  0  0  0
   43.5820   85.6740   58.8530 C   0  0  1  0  0  0  0  0  0  0  0  0
   41.8840   86.2160   60.2620 H   0  0  0  0  0  0  0  0  0  0  0  0
   44.9690   85.9450   60.6240 H   0  0  0  0  0  0  0  0  0  0  0  0
   44.0180   87.4770   60.0520 H   0  0  0  0  0  0  0  0  0  0  0  0
   43.1880   86.3080   58.0240 H   0  0  0  0  0  0  0  0  0  0  0  0
   43.7550   83.7670   57.4630 C   0  0  0  0  0  0  0  0  0  0  0  0
   44.4380   84.5500   58.4040 C   0  0  0  0  0  0  0  0  0  0  0  0
   45.7170   84.1700   58.7450 C   0  0  0  0  0  0  0  0  0  0  0  0
   46.1550   84.8270   59.4710 H   0  0  0  0  0  0  0  0  0  0  0  0
   46.3090   83.0610   58.1830 C   0  0  0  0  0  0  0  0  0  0  0  0
   47.3130   82.8420   58.5120 H   0  0  0  0  0  0  0  0  0  0  0  0
   45.6490   82.2820   57.2560 C   0  0  0  0  0  3  0  0  0  0  0  0
   44.3670   82.6440   56.9010 C   0  0  0  0  0  3  0  0  0  0  0  0
   41.3110   84.5090   57.8170 H   0  0  0  0  0  0  0  0  0  0  0  0
   42.1310   84.0080   56.8440 S   0  0  0  0  0  0  0  0  0  0  0  0
   41.5210   82.6640   56.4670 O   0  0  0  0  0  0  0  0  0  0  0  0
   42.1470   84.9300   55.6480 O   0  0  0  0  0  0  0  0  0  0  0  0
   42.8640   84.4220   60.8710 O   0  0  0  0  0  0  0  0  0  0  0  0
   40.0300   83.5410   62.9440 C   0  0  0  0  0  0  0  0  0  0  0  0
   40.5230   83.8120   64.2310 C   0  0  0  0  0  0  0  0  0  0  0  0
   41.8520   84.3030   64.3420 C   0  0  0  0  0  0  0  0  0  0  0  0
   42.5270   84.4640   63.1870 N   0  0  0  0  0  0  0  0  0  0  0  0
   42.0350   84.1980   61.9610 C   0  0  0  0  0  0  0  0  0  0  0  0
   40.7830   83.7340   61.8410 N   0  0  0  0  0  0  0  0  0  0  0  0
   39.0360   83.1750   62.8810 H   0  0  0  0  0  0  0  0  0  0  0  0
   39.9250   83.6590   65.1200 H   0  0  0  0  0  0  0  0  0  0  0  0
   42.2840   84.5290   65.3060 H   0  0  0  0  0  0  0  0  0  0  0  0
  1  4  1  1  0  0  0
  1 20  1  0  0  0  0
  2  1  1  0  0  0  0
  2  5  1  0  0  0  0
  3  7  1  6  0  0  0
  3  2  1  0  0  0  0
  3  1  1  0  0  0  0
  6  2  1  0  0  0  0
  8  9  1  0  0  0  0
  9 10  2  0  0  0  0
  9  3  1  0  0  0  0
 10 11  1  0  0  0  0
 12 13  1  0  0  0  0
 12 10  1  0  0  0  0
 14 12  2  0  0  0  0
 15 14  1  0  0  0  0
 15  8  2  0  0  0  0
 17  8  1  0  0  0  0
 17 16  1  0  0  0  0
 18 17  2  0  0  0  0
 19 17  2  0  0  0  0
 20 25  1  0  0  0  0
 21 22  1  0  0  0  0
 22 23  2  0  0  0  0
 22 28  1  0  0  0  0
 23 29  1  0  0  0  0
 24 23  1  0  0  0  0
 25 24  2  0  0  0  0
 26 25  1  0  0  0  0
 26 21  2  0  0  0  0
 27 21  1  0  0  0  0
M  END
>  <minimizedAffinity>
-4.06005764

>  <minimizedRMSD>
0.916316032

$$$$
