
 OpenBabel03212520383D

 29 31  0  0  1  0  0  0  0  0999 V2000
   42.7240   85.5870   60.0910 C   0  0  1  0  0  0  0  0  0  0  0  0
   44.0150   86.3800   60.1420 C   0  0  0  0  0  0  0  0  0  0  0  0
   43.5380   85.6960   58.8590 C   0  0  1  0  0  0  0  0  0  0  0  0
   41.7800   86.1940   60.2080 H   0  0  0  0  0  0  0  0  0  0  0  0
   44.8510   85.9460   60.6890 H   0  0  0  0  0  0  0  0  0  0  0  0
   43.9070   87.4800   60.1080 H   0  0  0  0  0  0  0  0  0  0  0  0
   43.1720   86.3420   58.0270 H   0  0  0  0  0  0  0  0  0  0  0  0
   43.7960   83.8330   57.4240 C   0  0  0  0  0  0  0  0  0  0  0  0
   44.4240   84.5890   58.4230 C   0  0  0  0  0  0  0  0  0  0  0  0
   45.6850   84.2050   58.8210 C   0  0  0  0  0  0  0  0  0  0  0  0
   46.0780   84.8410   59.5900 H   0  0  0  0  0  0  0  0  0  0  0  0
   46.3120   83.1160   58.2590 C   0  0  0  0  0  0  0  0  0  0  0  0
   47.2990   82.8910   58.6350 H   0  0  0  0  0  0  0  0  0  0  0  0
   45.7090   82.3620   57.2740 C   0  0  0  0  0  3  0  0  0  0  0  0
   44.4450   82.7300   56.8620 C   0  0  0  0  0  3  0  0  0  0  0  0
   41.4180   84.8140   57.5690 H   0  0  0  0  0  0  0  0  0  0  0  0
   42.2070   84.0850   56.7240 S   0  0  0  0  0  0  0  0  0  0  0  0
   41.4960   82.7480   56.5730 O   0  0  0  0  0  0  0  0  0  0  0  0
   42.3170   84.7770   55.3860 O   0  0  0  0  0  0  0  0  0  0  0  0
   42.7530   84.3990   60.8230 O   0  0  0  0  0  0  0  0  0  0  0  0
   40.0010   83.5580   63.0180 C   0  0  0  0  0  0  0  0  0  0  0  0
   40.5450   83.8440   64.2810 C   0  0  0  0  0  0  0  0  0  0  0  0
   41.8790   84.3310   64.3330 C   0  0  0  0  0  0  0  0  0  0  0  0
   42.5090   84.4740   63.1490 N   0  0  0  0  0  0  0  0  0  0  0  0
   41.9670   84.1920   61.9470 C   0  0  0  0  0  0  0  0  0  0  0  0
   40.7100   83.7330   61.8830 N   0  0  0  0  0  0  0  0  0  0  0  0
   39.0040   83.1960   63.0000 H   0  0  0  0  0  0  0  0  0  0  0  0
   39.9830   83.7060   65.1950 H   0  0  0  0  0  0  0  0  0  0  0  0
   42.3500   84.5680   65.2750 H   0  0  0  0  0  0  0  0  0  0  0  0
  1  2  1  0  0  0  0
  1  4  1  1  0  0  0
  1 20  1  0  0  0  0
  2  5  1  0  0  0  0
  3  7  1  6  0  0  0
  3  1  1  0  0  0  0
  3  2  1  0  0  0  0
  6  2  1  0  0  0  0
  8  9  1  0  0  0  0
  9 10  2  0  0  0  0
  9  3  1  0  0  0  0
 10 11  1  0  0  0  0
 12 13  1  0  0  0  0
 12 10  1  0  0  0  0
 14 12  2  0  0  0  0
 15 14  1  0  0  0  0
 15  8  2  0  0  0  0
 17  8  1  0  0  0  0
 17 16  1  0  0  0  0
 18 17  2  0  0  0  0
 19 17  2  0  0  0  0
 20 25  1  0  0  0  0
 21 22  1  0  0  0  0
 22 23  2  0  0  0  0
 22 28  1  0  0  0  0
 23 29  1  0  0  0  0
 24 23  1  0  0  0  0
 25 24  2  0  0  0  0
 26 25  1  0  0  0  0
 26 21  2  0  0  0  0
 27 21  1  0  0  0  0
M  END
>  <minimizedAffinity>
-4.06179905

>  <minimizedRMSD>
0.70100683

$$$$
