
 OpenBabel03212521033D

 31 33  0  0  0  0  0  0  0  0999 V2000
   42.2420   83.9950   62.4440 C   0  0  0  0  0  0  0  0  0  0  0  0
   42.4300   84.5260   63.7190 C   0  0  0  0  0  0  0  0  0  0  0  0
   41.4720   84.5070   64.7000 C   0  0  0  0  0  0  0  0  0  0  0  0
   40.2530   83.9240   64.3880 C   0  0  0  0  0  0  0  0  0  0  0  0
   40.0470   83.3880   63.1190 C   0  0  0  0  0  0  0  0  0  0  0  0
   41.0240   83.4100   62.1240 C   0  0  0  0  0  0  0  0  0  0  0  0
   43.3920   84.9690   63.9180 H   0  0  0  0  0  0  0  0  0  0  0  0
   41.7230   84.9440   65.6450 H   0  0  0  0  0  0  0  0  0  0  0  0
   39.4900   83.9000   65.1480 H   0  0  0  0  0  0  0  0  0  0  0  0
   39.0900   82.9390   62.8950 H   0  0  0  0  0  0  0  0  0  0  0  0
   45.2050   83.1010   60.4790 C   0  0  0  0  0  0  0  0  0  0  0  0
   45.3640   84.2200   59.6370 C   0  0  0  0  0  0  0  0  0  0  0  0
   44.4460   85.2660   59.7600 C   0  0  0  0  0  0  0  0  0  0  0  0
   43.4470   85.1660   60.6750 N   0  0  0  0  0  0  0  0  0  0  0  0
   43.3280   84.0620   61.4740 C   0  0  0  0  0  0  0  0  0  0  0  0
   44.1960   83.0390   61.3780 N   0  0  0  0  0  0  0  0  0  0  0  0
   45.8690   82.2620   60.4430 H   0  0  0  0  0  0  0  0  0  0  0  0
   46.1760   84.2360   58.9360 H   0  0  0  0  0  0  0  0  0  0  0  0
   44.5720   86.1160   59.1150 H   0  0  0  0  0  0  0  0  0  0  0  0
   40.9600   81.4700   60.6910 C   0  0  0  0  0  0  0  0  0  0  0  0
   40.7710   82.8460   60.8040 C   0  0  0  0  0  0  0  0  0  0  0  0
   40.3680   83.6050   59.7250 C   0  0  0  0  0  0  0  0  0  0  0  0
   40.2470   84.6760   59.9150 H   0  0  0  0  0  0  0  0  0  0  0  0
   40.1480   82.9840   58.5070 C   0  0  0  0  0  0  0  0  0  0  0  0
   39.8310   83.6490   57.6990 H   0  0  0  0  0  0  0  0  0  0  0  0
   40.3320   81.6170   58.3800 C   0  0  0  0  0  0  0  0  0  0  0  0
   40.7370   80.8620   59.4700 C   0  0  0  0  0  0  0  0  0  0  0  0
   42.1410   80.9990   62.9530 H   0  0  0  0  0  0  0  0  0  0  0  0
   41.4660   80.3880   61.9530 S   0  0  0  0  0  0  0  0  0  0  0  0
   42.4060   79.3800   61.3220 O   0  0  0  0  0  0  0  0  0  0  0  0
   40.2530   79.6680   62.4780 O   0  0  0  0  0  0  0  0  0  0  0  0
  1  2  1  0  0  0  0
  2  7  1  0  0  0  0
  2  3  2  0  0  0  0
  3  8  1  0  0  0  0
  4  3  1  0  0  0  0
  4  9  1  0  0  0  0
  5  4  2  0  0  0  0
  6  1  2  0  0  0  0
  6  5  1  0  0  0  0
 10  5  1  0  0  0  0
 11 16  1  0  0  0  0
 12 13  1  0  0  0  0
 12 11  2  0  0  0  0
 13 14  2  0  0  0  0
 14 15  1  0  0  0  0
 15  1  1  0  0  0  0
 16 15  2  0  0  0  0
 17 11  1  0  0  0  0
 18 12  1  0  0  0  0
 19 13  1  0  0  0  0
 20 21  1  0  0  0  0
 20 29  1  0  0  0  0
 21  6  1  0  0  0  0
 22 23  1  0  0  0  0
 22 21  2  0  0  0  0
 24 22  1  0  0  0  0
 25 24  1  0  0  0  0
 26 24  2  0  0  0  0
 26 27  1  0  0  0  0
 27 20  2  0  0  0  0
 29 31  2  0  0  0  0
 29 28  1  0  0  0  0
 30 29  2  0  0  0  0
M  END
>  <minimizedAffinity>
-5.30954599

>  <minimizedRMSD>
1.94254315

$$$$
