
 OpenBabel03212520383D

 29 31  0  0  1  0  0  0  0  0999 V2000
   43.0480   85.7850   60.1270 C   0  0  1  0  0  0  0  0  0  0  0  0
   43.8980   86.8900   60.7220 C   0  0  0  0  0  0  0  0  0  0  0  0
   44.2560   86.2240   59.3910 C   0  0  1  0  0  0  0  0  0  0  0  0
   42.0210   86.0990   59.7810 H   0  0  0  0  0  0  0  0  0  0  0  0
   44.4900   86.6500   61.6040 H   0  0  0  0  0  0  0  0  0  0  0  0
   43.5100   87.9180   60.5980 H   0  0  0  0  0  0  0  0  0  0  0  0
   44.1290   86.8200   58.4580 H   0  0  0  0  0  0  0  0  0  0  0  0
   46.4520   85.9690   58.5470 C   0  0  0  0  0  0  0  0  0  0  0  0
   45.5160   85.4440   59.4480 C   0  0  0  0  0  0  0  0  0  0  0  0
   45.8900   84.3480   60.1950 C   0  0  0  0  0  0  0  0  0  0  0  0
   45.1070   84.0190   60.8500 H   0  0  0  0  0  0  0  0  0  0  0  0
   47.1400   83.7860   60.0640 C   0  0  0  0  0  0  0  0  0  0  0  0
   47.3430   82.9310   60.6910 H   0  0  0  0  0  0  0  0  0  0  0  0
   48.0720   84.2920   59.1830 C   0  0  0  0  0  3  0  0  0  0  0  0
   47.7170   85.3890   58.4250 C   0  0  0  0  0  3  0  0  0  0  0  0
   45.3730   88.2470   58.0040 H   0  0  0  0  0  0  0  0  0  0  0  0
   46.2560   87.3460   57.4770 S   0  0  0  0  0  0  0  0  0  0  0  0
   45.6250   86.8910   56.1680 O   0  0  0  0  0  0  0  0  0  0  0  0
   47.5860   88.0120   57.2160 O   0  0  0  0  0  0  0  0  0  0  0  0
   43.0870   84.5860   60.8420 O   0  0  0  0  0  0  0  0  0  0  0  0
   40.1220   83.5170   62.6240 C   0  0  0  0  0  0  0  0  0  0  0  0
   40.4940   83.7430   63.9590 C   0  0  0  0  0  0  0  0  0  0  0  0
   41.7900   84.2710   64.2050 C   0  0  0  0  0  0  0  0  0  0  0  0
   42.5550   84.5080   63.1200 N   0  0  0  0  0  0  0  0  0  0  0  0
   42.1770   84.2840   61.8460 C   0  0  0  0  0  0  0  0  0  0  0  0
   40.9580   83.7870   61.5990 N   0  0  0  0  0  0  0  0  0  0  0  0
   39.1510   83.1230   62.4600 H   0  0  0  0  0  0  0  0  0  0  0  0
   39.8300   83.5290   64.7860 H   0  0  0  0  0  0  0  0  0  0  0  0
   42.1310   84.4650   65.2120 H   0  0  0  0  0  0  0  0  0  0  0  0
  1  4  1  6  0  0  0
  1  2  1  0  0  0  0
  1 20  1  0  0  0  0
  2  5  1  0  0  0  0
  3  7  1  6  0  0  0
  3  9  1  0  0  0  0
  3  1  1  0  0  0  0
  3  2  1  0  0  0  0
  6  2  1  0  0  0  0
  8  9  1  0  0  0  0
  9 10  2  0  0  0  0
 10 11  1  0  0  0  0
 12 10  1  0  0  0  0
 12 13  1  0  0  0  0
 14 12  2  0  0  0  0
 15  8  2  0  0  0  0
 15 14  1  0  0  0  0
 17 16  1  0  0  0  0
 17  8  1  0  0  0  0
 18 17  2  0  0  0  0
 19 17  2  0  0  0  0
 20 25  1  0  0  0  0
 21 22  1  0  0  0  0
 22 23  2  0  0  0  0
 22 28  1  0  0  0  0
 23 29  1  0  0  0  0
 24 23  1  0  0  0  0
 25 24  2  0  0  0  0
 26 25  1  0  0  0  0
 26 21  2  0  0  0  0
 27 21  1  0  0  0  0
M  END
>  <minimizedAffinity>
-3.96736979

>  <minimizedRMSD>
1.59971392

$$$$
