
 OpenBabel03212521033D

 31 33  0  0  0  0  0  0  0  0999 V2000
   42.4410   84.3760   62.3130 C   0  0  0  0  0  0  0  0  0  0  0  0
   41.7820   85.1050   63.3020 C   0  0  0  0  0  0  0  0  0  0  0  0
   40.9080   84.5510   64.2010 C   0  0  0  0  0  0  0  0  0  0  0  0
   40.6790   83.1870   64.1070 C   0  0  0  0  0  0  0  0  0  0  0  0
   41.3280   82.4410   63.1260 C   0  0  0  0  0  0  0  0  0  0  0  0
   42.2160   83.0100   62.2130 C   0  0  0  0  0  0  0  0  0  0  0  0
   41.9900   86.1620   63.3390 H   0  0  0  0  0  0  0  0  0  0  0  0
   40.4570   85.2040   64.9200 H   0  0  0  0  0  0  0  0  0  0  0  0
   39.9950   82.7340   64.8070 H   0  0  0  0  0  0  0  0  0  0  0  0
   41.1350   81.3790   63.0690 H   0  0  0  0  0  0  0  0  0  0  0  0
   45.5040   85.8140   60.9010 C   0  0  0  0  0  0  0  0  0  0  0  0
   45.0520   86.3600   59.6830 C   0  0  0  0  0  0  0  0  0  0  0  0
   43.6980   86.2240   59.3670 C   0  0  0  0  0  0  0  0  0  0  0  0
   42.8770   85.5770   60.2350 N   0  0  0  0  0  0  0  0  0  0  0  0
   43.3560   85.0610   61.4090 C   0  0  0  0  0  0  0  0  0  0  0  0
   44.6550   85.1760   61.7400 N   0  0  0  0  0  0  0  0  0  0  0  0
   46.5260   85.8800   61.2110 H   0  0  0  0  0  0  0  0  0  0  0  0
   45.7530   86.8600   59.0420 H   0  0  0  0  0  0  0  0  0  0  0  0
   43.3600   86.6420   58.4370 H   0  0  0  0  0  0  0  0  0  0  0  0
   42.1260   81.9600   60.0430 C   0  0  0  0  0  0  0  0  0  0  0  0
   42.8730   82.2000   61.1940 C   0  0  0  0  0  0  0  0  0  0  0  0
   44.1500   81.6970   61.3380 C   0  0  0  0  0  0  0  0  0  0  0  0
   44.6560   81.9420   62.2780 H   0  0  0  0  0  0  0  0  0  0  0  0
   44.6950   80.9390   60.3160 C   0  0  0  0  0  0  0  0  0  0  0  0
   45.7100   80.5750   60.5020 H   0  0  0  0  0  0  0  0  0  0  0  0
   43.9650   80.6910   59.1660 C   0  0  0  0  0  3  0  0  0  0  0  0
   42.6810   81.2010   59.0300 C   0  0  0  0  0  3  0  0  0  0  0  0
   39.8300   82.8750   60.8330 H   0  0  0  0  0  0  0  0  0  0  0  0
   40.5130   82.5200   59.7210 S   0  0  0  0  0  0  0  0  0  0  0  0
   39.7650   81.3700   59.0760 O   0  0  0  0  0  0  0  0  0  0  0  0
   40.5920   83.6640   58.7460 O   0  0  0  0  0  0  0  0  0  0  0  0
  1  2  1  0  0  0  0
  2  7  1  0  0  0  0
  2  3  2  0  0  0  0
  3  8  1  0  0  0  0
  4  3  1  0  0  0  0
  4  9  1  0  0  0  0
  5  4  2  0  0  0  0
  6  1  2  0  0  0  0
  6  5  1  0  0  0  0
 10  5  1  0  0  0  0
 11 17  1  0  0  0  0
 11 16  1  0  0  0  0
 12 11  2  0  0  0  0
 13 12  1  0  0  0  0
 13 14  2  0  0  0  0
 14 15  1  0  0  0  0
 15 16  2  0  0  0  0
 15  1  1  0  0  0  0
 18 12  1  0  0  0  0
 19 13  1  0  0  0  0
 20 21  1  0  0  0  0
 21 22  2  0  0  0  0
 21  6  1  0  0  0  0
 22 23  1  0  0  0  0
 24 25  1  0  0  0  0
 24 22  1  0  0  0  0
 26 24  2  0  0  0  0
 27 26  1  0  0  0  0
 27 20  2  0  0  0  0
 29 20  1  0  0  0  0
 29 28  1  0  0  0  0
 30 29  2  0  0  0  0
 31 29  2  0  0  0  0
M  END
>  <minimizedAffinity>
-4.78826094

>  <minimizedRMSD>
3.75872278

$$$$
