
 OpenBabel03212520383D

 29 31  0  0  1  0  0  0  0  0999 V2000
   42.8300   85.6180   60.1330 C   0  0  1  0  0  0  0  0  0  0  0  0
   44.1360   86.3890   60.1270 C   0  0  0  0  0  0  0  0  0  0  0  0
   43.5960   85.7050   58.8680 C   0  0  1  0  0  0  0  0  0  0  0  0
   41.9020   86.2420   60.2830 H   0  0  0  0  0  0  0  0  0  0  0  0
   44.9850   85.9430   60.6420 H   0  0  0  0  0  0  0  0  0  0  0  0
   44.0460   87.4900   60.0890 H   0  0  0  0  0  0  0  0  0  0  0  0
   43.2070   86.3520   58.0470 H   0  0  0  0  0  0  0  0  0  0  0  0
   43.7450   83.8000   57.4720 C   0  0  0  0  0  0  0  0  0  0  0  0
   44.4440   84.5800   58.4050 C   0  0  0  0  0  0  0  0  0  0  0  0
   45.7270   84.1980   58.7260 C   0  0  0  0  0  0  0  0  0  0  0  0
   46.1750   84.8530   59.4480 H   0  0  0  0  0  0  0  0  0  0  0  0
   46.3090   83.0880   58.1540 C   0  0  0  0  0  0  0  0  0  0  0  0
   47.3170   82.8670   58.4670 H   0  0  0  0  0  0  0  0  0  0  0  0
   45.6350   82.3120   57.2350 C   0  0  0  0  0  3  0  0  0  0  0  0
   44.3480   82.6780   56.8990 C   0  0  0  0  0  3  0  0  0  0  0  0
   41.2880   84.4650   57.8820 H   0  0  0  0  0  0  0  0  0  0  0  0
   42.1130   84.0450   56.8760 S   0  0  0  0  0  0  0  0  0  0  0  0
   41.5310   82.7160   56.4150 O   0  0  0  0  0  0  0  0  0  0  0  0
   42.1040   85.0440   55.7430 O   0  0  0  0  0  0  0  0  0  0  0  0
   42.8690   84.4340   60.8700 O   0  0  0  0  0  0  0  0  0  0  0  0
   40.0350   83.5330   62.9360 C   0  0  0  0  0  0  0  0  0  0  0  0
   40.5240   83.8020   64.2250 C   0  0  0  0  0  0  0  0  0  0  0  0
   41.8510   84.2990   64.3390 C   0  0  0  0  0  0  0  0  0  0  0  0
   42.5280   84.4670   63.1860 N   0  0  0  0  0  0  0  0  0  0  0  0
   42.0380   84.2020   61.9580 C   0  0  0  0  0  0  0  0  0  0  0  0
   40.7900   83.7330   61.8340 N   0  0  0  0  0  0  0  0  0  0  0  0
   39.0430   83.1630   62.8700 H   0  0  0  0  0  0  0  0  0  0  0  0
   39.9250   83.6440   65.1120 H   0  0  0  0  0  0  0  0  0  0  0  0
   42.2800   84.5240   65.3050 H   0  0  0  0  0  0  0  0  0  0  0  0
  1  4  1  1  0  0  0
  1 20  1  0  0  0  0
  2  1  1  0  0  0  0
  2  5  1  0  0  0  0
  3  7  1  6  0  0  0
  3  2  1  0  0  0  0
  3  1  1  0  0  0  0
  6  2  1  0  0  0  0
  8  9  1  0  0  0  0
  9 10  2  0  0  0  0
  9  3  1  0  0  0  0
 10 11  1  0  0  0  0
 12 13  1  0  0  0  0
 12 10  1  0  0  0  0
 14 12  2  0  0  0  0
 15 14  1  0  0  0  0
 15  8  2  0  0  0  0
 17  8  1  0  0  0  0
 17 16  1  0  0  0  0
 18 17  2  0  0  0  0
 19 17  2  0  0  0  0
 20 25  1  0  0  0  0
 21 22  1  0  0  0  0
 22 23  2  0  0  0  0
 22 28  1  0  0  0  0
 23 29  1  0  0  0  0
 24 23  1  0  0  0  0
 25 24  2  0  0  0  0
 26 25  1  0  0  0  0
 26 21  2  0  0  0  0
 27 21  1  0  0  0  0
M  END
>  <minimizedAffinity>
-4.06298447

>  <minimizedRMSD>
0.702605486

$$$$
