
 OpenBabel03212521033D

 31 33  0  0  0  0  0  0  0  0999 V2000
   42.3320   83.9150   62.5200 C   0  0  0  0  0  0  0  0  0  0  0  0
   42.5230   84.4200   63.8050 C   0  0  0  0  0  0  0  0  0  0  0  0
   41.5410   84.4580   64.7610 C   0  0  0  0  0  0  0  0  0  0  0  0
   40.2940   83.9620   64.4120 C   0  0  0  0  0  0  0  0  0  0  0  0
   40.0850   83.4540   63.1320 C   0  0  0  0  0  0  0  0  0  0  0  0
   41.0870   83.4180   62.1630 C   0  0  0  0  0  0  0  0  0  0  0  0
   43.5080   84.7940   64.0340 H   0  0  0  0  0  0  0  0  0  0  0  0
   41.7970   84.8670   65.7170 H   0  0  0  0  0  0  0  0  0  0  0  0
   39.5110   83.9830   65.1520 H   0  0  0  0  0  0  0  0  0  0  0  0
   39.1050   83.0730   62.8790 H   0  0  0  0  0  0  0  0  0  0  0  0
   45.3010   82.8540   60.6480 C   0  0  0  0  0  0  0  0  0  0  0  0
   45.5340   83.9510   59.7950 C   0  0  0  0  0  0  0  0  0  0  0  0
   44.6630   85.0410   59.8780 C   0  0  0  0  0  0  0  0  0  0  0  0
   43.6360   85.0020   60.7670 N   0  0  0  0  0  0  0  0  0  0  0  0
   43.4460   83.9170   61.5780 C   0  0  0  0  0  0  0  0  0  0  0  0
   44.2670   82.8530   61.5210 N   0  0  0  0  0  0  0  0  0  0  0  0
   45.9260   81.9850   60.6430 H   0  0  0  0  0  0  0  0  0  0  0  0
   46.3640   83.9190   59.1150 H   0  0  0  0  0  0  0  0  0  0  0  0
   44.8450   85.8740   59.2250 H   0  0  0  0  0  0  0  0  0  0  0  0
   40.9760   81.5050   60.6960 C   0  0  0  0  0  0  0  0  0  0  0  0
   40.8300   82.8850   60.8300 C   0  0  0  0  0  0  0  0  0  0  0  0
   40.4640   83.6750   59.7600 C   0  0  0  0  0  0  0  0  0  0  0  0
   40.3750   84.7460   59.9670 H   0  0  0  0  0  0  0  0  0  0  0  0
   40.2380   83.0820   58.5300 C   0  0  0  0  0  0  0  0  0  0  0  0
   39.9520   83.7710   57.7300 H   0  0  0  0  0  0  0  0  0  0  0  0
   40.3780   81.7120   58.3810 C   0  0  0  0  0  3  0  0  0  0  0  0
   40.7470   80.9260   59.4620 C   0  0  0  0  0  3  0  0  0  0  0  0
   42.0810   80.9650   62.9810 H   0  0  0  0  0  0  0  0  0  0  0  0
   41.4320   80.3860   61.9450 S   0  0  0  0  0  0  0  0  0  0  0  0
   42.3830   79.3860   61.3160 O   0  0  0  0  0  0  0  0  0  0  0  0
   40.1970   79.6650   62.4120 O   0  0  0  0  0  0  0  0  0  0  0  0
  1  2  1  0  0  0  0
  2  7  1  0  0  0  0
  2  3  2  0  0  0  0
  3  8  1  0  0  0  0
  4  3  1  0  0  0  0
  4  9  1  0  0  0  0
  5  4  2  0  0  0  0
  6  1  2  0  0  0  0
  6  5  1  0  0  0  0
 10  5  1  0  0  0  0
 11 16  1  0  0  0  0
 12 13  1  0  0  0  0
 12 11  2  0  0  0  0
 13 14  2  0  0  0  0
 14 15  1  0  0  0  0
 15  1  1  0  0  0  0
 16 15  2  0  0  0  0
 17 11  1  0  0  0  0
 18 12  1  0  0  0  0
 19 13  1  0  0  0  0
 20 21  1  0  0  0  0
 20 29  1  0  0  0  0
 21  6  1  0  0  0  0
 22 23  1  0  0  0  0
 22 21  2  0  0  0  0
 24 22  1  0  0  0  0
 25 24  1  0  0  0  0
 26 24  2  0  0  0  0
 26 27  1  0  0  0  0
 27 20  2  0  0  0  0
 29 31  2  0  0  0  0
 29 28  1  0  0  0  0
 30 29  2  0  0  0  0
M  END
>  <minimizedAffinity>
-5.26151037

>  <minimizedRMSD>
2.04206228

$$$$
