
 OpenBabel03212520383D

 29 31  0  0  1  0  0  0  0  0999 V2000
   42.9280   85.4580   59.9690 C   0  0  1  0  0  0  0  0  0  0  0  0
   43.6640   86.7330   60.3270 C   0  0  0  0  0  0  0  0  0  0  0  0
   44.0890   85.8620   59.1430 C   0  0  1  0  0  0  0  0  0  0  0  0
   41.8760   85.5990   59.5860 H   0  0  0  0  0  0  0  0  0  0  0  0
   44.2750   86.7260   61.2290 H   0  0  0  0  0  0  0  0  0  0  0  0
   43.1780   87.6760   60.0140 H   0  0  0  0  0  0  0  0  0  0  0  0
   43.9060   86.2520   58.1140 H   0  0  0  0  0  0  0  0  0  0  0  0
   46.3770   85.8890   58.5430 C   0  0  0  0  0  0  0  0  0  0  0  0
   45.4190   85.2330   59.3270 C   0  0  0  0  0  0  0  0  0  0  0  0
   45.8370   84.1680   60.0930 C   0  0  0  0  0  0  0  0  0  0  0  0
   45.0340   83.7300   60.6530 H   0  0  0  0  0  0  0  0  0  0  0  0
   47.1520   83.7590   60.0930 C   0  0  0  0  0  0  0  0  0  0  0  0
   47.3860   82.9150   60.7250 H   0  0  0  0  0  0  0  0  0  0  0  0
   48.1070   84.3940   59.3270 C   0  0  0  0  0  3  0  0  0  0  0  0
   47.7080   85.4630   58.5530 C   0  0  0  0  0  3  0  0  0  0  0  0
   45.1540   88.0830   57.9620 H   0  0  0  0  0  0  0  0  0  0  0  0
   46.1360   87.2620   57.4790 S   0  0  0  0  0  0  0  0  0  0  0  0
   45.6220   86.7820   56.1290 O   0  0  0  0  0  0  0  0  0  0  0  0
   47.4220   88.0360   57.3070 O   0  0  0  0  0  0  0  0  0  0  0  0
   43.0820   84.4280   60.8990 O   0  0  0  0  0  0  0  0  0  0  0  0
   40.0860   83.5140   62.7140 C   0  0  0  0  0  0  0  0  0  0  0  0
   40.4620   83.7810   64.0400 C   0  0  0  0  0  0  0  0  0  0  0  0
   41.7730   84.2810   64.2690 C   0  0  0  0  0  0  0  0  0  0  0  0
   42.5450   84.4540   63.1780 N   0  0  0  0  0  0  0  0  0  0  0  0
   42.1630   84.1910   61.9120 C   0  0  0  0  0  0  0  0  0  0  0  0
   40.9300   83.7190   61.6810 N   0  0  0  0  0  0  0  0  0  0  0  0
   39.1040   83.1410   62.5630 H   0  0  0  0  0  0  0  0  0  0  0  0
   39.7910   83.6180   64.8730 H   0  0  0  0  0  0  0  0  0  0  0  0
   42.1170   84.5050   65.2680 H   0  0  0  0  0  0  0  0  0  0  0  0
  1  4  1  6  0  0  0
  1  2  1  0  0  0  0
  1 20  1  0  0  0  0
  2  5  1  0  0  0  0
  3  7  1  6  0  0  0
  3  9  1  0  0  0  0
  3  1  1  0  0  0  0
  3  2  1  0  0  0  0
  6  2  1  0  0  0  0
  8 15  2  0  0  0  0
  8  9  1  0  0  0  0
  9 10  2  0  0  0  0
 10 12  1  0  0  0  0
 10 11  1  0  0  0  0
 12 13  1  0  0  0  0
 14 12  2  0  0  0  0
 15 14  1  0  0  0  0
 17 16  1  0  0  0  0
 17  8  1  0  0  0  0
 18 17  2  0  0  0  0
 19 17  2  0  0  0  0
 20 25  1  0  0  0  0
 21 22  1  0  0  0  0
 22 23  2  0  0  0  0
 22 28  1  0  0  0  0
 23 29  1  0  0  0  0
 24 23  1  0  0  0  0
 25 24  2  0  0  0  0
 26 25  1  0  0  0  0
 26 21  2  0  0  0  0
 27 21  1  0  0  0  0
M  END
>  <minimizedAffinity>
-3.96916437

>  <minimizedRMSD>
1.37192178

$$$$
