
 OpenBabel03212520383D

 29 31  0  0  1  0  0  0  0  0999 V2000
   42.5310   85.2850   59.9780 C   0  0  1  0  0  0  0  0  0  0  0  0
   43.4280   86.4700   59.6820 C   0  0  0  0  0  0  0  0  0  0  0  0
   43.3920   85.2390   58.7730 C   0  0  1  0  0  0  0  0  0  0  0  0
   41.4240   85.4820   59.8830 H   0  0  0  0  0  0  0  0  0  0  0  0
   44.2930   86.6210   60.3270 H   0  0  0  0  0  0  0  0  0  0  0  0
   42.9330   87.3510   59.2330 H   0  0  0  0  0  0  0  0  0  0  0  0
   42.9170   85.3440   57.7700 H   0  0  0  0  0  0  0  0  0  0  0  0
   45.4150   84.8000   57.6280 C   0  0  0  0  0  0  0  0  0  0  0  0
   44.6650   84.4790   58.7680 C   0  0  0  0  0  0  0  0  0  0  0  0
   45.1940   83.5590   59.6450 C   0  0  0  0  0  0  0  0  0  0  0  0
   44.5470   83.3770   60.4800 H   0  0  0  0  0  0  0  0  0  0  0  0
   46.4190   82.9730   59.4150 C   0  0  0  0  0  0  0  0  0  0  0  0
   46.7530   82.2650   60.1580 H   0  0  0  0  0  0  0  0  0  0  0  0
   47.1690   83.2790   58.2990 C   0  0  0  0  0  3  0  0  0  0  0  0
   46.6550   84.1980   57.4070 C   0  0  0  0  0  3  0  0  0  0  0  0
   43.6480   86.1520   56.3260 H   0  0  0  0  0  0  0  0  0  0  0  0
   44.9950   85.9270   56.3490 S   0  0  0  0  0  0  0  0  0  0  0  0
   45.3170   85.3080   54.9960 O   0  0  0  0  0  0  0  0  0  0  0  0
   45.7400   87.2300   56.5220 O   0  0  0  0  0  0  0  0  0  0  0  0
   42.9030   84.5540   61.1070 O   0  0  0  0  0  0  0  0  0  0  0  0
   40.0020   83.5180   63.0080 C   0  0  0  0  0  0  0  0  0  0  0  0
   40.4040   83.8070   64.3230 C   0  0  0  0  0  0  0  0  0  0  0  0
   41.6970   84.3640   64.5130 C   0  0  0  0  0  0  0  0  0  0  0  0
   42.4300   84.5660   63.4000 N   0  0  0  0  0  0  0  0  0  0  0  0
   42.0240   84.2810   62.1460 C   0  0  0  0  0  0  0  0  0  0  0  0
   40.8070   83.7560   61.9510 N   0  0  0  0  0  0  0  0  0  0  0  0
   39.0330   83.1030   62.8860 H   0  0  0  0  0  0  0  0  0  0  0  0
   39.7630   83.6180   65.1740 H   0  0  0  0  0  0  0  0  0  0  0  0
   42.0600   84.6060   65.5010 H   0  0  0  0  0  0  0  0  0  0  0  0
  1  4  1  6  0  0  0
  1 20  1  0  0  0  0
  2  1  1  0  0  0  0
  2  5  1  0  0  0  0
  3  7  1  6  0  0  0
  3  2  1  0  0  0  0
  3  1  1  0  0  0  0
  6  2  1  0  0  0  0
  8  9  1  0  0  0  0
  9  3  1  0  0  0  0
  9 10  2  0  0  0  0
 10 11  1  0  0  0  0
 12 10  1  0  0  0  0
 12 13  1  0  0  0  0
 14 12  2  0  0  0  0
 15  8  2  0  0  0  0
 15 14  1  0  0  0  0
 16 17  1  0  0  0  0
 17 19  2  0  0  0  0
 17  8  1  0  0  0  0
 18 17  2  0  0  0  0
 20 25  1  0  0  0  0
 21 22  1  0  0  0  0
 22 23  2  0  0  0  0
 22 28  1  0  0  0  0
 23 29  1  0  0  0  0
 24 23  1  0  0  0  0
 25 24  2  0  0  0  0
 26 25  1  0  0  0  0
 26 21  2  0  0  0  0
 27 21  1  0  0  0  0
M  END
>  <minimizedAffinity>
-3.50018311

>  <minimizedRMSD>
0.581291854

$$$$
