
 OpenBabel03212520383D

 29 31  0  0  1  0  0  0  0  0999 V2000
   43.1430   85.7730   60.0090 C   0  0  1  0  0  0  0  0  0  0  0  0
   44.4600   86.5220   59.9570 C   0  0  0  0  0  0  0  0  0  0  0  0
   44.2620   85.1880   59.2340 C   0  0  1  0  0  0  0  0  0  0  0  0
   42.2820   86.2740   59.4790 H   0  0  0  0  0  0  0  0  0  0  0  0
   45.0630   86.5430   60.8640 H   0  0  0  0  0  0  0  0  0  0  0  0
   44.4980   87.3840   59.2660 H   0  0  0  0  0  0  0  0  0  0  0  0
   44.2090   85.2000   58.1200 H   0  0  0  0  0  0  0  0  0  0  0  0
   44.5770   82.8490   59.4020 C   0  0  0  0  0  0  0  0  0  0  0  0
   45.0910   84.0920   59.7910 C   0  0  0  0  0  0  0  0  0  0  0  0
   46.2180   84.1010   60.5850 C   0  0  0  0  0  0  0  0  0  0  0  0
   46.5320   85.0960   60.8300 H   0  0  0  0  0  0  0  0  0  0  0  0
   46.8200   82.9300   60.9850 C   0  0  0  0  0  0  0  0  0  0  0  0
   47.6970   83.0350   61.6050 H   0  0  0  0  0  0  0  0  0  0  0  0
   46.3250   81.6970   60.6120 C   0  0  0  0  0  3  0  0  0  0  0  0
   45.1980   81.6680   59.8160 C   0  0  0  0  0  3  0  0  0  0  0  0
   42.5790   83.7050   58.0160 H   0  0  0  0  0  0  0  0  0  0  0  0
   43.1700   82.5340   58.4030 S   0  0  0  0  0  0  0  0  0  0  0  0
   42.1110   81.8080   59.2220 O   0  0  0  0  0  0  0  0  0  0  0  0
   43.5490   81.7160   57.1910 O   0  0  0  0  0  0  0  0  0  0  0  0
   42.8350   85.2430   61.2630 O   0  0  0  0  0  0  0  0  0  0  0  0
   40.6450   82.6560   62.5360 C   0  0  0  0  0  0  0  0  0  0  0  0
   39.4850   82.8630   61.7720 C   0  0  0  0  0  0  0  0  0  0  0  0
   39.4990   83.9160   60.8180 C   0  0  0  0  0  0  0  0  0  0  0  0
   40.6380   84.6310   60.7340 N   0  0  0  0  0  0  0  0  0  0  0  0
   41.7420   84.4150   61.4780 C   0  0  0  0  0  0  0  0  0  0  0  0
   41.7440   83.4260   62.3810 N   0  0  0  0  0  0  0  0  0  0  0  0
   40.6170   81.8660   63.2430 H   0  0  0  0  0  0  0  0  0  0  0  0
   38.6010   82.2510   61.8920 H   0  0  0  0  0  0  0  0  0  0  0  0
   38.6350   84.1220   60.2030 H   0  0  0  0  0  0  0  0  0  0  0  0
  1  4  1  6  0  0  0
  1 20  1  0  0  0  0
  2  1  1  0  0  0  0
  2  5  1  0  0  0  0
  3  7  1  6  0  0  0
  3  9  1  0  0  0  0
  3  2  1  0  0  0  0
  3  1  1  0  0  0  0
  6  2  1  0  0  0  0
  8  9  2  0  0  0  0
  8 15  1  0  0  0  0
  9 10  1  0  0  0  0
 10 11  1  0  0  0  0
 10 12  2  0  0  0  0
 12 13  1  0  0  0  0
 14 12  1  0  0  0  0
 15 14  2  0  0  0  0
 16 17  1  0  0  0  0
 17 18  2  0  0  0  0
 17  8  1  0  0  0  0
 19 17  2  0  0  0  0
 20 25  1  0  0  0  0
 21 27  1  0  0  0  0
 22 28  1  0  0  0  0
 22 21  2  0  0  0  0
 23 22  1  0  0  0  0
 24 23  2  0  0  0  0
 24 25  1  0  0  0  0
 25 26  2  0  0  0  0
 26 21  1  0  0  0  0
 29 23  1  0  0  0  0
M  END
>  <minimizedAffinity>
-3.49473548

>  <minimizedRMSD>
2.94759631

$$$$
