
 OpenBabel03212520383D

 29 31  0  0  1  0  0  0  0  0999 V2000
   42.7560   85.6210   60.0960 C   0  0  1  0  0  0  0  0  0  0  0  0
   44.0290   86.4440   60.0840 C   0  0  0  0  0  0  0  0  0  0  0  0
   43.5270   85.7160   58.8350 C   0  0  1  0  0  0  0  0  0  0  0  0
   41.8020   86.2100   60.2290 H   0  0  0  0  0  0  0  0  0  0  0  0
   44.8920   86.0430   60.6130 H   0  0  0  0  0  0  0  0  0  0  0  0
   43.8950   87.5400   60.0250 H   0  0  0  0  0  0  0  0  0  0  0  0
   43.1170   86.3310   58.0000 H   0  0  0  0  0  0  0  0  0  0  0  0
   43.7740   83.8110   57.4540 C   0  0  0  0  0  0  0  0  0  0  0  0
   44.4230   84.6180   58.3980 C   0  0  0  0  0  0  0  0  0  0  0  0
   45.7110   84.2840   58.7510 C   0  0  0  0  0  0  0  0  0  0  0  0
   46.1200   84.9570   59.4790 H   0  0  0  0  0  0  0  0  0  0  0  0
   46.3440   83.1930   58.1990 C   0  0  0  0  0  0  0  0  0  0  0  0
   47.3530   83.0090   58.5370 H   0  0  0  0  0  0  0  0  0  0  0  0
   45.7200   82.3880   57.2700 C   0  0  0  0  0  3  0  0  0  0  0  0
   44.4290   82.7060   56.9010 C   0  0  0  0  0  3  0  0  0  0  0  0
   41.3090   84.4890   57.7770 H   0  0  0  0  0  0  0  0  0  0  0  0
   42.1490   83.9940   56.8200 S   0  0  0  0  0  0  0  0  0  0  0  0
   41.5800   82.6270   56.4620 O   0  0  0  0  0  0  0  0  0  0  0  0
   42.1490   84.8960   55.6080 O   0  0  0  0  0  0  0  0  0  0  0  0
   42.8370   84.4530   60.8560 O   0  0  0  0  0  0  0  0  0  0  0  0
   40.0290   83.5360   62.9480 C   0  0  0  0  0  0  0  0  0  0  0  0
   40.5310   83.8020   64.2330 C   0  0  0  0  0  0  0  0  0  0  0  0
   41.8570   84.3020   64.3350 C   0  0  0  0  0  0  0  0  0  0  0  0
   42.5210   84.4760   63.1750 N   0  0  0  0  0  0  0  0  0  0  0  0
   42.0190   84.2140   61.9510 C   0  0  0  0  0  0  0  0  0  0  0  0
   40.7710   83.7420   61.8390 N   0  0  0  0  0  0  0  0  0  0  0  0
   39.0370   83.1630   62.8910 H   0  0  0  0  0  0  0  0  0  0  0  0
   39.9420   83.6380   65.1260 H   0  0  0  0  0  0  0  0  0  0  0  0
   42.2960   84.5240   65.2970 H   0  0  0  0  0  0  0  0  0  0  0  0
  1  4  1  1  0  0  0
  1 20  1  0  0  0  0
  2  1  1  0  0  0  0
  2  5  1  0  0  0  0
  3  7  1  6  0  0  0
  3  2  1  0  0  0  0
  3  1  1  0  0  0  0
  6  2  1  0  0  0  0
  8  9  1  0  0  0  0
  9 10  2  0  0  0  0
  9  3  1  0  0  0  0
 10 11  1  0  0  0  0
 12 13  1  0  0  0  0
 12 10  1  0  0  0  0
 14 12  2  0  0  0  0
 15 14  1  0  0  0  0
 15  8  2  0  0  0  0
 17  8  1  0  0  0  0
 17 16  1  0  0  0  0
 18 17  2  0  0  0  0
 19 17  2  0  0  0  0
 20 25  1  0  0  0  0
 21 22  1  0  0  0  0
 22 23  2  0  0  0  0
 22 28  1  0  0  0  0
 23 29  1  0  0  0  0
 24 23  1  0  0  0  0
 25 24  2  0  0  0  0
 26 25  1  0  0  0  0
 26 21  2  0  0  0  0
 27 21  1  0  0  0  0
M  END
>  <minimizedAffinity>
-4.06029272

>  <minimizedRMSD>
1.83566225

$$$$
