
 OpenBabel03212520383D

 29 31  0  0  1  0  0  0  0  0999 V2000
   42.9820   85.6370   60.0740 C   0  0  1  0  0  0  0  0  0  0  0  0
   43.7880   86.8250   60.5580 C   0  0  0  0  0  0  0  0  0  0  0  0
   44.1630   86.0610   59.2860 C   0  0  1  0  0  0  0  0  0  0  0  0
   41.9390   85.8750   59.7150 H   0  0  0  0  0  0  0  0  0  0  0  0
   44.3980   86.6900   61.4500 H   0  0  0  0  0  0  0  0  0  0  0  0
   43.3540   87.8210   60.3500 H   0  0  0  0  0  0  0  0  0  0  0  0
   44.0010   86.5670   58.3060 H   0  0  0  0  0  0  0  0  0  0  0  0
   46.4070   85.9330   58.5520 C   0  0  0  0  0  0  0  0  0  0  0  0
   45.4560   85.3440   59.3940 C   0  0  0  0  0  0  0  0  0  0  0  0
   45.8470   84.2530   60.1390 C   0  0  0  0  0  0  0  0  0  0  0  0
   45.0500   83.8720   60.7480 H   0  0  0  0  0  0  0  0  0  0  0  0
   47.1290   83.7570   60.0640 C   0  0  0  0  0  0  0  0  0  0  0  0
   47.3420   82.9010   60.6850 H   0  0  0  0  0  0  0  0  0  0  0  0
   48.0770   84.3260   59.2400 C   0  0  0  0  0  3  0  0  0  0  0  0
   47.7050   85.4190   58.4840 C   0  0  0  0  0  3  0  0  0  0  0  0
   45.2670   88.1810   58.0100 H   0  0  0  0  0  0  0  0  0  0  0  0
   46.1960   87.3200   57.4980 S   0  0  0  0  0  0  0  0  0  0  0  0
   45.6210   86.8650   56.1620 O   0  0  0  0  0  0  0  0  0  0  0  0
   47.5090   88.0340   57.2880 O   0  0  0  0  0  0  0  0  0  0  0  0
   43.0800   84.5080   60.8900 O   0  0  0  0  0  0  0  0  0  0  0  0
   40.1090   83.4950   62.6940 C   0  0  0  0  0  0  0  0  0  0  0  0
   40.4810   83.7510   64.0240 C   0  0  0  0  0  0  0  0  0  0  0  0
   41.7790   84.2800   64.2580 C   0  0  0  0  0  0  0  0  0  0  0  0
   42.5460   84.4880   63.1690 N   0  0  0  0  0  0  0  0  0  0  0  0
   42.1680   84.2340   61.8990 C   0  0  0  0  0  0  0  0  0  0  0  0
   40.9470   83.7360   61.6630 N   0  0  0  0  0  0  0  0  0  0  0  0
   39.1360   83.1010   62.5380 H   0  0  0  0  0  0  0  0  0  0  0  0
   39.8150   83.5600   64.8540 H   0  0  0  0  0  0  0  0  0  0  0  0
   42.1200   84.4960   65.2600 H   0  0  0  0  0  0  0  0  0  0  0  0
  1  4  1  6  0  0  0
  1  2  1  0  0  0  0
  1 20  1  0  0  0  0
  2  5  1  0  0  0  0
  3  7  1  6  0  0  0
  3  9  1  0  0  0  0
  3  1  1  0  0  0  0
  3  2  1  0  0  0  0
  6  2  1  0  0  0  0
  8  9  1  0  0  0  0
  9 10  2  0  0  0  0
 10 11  1  0  0  0  0
 12 10  1  0  0  0  0
 12 13  1  0  0  0  0
 14 12  2  0  0  0  0
 15  8  2  0  0  0  0
 15 14  1  0  0  0  0
 17 16  1  0  0  0  0
 17  8  1  0  0  0  0
 18 17  2  0  0  0  0
 19 17  2  0  0  0  0
 20 25  1  0  0  0  0
 21 22  1  0  0  0  0
 22 23  2  0  0  0  0
 22 28  1  0  0  0  0
 23 29  1  0  0  0  0
 24 23  1  0  0  0  0
 25 24  2  0  0  0  0
 26 25  1  0  0  0  0
 26 21  2  0  0  0  0
 27 21  1  0  0  0  0
M  END
>  <minimizedAffinity>
-3.9708631

>  <minimizedRMSD>
1.41969967

$$$$
