
 OpenBabel03212520303D

 31 33  0  0  0  0  0  0  0  0999 V2000
   40.6870   79.8770   58.6080 C   0  0  0  0  0  0  0  0  0  0  0  0
   40.1590   80.7990   57.7100 C   0  0  0  0  0  0  0  0  0  0  0  0
   40.4480   82.1610   57.9350 C   0  0  0  0  0  0  0  0  0  0  0  0
   41.2190   82.4890   59.0100 N   0  0  0  0  0  0  0  0  0  0  0  0
   41.7060   81.5680   59.8490 C   0  0  0  0  0  0  0  0  0  0  0  0
   41.4370   80.2740   59.6430 N   0  0  0  0  0  0  0  0  0  0  0  0
   40.4630   78.8230   58.4330 H   0  0  0  0  0  0  0  0  0  0  0  0
   40.0510   82.9210   57.2500 H   0  0  0  0  0  0  0  0  0  0  0  0
   39.3640   80.3820   56.6140 N   0  0  0  0  0  0  0  0  0  0  0  0
   38.2490   79.7400   56.9790 C   0  0  0  0  0  0  0  0  0  0  0  0
   37.3890   79.2820   55.9780 C   0  0  0  0  0  0  0  0  0  0  0  0
   37.7210   79.5110   54.6440 C   0  0  0  0  0  0  0  0  0  0  0  0
   37.0180   79.1420   53.6710 O   0  0  0  0  0  0  0  0  0  0  0  0
   38.8760   80.1760   54.3590 N   0  0  0  0  0  0  0  0  0  0  0  0
   39.7130   80.6200   55.3350 C   0  0  0  0  0  0  0  0  0  0  0  0
   40.7660   81.2250   55.0840 O   0  0  0  0  0  0  0  0  0  0  0  0
   37.9540   79.5390   57.9990 H   0  0  0  0  0  0  0  0  0  0  0  0
   36.4690   78.7530   56.1950 H   0  0  0  0  0  0  0  0  0  0  0  0
   39.1600   80.3670   53.3720 H   0  0  0  0  0  0  0  0  0  0  0  0
   41.9820   82.7490   62.0190 C   0  0  0  0  0  0  0  0  0  0  0  0
   42.5210   82.0380   60.9650 C   0  0  0  0  0  0  0  0  0  0  0  0
   43.8710   81.7540   60.9490 C   0  0  0  0  0  0  0  0  0  0  0  0
   44.3460   81.2000   60.1490 H   0  0  0  0  0  0  0  0  0  0  0  0
   44.7450   82.1530   61.9630 C   0  0  0  0  0  0  0  0  0  0  0  0
   45.8010   81.9320   61.9520 H   0  0  0  0  0  0  0  0  0  0  0  0
   44.2080   82.8650   63.0170 C   0  0  0  0  0  0  0  0  0  0  0  0
   42.8570   83.1490   63.0340 C   0  0  0  0  0  0  0  0  0  0  0  0
   39.8640   83.8710   60.9940 H   0  0  0  0  0  0  0  0  0  0  0  0
   40.2720   83.1190   62.0540 S   0  0  0  0  0  0  0  0  0  0  0  0
   39.9160   83.7700   63.3720 O   0  0  0  0  0  0  0  0  0  0  0  0
   39.5320   81.7930   62.0520 O   0  0  0  0  0  0  0  0  0  0  0  0
  1  6  1  0  0  0  0
  2  3  1  0  0  0  0
  2  1  2  0  0  0  0
  3  4  2  0  0  0  0
  4  5  1  0  0  0  0
  5 21  1  0  0  0  0
  6  5  2  0  0  0  0
  7  1  1  0  0  0  0
  8  3  1  0  0  0  0
  9 10  1  0  0  0  0
  9  2  1  0  0  0  0
 10 17  1  0  0  0  0
 11 18  1  0  0  0  0
 11 10  2  0  0  0  0
 12 11  1  0  0  0  0
 13 12  2  0  0  0  0
 14 12  1  0  0  0  0
 14 15  1  0  0  0  0
 15  9  1  0  0  0  0
 16 15  2  0  0  0  0
 19 14  1  0  0  0  0
 20 29  1  0  0  0  0
 20 27  1  0  0  0  0
 21 20  2  0  0  0  0
 22 21  1  0  0  0  0
 22 24  2  0  0  0  0
 23 22  1  0  0  0  0
 24 26  1  0  0  0  0
 25 24  1  0  0  0  0
 26 27  2  0  0  0  0
 28 29  1  0  0  0  0
 29 30  2  0  0  0  0
 31 29  2  0  0  0  0
M  END
>  <minimizedAffinity>
-5.367805

>  <minimizedRMSD>
5.80771208

$$$$
