
 OpenBabel03212520383D

 29 31  0  0  1  0  0  0  0  0999 V2000
   42.8720   85.6170   60.0970 C   0  0  1  0  0  0  0  0  0  0  0  0
   43.8370   86.6770   60.5910 C   0  0  0  0  0  0  0  0  0  0  0  0
   44.0330   85.9700   59.2480 C   0  0  1  0  0  0  0  0  0  0  0  0
   41.8390   85.9880   59.8360 H   0  0  0  0  0  0  0  0  0  0  0  0
   44.4900   86.4160   61.4220 H   0  0  0  0  0  0  0  0  0  0  0  0
   43.5010   87.7250   60.4790 H   0  0  0  0  0  0  0  0  0  0  0  0
   43.8590   86.5580   58.3170 H   0  0  0  0  0  0  0  0  0  0  0  0
   45.2540   84.3420   58.0410 C   0  0  0  0  0  0  0  0  0  0  0  0
   45.2450   85.1160   59.2090 C   0  0  0  0  0  0  0  0  0  0  0  0
   46.2950   84.9640   60.0860 C   0  0  0  0  0  0  0  0  0  0  0  0
   46.1970   85.5930   60.9490 H   0  0  0  0  0  0  0  0  0  0  0  0
   47.3240   84.0850   59.8280 C   0  0  0  0  0  0  0  0  0  0  0  0
   48.1030   84.0350   60.5710 H   0  0  0  0  0  0  0  0  0  0  0  0
   47.3470   83.3170   58.6820 C   0  0  0  0  0  3  0  0  0  0  0  0
   46.3020   83.4530   57.7900 C   0  0  0  0  0  3  0  0  0  0  0  0
   42.8450   84.7530   57.2160 H   0  0  0  0  0  0  0  0  0  0  0  0
   44.0590   84.3240   56.7550 S   0  0  0  0  0  0  0  0  0  0  0  0
   43.8240   82.8930   56.2930 O   0  0  0  0  0  0  0  0  0  0  0  0
   44.5100   85.1830   55.5970 O   0  0  0  0  0  0  0  0  0  0  0  0
   42.9030   84.4300   60.8310 O   0  0  0  0  0  0  0  0  0  0  0  0
   40.0540   83.5520   62.8840 C   0  0  0  0  0  0  0  0  0  0  0  0
   40.5470   83.7960   64.1760 C   0  0  0  0  0  0  0  0  0  0  0  0
   41.8820   84.2670   64.2980 C   0  0  0  0  0  0  0  0  0  0  0  0
   42.5620   84.4390   63.1470 N   0  0  0  0  0  0  0  0  0  0  0  0
   42.0690   84.1980   61.9150 C   0  0  0  0  0  0  0  0  0  0  0  0
   40.8120   83.7530   61.7850 N   0  0  0  0  0  0  0  0  0  0  0  0
   39.0550   83.2000   62.8130 H   0  0  0  0  0  0  0  0  0  0  0  0
   39.9450   83.6360   65.0610 H   0  0  0  0  0  0  0  0  0  0  0  0
   42.3140   84.4720   65.2660 H   0  0  0  0  0  0  0  0  0  0  0  0
  1  4  1  6  0  0  0
  1  2  1  0  0  0  0
  1 20  1  0  0  0  0
  2  5  1  0  0  0  0
  3  7  1  6  0  0  0
  3  1  1  0  0  0  0
  3  2  1  0  0  0  0
  6  2  1  0  0  0  0
  8  9  1  0  0  0  0
  9  3  1  0  0  0  0
  9 10  2  0  0  0  0
 10 11  1  0  0  0  0
 12 10  1  0  0  0  0
 12 13  1  0  0  0  0
 14 12  2  0  0  0  0
 15  8  2  0  0  0  0
 15 14  1  0  0  0  0
 17 16  1  0  0  0  0
 17  8  1  0  0  0  0
 18 17  2  0  0  0  0
 19 17  2  0  0  0  0
 20 25  1  0  0  0  0
 21 22  1  0  0  0  0
 22 23  2  0  0  0  0
 22 28  1  0  0  0  0
 23 29  1  0  0  0  0
 24 23  1  0  0  0  0
 25 24  2  0  0  0  0
 26 25  1  0  0  0  0
 26 21  2  0  0  0  0
 27 21  1  0  0  0  0
M  END
>  <minimizedAffinity>
-3.8896203

>  <minimizedRMSD>
1.21789718

$$$$
