
 OpenBabel03212521033D

 31 33  0  0  0  0  0  0  0  0999 V2000
   42.3900   84.3510   61.9160 C   0  0  0  0  0  0  0  0  0  0  0  0
   42.0840   84.7310   63.2220 C   0  0  0  0  0  0  0  0  0  0  0  0
   40.9360   84.3590   63.8730 C   0  0  0  0  0  0  0  0  0  0  0  0
   40.0410   83.5600   63.1770 C   0  0  0  0  0  0  0  0  0  0  0  0
   40.3300   83.1700   61.8720 C   0  0  0  0  0  0  0  0  0  0  0  0
   41.4990   83.5510   61.2140 C   0  0  0  0  0  0  0  0  0  0  0  0
   42.8080   85.3510   63.7250 H   0  0  0  0  0  0  0  0  0  0  0  0
   40.8010   84.7080   64.8760 H   0  0  0  0  0  0  0  0  0  0  0  0
   39.1330   83.2580   63.6750 H   0  0  0  0  0  0  0  0  0  0  0  0
   39.6190   82.5480   61.3470 H   0  0  0  0  0  0  0  0  0  0  0  0
   45.8950   84.4260   60.8400 C   0  0  0  0  0  0  0  0  0  0  0  0
   45.9860   85.6670   60.1790 C   0  0  0  0  0  0  0  0  0  0  0  0
   44.8360   86.4590   60.1130 C   0  0  0  0  0  0  0  0  0  0  0  0
   43.6880   86.0080   60.6830 N   0  0  0  0  0  0  0  0  0  0  0  0
   43.6430   84.7970   61.3170 C   0  0  0  0  0  0  0  0  0  0  0  0
   44.7320   84.0120   61.3960 N   0  0  0  0  0  0  0  0  0  0  0  0
   46.7320   83.7660   60.9320 H   0  0  0  0  0  0  0  0  0  0  0  0
   46.9240   85.9640   59.7500 H   0  0  0  0  0  0  0  0  0  0  0  0
   44.9110   87.4040   59.6070 H   0  0  0  0  0  0  0  0  0  0  0  0
   41.2850   83.9790   58.8500 C   0  0  0  0  0  0  0  0  0  0  0  0
   41.7670   83.1300   59.8440 C   0  0  0  0  0  0  0  0  0  0  0  0
   42.4510   81.9730   59.5320 C   0  0  0  0  0  0  0  0  0  0  0  0
   42.7890   81.3740   60.3830 H   0  0  0  0  0  0  0  0  0  0  0  0
   42.6610   81.6530   58.2010 C   0  0  0  0  0  0  0  0  0  0  0  0
   43.2100   80.7220   58.0310 H   0  0  0  0  0  0  0  0  0  0  0  0
   42.1890   82.4860   57.2010 C   0  0  0  0  0  3  0  0  0  0  0  0
   41.5020   83.6470   57.5250 C   0  0  0  0  0  3  0  0  0  0  0  0
   40.8530   86.1910   60.1340 H   0  0  0  0  0  0  0  0  0  0  0  0
   40.4090   85.4590   59.0880 S   0  0  0  0  0  0  0  0  0  0  0  0
   38.9690   85.0800   59.3790 O   0  0  0  0  0  0  0  0  0  0  0  0
   40.4590   86.2530   57.8100 O   0  0  0  0  0  0  0  0  0  0  0  0
  1  2  1  0  0  0  0
  2  7  1  0  0  0  0
  2  3  2  0  0  0  0
  3  8  1  0  0  0  0
  4  9  1  0  0  0  0
  4  3  1  0  0  0  0
  5  4  2  0  0  0  0
  6  5  1  0  0  0  0
  6  1  2  0  0  0  0
 10  5  1  0  0  0  0
 11 17  1  0  0  0  0
 11 16  1  0  0  0  0
 12 11  2  0  0  0  0
 13 12  1  0  0  0  0
 13 14  2  0  0  0  0
 14 15  1  0  0  0  0
 15 16  2  0  0  0  0
 15  1  1  0  0  0  0
 18 12  1  0  0  0  0
 19 13  1  0  0  0  0
 20 29  1  0  0  0  0
 20 21  1  0  0  0  0
 21  6  1  0  0  0  0
 22 21  2  0  0  0  0
 22 23  1  0  0  0  0
 24 22  1  0  0  0  0
 25 24  1  0  0  0  0
 26 27  1  0  0  0  0
 26 24  2  0  0  0  0
 27 20  2  0  0  0  0
 29 30  2  0  0  0  0
 29 28  1  0  0  0  0
 31 29  2  0  0  0  0
M  END
>  <minimizedAffinity>
-5.09072876

>  <minimizedRMSD>
2.5107286

$$$$
