
 OpenBabel03212520383D

 29 31  0  0  1  0  0  0  0  0999 V2000
   42.4630   85.5250   59.8750 C   0  0  1  0  0  0  0  0  0  0  0  0
   43.5990   86.4340   59.4510 C   0  0  0  0  0  0  0  0  0  0  0  0
   43.0010   85.3940   58.5010 C   0  0  1  0  0  0  0  0  0  0  0  0
   41.4740   86.0390   60.0550 H   0  0  0  0  0  0  0  0  0  0  0  0
   44.5810   86.2480   59.8830 H   0  0  0  0  0  0  0  0  0  0  0  0
   43.3150   87.4700   59.1880 H   0  0  0  0  0  0  0  0  0  0  0  0
   42.3860   85.7590   57.6460 H   0  0  0  0  0  0  0  0  0  0  0  0
   43.2570   83.2120   57.6210 C   0  0  0  0  0  0  0  0  0  0  0  0
   43.9510   84.3110   58.1480 C   0  0  0  0  0  0  0  0  0  0  0  0
   45.3210   84.2150   58.2520 C   0  0  0  0  0  0  0  0  0  0  0  0
   45.7590   85.1010   58.6680 H   0  0  0  0  0  0  0  0  0  0  0  0
   45.9910   83.0810   57.8520 C   0  0  0  0  0  0  0  0  0  0  0  0
   47.0640   83.0970   57.9710 H   0  0  0  0  0  0  0  0  0  0  0  0
   45.3230   81.9910   57.3330 C   0  0  0  0  0  3  0  0  0  0  0  0
   43.9510   82.0680   57.2210 C   0  0  0  0  0  3  0  0  0  0  0  0
   40.9500   84.2790   57.1940 H   0  0  0  0  0  0  0  0  0  0  0  0
   41.5280   83.0530   57.3730 S   0  0  0  0  0  0  0  0  0  0  0  0
   40.8800   82.4880   58.6290 O   0  0  0  0  0  0  0  0  0  0  0  0
   41.2400   82.1630   56.1870 O   0  0  0  0  0  0  0  0  0  0  0  0
   42.8170   84.5770   60.8370 O   0  0  0  0  0  0  0  0  0  0  0  0
   40.0420   83.5380   62.9170 C   0  0  0  0  0  0  0  0  0  0  0  0
   40.5540   83.7580   64.2070 C   0  0  0  0  0  0  0  0  0  0  0  0
   41.8750   84.2710   64.3160 C   0  0  0  0  0  0  0  0  0  0  0  0
   42.5250   84.5010   63.1580 N   0  0  0  0  0  0  0  0  0  0  0  0
   42.0140   84.2830   61.9290 C   0  0  0  0  0  0  0  0  0  0  0  0
   40.7700   83.8000   61.8100 N   0  0  0  0  0  0  0  0  0  0  0  0
   39.0550   83.1550   62.8550 H   0  0  0  0  0  0  0  0  0  0  0  0
   39.9770   83.5500   65.0980 H   0  0  0  0  0  0  0  0  0  0  0  0
   42.3210   84.4600   65.2820 H   0  0  0  0  0  0  0  0  0  0  0  0
  1  4  1  1  0  0  0
  1 20  1  0  0  0  0
  2  1  1  0  0  0  0
  2  5  1  0  0  0  0
  3  7  1  6  0  0  0
  3  2  1  0  0  0  0
  3  1  1  0  0  0  0
  6  2  1  0  0  0  0
  8  9  1  0  0  0  0
  9 10  2  0  0  0  0
  9  3  1  0  0  0  0
 10 11  1  0  0  0  0
 12 13  1  0  0  0  0
 12 10  1  0  0  0  0
 14 12  2  0  0  0  0
 15 14  1  0  0  0  0
 15  8  2  0  0  0  0
 16 17  1  0  0  0  0
 17  8  1  0  0  0  0
 17 18  2  0  0  0  0
 19 17  2  0  0  0  0
 20 25  1  0  0  0  0
 21 22  1  0  0  0  0
 22 23  2  0  0  0  0
 22 28  1  0  0  0  0
 23 29  1  0  0  0  0
 24 23  1  0  0  0  0
 25 24  2  0  0  0  0
 26 25  1  0  0  0  0
 26 21  2  0  0  0  0
 27 21  1  0  0  0  0
M  END
>  <minimizedAffinity>
-3.86284518

>  <minimizedRMSD>
0.642000198

$$$$
