
 OpenBabel03212520383D

 29 31  0  0  1  0  0  0  0  0999 V2000
   42.9730   85.0930   60.1360 C   0  0  1  0  0  0  0  0  0  0  0  0
   44.2060   85.1950   59.2610 C   0  0  0  0  0  0  0  0  0  0  0  0
   42.8940   84.6030   58.7410 C   0  0  1  0  0  0  0  0  0  0  0  0
   42.5030   86.0780   60.4240 H   0  0  0  0  0  0  0  0  0  0  0  0
   45.0350   84.5220   59.4790 H   0  0  0  0  0  0  0  0  0  0  0  0
   44.4210   86.1960   58.8440 H   0  0  0  0  0  0  0  0  0  0  0  0
   42.3130   85.1950   57.9960 H   0  0  0  0  0  0  0  0  0  0  0  0
   43.3300   82.9740   57.0820 C   0  0  0  0  0  0  0  0  0  0  0  0
   42.9880   83.1570   58.4280 C   0  0  0  0  0  0  0  0  0  0  0  0
   42.7990   82.0320   59.2010 C   0  0  0  0  0  0  0  0  0  0  0  0
   42.5380   82.2740   60.2120 H   0  0  0  0  0  0  0  0  0  0  0  0
   42.9410   80.7680   58.6720 C   0  0  0  0  0  0  0  0  0  0  0  0
   42.7740   79.9480   59.3530 H   0  0  0  0  0  0  0  0  0  0  0  0
   43.2780   80.5720   57.3500 C   0  0  0  0  0  3  0  0  0  0  0  0
   43.4710   81.6860   56.5580 C   0  0  0  0  0  3  0  0  0  0  0  0
   44.2360   85.2990   56.4340 H   0  0  0  0  0  0  0  0  0  0  0  0
   43.6300   84.2090   55.8720 S   0  0  0  0  0  0  0  0  0  0  0  0
   42.3060   84.7280   55.3300 O   0  0  0  0  0  0  0  0  0  0  0  0
   44.4790   83.6610   54.7500 O   0  0  0  0  0  0  0  0  0  0  0  0
   43.0840   84.1680   61.1760 O   0  0  0  0  0  0  0  0  0  0  0  0
   40.0160   83.5450   62.9940 C   0  0  0  0  0  0  0  0  0  0  0  0
   40.3820   83.9030   64.3020 C   0  0  0  0  0  0  0  0  0  0  0  0
   41.7100   84.3590   64.5170 C   0  0  0  0  0  0  0  0  0  0  0  0
   42.5090   84.4060   63.4320 N   0  0  0  0  0  0  0  0  0  0  0  0
   42.1370   84.0570   62.1840 C   0  0  0  0  0  0  0  0  0  0  0  0
   40.8880   83.6250   61.9660 N   0  0  0  0  0  0  0  0  0  0  0  0
   39.0200   83.2070   62.8520 H   0  0  0  0  0  0  0  0  0  0  0  0
   39.6880   83.8400   65.1300 H   0  0  0  0  0  0  0  0  0  0  0  0
   42.0480   84.6470   65.5020 H   0  0  0  0  0  0  0  0  0  0  0  0
  1  4  1  1  0  0  0
  1 20  1  0  0  0  0
  2  5  1  0  0  0  0
  2  1  1  0  0  0  0
  3  7  1  6  0  0  0
  3  2  1  0  0  0  0
  3  1  1  0  0  0  0
  6  2  1  0  0  0  0
  8  9  1  0  0  0  0
  9  3  1  0  0  0  0
  9 10  2  0  0  0  0
 10 11  1  0  0  0  0
 12 10  1  0  0  0  0
 12 13  1  0  0  0  0
 14 12  2  0  0  0  0
 15  8  2  0  0  0  0
 15 14  1  0  0  0  0
 17 16  1  0  0  0  0
 17  8  1  0  0  0  0
 18 17  2  0  0  0  0
 19 17  2  0  0  0  0
 20 25  1  0  0  0  0
 21 22  1  0  0  0  0
 22 23  2  0  0  0  0
 22 28  1  0  0  0  0
 23 29  1  0  0  0  0
 24 23  1  0  0  0  0
 25 24  2  0  0  0  0
 26 25  1  0  0  0  0
 26 21  2  0  0  0  0
 27 21  1  0  0  0  0
M  END
>  <minimizedAffinity>
-3.69308376

>  <minimizedRMSD>
3.06767201

$$$$
