
 OpenBabel03212520153D

 37 40  0  0  0  0  0  0  0  0999 V2000
   42.2020   84.0880   58.3360 Cl  0  0  0  0  0  0  0  0  0  0  0  0
   41.2520   82.6050   58.1750 C   0  0  0  0  0  0  0  0  0  0  0  0
   40.6990   81.9470   59.2490 C   0  0  0  0  0  0  0  0  0  0  0  0
   39.9850   80.8000   58.9430 C   0  0  0  0  0  0  0  0  0  0  0  0
   39.7840   80.2730   57.6920 C   0  0  0  0  0  0  0  0  0  0  0  0
   40.3570   80.9690   56.6450 C   0  0  0  0  0  0  0  0  0  0  0  0
   40.1700   80.3930   54.9970 Cl  0  0  0  0  0  0  0  0  0  0  0  0
   41.0880   82.1310   56.8990 C   0  0  0  0  0  0  0  0  0  0  0  0
   39.5380   80.2640   59.7790 H   0  0  0  0  0  0  0  0  0  0  0  0
   39.2080   79.3680   57.5500 H   0  0  0  0  0  0  0  0  0  0  0  0
   41.9550   82.1970   61.4370 C   0  0  0  0  0  0  0  0  0  0  0  0
   40.8890   82.4660   60.5550 C   0  0  0  0  0  0  0  0  0  0  0  0
   39.9030   83.3370   61.0070 C   0  0  0  0  0  0  0  0  0  0  0  0
   40.0290   83.8680   62.2520 N   0  0  0  0  0  0  0  0  0  0  0  0
   41.0730   83.5810   63.0660 C   0  0  0  0  0  0  0  0  0  0  0  0
   42.0370   82.7420   62.6540 N   0  0  0  0  0  0  0  0  0  0  0  0
   42.7020   81.5080   61.0400 H   0  0  0  0  0  0  0  0  0  0  0  0
   39.0460   83.6090   60.4120 H   0  0  0  0  0  0  0  0  0  0  0  0
   41.0440   84.2520   64.3900 C   0  0  0  0  0  0  0  0  0  0  0  0
   40.7570   85.6050   64.2880 F   0  0  0  0  0  0  0  0  0  0  0  0
   40.1110   83.6560   65.2080 F   0  0  0  0  0  0  0  0  0  0  0  0
   42.3110   84.2170   64.9860 F   0  0  0  0  0  0  0  0  0  0  0  0
   41.6320   82.7710   55.7990 O   0  0  0  0  0  0  0  0  0  0  0  0
   42.3530   82.0450   53.2200 H   0  0  0  0  0  0  0  0  0  0  0  0
   43.0900   82.1490   53.9530 N   0  0  0  0  0  0  0  0  0  0  0  0
   42.8700   82.4990   55.2510 C   0  0  0  0  0  0  0  0  0  0  0  0
   44.0910   82.5180   55.8570 N   0  0  0  0  0  0  0  0  0  0  0  0
   45.0190   82.1830   54.9300 C   0  0  0  0  0  0  0  0  0  0  0  0
   46.4010   82.0680   55.0740 C   0  0  0  0  0  0  0  0  0  0  0  0
   47.1420   81.7190   54.0020 N   0  0  0  0  0  0  0  0  0  0  0  0
   46.5400   81.4870   52.8160 C   0  0  0  0  0  0  0  0  0  0  0  0
   47.0500   81.2030   51.9040 H   0  0  0  0  0  0  0  0  0  0  0  0
   45.1960   81.6060   52.7080 N   0  0  0  0  0  0  0  0  0  0  0  0
   44.3990   81.9480   53.7240 C   0  0  0  0  0  0  0  0  0  0  0  0
   46.9860   82.3220   56.3380 N   0  0  0  0  0  0  0  0  0  0  0  0
   46.7060   81.9760   57.2980 H   0  0  0  0  0  0  0  0  0  0  0  0
   47.7920   82.8750   56.6630 H   0  0  0  0  0  0  0  0  0  0  0  0
  2  1  1  0  0  0  0
  2  3  1  0  0  0  0
  3 12  1  0  0  0  0
  4  3  2  0  0  0  0
  4  9  1  0  0  0  0
  5  4  1  0  0  0  0
  6  8  1  0  0  0  0
  6  5  2  0  0  0  0
  7  6  1  0  0  0  0
  8  2  2  0  0  0  0
 10  5  1  0  0  0  0
 11 16  1  0  0  0  0
 12 13  1  0  0  0  0
 12 11  2  0  0  0  0
 13 14  2  0  0  0  0
 14 15  1  0  0  0  0
 15 19  1  0  0  0  0
 16 15  2  0  0  0  0
 17 11  1  0  0  0  0
 18 13  1  0  0  0  0
 19 22  1  0  0  0  0
 19 21  1  0  0  0  0
 20 19  1  0  0  0  0
 23  8  1  0  0  0  0
 24 25  1  0  0  0  0
 25 26  1  0  0  0  0
 26 23  1  0  0  0  0
 26 27  2  0  0  0  0
 28 29  1  0  0  0  0
 28 27  1  0  0  0  0
 29 35  1  0  0  0  0
 30 29  2  0  0  0  0
 31 30  1  0  0  0  0
 32 31  1  0  0  0  0
 33 31  2  0  0  0  0
 33 34  1  0  0  0  0
 34 25  1  0  0  0  0
 34 28  2  0  0  0  0
 35 37  1  0  0  0  0
 35 36  1  0  0  0  0
M  END
>  <minimizedAffinity>
-5.06902885

>  <minimizedRMSD>
0.105608553

$$$$
