
 OpenBabel03212520153D

 37 40  0  0  0  0  0  0  0  0999 V2000
   42.1980   84.0930   58.3300 Cl  0  0  0  0  0  0  0  0  0  0  0  0
   41.2520   82.6070   58.1680 C   0  0  0  0  0  0  0  0  0  0  0  0
   40.7020   81.9470   59.2420 C   0  0  0  0  0  0  0  0  0  0  0  0
   39.9910   80.7990   58.9360 C   0  0  0  0  0  0  0  0  0  0  0  0
   39.7900   80.2720   57.6840 C   0  0  0  0  0  0  0  0  0  0  0  0
   40.3600   80.9710   56.6370 C   0  0  0  0  0  0  0  0  0  0  0  0
   40.1730   80.3970   54.9890 Cl  0  0  0  0  0  0  0  0  0  0  0  0
   41.0880   82.1350   56.8920 C   0  0  0  0  0  0  0  0  0  0  0  0
   39.5470   80.2600   59.7710 H   0  0  0  0  0  0  0  0  0  0  0  0
   39.2160   79.3660   57.5420 H   0  0  0  0  0  0  0  0  0  0  0  0
   41.9580   82.1930   61.4310 C   0  0  0  0  0  0  0  0  0  0  0  0
   40.8920   82.4650   60.5490 C   0  0  0  0  0  0  0  0  0  0  0  0
   39.9070   83.3370   61.0000 C   0  0  0  0  0  0  0  0  0  0  0  0
   40.0330   83.8670   62.2460 N   0  0  0  0  0  0  0  0  0  0  0  0
   41.0760   83.5790   63.0600 C   0  0  0  0  0  0  0  0  0  0  0  0
   42.0400   82.7380   62.6480 N   0  0  0  0  0  0  0  0  0  0  0  0
   42.7030   81.5040   61.0340 H   0  0  0  0  0  0  0  0  0  0  0  0
   39.0510   83.6110   60.4050 H   0  0  0  0  0  0  0  0  0  0  0  0
   41.0480   84.2480   64.3850 C   0  0  0  0  0  0  0  0  0  0  0  0
   40.7590   85.6010   64.2830 F   0  0  0  0  0  0  0  0  0  0  0  0
   40.1170   83.6510   65.2030 F   0  0  0  0  0  0  0  0  0  0  0  0
   42.3160   84.2150   64.9790 F   0  0  0  0  0  0  0  0  0  0  0  0
   41.6290   82.7780   55.7920 O   0  0  0  0  0  0  0  0  0  0  0  0
   43.5390   84.6860   55.1550 H   0  0  0  0  0  0  0  0  0  0  0  0
   43.7730   83.6710   55.0690 N   0  0  0  0  0  0  0  0  0  0  0  0
   42.9290   82.6380   55.3490 C   0  0  0  0  0  0  0  0  0  0  0  0
   43.6280   81.4950   55.1040 N   0  0  0  0  0  0  0  0  0  0  0  0
   44.8660   81.8460   54.6860 C   0  0  0  0  0  0  0  0  0  0  0  0
   45.9330   81.0260   54.3180 C   0  0  0  0  0  0  0  0  0  0  0  0
   47.0900   81.5990   53.9280 N   0  0  0  0  0  0  0  0  0  0  0  0
   47.2000   82.9440   53.9000 C   0  0  0  0  0  0  0  0  0  0  0  0
   48.0850   83.4920   53.6030 H   0  0  0  0  0  0  0  0  0  0  0  0
   46.1460   83.7140   54.2630 N   0  0  0  0  0  0  0  0  0  0  0  0
   44.9700   83.2180   54.6600 C   0  0  0  0  0  0  0  0  0  0  0  0
   45.7720   79.6200   54.3640 N   0  0  0  0  0  0  0  0  0  0  0  0
   44.9830   79.0150   53.9970 H   0  0  0  0  0  0  0  0  0  0  0  0
   46.3300   78.8410   54.7370 H   0  0  0  0  0  0  0  0  0  0  0  0
  2  1  1  0  0  0  0
  2  3  1  0  0  0  0
  3 12  1  0  0  0  0
  4  3  2  0  0  0  0
  4  9  1  0  0  0  0
  5  4  1  0  0  0  0
  6  8  1  0  0  0  0
  6  5  2  0  0  0  0
  7  6  1  0  0  0  0
  8  2  2  0  0  0  0
 10  5  1  0  0  0  0
 11 16  1  0  0  0  0
 12 13  1  0  0  0  0
 12 11  2  0  0  0  0
 13 14  2  0  0  0  0
 14 15  1  0  0  0  0
 15 19  1  0  0  0  0
 16 15  2  0  0  0  0
 17 11  1  0  0  0  0
 18 13  1  0  0  0  0
 19 22  1  0  0  0  0
 19 21  1  0  0  0  0
 20 19  1  0  0  0  0
 23  8  1  0  0  0  0
 25 24  1  0  0  0  0
 25 26  1  0  0  0  0
 26 23  1  0  0  0  0
 27 26  2  0  0  0  0
 28 27  1  0  0  0  0
 29 35  1  0  0  0  0
 29 28  2  0  0  0  0
 30 29  1  0  0  0  0
 31 30  2  0  0  0  0
 31 33  1  0  0  0  0
 32 31  1  0  0  0  0
 33 34  2  0  0  0  0
 34 28  1  0  0  0  0
 34 25  1  0  0  0  0
 35 37  1  0  0  0  0
 36 35  1  0  0  0  0
M  END
>  <minimizedAffinity>
-5.08010578

>  <minimizedRMSD>
0.370420337

$$$$
