
 OpenBabel03212520153D

 37 40  0  0  0  0  0  0  0  0999 V2000
   42.1580   84.0810   58.3430 Cl  0  0  0  0  0  0  0  0  0  0  0  0
   41.2200   82.5900   58.1920 C   0  0  0  0  0  0  0  0  0  0  0  0
   40.6800   81.9300   59.2720 C   0  0  0  0  0  0  0  0  0  0  0  0
   39.9740   80.7770   58.9750 C   0  0  0  0  0  0  0  0  0  0  0  0
   39.7680   80.2440   57.7260 C   0  0  0  0  0  0  0  0  0  0  0  0
   40.3280   80.9420   56.6730 C   0  0  0  0  0  0  0  0  0  0  0  0
   40.1330   80.3610   55.0280 Cl  0  0  0  0  0  0  0  0  0  0  0  0
   41.0500   82.1120   56.9190 C   0  0  0  0  0  0  0  0  0  0  0  0
   39.5390   80.2380   59.8150 H   0  0  0  0  0  0  0  0  0  0  0  0
   39.1990   79.3340   57.5910 H   0  0  0  0  0  0  0  0  0  0  0  0
   41.9500   82.1930   61.4520 C   0  0  0  0  0  0  0  0  0  0  0  0
   40.8760   82.4540   60.5760 C   0  0  0  0  0  0  0  0  0  0  0  0
   39.8880   83.3210   61.0310 C   0  0  0  0  0  0  0  0  0  0  0  0
   40.0190   83.8560   62.2740 N   0  0  0  0  0  0  0  0  0  0  0  0
   41.0690   83.5780   63.0820 C   0  0  0  0  0  0  0  0  0  0  0  0
   42.0360   82.7420   62.6660 N   0  0  0  0  0  0  0  0  0  0  0  0
   42.6970   81.5080   61.0520 H   0  0  0  0  0  0  0  0  0  0  0  0
   39.0260   83.5870   60.4400 H   0  0  0  0  0  0  0  0  0  0  0  0
   41.0460   84.2520   64.4040 C   0  0  0  0  0  0  0  0  0  0  0  0
   40.7580   85.6050   64.2990 F   0  0  0  0  0  0  0  0  0  0  0  0
   40.1150   83.6590   65.2270 F   0  0  0  0  0  0  0  0  0  0  0  0
   42.3140   84.2190   64.9960 F   0  0  0  0  0  0  0  0  0  0  0  0
   41.5810   82.7540   55.8130 O   0  0  0  0  0  0  0  0  0  0  0  0
   42.3000   82.3840   53.1590 H   0  0  0  0  0  0  0  0  0  0  0  0
   43.0270   82.3130   53.9060 N   0  0  0  0  0  0  0  0  0  0  0  0
   42.8050   82.4720   55.2410 C   0  0  0  0  0  0  0  0  0  0  0  0
   44.0110   82.3000   55.8530 N   0  0  0  0  0  0  0  0  0  0  0  0
   44.9300   82.0420   54.8950 C   0  0  0  0  0  0  0  0  0  0  0  0
   46.2970   81.7980   55.0320 C   0  0  0  0  0  0  0  0  0  0  0  0
   47.0310   81.5620   53.9250 N   0  0  0  0  0  0  0  0  0  0  0  0
   46.4400   81.5660   52.7130 C   0  0  0  0  0  0  0  0  0  0  0  0
   46.9460   81.3880   51.7720 H   0  0  0  0  0  0  0  0  0  0  0  0
   45.1120   81.8070   52.6110 N   0  0  0  0  0  0  0  0  0  0  0  0
   44.3200   82.0480   53.6610 C   0  0  0  0  0  0  0  0  0  0  0  0
   46.8720   81.8030   56.3260 N   0  0  0  0  0  0  0  0  0  0  0  0
   46.5440   81.3340   57.2160 H   0  0  0  0  0  0  0  0  0  0  0  0
   47.7100   82.2320   56.7420 H   0  0  0  0  0  0  0  0  0  0  0  0
  2  1  1  0  0  0  0
  2  3  1  0  0  0  0
  3 12  1  0  0  0  0
  4  3  2  0  0  0  0
  4  9  1  0  0  0  0
  5  4  1  0  0  0  0
  6  8  1  0  0  0  0
  6  5  2  0  0  0  0
  7  6  1  0  0  0  0
  8  2  2  0  0  0  0
 10  5  1  0  0  0  0
 11 16  1  0  0  0  0
 12 13  1  0  0  0  0
 12 11  2  0  0  0  0
 13 14  2  0  0  0  0
 14 15  1  0  0  0  0
 15 19  1  0  0  0  0
 16 15  2  0  0  0  0
 17 11  1  0  0  0  0
 18 13  1  0  0  0  0
 19 22  1  0  0  0  0
 19 21  1  0  0  0  0
 20 19  1  0  0  0  0
 23  8  1  0  0  0  0
 24 25  1  0  0  0  0
 25 26  1  0  0  0  0
 26 23  1  0  0  0  0
 26 27  2  0  0  0  0
 28 29  1  0  0  0  0
 28 27  1  0  0  0  0
 29 35  1  0  0  0  0
 30 29  2  0  0  0  0
 31 30  1  0  0  0  0
 32 31  1  0  0  0  0
 33 31  2  0  0  0  0
 33 34  1  0  0  0  0
 34 25  1  0  0  0  0
 34 28  2  0  0  0  0
 35 37  1  0  0  0  0
 35 36  1  0  0  0  0
M  END
>  <minimizedAffinity>
-5.07374907

>  <minimizedRMSD>
0.156992704

$$$$
