
 OpenBabel03212520163D

 37 40  0  0  0  0  0  0  0  0999 V2000
   39.6170   73.1300   61.5590 Cl  0  0  0  0  0  0  0  0  0  0  0  0
   41.1990   73.4330   60.8290 C   0  0  0  0  0  0  0  0  0  0  0  0
   42.2370   72.5310   60.8850 C   0  0  0  0  0  0  0  0  0  0  0  0
   43.4070   72.9280   60.2610 C   0  0  0  0  0  0  0  0  0  0  0  0
   43.6200   74.1160   59.6060 C   0  0  0  0  0  0  0  0  0  0  0  0
   42.5500   74.9890   59.5760 C   0  0  0  0  0  0  0  0  0  0  0  0
   42.7000   76.5400   58.7680 Cl  0  0  0  0  0  0  0  0  0  0  0  0
   41.3470   74.6360   60.1910 C   0  0  0  0  0  0  0  0  0  0  0  0
   44.2410   72.2290   60.2930 H   0  0  0  0  0  0  0  0  0  0  0  0
   44.5740   74.3390   59.1450 H   0  0  0  0  0  0  0  0  0  0  0  0
   41.8590   71.0900   62.9370 C   0  0  0  0  0  0  0  0  0  0  0  0
   42.0480   71.2950   61.5550 C   0  0  0  0  0  0  0  0  0  0  0  0
   42.0540   70.1630   60.7460 C   0  0  0  0  0  0  0  0  0  0  0  0
   41.8790   68.9480   61.3300 N   0  0  0  0  0  0  0  0  0  0  0  0
   41.6990   68.7980   62.6640 C   0  0  0  0  0  0  0  0  0  0  0  0
   41.6910   69.8750   63.4670 N   0  0  0  0  0  0  0  0  0  0  0  0
   41.8630   72.0040   63.5300 H   0  0  0  0  0  0  0  0  0  0  0  0
   42.1910   70.2100   59.6770 H   0  0  0  0  0  0  0  0  0  0  0  0
   41.5240   67.3980   63.1240 C   0  0  0  0  0  0  0  0  0  0  0  0
   40.2380   67.1530   63.5810 F   0  0  0  0  0  0  0  0  0  0  0  0
   41.8130   66.5200   62.1040 F   0  0  0  0  0  0  0  0  0  0  0  0
   42.3350   67.1410   64.2360 F   0  0  0  0  0  0  0  0  0  0  0  0
   40.3210   75.5630   60.1180 O   0  0  0  0  0  0  0  0  0  0  0  0
   39.7540   77.7920   58.5650 H   0  0  0  0  0  0  0  0  0  0  0  0
   39.2760   76.8850   58.3630 N   0  0  0  0  0  0  0  0  0  0  0  0
   39.4650   75.7210   59.0460 C   0  0  0  0  0  0  0  0  0  0  0  0
   38.6550   74.7950   58.4600 N   0  0  0  0  0  0  0  0  0  0  0  0
   37.9970   75.4020   57.4460 C   0  0  0  0  0  0  0  0  0  0  0  0
   37.0640   74.8650   56.5600 C   0  0  0  0  0  0  0  0  0  0  0  0
   36.5290   75.6630   55.6130 N   0  0  0  0  0  0  0  0  0  0  0  0
   36.9010   76.9580   55.5370 C   0  0  0  0  0  0  0  0  0  0  0  0
   36.5270   77.6730   54.8140 H   0  0  0  0  0  0  0  0  0  0  0  0
   37.8090   77.4510   56.4110 N   0  0  0  0  0  0  0  0  0  0  0  0
   38.3810   76.7220   57.3740 C   0  0  0  0  0  0  0  0  0  0  0  0
   36.7050   73.5000   56.6780 N   0  0  0  0  0  0  0  0  0  0  0  0
   36.4370   72.9400   57.5370 H   0  0  0  0  0  0  0  0  0  0  0  0
   36.6080   72.7180   56.0160 H   0  0  0  0  0  0  0  0  0  0  0  0
  2  3  1  0  0  0  0
  2  1  1  0  0  0  0
  3 12  1  0  0  0  0
  4  9  1  0  0  0  0
  4  3  2  0  0  0  0
  5  4  1  0  0  0  0
  6  5  2  0  0  0  0
  6  8  1  0  0  0  0
  7  6  1  0  0  0  0
  8  2  2  0  0  0  0
 10  5  1  0  0  0  0
 11 16  1  0  0  0  0
 11 17  1  0  0  0  0
 12 11  2  0  0  0  0
 13 14  2  0  0  0  0
 13 12  1  0  0  0  0
 14 15  1  0  0  0  0
 15 19  1  0  0  0  0
 15 16  2  0  0  0  0
 18 13  1  0  0  0  0
 19 20  1  0  0  0  0
 19 22  1  0  0  0  0
 21 19  1  0  0  0  0
 23  8  1  0  0  0  0
 25 24  1  0  0  0  0
 25 26  1  0  0  0  0
 26 23  1  0  0  0  0
 27 26  2  0  0  0  0
 28 27  1  0  0  0  0
 29 35  1  0  0  0  0
 29 28  2  0  0  0  0
 30 29  1  0  0  0  0
 31 30  2  0  0  0  0
 31 33  1  0  0  0  0
 32 31  1  0  0  0  0
 33 34  2  0  0  0  0
 34 28  1  0  0  0  0
 34 25  1  0  0  0  0
 35 36  1  0  0  0  0
 37 35  1  0  0  0  0
M  END
>  <minimizedAffinity>
-7.88764143

$$$$

 OpenBabel03212520163D

 37 40  0  0  0  0  0  0  0  0999 V2000
   39.5430   73.0440   61.1610 Cl  0  0  0  0  0  0  0  0  0  0  0  0
   41.1750   73.4570   60.6190 C   0  0  0  0  0  0  0  0  0  0  0  0
   42.2650   72.6450   60.8310 C   0  0  0  0  0  0  0  0  0  0  0  0
   43.4690   73.1220   60.3410 C   0  0  0  0  0  0  0  0  0  0  0  0
   43.6680   74.3070   59.6770 C   0  0  0  0  0  0  0  0  0  0  0  0
   42.5450   75.0890   59.4860 C   0  0  0  0  0  0  0  0  0  0  0  0
   42.6720   76.6260   58.6500 Cl  0  0  0  0  0  0  0  0  0  0  0  0
   41.3060   74.6530   59.9620 C   0  0  0  0  0  0  0  0  0  0  0  0
   44.3450   72.4950   60.4980 H   0  0  0  0  0  0  0  0  0  0  0  0
   44.6510   74.5970   59.3280 H   0  0  0  0  0  0  0  0  0  0  0  0
   41.9230   71.2220   62.9020 C   0  0  0  0  0  0  0  0  0  0  0  0
   42.0930   71.4150   61.5150 C   0  0  0  0  0  0  0  0  0  0  0  0
   42.0950   70.2760   60.7170 C   0  0  0  0  0  0  0  0  0  0  0  0
   41.9350   69.0650   61.3140 N   0  0  0  0  0  0  0  0  0  0  0  0
   41.7730   68.9270   62.6520 C   0  0  0  0  0  0  0  0  0  0  0  0
   41.7680   70.0110   63.4450 N   0  0  0  0  0  0  0  0  0  0  0  0
   41.9290   72.1420   63.4860 H   0  0  0  0  0  0  0  0  0  0  0  0
   42.2180   70.3130   59.6460 H   0  0  0  0  0  0  0  0  0  0  0  0
   41.6120   67.5300   63.1280 C   0  0  0  0  0  0  0  0  0  0  0  0
   41.5530   66.6220   62.0810 F   0  0  0  0  0  0  0  0  0  0  0  0
   42.6530   67.1860   63.9610 F   0  0  0  0  0  0  0  0  0  0  0  0
   40.3860   67.3730   63.7850 F   0  0  0  0  0  0  0  0  0  0  0  0
   40.2280   75.4910   59.7340 O   0  0  0  0  0  0  0  0  0  0  0  0
   38.1910   77.2000   58.9400 H   0  0  0  0  0  0  0  0  0  0  0  0
   38.4880   76.4220   58.3100 N   0  0  0  0  0  0  0  0  0  0  0  0
   39.4710   75.5170   58.5790 C   0  0  0  0  0  0  0  0  0  0  0  0
   39.5320   74.6850   57.5020 N   0  0  0  0  0  0  0  0  0  0  0  0
   38.6000   75.0900   56.6090 C   0  0  0  0  0  0  0  0  0  0  0  0
   38.2880   74.5540   55.3610 C   0  0  0  0  0  0  0  0  0  0  0  0
   37.3090   75.1270   54.6310 N   0  0  0  0  0  0  0  0  0  0  0  0
   36.6520   76.2030   55.1140 C   0  0  0  0  0  0  0  0  0  0  0  0
   35.8550   76.7280   54.6020 H   0  0  0  0  0  0  0  0  0  0  0  0
   36.9770   76.7020   56.3300 N   0  0  0  0  0  0  0  0  0  0  0  0
   37.9340   76.1870   57.1090 C   0  0  0  0  0  0  0  0  0  0  0  0
   39.0050   73.4250   54.8960 N   0  0  0  0  0  0  0  0  0  0  0  0
   39.2440   72.5200   55.3930 H   0  0  0  0  0  0  0  0  0  0  0  0
   39.4640   73.1750   54.0100 H   0  0  0  0  0  0  0  0  0  0  0  0
  2  3  1  0  0  0  0
  2  1  1  0  0  0  0
  3 12  1  0  0  0  0
  4  9  1  0  0  0  0
  4  3  2  0  0  0  0
  5  4  1  0  0  0  0
  6  5  2  0  0  0  0
  6  8  1  0  0  0  0
  7  6  1  0  0  0  0
  8  2  2  0  0  0  0
 10  5  1  0  0  0  0
 11 16  1  0  0  0  0
 11 17  1  0  0  0  0
 12 11  2  0  0  0  0
 13 14  2  0  0  0  0
 13 12  1  0  0  0  0
 14 15  1  0  0  0  0
 15 19  1  0  0  0  0
 15 16  2  0  0  0  0
 18 13  1  0  0  0  0
 19 22  1  0  0  0  0
 19 21  1  0  0  0  0
 20 19  1  0  0  0  0
 23  8  1  0  0  0  0
 25 26  1  0  0  0  0
 25 24  1  0  0  0  0
 26 23  1  0  0  0  0
 27 26  2  0  0  0  0
 28 34  1  0  0  0  0
 28 27  1  0  0  0  0
 29 28  2  0  0  0  0
 30 31  2  0  0  0  0
 30 29  1  0  0  0  0
 31 33  1  0  0  0  0
 32 31  1  0  0  0  0
 33 34  2  0  0  0  0
 34 25  1  0  0  0  0
 35 29  1  0  0  0  0
 35 36  1  0  0  0  0
 37 35  1  0  0  0  0
M  END
>  <minimizedAffinity>
-7.5708766

$$$$

 OpenBabel03212520163D

 37 40  0  0  0  0  0  0  0  0999 V2000
   38.6080   73.0100   58.0020 Cl  0  0  0  0  0  0  0  0  0  0  0  0
   39.9430   74.0530   58.5090 C   0  0  0  0  0  0  0  0  0  0  0  0
   41.2050   73.5780   58.7830 C   0  0  0  0  0  0  0  0  0  0  0  0
   42.1310   74.5330   59.1670 C   0  0  0  0  0  0  0  0  0  0  0  0
   41.9090   75.8810   59.2960 C   0  0  0  0  0  0  0  0  0  0  0  0
   40.6270   76.3120   59.0100 C   0  0  0  0  0  0  0  0  0  0  0  0
   40.2190   78.0140   59.1390 Cl  0  0  0  0  0  0  0  0  0  0  0  0
   39.6550   75.3880   58.6180 C   0  0  0  0  0  0  0  0  0  0  0  0
   43.1370   74.1790   59.3880 H   0  0  0  0  0  0  0  0  0  0  0  0
   42.6990   76.5540   59.6030 H   0  0  0  0  0  0  0  0  0  0  0  0
   41.7280   71.4700   57.4750 C   0  0  0  0  0  0  0  0  0  0  0  0
   41.4680   72.1900   58.6590 C   0  0  0  0  0  0  0  0  0  0  0  0
   41.4640   71.4670   59.8470 C   0  0  0  0  0  0  0  0  0  0  0  0
   41.7080   70.1310   59.7940 N   0  0  0  0  0  0  0  0  0  0  0  0
   41.9550   69.4800   58.6320 C   0  0  0  0  0  0  0  0  0  0  0  0
   41.9630   70.1550   57.4710 N   0  0  0  0  0  0  0  0  0  0  0  0
   41.7200   72.0780   56.5700 H   0  0  0  0  0  0  0  0  0  0  0  0
   41.2760   71.9220   60.8070 H   0  0  0  0  0  0  0  0  0  0  0  0
   42.2000   68.0220   58.7650 C   0  0  0  0  0  0  0  0  0  0  0  0
   42.6690   67.6800   60.0250 F   0  0  0  0  0  0  0  0  0  0  0  0
   41.0450   67.3180   58.5110 F   0  0  0  0  0  0  0  0  0  0  0  0
   43.2220   67.6140   57.8990 F   0  0  0  0  0  0  0  0  0  0  0  0
   38.3950   75.8960   58.3500 O   0  0  0  0  0  0  0  0  0  0  0  0
   38.5820   78.4200   57.2130 H   0  0  0  0  0  0  0  0  0  0  0  0
   38.1260   77.6450   56.6810 N   0  0  0  0  0  0  0  0  0  0  0  0
   37.9720   76.3660   57.1230 C   0  0  0  0  0  0  0  0  0  0  0  0
   37.3330   75.6890   56.1260 N   0  0  0  0  0  0  0  0  0  0  0  0
   37.1140   76.5560   55.1110 C   0  0  0  0  0  0  0  0  0  0  0  0
   36.4950   76.3290   53.8820 C   0  0  0  0  0  0  0  0  0  0  0  0
   36.3840   77.3510   53.0090 N   0  0  0  0  0  0  0  0  0  0  0  0
   36.8690   78.5690   53.3340 C   0  0  0  0  0  0  0  0  0  0  0  0
   36.8250   79.4460   52.7010 H   0  0  0  0  0  0  0  0  0  0  0  0
   37.4640   78.7590   54.5350 N   0  0  0  0  0  0  0  0  0  0  0  0
   37.6100   77.7940   55.4490 C   0  0  0  0  0  0  0  0  0  0  0  0
   36.0030   75.0350   53.5850 N   0  0  0  0  0  0  0  0  0  0  0  0
   35.4120   74.3820   54.1740 H   0  0  0  0  0  0  0  0  0  0  0  0
   36.0700   74.4040   52.7750 H   0  0  0  0  0  0  0  0  0  0  0  0
  1  2  1  0  0  0  0
  2  8  2  0  0  0  0
  2  3  1  0  0  0  0
  3  4  2  0  0  0  0
  4  5  1  0  0  0  0
  4  9  1  0  0  0  0
  5 10  1  0  0  0  0
  6  7  1  0  0  0  0
  6  5  2  0  0  0  0
  8  6  1  0  0  0  0
 11 12  1  0  0  0  0
 12  3  1  0  0  0  0
 12 13  2  0  0  0  0
 13 18  1  0  0  0  0
 14 13  1  0  0  0  0
 15 19  1  0  0  0  0
 15 14  2  0  0  0  0
 16 11  2  0  0  0  0
 16 15  1  0  0  0  0
 17 11  1  0  0  0  0
 19 20  1  0  0  0  0
 21 19  1  0  0  0  0
 22 19  1  0  0  0  0
 23  8  1  0  0  0  0
 25 26  1  0  0  0  0
 25 24  1  0  0  0  0
 26 23  1  0  0  0  0
 27 26  2  0  0  0  0
 28 34  1  0  0  0  0
 28 27  1  0  0  0  0
 29 28  2  0  0  0  0
 30 31  2  0  0  0  0
 30 29  1  0  0  0  0
 31 33  1  0  0  0  0
 32 31  1  0  0  0  0
 33 34  2  0  0  0  0
 34 25  1  0  0  0  0
 35 29  1  0  0  0  0
 35 36  1  0  0  0  0
 37 35  1  0  0  0  0
M  END
>  <minimizedAffinity>
-6.99548006

$$$$

 OpenBabel03212520163D

 37 40  0  0  0  0  0  0  0  0999 V2000
   43.2060   72.1060   60.4670 Cl  0  0  0  0  0  0  0  0  0  0  0  0
   42.2240   71.6890   59.0560 C   0  0  0  0  0  0  0  0  0  0  0  0
   41.5010   72.6180   58.3430 C   0  0  0  0  0  0  0  0  0  0  0  0
   40.7880   72.1190   57.2670 C   0  0  0  0  0  0  0  0  0  0  0  0
   40.7370   70.8100   56.8560 C   0  0  0  0  0  0  0  0  0  0  0  0
   41.4790   69.9140   57.6020 C   0  0  0  0  0  0  0  0  0  0  0  0
   41.4950   68.2120   57.1750 Cl  0  0  0  0  0  0  0  0  0  0  0  0
   42.2170   70.3660   58.6990 C   0  0  0  0  0  0  0  0  0  0  0  0
   40.2080   72.8370   56.6880 H   0  0  0  0  0  0  0  0  0  0  0  0
   40.1490   70.5140   55.9970 H   0  0  0  0  0  0  0  0  0  0  0  0
   42.5030   74.9460   58.4120 C   0  0  0  0  0  0  0  0  0  0  0  0
   41.5320   73.9780   58.7420 C   0  0  0  0  0  0  0  0  0  0  0  0
   40.4800   74.3930   59.5530 C   0  0  0  0  0  0  0  0  0  0  0  0
   40.4540   75.6870   59.9690 N   0  0  0  0  0  0  0  0  0  0  0  0
   41.4090   76.5840   59.6260 C   0  0  0  0  0  0  0  0  0  0  0  0
   42.4360   76.2080   58.8450 N   0  0  0  0  0  0  0  0  0  0  0  0
   43.3070   74.5750   57.7770 H   0  0  0  0  0  0  0  0  0  0  0  0
   39.6860   73.7320   59.8630 H   0  0  0  0  0  0  0  0  0  0  0  0
   41.2180   77.9500   60.1720 C   0  0  0  0  0  0  0  0  0  0  0  0
   40.4130   77.9570   61.3010 F   0  0  0  0  0  0  0  0  0  0  0  0
   42.4340   78.5140   60.4860 F   0  0  0  0  0  0  0  0  0  0  0  0
   40.5280   78.7540   59.2560 F   0  0  0  0  0  0  0  0  0  0  0  0
   42.9330   69.4090   59.3960 O   0  0  0  0  0  0  0  0  0  0  0  0
   42.7320   66.6470   59.5720 H   0  0  0  0  0  0  0  0  0  0  0  0
   42.3820   67.2430   60.3570 N   0  0  0  0  0  0  0  0  0  0  0  0
   42.4230   68.6040   60.3950 C   0  0  0  0  0  0  0  0  0  0  0  0
   41.8690   68.9710   61.5850 N   0  0  0  0  0  0  0  0  0  0  0  0
   41.5070   67.8440   62.2410 C   0  0  0  0  0  0  0  0  0  0  0  0
   40.9040   67.7110   63.4910 C   0  0  0  0  0  0  0  0  0  0  0  0
   40.6310   66.4750   63.9540 N   0  0  0  0  0  0  0  0  0  0  0  0
   40.9400   65.3930   63.2090 C   0  0  0  0  0  0  0  0  0  0  0  0
   40.7590   64.3650   63.4960 H   0  0  0  0  0  0  0  0  0  0  0  0
   41.5260   65.5530   61.9990 N   0  0  0  0  0  0  0  0  0  0  0  0
   41.8270   66.7460   61.4750 C   0  0  0  0  0  0  0  0  0  0  0  0
   40.5980   68.8750   64.2370 N   0  0  0  0  0  0  0  0  0  0  0  0
   40.1190   69.7700   63.9330 H   0  0  0  0  0  0  0  0  0  0  0  0
   40.7400   69.1660   65.2140 H   0  0  0  0  0  0  0  0  0  0  0  0
  2  1  1  0  0  0  0
  3 12  1  0  0  0  0
  3  2  2  0  0  0  0
  4  3  1  0  0  0  0
  5  4  2  0  0  0  0
  5  6  1  0  0  0  0
  6  8  2  0  0  0  0
  7  6  1  0  0  0  0
  8  2  1  0  0  0  0
  8 23  1  0  0  0  0
  9  4  1  0  0  0  0
 10  5  1  0  0  0  0
 11 12  2  0  0  0  0
 11 16  1  0  0  0  0
 12 13  1  0  0  0  0
 13 18  1  0  0  0  0
 13 14  2  0  0  0  0
 15 14  1  0  0  0  0
 15 19  1  0  0  0  0
 16 15  2  0  0  0  0
 17 11  1  0  0  0  0
 19 21  1  0  0  0  0
 19 20  1  0  0  0  0
 22 19  1  0  0  0  0
 23 26  1  0  0  0  0
 24 25  1  0  0  0  0
 25 26  1  0  0  0  0
 25 34  1  0  0  0  0
 26 27  2  0  0  0  0
 27 28  1  0  0  0  0
 28 29  1  0  0  0  0
 29 30  2  0  0  0  0
 29 35  1  0  0  0  0
 31 32  1  0  0  0  0
 31 30  1  0  0  0  0
 33 31  2  0  0  0  0
 34 33  1  0  0  0  0
 34 28  2  0  0  0  0
 35 37  1  0  0  0  0
 36 35  1  0  0  0  0
M  END
>  <minimizedAffinity>
-6.96771479

$$$$

 OpenBabel03212520163D

 37 40  0  0  0  0  0  0  0  0999 V2000
   40.9670   70.5360   58.1950 Cl  0  0  0  0  0  0  0  0  0  0  0  0
   41.9780   71.5400   59.2430 C   0  0  0  0  0  0  0  0  0  0  0  0
   42.3910   71.1410   60.4930 C   0  0  0  0  0  0  0  0  0  0  0  0
   43.1780   72.0500   61.1790 C   0  0  0  0  0  0  0  0  0  0  0  0
   43.5740   73.2870   60.7340 C   0  0  0  0  0  0  0  0  0  0  0  0
   43.1360   73.6430   59.4730 C   0  0  0  0  0  0  0  0  0  0  0  0
   43.5770   75.2000   58.7940 Cl  0  0  0  0  0  0  0  0  0  0  0  0
   42.3390   72.7620   58.7390 C   0  0  0  0  0  0  0  0  0  0  0  0
   43.5160   71.7550   62.1710 H   0  0  0  0  0  0  0  0  0  0  0  0
   44.1940   73.9310   61.3440 H   0  0  0  0  0  0  0  0  0  0  0  0
   41.8530   68.6750   60.2460 C   0  0  0  0  0  0  0  0  0  0  0  0
   41.9980   69.8690   60.9830 C   0  0  0  0  0  0  0  0  0  0  0  0
   41.7260   69.8050   62.3450 C   0  0  0  0  0  0  0  0  0  0  0  0
   41.3430   68.6120   62.8740 N   0  0  0  0  0  0  0  0  0  0  0  0
   41.2180   67.4890   62.1280 C   0  0  0  0  0  0  0  0  0  0  0  0
   41.4740   67.5250   60.8090 N   0  0  0  0  0  0  0  0  0  0  0  0
   42.0760   68.7750   59.1840 H   0  0  0  0  0  0  0  0  0  0  0  0
   41.8060   70.6600   62.9980 H   0  0  0  0  0  0  0  0  0  0  0  0
   40.7900   66.2790   62.8730 C   0  0  0  0  0  0  0  0  0  0  0  0
   39.5300   65.8440   62.4900 F   0  0  0  0  0  0  0  0  0  0  0  0
   41.6940   65.2580   62.6850 F   0  0  0  0  0  0  0  0  0  0  0  0
   40.6510   66.5650   64.2370 F   0  0  0  0  0  0  0  0  0  0  0  0
   41.9390   73.1910   57.4850 O   0  0  0  0  0  0  0  0  0  0  0  0
   41.6530   75.9150   57.0420 H   0  0  0  0  0  0  0  0  0  0  0  0
   40.8110   75.2960   57.0240 N   0  0  0  0  0  0  0  0  0  0  0  0
   40.8150   73.9490   57.2250 C   0  0  0  0  0  0  0  0  0  0  0  0
   39.5190   73.5400   57.1160 N   0  0  0  0  0  0  0  0  0  0  0  0
   38.7610   74.6300   56.8550 C   0  0  0  0  0  0  0  0  0  0  0  0
   37.3820   74.7140   56.6620 C   0  0  0  0  0  0  0  0  0  0  0  0
   36.8310   75.9190   56.4110 N   0  0  0  0  0  0  0  0  0  0  0  0
   37.6140   77.0170   56.3500 C   0  0  0  0  0  0  0  0  0  0  0  0
   37.2630   78.0230   56.1550 H   0  0  0  0  0  0  0  0  0  0  0  0
   38.9500   76.9040   56.5410 N   0  0  0  0  0  0  0  0  0  0  0  0
   39.5660   75.7450   56.7950 C   0  0  0  0  0  0  0  0  0  0  0  0
   36.6020   73.5350   56.7350 N   0  0  0  0  0  0  0  0  0  0  0  0
   36.6060   72.7620   57.4600 H   0  0  0  0  0  0  0  0  0  0  0  0
   35.8620   73.1200   56.1520 H   0  0  0  0  0  0  0  0  0  0  0  0
  1  2  1  0  0  0  0
  2  3  1  0  0  0  0
  3 12  1  0  0  0  0
  3  4  2  0  0  0  0
  4  9  1  0  0  0  0
  5  4  1  0  0  0  0
  5 10  1  0  0  0  0
  6  5  2  0  0  0  0
  7  6  1  0  0  0  0
  8  2  2  0  0  0  0
  8  6  1  0  0  0  0
 11 16  2  0  0  0  0
 11 12  1  0  0  0  0
 12 13  2  0  0  0  0
 13 14  1  0  0  0  0
 13 18  1  0  0  0  0
 15 19  1  0  0  0  0
 15 14  2  0  0  0  0
 16 15  1  0  0  0  0
 17 11  1  0  0  0  0
 19 22  1  0  0  0  0
 20 19  1  0  0  0  0
 21 19  1  0  0  0  0
 23  8  1  0  0  0  0
 25 24  1  0  0  0  0
 25 26  1  0  0  0  0
 26 23  1  0  0  0  0
 27 26  2  0  0  0  0
 28 27  1  0  0  0  0
 29 35  1  0  0  0  0
 29 28  2  0  0  0  0
 30 29  1  0  0  0  0
 31 30  2  0  0  0  0
 31 33  1  0  0  0  0
 32 31  1  0  0  0  0
 33 34  2  0  0  0  0
 34 28  1  0  0  0  0
 34 25  1  0  0  0  0
 35 36  1  0  0  0  0
 37 35  1  0  0  0  0
M  END
>  <minimizedAffinity>
-6.96238136

$$$$

 OpenBabel03212520163D

 37 40  0  0  0  0  0  0  0  0999 V2000
   41.2250   74.5490   57.4350 Cl  0  0  0  0  0  0  0  0  0  0  0  0
   40.2380   74.3120   58.8830 C   0  0  0  0  0  0  0  0  0  0  0  0
   38.9940   74.8780   59.0450 C   0  0  0  0  0  0  0  0  0  0  0  0
   38.3580   74.5880   60.2400 C   0  0  0  0  0  0  0  0  0  0  0  0
   38.8450   73.8040   61.2560 C   0  0  0  0  0  0  0  0  0  0  0  0
   40.0970   73.2570   61.0480 C   0  0  0  0  0  0  0  0  0  0  0  0
   40.8280   72.2370   62.2740 Cl  0  0  0  0  0  0  0  0  0  0  0  0
   40.7820   73.5190   59.8590 C   0  0  0  0  0  0  0  0  0  0  0  0
   37.3720   75.0250   60.3890 H   0  0  0  0  0  0  0  0  0  0  0  0
   38.2720   73.6330   62.1570 H   0  0  0  0  0  0  0  0  0  0  0  0
   38.7830   77.0370   57.7320 C   0  0  0  0  0  0  0  0  0  0  0  0
   38.4620   75.6930   58.0130 C   0  0  0  0  0  0  0  0  0  0  0  0
   37.5150   75.0880   57.1940 C   0  0  0  0  0  0  0  0  0  0  0  0
   36.9670   75.8190   56.1870 N   0  0  0  0  0  0  0  0  0  0  0  0
   37.3070   77.1090   55.9530 C   0  0  0  0  0  0  0  0  0  0  0  0
   38.2180   77.7160   56.7310 N   0  0  0  0  0  0  0  0  0  0  0  0
   39.5280   77.4680   58.4010 H   0  0  0  0  0  0  0  0  0  0  0  0
   37.1980   74.0650   57.3240 H   0  0  0  0  0  0  0  0  0  0  0  0
   36.6070   77.7490   54.8110 C   0  0  0  0  0  0  0  0  0  0  0  0
   35.4730   78.4400   55.2110 F   0  0  0  0  0  0  0  0  0  0  0  0
   37.4530   78.6170   54.1580 F   0  0  0  0  0  0  0  0  0  0  0  0
   36.1210   76.7800   53.9260 F   0  0  0  0  0  0  0  0  0  0  0  0
   42.0300   72.9360   59.7250 O   0  0  0  0  0  0  0  0  0  0  0  0
   44.0130   71.3620   60.8620 H   0  0  0  0  0  0  0  0  0  0  0  0
   43.2920   70.9220   60.2480 N   0  0  0  0  0  0  0  0  0  0  0  0
   42.2700   71.5790   59.6320 C   0  0  0  0  0  0  0  0  0  0  0  0
   41.5720   70.6380   58.9350 N   0  0  0  0  0  0  0  0  0  0  0  0
   42.1730   69.4420   59.1360 C   0  0  0  0  0  0  0  0  0  0  0  0
   41.8250   68.1890   58.6330 C   0  0  0  0  0  0  0  0  0  0  0  0
   42.5750   67.1200   58.9700 N   0  0  0  0  0  0  0  0  0  0  0  0
   43.6430   67.2760   59.7810 C   0  0  0  0  0  0  0  0  0  0  0  0
   44.3010   66.4800   60.1050 H   0  0  0  0  0  0  0  0  0  0  0  0
   43.9560   68.5050   60.2540 N   0  0  0  0  0  0  0  0  0  0  0  0
   43.2600   69.6090   59.9640 C   0  0  0  0  0  0  0  0  0  0  0  0
   40.6960   68.0750   57.7870 N   0  0  0  0  0  0  0  0  0  0  0  0
   40.4150   68.6580   56.9470 H   0  0  0  0  0  0  0  0  0  0  0  0
   39.8860   67.4420   57.7430 H   0  0  0  0  0  0  0  0  0  0  0  0
  1  2  1  0  0  0  0
  2  3  2  0  0  0  0
  2  8  1  0  0  0  0
  3  4  1  0  0  0  0
  4  9  1  0  0  0  0
  4  5  2  0  0  0  0
  5 10  1  0  0  0  0
  6  5  1  0  0  0  0
  6  7  1  0  0  0  0
  8  6  2  0  0  0  0
 11 12  1  0  0  0  0
 11 17  1  0  0  0  0
 12  3  1  0  0  0  0
 13 18  1  0  0  0  0
 13 12  2  0  0  0  0
 14 13  1  0  0  0  0
 15 14  2  0  0  0  0
 15 16  1  0  0  0  0
 16 11  2  0  0  0  0
 19 20  1  0  0  0  0
 19 15  1  0  0  0  0
 21 19  1  0  0  0  0
 22 19  1  0  0  0  0
 23  8  1  0  0  0  0
 25 24  1  0  0  0  0
 26 23  1  0  0  0  0
 26 25  1  0  0  0  0
 27 28  1  0  0  0  0
 27 26  2  0  0  0  0
 28 34  1  0  0  0  0
 29 30  1  0  0  0  0
 29 28  2  0  0  0  0
 30 31  2  0  0  0  0
 31 32  1  0  0  0  0
 31 33  1  0  0  0  0
 34 25  1  0  0  0  0
 34 33  2  0  0  0  0
 35 29  1  0  0  0  0
 36 35  1  0  0  0  0
 37 35  1  0  0  0  0
M  END
>  <minimizedAffinity>
-6.94559193

$$$$

 OpenBabel03212520163D

 37 40  0  0  0  0  0  0  0  0999 V2000
   38.6770   71.9000   56.6950 Cl  0  0  0  0  0  0  0  0  0  0  0  0
   39.6340   72.4970   58.0570 C   0  0  0  0  0  0  0  0  0  0  0  0
   40.8600   71.9750   58.4000 C   0  0  0  0  0  0  0  0  0  0  0  0
   41.4730   72.5610   59.4950 C   0  0  0  0  0  0  0  0  0  0  0  0
   40.9790   73.5940   60.2510 C   0  0  0  0  0  0  0  0  0  0  0  0
   39.7450   74.0870   59.8690 C   0  0  0  0  0  0  0  0  0  0  0  0
   39.0090   75.4080   60.7580 Cl  0  0  0  0  0  0  0  0  0  0  0  0
   39.0850   73.5300   58.7710 C   0  0  0  0  0  0  0  0  0  0  0  0
   42.4440   72.1630   59.7840 H   0  0  0  0  0  0  0  0  0  0  0  0
   41.5330   73.9890   61.0920 H   0  0  0  0  0  0  0  0  0  0  0  0
   41.1810   69.5260   57.8280 C   0  0  0  0  0  0  0  0  0  0  0  0
   41.3980   70.9060   57.6390 C   0  0  0  0  0  0  0  0  0  0  0  0
   42.2340   71.2750   56.5900 C   0  0  0  0  0  0  0  0  0  0  0  0
   42.7810   70.2950   55.8230 N   0  0  0  0  0  0  0  0  0  0  0  0
   42.5450   68.9790   56.0400 C   0  0  0  0  0  0  0  0  0  0  0  0
   41.7420   68.5970   57.0480 N   0  0  0  0  0  0  0  0  0  0  0  0
   40.5210   69.2860   58.6610 H   0  0  0  0  0  0  0  0  0  0  0  0
   42.4640   72.3030   56.3600 H   0  0  0  0  0  0  0  0  0  0  0  0
   43.2270   68.0510   55.1040 C   0  0  0  0  0  0  0  0  0  0  0  0
   43.8520   68.7210   54.0630 F   0  0  0  0  0  0  0  0  0  0  0  0
   44.1610   67.2960   55.7760 F   0  0  0  0  0  0  0  0  0  0  0  0
   42.2950   67.2230   54.4660 F   0  0  0  0  0  0  0  0  0  0  0  0
   37.8540   74.0760   58.4500 O   0  0  0  0  0  0  0  0  0  0  0  0
   38.3980   76.7860   58.2060 H   0  0  0  0  0  0  0  0  0  0  0  0
   37.9390   76.2770   57.4180 N   0  0  0  0  0  0  0  0  0  0  0  0
   37.6190   74.9530   57.4100 C   0  0  0  0  0  0  0  0  0  0  0  0
   37.0420   74.7040   56.2010 N   0  0  0  0  0  0  0  0  0  0  0  0
   37.0200   75.8640   55.5040 C   0  0  0  0  0  0  0  0  0  0  0  0
   36.5300   76.1080   54.2220 C   0  0  0  0  0  0  0  0  0  0  0  0
   36.6140   77.3570   53.7190 N   0  0  0  0  0  0  0  0  0  0  0  0
   37.1660   78.3440   54.4570 C   0  0  0  0  0  0  0  0  0  0  0  0
   37.2760   79.3730   54.1390 H   0  0  0  0  0  0  0  0  0  0  0  0
   37.6330   78.0760   55.6990 N   0  0  0  0  0  0  0  0  0  0  0  0
   37.5840   76.8640   56.2620 C   0  0  0  0  0  0  0  0  0  0  0  0
   35.9600   75.0420   53.4860 N   0  0  0  0  0  0  0  0  0  0  0  0
   35.2480   74.3150   53.7830 H   0  0  0  0  0  0  0  0  0  0  0  0
   36.0630   74.6910   52.5240 H   0  0  0  0  0  0  0  0  0  0  0  0
  1  2  1  0  0  0  0
  2  3  2  0  0  0  0
  2  8  1  0  0  0  0
  3  4  1  0  0  0  0
  4  9  1  0  0  0  0
  4  5  2  0  0  0  0
  5 10  1  0  0  0  0
  6  5  1  0  0  0  0
  6  7  1  0  0  0  0
  8  6  2  0  0  0  0
 11 17  1  0  0  0  0
 12 11  1  0  0  0  0
 12  3  1  0  0  0  0
 13 12  2  0  0  0  0
 14 15  2  0  0  0  0
 14 13  1  0  0  0  0
 15 16  1  0  0  0  0
 16 11  2  0  0  0  0
 18 13  1  0  0  0  0
 19 21  1  0  0  0  0
 19 15  1  0  0  0  0
 20 19  1  0  0  0  0
 22 19  1  0  0  0  0
 23  8  1  0  0  0  0
 25 24  1  0  0  0  0
 26 25  1  0  0  0  0
 26 23  1  0  0  0  0
 27 26  2  0  0  0  0
 28 27  1  0  0  0  0
 28 34  1  0  0  0  0
 29 28  2  0  0  0  0
 30 29  1  0  0  0  0
 30 31  2  0  0  0  0
 31 33  1  0  0  0  0
 32 31  1  0  0  0  0
 33 34  2  0  0  0  0
 34 25  1  0  0  0  0
 35 36  1  0  0  0  0
 35 29  1  0  0  0  0
 37 35  1  0  0  0  0
M  END
>  <minimizedAffinity>
-6.76193333

$$$$

 OpenBabel03212520163D

 37 40  0  0  0  0  0  0  0  0999 V2000
   38.3260   73.4610   58.5150 Cl  0  0  0  0  0  0  0  0  0  0  0  0
   39.2550   74.9290   58.8450 C   0  0  0  0  0  0  0  0  0  0  0  0
   40.3900   74.9400   59.6230 C   0  0  0  0  0  0  0  0  0  0  0  0
   40.9940   76.1760   59.7790 C   0  0  0  0  0  0  0  0  0  0  0  0
   40.5710   77.3660   59.2400 C   0  0  0  0  0  0  0  0  0  0  0  0
   39.4270   77.3050   58.4660 C   0  0  0  0  0  0  0  0  0  0  0  0
   38.7880   78.7600   57.7230 Cl  0  0  0  0  0  0  0  0  0  0  0  0
   38.7800   76.0820   58.2770 C   0  0  0  0  0  0  0  0  0  0  0  0
   41.8940   76.2080   60.3900 H   0  0  0  0  0  0  0  0  0  0  0  0
   41.1110   78.2860   59.4170 H   0  0  0  0  0  0  0  0  0  0  0  0
   41.6530   72.7410   59.5810 C   0  0  0  0  0  0  0  0  0  0  0  0
   40.8530   73.7280   60.1950 C   0  0  0  0  0  0  0  0  0  0  0  0
   40.4680   73.4960   61.5110 C   0  0  0  0  0  0  0  0  0  0  0  0
   40.8800   72.3500   62.1140 N   0  0  0  0  0  0  0  0  0  0  0  0
   41.6490   71.4290   61.4860 C   0  0  0  0  0  0  0  0  0  0  0  0
   42.0340   71.6290   60.2140 N   0  0  0  0  0  0  0  0  0  0  0  0
   41.9290   72.9660   58.5510 H   0  0  0  0  0  0  0  0  0  0  0  0
   39.8570   74.1860   62.0710 H   0  0  0  0  0  0  0  0  0  0  0  0
   42.0030   70.2390   62.2990 C   0  0  0  0  0  0  0  0  0  0  0  0
   43.3740   70.0930   62.4480 F   0  0  0  0  0  0  0  0  0  0  0  0
   41.4240   70.3230   63.5460 F   0  0  0  0  0  0  0  0  0  0  0  0
   41.6040   69.0640   61.6520 F   0  0  0  0  0  0  0  0  0  0  0  0
   37.6410   76.1020   57.4910 O   0  0  0  0  0  0  0  0  0  0  0  0
   35.7700   77.5600   56.0510 H   0  0  0  0  0  0  0  0  0  0  0  0
   36.6120   77.1770   55.5660 N   0  0  0  0  0  0  0  0  0  0  0  0
   37.6020   76.4490   56.1550 C   0  0  0  0  0  0  0  0  0  0  0  0
   38.5000   76.1550   55.1730 N   0  0  0  0  0  0  0  0  0  0  0  0
   38.0480   76.7010   54.0200 C   0  0  0  0  0  0  0  0  0  0  0  0
   38.6220   76.6690   52.7500 C   0  0  0  0  0  0  0  0  0  0  0  0
   37.9900   77.2890   51.7330 N   0  0  0  0  0  0  0  0  0  0  0  0
   36.8210   77.9270   51.9570 C   0  0  0  0  0  0  0  0  0  0  0  0
   36.2430   78.4520   51.2050 H   0  0  0  0  0  0  0  0  0  0  0  0
   36.2880   77.9420   53.2010 N   0  0  0  0  0  0  0  0  0  0  0  0
   36.8570   77.3490   54.2560 C   0  0  0  0  0  0  0  0  0  0  0  0
   39.8480   75.9870   52.5640 N   0  0  0  0  0  0  0  0  0  0  0  0
   40.1460   75.0230   52.8880 H   0  0  0  0  0  0  0  0  0  0  0  0
   40.7370   76.2120   52.0960 H   0  0  0  0  0  0  0  0  0  0  0  0
  1  2  1  0  0  0  0
  2  3  1  0  0  0  0
  3  4  2  0  0  0  0
  3 12  1  0  0  0  0
  4  9  1  0  0  0  0
  5 10  1  0  0  0  0
  5  4  1  0  0  0  0
  6  5  2  0  0  0  0
  7  6  1  0  0  0  0
  8  6  1  0  0  0  0
  8  2  2  0  0  0  0
 11 12  2  0  0  0  0
 11 16  1  0  0  0  0
 12 13  1  0  0  0  0
 13 18  1  0  0  0  0
 13 14  2  0  0  0  0
 15 14  1  0  0  0  0
 15 19  1  0  0  0  0
 16 15  2  0  0  0  0
 17 11  1  0  0  0  0
 19 20  1  0  0  0  0
 19 21  1  0  0  0  0
 22 19  1  0  0  0  0
 23  8  1  0  0  0  0
 25 24  1  0  0  0  0
 25 26  1  0  0  0  0
 26 23  1  0  0  0  0
 27 26  2  0  0  0  0
 28 34  1  0  0  0  0
 28 27  1  0  0  0  0
 29 28  2  0  0  0  0
 30 31  2  0  0  0  0
 30 29  1  0  0  0  0
 31 33  1  0  0  0  0
 32 31  1  0  0  0  0
 33 34  2  0  0  0  0
 34 25  1  0  0  0  0
 35 29  1  0  0  0  0
 35 36  1  0  0  0  0
 37 35  1  0  0  0  0
M  END
>  <minimizedAffinity>
-6.75826311

$$$$

 OpenBabel03212520163D

 37 40  0  0  0  0  0  0  0  0999 V2000
   40.9570   73.3500   56.8180 Cl  0  0  0  0  0  0  0  0  0  0  0  0
   40.7590   73.6420   58.5510 C   0  0  0  0  0  0  0  0  0  0  0  0
   41.8200   73.7670   59.4180 C   0  0  0  0  0  0  0  0  0  0  0  0
   41.4850   73.9930   60.7420 C   0  0  0  0  0  0  0  0  0  0  0  0
   40.2180   74.1030   61.2560 C   0  0  0  0  0  0  0  0  0  0  0  0
   39.1840   73.9720   60.3480 C   0  0  0  0  0  0  0  0  0  0  0  0
   37.5180   74.0930   60.8850 Cl  0  0  0  0  0  0  0  0  0  0  0  0
   39.4680   73.7420   59.0000 C   0  0  0  0  0  0  0  0  0  0  0  0
   42.3100   74.0950   61.4450 H   0  0  0  0  0  0  0  0  0  0  0  0
   40.0530   74.2830   62.3110 H   0  0  0  0  0  0  0  0  0  0  0  0
   44.0310   72.5730   59.0720 C   0  0  0  0  0  0  0  0  0  0  0  0
   43.1430   73.6580   58.9170 C   0  0  0  0  0  0  0  0  0  0  0  0
   43.6060   74.7530   58.1950 C   0  0  0  0  0  0  0  0  0  0  0  0
   44.8680   74.7080   57.6900 N   0  0  0  0  0  0  0  0  0  0  0  0
   45.6870   73.6440   57.8620 C   0  0  0  0  0  0  0  0  0  0  0  0
   45.2630   72.5740   58.5570 N   0  0  0  0  0  0  0  0  0  0  0  0
   43.6240   71.7400   59.6450 H   0  0  0  0  0  0  0  0  0  0  0  0
   43.0080   75.6320   58.0190 H   0  0  0  0  0  0  0  0  0  0  0  0
   47.0280   73.7710   57.2410 C   0  0  0  0  0  0  0  0  0  0  0  0
   47.0340   74.6660   56.1820 F   0  0  0  0  0  0  0  0  0  0  0  0
   47.9520   74.1780   58.1770 F   0  0  0  0  0  0  0  0  0  0  0  0
   47.4200   72.5570   56.6630 F   0  0  0  0  0  0  0  0  0  0  0  0
   38.3800   73.6210   58.1530 O   0  0  0  0  0  0  0  0  0  0  0  0
   38.3800   76.3870   58.3770 H   0  0  0  0  0  0  0  0  0  0  0  0
   37.9960   75.9380   57.5150 N   0  0  0  0  0  0  0  0  0  0  0  0
   37.9390   74.5970   57.2810 C   0  0  0  0  0  0  0  0  0  0  0  0
   37.3720   74.4460   56.0510 N   0  0  0  0  0  0  0  0  0  0  0  0
   37.0980   75.6780   55.5650 C   0  0  0  0  0  0  0  0  0  0  0  0
   36.5180   76.0330   54.3470 C   0  0  0  0  0  0  0  0  0  0  0  0
   36.3390   77.3400   54.0670 N   0  0  0  0  0  0  0  0  0  0  0  0
   36.7180   78.2780   54.9610 C   0  0  0  0  0  0  0  0  0  0  0  0
   36.6140   79.3480   54.8250 H   0  0  0  0  0  0  0  0  0  0  0  0
   37.2790   77.9030   56.1350 N   0  0  0  0  0  0  0  0  0  0  0  0
   37.4880   76.6290   56.4810 C   0  0  0  0  0  0  0  0  0  0  0  0
   36.1360   75.0140   53.4420 N   0  0  0  0  0  0  0  0  0  0  0  0
   35.5910   74.1220   53.6140 H   0  0  0  0  0  0  0  0  0  0  0  0
   36.2660   74.8580   52.4330 H   0  0  0  0  0  0  0  0  0  0  0  0
  1  2  1  0  0  0  0
  2  8  2  0  0  0  0
  2  3  1  0  0  0  0
  3  4  2  0  0  0  0
  4  5  1  0  0  0  0
  4  9  1  0  0  0  0
  5 10  1  0  0  0  0
  6  7  1  0  0  0  0
  6  5  2  0  0  0  0
  8  6  1  0  0  0  0
 11 17  1  0  0  0  0
 12 11  1  0  0  0  0
 12  3  1  0  0  0  0
 13 12  2  0  0  0  0
 14 15  2  0  0  0  0
 14 13  1  0  0  0  0
 15 16  1  0  0  0  0
 16 11  2  0  0  0  0
 18 13  1  0  0  0  0
 19 15  1  0  0  0  0
 19 21  1  0  0  0  0
 20 19  1  0  0  0  0
 22 19  1  0  0  0  0
 23  8  1  0  0  0  0
 25 24  1  0  0  0  0
 26 25  1  0  0  0  0
 26 23  1  0  0  0  0
 27 26  2  0  0  0  0
 28 27  1  0  0  0  0
 28 34  1  0  0  0  0
 29 28  2  0  0  0  0
 30 29  1  0  0  0  0
 30 31  2  0  0  0  0
 31 33  1  0  0  0  0
 32 31  1  0  0  0  0
 33 34  2  0  0  0  0
 34 25  1  0  0  0  0
 35 36  1  0  0  0  0
 35 29  1  0  0  0  0
 37 35  1  0  0  0  0
M  END
>  <minimizedAffinity>
-6.57993603

$$$$
