
 OpenBabel03212520153D

 37 40  0  0  0  0  0  0  0  0999 V2000
   42.0980   84.1400   58.3860 Cl  0  0  0  0  0  0  0  0  0  0  0  0
   41.2020   82.6230   58.2320 C   0  0  0  0  0  0  0  0  0  0  0  0
   40.6870   81.9420   59.3110 C   0  0  0  0  0  0  0  0  0  0  0  0
   40.0130   80.7710   59.0100 C   0  0  0  0  0  0  0  0  0  0  0  0
   39.8170   80.2390   57.7600 C   0  0  0  0  0  0  0  0  0  0  0  0
   40.3510   80.9580   56.7080 C   0  0  0  0  0  0  0  0  0  0  0  0
   40.1660   80.3800   55.0610 Cl  0  0  0  0  0  0  0  0  0  0  0  0
   41.0400   82.1470   56.9570 C   0  0  0  0  0  0  0  0  0  0  0  0
   39.5970   80.2150   59.8490 H   0  0  0  0  0  0  0  0  0  0  0  0
   39.2740   79.3130   57.6220 H   0  0  0  0  0  0  0  0  0  0  0  0
   41.9350   82.1950   61.5030 C   0  0  0  0  0  0  0  0  0  0  0  0
   40.8730   82.4650   60.6160 C   0  0  0  0  0  0  0  0  0  0  0  0
   39.8880   83.3410   61.0610 C   0  0  0  0  0  0  0  0  0  0  0  0
   40.0100   83.8750   62.3050 N   0  0  0  0  0  0  0  0  0  0  0  0
   41.0500   83.5880   63.1240 C   0  0  0  0  0  0  0  0  0  0  0  0
   42.0130   82.7440   62.7180 N   0  0  0  0  0  0  0  0  0  0  0  0
   42.6810   81.5030   61.1120 H   0  0  0  0  0  0  0  0  0  0  0  0
   39.0350   83.6140   60.4610 H   0  0  0  0  0  0  0  0  0  0  0  0
   41.0180   84.2630   64.4460 C   0  0  0  0  0  0  0  0  0  0  0  0
   40.7270   85.6150   64.3380 F   0  0  0  0  0  0  0  0  0  0  0  0
   40.0850   83.6680   65.2640 F   0  0  0  0  0  0  0  0  0  0  0  0
   42.2840   84.2340   65.0430 F   0  0  0  0  0  0  0  0  0  0  0  0
   41.5470   82.8090   55.8520 O   0  0  0  0  0  0  0  0  0  0  0  0
   43.2070   80.6930   55.1710 H   0  0  0  0  0  0  0  0  0  0  0  0
   43.5760   81.6710   55.1420 N   0  0  0  0  0  0  0  0  0  0  0  0
   42.8680   82.7920   55.4500 C   0  0  0  0  0  0  0  0  0  0  0  0
   43.7190   83.8430   55.2800 N   0  0  0  0  0  0  0  0  0  0  0  0
   44.9120   83.3500   54.8780 C   0  0  0  0  0  0  0  0  0  0  0  0
   46.0910   84.0350   54.5790 C   0  0  0  0  0  0  0  0  0  0  0  0
   47.1730   83.3300   54.1910 N   0  0  0  0  0  0  0  0  0  0  0  0
   47.1050   81.9860   54.1000 C   0  0  0  0  0  0  0  0  0  0  0  0
   47.9180   81.3390   53.7990 H   0  0  0  0  0  0  0  0  0  0  0  0
   45.9470   81.3490   54.3960 N   0  0  0  0  0  0  0  0  0  0  0  0
   44.8350   81.9790   54.7860 C   0  0  0  0  0  0  0  0  0  0  0  0
   46.1140   85.4460   54.6890 N   0  0  0  0  0  0  0  0  0  0  0  0
   45.7700   86.0720   55.4720 H   0  0  0  0  0  0  0  0  0  0  0  0
   46.4470   86.2120   54.0880 H   0  0  0  0  0  0  0  0  0  0  0  0
  2  1  1  0  0  0  0
  2  3  1  0  0  0  0
  3 12  1  0  0  0  0
  4  3  2  0  0  0  0
  4  9  1  0  0  0  0
  5  4  1  0  0  0  0
  6  8  1  0  0  0  0
  6  5  2  0  0  0  0
  7  6  1  0  0  0  0
  8  2  2  0  0  0  0
 10  5  1  0  0  0  0
 11 16  1  0  0  0  0
 12 13  1  0  0  0  0
 12 11  2  0  0  0  0
 13 14  2  0  0  0  0
 14 15  1  0  0  0  0
 15 19  1  0  0  0  0
 16 15  2  0  0  0  0
 17 11  1  0  0  0  0
 18 13  1  0  0  0  0
 19 22  1  0  0  0  0
 19 21  1  0  0  0  0
 20 19  1  0  0  0  0
 23  8  1  0  0  0  0
 25 24  1  0  0  0  0
 25 26  1  0  0  0  0
 26 23  1  0  0  0  0
 27 26  2  0  0  0  0
 28 27  1  0  0  0  0
 29 35  1  0  0  0  0
 29 28  2  0  0  0  0
 30 29  1  0  0  0  0
 31 30  2  0  0  0  0
 31 33  1  0  0  0  0
 32 31  1  0  0  0  0
 33 34  2  0  0  0  0
 34 28  1  0  0  0  0
 34 25  1  0  0  0  0
 35 36  1  0  0  0  0
 37 35  1  0  0  0  0
M  END
>  <minimizedAffinity>
-5.16001463

>  <minimizedRMSD>
0.658433914

$$$$
