
 OpenBabel03212520153D

 37 40  0  0  0  0  0  0  0  0999 V2000
   42.1460   84.0850   58.3480 Cl  0  0  0  0  0  0  0  0  0  0  0  0
   41.2140   82.5900   58.1990 C   0  0  0  0  0  0  0  0  0  0  0  0
   40.6800   81.9270   59.2800 C   0  0  0  0  0  0  0  0  0  0  0  0
   39.9790   80.7700   58.9830 C   0  0  0  0  0  0  0  0  0  0  0  0
   39.7740   80.2370   57.7350 C   0  0  0  0  0  0  0  0  0  0  0  0
   40.3280   80.9380   56.6800 C   0  0  0  0  0  0  0  0  0  0  0  0
   40.1340   80.3560   55.0360 Cl  0  0  0  0  0  0  0  0  0  0  0  0
   41.0450   82.1110   56.9260 C   0  0  0  0  0  0  0  0  0  0  0  0
   39.5470   80.2300   59.8240 H   0  0  0  0  0  0  0  0  0  0  0  0
   39.2090   79.3240   57.6000 H   0  0  0  0  0  0  0  0  0  0  0  0
   41.9470   82.1890   61.4600 C   0  0  0  0  0  0  0  0  0  0  0  0
   40.8750   82.4520   60.5830 C   0  0  0  0  0  0  0  0  0  0  0  0
   39.8880   83.3210   61.0360 C   0  0  0  0  0  0  0  0  0  0  0  0
   40.0180   83.8570   62.2790 N   0  0  0  0  0  0  0  0  0  0  0  0
   41.0670   83.5770   63.0890 C   0  0  0  0  0  0  0  0  0  0  0  0
   42.0330   82.7400   62.6740 N   0  0  0  0  0  0  0  0  0  0  0  0
   42.6930   81.5020   61.0620 H   0  0  0  0  0  0  0  0  0  0  0  0
   39.0270   83.5880   60.4440 H   0  0  0  0  0  0  0  0  0  0  0  0
   41.0430   84.2530   64.4100 C   0  0  0  0  0  0  0  0  0  0  0  0
   40.7570   85.6060   64.3030 F   0  0  0  0  0  0  0  0  0  0  0  0
   40.1120   83.6610   65.2330 F   0  0  0  0  0  0  0  0  0  0  0  0
   42.3120   84.2190   65.0020 F   0  0  0  0  0  0  0  0  0  0  0  0
   41.5710   82.7550   55.8190 O   0  0  0  0  0  0  0  0  0  0  0  0
   44.1040   82.4390   56.9070 H   0  0  0  0  0  0  0  0  0  0  0  0
   43.9650   82.3250   55.8780 N   0  0  0  0  0  0  0  0  0  0  0  0
   42.7780   82.4520   55.2200 C   0  0  0  0  0  0  0  0  0  0  0  0
   43.0420   82.2250   53.9030 N   0  0  0  0  0  0  0  0  0  0  0  0
   44.3640   81.9660   53.7840 C   0  0  0  0  0  0  0  0  0  0  0  0
   45.1010   81.6740   52.6350 C   0  0  0  0  0  0  0  0  0  0  0  0
   46.4260   81.4470   52.7510 N   0  0  0  0  0  0  0  0  0  0  0  0
   47.0140   81.5040   53.9640 C   0  0  0  0  0  0  0  0  0  0  0  0
   48.0660   81.3370   54.1550 H   0  0  0  0  0  0  0  0  0  0  0  0
   46.2730   81.7890   55.0610 N   0  0  0  0  0  0  0  0  0  0  0  0
   44.9580   82.0260   55.0230 C   0  0  0  0  0  0  0  0  0  0  0  0
   44.4390   81.6250   51.3840 N   0  0  0  0  0  0  0  0  0  0  0  0
   43.7510   82.3050   50.9540 H   0  0  0  0  0  0  0  0  0  0  0  0
   44.4370   80.9660   50.5940 H   0  0  0  0  0  0  0  0  0  0  0  0
  2  1  1  0  0  0  0
  2  3  1  0  0  0  0
  3 12  1  0  0  0  0
  4  3  2  0  0  0  0
  4  9  1  0  0  0  0
  5  4  1  0  0  0  0
  6  8  1  0  0  0  0
  6  5  2  0  0  0  0
  7  6  1  0  0  0  0
  8  2  2  0  0  0  0
 10  5  1  0  0  0  0
 11 16  1  0  0  0  0
 12 13  1  0  0  0  0
 12 11  2  0  0  0  0
 13 14  2  0  0  0  0
 14 15  1  0  0  0  0
 15 19  1  0  0  0  0
 16 15  2  0  0  0  0
 17 11  1  0  0  0  0
 18 13  1  0  0  0  0
 19 22  1  0  0  0  0
 19 21  1  0  0  0  0
 20 19  1  0  0  0  0
 23  8  1  0  0  0  0
 25 24  1  0  0  0  0
 26 23  1  0  0  0  0
 26 25  1  0  0  0  0
 27 26  2  0  0  0  0
 28 27  1  0  0  0  0
 28 34  1  0  0  0  0
 29 30  1  0  0  0  0
 29 28  2  0  0  0  0
 30 31  2  0  0  0  0
 31 32  1  0  0  0  0
 31 33  1  0  0  0  0
 34 33  2  0  0  0  0
 34 25  1  0  0  0  0
 35 29  1  0  0  0  0
 36 35  1  0  0  0  0
 37 35  1  0  0  0  0
M  END
>  <minimizedAffinity>
-5.0929966

>  <minimizedRMSD>
0.265283763

$$$$
