
 OpenBabel03212520153D

 37 40  0  0  0  0  0  0  0  0999 V2000
   42.1160   84.1340   58.3720 Cl  0  0  0  0  0  0  0  0  0  0  0  0
   41.2090   82.6230   58.2200 C   0  0  0  0  0  0  0  0  0  0  0  0
   40.6880   81.9480   59.3000 C   0  0  0  0  0  0  0  0  0  0  0  0
   40.0070   80.7810   59.0010 C   0  0  0  0  0  0  0  0  0  0  0  0
   39.8080   80.2480   57.7520 C   0  0  0  0  0  0  0  0  0  0  0  0
   40.3480   80.9610   56.6990 C   0  0  0  0  0  0  0  0  0  0  0  0
   40.1610   80.3810   55.0530 Cl  0  0  0  0  0  0  0  0  0  0  0  0
   41.0460   82.1450   56.9460 C   0  0  0  0  0  0  0  0  0  0  0  0
   39.5860   80.2300   59.8410 H   0  0  0  0  0  0  0  0  0  0  0  0
   39.2580   79.3250   57.6160 H   0  0  0  0  0  0  0  0  0  0  0  0
   41.9600   82.2330   61.4750 C   0  0  0  0  0  0  0  0  0  0  0  0
   40.8770   82.4720   60.6040 C   0  0  0  0  0  0  0  0  0  0  0  0
   39.8720   83.3160   61.0660 C   0  0  0  0  0  0  0  0  0  0  0  0
   39.9950   83.8500   62.3100 N   0  0  0  0  0  0  0  0  0  0  0  0
   41.0550   83.5930   63.1140 C   0  0  0  0  0  0  0  0  0  0  0  0
   42.0380   82.7800   62.6910 N   0  0  0  0  0  0  0  0  0  0  0  0
   42.7210   81.5660   61.0710 H   0  0  0  0  0  0  0  0  0  0  0  0
   39.0020   83.5640   60.4790 H   0  0  0  0  0  0  0  0  0  0  0  0
   41.0210   84.2620   64.4380 C   0  0  0  0  0  0  0  0  0  0  0  0
   40.7300   85.6140   64.3360 F   0  0  0  0  0  0  0  0  0  0  0  0
   40.0880   83.6630   65.2530 F   0  0  0  0  0  0  0  0  0  0  0  0
   42.2860   84.2310   65.0370 F   0  0  0  0  0  0  0  0  0  0  0  0
   41.5580   82.8020   55.8400 O   0  0  0  0  0  0  0  0  0  0  0  0
   43.3400   84.8180   55.1640 H   0  0  0  0  0  0  0  0  0  0  0  0
   43.6440   83.8210   55.1120 N   0  0  0  0  0  0  0  0  0  0  0  0
   42.8700   82.7400   55.4150 C   0  0  0  0  0  0  0  0  0  0  0  0
   43.6490   81.6400   55.2120 N   0  0  0  0  0  0  0  0  0  0  0  0
   44.8640   82.0640   54.7960 C   0  0  0  0  0  0  0  0  0  0  0  0
   45.9900   81.3100   54.4640 C   0  0  0  0  0  0  0  0  0  0  0  0
   47.1100   81.9490   54.0690 N   0  0  0  0  0  0  0  0  0  0  0  0
   47.1270   83.2980   54.0000 C   0  0  0  0  0  0  0  0  0  0  0  0
   47.9750   83.8960   53.6960 H   0  0  0  0  0  0  0  0  0  0  0  0
   46.0180   84.0020   54.3290 N   0  0  0  0  0  0  0  0  0  0  0  0
   44.8740   83.4390   54.7290 C   0  0  0  0  0  0  0  0  0  0  0  0
   45.9260   79.8980   54.5510 N   0  0  0  0  0  0  0  0  0  0  0  0
   45.1860   79.2290   54.1960 H   0  0  0  0  0  0  0  0  0  0  0  0
   46.5320   79.1710   54.9550 H   0  0  0  0  0  0  0  0  0  0  0  0
  2  1  1  0  0  0  0
  2  3  1  0  0  0  0
  3 12  1  0  0  0  0
  4  3  2  0  0  0  0
  4  9  1  0  0  0  0
  5  4  1  0  0  0  0
  6  8  1  0  0  0  0
  6  5  2  0  0  0  0
  7  6  1  0  0  0  0
  8  2  2  0  0  0  0
 10  5  1  0  0  0  0
 11 16  1  0  0  0  0
 12 13  1  0  0  0  0
 12 11  2  0  0  0  0
 13 14  2  0  0  0  0
 14 15  1  0  0  0  0
 15 19  1  0  0  0  0
 16 15  2  0  0  0  0
 17 11  1  0  0  0  0
 18 13  1  0  0  0  0
 19 22  1  0  0  0  0
 19 21  1  0  0  0  0
 20 19  1  0  0  0  0
 23  8  1  0  0  0  0
 25 24  1  0  0  0  0
 25 26  1  0  0  0  0
 26 23  1  0  0  0  0
 27 26  2  0  0  0  0
 28 27  1  0  0  0  0
 29 35  1  0  0  0  0
 29 28  2  0  0  0  0
 30 29  1  0  0  0  0
 31 30  2  0  0  0  0
 31 33  1  0  0  0  0
 32 31  1  0  0  0  0
 33 34  2  0  0  0  0
 34 28  1  0  0  0  0
 34 25  1  0  0  0  0
 35 37  1  0  0  0  0
 36 35  1  0  0  0  0
M  END
>  <minimizedAffinity>
-5.10278797

>  <minimizedRMSD>
0.634750307

$$$$
