
 OpenBabel03212520153D

 37 40  0  0  0  0  0  0  0  0999 V2000
   42.1380   84.0750   58.3470 Cl  0  0  0  0  0  0  0  0  0  0  0  0
   41.2090   82.5770   58.2020 C   0  0  0  0  0  0  0  0  0  0  0  0
   40.6780   81.9150   59.2850 C   0  0  0  0  0  0  0  0  0  0  0  0
   39.9790   80.7560   58.9910 C   0  0  0  0  0  0  0  0  0  0  0  0
   39.7730   80.2200   57.7450 C   0  0  0  0  0  0  0  0  0  0  0  0
   40.3240   80.9200   56.6880 C   0  0  0  0  0  0  0  0  0  0  0  0
   40.1290   80.3350   55.0450 Cl  0  0  0  0  0  0  0  0  0  0  0  0
   41.0390   82.0950   56.9310 C   0  0  0  0  0  0  0  0  0  0  0  0
   39.5500   80.2160   59.8340 H   0  0  0  0  0  0  0  0  0  0  0  0
   39.2100   79.3060   57.6130 H   0  0  0  0  0  0  0  0  0  0  0  0
   41.9490   82.1850   61.4620 C   0  0  0  0  0  0  0  0  0  0  0  0
   40.8740   82.4420   60.5870 C   0  0  0  0  0  0  0  0  0  0  0  0
   39.8860   83.3090   61.0410 C   0  0  0  0  0  0  0  0  0  0  0  0
   40.0170   83.8470   62.2830 N   0  0  0  0  0  0  0  0  0  0  0  0
   41.0680   83.5720   63.0910 C   0  0  0  0  0  0  0  0  0  0  0  0
   42.0360   82.7380   62.6750 N   0  0  0  0  0  0  0  0  0  0  0  0
   42.6980   81.5000   61.0640 H   0  0  0  0  0  0  0  0  0  0  0  0
   39.0220   83.5710   60.4510 H   0  0  0  0  0  0  0  0  0  0  0  0
   41.0450   84.2500   64.4110 C   0  0  0  0  0  0  0  0  0  0  0  0
   40.7580   85.6020   64.3030 F   0  0  0  0  0  0  0  0  0  0  0  0
   40.1140   83.6580   65.2350 F   0  0  0  0  0  0  0  0  0  0  0  0
   42.3140   84.2180   65.0030 F   0  0  0  0  0  0  0  0  0  0  0  0
   41.5620   82.7390   55.8220 O   0  0  0  0  0  0  0  0  0  0  0  0
   44.0950   82.4260   56.9080 H   0  0  0  0  0  0  0  0  0  0  0  0
   43.9560   82.3100   55.8780 N   0  0  0  0  0  0  0  0  0  0  0  0
   42.7680   82.4380   55.2220 C   0  0  0  0  0  0  0  0  0  0  0  0
   43.0320   82.2100   53.9050 N   0  0  0  0  0  0  0  0  0  0  0  0
   44.3540   81.9540   53.7830 C   0  0  0  0  0  0  0  0  0  0  0  0
   45.0910   81.6630   52.6340 C   0  0  0  0  0  0  0  0  0  0  0  0
   46.4150   81.4380   52.7490 N   0  0  0  0  0  0  0  0  0  0  0  0
   47.0050   81.4950   53.9620 C   0  0  0  0  0  0  0  0  0  0  0  0
   48.0580   81.3300   54.1520 H   0  0  0  0  0  0  0  0  0  0  0  0
   46.2650   81.7800   55.0590 N   0  0  0  0  0  0  0  0  0  0  0  0
   44.9490   82.0140   55.0230 C   0  0  0  0  0  0  0  0  0  0  0  0
   44.4280   81.6140   51.3850 N   0  0  0  0  0  0  0  0  0  0  0  0
   43.7390   82.2930   50.9550 H   0  0  0  0  0  0  0  0  0  0  0  0
   44.4250   80.9550   50.5940 H   0  0  0  0  0  0  0  0  0  0  0  0
  2  1  1  0  0  0  0
  2  3  1  0  0  0  0
  3 12  1  0  0  0  0
  4  3  2  0  0  0  0
  4  9  1  0  0  0  0
  5  4  1  0  0  0  0
  6  8  1  0  0  0  0
  6  5  2  0  0  0  0
  7  6  1  0  0  0  0
  8  2  2  0  0  0  0
 10  5  1  0  0  0  0
 11 16  1  0  0  0  0
 12 13  1  0  0  0  0
 12 11  2  0  0  0  0
 13 14  2  0  0  0  0
 14 15  1  0  0  0  0
 15 19  1  0  0  0  0
 16 15  2  0  0  0  0
 17 11  1  0  0  0  0
 18 13  1  0  0  0  0
 19 22  1  0  0  0  0
 19 21  1  0  0  0  0
 20 19  1  0  0  0  0
 23  8  1  0  0  0  0
 25 24  1  0  0  0  0
 26 23  1  0  0  0  0
 26 25  1  0  0  0  0
 27 26  2  0  0  0  0
 28 27  1  0  0  0  0
 28 34  1  0  0  0  0
 29 30  1  0  0  0  0
 29 28  2  0  0  0  0
 30 31  2  0  0  0  0
 31 32  1  0  0  0  0
 31 33  1  0  0  0  0
 34 33  2  0  0  0  0
 34 25  1  0  0  0  0
 35 29  1  0  0  0  0
 36 35  1  0  0  0  0
 37 35  1  0  0  0  0
M  END
>  <minimizedAffinity>
-5.093575

>  <minimizedRMSD>
0.405923903

$$$$
