
 OpenBabel03212520153D

 37 40  0  0  0  0  0  0  0  0999 V2000
   42.1950   84.0870   58.3290 Cl  0  0  0  0  0  0  0  0  0  0  0  0
   41.2480   82.6020   58.1690 C   0  0  0  0  0  0  0  0  0  0  0  0
   40.6980   81.9430   59.2450 C   0  0  0  0  0  0  0  0  0  0  0  0
   39.9870   80.7950   58.9410 C   0  0  0  0  0  0  0  0  0  0  0  0
   39.7850   80.2670   57.6900 C   0  0  0  0  0  0  0  0  0  0  0  0
   40.3540   80.9640   56.6410 C   0  0  0  0  0  0  0  0  0  0  0  0
   40.1660   80.3880   54.9940 Cl  0  0  0  0  0  0  0  0  0  0  0  0
   41.0830   82.1280   56.8940 C   0  0  0  0  0  0  0  0  0  0  0  0
   39.5430   80.2580   59.7770 H   0  0  0  0  0  0  0  0  0  0  0  0
   39.2100   79.3610   57.5490 H   0  0  0  0  0  0  0  0  0  0  0  0
   41.9600   82.1970   61.4300 C   0  0  0  0  0  0  0  0  0  0  0  0
   40.8900   82.4630   60.5510 C   0  0  0  0  0  0  0  0  0  0  0  0
   39.9020   83.3310   61.0050 C   0  0  0  0  0  0  0  0  0  0  0  0
   40.0290   83.8620   62.2500 N   0  0  0  0  0  0  0  0  0  0  0  0
   41.0760   83.5790   63.0610 C   0  0  0  0  0  0  0  0  0  0  0  0
   42.0420   82.7430   62.6460 N   0  0  0  0  0  0  0  0  0  0  0  0
   42.7070   81.5110   61.0310 H   0  0  0  0  0  0  0  0  0  0  0  0
   39.0430   83.6000   60.4110 H   0  0  0  0  0  0  0  0  0  0  0  0
   41.0480   84.2490   64.3850 C   0  0  0  0  0  0  0  0  0  0  0  0
   40.7620   85.6030   64.2830 F   0  0  0  0  0  0  0  0  0  0  0  0
   40.1150   83.6540   65.2030 F   0  0  0  0  0  0  0  0  0  0  0  0
   42.3150   84.2140   64.9810 F   0  0  0  0  0  0  0  0  0  0  0  0
   41.6240   82.7690   55.7930 O   0  0  0  0  0  0  0  0  0  0  0  0
   43.5320   84.6740   55.1410 H   0  0  0  0  0  0  0  0  0  0  0  0
   43.7660   83.6590   55.0610 N   0  0  0  0  0  0  0  0  0  0  0  0
   42.9230   82.6280   55.3480 C   0  0  0  0  0  0  0  0  0  0  0  0
   43.6220   81.4830   55.1090 N   0  0  0  0  0  0  0  0  0  0  0  0
   44.8590   81.8320   54.6880 C   0  0  0  0  0  0  0  0  0  0  0  0
   45.9260   81.0110   54.3230 C   0  0  0  0  0  0  0  0  0  0  0  0
   47.0830   81.5820   53.9290 N   0  0  0  0  0  0  0  0  0  0  0  0
   47.1910   82.9260   53.8920 C   0  0  0  0  0  0  0  0  0  0  0  0
   48.0750   83.4720   53.5900 H   0  0  0  0  0  0  0  0  0  0  0  0
   46.1380   83.6970   54.2520 N   0  0  0  0  0  0  0  0  0  0  0  0
   44.9620   83.2030   54.6530 C   0  0  0  0  0  0  0  0  0  0  0  0
   45.7650   79.6050   54.3780 N   0  0  0  0  0  0  0  0  0  0  0  0
   44.9770   78.9970   54.0160 H   0  0  0  0  0  0  0  0  0  0  0  0
   46.3250   78.8290   54.7560 H   0  0  0  0  0  0  0  0  0  0  0  0
  2  1  1  0  0  0  0
  2  3  1  0  0  0  0
  3 12  1  0  0  0  0
  4  3  2  0  0  0  0
  4  9  1  0  0  0  0
  5  4  1  0  0  0  0
  6  8  1  0  0  0  0
  6  5  2  0  0  0  0
  7  6  1  0  0  0  0
  8  2  2  0  0  0  0
 10  5  1  0  0  0  0
 11 16  1  0  0  0  0
 12 13  1  0  0  0  0
 12 11  2  0  0  0  0
 13 14  2  0  0  0  0
 14 15  1  0  0  0  0
 15 19  1  0  0  0  0
 16 15  2  0  0  0  0
 17 11  1  0  0  0  0
 18 13  1  0  0  0  0
 19 22  1  0  0  0  0
 19 21  1  0  0  0  0
 20 19  1  0  0  0  0
 23  8  1  0  0  0  0
 25 24  1  0  0  0  0
 25 26  1  0  0  0  0
 26 23  1  0  0  0  0
 27 26  2  0  0  0  0
 28 27  1  0  0  0  0
 29 35  1  0  0  0  0
 29 28  2  0  0  0  0
 30 29  1  0  0  0  0
 31 30  2  0  0  0  0
 31 33  1  0  0  0  0
 32 31  1  0  0  0  0
 33 34  2  0  0  0  0
 34 28  1  0  0  0  0
 34 25  1  0  0  0  0
 35 37  1  0  0  0  0
 36 35  1  0  0  0  0
M  END
>  <minimizedAffinity>
-5.07624578

>  <minimizedRMSD>
0.302711964

$$$$
