
 OpenBabel03212520153D

 37 40  0  0  0  0  0  0  0  0999 V2000
   42.1530   84.1160   58.3490 Cl  0  0  0  0  0  0  0  0  0  0  0  0
   41.2280   82.6170   58.1910 C   0  0  0  0  0  0  0  0  0  0  0  0
   40.6940   81.9470   59.2680 C   0  0  0  0  0  0  0  0  0  0  0  0
   39.9990   80.7890   58.9650 C   0  0  0  0  0  0  0  0  0  0  0  0
   39.7990   80.2600   57.7140 C   0  0  0  0  0  0  0  0  0  0  0  0
   40.3530   80.9680   56.6640 C   0  0  0  0  0  0  0  0  0  0  0  0
   40.1660   80.3920   55.0170 Cl  0  0  0  0  0  0  0  0  0  0  0  0
   41.0640   82.1430   56.9160 C   0  0  0  0  0  0  0  0  0  0  0  0
   39.5670   80.2430   59.8020 H   0  0  0  0  0  0  0  0  0  0  0  0
   39.2380   79.3450   57.5740 H   0  0  0  0  0  0  0  0  0  0  0  0
   41.9510   82.2010   61.4560 C   0  0  0  0  0  0  0  0  0  0  0  0
   40.8830   82.4680   60.5740 C   0  0  0  0  0  0  0  0  0  0  0  0
   39.8960   83.3370   61.0250 C   0  0  0  0  0  0  0  0  0  0  0  0
   40.0210   83.8690   62.2700 N   0  0  0  0  0  0  0  0  0  0  0  0
   41.0650   83.5850   63.0840 C   0  0  0  0  0  0  0  0  0  0  0  0
   42.0310   82.7470   62.6720 N   0  0  0  0  0  0  0  0  0  0  0  0
   42.6980   81.5140   61.0590 H   0  0  0  0  0  0  0  0  0  0  0  0
   39.0380   83.6070   60.4300 H   0  0  0  0  0  0  0  0  0  0  0  0
   41.0360   84.2560   64.4080 C   0  0  0  0  0  0  0  0  0  0  0  0
   40.7500   85.6090   64.3040 F   0  0  0  0  0  0  0  0  0  0  0  0
   40.1010   83.6620   65.2250 F   0  0  0  0  0  0  0  0  0  0  0  0
   42.3020   84.2210   65.0050 F   0  0  0  0  0  0  0  0  0  0  0  0
   41.5900   82.7940   55.8140 O   0  0  0  0  0  0  0  0  0  0  0  0
   43.0420   84.3590   54.0400 H   0  0  0  0  0  0  0  0  0  0  0  0
   43.4920   83.5270   54.4840 N   0  0  0  0  0  0  0  0  0  0  0  0
   42.8910   82.6800   55.3670 C   0  0  0  0  0  0  0  0  0  0  0  0
   43.8250   81.7420   55.6940 N   0  0  0  0  0  0  0  0  0  0  0  0
   44.9580   82.0290   55.0150 C   0  0  0  0  0  0  0  0  0  0  0  0
   46.1810   81.3570   55.0220 C   0  0  0  0  0  0  0  0  0  0  0  0
   47.1870   81.8270   54.2560 N   0  0  0  0  0  0  0  0  0  0  0  0
   47.0010   82.9290   53.5010 C   0  0  0  0  0  0  0  0  0  0  0  0
   47.7470   83.3780   52.8580 H   0  0  0  0  0  0  0  0  0  0  0  0
   45.8030   83.5600   53.5140 N   0  0  0  0  0  0  0  0  0  0  0  0
   44.7610   83.1540   54.2460 C   0  0  0  0  0  0  0  0  0  0  0  0
   46.3290   80.2040   55.8310 N   0  0  0  0  0  0  0  0  0  0  0  0
   45.6940   79.3640   55.9380 H   0  0  0  0  0  0  0  0  0  0  0  0
   47.0430   79.8770   56.4960 H   0  0  0  0  0  0  0  0  0  0  0  0
  2  1  1  0  0  0  0
  2  3  1  0  0  0  0
  3 12  1  0  0  0  0
  4  3  2  0  0  0  0
  4  9  1  0  0  0  0
  5  4  1  0  0  0  0
  6  8  1  0  0  0  0
  6  5  2  0  0  0  0
  7  6  1  0  0  0  0
  8  2  2  0  0  0  0
 10  5  1  0  0  0  0
 11 16  1  0  0  0  0
 12 13  1  0  0  0  0
 12 11  2  0  0  0  0
 13 14  2  0  0  0  0
 14 15  1  0  0  0  0
 15 19  1  0  0  0  0
 16 15  2  0  0  0  0
 17 11  1  0  0  0  0
 18 13  1  0  0  0  0
 19 22  1  0  0  0  0
 19 21  1  0  0  0  0
 20 19  1  0  0  0  0
 23  8  1  0  0  0  0
 24 25  1  0  0  0  0
 25 26  1  0  0  0  0
 26 27  2  0  0  0  0
 26 23  1  0  0  0  0
 28 29  1  0  0  0  0
 28 27  1  0  0  0  0
 29 35  1  0  0  0  0
 30 29  2  0  0  0  0
 31 33  2  0  0  0  0
 31 30  1  0  0  0  0
 32 31  1  0  0  0  0
 33 34  1  0  0  0  0
 34 25  1  0  0  0  0
 34 28  2  0  0  0  0
 35 36  1  0  0  0  0
 35 37  1  0  0  0  0
M  END
>  <minimizedAffinity>
-5.08674145

>  <minimizedRMSD>
0.371993929

$$$$
