
 OpenBabel03212520153D

 37 40  0  0  0  0  0  0  0  0999 V2000
   42.2150   84.0780   58.3320 Cl  0  0  0  0  0  0  0  0  0  0  0  0
   41.2560   82.6010   58.1700 C   0  0  0  0  0  0  0  0  0  0  0  0
   40.6980   81.9460   59.2440 C   0  0  0  0  0  0  0  0  0  0  0  0
   39.9780   80.8040   58.9370 C   0  0  0  0  0  0  0  0  0  0  0  0
   39.7750   80.2770   57.6860 C   0  0  0  0  0  0  0  0  0  0  0  0
   40.3540   80.9690   56.6390 C   0  0  0  0  0  0  0  0  0  0  0  0
   40.1670   80.3940   54.9920 Cl  0  0  0  0  0  0  0  0  0  0  0  0
   41.0920   82.1270   56.8950 C   0  0  0  0  0  0  0  0  0  0  0  0
   39.5270   80.2710   59.7730 H   0  0  0  0  0  0  0  0  0  0  0  0
   39.1940   79.3750   57.5440 H   0  0  0  0  0  0  0  0  0  0  0  0
   41.9570   82.1960   61.4310 C   0  0  0  0  0  0  0  0  0  0  0  0
   40.8890   82.4650   60.5500 C   0  0  0  0  0  0  0  0  0  0  0  0
   39.9030   83.3360   61.0030 C   0  0  0  0  0  0  0  0  0  0  0  0
   40.0300   83.8660   62.2480 N   0  0  0  0  0  0  0  0  0  0  0  0
   41.0750   83.5800   63.0610 C   0  0  0  0  0  0  0  0  0  0  0  0
   42.0390   82.7410   62.6470 N   0  0  0  0  0  0  0  0  0  0  0  0
   42.7030   81.5080   61.0330 H   0  0  0  0  0  0  0  0  0  0  0  0
   39.0450   83.6080   60.4090 H   0  0  0  0  0  0  0  0  0  0  0  0
   41.0470   84.2500   64.3850 C   0  0  0  0  0  0  0  0  0  0  0  0
   40.7600   85.6030   64.2840 F   0  0  0  0  0  0  0  0  0  0  0  0
   40.1150   83.6540   65.2040 F   0  0  0  0  0  0  0  0  0  0  0  0
   42.3140   84.2150   64.9800 F   0  0  0  0  0  0  0  0  0  0  0  0
   41.6410   82.7630   55.7950 O   0  0  0  0  0  0  0  0  0  0  0  0
   43.3090   84.5440   54.4730 H   0  0  0  0  0  0  0  0  0  0  0  0
   43.6610   83.5920   54.7220 N   0  0  0  0  0  0  0  0  0  0  0  0
   42.9470   82.6280   55.3680 C   0  0  0  0  0  0  0  0  0  0  0  0
   43.7770   81.5540   55.4910 N   0  0  0  0  0  0  0  0  0  0  0  0
   44.9620   81.8780   54.9260 C   0  0  0  0  0  0  0  0  0  0  0  0
   46.1180   81.1070   54.8070 C   0  0  0  0  0  0  0  0  0  0  0  0
   47.1980   81.6390   54.1990 N   0  0  0  0  0  0  0  0  0  0  0  0
   47.1460   82.8990   53.7170 C   0  0  0  0  0  0  0  0  0  0  0  0
   47.9580   83.4080   53.2160 H   0  0  0  0  0  0  0  0  0  0  0  0
   46.0100   83.6230   53.8460 N   0  0  0  0  0  0  0  0  0  0  0  0
   44.9020   83.1630   54.4370 C   0  0  0  0  0  0  0  0  0  0  0  0
   46.1250   79.7900   55.3280 N   0  0  0  0  0  0  0  0  0  0  0  0
   45.4140   79.0130   55.2210 H   0  0  0  0  0  0  0  0  0  0  0  0
   46.7740   79.2500   55.9170 H   0  0  0  0  0  0  0  0  0  0  0  0
  2  1  1  0  0  0  0
  2  3  1  0  0  0  0
  3 12  1  0  0  0  0
  4  3  2  0  0  0  0
  4  9  1  0  0  0  0
  5  4  1  0  0  0  0
  6  8  1  0  0  0  0
  6  5  2  0  0  0  0
  7  6  1  0  0  0  0
  8  2  2  0  0  0  0
 10  5  1  0  0  0  0
 11 16  1  0  0  0  0
 12 13  1  0  0  0  0
 12 11  2  0  0  0  0
 13 14  2  0  0  0  0
 14 15  1  0  0  0  0
 15 19  1  0  0  0  0
 16 15  2  0  0  0  0
 17 11  1  0  0  0  0
 18 13  1  0  0  0  0
 19 22  1  0  0  0  0
 19 21  1  0  0  0  0
 20 19  1  0  0  0  0
 23  8  1  0  0  0  0
 24 25  1  0  0  0  0
 25 26  1  0  0  0  0
 26 27  2  0  0  0  0
 26 23  1  0  0  0  0
 28 27  1  0  0  0  0
 29 28  1  0  0  0  0
 29 35  1  0  0  0  0
 30 29  2  0  0  0  0
 31 33  2  0  0  0  0
 31 30  1  0  0  0  0
 32 31  1  0  0  0  0
 33 34  1  0  0  0  0
 34 25  1  0  0  0  0
 34 28  2  0  0  0  0
 35 37  1  0  0  0  0
 36 35  1  0  0  0  0
M  END
>  <minimizedAffinity>
-5.07333565

>  <minimizedRMSD>
0.339202821

$$$$
