
 OpenBabel03212520153D

 37 40  0  0  0  0  0  0  0  0999 V2000
   42.1390   84.1030   58.3510 Cl  0  0  0  0  0  0  0  0  0  0  0  0
   41.2160   82.6020   58.2030 C   0  0  0  0  0  0  0  0  0  0  0  0
   40.6860   81.9360   59.2840 C   0  0  0  0  0  0  0  0  0  0  0  0
   39.9920   80.7750   58.9880 C   0  0  0  0  0  0  0  0  0  0  0  0
   39.7880   80.2410   57.7400 C   0  0  0  0  0  0  0  0  0  0  0  0
   40.3370   80.9450   56.6850 C   0  0  0  0  0  0  0  0  0  0  0  0
   40.1450   80.3630   55.0410 Cl  0  0  0  0  0  0  0  0  0  0  0  0
   41.0480   82.1230   56.9300 C   0  0  0  0  0  0  0  0  0  0  0  0
   39.5640   80.2320   59.8290 H   0  0  0  0  0  0  0  0  0  0  0  0
   39.2280   79.3250   57.6060 H   0  0  0  0  0  0  0  0  0  0  0  0
   41.9670   82.2260   61.4530 C   0  0  0  0  0  0  0  0  0  0  0  0
   40.8800   82.4620   60.5870 C   0  0  0  0  0  0  0  0  0  0  0  0
   39.8750   83.3030   61.0530 C   0  0  0  0  0  0  0  0  0  0  0  0
   40.0030   83.8380   62.2960 N   0  0  0  0  0  0  0  0  0  0  0  0
   41.0660   83.5840   63.0950 C   0  0  0  0  0  0  0  0  0  0  0  0
   42.0500   82.7740   62.6680 N   0  0  0  0  0  0  0  0  0  0  0  0
   42.7280   81.5600   61.0460 H   0  0  0  0  0  0  0  0  0  0  0  0
   39.0010   83.5480   60.4700 H   0  0  0  0  0  0  0  0  0  0  0  0
   41.0370   84.2540   64.4190 C   0  0  0  0  0  0  0  0  0  0  0  0
   40.7480   85.6070   64.3160 F   0  0  0  0  0  0  0  0  0  0  0  0
   40.1040   83.6580   65.2360 F   0  0  0  0  0  0  0  0  0  0  0  0
   42.3040   84.2210   65.0150 F   0  0  0  0  0  0  0  0  0  0  0  0
   41.5690   82.7700   55.8230 O   0  0  0  0  0  0  0  0  0  0  0  0
   42.3940   82.7050   53.1750 H   0  0  0  0  0  0  0  0  0  0  0  0
   43.0860   82.5270   53.9370 N   0  0  0  0  0  0  0  0  0  0  0  0
   42.8110   82.5290   55.2710 C   0  0  0  0  0  0  0  0  0  0  0  0
   43.9850   82.2540   55.9060 N   0  0  0  0  0  0  0  0  0  0  0  0
   44.9400   82.0910   54.9610 C   0  0  0  0  0  0  0  0  0  0  0  0
   46.2950   81.7980   55.1230 C   0  0  0  0  0  0  0  0  0  0  0  0
   47.0710   81.6790   54.0260 N   0  0  0  0  0  0  0  0  0  0  0  0
   46.5320   81.8440   52.7990 C   0  0  0  0  0  0  0  0  0  0  0  0
   47.0740   81.7680   51.8660 H   0  0  0  0  0  0  0  0  0  0  0  0
   45.2150   82.1280   52.6740 N   0  0  0  0  0  0  0  0  0  0  0  0
   44.3840   82.2610   53.7130 C   0  0  0  0  0  0  0  0  0  0  0  0
   46.8130   81.6340   56.4300 N   0  0  0  0  0  0  0  0  0  0  0  0
   46.4380   81.0690   57.2430 H   0  0  0  0  0  0  0  0  0  0  0  0
   47.6400   81.9890   56.9270 H   0  0  0  0  0  0  0  0  0  0  0  0
  2  1  1  0  0  0  0
  2  3  1  0  0  0  0
  3 12  1  0  0  0  0
  4  3  2  0  0  0  0
  4  9  1  0  0  0  0
  5  4  1  0  0  0  0
  6  8  1  0  0  0  0
  6  5  2  0  0  0  0
  7  6  1  0  0  0  0
  8  2  2  0  0  0  0
 10  5  1  0  0  0  0
 11 16  1  0  0  0  0
 12 13  1  0  0  0  0
 12 11  2  0  0  0  0
 13 14  2  0  0  0  0
 14 15  1  0  0  0  0
 15 19  1  0  0  0  0
 16 15  2  0  0  0  0
 17 11  1  0  0  0  0
 18 13  1  0  0  0  0
 19 22  1  0  0  0  0
 19 21  1  0  0  0  0
 20 19  1  0  0  0  0
 23  8  1  0  0  0  0
 24 25  1  0  0  0  0
 25 26  1  0  0  0  0
 26 23  1  0  0  0  0
 26 27  2  0  0  0  0
 28 29  1  0  0  0  0
 28 27  1  0  0  0  0
 29 35  1  0  0  0  0
 30 29  2  0  0  0  0
 31 30  1  0  0  0  0
 32 31  1  0  0  0  0
 33 31  2  0  0  0  0
 33 34  1  0  0  0  0
 34 25  1  0  0  0  0
 34 28  2  0  0  0  0
 35 37  1  0  0  0  0
 35 36  1  0  0  0  0
M  END
>  <minimizedAffinity>
-5.07903719

>  <minimizedRMSD>
0.193496391

$$$$
