
 OpenBabel03212520153D

 37 40  0  0  0  0  0  0  0  0999 V2000
   42.2130   84.0870   58.3290 Cl  0  0  0  0  0  0  0  0  0  0  0  0
   41.2580   82.6080   58.1660 C   0  0  0  0  0  0  0  0  0  0  0  0
   40.7020   81.9500   59.2390 C   0  0  0  0  0  0  0  0  0  0  0  0
   39.9850   80.8070   58.9310 C   0  0  0  0  0  0  0  0  0  0  0  0
   39.7830   80.2810   57.6790 C   0  0  0  0  0  0  0  0  0  0  0  0
   40.3600   80.9760   56.6330 C   0  0  0  0  0  0  0  0  0  0  0  0
   40.1730   80.4030   54.9850 Cl  0  0  0  0  0  0  0  0  0  0  0  0
   41.0940   82.1360   56.8900 C   0  0  0  0  0  0  0  0  0  0  0  0
   39.5350   80.2710   59.7650 H   0  0  0  0  0  0  0  0  0  0  0  0
   39.2040   79.3780   57.5360 H   0  0  0  0  0  0  0  0  0  0  0  0
   41.9570   82.1950   61.4280 C   0  0  0  0  0  0  0  0  0  0  0  0
   40.8920   82.4680   60.5460 C   0  0  0  0  0  0  0  0  0  0  0  0
   39.9080   83.3410   60.9970 C   0  0  0  0  0  0  0  0  0  0  0  0
   40.0340   83.8700   62.2430 N   0  0  0  0  0  0  0  0  0  0  0  0
   41.0770   83.5800   63.0580 C   0  0  0  0  0  0  0  0  0  0  0  0
   42.0390   82.7380   62.6450 N   0  0  0  0  0  0  0  0  0  0  0  0
   42.7020   81.5050   61.0310 H   0  0  0  0  0  0  0  0  0  0  0  0
   39.0520   83.6160   60.4020 H   0  0  0  0  0  0  0  0  0  0  0  0
   41.0490   84.2490   64.3820 C   0  0  0  0  0  0  0  0  0  0  0  0
   40.7610   85.6020   64.2820 F   0  0  0  0  0  0  0  0  0  0  0  0
   40.1170   83.6520   65.2000 F   0  0  0  0  0  0  0  0  0  0  0  0
   42.3160   84.2140   64.9770 F   0  0  0  0  0  0  0  0  0  0  0  0
   41.6410   82.7750   55.7900 O   0  0  0  0  0  0  0  0  0  0  0  0
   43.5660   80.8850   56.4380 H   0  0  0  0  0  0  0  0  0  0  0  0
   43.7900   81.6350   55.7460 N   0  0  0  0  0  0  0  0  0  0  0  0
   42.9380   82.6190   55.3430 C   0  0  0  0  0  0  0  0  0  0  0  0
   43.6260   83.3780   54.4430 N   0  0  0  0  0  0  0  0  0  0  0  0
   44.8650   82.8500   54.3170 C   0  0  0  0  0  0  0  0  0  0  0  0
   45.9240   83.2770   53.5150 C   0  0  0  0  0  0  0  0  0  0  0  0
   47.0840   82.5910   53.5460 N   0  0  0  0  0  0  0  0  0  0  0  0
   47.2050   81.5100   54.3460 C   0  0  0  0  0  0  0  0  0  0  0  0
   48.0930   80.8990   54.4390 H   0  0  0  0  0  0  0  0  0  0  0  0
   46.1600   81.1190   55.1140 N   0  0  0  0  0  0  0  0  0  0  0  0
   44.9810   81.7480   55.1340 C   0  0  0  0  0  0  0  0  0  0  0  0
   45.7490   84.4160   52.6920 N   0  0  0  0  0  0  0  0  0  0  0  0
   45.3440   85.3650   52.9240 H   0  0  0  0  0  0  0  0  0  0  0  0
   45.9520   84.6320   51.7060 H   0  0  0  0  0  0  0  0  0  0  0  0
  2  1  1  0  0  0  0
  2  3  1  0  0  0  0
  3 12  1  0  0  0  0
  4  3  2  0  0  0  0
  4  9  1  0  0  0  0
  5  4  1  0  0  0  0
  6  8  1  0  0  0  0
  6  5  2  0  0  0  0
  7  6  1  0  0  0  0
  8  2  2  0  0  0  0
 10  5  1  0  0  0  0
 11 16  1  0  0  0  0
 12 13  1  0  0  0  0
 12 11  2  0  0  0  0
 13 14  2  0  0  0  0
 14 15  1  0  0  0  0
 15 19  1  0  0  0  0
 16 15  2  0  0  0  0
 17 11  1  0  0  0  0
 18 13  1  0  0  0  0
 19 22  1  0  0  0  0
 19 21  1  0  0  0  0
 20 19  1  0  0  0  0
 23  8  1  0  0  0  0
 25 24  1  0  0  0  0
 26 25  1  0  0  0  0
 26 23  1  0  0  0  0
 27 26  2  0  0  0  0
 28 27  1  0  0  0  0
 28 34  1  0  0  0  0
 29 30  1  0  0  0  0
 29 28  2  0  0  0  0
 30 31  2  0  0  0  0
 31 32  1  0  0  0  0
 31 33  1  0  0  0  0
 33 34  2  0  0  0  0
 34 25  1  0  0  0  0
 35 36  1  0  0  0  0
 35 29  1  0  0  0  0
 37 35  1  0  0  0  0
M  END
>  <minimizedAffinity>
-5.09837389

>  <minimizedRMSD>
0.272978127

$$$$
