
 OpenBabel03212520153D

 37 40  0  0  0  0  0  0  0  0999 V2000
   42.1800   84.0680   58.3390 Cl  0  0  0  0  0  0  0  0  0  0  0  0
   41.2270   82.5850   58.1880 C   0  0  0  0  0  0  0  0  0  0  0  0
   40.6780   81.9320   59.2670 C   0  0  0  0  0  0  0  0  0  0  0  0
   39.9620   80.7850   58.9680 C   0  0  0  0  0  0  0  0  0  0  0  0
   39.7550   80.2530   57.7190 C   0  0  0  0  0  0  0  0  0  0  0  0
   40.3250   80.9440   56.6670 C   0  0  0  0  0  0  0  0  0  0  0  0
   40.1310   80.3630   55.0230 Cl  0  0  0  0  0  0  0  0  0  0  0  0
   41.0580   82.1070   56.9150 C   0  0  0  0  0  0  0  0  0  0  0  0
   39.5180   80.2520   59.8070 H   0  0  0  0  0  0  0  0  0  0  0  0
   39.1780   79.3480   57.5830 H   0  0  0  0  0  0  0  0  0  0  0  0
   41.9470   82.1920   61.4460 C   0  0  0  0  0  0  0  0  0  0  0  0
   40.8740   82.4550   60.5700 C   0  0  0  0  0  0  0  0  0  0  0  0
   39.8880   83.3250   61.0250 C   0  0  0  0  0  0  0  0  0  0  0  0
   40.0190   83.8600   62.2680 N   0  0  0  0  0  0  0  0  0  0  0  0
   41.0690   83.5790   63.0770 C   0  0  0  0  0  0  0  0  0  0  0  0
   42.0340   82.7410   62.6610 N   0  0  0  0  0  0  0  0  0  0  0  0
   42.6930   81.5050   61.0470 H   0  0  0  0  0  0  0  0  0  0  0  0
   39.0270   83.5920   60.4340 H   0  0  0  0  0  0  0  0  0  0  0  0
   41.0460   84.2530   64.3980 C   0  0  0  0  0  0  0  0  0  0  0  0
   40.7610   85.6070   64.2930 F   0  0  0  0  0  0  0  0  0  0  0  0
   40.1150   83.6620   65.2210 F   0  0  0  0  0  0  0  0  0  0  0  0
   42.3150   84.2180   64.9900 F   0  0  0  0  0  0  0  0  0  0  0  0
   41.5980   82.7430   55.8100 O   0  0  0  0  0  0  0  0  0  0  0  0
   43.7710   81.3740   56.8600 H   0  0  0  0  0  0  0  0  0  0  0  0
   43.8370   81.7960   55.9060 N   0  0  0  0  0  0  0  0  0  0  0  0
   42.8470   82.4900   55.2780 C   0  0  0  0  0  0  0  0  0  0  0  0
   43.3480   82.8590   54.0650 N   0  0  0  0  0  0  0  0  0  0  0  0
   44.6130   82.3910   53.9790 C   0  0  0  0  0  0  0  0  0  0  0  0
   45.5260   82.5170   52.9310 C   0  0  0  0  0  0  0  0  0  0  0  0
   46.7490   81.9640   53.0620 N   0  0  0  0  0  0  0  0  0  0  0  0
   47.0700   81.3020   54.1930 C   0  0  0  0  0  0  0  0  0  0  0  0
   48.0240   80.8270   54.3880 H   0  0  0  0  0  0  0  0  0  0  0  0
   46.1630   81.1960   55.1930 N   0  0  0  0  0  0  0  0  0  0  0  0
   44.9340   81.7170   55.1350 C   0  0  0  0  0  0  0  0  0  0  0  0
   45.1430   83.2210   51.7630 N   0  0  0  0  0  0  0  0  0  0  0  0
   44.6670   84.1610   51.6630 H   0  0  0  0  0  0  0  0  0  0  0  0
   45.2110   83.0350   50.7530 H   0  0  0  0  0  0  0  0  0  0  0  0
  2  1  1  0  0  0  0
  2  3  1  0  0  0  0
  3 12  1  0  0  0  0
  4  3  2  0  0  0  0
  4  9  1  0  0  0  0
  5  4  1  0  0  0  0
  6  8  1  0  0  0  0
  6  5  2  0  0  0  0
  7  6  1  0  0  0  0
  8  2  2  0  0  0  0
 10  5  1  0  0  0  0
 11 16  1  0  0  0  0
 12 13  1  0  0  0  0
 12 11  2  0  0  0  0
 13 14  2  0  0  0  0
 14 15  1  0  0  0  0
 15 19  1  0  0  0  0
 16 15  2  0  0  0  0
 17 11  1  0  0  0  0
 18 13  1  0  0  0  0
 19 22  1  0  0  0  0
 19 21  1  0  0  0  0
 20 19  1  0  0  0  0
 23  8  1  0  0  0  0
 25 24  1  0  0  0  0
 26 23  1  0  0  0  0
 26 25  1  0  0  0  0
 27 26  2  0  0  0  0
 28 27  1  0  0  0  0
 28 34  1  0  0  0  0
 29 30  1  0  0  0  0
 29 28  2  0  0  0  0
 30 31  2  0  0  0  0
 31 32  1  0  0  0  0
 31 33  1  0  0  0  0
 34 33  2  0  0  0  0
 34 25  1  0  0  0  0
 35 29  1  0  0  0  0
 36 35  1  0  0  0  0
 37 35  1  0  0  0  0
M  END
>  <minimizedAffinity>
-5.09794188

>  <minimizedRMSD>
0.101704538

$$$$
