
 OpenBabel03212520153D

 37 40  0  0  0  0  0  0  0  0999 V2000
   42.1700   84.0840   58.3420 Cl  0  0  0  0  0  0  0  0  0  0  0  0
   41.2280   82.5940   58.1880 C   0  0  0  0  0  0  0  0  0  0  0  0
   40.6840   81.9350   59.2670 C   0  0  0  0  0  0  0  0  0  0  0  0
   39.9770   80.7840   58.9670 C   0  0  0  0  0  0  0  0  0  0  0  0
   39.7720   80.2520   57.7180 C   0  0  0  0  0  0  0  0  0  0  0  0
   40.3360   80.9500   56.6660 C   0  0  0  0  0  0  0  0  0  0  0  0
   40.1430   80.3700   55.0210 Cl  0  0  0  0  0  0  0  0  0  0  0  0
   41.0600   82.1170   56.9150 C   0  0  0  0  0  0  0  0  0  0  0  0
   39.5380   80.2460   59.8060 H   0  0  0  0  0  0  0  0  0  0  0  0
   39.2010   79.3440   57.5810 H   0  0  0  0  0  0  0  0  0  0  0  0
   41.9500   82.1950   61.4490 C   0  0  0  0  0  0  0  0  0  0  0  0
   40.8780   82.4580   60.5710 C   0  0  0  0  0  0  0  0  0  0  0  0
   39.8910   83.3260   61.0250 C   0  0  0  0  0  0  0  0  0  0  0  0
   40.0200   83.8600   62.2690 N   0  0  0  0  0  0  0  0  0  0  0  0
   41.0690   83.5800   63.0790 C   0  0  0  0  0  0  0  0  0  0  0  0
   42.0350   82.7430   62.6640 N   0  0  0  0  0  0  0  0  0  0  0  0
   42.6970   81.5090   61.0500 H   0  0  0  0  0  0  0  0  0  0  0  0
   39.0300   83.5930   60.4330 H   0  0  0  0  0  0  0  0  0  0  0  0
   41.0430   84.2530   64.4010 C   0  0  0  0  0  0  0  0  0  0  0  0
   40.7570   85.6060   64.2960 F   0  0  0  0  0  0  0  0  0  0  0  0
   40.1110   83.6600   65.2220 F   0  0  0  0  0  0  0  0  0  0  0  0
   42.3110   84.2190   64.9950 F   0  0  0  0  0  0  0  0  0  0  0  0
   41.5940   82.7590   55.8100 O   0  0  0  0  0  0  0  0  0  0  0  0
   42.7160   83.5040   53.3840 H   0  0  0  0  0  0  0  0  0  0  0  0
   43.2850   82.9610   54.0720 N   0  0  0  0  0  0  0  0  0  0  0  0
   42.8550   82.5350   55.2930 C   0  0  0  0  0  0  0  0  0  0  0  0
   43.9030   81.8730   55.8590 N   0  0  0  0  0  0  0  0  0  0  0  0
   44.9350   81.9060   54.9860 C   0  0  0  0  0  0  0  0  0  0  0  0
   46.2140   81.3640   55.1190 C   0  0  0  0  0  0  0  0  0  0  0  0
   47.0950   81.5190   54.1090 N   0  0  0  0  0  0  0  0  0  0  0  0
   46.7320   82.1880   52.9960 C   0  0  0  0  0  0  0  0  0  0  0  0
   47.3680   82.3630   52.1380 H   0  0  0  0  0  0  0  0  0  0  0  0
   45.4840   82.7040   52.8970 N   0  0  0  0  0  0  0  0  0  0  0  0
   44.5570   82.5900   53.8530 C   0  0  0  0  0  0  0  0  0  0  0  0
   46.5490   80.6680   56.3060 N   0  0  0  0  0  0  0  0  0  0  0  0
   46.0140   79.9190   56.8280 H   0  0  0  0  0  0  0  0  0  0  0  0
   47.3480   80.6890   56.9530 H   0  0  0  0  0  0  0  0  0  0  0  0
  2  1  1  0  0  0  0
  2  3  1  0  0  0  0
  3 12  1  0  0  0  0
  4  3  2  0  0  0  0
  4  9  1  0  0  0  0
  5  4  1  0  0  0  0
  6  8  1  0  0  0  0
  6  5  2  0  0  0  0
  7  6  1  0  0  0  0
  8  2  2  0  0  0  0
 10  5  1  0  0  0  0
 11 16  1  0  0  0  0
 12 13  1  0  0  0  0
 12 11  2  0  0  0  0
 13 14  2  0  0  0  0
 14 15  1  0  0  0  0
 15 19  1  0  0  0  0
 16 15  2  0  0  0  0
 17 11  1  0  0  0  0
 18 13  1  0  0  0  0
 19 22  1  0  0  0  0
 19 21  1  0  0  0  0
 20 19  1  0  0  0  0
 23  8  1  0  0  0  0
 24 25  1  0  0  0  0
 25 26  1  0  0  0  0
 26 23  1  0  0  0  0
 26 27  2  0  0  0  0
 28 29  1  0  0  0  0
 28 27  1  0  0  0  0
 29 35  1  0  0  0  0
 30 29  2  0  0  0  0
 31 30  1  0  0  0  0
 32 31  1  0  0  0  0
 33 31  2  0  0  0  0
 33 34  1  0  0  0  0
 34 25  1  0  0  0  0
 34 28  2  0  0  0  0
 35 36  1  0  0  0  0
 35 37  1  0  0  0  0
M  END
>  <minimizedAffinity>
-5.0751915

>  <minimizedRMSD>
0.132357106

$$$$
