
 OpenBabel03212520153D

 37 40  0  0  0  0  0  0  0  0999 V2000
   42.2020   84.1010   58.3380 Cl  0  0  0  0  0  0  0  0  0  0  0  0
   41.2550   82.6170   58.1730 C   0  0  0  0  0  0  0  0  0  0  0  0
   40.7030   81.9550   59.2450 C   0  0  0  0  0  0  0  0  0  0  0  0
   39.9920   80.8080   58.9360 C   0  0  0  0  0  0  0  0  0  0  0  0
   39.7920   80.2830   57.6840 C   0  0  0  0  0  0  0  0  0  0  0  0
   40.3650   80.9820   56.6380 C   0  0  0  0  0  0  0  0  0  0  0  0
   40.1800   80.4110   54.9890 Cl  0  0  0  0  0  0  0  0  0  0  0  0
   41.0930   82.1460   56.8960 C   0  0  0  0  0  0  0  0  0  0  0  0
   39.5460   80.2680   59.7700 H   0  0  0  0  0  0  0  0  0  0  0  0
   39.2180   79.3770   57.5390 H   0  0  0  0  0  0  0  0  0  0  0  0
   41.9530   82.1960   61.4380 C   0  0  0  0  0  0  0  0  0  0  0  0
   40.8910   82.4710   60.5530 C   0  0  0  0  0  0  0  0  0  0  0  0
   39.9080   83.3470   61.0020 C   0  0  0  0  0  0  0  0  0  0  0  0
   40.0320   83.8750   62.2490 N   0  0  0  0  0  0  0  0  0  0  0  0
   41.0710   83.5830   63.0660 C   0  0  0  0  0  0  0  0  0  0  0  0
   42.0330   82.7390   62.6550 N   0  0  0  0  0  0  0  0  0  0  0  0
   42.6980   81.5050   61.0420 H   0  0  0  0  0  0  0  0  0  0  0  0
   39.0540   83.6240   60.4040 H   0  0  0  0  0  0  0  0  0  0  0  0
   41.0420   84.2510   64.3900 C   0  0  0  0  0  0  0  0  0  0  0  0
   40.7550   85.6050   64.2900 F   0  0  0  0  0  0  0  0  0  0  0  0
   40.1080   83.6550   65.2070 F   0  0  0  0  0  0  0  0  0  0  0  0
   42.3080   84.2160   64.9880 F   0  0  0  0  0  0  0  0  0  0  0  0
   41.6360   82.7900   55.7980 O   0  0  0  0  0  0  0  0  0  0  0  0
   43.5080   80.7680   56.1230 H   0  0  0  0  0  0  0  0  0  0  0  0
   43.7770   81.6470   55.6270 N   0  0  0  0  0  0  0  0  0  0  0  0
   42.9570   82.7110   55.4020 C   0  0  0  0  0  0  0  0  0  0  0  0
   43.7010   83.6350   54.7310 N   0  0  0  0  0  0  0  0  0  0  0  0
   44.9430   83.1250   54.5620 C   0  0  0  0  0  0  0  0  0  0  0  0
   46.0490   83.6980   53.9350 C   0  0  0  0  0  0  0  0  0  0  0  0
   47.2030   82.9990   53.8820 N   0  0  0  0  0  0  0  0  0  0  0  0
   47.2690   81.7680   54.4310 C   0  0  0  0  0  0  0  0  0  0  0  0
   48.1470   81.1360   54.4380 H   0  0  0  0  0  0  0  0  0  0  0  0
   46.1780   81.2390   55.0330 N   0  0  0  0  0  0  0  0  0  0  0  0
   45.0040   81.8700   55.1240 C   0  0  0  0  0  0  0  0  0  0  0  0
   45.9300   84.9920   53.3740 N   0  0  0  0  0  0  0  0  0  0  0  0
   45.5170   85.8750   53.7850 H   0  0  0  0  0  0  0  0  0  0  0  0
   46.1930   85.4150   52.4720 H   0  0  0  0  0  0  0  0  0  0  0  0
  2  1  1  0  0  0  0
  2  3  1  0  0  0  0
  3 12  1  0  0  0  0
  4  3  2  0  0  0  0
  4  9  1  0  0  0  0
  5  4  1  0  0  0  0
  6  8  1  0  0  0  0
  6  5  2  0  0  0  0
  7  6  1  0  0  0  0
  8  2  2  0  0  0  0
 10  5  1  0  0  0  0
 11 16  1  0  0  0  0
 12 13  1  0  0  0  0
 12 11  2  0  0  0  0
 13 14  2  0  0  0  0
 14 15  1  0  0  0  0
 15 19  1  0  0  0  0
 16 15  2  0  0  0  0
 17 11  1  0  0  0  0
 18 13  1  0  0  0  0
 19 22  1  0  0  0  0
 19 21  1  0  0  0  0
 20 19  1  0  0  0  0
 23  8  1  0  0  0  0
 25 24  1  0  0  0  0
 26 25  1  0  0  0  0
 26 23  1  0  0  0  0
 27 26  2  0  0  0  0
 28 27  1  0  0  0  0
 28 34  1  0  0  0  0
 29 28  2  0  0  0  0
 30 29  1  0  0  0  0
 30 31  2  0  0  0  0
 31 32  1  0  0  0  0
 31 33  1  0  0  0  0
 33 34  2  0  0  0  0
 34 25  1  0  0  0  0
 35 36  1  0  0  0  0
 35 29  1  0  0  0  0
 37 35  1  0  0  0  0
M  END
>  <minimizedAffinity>
-5.11547804

>  <minimizedRMSD>
0.452178091

$$$$
