
 OpenBabel03212520133D

 32 34  0  0  0  0  0  0  0  0999 V2000
   43.9150   81.1200   58.4960 Cl  0  0  0  0  0  0  0  0  0  0  0  0
   42.8520   82.2800   59.3000 C   0  0  0  0  0  0  0  0  0  0  0  0
   42.3890   83.4270   58.6820 C   0  0  0  0  0  0  0  0  0  0  0  0
   41.5680   84.2220   59.4560 C   0  0  0  0  0  0  0  0  0  0  0  0
   41.1820   83.9730   60.7620 C   0  0  0  0  0  0  0  0  0  0  0  0
   41.6630   82.8330   61.3270 C   0  0  0  0  0  0  0  0  0  0  0  0
   41.2390   82.4090   62.9890 Cl  0  0  0  0  0  0  0  0  0  0  0  0
   42.4860   81.9990   60.6050 C   0  0  0  0  0  0  0  0  0  0  0  0
   41.2000   85.1300   58.9700 H   0  0  0  0  0  0  0  0  0  0  0  0
   40.5360   84.6580   61.2830 H   0  0  0  0  0  0  0  0  0  0  0  0
   45.2000   81.9860   61.9790 Cl  0  0  0  0  0  0  0  0  0  0  0  0
   44.1590   80.5960   61.9100 C   0  0  0  0  0  0  0  0  0  0  0  0
   42.9830   80.7770   61.2560 C   0  0  0  0  0  0  0  0  0  0  0  0
   42.0540   79.7450   61.1250 C   0  0  0  0  0  0  0  0  0  0  0  0
   41.0870   79.7900   60.6220 H   0  0  0  0  0  0  0  0  0  0  0  0
   42.3140   78.4920   61.6670 C   0  0  0  0  0  3  0  0  0  0  0  0
   43.5180   78.3120   62.3340 C   0  0  0  0  0  0  0  0  0  0  0  0
   43.8990   76.7550   63.0360 Cl  0  0  0  0  0  0  0  0  0  0  0  0
   44.4290   79.3550   62.4530 C   0  0  0  0  0  0  0  0  0  0  0  0
   45.3780   79.2550   62.9640 H   0  0  0  0  0  0  0  0  0  0  0  0
   43.8060   84.5180   56.9030 C   0  0  0  0  0  0  0  0  0  0  0  0
   42.7750   83.7000   57.3400 C   0  0  0  0  0  0  0  0  0  0  0  0
   41.9950   83.0480   56.3610 C   0  0  0  0  0  0  0  0  0  0  0  0
   42.3120   83.2670   55.0580 N   0  0  0  0  0  0  0  0  0  0  0  0
   43.3190   84.0660   54.6740 C   0  0  0  0  0  0  0  0  0  0  0  0
   44.0580   84.6850   55.5950 N   0  0  0  0  0  0  0  0  0  0  0  0
   44.3710   84.9940   57.6910 H   0  0  0  0  0  0  0  0  0  0  0  0
   41.1640   82.3870   56.6230 H   0  0  0  0  0  0  0  0  0  0  0  0
   43.5170   84.1860   53.2050 C   0  0  0  0  0  0  0  0  0  0  0  0
   42.3890   83.8160   52.4940 F   0  0  0  0  0  0  0  0  0  0  0  0
   43.8380   85.4880   52.8740 F   0  0  0  0  0  0  0  0  0  0  0  0
   44.5120   83.3120   52.7630 F   0  0  0  0  0  0  0  0  0  0  0  0
  1  2  1  0  0  0  0
  2  8  1  0  0  0  0
  3  2  2  0  0  0  0
  3  4  1  0  0  0  0
  4  5  2  0  0  0  0
  5 10  1  0  0  0  0
  5  6  1  0  0  0  0
  6  7  1  0  0  0  0
  8 13  1  0  0  0  0
  8  6  2  0  0  0  0
  9  4  1  0  0  0  0
 12 11  1  0  0  0  0
 12 19  1  0  0  0  0
 13 12  2  0  0  0  0
 14 13  1  0  0  0  0
 14 16  2  0  0  0  0
 15 14  1  0  0  0  0
 16 17  1  0  0  0  0
 17 19  2  0  0  0  0
 17 18  1  0  0  0  0
 19 20  1  0  0  0  0
 21 22  1  0  0  0  0
 21 27  1  0  0  0  0
 22  3  1  0  0  0  0
 23 28  1  0  0  0  0
 23 22  2  0  0  0  0
 24 23  1  0  0  0  0
 25 24  2  0  0  0  0
 25 26  1  0  0  0  0
 26 21  2  0  0  0  0
 29 25  1  0  0  0  0
 30 29  1  0  0  0  0
 31 29  1  0  0  0  0
 32 29  1  0  0  0  0
M  END
>  <minimizedAffinity>
-4.31615686

>  <minimizedRMSD>
8.12043285

$$$$
