
 OpenBabel03212521063D

 37 40  0  0  0  0  0  0  0  0999 V2000
   41.8140   84.2510   61.5650 C   0  0  0  0  0  0  0  0  0  0  0  0
   41.4590   83.9590   62.8750 C   0  0  0  0  0  0  0  0  0  0  0  0
   40.1780   83.5380   63.2140 C   0  0  0  0  0  0  0  0  0  0  0  0
   39.2300   83.4110   62.2070 C   0  0  0  0  0  0  0  0  0  0  0  0
   39.5760   83.7030   60.8880 C   0  0  0  0  0  0  0  0  0  0  0  0
   40.8560   84.1180   60.5720 C   0  0  0  0  0  0  0  0  0  0  0  0
   42.1980   84.0590   63.6580 H   0  0  0  0  0  0  0  0  0  0  0  0
   39.9550   83.3240   64.2520 H   0  0  0  0  0  0  0  0  0  0  0  0
   38.2310   83.0890   62.4320 H   0  0  0  0  0  0  0  0  0  0  0  0
   38.8160   83.5940   60.1170 H   0  0  0  0  0  0  0  0  0  0  0  0
   45.3420   84.1420   60.6310 C   0  0  0  0  0  0  0  0  0  0  0  0
   45.7320   85.4830   60.7100 C   0  0  0  0  0  0  0  0  0  0  0  0
   44.7580   86.4260   61.0910 C   0  0  0  0  0  0  0  0  0  0  0  0
   43.5050   85.9920   61.3590 N   0  0  0  0  0  0  0  0  0  0  0  0
   43.1610   84.6830   61.2720 C   0  0  0  0  0  0  0  0  0  0  0  0
   44.0810   83.7870   60.9130 N   0  0  0  0  0  0  0  0  0  0  0  0
   46.0500   83.3600   60.3420 H   0  0  0  0  0  0  0  0  0  0  0  0
   46.7490   85.7220   60.4780 H   0  0  0  0  0  0  0  0  0  0  0  0
   45.0600   87.4620   61.1510 H   0  0  0  0  0  0  0  0  0  0  0  0
   41.1720   84.4110   59.1860 C   0  0  0  0  0  0  0  0  0  0  0  0
   40.7410   85.6820   58.8170 C   0  0  0  0  0  0  0  0  0  0  0  0
   40.9460   86.1580   57.5290 C   0  0  0  0  0  0  0  0  0  0  0  0
   41.5700   85.3480   56.6710 N   0  0  0  0  0  0  0  0  0  0  0  0
   41.9930   84.1020   57.0320 C   0  0  0  0  0  0  0  0  0  0  0  0
   41.7930   83.6410   58.2810 N   0  0  0  0  0  0  0  0  0  0  0  0
   40.2240   86.3980   59.4690 H   0  0  0  0  0  0  0  0  0  0  0  0
   40.6130   87.1560   57.2220 H   0  0  0  0  0  0  0  0  0  0  0  0
   44.9230   84.4760   56.9910 Cl  0  0  0  0  0  0  0  0  0  0  0  0
   44.0650   83.3250   55.9580 C   0  0  0  0  0  0  0  0  0  0  0  0
   42.6740   83.2380   56.0690 C   0  0  0  0  0  0  0  0  0  0  0  0
   41.9710   82.3380   55.2670 C   0  0  0  0  0  0  0  0  0  0  0  0
   40.8980   82.2630   55.3440 H   0  0  0  0  0  0  0  0  0  0  0  0
   42.7050   81.5600   54.3820 C   0  0  0  0  0  3  0  0  0  0  0  0
   44.0950   81.6460   54.2710 C   0  0  0  0  0  0  0  0  0  0  0  0
   44.9620   80.6220   53.1200 Cl  0  0  0  0  0  0  0  0  0  0  0  0
   44.7770   82.5390   55.0690 C   0  0  0  0  0  0  0  0  0  0  0  0
   45.8590   82.6260   55.0030 H   0  0  0  0  0  0  0  0  0  0  0  0
  1  2  1  0  0  0  0
  2  3  2  0  0  0  0
  2  7  1  0  0  0  0
  3  8  1  0  0  0  0
  4  9  1  0  0  0  0
  4  3  1  0  0  0  0
  5  4  2  0  0  0  0
  6  5  1  0  0  0  0
  6  1  2  0  0  0  0
 10  5  1  0  0  0  0
 11 12  2  0  0  0  0
 11 16  1  0  0  0  0
 12 13  1  0  0  0  0
 13 19  1  0  0  0  0
 13 14  2  0  0  0  0
 15 14  1  0  0  0  0
 15  1  1  0  0  0  0
 16 15  2  0  0  0  0
 17 11  1  0  0  0  0
 18 12  1  0  0  0  0
 20  6  1  0  0  0  0
 21 20  1  0  0  0  0
 21 26  1  0  0  0  0
 22 21  2  0  0  0  0
 23 24  2  0  0  0  0
 23 22  1  0  0  0  0
 24 25  1  0  0  0  0
 25 20  2  0  0  0  0
 27 22  1  0  0  0  0
 29 30  1  0  0  0  0
 29 28  1  0  0  0  0
 30 24  1  0  0  0  0
 31 32  1  0  0  0  0
 31 30  2  0  0  0  0
 33 31  1  0  0  0  0
 34 33  2  0  0  0  0
 34 36  1  0  0  0  0
 35 34  1  0  0  0  0
 36 29  2  0  0  0  0
 37 36  1  0  0  0  0
M  END
>  <minimizedAffinity>
-5.54615641

>  <minimizedRMSD>
0.852241218

$$$$
