
 OpenBabel03212520133D

 32 34  0  0  0  0  0  0  0  0999 V2000
   43.5900   83.0530   58.8710 Cl  0  0  0  0  0  0  0  0  0  0  0  0
   42.1060   82.2510   58.3430 C   0  0  0  0  0  0  0  0  0  0  0  0
   41.0300   82.0350   59.1830 C   0  0  0  0  0  0  0  0  0  0  0  0
   39.9520   81.3950   58.6070 C   0  0  0  0  0  0  0  0  0  0  0  0
   39.8630   80.9640   57.2940 C   0  0  0  0  0  0  0  0  0  0  0  0
   40.9460   81.1990   56.5060 C   0  0  0  0  0  0  0  0  0  0  0  0
   40.9490   80.6930   54.8130 Cl  0  0  0  0  0  0  0  0  0  0  0  0
   42.0520   81.8340   57.0240 C   0  0  0  0  0  0  0  0  0  0  0  0
   39.0990   81.2220   59.2690 H   0  0  0  0  0  0  0  0  0  0  0  0
   38.9750   80.4710   56.9370 H   0  0  0  0  0  0  0  0  0  0  0  0
   42.2650   84.4200   55.4360 Cl  0  0  0  0  0  0  0  0  0  0  0  0
   43.4530   83.1530   55.3600 C   0  0  0  0  0  0  0  0  0  0  0  0
   43.2010   82.0670   56.1360 C   0  0  0  0  0  0  0  0  0  0  0  0
   44.0710   80.9770   56.1710 C   0  0  0  0  0  0  0  0  0  0  0  0
   43.9590   80.0640   56.7560 H   0  0  0  0  0  0  0  0  0  0  0  0
   45.2310   80.9780   55.4040 C   0  0  0  0  0  3  0  0  0  0  0  0
   45.4840   82.0910   54.6140 C   0  0  0  0  0  0  0  0  0  0  0  0
   46.9280   82.1480   53.6290 Cl  0  0  0  0  0  0  0  0  0  0  0  0
   44.6030   83.1660   54.5950 C   0  0  0  0  0  0  0  0  0  0  0  0
   44.7650   84.0510   53.9930 H   0  0  0  0  0  0  0  0  0  0  0  0
   41.6030   81.7760   61.6260 C   0  0  0  0  0  0  0  0  0  0  0  0
   41.1030   82.4710   60.5350 C   0  0  0  0  0  0  0  0  0  0  0  0
   40.5970   83.7700   60.7620 C   0  0  0  0  0  0  0  0  0  0  0  0
   40.6370   84.2470   62.0330 N   0  0  0  0  0  0  0  0  0  0  0  0
   41.1300   83.5420   63.0640 C   0  0  0  0  0  0  0  0  0  0  0  0
   41.6090   82.3160   62.8550 N   0  0  0  0  0  0  0  0  0  0  0  0
   41.9770   80.7880   61.4000 H   0  0  0  0  0  0  0  0  0  0  0  0
   40.1850   84.3830   59.9550 H   0  0  0  0  0  0  0  0  0  0  0  0
   41.0920   84.2260   64.3840 C   0  0  0  0  0  0  0  0  0  0  0  0
   40.7800   85.5690   64.2670 F   0  0  0  0  0  0  0  0  0  0  0  0
   40.1540   83.6270   65.2010 F   0  0  0  0  0  0  0  0  0  0  0  0
   42.3490   84.2100   64.9910 F   0  0  0  0  0  0  0  0  0  0  0  0
  2  1  1  0  0  0  0
  2  3  1  0  0  0  0
  3 22  1  0  0  0  0
  4  3  2  0  0  0  0
  4  9  1  0  0  0  0
  5  4  1  0  0  0  0
  6  8  1  0  0  0  0
  6  5  2  0  0  0  0
  7  6  1  0  0  0  0
  8  2  2  0  0  0  0
 10  5  1  0  0  0  0
 12 11  1  0  0  0  0
 12 13  1  0  0  0  0
 13 14  2  0  0  0  0
 13  8  1  0  0  0  0
 14 15  1  0  0  0  0
 16 14  1  0  0  0  0
 17 16  2  0  0  0  0
 18 17  1  0  0  0  0
 19 17  1  0  0  0  0
 19 12  2  0  0  0  0
 20 19  1  0  0  0  0
 21 26  1  0  0  0  0
 22 23  1  0  0  0  0
 22 21  2  0  0  0  0
 23 24  2  0  0  0  0
 24 25  1  0  0  0  0
 25 29  1  0  0  0  0
 26 25  2  0  0  0  0
 27 21  1  0  0  0  0
 28 23  1  0  0  0  0
 29 32  1  0  0  0  0
 29 31  1  0  0  0  0
 30 29  1  0  0  0  0
M  END
>  <minimizedAffinity>
-5.00755072

>  <minimizedRMSD>
1.97099626

$$$$
