
 OpenBabel03212521083D

 37 40  0  0  0  0  0  0  0  0999 V2000
   40.4800   74.7560   57.4400 C   0  0  0  0  0  0  0  0  0  0  0  0
   39.7550   75.1720   56.3310 C   0  0  0  0  0  0  0  0  0  0  0  0
   40.2530   75.0520   55.0380 C   0  0  0  0  0  0  0  0  0  0  0  0
   41.5150   74.5000   54.8590 C   0  0  0  0  0  0  0  0  0  0  0  0
   42.2520   74.0800   55.9660 C   0  0  0  0  0  0  0  0  0  0  0  0
   41.7370   74.2080   57.2430 C   0  0  0  0  0  0  0  0  0  0  0  0
   38.7730   75.6010   56.4720 H   0  0  0  0  0  0  0  0  0  0  0  0
   39.6450   75.3920   54.2090 H   0  0  0  0  0  0  0  0  0  0  0  0
   41.9320   74.3930   53.8760 H   0  0  0  0  0  0  0  0  0  0  0  0
   43.2370   73.6510   55.8000 H   0  0  0  0  0  0  0  0  0  0  0  0
   38.5300   74.0700   60.4490 C   0  0  0  0  0  0  0  0  0  0  0  0
   38.8150   75.1670   61.2680 C   0  0  0  0  0  0  0  0  0  0  0  0
   39.6910   76.1480   60.7660 C   0  0  0  0  0  0  0  0  0  0  0  0
   40.2080   75.9830   59.5270 N   0  0  0  0  0  0  0  0  0  0  0  0
   39.9100   74.9050   58.7590 C   0  0  0  0  0  0  0  0  0  0  0  0
   39.0800   73.9740   59.2310 N   0  0  0  0  0  0  0  0  0  0  0  0
   37.8560   73.2730   60.7800 H   0  0  0  0  0  0  0  0  0  0  0  0
   38.3520   75.2040   62.2330 H   0  0  0  0  0  0  0  0  0  0  0  0
   39.9110   76.9960   61.4000 H   0  0  0  0  0  0  0  0  0  0  0  0
   42.5390   73.7570   58.3660 C   0  0  0  0  0  0  0  0  0  0  0  0
   43.5690   74.6480   58.6540 C   0  0  0  0  0  0  0  0  0  0  0  0
   44.4540   74.4030   59.6950 C   0  0  0  0  0  0  0  0  0  0  0  0
   44.2710   73.2830   60.3990 N   0  0  0  0  0  0  0  0  0  0  0  0
   43.2620   72.4090   60.1170 C   0  0  0  0  0  0  0  0  0  0  0  0
   42.4060   72.6480   59.1080 N   0  0  0  0  0  0  0  0  0  0  0  0
   43.7760   75.5840   58.1170 H   0  0  0  0  0  0  0  0  0  0  0  0
   45.2700   75.0930   59.9350 H   0  0  0  0  0  0  0  0  0  0  0  0
   41.3700   72.7320   62.3640 Cl  0  0  0  0  0  0  0  0  0  0  0  0
   42.2170   71.2220   62.0010 C   0  0  0  0  0  0  0  0  0  0  0  0
   43.0890   71.1910   60.9080 C   0  0  0  0  0  0  0  0  0  0  0  0
   43.7700   70.0140   60.6000 C   0  0  0  0  0  0  0  0  0  0  0  0
   44.4460   69.9790   59.7580 H   0  0  0  0  0  0  0  0  0  0  0  0
   43.5410   68.9110   61.4080 C   0  0  0  0  0  3  0  0  0  0  0  0
   42.6690   68.9380   62.5000 C   0  0  0  0  0  0  0  0  0  0  0  0
   42.4280   67.4910   63.4860 Cl  0  0  0  0  0  0  0  0  0  0  0  0
   42.0030   70.1090   62.7950 C   0  0  0  0  0  0  0  0  0  0  0  0
   41.3190   70.1590   63.6390 H   0  0  0  0  0  0  0  0  0  0  0  0
  1 15  1  0  0  0  0
  2  7  1  0  0  0  0
  2  1  2  0  0  0  0
  3  2  1  0  0  0  0
  4  3  2  0  0  0  0
  4  5  1  0  0  0  0
  5  6  2  0  0  0  0
  6  1  1  0  0  0  0
  6 20  1  0  0  0  0
  8  3  1  0  0  0  0
  9  4  1  0  0  0  0
 10  5  1  0  0  0  0
 11 17  1  0  0  0  0
 11 12  1  0  0  0  0
 12 18  1  0  0  0  0
 13 12  2  0  0  0  0
 13 19  1  0  0  0  0
 14 13  1  0  0  0  0
 15 16  1  0  0  0  0
 15 14  2  0  0  0  0
 16 11  2  0  0  0  0
 20 21  2  0  0  0  0
 20 25  1  0  0  0  0
 21 22  1  0  0  0  0
 22 27  1  0  0  0  0
 22 23  2  0  0  0  0
 24 23  1  0  0  0  0
 24 30  1  0  0  0  0
 25 24  2  0  0  0  0
 26 21  1  0  0  0  0
 29 28  1  0  0  0  0
 29 36  1  0  0  0  0
 30 29  2  0  0  0  0
 31 30  1  0  0  0  0
 31 33  2  0  0  0  0
 32 31  1  0  0  0  0
 33 34  1  0  0  0  0
 34 36  2  0  0  0  0
 34 35  1  0  0  0  0
 36 37  1  0  0  0  0
M  END
>  <minimizedAffinity>
-6.09454155

$$$$

 OpenBabel03212521083D

 37 40  0  0  0  0  0  0  0  0999 V2000
   42.3670   72.6240   60.3650 C   0  0  0  0  0  0  0  0  0  0  0  0
   43.0250   71.5810   61.0020 C   0  0  0  0  0  0  0  0  0  0  0  0
   42.5410   71.0120   62.1760 C   0  0  0  0  0  0  0  0  0  0  0  0
   41.3640   71.5080   62.7190 C   0  0  0  0  0  0  0  0  0  0  0  0
   40.6940   72.5560   62.0870 C   0  0  0  0  0  0  0  0  0  0  0  0
   41.1930   73.1070   60.9210 C   0  0  0  0  0  0  0  0  0  0  0  0
   43.9420   71.1950   60.5780 H   0  0  0  0  0  0  0  0  0  0  0  0
   43.0950   70.2000   62.6310 H   0  0  0  0  0  0  0  0  0  0  0  0
   40.9600   71.0940   63.6230 H   0  0  0  0  0  0  0  0  0  0  0  0
   39.7740   72.9270   62.5320 H   0  0  0  0  0  0  0  0  0  0  0  0
   43.1760   73.0430   56.8290 C   0  0  0  0  0  0  0  0  0  0  0  0
   43.9560   74.2050   56.8190 C   0  0  0  0  0  0  0  0  0  0  0  0
   44.1980   74.8410   58.0510 C   0  0  0  0  0  0  0  0  0  0  0  0
   43.6700   74.3020   59.1740 N   0  0  0  0  0  0  0  0  0  0  0  0
   42.9180   73.1740   59.1480 C   0  0  0  0  0  0  0  0  0  0  0  0
   42.6870   72.5680   57.9820 N   0  0  0  0  0  0  0  0  0  0  0  0
   42.9520   72.5010   55.9060 H   0  0  0  0  0  0  0  0  0  0  0  0
   44.3270   74.5490   55.8750 H   0  0  0  0  0  0  0  0  0  0  0  0
   44.8000   75.7390   58.0420 H   0  0  0  0  0  0  0  0  0  0  0  0
   40.4640   74.1950   60.2970 C   0  0  0  0  0  0  0  0  0  0  0  0
   40.4140   75.3190   61.1170 C   0  0  0  0  0  0  0  0  0  0  0  0
   39.7610   76.4730   60.7060 C   0  0  0  0  0  0  0  0  0  0  0  0
   39.1900   76.4540   59.5000 N   0  0  0  0  0  0  0  0  0  0  0  0
   39.2390   75.3530   58.6950 C   0  0  0  0  0  0  0  0  0  0  0  0
   39.8720   74.2350   59.0940 N   0  0  0  0  0  0  0  0  0  0  0  0
   40.8600   75.4020   62.1170 H   0  0  0  0  0  0  0  0  0  0  0  0
   39.7130   77.3650   61.3400 H   0  0  0  0  0  0  0  0  0  0  0  0
   41.0290   76.2930   56.5400 Cl  0  0  0  0  0  0  0  0  0  0  0  0
   39.3530   75.7920   56.2780 C   0  0  0  0  0  0  0  0  0  0  0  0
   38.6030   75.3650   57.3780 C   0  0  0  0  0  0  0  0  0  0  0  0
   37.2800   74.9650   57.2000 C   0  0  0  0  0  0  0  0  0  0  0  0
   36.6910   74.6330   58.0420 H   0  0  0  0  0  0  0  0  0  0  0  0
   36.7640   75.0110   55.9130 C   0  0  0  0  0  3  0  0  0  0  0  0
   37.5110   75.4370   54.8110 C   0  0  0  0  0  0  0  0  0  0  0  0
   36.7860   75.4690   53.2000 Cl  0  0  0  0  0  0  0  0  0  0  0  0
   38.8190   75.8300   55.0020 C   0  0  0  0  0  0  0  0  0  0  0  0
   39.4230   76.1670   54.1620 H   0  0  0  0  0  0  0  0  0  0  0  0
  1  6  2  0  0  0  0
  1  2  1  0  0  0  0
  2  3  2  0  0  0  0
  3  8  1  0  0  0  0
  3  4  1  0  0  0  0
  4  9  1  0  0  0  0
  5 10  1  0  0  0  0
  5  4  2  0  0  0  0
  6  5  1  0  0  0  0
  7  2  1  0  0  0  0
 11 16  1  0  0  0  0
 12 11  2  0  0  0  0
 12 13  1  0  0  0  0
 13 14  2  0  0  0  0
 15 14  1  0  0  0  0
 15  1  1  0  0  0  0
 16 15  2  0  0  0  0
 17 11  1  0  0  0  0
 18 12  1  0  0  0  0
 19 13  1  0  0  0  0
 20  6  1  0  0  0  0
 20 21  1  0  0  0  0
 21 26  1  0  0  0  0
 22 21  2  0  0  0  0
 22 27  1  0  0  0  0
 23 22  1  0  0  0  0
 24 25  1  0  0  0  0
 24 23  2  0  0  0  0
 25 20  2  0  0  0  0
 29 28  1  0  0  0  0
 29 30  1  0  0  0  0
 30 24  1  0  0  0  0
 31 30  2  0  0  0  0
 31 32  1  0  0  0  0
 33 31  1  0  0  0  0
 34 36  1  0  0  0  0
 34 33  2  0  0  0  0
 35 34  1  0  0  0  0
 36 29  2  0  0  0  0
 37 36  1  0  0  0  0
M  END
>  <minimizedAffinity>
-6.04572725

$$$$

 OpenBabel03212521083D

 37 40  0  0  0  0  0  0  0  0999 V2000
   38.9310   74.9200   55.3020 C   0  0  0  0  0  0  0  0  0  0  0  0
   38.2460   74.8370   54.0980 C   0  0  0  0  0  0  0  0  0  0  0  0
   37.0540   75.5200   53.8790 C   0  0  0  0  0  0  0  0  0  0  0  0
   36.5420   76.3080   54.9010 C   0  0  0  0  0  0  0  0  0  0  0  0
   37.2220   76.3990   56.1160 C   0  0  0  0  0  0  0  0  0  0  0  0
   38.4060   75.7110   56.3120 C   0  0  0  0  0  0  0  0  0  0  0  0
   38.6460   74.2230   53.3030 H   0  0  0  0  0  0  0  0  0  0  0  0
   36.5610   75.4190   52.9210 H   0  0  0  0  0  0  0  0  0  0  0  0
   35.6250   76.8500   54.7690 H   0  0  0  0  0  0  0  0  0  0  0  0
   36.8010   77.0230   56.9010 H   0  0  0  0  0  0  0  0  0  0  0  0
   41.2480   72.1680   55.9240 C   0  0  0  0  0  0  0  0  0  0  0  0
   42.5020   72.7740   55.7940 C   0  0  0  0  0  0  0  0  0  0  0  0
   42.5350   74.1470   55.4870 C   0  0  0  0  0  0  0  0  0  0  0  0
   41.3640   74.8080   55.3370 N   0  0  0  0  0  0  0  0  0  0  0  0
   40.1650   74.1880   55.4710 C   0  0  0  0  0  0  0  0  0  0  0  0
   40.1290   72.8870   55.7610 N   0  0  0  0  0  0  0  0  0  0  0  0
   41.1520   71.1040   56.1620 H   0  0  0  0  0  0  0  0  0  0  0  0
   43.3690   72.1620   55.9330 H   0  0  0  0  0  0  0  0  0  0  0  0
   43.5050   74.6150   55.3860 H   0  0  0  0  0  0  0  0  0  0  0  0
   39.0800   75.8350   57.5910 C   0  0  0  0  0  0  0  0  0  0  0  0
   39.1950   77.1660   57.9850 C   0  0  0  0  0  0  0  0  0  0  0  0
   39.8110   77.5030   59.1830 C   0  0  0  0  0  0  0  0  0  0  0  0
   40.2810   76.5020   59.9300 N   0  0  0  0  0  0  0  0  0  0  0  0
   40.1680   75.1980   59.5450 C   0  0  0  0  0  0  0  0  0  0  0  0
   39.5710   74.8720   58.3840 N   0  0  0  0  0  0  0  0  0  0  0  0
   38.8320   78.0350   57.4210 H   0  0  0  0  0  0  0  0  0  0  0  0
   39.9100   78.5440   59.5070 H   0  0  0  0  0  0  0  0  0  0  0  0
   43.0270   74.6270   59.0630 Cl  0  0  0  0  0  0  0  0  0  0  0  0
   42.0380   73.7630   60.2480 C   0  0  0  0  0  0  0  0  0  0  0  0
   40.6930   74.1240   60.3860 C   0  0  0  0  0  0  0  0  0  0  0  0
   39.8910   73.4590   61.3120 C   0  0  0  0  0  0  0  0  0  0  0  0
   38.8520   73.7290   61.4270 H   0  0  0  0  0  0  0  0  0  0  0  0
   40.4790   72.4530   62.0650 C   0  0  0  0  0  3  0  0  0  0  0  0
   41.8220   72.0910   61.9290 C   0  0  0  0  0  0  0  0  0  0  0  0
   42.5020   70.7980   62.9240 Cl  0  0  0  0  0  0  0  0  0  0  0  0
   42.6040   72.7560   61.0090 C   0  0  0  0  0  0  0  0  0  0  0  0
   43.6530   72.4940   60.8830 H   0  0  0  0  0  0  0  0  0  0  0  0
  1 15  1  0  0  0  0
  1  6  1  0  0  0  0
  2  1  2  0  0  0  0
  3  2  1  0  0  0  0
  3  4  2  0  0  0  0
  4  5  1  0  0  0  0
  5  6  2  0  0  0  0
  5 10  1  0  0  0  0
  6 20  1  0  0  0  0
  7  2  1  0  0  0  0
  8  3  1  0  0  0  0
  9  4  1  0  0  0  0
 11 17  1  0  0  0  0
 12 11  1  0  0  0  0
 12 18  1  0  0  0  0
 13 12  2  0  0  0  0
 14 15  2  0  0  0  0
 14 13  1  0  0  0  0
 15 16  1  0  0  0  0
 16 11  2  0  0  0  0
 19 13  1  0  0  0  0
 20 21  2  0  0  0  0
 20 25  1  0  0  0  0
 21 22  1  0  0  0  0
 22 27  1  0  0  0  0
 22 23  2  0  0  0  0
 24 23  1  0  0  0  0
 24 30  1  0  0  0  0
 25 24  2  0  0  0  0
 26 21  1  0  0  0  0
 28 29  1  0  0  0  0
 29 30  2  0  0  0  0
 29 36  1  0  0  0  0
 30 31  1  0  0  0  0
 31 32  1  0  0  0  0
 31 33  2  0  0  0  0
 34 33  1  0  0  0  0
 34 35  1  0  0  0  0
 36 34  2  0  0  0  0
 37 36  1  0  0  0  0
M  END
>  <minimizedAffinity>
-6.00333118

$$$$

 OpenBabel03212521083D

 37 40  0  0  0  0  0  0  0  0999 V2000
   38.1540   75.2620   56.8020 C   0  0  0  0  0  0  0  0  0  0  0  0
   37.0420   75.9590   56.3480 C   0  0  0  0  0  0  0  0  0  0  0  0
   36.6840   75.9800   55.0040 C   0  0  0  0  0  0  0  0  0  0  0  0
   37.4670   75.2810   54.0950 C   0  0  0  0  0  0  0  0  0  0  0  0
   38.5870   74.5780   54.5400 C   0  0  0  0  0  0  0  0  0  0  0  0
   38.9250   74.5700   55.8810 C   0  0  0  0  0  0  0  0  0  0  0  0
   36.4320   76.5030   57.0570 H   0  0  0  0  0  0  0  0  0  0  0  0
   35.8060   76.5400   54.7050 H   0  0  0  0  0  0  0  0  0  0  0  0
   37.2220   75.2750   53.0500 H   0  0  0  0  0  0  0  0  0  0  0  0
   39.1840   74.0380   53.8090 H   0  0  0  0  0  0  0  0  0  0  0  0
   39.5090   76.3370   60.0170 C   0  0  0  0  0  0  0  0  0  0  0  0
   39.0980   75.3230   60.8880 C   0  0  0  0  0  0  0  0  0  0  0  0
   38.3450   74.2630   60.3490 C   0  0  0  0  0  0  0  0  0  0  0  0
   38.0600   74.2760   59.0270 N   0  0  0  0  0  0  0  0  0  0  0  0
   38.4750   75.2760   58.2100 C   0  0  0  0  0  0  0  0  0  0  0  0
   39.1890   76.2820   58.7170 N   0  0  0  0  0  0  0  0  0  0  0  0
   40.0970   77.1880   60.3720 H   0  0  0  0  0  0  0  0  0  0  0  0
   39.3760   75.4060   61.9190 H   0  0  0  0  0  0  0  0  0  0  0  0
   38.0270   73.4800   61.0240 H   0  0  0  0  0  0  0  0  0  0  0  0
   40.0970   73.8250   56.3000 C   0  0  0  0  0  0  0  0  0  0  0  0
   41.2640   74.5690   56.1420 C   0  0  0  0  0  0  0  0  0  0  0  0
   42.5000   74.0380   56.4850 C   0  0  0  0  0  0  0  0  0  0  0  0
   42.5160   72.7940   56.9680 N   0  0  0  0  0  0  0  0  0  0  0  0
   41.3740   72.0650   57.1240 C   0  0  0  0  0  0  0  0  0  0  0  0
   40.1770   72.5800   56.7910 N   0  0  0  0  0  0  0  0  0  0  0  0
   41.3220   75.5940   55.7510 H   0  0  0  0  0  0  0  0  0  0  0  0
   43.4260   74.6100   56.3660 H   0  0  0  0  0  0  0  0  0  0  0  0
   41.4290   71.9660   60.0760 Cl  0  0  0  0  0  0  0  0  0  0  0  0
   41.4570   70.5300   59.0440 C   0  0  0  0  0  0  0  0  0  0  0  0
   41.4260   70.7040   57.6570 C   0  0  0  0  0  0  0  0  0  0  0  0
   41.4470   69.5890   56.8190 C   0  0  0  0  0  0  0  0  0  0  0  0
   41.4240   69.7120   55.7470 H   0  0  0  0  0  0  0  0  0  0  0  0
   41.4970   68.3390   57.4180 C   0  0  0  0  0  3  0  0  0  0  0  0
   41.5270   68.1620   58.8040 C   0  0  0  0  0  0  0  0  0  0  0  0
   41.5910   66.5370   59.4950 Cl  0  0  0  0  0  0  0  0  0  0  0  0
   41.5070   69.2730   59.6200 C   0  0  0  0  0  0  0  0  0  0  0  0
   41.5300   69.1640   60.7030 H   0  0  0  0  0  0  0  0  0  0  0  0
  1 15  1  0  0  0  0
  2  1  1  0  0  0  0
  2  7  1  0  0  0  0
  3  2  2  0  0  0  0
  4  5  2  0  0  0  0
  4  3  1  0  0  0  0
  5  6  1  0  0  0  0
  6 20  1  0  0  0  0
  6  1  2  0  0  0  0
  8  3  1  0  0  0  0
  9  4  1  0  0  0  0
 10  5  1  0  0  0  0
 11 17  1  0  0  0  0
 11 12  1  0  0  0  0
 12 18  1  0  0  0  0
 13 12  2  0  0  0  0
 13 19  1  0  0  0  0
 14 13  1  0  0  0  0
 15 16  1  0  0  0  0
 15 14  2  0  0  0  0
 16 11  2  0  0  0  0
 20 25  1  0  0  0  0
 21 20  2  0  0  0  0
 21 22  1  0  0  0  0
 22 23  2  0  0  0  0
 23 24  1  0  0  0  0
 24 30  1  0  0  0  0
 25 24  2  0  0  0  0
 26 21  1  0  0  0  0
 27 22  1  0  0  0  0
 29 36  1  0  0  0  0
 29 28  1  0  0  0  0
 30 29  2  0  0  0  0
 31 33  2  0  0  0  0
 31 30  1  0  0  0  0
 32 31  1  0  0  0  0
 33 34  1  0  0  0  0
 34 35  1  0  0  0  0
 34 36  2  0  0  0  0
 36 37  1  0  0  0  0
M  END
>  <minimizedAffinity>
-5.95170116

$$$$

 OpenBabel03212521083D

 37 40  0  0  0  0  0  0  0  0999 V2000
   42.1410   70.0210   60.7100 C   0  0  0  0  0  0  0  0  0  0  0  0
   42.0360   68.8830   61.4990 C   0  0  0  0  0  0  0  0  0  0  0  0
   41.8600   68.9570   62.8770 C   0  0  0  0  0  0  0  0  0  0  0  0
   41.7880   70.2090   63.4730 C   0  0  0  0  0  0  0  0  0  0  0  0
   41.8930   71.3590   62.6890 C   0  0  0  0  0  0  0  0  0  0  0  0
   42.0670   71.2620   61.3200 C   0  0  0  0  0  0  0  0  0  0  0  0
   42.0920   67.9090   61.0340 H   0  0  0  0  0  0  0  0  0  0  0  0
   41.7850   68.0390   63.4450 H   0  0  0  0  0  0  0  0  0  0  0  0
   41.6530   70.3050   64.5330 H   0  0  0  0  0  0  0  0  0  0  0  0
   41.8330   72.3270   63.1790 H   0  0  0  0  0  0  0  0  0  0  0  0
   41.3780   69.6530   57.1580 C   0  0  0  0  0  0  0  0  0  0  0  0
   42.6440   69.6170   56.5650 C   0  0  0  0  0  0  0  0  0  0  0  0
   43.7650   69.7210   57.4090 C   0  0  0  0  0  0  0  0  0  0  0  0
   43.5650   69.8490   58.7410 N   0  0  0  0  0  0  0  0  0  0  0  0
   42.3220   69.8810   59.2830 C   0  0  0  0  0  0  0  0  0  0  0  0
   41.2570   69.7820   58.4860 N   0  0  0  0  0  0  0  0  0  0  0  0
   40.4670   69.5760   56.5580 H   0  0  0  0  0  0  0  0  0  0  0  0
   42.6940   69.5120   55.5000 H   0  0  0  0  0  0  0  0  0  0  0  0
   44.7440   69.6930   56.9500 H   0  0  0  0  0  0  0  0  0  0  0  0
   42.1700   72.4840   60.5440 C   0  0  0  0  0  0  0  0  0  0  0  0
   43.4420   73.0430   60.6290 C   0  0  0  0  0  0  0  0  0  0  0  0
   43.7510   74.2180   59.9570 C   0  0  0  0  0  0  0  0  0  0  0  0
   42.7810   74.7790   59.2330 N   0  0  0  0  0  0  0  0  0  0  0  0
   41.5340   74.2320   59.1490 C   0  0  0  0  0  0  0  0  0  0  0  0
   41.2360   73.0940   59.8000 N   0  0  0  0  0  0  0  0  0  0  0  0
   44.2840   72.6350   61.2050 H   0  0  0  0  0  0  0  0  0  0  0  0
   44.7470   74.6700   60.0150 H   0  0  0  0  0  0  0  0  0  0  0  0
   39.9970   76.2690   60.6380 Cl  0  0  0  0  0  0  0  0  0  0  0  0
   39.6970   75.8550   58.9450 C   0  0  0  0  0  0  0  0  0  0  0  0
   40.4920   74.8720   58.3470 C   0  0  0  0  0  0  0  0  0  0  0  0
   40.2770   74.5260   57.0130 C   0  0  0  0  0  0  0  0  0  0  0  0
   40.8850   73.7690   56.5410 H   0  0  0  0  0  0  0  0  0  0  0  0
   39.2650   75.1880   56.3340 C   0  0  0  0  0  3  0  0  0  0  0  0
   38.4690   76.1710   56.9290 C   0  0  0  0  0  0  0  0  0  0  0  0
   37.1970   76.9720   56.0000 Cl  0  0  0  0  0  0  0  0  0  0  0  0
   38.6920   76.5030   58.2490 C   0  0  0  0  0  0  0  0  0  0  0  0
   38.0870   77.2650   58.7370 H   0  0  0  0  0  0  0  0  0  0  0  0
  1  6  2  0  0  0  0
  1  2  1  0  0  0  0
  2  3  2  0  0  0  0
  3  8  1  0  0  0  0
  3  4  1  0  0  0  0
  4  9  1  0  0  0  0
  5 10  1  0  0  0  0
  5  4  2  0  0  0  0
  6  5  1  0  0  0  0
  7  2  1  0  0  0  0
 11 16  1  0  0  0  0
 12 11  2  0  0  0  0
 12 13  1  0  0  0  0
 13 14  2  0  0  0  0
 14 15  1  0  0  0  0
 15  1  1  0  0  0  0
 16 15  2  0  0  0  0
 17 11  1  0  0  0  0
 18 12  1  0  0  0  0
 19 13  1  0  0  0  0
 20 21  1  0  0  0  0
 20  6  1  0  0  0  0
 21 26  1  0  0  0  0
 22 27  1  0  0  0  0
 22 21  2  0  0  0  0
 23 22  1  0  0  0  0
 24 23  2  0  0  0  0
 24 25  1  0  0  0  0
 25 20  2  0  0  0  0
 29 28  1  0  0  0  0
 30 29  1  0  0  0  0
 30 24  1  0  0  0  0
 31 30  2  0  0  0  0
 32 31  1  0  0  0  0
 33 34  2  0  0  0  0
 33 31  1  0  0  0  0
 34 36  1  0  0  0  0
 35 34  1  0  0  0  0
 36 37  1  0  0  0  0
 36 29  2  0  0  0  0
M  END
>  <minimizedAffinity>
-5.84200287

$$$$

 OpenBabel03212521083D

 37 40  0  0  0  0  0  0  0  0999 V2000
   42.3850   75.5740   59.2210 C   0  0  0  0  0  0  0  0  0  0  0  0
   42.3570   76.9380   59.4780 C   0  0  0  0  0  0  0  0  0  0  0  0
   41.2070   77.5790   59.9250 C   0  0  0  0  0  0  0  0  0  0  0  0
   40.0570   76.8260   60.1190 C   0  0  0  0  0  0  0  0  0  0  0  0
   40.0740   75.4550   59.8630 C   0  0  0  0  0  0  0  0  0  0  0  0
   41.2290   74.8370   59.4190 C   0  0  0  0  0  0  0  0  0  0  0  0
   43.2540   77.5230   59.3270 H   0  0  0  0  0  0  0  0  0  0  0  0
   41.2410   78.6460   60.1100 H   0  0  0  0  0  0  0  0  0  0  0  0
   39.1510   77.2870   60.4630 H   0  0  0  0  0  0  0  0  0  0  0  0
   39.1610   74.8860   60.0230 H   0  0  0  0  0  0  0  0  0  0  0  0
   45.5960   73.8360   59.2520 C   0  0  0  0  0  0  0  0  0  0  0  0
   45.9460   73.7930   57.8980 C   0  0  0  0  0  0  0  0  0  0  0  0
   45.0560   74.3720   56.9740 C   0  0  0  0  0  0  0  0  0  0  0  0
   43.9180   74.9390   57.4370 N   0  0  0  0  0  0  0  0  0  0  0  0
   43.6100   74.9630   58.7580 C   0  0  0  0  0  0  0  0  0  0  0  0
   44.4500   74.4150   59.6360 N   0  0  0  0  0  0  0  0  0  0  0  0
   46.2440   73.4040   60.0200 H   0  0  0  0  0  0  0  0  0  0  0  0
   46.8700   73.3210   57.6360 H   0  0  0  0  0  0  0  0  0  0  0  0
   45.3270   74.3380   55.9280 H   0  0  0  0  0  0  0  0  0  0  0  0
   41.2010   73.4080   59.1660 C   0  0  0  0  0  0  0  0  0  0  0  0
   40.5720   73.1100   57.9610 C   0  0  0  0  0  0  0  0  0  0  0  0
   40.4400   71.7960   57.5310 C   0  0  0  0  0  0  0  0  0  0  0  0
   40.9410   70.8430   58.3210 N   0  0  0  0  0  0  0  0  0  0  0  0
   41.5570   71.1350   59.5020 C   0  0  0  0  0  0  0  0  0  0  0  0
   41.6850   72.4080   59.9170 N   0  0  0  0  0  0  0  0  0  0  0  0
   40.1390   73.8420   57.2660 H   0  0  0  0  0  0  0  0  0  0  0  0
   39.9470   71.5450   56.5860 H   0  0  0  0  0  0  0  0  0  0  0  0
   40.6800   68.4370   58.6740 Cl  0  0  0  0  0  0  0  0  0  0  0  0
   41.7490   68.7450   60.0500 C   0  0  0  0  0  0  0  0  0  0  0  0
   42.0960   70.0670   60.3440 C   0  0  0  0  0  0  0  0  0  0  0  0
   42.9360   70.3380   61.4240 C   0  0  0  0  0  0  0  0  0  0  0  0
   43.2100   71.3550   61.6600 H   0  0  0  0  0  0  0  0  0  0  0  0
   43.3950   69.2600   62.1650 C   0  0  0  0  0  3  0  0  0  0  0  0
   43.0510   67.9370   61.8720 C   0  0  0  0  0  0  0  0  0  0  0  0
   43.6760   66.6130   62.8620 Cl  0  0  0  0  0  0  0  0  0  0  0  0
   42.2190   67.6830   60.8030 C   0  0  0  0  0  0  0  0  0  0  0  0
   41.9340   66.6630   60.5530 H   0  0  0  0  0  0  0  0  0  0  0  0
  1  6  2  0  0  0  0
  1  2  1  0  0  0  0
  2  3  2  0  0  0  0
  3  8  1  0  0  0  0
  3  4  1  0  0  0  0
  4  9  1  0  0  0  0
  5 10  1  0  0  0  0
  5  4  2  0  0  0  0
  6  5  1  0  0  0  0
  7  2  1  0  0  0  0
 11 16  1  0  0  0  0
 11 17  1  0  0  0  0
 12 11  2  0  0  0  0
 13 14  2  0  0  0  0
 13 12  1  0  0  0  0
 14 15  1  0  0  0  0
 15  1  1  0  0  0  0
 15 16  2  0  0  0  0
 18 12  1  0  0  0  0
 19 13  1  0  0  0  0
 20  6  1  0  0  0  0
 20 25  1  0  0  0  0
 21 20  2  0  0  0  0
 22 21  1  0  0  0  0
 22 23  2  0  0  0  0
 23 24  1  0  0  0  0
 24 25  2  0  0  0  0
 24 30  1  0  0  0  0
 26 21  1  0  0  0  0
 27 22  1  0  0  0  0
 28 29  1  0  0  0  0
 29 30  2  0  0  0  0
 29 36  1  0  0  0  0
 30 31  1  0  0  0  0
 31 32  1  0  0  0  0
 31 33  2  0  0  0  0
 34 33  1  0  0  0  0
 34 35  1  0  0  0  0
 36 34  2  0  0  0  0
 37 36  1  0  0  0  0
M  END
>  <minimizedAffinity>
-5.81257772

$$$$

 OpenBabel03212521083D

 37 40  0  0  0  0  0  0  0  0999 V2000
   42.1310   67.5740   59.5510 C   0  0  0  0  0  0  0  0  0  0  0  0
   42.0940   66.2500   59.9700 C   0  0  0  0  0  0  0  0  0  0  0  0
   41.8940   65.9050   61.3020 C   0  0  0  0  0  0  0  0  0  0  0  0
   41.7260   66.9190   62.2350 C   0  0  0  0  0  0  0  0  0  0  0  0
   41.7620   68.2530   61.8260 C   0  0  0  0  0  0  0  0  0  0  0  0
   41.9620   68.5740   60.4960 C   0  0  0  0  0  0  0  0  0  0  0  0
   42.2250   65.4610   59.2420 H   0  0  0  0  0  0  0  0  0  0  0  0
   41.8740   64.8570   61.5740 H   0  0  0  0  0  0  0  0  0  0  0  0
   41.5700   66.6910   63.2720 H   0  0  0  0  0  0  0  0  0  0  0  0
   41.6280   69.0290   62.5750 H   0  0  0  0  0  0  0  0  0  0  0  0
   41.4450   68.2570   56.0310 C   0  0  0  0  0  0  0  0  0  0  0  0
   42.7220   68.4390   55.4890 C   0  0  0  0  0  0  0  0  0  0  0  0
   43.8230   68.3230   56.3580 C   0  0  0  0  0  0  0  0  0  0  0  0
   43.5950   68.0420   57.6620 N   0  0  0  0  0  0  0  0  0  0  0  0
   42.3420   67.8720   58.1540 C   0  0  0  0  0  0  0  0  0  0  0  0
   41.2960   67.9810   57.3340 N   0  0  0  0  0  0  0  0  0  0  0  0
   40.5480   68.3330   55.4100 H   0  0  0  0  0  0  0  0  0  0  0  0
   42.7940   68.6580   54.4440 H   0  0  0  0  0  0  0  0  0  0  0  0
   44.8100   68.4640   55.9380 H   0  0  0  0  0  0  0  0  0  0  0  0
   41.9920   69.9740   60.1140 C   0  0  0  0  0  0  0  0  0  0  0  0
   43.2020   70.5740   60.4500 C   0  0  0  0  0  0  0  0  0  0  0  0
   43.4360   71.9140   60.1710 C   0  0  0  0  0  0  0  0  0  0  0  0
   42.4550   72.5910   59.5700 N   0  0  0  0  0  0  0  0  0  0  0  0
   41.2680   72.0030   59.2400 C   0  0  0  0  0  0  0  0  0  0  0  0
   41.0440   70.7050   59.5110 N   0  0  0  0  0  0  0  0  0  0  0  0
   44.0480   70.0770   60.9440 H   0  0  0  0  0  0  0  0  0  0  0  0
   44.3820   72.4010   60.4290 H   0  0  0  0  0  0  0  0  0  0  0  0
   39.3650   73.2360   61.1340 Cl  0  0  0  0  0  0  0  0  0  0  0  0
   39.2510   73.4040   59.3770 C   0  0  0  0  0  0  0  0  0  0  0  0
   40.2130   72.7730   58.5820 C   0  0  0  0  0  0  0  0  0  0  0  0
   40.1470   72.8880   57.1940 C   0  0  0  0  0  0  0  0  0  0  0  0
   40.8850   72.4060   56.5700 H   0  0  0  0  0  0  0  0  0  0  0  0
   39.1090   73.6400   56.6620 C   0  0  0  0  0  3  0  0  0  0  0  0
   38.1470   74.2710   57.4540 C   0  0  0  0  0  0  0  0  0  0  0  0
   36.8520   75.2120   56.7050 Cl  0  0  0  0  0  0  0  0  0  0  0  0
   38.2240   74.1480   58.8260 C   0  0  0  0  0  0  0  0  0  0  0  0
   37.4870   74.6290   59.4660 H   0  0  0  0  0  0  0  0  0  0  0  0
  1  2  2  0  0  0  0
  1  6  1  0  0  0  0
  2  3  1  0  0  0  0
  3  8  1  0  0  0  0
  3  4  2  0  0  0  0
  4  9  1  0  0  0  0
  5  4  1  0  0  0  0
  5 10  1  0  0  0  0
  6  5  2  0  0  0  0
  7  2  1  0  0  0  0
 11 16  1  0  0  0  0
 12 11  2  0  0  0  0
 12 13  1  0  0  0  0
 13 14  2  0  0  0  0
 14 15  1  0  0  0  0
 15  1  1  0  0  0  0
 16 15  2  0  0  0  0
 17 11  1  0  0  0  0
 18 12  1  0  0  0  0
 19 13  1  0  0  0  0
 20 21  1  0  0  0  0
 20  6  1  0  0  0  0
 21 26  1  0  0  0  0
 22 27  1  0  0  0  0
 22 21  2  0  0  0  0
 23 22  1  0  0  0  0
 24 25  1  0  0  0  0
 24 23  2  0  0  0  0
 25 20  2  0  0  0  0
 29 28  1  0  0  0  0
 30 24  1  0  0  0  0
 30 29  2  0  0  0  0
 31 30  1  0  0  0  0
 32 31  1  0  0  0  0
 33 31  2  0  0  0  0
 33 34  1  0  0  0  0
 34 36  2  0  0  0  0
 35 34  1  0  0  0  0
 36 29  1  0  0  0  0
 36 37  1  0  0  0  0
M  END
>  <minimizedAffinity>
-5.73756123

$$$$

 OpenBabel03212521083D

 37 40  0  0  0  0  0  0  0  0999 V2000
   41.0740   74.6270   59.8870 C   0  0  0  0  0  0  0  0  0  0  0  0
   40.6280   75.8720   60.3100 C   0  0  0  0  0  0  0  0  0  0  0  0
   39.4040   76.0380   60.9490 C   0  0  0  0  0  0  0  0  0  0  0  0
   38.6100   74.9200   61.1660 C   0  0  0  0  0  0  0  0  0  0  0  0
   39.0470   73.6640   60.7450 C   0  0  0  0  0  0  0  0  0  0  0  0
   40.2690   73.5220   60.1120 C   0  0  0  0  0  0  0  0  0  0  0  0
   41.2480   76.7420   60.1400 H   0  0  0  0  0  0  0  0  0  0  0  0
   39.1050   77.0310   61.2590 H   0  0  0  0  0  0  0  0  0  0  0  0
   37.6590   75.0090   61.6560 H   0  0  0  0  0  0  0  0  0  0  0  0
   38.4080   72.8040   60.9270 H   0  0  0  0  0  0  0  0  0  0  0  0
   43.6140   74.6360   57.2640 C   0  0  0  0  0  0  0  0  0  0  0  0
   44.7850   74.3130   57.9570 C   0  0  0  0  0  0  0  0  0  0  0  0
   44.6850   74.0930   59.3440 C   0  0  0  0  0  0  0  0  0  0  0  0
   43.4710   74.2020   59.9320 N   0  0  0  0  0  0  0  0  0  0  0  0
   42.3550   74.5170   59.2290 C   0  0  0  0  0  0  0  0  0  0  0  0
   42.4460   74.7260   57.9150 N   0  0  0  0  0  0  0  0  0  0  0  0
   43.6230   74.8180   56.1860 H   0  0  0  0  0  0  0  0  0  0  0  0
   45.6960   74.2510   57.3980 H   0  0  0  0  0  0  0  0  0  0  0  0
   45.5910   73.8440   59.8790 H   0  0  0  0  0  0  0  0  0  0  0  0
   40.6850   72.1970   59.6910 C   0  0  0  0  0  0  0  0  0  0  0  0
   40.1740   71.8710   58.4370 C   0  0  0  0  0  0  0  0  0  0  0  0
   40.4540   70.6440   57.8500 C   0  0  0  0  0  0  0  0  0  0  0  0
   41.2290   69.8020   58.5380 N   0  0  0  0  0  0  0  0  0  0  0  0
   41.7300   70.1210   59.7660 C   0  0  0  0  0  0  0  0  0  0  0  0
   41.4580   71.3100   60.3340 N   0  0  0  0  0  0  0  0  0  0  0  0
   39.5330   72.5140   57.8190 H   0  0  0  0  0  0  0  0  0  0  0  0
   40.0600   70.3720   56.8650 H   0  0  0  0  0  0  0  0  0  0  0  0
   44.5940   70.3450   59.0770 Cl  0  0  0  0  0  0  0  0  0  0  0  0
   43.9530   69.1860   60.2500 C   0  0  0  0  0  0  0  0  0  0  0  0
   42.5760   69.1760   60.4940 C   0  0  0  0  0  0  0  0  0  0  0  0
   42.0430   68.2730   61.4130 C   0  0  0  0  0  0  0  0  0  0  0  0
   40.9810   68.2560   61.6090 H   0  0  0  0  0  0  0  0  0  0  0  0
   42.9250   67.4150   62.0540 C   0  0  0  0  0  3  0  0  0  0  0  0
   44.3010   67.4240   61.8130 C   0  0  0  0  0  0  0  0  0  0  0  0
   45.3640   66.3000   62.6680 Cl  0  0  0  0  0  0  0  0  0  0  0  0
   44.8150   68.3220   60.9000 C   0  0  0  0  0  0  0  0  0  0  0  0
   45.8830   68.3500   60.6940 H   0  0  0  0  0  0  0  0  0  0  0  0
  1  6  2  0  0  0  0
  1  2  1  0  0  0  0
  2  3  2  0  0  0  0
  3  4  1  0  0  0  0
  3  8  1  0  0  0  0
  4  9  1  0  0  0  0
  5 10  1  0  0  0  0
  5  4  2  0  0  0  0
  6  5  1  0  0  0  0
  7  2  1  0  0  0  0
 11 16  2  0  0  0  0
 11 12  1  0  0  0  0
 12 13  2  0  0  0  0
 13 19  1  0  0  0  0
 13 14  1  0  0  0  0
 15  1  1  0  0  0  0
 15 14  2  0  0  0  0
 16 15  1  0  0  0  0
 17 11  1  0  0  0  0
 18 12  1  0  0  0  0
 20  6  1  0  0  0  0
 20 25  1  0  0  0  0
 21 20  2  0  0  0  0
 22 21  1  0  0  0  0
 22 23  2  0  0  0  0
 23 24  1  0  0  0  0
 24 25  2  0  0  0  0
 24 30  1  0  0  0  0
 26 21  1  0  0  0  0
 27 22  1  0  0  0  0
 28 29  1  0  0  0  0
 29 30  2  0  0  0  0
 29 36  1  0  0  0  0
 30 31  1  0  0  0  0
 31 32  1  0  0  0  0
 31 33  2  0  0  0  0
 34 33  1  0  0  0  0
 34 35  1  0  0  0  0
 36 34  2  0  0  0  0
 37 36  1  0  0  0  0
M  END
>  <minimizedAffinity>
-5.72473764

$$$$

 OpenBabel03212521083D

 37 40  0  0  0  0  0  0  0  0999 V2000
   38.7290   74.3760   58.9140 C   0  0  0  0  0  0  0  0  0  0  0  0
   38.1560   74.4780   60.1740 C   0  0  0  0  0  0  0  0  0  0  0  0
   38.6950   73.8350   61.2830 C   0  0  0  0  0  0  0  0  0  0  0  0
   39.8420   73.0710   61.1170 C   0  0  0  0  0  0  0  0  0  0  0  0
   40.4270   72.9610   59.8550 C   0  0  0  0  0  0  0  0  0  0  0  0
   39.8740   73.6100   58.7660 C   0  0  0  0  0  0  0  0  0  0  0  0
   37.2620   75.0740   60.3030 H   0  0  0  0  0  0  0  0  0  0  0  0
   38.2070   73.9480   62.2430 H   0  0  0  0  0  0  0  0  0  0  0  0
   40.2870   72.5600   61.9500 H   0  0  0  0  0  0  0  0  0  0  0  0
   41.3250   72.3570   59.7500 H   0  0  0  0  0  0  0  0  0  0  0  0
   36.6810   75.0250   55.9620 C   0  0  0  0  0  0  0  0  0  0  0  0
   36.9590   76.3660   55.6730 C   0  0  0  0  0  0  0  0  0  0  0  0
   37.8640   77.0420   56.5120 C   0  0  0  0  0  0  0  0  0  0  0  0
   38.4160   76.3680   57.5480 N   0  0  0  0  0  0  0  0  0  0  0  0
   38.1240   75.0680   57.8000 C   0  0  0  0  0  0  0  0  0  0  0  0
   37.2670   74.4230   57.0060 N   0  0  0  0  0  0  0  0  0  0  0  0
   35.9880   74.4430   55.3480 H   0  0  0  0  0  0  0  0  0  0  0  0
   36.4700   76.8060   54.8290 H   0  0  0  0  0  0  0  0  0  0  0  0
   38.0780   78.0780   56.2880 H   0  0  0  0  0  0  0  0  0  0  0  0
   40.5160   73.4690   57.4720 C   0  0  0  0  0  0  0  0  0  0  0  0
   41.5090   74.4260   57.2830 C   0  0  0  0  0  0  0  0  0  0  0  0
   42.2470   74.4650   56.1070 C   0  0  0  0  0  0  0  0  0  0  0  0
   41.9610   73.5500   55.1770 N   0  0  0  0  0  0  0  0  0  0  0  0
   40.9880   72.6120   55.3620 C   0  0  0  0  0  0  0  0  0  0  0  0
   40.2740   72.5750   56.5020 N   0  0  0  0  0  0  0  0  0  0  0  0
   41.7950   75.2040   58.0030 H   0  0  0  0  0  0  0  0  0  0  0  0
   43.0310   75.2110   55.9430 H   0  0  0  0  0  0  0  0  0  0  0  0
   39.2540   73.6520   53.2080 Cl  0  0  0  0  0  0  0  0  0  0  0  0
   39.8860   72.0000   53.2500 C   0  0  0  0  0  0  0  0  0  0  0  0
   40.7000   71.6240   54.3240 C   0  0  0  0  0  0  0  0  0  0  0  0
   41.2110   70.3280   54.3830 C   0  0  0  0  0  0  0  0  0  0  0  0
   41.8400   70.0270   55.2070 H   0  0  0  0  0  0  0  0  0  0  0  0
   40.8820   69.4610   53.3510 C   0  0  0  0  0  3  0  0  0  0  0  0
   40.0700   69.8350   52.2770 C   0  0  0  0  0  0  0  0  0  0  0  0
   39.6920   68.6750   50.9980 Cl  0  0  0  0  0  0  0  0  0  0  0  0
   39.5700   71.1200   52.2310 C   0  0  0  0  0  0  0  0  0  0  0  0
   38.9350   71.4370   51.4060 H   0  0  0  0  0  0  0  0  0  0  0  0
  1  2  1  0  0  0  0
  2  7  1  0  0  0  0
  2  3  2  0  0  0  0
  3  8  1  0  0  0  0
  4  3  1  0  0  0  0
  4  9  1  0  0  0  0
  5  4  2  0  0  0  0
  6  1  2  0  0  0  0
  6  5  1  0  0  0  0
 10  5  1  0  0  0  0
 11 16  1  0  0  0  0
 12 11  2  0  0  0  0
 12 13  1  0  0  0  0
 13 14  2  0  0  0  0
 14 15  1  0  0  0  0
 15  1  1  0  0  0  0
 16 15  2  0  0  0  0
 17 11  1  0  0  0  0
 18 12  1  0  0  0  0
 19 13  1  0  0  0  0
 20  6  1  0  0  0  0
 21 20  1  0  0  0  0
 21 26  1  0  0  0  0
 22 21  2  0  0  0  0
 23 24  2  0  0  0  0
 23 22  1  0  0  0  0
 24 25  1  0  0  0  0
 25 20  2  0  0  0  0
 27 22  1  0  0  0  0
 28 29  1  0  0  0  0
 29 30  1  0  0  0  0
 30 31  2  0  0  0  0
 30 24  1  0  0  0  0
 31 32  1  0  0  0  0
 33 31  1  0  0  0  0
 34 33  2  0  0  0  0
 35 34  1  0  0  0  0
 36 34  1  0  0  0  0
 36 29  2  0  0  0  0
 37 36  1  0  0  0  0
M  END
>  <minimizedAffinity>
-5.6958189

$$$$
