
 OpenBabel03212520273D

 29 31  0  0  0  0  0  0  0  0999 V2000
   42.4150   84.8420   60.9990 C   0  0  0  0  0  0  0  0  0  0  0  0
   43.4880   85.1900   61.8240 C   0  0  0  0  0  0  0  0  0  0  0  0
   44.1250   86.1790   61.0690 C   0  0  0  0  0  0  0  0  0  0  0  0
   43.4620   86.3800   59.9000 N   0  0  0  0  0  0  0  0  0  0  0  0
   42.4210   85.5510   59.8780 N   0  0  0  0  0  0  0  0  0  0  0  0
   43.7930   84.8230   62.7980 H   0  0  0  0  0  0  0  0  0  0  0  0
   45.0290   86.6980   61.4060 H   0  0  0  0  0  0  0  0  0  0  0  0
   40.8210   81.5680   61.8010 C   0  0  0  0  0  0  0  0  0  0  0  0
   41.8030   82.5030   61.4670 C   0  0  0  0  0  0  0  0  0  0  0  0
   41.4340   83.8320   61.3430 C   0  0  0  0  0  0  0  0  0  0  0  0
   40.1260   84.1880   61.5500 N   0  0  0  0  0  0  0  0  0  0  0  0
   39.2120   83.2350   61.8720 C   0  0  0  0  0  0  0  0  0  0  0  0
   39.5600   81.9520   61.9940 N   0  0  0  0  0  0  0  0  0  0  0  0
   41.1810   80.5480   61.8810 H   0  0  0  0  0  0  0  0  0  0  0  0
   42.8320   82.2350   61.3030 H   0  0  0  0  0  0  0  0  0  0  0  0
   38.1810   83.5830   62.0250 H   0  0  0  0  0  0  0  0  0  0  0  0
   43.8060   87.3240   58.8430 C   0  0  0  0  0  0  0  0  0  0  0  0
   42.8690   87.5780   58.3120 H   0  0  0  0  0  0  0  0  0  0  0  0
   44.1640   88.2370   59.3470 H   0  0  0  0  0  0  0  0  0  0  0  0
   45.6760   89.3910   57.6250 Cl  0  0  0  0  0  0  0  0  0  0  0  0
   45.7490   87.6640   57.3100 C   0  0  0  0  0  0  0  0  0  0  0  0
   44.8410   86.8250   57.9250 C   0  0  0  0  0  0  0  0  0  0  0  0
   44.9370   85.4580   57.6450 C   0  0  0  0  0  0  0  0  0  0  0  0
   44.2280   84.7830   58.1220 H   0  0  0  0  0  0  0  0  0  0  0  0
   45.8790   84.9160   56.7950 C   0  0  0  0  0  3  0  0  0  0  0  0
   46.7910   85.7640   56.1780 C   0  0  0  0  0  0  0  0  0  0  0  0
   48.0060   85.1210   55.0920 Cl  0  0  0  0  0  0  0  0  0  0  0  0
   46.6890   87.1120   56.4620 C   0  0  0  0  0  0  0  0  0  0  0  0
   47.4120   87.7660   55.9700 H   0  0  0  0  0  0  0  0  0  0  0  0
  1 10  1  0  0  0  0
  1  2  1  0  0  0  0
  2  6  1  0  0  0  0
  3  7  1  0  0  0  0
  3  2  2  0  0  0  0
  4  3  1  0  0  0  0
  5  4  1  0  0  0  0
  5  1  2  0  0  0  0
  8 14  1  0  0  0  0
  8 13  1  0  0  0  0
  9  8  2  0  0  0  0
 10  9  1  0  0  0  0
 10 11  2  0  0  0  0
 11 12  1  0  0  0  0
 12 13  2  0  0  0  0
 12 16  1  0  0  0  0
 15  9  1  0  0  0  0
 17 19  1  0  0  0  0
 17  4  1  0  0  0  0
 18 17  1  0  0  0  0
 21 20  1  0  0  0  0
 21 22  1  0  0  0  0
 22 17  1  0  0  0  0
 23 22  2  0  0  0  0
 23 24  1  0  0  0  0
 25 23  1  0  0  0  0
 26 28  1  0  0  0  0
 26 25  2  0  0  0  0
 27 26  1  0  0  0  0
 28 21  2  0  0  0  0
 29 28  1  0  0  0  0
M  END
>  <minimizedAffinity>
-4.38949823

>  <minimizedRMSD>
0.371315002

$$$$
