
 OpenBabel03212520263D

 29 31  0  0  0  0  0  0  0  0999 V2000
   42.4150   84.8410   61.0000 C   0  0  0  0  0  0  0  0  0  0  0  0
   43.4880   85.1900   61.8250 C   0  0  0  0  0  0  0  0  0  0  0  0
   44.1250   86.1800   61.0700 C   0  0  0  0  0  0  0  0  0  0  0  0
   43.4620   86.3790   59.9000 N   0  0  0  0  0  0  0  0  0  0  0  0
   42.4210   85.5500   59.8790 N   0  0  0  0  0  0  0  0  0  0  0  0
   43.7930   84.8240   62.7990 H   0  0  0  0  0  0  0  0  0  0  0  0
   45.0280   86.6990   61.4070 H   0  0  0  0  0  0  0  0  0  0  0  0
   40.8230   81.5670   61.8020 C   0  0  0  0  0  0  0  0  0  0  0  0
   41.8040   82.5020   61.4680 C   0  0  0  0  0  0  0  0  0  0  0  0
   41.4340   83.8310   61.3430 C   0  0  0  0  0  0  0  0  0  0  0  0
   40.1260   84.1870   61.5500 N   0  0  0  0  0  0  0  0  0  0  0  0
   39.2130   83.2340   61.8720 C   0  0  0  0  0  0  0  0  0  0  0  0
   39.5620   81.9510   61.9940 N   0  0  0  0  0  0  0  0  0  0  0  0
   41.1830   80.5470   61.8820 H   0  0  0  0  0  0  0  0  0  0  0  0
   42.8330   82.2350   61.3040 H   0  0  0  0  0  0  0  0  0  0  0  0
   38.1820   83.5810   62.0250 H   0  0  0  0  0  0  0  0  0  0  0  0
   43.8060   87.3230   58.8430 C   0  0  0  0  0  0  0  0  0  0  0  0
   42.8690   87.5770   58.3130 H   0  0  0  0  0  0  0  0  0  0  0  0
   44.1640   88.2370   59.3470 H   0  0  0  0  0  0  0  0  0  0  0  0
   45.6760   89.3890   57.6250 Cl  0  0  0  0  0  0  0  0  0  0  0  0
   45.7480   87.6630   57.3100 C   0  0  0  0  0  0  0  0  0  0  0  0
   44.8410   86.8240   57.9250 C   0  0  0  0  0  0  0  0  0  0  0  0
   44.9370   85.4570   57.6450 C   0  0  0  0  0  0  0  0  0  0  0  0
   44.2280   84.7830   58.1220 H   0  0  0  0  0  0  0  0  0  0  0  0
   45.8780   84.9150   56.7960 C   0  0  0  0  0  3  0  0  0  0  0  0
   46.7900   85.7630   56.1780 C   0  0  0  0  0  0  0  0  0  0  0  0
   48.0060   85.1200   55.0920 Cl  0  0  0  0  0  0  0  0  0  0  0  0
   46.6880   87.1120   56.4630 C   0  0  0  0  0  0  0  0  0  0  0  0
   47.4110   87.7640   55.9700 H   0  0  0  0  0  0  0  0  0  0  0  0
  1 10  1  0  0  0  0
  1  2  1  0  0  0  0
  2  6  1  0  0  0  0
  3  7  1  0  0  0  0
  3  2  2  0  0  0  0
  4  3  1  0  0  0  0
  5  4  1  0  0  0  0
  5  1  2  0  0  0  0
  8 14  1  0  0  0  0
  8 13  1  0  0  0  0
  9  8  2  0  0  0  0
 10  9  1  0  0  0  0
 10 11  2  0  0  0  0
 11 12  1  0  0  0  0
 12 13  2  0  0  0  0
 12 16  1  0  0  0  0
 15  9  1  0  0  0  0
 17 19  1  0  0  0  0
 17  4  1  0  0  0  0
 18 17  1  0  0  0  0
 21 20  1  0  0  0  0
 21 22  1  0  0  0  0
 22 17  1  0  0  0  0
 23 22  2  0  0  0  0
 23 24  1  0  0  0  0
 25 23  1  0  0  0  0
 26 28  1  0  0  0  0
 26 25  2  0  0  0  0
 27 26  1  0  0  0  0
 28 21  2  0  0  0  0
 29 28  1  0  0  0  0
M  END
>  <minimizedAffinity>
-4.3893919

>  <minimizedRMSD>
0.641812623

$$$$
