
 OpenBabel03212521063D

 37 40  0  0  0  0  0  0  0  0999 V2000
   41.8240   84.2610   61.6130 C   0  0  0  0  0  0  0  0  0  0  0  0
   41.4240   83.9800   62.9130 C   0  0  0  0  0  0  0  0  0  0  0  0
   40.1330   83.5590   63.2110 C   0  0  0  0  0  0  0  0  0  0  0  0
   39.2220   83.4190   62.1730 C   0  0  0  0  0  0  0  0  0  0  0  0
   39.6120   83.6990   60.8630 C   0  0  0  0  0  0  0  0  0  0  0  0
   40.9020   84.1160   60.5890 C   0  0  0  0  0  0  0  0  0  0  0  0
   42.1350   84.0900   63.7200 H   0  0  0  0  0  0  0  0  0  0  0  0
   39.8740   83.3540   64.2430 H   0  0  0  0  0  0  0  0  0  0  0  0
   38.2160   83.0970   62.3650 H   0  0  0  0  0  0  0  0  0  0  0  0
   38.8810   83.5810   60.0680 H   0  0  0  0  0  0  0  0  0  0  0  0
   45.4090   84.1450   60.9290 C   0  0  0  0  0  0  0  0  0  0  0  0
   45.7670   85.4960   60.8870 C   0  0  0  0  0  0  0  0  0  0  0  0
   44.7520   86.4490   61.0980 C   0  0  0  0  0  0  0  0  0  0  0  0
   43.4920   86.0130   61.3300 N   0  0  0  0  0  0  0  0  0  0  0  0
   43.1790   84.6940   61.3640 C   0  0  0  0  0  0  0  0  0  0  0  0
   44.1380   83.7890   61.1650 N   0  0  0  0  0  0  0  0  0  0  0  0
   46.1500   83.3550   60.7740 H   0  0  0  0  0  0  0  0  0  0  0  0
   46.7930   85.7360   60.6970 H   0  0  0  0  0  0  0  0  0  0  0  0
   45.0290   87.4930   61.0650 H   0  0  0  0  0  0  0  0  0  0  0  0
   41.2650   84.3960   59.2120 C   0  0  0  0  0  0  0  0  0  0  0  0
   40.6810   85.5740   58.7550 C   0  0  0  0  0  0  0  0  0  0  0  0
   40.9020   86.0230   57.4600 C   0  0  0  0  0  0  0  0  0  0  0  0
   41.6940   85.2800   56.6830 N   0  0  0  0  0  0  0  0  0  0  0  0
   42.2660   84.1250   57.1310 C   0  0  0  0  0  0  0  0  0  0  0  0
   42.0510   83.6910   58.3860 N   0  0  0  0  0  0  0  0  0  0  0  0
   40.0230   86.2310   59.3380 H   0  0  0  0  0  0  0  0  0  0  0  0
   40.4500   86.9480   57.0850 H   0  0  0  0  0  0  0  0  0  0  0  0
   40.9380   81.7160   56.0530 Cl  0  0  0  0  0  0  0  0  0  0  0  0
   42.6090   82.1660   55.6840 C   0  0  0  0  0  0  0  0  0  0  0  0
   43.1280   83.3330   56.2540 C   0  0  0  0  0  0  0  0  0  0  0  0
   44.4420   83.7120   55.9810 C   0  0  0  0  0  0  0  0  0  0  0  0
   44.8530   84.6090   56.4160 H   0  0  0  0  0  0  0  0  0  0  0  0
   45.1830   82.8950   55.1380 C   0  0  0  0  0  3  0  0  0  0  0  0
   44.6660   81.7280   54.5660 C   0  0  0  0  0  0  0  0  0  0  0  0
   45.6690   80.7370   53.5010 Cl  0  0  0  0  0  0  0  0  0  0  0  0
   43.3650   81.3650   54.8460 C   0  0  0  0  0  0  0  0  0  0  0  0
   42.9380   80.4630   54.4140 H   0  0  0  0  0  0  0  0  0  0  0  0
  1  2  1  0  0  0  0
  2  3  2  0  0  0  0
  2  7  1  0  0  0  0
  3  8  1  0  0  0  0
  4  9  1  0  0  0  0
  4  3  1  0  0  0  0
  5  4  2  0  0  0  0
  6  5  1  0  0  0  0
  6  1  2  0  0  0  0
 10  5  1  0  0  0  0
 11 16  1  0  0  0  0
 12 11  2  0  0  0  0
 12 13  1  0  0  0  0
 13 14  2  0  0  0  0
 14 15  1  0  0  0  0
 15  1  1  0  0  0  0
 16 15  2  0  0  0  0
 17 11  1  0  0  0  0
 18 12  1  0  0  0  0
 19 13  1  0  0  0  0
 20  6  1  0  0  0  0
 21 20  1  0  0  0  0
 21 26  1  0  0  0  0
 22 21  2  0  0  0  0
 23 24  2  0  0  0  0
 23 22  1  0  0  0  0
 24 25  1  0  0  0  0
 25 20  2  0  0  0  0
 27 22  1  0  0  0  0
 29 28  1  0  0  0  0
 29 30  1  0  0  0  0
 30 24  1  0  0  0  0
 31 30  2  0  0  0  0
 31 32  1  0  0  0  0
 33 31  1  0  0  0  0
 34 36  1  0  0  0  0
 34 33  2  0  0  0  0
 35 34  1  0  0  0  0
 36 29  2  0  0  0  0
 37 36  1  0  0  0  0
M  END
>  <minimizedAffinity>
-5.54171038

>  <minimizedRMSD>
0.3426691

$$$$
