
 OpenBabel03212521073D

 37 40  0  0  0  0  0  0  0  0999 V2000
   41.8000   84.2020   61.5710 C   0  0  0  0  0  0  0  0  0  0  0  0
   41.4340   83.9030   62.8770 C   0  0  0  0  0  0  0  0  0  0  0  0
   40.1370   83.5250   63.2100 C   0  0  0  0  0  0  0  0  0  0  0  0
   39.1870   83.4480   62.2010 C   0  0  0  0  0  0  0  0  0  0  0  0
   39.5440   83.7460   60.8850 C   0  0  0  0  0  0  0  0  0  0  0  0
   40.8390   84.1190   60.5760 C   0  0  0  0  0  0  0  0  0  0  0  0
   42.1750   83.9640   63.6610 H   0  0  0  0  0  0  0  0  0  0  0  0
   39.9060   83.3030   64.2440 H   0  0  0  0  0  0  0  0  0  0  0  0
   38.1760   83.1600   62.4200 H   0  0  0  0  0  0  0  0  0  0  0  0
   38.7810   83.6780   60.1130 H   0  0  0  0  0  0  0  0  0  0  0  0
   45.3290   83.9720   60.6650 C   0  0  0  0  0  0  0  0  0  0  0  0
   45.7620   85.3010   60.7370 C   0  0  0  0  0  0  0  0  0  0  0  0
   44.8160   86.2770   61.1030 C   0  0  0  0  0  0  0  0  0  0  0  0
   43.5480   85.8860   61.3650 N   0  0  0  0  0  0  0  0  0  0  0  0
   43.1630   84.5880   61.2860 C   0  0  0  0  0  0  0  0  0  0  0  0
   44.0560   83.6600   60.9400 N   0  0  0  0  0  0  0  0  0  0  0  0
   46.0140   83.1660   60.3870 H   0  0  0  0  0  0  0  0  0  0  0  0
   46.7880   85.5050   60.5100 H   0  0  0  0  0  0  0  0  0  0  0  0
   45.1510   87.3040   61.1570 H   0  0  0  0  0  0  0  0  0  0  0  0
   41.1660   84.4200   59.1950 C   0  0  0  0  0  0  0  0  0  0  0  0
   40.7200   85.6860   58.8240 C   0  0  0  0  0  0  0  0  0  0  0  0
   40.9330   86.1690   57.5400 C   0  0  0  0  0  0  0  0  0  0  0  0
   41.5790   85.3710   56.6880 N   0  0  0  0  0  0  0  0  0  0  0  0
   42.0170   84.1300   57.0500 C   0  0  0  0  0  0  0  0  0  0  0  0
   41.8100   83.6630   58.2950 N   0  0  0  0  0  0  0  0  0  0  0  0
   40.1840   86.3920   59.4730 H   0  0  0  0  0  0  0  0  0  0  0  0
   40.5890   87.1620   57.2330 H   0  0  0  0  0  0  0  0  0  0  0  0
   44.9440   84.5270   57.0700 Cl  0  0  0  0  0  0  0  0  0  0  0  0
   44.1150   83.3780   56.0100 C   0  0  0  0  0  0  0  0  0  0  0  0
   42.7220   83.2800   56.0920 C   0  0  0  0  0  0  0  0  0  0  0  0
   42.0430   82.3820   55.2700 C   0  0  0  0  0  0  0  0  0  0  0  0
   40.9680   82.2970   55.3250 H   0  0  0  0  0  0  0  0  0  0  0  0
   42.7990   81.6170   54.3940 C   0  0  0  0  0  3  0  0  0  0  0  0
   44.1910   81.7140   54.3090 C   0  0  0  0  0  0  0  0  0  0  0  0
   45.0880   80.7070   53.1680 Cl  0  0  0  0  0  0  0  0  0  0  0  0
   44.8500   82.6060   55.1300 C   0  0  0  0  0  0  0  0  0  0  0  0
   45.9320   82.7020   55.0850 H   0  0  0  0  0  0  0  0  0  0  0  0
  1  2  1  0  0  0  0
  2  3  2  0  0  0  0
  2  7  1  0  0  0  0
  3  8  1  0  0  0  0
  4  9  1  0  0  0  0
  4  3  1  0  0  0  0
  5  4  2  0  0  0  0
  6  5  1  0  0  0  0
  6  1  2  0  0  0  0
 10  5  1  0  0  0  0
 11 12  2  0  0  0  0
 11 16  1  0  0  0  0
 12 13  1  0  0  0  0
 13 19  1  0  0  0  0
 13 14  2  0  0  0  0
 15 14  1  0  0  0  0
 15  1  1  0  0  0  0
 16 15  2  0  0  0  0
 17 11  1  0  0  0  0
 18 12  1  0  0  0  0
 20  6  1  0  0  0  0
 21 20  1  0  0  0  0
 21 26  1  0  0  0  0
 22 21  2  0  0  0  0
 23 24  2  0  0  0  0
 23 22  1  0  0  0  0
 24 25  1  0  0  0  0
 25 20  2  0  0  0  0
 27 22  1  0  0  0  0
 29 30  1  0  0  0  0
 29 28  1  0  0  0  0
 30 24  1  0  0  0  0
 31 32  1  0  0  0  0
 31 30  2  0  0  0  0
 33 31  1  0  0  0  0
 34 33  2  0  0  0  0
 34 36  1  0  0  0  0
 35 34  1  0  0  0  0
 36 29  2  0  0  0  0
 37 36  1  0  0  0  0
M  END
>  <minimizedAffinity>
-5.52669525

>  <minimizedRMSD>
0.593752265

$$$$
