
 OpenBabel03212521063D

 37 40  0  0  0  0  0  0  0  0999 V2000
   41.8070   84.2500   61.5670 C   0  0  0  0  0  0  0  0  0  0  0  0
   41.4520   83.9460   62.8740 C   0  0  0  0  0  0  0  0  0  0  0  0
   40.1680   83.5280   63.2100 C   0  0  0  0  0  0  0  0  0  0  0  0
   39.2200   83.4150   62.2020 C   0  0  0  0  0  0  0  0  0  0  0  0
   39.5660   83.7180   60.8850 C   0  0  0  0  0  0  0  0  0  0  0  0
   40.8490   84.1310   60.5730 C   0  0  0  0  0  0  0  0  0  0  0  0
   42.1910   84.0350   63.6580 H   0  0  0  0  0  0  0  0  0  0  0  0
   39.9450   83.3040   64.2460 H   0  0  0  0  0  0  0  0  0  0  0  0
   38.2190   83.0960   62.4240 H   0  0  0  0  0  0  0  0  0  0  0  0
   38.8060   83.6210   60.1140 H   0  0  0  0  0  0  0  0  0  0  0  0
   45.3420   84.1300   60.6600 C   0  0  0  0  0  0  0  0  0  0  0  0
   45.7310   85.4730   60.7240 C   0  0  0  0  0  0  0  0  0  0  0  0
   44.7540   86.4200   61.0850 C   0  0  0  0  0  0  0  0  0  0  0  0
   43.4990   85.9890   61.3510 N   0  0  0  0  0  0  0  0  0  0  0  0
   43.1560   84.6790   61.2790 C   0  0  0  0  0  0  0  0  0  0  0  0
   44.0790   83.7780   60.9370 N   0  0  0  0  0  0  0  0  0  0  0  0
   46.0520   83.3450   60.3860 H   0  0  0  0  0  0  0  0  0  0  0  0
   46.7490   85.7090   60.4950 H   0  0  0  0  0  0  0  0  0  0  0  0
   45.0550   87.4570   61.1340 H   0  0  0  0  0  0  0  0  0  0  0  0
   41.1650   84.4360   59.1900 C   0  0  0  0  0  0  0  0  0  0  0  0
   40.6940   85.6930   58.8190 C   0  0  0  0  0  0  0  0  0  0  0  0
   40.8930   86.1770   57.5330 C   0  0  0  0  0  0  0  0  0  0  0  0
   41.5510   85.3890   56.6800 N   0  0  0  0  0  0  0  0  0  0  0  0
   42.0130   84.1580   57.0430 C   0  0  0  0  0  0  0  0  0  0  0  0
   41.8200   83.6900   58.2890 N   0  0  0  0  0  0  0  0  0  0  0  0
   40.1470   86.3890   59.4680 H   0  0  0  0  0  0  0  0  0  0  0  0
   40.5280   87.1630   57.2250 H   0  0  0  0  0  0  0  0  0  0  0  0
   44.9340   84.6070   57.0530 Cl  0  0  0  0  0  0  0  0  0  0  0  0
   44.1210   83.4420   55.9980 C   0  0  0  0  0  0  0  0  0  0  0  0
   42.7310   83.3190   56.0840 C   0  0  0  0  0  0  0  0  0  0  0  0
   42.0650   82.4080   55.2650 C   0  0  0  0  0  0  0  0  0  0  0  0
   40.9920   82.3040   55.3230 H   0  0  0  0  0  0  0  0  0  0  0  0
   42.8320   81.6550   54.3870 C   0  0  0  0  0  3  0  0  0  0  0  0
   44.2220   81.7770   54.2990 C   0  0  0  0  0  0  0  0  0  0  0  0
   45.1330   80.7840   53.1560 Cl  0  0  0  0  0  0  0  0  0  0  0  0
   44.8680   82.6810   55.1160 C   0  0  0  0  0  0  0  0  0  0  0  0
   45.9480   82.7960   55.0670 H   0  0  0  0  0  0  0  0  0  0  0  0
  1  2  1  0  0  0  0
  2  3  2  0  0  0  0
  2  7  1  0  0  0  0
  3  8  1  0  0  0  0
  4  9  1  0  0  0  0
  4  3  1  0  0  0  0
  5  4  2  0  0  0  0
  6  5  1  0  0  0  0
  6  1  2  0  0  0  0
 10  5  1  0  0  0  0
 11 12  2  0  0  0  0
 11 16  1  0  0  0  0
 12 13  1  0  0  0  0
 13 19  1  0  0  0  0
 13 14  2  0  0  0  0
 15 14  1  0  0  0  0
 15  1  1  0  0  0  0
 16 15  2  0  0  0  0
 17 11  1  0  0  0  0
 18 12  1  0  0  0  0
 20  6  1  0  0  0  0
 21 20  1  0  0  0  0
 21 26  1  0  0  0  0
 22 21  2  0  0  0  0
 23 24  2  0  0  0  0
 23 22  1  0  0  0  0
 24 25  1  0  0  0  0
 25 20  2  0  0  0  0
 27 22  1  0  0  0  0
 29 30  1  0  0  0  0
 29 28  1  0  0  0  0
 30 24  1  0  0  0  0
 31 32  1  0  0  0  0
 31 30  2  0  0  0  0
 33 31  1  0  0  0  0
 34 33  2  0  0  0  0
 34 36  1  0  0  0  0
 35 34  1  0  0  0  0
 36 29  2  0  0  0  0
 37 36  1  0  0  0  0
M  END
>  <minimizedAffinity>
-5.5271225

>  <minimizedRMSD>
0.210753143

$$$$
