
 OpenBabel03212520263D

 29 31  0  0  0  0  0  0  0  0999 V2000
   42.5560   84.8910   61.0390 C   0  0  0  0  0  0  0  0  0  0  0  0
   43.6730   85.2300   61.8070 C   0  0  0  0  0  0  0  0  0  0  0  0
   44.2700   86.2250   61.0260 C   0  0  0  0  0  0  0  0  0  0  0  0
   43.5450   86.4350   59.8970 N   0  0  0  0  0  0  0  0  0  0  0  0
   42.5020   85.6090   59.9250 N   0  0  0  0  0  0  0  0  0  0  0  0
   44.0300   84.8550   62.7610 H   0  0  0  0  0  0  0  0  0  0  0  0
   45.1920   86.7390   61.3180 H   0  0  0  0  0  0  0  0  0  0  0  0
   41.0450   81.6820   62.1900 C   0  0  0  0  0  0  0  0  0  0  0  0
   42.0120   82.6210   61.8240 C   0  0  0  0  0  0  0  0  0  0  0  0
   41.5920   83.8800   61.4280 C   0  0  0  0  0  0  0  0  0  0  0  0
   40.2520   84.1660   61.4070 N   0  0  0  0  0  0  0  0  0  0  0  0
   39.3550   83.2130   61.7730 C   0  0  0  0  0  0  0  0  0  0  0  0
   39.7510   81.9970   62.1560 N   0  0  0  0  0  0  0  0  0  0  0  0
   41.4450   80.7190   62.4890 H   0  0  0  0  0  0  0  0  0  0  0  0
   43.0660   82.4080   61.8370 H   0  0  0  0  0  0  0  0  0  0  0  0
   38.2960   83.5020   61.7350 H   0  0  0  0  0  0  0  0  0  0  0  0
   43.8340   87.3870   58.8300 C   0  0  0  0  0  0  0  0  0  0  0  0
   42.8820   87.5830   58.3000 H   0  0  0  0  0  0  0  0  0  0  0  0
   44.1410   88.3240   59.3250 H   0  0  0  0  0  0  0  0  0  0  0  0
   45.6160   89.5390   57.6280 Cl  0  0  0  0  0  0  0  0  0  0  0  0
   45.7650   87.8200   57.3060 C   0  0  0  0  0  0  0  0  0  0  0  0
   44.8930   86.9380   57.9140 C   0  0  0  0  0  0  0  0  0  0  0  0
   45.0490   85.5790   57.6280 C   0  0  0  0  0  0  0  0  0  0  0  0
   44.3690   84.8710   58.1000 H   0  0  0  0  0  0  0  0  0  0  0  0
   46.0180   85.0820   56.7810 C   0  0  0  0  0  3  0  0  0  0  0  0
   46.8940   85.9720   56.1710 C   0  0  0  0  0  0  0  0  0  0  0  0
   48.1410   85.3880   55.0870 Cl  0  0  0  0  0  0  0  0  0  0  0  0
   46.7310   87.3140   56.4600 C   0  0  0  0  0  0  0  0  0  0  0  0
   47.4260   88.0000   55.9740 H   0  0  0  0  0  0  0  0  0  0  0  0
  1 10  1  0  0  0  0
  1  2  1  0  0  0  0
  2  6  1  0  0  0  0
  3  7  1  0  0  0  0
  3  2  2  0  0  0  0
  4  5  1  0  0  0  0
  4  3  1  0  0  0  0
  5  1  2  0  0  0  0
  8 14  1  0  0  0  0
  9 15  1  0  0  0  0
  9  8  2  0  0  0  0
 10  9  1  0  0  0  0
 11 10  2  0  0  0  0
 11 12  1  0  0  0  0
 12 13  2  0  0  0  0
 13  8  1  0  0  0  0
 16 12  1  0  0  0  0
 17 19  1  0  0  0  0
 17  4  1  0  0  0  0
 18 17  1  0  0  0  0
 21 20  1  0  0  0  0
 21 22  1  0  0  0  0
 22 17  1  0  0  0  0
 23 22  2  0  0  0  0
 23 24  1  0  0  0  0
 25 23  1  0  0  0  0
 26 28  1  0  0  0  0
 26 25  2  0  0  0  0
 27 26  1  0  0  0  0
 28 21  2  0  0  0  0
 29 28  1  0  0  0  0
M  END
>  <minimizedAffinity>
-4.36607742

>  <minimizedRMSD>
0.715164781

$$$$
