
 OpenBabel03212520133D

 32 34  0  0  0  0  0  0  0  0999 V2000
   42.8990   84.6650   58.9470 Cl  0  0  0  0  0  0  0  0  0  0  0  0
   42.1840   83.1040   58.5280 C   0  0  0  0  0  0  0  0  0  0  0  0
   42.2900   82.5440   57.2680 C   0  0  0  0  0  0  0  0  0  0  0  0
   41.6720   81.3190   57.1150 C   0  0  0  0  0  0  0  0  0  0  0  0
   40.9750   80.6260   58.0890 C   0  0  0  0  0  0  0  0  0  0  0  0
   40.8980   81.2170   59.3120 C   0  0  0  0  0  0  0  0  0  0  0  0
   40.0330   80.4280   60.6360 Cl  0  0  0  0  0  0  0  0  0  0  0  0
   41.4940   82.4390   59.5280 C   0  0  0  0  0  0  0  0  0  0  0  0
   41.7540   80.8740   56.1190 H   0  0  0  0  0  0  0  0  0  0  0  0
   40.5260   79.6730   57.8700 H   0  0  0  0  0  0  0  0  0  0  0  0
   39.2380   84.3790   60.1590 Cl  0  0  0  0  0  0  0  0  0  0  0  0
   40.4500   83.9170   61.3150 C   0  0  0  0  0  0  0  0  0  0  0  0
   41.3850   83.0410   60.8650 C   0  0  0  0  0  0  0  0  0  0  0  0
   42.4160   82.5860   61.6880 C   0  0  0  0  0  0  0  0  0  0  0  0
   43.2100   81.8860   61.4220 H   0  0  0  0  0  0  0  0  0  0  0  0
   42.5110   83.0250   63.0020 C   0  0  0  0  0  3  0  0  0  0  0  0
   41.5530   83.9210   63.4580 C   0  0  0  0  0  0  0  0  0  0  0  0
   41.6240   84.5070   65.1050 Cl  0  0  0  0  0  0  0  0  0  0  0  0
   40.5360   84.3610   62.6210 C   0  0  0  0  0  0  0  0  0  0  0  0
   39.7710   85.0580   62.9370 H   0  0  0  0  0  0  0  0  0  0  0  0
   42.4990   84.1440   55.3290 C   0  0  0  0  0  0  0  0  0  0  0  0
   43.0030   83.2410   56.2540 C   0  0  0  0  0  0  0  0  0  0  0  0
   44.3850   82.9570   56.2060 C   0  0  0  0  0  0  0  0  0  0  0  0
   45.1240   83.5910   55.2580 N   0  0  0  0  0  0  0  0  0  0  0  0
   44.5990   84.4590   54.3810 C   0  0  0  0  0  0  0  0  0  0  0  0
   43.2940   84.7310   54.4210 N   0  0  0  0  0  0  0  0  0  0  0  0
   41.4370   84.3260   55.4070 H   0  0  0  0  0  0  0  0  0  0  0  0
   44.8600   82.2570   56.8990 H   0  0  0  0  0  0  0  0  0  0  0  0
   45.5610   85.0550   53.4160 C   0  0  0  0  0  0  0  0  0  0  0  0
   46.8370   85.1520   53.9420 F   0  0  0  0  0  0  0  0  0  0  0  0
   45.6160   84.2900   52.2670 F   0  0  0  0  0  0  0  0  0  0  0  0
   45.2090   86.3710   53.1080 F   0  0  0  0  0  0  0  0  0  0  0  0
  2  1  1  0  0  0  0
  2  8  1  0  0  0  0
  3  2  2  0  0  0  0
  4  3  1  0  0  0  0
  4  5  2  0  0  0  0
  5  6  1  0  0  0  0
  6  8  2  0  0  0  0
  6  7  1  0  0  0  0
  8 13  1  0  0  0  0
  9  4  1  0  0  0  0
 10  5  1  0  0  0  0
 11 12  1  0  0  0  0
 12 19  1  0  0  0  0
 13 12  2  0  0  0  0
 13 14  1  0  0  0  0
 14 16  2  0  0  0  0
 15 14  1  0  0  0  0
 16 17  1  0  0  0  0
 17 18  1  0  0  0  0
 19 20  1  0  0  0  0
 19 17  2  0  0  0  0
 21 27  1  0  0  0  0
 21 22  1  0  0  0  0
 22  3  1  0  0  0  0
 23 22  2  0  0  0  0
 23 28  1  0  0  0  0
 24 23  1  0  0  0  0
 25 26  1  0  0  0  0
 25 24  2  0  0  0  0
 26 21  2  0  0  0  0
 29 30  1  0  0  0  0
 29 25  1  0  0  0  0
 31 29  1  0  0  0  0
 32 29  1  0  0  0  0
M  END
>  <minimizedAffinity>
-4.50570774

>  <minimizedRMSD>
7.95585155

$$$$
