
 OpenBabel03212520273D

 29 31  0  0  0  0  0  0  0  0999 V2000
   42.3990   84.9490   60.8260 C   0  0  0  0  0  0  0  0  0  0  0  0
   43.5020   85.3590   61.5820 C   0  0  0  0  0  0  0  0  0  0  0  0
   44.1290   86.2600   60.7160 C   0  0  0  0  0  0  0  0  0  0  0  0
   43.4330   86.3560   59.5530 N   0  0  0  0  0  0  0  0  0  0  0  0
   42.3810   85.5460   59.6420 N   0  0  0  0  0  0  0  0  0  0  0  0
   43.8310   85.0840   62.5790 H   0  0  0  0  0  0  0  0  0  0  0  0
   45.0490   86.7940   60.9750 H   0  0  0  0  0  0  0  0  0  0  0  0
   40.8110   81.8310   62.1120 C   0  0  0  0  0  0  0  0  0  0  0  0
   41.7960   82.7150   61.6660 C   0  0  0  0  0  0  0  0  0  0  0  0
   41.4150   83.9940   61.2950 C   0  0  0  0  0  0  0  0  0  0  0  0
   40.0950   84.3520   61.3750 N   0  0  0  0  0  0  0  0  0  0  0  0
   39.1780   83.4500   61.8160 C   0  0  0  0  0  0  0  0  0  0  0  0
   39.5370   82.2160   62.1750 N   0  0  0  0  0  0  0  0  0  0  0  0
   41.1800   80.8480   62.3860 H   0  0  0  0  0  0  0  0  0  0  0  0
   42.8350   82.4450   61.6000 H   0  0  0  0  0  0  0  0  0  0  0  0
   38.1370   83.7970   61.8570 H   0  0  0  0  0  0  0  0  0  0  0  0
   43.7580   87.1870   58.3990 C   0  0  0  0  0  0  0  0  0  0  0  0
   42.9050   87.1210   57.6970 H   0  0  0  0  0  0  0  0  0  0  0  0
   43.8070   88.2260   58.7690 H   0  0  0  0  0  0  0  0  0  0  0  0
   43.7930   84.6340   56.7490 Cl  0  0  0  0  0  0  0  0  0  0  0  0
   45.1720   85.6940   56.9830 C   0  0  0  0  0  0  0  0  0  0  0  0
   45.0310   86.8280   57.7570 C   0  0  0  0  0  0  0  0  0  0  0  0
   46.1570   87.6430   57.9150 C   0  0  0  0  0  0  0  0  0  0  0  0
   46.0620   88.5410   58.5240 H   0  0  0  0  0  0  0  0  0  0  0  0
   47.3820   87.3720   57.3450 C   0  0  0  0  0  3  0  0  0  0  0  0
   47.5210   86.2280   56.5650 C   0  0  0  0  0  0  0  0  0  0  0  0
   49.0590   85.8440   55.8200 Cl  0  0  0  0  0  0  0  0  0  0  0  0
   46.4040   85.4310   56.4150 C   0  0  0  0  0  0  0  0  0  0  0  0
   46.5270   84.5380   55.8010 H   0  0  0  0  0  0  0  0  0  0  0  0
  1 10  1  0  0  0  0
  1  2  1  0  0  0  0
  2  6  1  0  0  0  0
  3  7  1  0  0  0  0
  3  2  2  0  0  0  0
  4  5  1  0  0  0  0
  4  3  1  0  0  0  0
  5  1  2  0  0  0  0
  8 13  1  0  0  0  0
  8 14  1  0  0  0  0
  9  8  2  0  0  0  0
 10 11  2  0  0  0  0
 10  9  1  0  0  0  0
 11 12  1  0  0  0  0
 12 16  1  0  0  0  0
 12 13  2  0  0  0  0
 15  9  1  0  0  0  0
 17 19  1  0  0  0  0
 17  4  1  0  0  0  0
 18 17  1  0  0  0  0
 20 21  1  0  0  0  0
 21 22  1  0  0  0  0
 22 23  2  0  0  0  0
 22 17  1  0  0  0  0
 23 24  1  0  0  0  0
 25 23  1  0  0  0  0
 26 25  2  0  0  0  0
 27 26  1  0  0  0  0
 28 26  1  0  0  0  0
 28 21  2  0  0  0  0
 29 28  1  0  0  0  0
M  END
>  <minimizedAffinity>
-4.18104649

>  <minimizedRMSD>
0.677039087

$$$$
