
 OpenBabel03212521073D

 37 40  0  0  0  0  0  0  0  0999 V2000
   41.8010   84.1990   61.5750 C   0  0  0  0  0  0  0  0  0  0  0  0
   41.4270   83.9290   62.8850 C   0  0  0  0  0  0  0  0  0  0  0  0
   40.1290   83.5580   63.2190 C   0  0  0  0  0  0  0  0  0  0  0  0
   39.1840   83.4570   62.2060 C   0  0  0  0  0  0  0  0  0  0  0  0
   39.5490   83.7260   60.8870 C   0  0  0  0  0  0  0  0  0  0  0  0
   40.8460   84.0930   60.5770 C   0  0  0  0  0  0  0  0  0  0  0  0
   42.1640   84.0090   63.6730 H   0  0  0  0  0  0  0  0  0  0  0  0
   39.8910   83.3590   64.2560 H   0  0  0  0  0  0  0  0  0  0  0  0
   38.1730   83.1730   62.4260 H   0  0  0  0  0  0  0  0  0  0  0  0
   38.7920   83.6400   60.1110 H   0  0  0  0  0  0  0  0  0  0  0  0
   45.3280   83.9560   60.6620 C   0  0  0  0  0  0  0  0  0  0  0  0
   45.7660   85.2830   60.7400 C   0  0  0  0  0  0  0  0  0  0  0  0
   44.8260   86.2620   61.1120 C   0  0  0  0  0  0  0  0  0  0  0  0
   43.5560   85.8750   61.3750 N   0  0  0  0  0  0  0  0  0  0  0  0
   43.1650   84.5800   61.2900 C   0  0  0  0  0  0  0  0  0  0  0  0
   44.0530   83.6490   60.9380 N   0  0  0  0  0  0  0  0  0  0  0  0
   46.0080   83.1480   60.3800 H   0  0  0  0  0  0  0  0  0  0  0  0
   46.7930   85.4830   60.5120 H   0  0  0  0  0  0  0  0  0  0  0  0
   45.1660   87.2870   61.1710 H   0  0  0  0  0  0  0  0  0  0  0  0
   41.1810   84.3640   59.1910 C   0  0  0  0  0  0  0  0  0  0  0  0
   40.8000   85.6480   58.8100 C   0  0  0  0  0  0  0  0  0  0  0  0
   41.0320   86.1070   57.5200 C   0  0  0  0  0  0  0  0  0  0  0  0
   41.6310   85.2670   56.6730 N   0  0  0  0  0  0  0  0  0  0  0  0
   42.0040   84.0090   57.0450 C   0  0  0  0  0  0  0  0  0  0  0  0
   41.7790   83.5650   58.2950 N   0  0  0  0  0  0  0  0  0  0  0  0
   40.3060   86.3870   59.4540 H   0  0  0  0  0  0  0  0  0  0  0  0
   40.7380   87.1130   57.2050 H   0  0  0  0  0  0  0  0  0  0  0  0
   44.9470   84.2650   57.0310 Cl  0  0  0  0  0  0  0  0  0  0  0  0
   44.0530   83.1430   55.9950 C   0  0  0  0  0  0  0  0  0  0  0  0
   42.6580   83.1130   56.0920 C   0  0  0  0  0  0  0  0  0  0  0  0
   41.9280   82.2380   55.2890 C   0  0  0  0  0  0  0  0  0  0  0  0
   40.8520   82.2060   55.3550 H   0  0  0  0  0  0  0  0  0  0  0  0
   42.6370   81.4270   54.4150 C   0  0  0  0  0  3  0  0  0  0  0  0
   44.0310   81.4560   54.3160 C   0  0  0  0  0  0  0  0  0  0  0  0
   44.8660   80.3910   53.1800 Cl  0  0  0  0  0  0  0  0  0  0  0  0
   44.7410   82.3250   55.1170 C   0  0  0  0  0  0  0  0  0  0  0  0
   45.8260   82.3680   55.0610 H   0  0  0  0  0  0  0  0  0  0  0  0
  1  2  1  0  0  0  0
  2  3  2  0  0  0  0
  2  7  1  0  0  0  0
  3  8  1  0  0  0  0
  4  9  1  0  0  0  0
  4  3  1  0  0  0  0
  5  4  2  0  0  0  0
  6  5  1  0  0  0  0
  6  1  2  0  0  0  0
 10  5  1  0  0  0  0
 11 12  2  0  0  0  0
 11 16  1  0  0  0  0
 12 13  1  0  0  0  0
 13 19  1  0  0  0  0
 13 14  2  0  0  0  0
 15 14  1  0  0  0  0
 15  1  1  0  0  0  0
 16 15  2  0  0  0  0
 17 11  1  0  0  0  0
 18 12  1  0  0  0  0
 20  6  1  0  0  0  0
 21 20  1  0  0  0  0
 21 26  1  0  0  0  0
 22 21  2  0  0  0  0
 23 24  2  0  0  0  0
 23 22  1  0  0  0  0
 24 25  1  0  0  0  0
 25 20  2  0  0  0  0
 27 22  1  0  0  0  0
 29 30  1  0  0  0  0
 29 28  1  0  0  0  0
 30 24  1  0  0  0  0
 31 32  1  0  0  0  0
 31 30  2  0  0  0  0
 33 31  1  0  0  0  0
 34 33  2  0  0  0  0
 34 36  1  0  0  0  0
 35 34  1  0  0  0  0
 36 29  2  0  0  0  0
 37 36  1  0  0  0  0
M  END
>  <minimizedAffinity>
-5.53546953

>  <minimizedRMSD>
0.590458274

$$$$
