
 OpenBabel03212520263D

 29 31  0  0  0  0  0  0  0  0999 V2000
   42.4000   84.9500   60.8260 C   0  0  0  0  0  0  0  0  0  0  0  0
   43.5020   85.3600   61.5820 C   0  0  0  0  0  0  0  0  0  0  0  0
   44.1290   86.2610   60.7160 C   0  0  0  0  0  0  0  0  0  0  0  0
   43.4330   86.3570   59.5520 N   0  0  0  0  0  0  0  0  0  0  0  0
   42.3810   85.5470   59.6420 N   0  0  0  0  0  0  0  0  0  0  0  0
   43.8310   85.0850   62.5780 H   0  0  0  0  0  0  0  0  0  0  0  0
   45.0490   86.7950   60.9750 H   0  0  0  0  0  0  0  0  0  0  0  0
   40.8120   81.8310   62.1120 C   0  0  0  0  0  0  0  0  0  0  0  0
   41.7960   82.7150   61.6660 C   0  0  0  0  0  0  0  0  0  0  0  0
   41.4160   83.9940   61.2950 C   0  0  0  0  0  0  0  0  0  0  0  0
   40.0950   84.3520   61.3750 N   0  0  0  0  0  0  0  0  0  0  0  0
   39.1790   83.4500   61.8160 C   0  0  0  0  0  0  0  0  0  0  0  0
   39.5380   82.2160   62.1760 N   0  0  0  0  0  0  0  0  0  0  0  0
   41.1810   80.8490   62.3860 H   0  0  0  0  0  0  0  0  0  0  0  0
   42.8360   82.4450   61.6000 H   0  0  0  0  0  0  0  0  0  0  0  0
   38.1370   83.7970   61.8580 H   0  0  0  0  0  0  0  0  0  0  0  0
   43.7580   87.1880   58.3990 C   0  0  0  0  0  0  0  0  0  0  0  0
   42.9050   87.1210   57.6960 H   0  0  0  0  0  0  0  0  0  0  0  0
   43.8070   88.2260   58.7680 H   0  0  0  0  0  0  0  0  0  0  0  0
   43.7940   84.6330   56.7490 Cl  0  0  0  0  0  0  0  0  0  0  0  0
   45.1730   85.6950   56.9830 C   0  0  0  0  0  0  0  0  0  0  0  0
   45.0310   86.8280   57.7570 C   0  0  0  0  0  0  0  0  0  0  0  0
   46.1560   87.6440   57.9160 C   0  0  0  0  0  0  0  0  0  0  0  0
   46.0600   88.5420   58.5220 H   0  0  0  0  0  0  0  0  0  0  0  0
   47.3820   87.3740   57.3450 C   0  0  0  0  0  3  0  0  0  0  0  0
   47.5210   86.2300   56.5660 C   0  0  0  0  0  0  0  0  0  0  0  0
   49.0600   85.8460   55.8210 Cl  0  0  0  0  0  0  0  0  0  0  0  0
   46.4050   85.4320   56.4150 C   0  0  0  0  0  0  0  0  0  0  0  0
   46.5290   84.5380   55.8010 H   0  0  0  0  0  0  0  0  0  0  0  0
  1 10  1  0  0  0  0
  1  2  1  0  0  0  0
  2  6  1  0  0  0  0
  3  7  1  0  0  0  0
  3  2  2  0  0  0  0
  4  5  1  0  0  0  0
  4  3  1  0  0  0  0
  5  1  2  0  0  0  0
  8 13  1  0  0  0  0
  8 14  1  0  0  0  0
  9  8  2  0  0  0  0
 10 11  2  0  0  0  0
 10  9  1  0  0  0  0
 11 12  1  0  0  0  0
 12 16  1  0  0  0  0
 12 13  2  0  0  0  0
 15  9  1  0  0  0  0
 17 19  1  0  0  0  0
 17  4  1  0  0  0  0
 18 17  1  0  0  0  0
 20 21  1  0  0  0  0
 21 22  1  0  0  0  0
 22 23  2  0  0  0  0
 22 17  1  0  0  0  0
 23 24  1  0  0  0  0
 25 23  1  0  0  0  0
 26 25  2  0  0  0  0
 27 26  1  0  0  0  0
 28 26  1  0  0  0  0
 28 21  2  0  0  0  0
 29 28  1  0  0  0  0
M  END
>  <minimizedAffinity>
-4.18093491

>  <minimizedRMSD>
0.770863712

$$$$
