
 OpenBabel03212520263D

 29 31  0  0  0  0  0  0  0  0999 V2000
   42.6450   85.0760   60.9830 C   0  0  0  0  0  0  0  0  0  0  0  0
   43.7440   85.5980   61.6730 C   0  0  0  0  0  0  0  0  0  0  0  0
   44.2800   86.4860   60.7360 C   0  0  0  0  0  0  0  0  0  0  0  0
   43.5400   86.4710   59.5960 N   0  0  0  0  0  0  0  0  0  0  0  0
   42.5470   85.6020   59.7690 N   0  0  0  0  0  0  0  0  0  0  0  0
   44.1240   85.4010   62.6700 H   0  0  0  0  0  0  0  0  0  0  0  0
   45.1710   87.0910   60.9300 H   0  0  0  0  0  0  0  0  0  0  0  0
   41.3280   82.0350   62.6920 C   0  0  0  0  0  0  0  0  0  0  0  0
   42.2370   82.9570   62.1700 C   0  0  0  0  0  0  0  0  0  0  0  0
   41.7430   84.0880   61.5400 C   0  0  0  0  0  0  0  0  0  0  0  0
   40.3870   84.2670   61.4480 N   0  0  0  0  0  0  0  0  0  0  0  0
   39.5480   83.3360   61.9740 C   0  0  0  0  0  0  0  0  0  0  0  0
   40.0170   82.2440   62.5820 N   0  0  0  0  0  0  0  0  0  0  0  0
   41.7850   81.1750   63.1700 H   0  0  0  0  0  0  0  0  0  0  0  0
   43.3030   82.8270   62.2370 H   0  0  0  0  0  0  0  0  0  0  0  0
   38.4730   83.5360   61.8680 H   0  0  0  0  0  0  0  0  0  0  0  0
   43.7700   87.2530   58.3870 C   0  0  0  0  0  0  0  0  0  0  0  0
   42.9080   87.0790   57.7150 H   0  0  0  0  0  0  0  0  0  0  0  0
   43.7450   88.3130   58.6940 H   0  0  0  0  0  0  0  0  0  0  0  0
   43.9470   84.6420   56.8380 Cl  0  0  0  0  0  0  0  0  0  0  0  0
   45.2550   85.8040   56.9980 C   0  0  0  0  0  0  0  0  0  0  0  0
   45.0510   86.9560   57.7300 C   0  0  0  0  0  0  0  0  0  0  0  0
   46.1210   87.8520   57.8310 C   0  0  0  0  0  0  0  0  0  0  0  0
   45.9760   88.7660   58.4040 H   0  0  0  0  0  0  0  0  0  0  0  0
   47.3500   87.6420   57.2420 C   0  0  0  0  0  3  0  0  0  0  0  0
   47.5520   86.4810   56.5060 C   0  0  0  0  0  0  0  0  0  0  0  0
   49.0970   86.1720   55.7400 Cl  0  0  0  0  0  0  0  0  0  0  0  0
   46.4890   85.6030   56.4130 C   0  0  0  0  0  0  0  0  0  0  0  0
   46.6620   84.6960   55.8320 H   0  0  0  0  0  0  0  0  0  0  0  0
  1 10  1  0  0  0  0
  1  2  1  0  0  0  0
  2  6  1  0  0  0  0
  3  7  1  0  0  0  0
  3  2  2  0  0  0  0
  4  5  1  0  0  0  0
  4  3  1  0  0  0  0
  5  1  2  0  0  0  0
  8 14  1  0  0  0  0
  9 15  1  0  0  0  0
  9  8  2  0  0  0  0
 10  9  1  0  0  0  0
 11 10  2  0  0  0  0
 11 12  1  0  0  0  0
 12 13  2  0  0  0  0
 13  8  1  0  0  0  0
 16 12  1  0  0  0  0
 17 19  1  0  0  0  0
 17  4  1  0  0  0  0
 18 17  1  0  0  0  0
 20 21  1  0  0  0  0
 21 22  1  0  0  0  0
 22 23  2  0  0  0  0
 22 17  1  0  0  0  0
 23 24  1  0  0  0  0
 25 23  1  0  0  0  0
 26 25  2  0  0  0  0
 27 26  1  0  0  0  0
 28 26  1  0  0  0  0
 28 21  2  0  0  0  0
 29 28  1  0  0  0  0
M  END
>  <minimizedAffinity>
-4.18969917

>  <minimizedRMSD>
1.0066731

$$$$
