
 OpenBabel03212520263D

 29 31  0  0  0  0  0  0  0  0999 V2000
   42.4160   84.8410   61.0000 C   0  0  0  0  0  0  0  0  0  0  0  0
   43.4890   85.1890   61.8240 C   0  0  0  0  0  0  0  0  0  0  0  0
   44.1260   86.1790   61.0690 C   0  0  0  0  0  0  0  0  0  0  0  0
   43.4620   86.3800   59.9000 N   0  0  0  0  0  0  0  0  0  0  0  0
   42.4210   85.5510   59.8790 N   0  0  0  0  0  0  0  0  0  0  0  0
   43.7950   84.8220   62.7980 H   0  0  0  0  0  0  0  0  0  0  0  0
   45.0300   86.6980   61.4060 H   0  0  0  0  0  0  0  0  0  0  0  0
   40.8230   81.5670   61.8020 C   0  0  0  0  0  0  0  0  0  0  0  0
   41.8040   82.5020   61.4680 C   0  0  0  0  0  0  0  0  0  0  0  0
   41.4350   83.8310   61.3440 C   0  0  0  0  0  0  0  0  0  0  0  0
   40.1270   84.1870   61.5490 N   0  0  0  0  0  0  0  0  0  0  0  0
   39.2130   83.2340   61.8720 C   0  0  0  0  0  0  0  0  0  0  0  0
   39.5620   81.9510   61.9940 N   0  0  0  0  0  0  0  0  0  0  0  0
   41.1840   80.5470   61.8830 H   0  0  0  0  0  0  0  0  0  0  0  0
   42.8340   82.2350   61.3050 H   0  0  0  0  0  0  0  0  0  0  0  0
   38.1820   83.5810   62.0240 H   0  0  0  0  0  0  0  0  0  0  0  0
   43.8060   87.3240   58.8430 C   0  0  0  0  0  0  0  0  0  0  0  0
   42.8680   87.5780   58.3130 H   0  0  0  0  0  0  0  0  0  0  0  0
   44.1640   88.2370   59.3480 H   0  0  0  0  0  0  0  0  0  0  0  0
   45.6750   89.3910   57.6250 Cl  0  0  0  0  0  0  0  0  0  0  0  0
   45.7480   87.6650   57.3110 C   0  0  0  0  0  0  0  0  0  0  0  0
   44.8410   86.8260   57.9260 C   0  0  0  0  0  0  0  0  0  0  0  0
   44.9370   85.4590   57.6440 C   0  0  0  0  0  0  0  0  0  0  0  0
   44.2300   84.7840   58.1220 H   0  0  0  0  0  0  0  0  0  0  0  0
   45.8800   84.9180   56.7960 C   0  0  0  0  0  3  0  0  0  0  0  0
   46.7920   85.7660   56.1780 C   0  0  0  0  0  0  0  0  0  0  0  0
   48.0080   85.1240   55.0930 Cl  0  0  0  0  0  0  0  0  0  0  0  0
   46.6890   87.1150   56.4630 C   0  0  0  0  0  0  0  0  0  0  0  0
   47.4110   87.7680   55.9710 H   0  0  0  0  0  0  0  0  0  0  0  0
  1 10  1  0  0  0  0
  1  2  1  0  0  0  0
  2  6  1  0  0  0  0
  3  7  1  0  0  0  0
  3  2  2  0  0  0  0
  4  3  1  0  0  0  0
  5  4  1  0  0  0  0
  5  1  2  0  0  0  0
  8 14  1  0  0  0  0
  8 13  1  0  0  0  0
  9  8  2  0  0  0  0
 10  9  1  0  0  0  0
 10 11  2  0  0  0  0
 11 12  1  0  0  0  0
 12 13  2  0  0  0  0
 12 16  1  0  0  0  0
 15  9  1  0  0  0  0
 17 19  1  0  0  0  0
 17  4  1  0  0  0  0
 18 17  1  0  0  0  0
 21 20  1  0  0  0  0
 21 22  1  0  0  0  0
 22 17  1  0  0  0  0
 23 22  2  0  0  0  0
 23 24  1  0  0  0  0
 25 23  1  0  0  0  0
 26 28  1  0  0  0  0
 26 25  2  0  0  0  0
 27 26  1  0  0  0  0
 28 21  2  0  0  0  0
 29 28  1  0  0  0  0
M  END
>  <minimizedAffinity>
-4.38943195

>  <minimizedRMSD>
0.486243576

$$$$
