
 OpenBabel03212520273D

 29 31  0  0  0  0  0  0  0  0999 V2000
   42.3620   84.8580   60.8500 C   0  0  0  0  0  0  0  0  0  0  0  0
   43.4300   85.3180   61.6260 C   0  0  0  0  0  0  0  0  0  0  0  0
   43.9780   86.3100   60.8070 C   0  0  0  0  0  0  0  0  0  0  0  0
   43.2730   86.4070   59.6490 N   0  0  0  0  0  0  0  0  0  0  0  0
   42.2910   85.5100   59.6970 N   0  0  0  0  0  0  0  0  0  0  0  0
   43.7830   85.0220   62.6080 H   0  0  0  0  0  0  0  0  0  0  0  0
   44.8520   86.9030   61.0930 H   0  0  0  0  0  0  0  0  0  0  0  0
   41.0270   81.5410   61.9070 C   0  0  0  0  0  0  0  0  0  0  0  0
   41.9340   82.5230   61.5030 C   0  0  0  0  0  0  0  0  0  0  0  0
   41.4610   83.8030   61.2700 C   0  0  0  0  0  0  0  0  0  0  0  0
   40.1270   84.0680   61.4400 N   0  0  0  0  0  0  0  0  0  0  0  0
   39.2880   83.0730   61.8340 C   0  0  0  0  0  0  0  0  0  0  0  0
   39.7370   81.8370   62.0610 N   0  0  0  0  0  0  0  0  0  0  0  0
   41.4670   80.5640   62.0720 H   0  0  0  0  0  0  0  0  0  0  0  0
   42.9840   82.3270   61.3680 H   0  0  0  0  0  0  0  0  0  0  0  0
   38.2310   83.3470   61.9520 H   0  0  0  0  0  0  0  0  0  0  0  0
   43.5250   87.3180   58.5390 C   0  0  0  0  0  0  0  0  0  0  0  0
   42.7490   87.1240   57.7730 H   0  0  0  0  0  0  0  0  0  0  0  0
   43.3630   88.3360   58.9300 H   0  0  0  0  0  0  0  0  0  0  0  0
   45.0260   89.9190   58.0570 Cl  0  0  0  0  0  0  0  0  0  0  0  0
   45.6640   88.3160   57.7250 C   0  0  0  0  0  0  0  0  0  0  0  0
   44.8840   87.2090   57.9870 C   0  0  0  0  0  0  0  0  0  0  0  0
   45.4330   85.9530   57.7070 C   0  0  0  0  0  0  0  0  0  0  0  0
   44.8300   85.0710   57.9070 H   0  0  0  0  0  0  0  0  0  0  0  0
   46.6990   85.7720   57.1890 C   0  0  0  0  0  3  0  0  0  0  0  0
   47.4820   86.8900   56.9270 C   0  0  0  0  0  0  0  0  0  0  0  0
   49.0960   86.7080   56.2690 Cl  0  0  0  0  0  0  0  0  0  0  0  0
   46.9300   88.1250   57.2070 C   0  0  0  0  0  0  0  0  0  0  0  0
   47.5570   88.9930   56.9970 H   0  0  0  0  0  0  0  0  0  0  0  0
  1 10  1  0  0  0  0
  1  2  1  0  0  0  0
  2  6  1  0  0  0  0
  3  7  1  0  0  0  0
  3  2  2  0  0  0  0
  4  5  1  0  0  0  0
  4  3  1  0  0  0  0
  5  1  2  0  0  0  0
  8 13  1  0  0  0  0
  8 14  1  0  0  0  0
  9  8  2  0  0  0  0
 10 11  2  0  0  0  0
 10  9  1  0  0  0  0
 11 12  1  0  0  0  0
 12 16  1  0  0  0  0
 12 13  2  0  0  0  0
 15  9  1  0  0  0  0
 17 19  1  0  0  0  0
 17  4  1  0  0  0  0
 18 17  1  0  0  0  0
 21 22  1  0  0  0  0
 21 20  1  0  0  0  0
 22 17  1  0  0  0  0
 23 24  1  0  0  0  0
 23 22  2  0  0  0  0
 25 23  1  0  0  0  0
 26 25  2  0  0  0  0
 26 28  1  0  0  0  0
 27 26  1  0  0  0  0
 28 21  2  0  0  0  0
 29 28  1  0  0  0  0
M  END
>  <minimizedAffinity>
-4.41030979

>  <minimizedRMSD>
1.21022213

$$$$
