
 OpenBabel03212520133D

 32 34  0  0  0  0  0  0  0  0999 V2000
   42.5650   84.4780   59.2000 Cl  0  0  0  0  0  0  0  0  0  0  0  0
   43.1560   82.8130   59.2150 C   0  0  0  0  0  0  0  0  0  0  0  0
   43.8570   82.2560   58.1610 C   0  0  0  0  0  0  0  0  0  0  0  0
   44.2430   80.9430   58.3390 C   0  0  0  0  0  0  0  0  0  0  0  0
   43.9940   80.1610   59.4540 C   0  0  0  0  0  0  0  0  0  0  0  0
   43.3010   80.7520   60.4640 C   0  0  0  0  0  0  0  0  0  0  0  0
   42.9220   79.8530   61.9370 Cl  0  0  0  0  0  0  0  0  0  0  0  0
   42.8880   82.0600   60.3450 C   0  0  0  0  0  0  0  0  0  0  0  0
   44.7980   80.5000   57.5070 H   0  0  0  0  0  0  0  0  0  0  0  0
   44.3380   79.1420   59.4970 H   0  0  0  0  0  0  0  0  0  0  0  0
   39.8540   81.8700   60.4420 Cl  0  0  0  0  0  0  0  0  0  0  0  0
   40.7980   82.6680   61.6630 C   0  0  0  0  0  0  0  0  0  0  0  0
   42.1420   82.6580   61.4620 C   0  0  0  0  0  0  0  0  0  0  0  0
   43.0190   83.2630   62.3650 C   0  0  0  0  0  0  0  0  0  0  0  0
   44.1070   83.3090   62.2930 H   0  0  0  0  0  0  0  0  0  0  0  0
   42.5320   83.8950   63.5020 C   0  0  0  0  0  3  0  0  0  0  0  0
   41.1580   83.9000   63.7020 C   0  0  0  0  0  0  0  0  0  0  0  0
   40.4890   84.6810   65.1170 Cl  0  0  0  0  0  0  0  0  0  0  0  0
   40.3040   83.2930   62.7910 C   0  0  0  0  0  0  0  0  0  0  0  0
   39.2280   83.2760   62.9100 H   0  0  0  0  0  0  0  0  0  0  0  0
   43.2920   83.2680   55.9200 C   0  0  0  0  0  0  0  0  0  0  0  0
   44.1230   83.0450   57.0070 C   0  0  0  0  0  0  0  0  0  0  0  0
   45.3950   83.6580   56.9960 C   0  0  0  0  0  0  0  0  0  0  0  0
   45.7120   84.4260   55.9210 N   0  0  0  0  0  0  0  0  0  0  0  0
   44.8780   84.6180   54.8880 C   0  0  0  0  0  0  0  0  0  0  0  0
   43.6770   84.0410   54.8930 N   0  0  0  0  0  0  0  0  0  0  0  0
   42.3310   82.7760   55.9770 H   0  0  0  0  0  0  0  0  0  0  0  0
   46.1090   83.5320   57.8140 H   0  0  0  0  0  0  0  0  0  0  0  0
   45.3970   85.4890   53.7990 C   0  0  0  0  0  0  0  0  0  0  0  0
   45.8640   86.7010   54.2780 F   0  0  0  0  0  0  0  0  0  0  0  0
   46.4260   84.8540   53.1330 F   0  0  0  0  0  0  0  0  0  0  0  0
   44.3790   85.8340   52.9080 F   0  0  0  0  0  0  0  0  0  0  0  0
  1  2  1  0  0  0  0
  2  8  1  0  0  0  0
  3  4  1  0  0  0  0
  3  2  2  0  0  0  0
  4  5  2  0  0  0  0
  5 10  1  0  0  0  0
  5  6  1  0  0  0  0
  6  7  1  0  0  0  0
  8  6  2  0  0  0  0
  8 13  1  0  0  0  0
  9  4  1  0  0  0  0
 11 12  1  0  0  0  0
 12 19  1  0  0  0  0
 13 12  2  0  0  0  0
 13 14  1  0  0  0  0
 14 16  2  0  0  0  0
 15 14  1  0  0  0  0
 16 17  1  0  0  0  0
 17 18  1  0  0  0  0
 19 20  1  0  0  0  0
 19 17  2  0  0  0  0
 21 27  1  0  0  0  0
 21 22  1  0  0  0  0
 22  3  1  0  0  0  0
 23 22  2  0  0  0  0
 23 28  1  0  0  0  0
 24 23  1  0  0  0  0
 25 26  1  0  0  0  0
 25 24  2  0  0  0  0
 26 21  2  0  0  0  0
 29 30  1  0  0  0  0
 29 25  1  0  0  0  0
 31 29  1  0  0  0  0
 32 29  1  0  0  0  0
M  END
>  <minimizedAffinity>
-4.38063955

>  <minimizedRMSD>
8.11608791

$$$$
