
 OpenBabel03212521073D

 37 40  0  0  0  0  0  0  0  0999 V2000
   41.8300   84.2520   61.6190 C   0  0  0  0  0  0  0  0  0  0  0  0
   41.4360   83.9880   62.9240 C   0  0  0  0  0  0  0  0  0  0  0  0
   40.1470   83.5670   63.2340 C   0  0  0  0  0  0  0  0  0  0  0  0
   39.2330   83.4080   62.2020 C   0  0  0  0  0  0  0  0  0  0  0  0
   39.6180   83.6700   60.8860 C   0  0  0  0  0  0  0  0  0  0  0  0
   40.9050   84.0870   60.6010 C   0  0  0  0  0  0  0  0  0  0  0  0
   42.1500   84.1130   63.7270 H   0  0  0  0  0  0  0  0  0  0  0  0
   39.8940   83.3760   64.2690 H   0  0  0  0  0  0  0  0  0  0  0  0
   38.2300   83.0850   62.4030 H   0  0  0  0  0  0  0  0  0  0  0  0
   38.8840   83.5380   60.0950 H   0  0  0  0  0  0  0  0  0  0  0  0
   45.4060   84.1390   60.8890 C   0  0  0  0  0  0  0  0  0  0  0  0
   45.7650   85.4910   60.8580 C   0  0  0  0  0  0  0  0  0  0  0  0
   44.7540   86.4410   61.0930 C   0  0  0  0  0  0  0  0  0  0  0  0
   43.4960   86.0050   61.3360 N   0  0  0  0  0  0  0  0  0  0  0  0
   43.1830   84.6860   61.3580 C   0  0  0  0  0  0  0  0  0  0  0  0
   44.1380   83.7820   61.1370 N   0  0  0  0  0  0  0  0  0  0  0  0
   46.1440   83.3500   60.7160 H   0  0  0  0  0  0  0  0  0  0  0  0
   46.7890   85.7310   60.6580 H   0  0  0  0  0  0  0  0  0  0  0  0
   45.0330   87.4860   61.0690 H   0  0  0  0  0  0  0  0  0  0  0  0
   41.2610   84.3480   59.2180 C   0  0  0  0  0  0  0  0  0  0  0  0
   40.7320   85.5550   58.7690 C   0  0  0  0  0  0  0  0  0  0  0  0
   40.9570   85.9920   57.4700 C   0  0  0  0  0  0  0  0  0  0  0  0
   41.6970   85.2090   56.6830 N   0  0  0  0  0  0  0  0  0  0  0  0
   42.2160   84.0260   57.1230 C   0  0  0  0  0  0  0  0  0  0  0  0
   41.9980   83.6040   58.3810 N   0  0  0  0  0  0  0  0  0  0  0  0
   40.1180   86.2450   59.3610 H   0  0  0  0  0  0  0  0  0  0  0  0
   40.5480   86.9390   57.1010 H   0  0  0  0  0  0  0  0  0  0  0  0
   40.7820   81.6350   56.1460 Cl  0  0  0  0  0  0  0  0  0  0  0  0
   42.4500   82.0270   55.7080 C   0  0  0  0  0  0  0  0  0  0  0  0
   43.0230   83.1900   56.2350 C   0  0  0  0  0  0  0  0  0  0  0  0
   44.3370   83.5240   55.9060 C   0  0  0  0  0  0  0  0  0  0  0  0
   44.7890   84.4180   56.3070 H   0  0  0  0  0  0  0  0  0  0  0  0
   45.0220   82.6680   55.0560 C   0  0  0  0  0  3  0  0  0  0  0  0
   44.4520   81.5060   54.5290 C   0  0  0  0  0  0  0  0  0  0  0  0
   45.3870   80.4640   53.4530 Cl  0  0  0  0  0  0  0  0  0  0  0  0
   43.1520   81.1870   54.8620 C   0  0  0  0  0  0  0  0  0  0  0  0
   42.6840   80.2890   54.4660 H   0  0  0  0  0  0  0  0  0  0  0  0
  1  2  1  0  0  0  0
  2  3  2  0  0  0  0
  2  7  1  0  0  0  0
  3  8  1  0  0  0  0
  4  9  1  0  0  0  0
  4  3  1  0  0  0  0
  5  4  2  0  0  0  0
  6  5  1  0  0  0  0
  6  1  2  0  0  0  0
 10  5  1  0  0  0  0
 11 16  1  0  0  0  0
 12 11  2  0  0  0  0
 12 13  1  0  0  0  0
 13 14  2  0  0  0  0
 14 15  1  0  0  0  0
 15  1  1  0  0  0  0
 16 15  2  0  0  0  0
 17 11  1  0  0  0  0
 18 12  1  0  0  0  0
 19 13  1  0  0  0  0
 20  6  1  0  0  0  0
 21 20  1  0  0  0  0
 21 26  1  0  0  0  0
 22 21  2  0  0  0  0
 23 24  2  0  0  0  0
 23 22  1  0  0  0  0
 24 25  1  0  0  0  0
 25 20  2  0  0  0  0
 27 22  1  0  0  0  0
 29 28  1  0  0  0  0
 29 30  1  0  0  0  0
 30 24  1  0  0  0  0
 31 30  2  0  0  0  0
 31 32  1  0  0  0  0
 33 31  1  0  0  0  0
 34 36  1  0  0  0  0
 34 33  2  0  0  0  0
 35 34  1  0  0  0  0
 36 29  2  0  0  0  0
 37 36  1  0  0  0  0
M  END
>  <minimizedAffinity>
-5.53922224

>  <minimizedRMSD>
0.138083071

$$$$
