
 OpenBabel03212520133D

 32 34  0  0  0  0  0  0  0  0999 V2000
   43.2600   83.4730   58.6230 Cl  0  0  0  0  0  0  0  0  0  0  0  0
   41.9020   82.4160   58.2230 C   0  0  0  0  0  0  0  0  0  0  0  0
   40.9590   82.0200   59.1540 C   0  0  0  0  0  0  0  0  0  0  0  0
   39.9650   81.1930   58.6710 C   0  0  0  0  0  0  0  0  0  0  0  0
   39.8380   80.7410   57.3680 C   0  0  0  0  0  0  0  0  0  0  0  0
   40.7890   81.1580   56.4890 C   0  0  0  0  0  0  0  0  0  0  0  0
   40.7320   80.6450   54.7990 Cl  0  0  0  0  0  0  0  0  0  0  0  0
   41.8060   81.9830   56.9110 C   0  0  0  0  0  0  0  0  0  0  0  0
   39.2180   80.8780   59.4050 H   0  0  0  0  0  0  0  0  0  0  0  0
   39.0230   80.0960   57.0890 H   0  0  0  0  0  0  0  0  0  0  0  0
   44.3400   80.3520   56.5040 Cl  0  0  0  0  0  0  0  0  0  0  0  0
   43.9890   81.8050   55.6180 C   0  0  0  0  0  0  0  0  0  0  0  0
   42.8120   82.4080   55.9260 C   0  0  0  0  0  0  0  0  0  0  0  0
   42.4040   83.5820   55.2910 C   0  0  0  0  0  0  0  0  0  0  0  0
   41.4840   84.1390   55.4660 H   0  0  0  0  0  0  0  0  0  0  0  0
   43.2040   84.1670   54.3160 C   0  0  0  0  0  3  0  0  0  0  0  0
   44.4070   83.5470   54.0060 C   0  0  0  0  0  0  0  0  0  0  0  0
   45.4530   84.2400   52.7870 Cl  0  0  0  0  0  0  0  0  0  0  0  0
   44.7910   82.3780   54.6510 C   0  0  0  0  0  0  0  0  0  0  0  0
   45.7210   81.8640   54.4380 H   0  0  0  0  0  0  0  0  0  0  0  0
   41.7870   81.8910   61.5330 C   0  0  0  0  0  0  0  0  0  0  0  0
   41.0730   82.4740   60.4970 C   0  0  0  0  0  0  0  0  0  0  0  0
   40.3620   83.6610   60.7780 C   0  0  0  0  0  0  0  0  0  0  0  0
   40.4290   84.1490   62.0440 N   0  0  0  0  0  0  0  0  0  0  0  0
   41.1320   83.5550   63.0210 C   0  0  0  0  0  0  0  0  0  0  0  0
   41.8050   82.4340   62.7610 N   0  0  0  0  0  0  0  0  0  0  0  0
   42.3130   80.9860   61.2670 H   0  0  0  0  0  0  0  0  0  0  0  0
   39.7750   84.1820   60.0160 H   0  0  0  0  0  0  0  0  0  0  0  0
   41.0890   84.2320   64.3440 C   0  0  0  0  0  0  0  0  0  0  0  0
   40.7840   85.5780   64.2320 F   0  0  0  0  0  0  0  0  0  0  0  0
   40.1430   83.6340   65.1530 F   0  0  0  0  0  0  0  0  0  0  0  0
   42.3420   84.2080   64.9580 F   0  0  0  0  0  0  0  0  0  0  0  0
  2  1  1  0  0  0  0
  2  3  1  0  0  0  0
  3 22  1  0  0  0  0
  4  3  2  0  0  0  0
  4  9  1  0  0  0  0
  5  4  1  0  0  0  0
  6  8  1  0  0  0  0
  6  5  2  0  0  0  0
  7  6  1  0  0  0  0
  8  2  2  0  0  0  0
 10  5  1  0  0  0  0
 12 13  1  0  0  0  0
 12 11  1  0  0  0  0
 13  8  1  0  0  0  0
 14 15  1  0  0  0  0
 14 13  2  0  0  0  0
 16 14  1  0  0  0  0
 17 16  2  0  0  0  0
 17 19  1  0  0  0  0
 18 17  1  0  0  0  0
 19 12  2  0  0  0  0
 20 19  1  0  0  0  0
 21 26  1  0  0  0  0
 22 23  1  0  0  0  0
 22 21  2  0  0  0  0
 23 24  2  0  0  0  0
 24 25  1  0  0  0  0
 25 29  1  0  0  0  0
 26 25  2  0  0  0  0
 27 21  1  0  0  0  0
 28 23  1  0  0  0  0
 29 32  1  0  0  0  0
 29 31  1  0  0  0  0
 30 29  1  0  0  0  0
M  END
>  <minimizedAffinity>
-5.23971081

>  <minimizedRMSD>
1.49116874

$$$$
