
 OpenBabel03212521063D

 37 40  0  0  0  0  0  0  0  0999 V2000
   41.8120   84.2530   61.5640 C   0  0  0  0  0  0  0  0  0  0  0  0
   41.4570   83.9610   62.8740 C   0  0  0  0  0  0  0  0  0  0  0  0
   40.1750   83.5410   63.2130 C   0  0  0  0  0  0  0  0  0  0  0  0
   39.2280   83.4130   62.2060 C   0  0  0  0  0  0  0  0  0  0  0  0
   39.5740   83.7040   60.8860 C   0  0  0  0  0  0  0  0  0  0  0  0
   40.8550   84.1200   60.5710 C   0  0  0  0  0  0  0  0  0  0  0  0
   42.1960   84.0610   63.6570 H   0  0  0  0  0  0  0  0  0  0  0  0
   39.9520   83.3260   64.2510 H   0  0  0  0  0  0  0  0  0  0  0  0
   38.2290   83.0920   62.4300 H   0  0  0  0  0  0  0  0  0  0  0  0
   38.8150   83.5960   60.1150 H   0  0  0  0  0  0  0  0  0  0  0  0
   45.3400   84.1430   60.6300 C   0  0  0  0  0  0  0  0  0  0  0  0
   45.7310   85.4840   60.7100 C   0  0  0  0  0  0  0  0  0  0  0  0
   44.7570   86.4260   61.0910 C   0  0  0  0  0  0  0  0  0  0  0  0
   43.5040   85.9930   61.3600 N   0  0  0  0  0  0  0  0  0  0  0  0
   43.1600   84.6840   61.2720 C   0  0  0  0  0  0  0  0  0  0  0  0
   44.0790   83.7880   60.9110 N   0  0  0  0  0  0  0  0  0  0  0  0
   46.0480   83.3610   60.3400 H   0  0  0  0  0  0  0  0  0  0  0  0
   46.7480   85.7220   60.4770 H   0  0  0  0  0  0  0  0  0  0  0  0
   45.0600   87.4630   61.1520 H   0  0  0  0  0  0  0  0  0  0  0  0
   41.1710   84.4110   59.1850 C   0  0  0  0  0  0  0  0  0  0  0  0
   40.7420   85.6840   58.8160 C   0  0  0  0  0  0  0  0  0  0  0  0
   40.9480   86.1590   57.5280 C   0  0  0  0  0  0  0  0  0  0  0  0
   41.5710   85.3470   56.6700 N   0  0  0  0  0  0  0  0  0  0  0  0
   41.9910   84.1010   57.0310 C   0  0  0  0  0  0  0  0  0  0  0  0
   41.7910   83.6410   58.2800 N   0  0  0  0  0  0  0  0  0  0  0  0
   40.2260   86.4000   59.4680 H   0  0  0  0  0  0  0  0  0  0  0  0
   40.6160   87.1570   57.2210 H   0  0  0  0  0  0  0  0  0  0  0  0
   44.9210   84.4740   56.9900 Cl  0  0  0  0  0  0  0  0  0  0  0  0
   44.0630   83.3230   55.9580 C   0  0  0  0  0  0  0  0  0  0  0  0
   42.6700   83.2360   56.0680 C   0  0  0  0  0  0  0  0  0  0  0  0
   41.9690   82.3360   55.2670 C   0  0  0  0  0  0  0  0  0  0  0  0
   40.8960   82.2610   55.3430 H   0  0  0  0  0  0  0  0  0  0  0  0
   42.7020   81.5580   54.3830 C   0  0  0  0  0  3  0  0  0  0  0  0
   44.0920   81.6430   54.2710 C   0  0  0  0  0  0  0  0  0  0  0  0
   44.9590   80.6190   53.1210 Cl  0  0  0  0  0  0  0  0  0  0  0  0
   44.7750   82.5370   55.0690 C   0  0  0  0  0  0  0  0  0  0  0  0
   45.8570   82.6240   55.0030 H   0  0  0  0  0  0  0  0  0  0  0  0
  1  2  1  0  0  0  0
  2  3  2  0  0  0  0
  2  7  1  0  0  0  0
  3  8  1  0  0  0  0
  4  9  1  0  0  0  0
  4  3  1  0  0  0  0
  5  4  2  0  0  0  0
  6  5  1  0  0  0  0
  6  1  2  0  0  0  0
 10  5  1  0  0  0  0
 11 12  2  0  0  0  0
 11 16  1  0  0  0  0
 12 13  1  0  0  0  0
 13 19  1  0  0  0  0
 13 14  2  0  0  0  0
 15 14  1  0  0  0  0
 15  1  1  0  0  0  0
 16 15  2  0  0  0  0
 17 11  1  0  0  0  0
 18 12  1  0  0  0  0
 20  6  1  0  0  0  0
 21 20  1  0  0  0  0
 21 26  1  0  0  0  0
 22 21  2  0  0  0  0
 23 24  2  0  0  0  0
 23 22  1  0  0  0  0
 24 25  1  0  0  0  0
 25 20  2  0  0  0  0
 27 22  1  0  0  0  0
 29 30  1  0  0  0  0
 29 28  1  0  0  0  0
 30 24  1  0  0  0  0
 31 32  1  0  0  0  0
 31 30  2  0  0  0  0
 33 31  1  0  0  0  0
 34 33  2  0  0  0  0
 34 36  1  0  0  0  0
 35 34  1  0  0  0  0
 36 29  2  0  0  0  0
 37 36  1  0  0  0  0
M  END
>  <minimizedAffinity>
-5.54281521

>  <minimizedRMSD>
1.02797294

$$$$
