
 OpenBabel03212520273D

 29 31  0  0  0  0  0  0  0  0999 V2000
   42.7020   83.3120   62.0460 C   0  0  0  0  0  0  0  0  0  0  0  0
   43.1720   83.3680   63.3620 C   0  0  0  0  0  0  0  0  0  0  0  0
   44.4990   82.9510   63.2130 C   0  0  0  0  0  0  0  0  0  0  0  0
   44.7640   82.6790   61.9090 N   0  0  0  0  0  0  0  0  0  0  0  0
   43.6510   82.9060   61.2140 N   0  0  0  0  0  0  0  0  0  0  0  0
   42.6830   83.6510   64.2870 H   0  0  0  0  0  0  0  0  0  0  0  0
   45.1950   82.8690   64.0540 H   0  0  0  0  0  0  0  0  0  0  0  0
   38.9810   83.5480   61.9820 C   0  0  0  0  0  0  0  0  0  0  0  0
   40.2670   83.1860   62.3900 C   0  0  0  0  0  0  0  0  0  0  0  0
   41.3470   83.6580   61.6630 C   0  0  0  0  0  0  0  0  0  0  0  0
   41.1250   84.4590   60.5730 N   0  0  0  0  0  0  0  0  0  0  0  0
   39.8520   84.7780   60.2210 C   0  0  0  0  0  0  0  0  0  0  0  0
   38.8060   84.3280   60.9170 N   0  0  0  0  0  0  0  0  0  0  0  0
   38.1840   83.1430   62.5970 H   0  0  0  0  0  0  0  0  0  0  0  0
   40.4530   82.5590   63.2450 H   0  0  0  0  0  0  0  0  0  0  0  0
   39.7400   85.4230   59.3390 H   0  0  0  0  0  0  0  0  0  0  0  0
   46.0270   82.2190   61.3440 C   0  0  0  0  0  0  0  0  0  0  0  0
   46.3980   83.0200   60.6760 H   0  0  0  0  0  0  0  0  0  0  0  0
   46.7320   82.1350   62.1890 H   0  0  0  0  0  0  0  0  0  0  0  0
   46.1420   79.7180   63.0720 Cl  0  0  0  0  0  0  0  0  0  0  0  0
   45.9640   79.7230   61.3250 C   0  0  0  0  0  0  0  0  0  0  0  0
   45.9250   80.9270   60.6510 C   0  0  0  0  0  0  0  0  0  0  0  0
   45.7830   80.8810   59.2600 C   0  0  0  0  0  0  0  0  0  0  0  0
   45.7500   81.8230   58.7140 H   0  0  0  0  0  0  0  0  0  0  0  0
   45.6810   79.7090   58.5410 C   0  0  0  0  0  3  0  0  0  0  0  0
   45.7190   78.4980   59.2230 C   0  0  0  0  0  0  0  0  0  0  0  0
   45.5930   76.9840   58.3510 Cl  0  0  0  0  0  0  0  0  0  0  0  0
   45.8610   78.5550   60.5960 C   0  0  0  0  0  0  0  0  0  0  0  0
   45.8900   77.5960   61.1180 H   0  0  0  0  0  0  0  0  0  0  0  0
  1  2  1  0  0  0  0
  2  6  1  0  0  0  0
  3  2  2  0  0  0  0
  3  7  1  0  0  0  0
  4  3  1  0  0  0  0
  5  4  1  0  0  0  0
  5  1  2  0  0  0  0
  8  9  1  0  0  0  0
  8 14  1  0  0  0  0
  9 15  1  0  0  0  0
 10  1  1  0  0  0  0
 10  9  2  0  0  0  0
 11 10  1  0  0  0  0
 12 11  2  0  0  0  0
 12 13  1  0  0  0  0
 13  8  2  0  0  0  0
 16 12  1  0  0  0  0
 17  4  1  0  0  0  0
 17 19  1  0  0  0  0
 18 17  1  0  0  0  0
 21 20  1  0  0  0  0
 22 21  1  0  0  0  0
 22 17  1  0  0  0  0
 23 22  2  0  0  0  0
 24 23  1  0  0  0  0
 25 26  2  0  0  0  0
 25 23  1  0  0  0  0
 26 28  1  0  0  0  0
 27 26  1  0  0  0  0
 28 29  1  0  0  0  0
 28 21  2  0  0  0  0
M  END
>  <minimizedAffinity>
-4.21928024

>  <minimizedRMSD>
5.09724426

$$$$
