
 OpenBabel03212521063D

 37 40  0  0  0  0  0  0  0  0999 V2000
   41.8200   84.2720   61.6360 C   0  0  0  0  0  0  0  0  0  0  0  0
   41.4320   83.9380   62.9260 C   0  0  0  0  0  0  0  0  0  0  0  0
   40.1390   83.5160   63.2200 C   0  0  0  0  0  0  0  0  0  0  0  0
   39.2160   83.4300   62.1870 C   0  0  0  0  0  0  0  0  0  0  0  0
   39.5950   83.7630   60.8870 C   0  0  0  0  0  0  0  0  0  0  0  0
   40.8860   84.1800   60.6160 C   0  0  0  0  0  0  0  0  0  0  0  0
   42.1520   84.0070   63.7300 H   0  0  0  0  0  0  0  0  0  0  0  0
   39.8900   83.2690   64.2450 H   0  0  0  0  0  0  0  0  0  0  0  0
   38.2100   83.1080   62.3770 H   0  0  0  0  0  0  0  0  0  0  0  0
   38.8540   83.6860   60.0950 H   0  0  0  0  0  0  0  0  0  0  0  0
   45.4080   84.1510   60.9720 C   0  0  0  0  0  0  0  0  0  0  0  0
   45.7670   85.5020   60.9210 C   0  0  0  0  0  0  0  0  0  0  0  0
   44.7500   86.4560   61.1190 C   0  0  0  0  0  0  0  0  0  0  0  0
   43.4890   86.0220   61.3480 N   0  0  0  0  0  0  0  0  0  0  0  0
   43.1770   84.7030   61.3910 C   0  0  0  0  0  0  0  0  0  0  0  0
   44.1370   83.7960   61.2040 N   0  0  0  0  0  0  0  0  0  0  0  0
   46.1500   83.3600   60.8270 H   0  0  0  0  0  0  0  0  0  0  0  0
   46.7930   85.7400   60.7340 H   0  0  0  0  0  0  0  0  0  0  0  0
   45.0280   87.5000   61.0790 H   0  0  0  0  0  0  0  0  0  0  0  0
   41.2370   84.5160   59.2490 C   0  0  0  0  0  0  0  0  0  0  0  0
   40.5290   85.6250   58.7930 C   0  0  0  0  0  0  0  0  0  0  0  0
   40.7180   86.1120   57.5070 C   0  0  0  0  0  0  0  0  0  0  0  0
   41.6020   85.4730   56.7370 N   0  0  0  0  0  0  0  0  0  0  0  0
   42.2960   84.3870   57.1830 C   0  0  0  0  0  0  0  0  0  0  0  0
   42.1130   83.9160   58.4290 N   0  0  0  0  0  0  0  0  0  0  0  0
   39.7900   86.1950   59.3710 H   0  0  0  0  0  0  0  0  0  0  0  0
   40.1680   86.9820   57.1330 H   0  0  0  0  0  0  0  0  0  0  0  0
   41.2150   81.9440   55.9200 Cl  0  0  0  0  0  0  0  0  0  0  0  0
   42.8600   82.5390   55.6600 C   0  0  0  0  0  0  0  0  0  0  0  0
   43.2580   83.7100   56.3140 C   0  0  0  0  0  0  0  0  0  0  0  0
   44.5500   84.2010   56.1280 C   0  0  0  0  0  0  0  0  0  0  0  0
   44.8680   85.1030   56.6280 H   0  0  0  0  0  0  0  0  0  0  0  0
   45.3910   83.4880   55.2850 C   0  0  0  0  0  3  0  0  0  0  0  0
   44.9960   82.3190   54.6300 C   0  0  0  0  0  0  0  0  0  0  0  0
   46.1220   81.4650   53.5710 Cl  0  0  0  0  0  0  0  0  0  0  0  0
   43.7150   81.8440   54.8240 C   0  0  0  0  0  0  0  0  0  0  0  0
   43.3810   80.9360   54.3270 H   0  0  0  0  0  0  0  0  0  0  0  0
  1  2  1  0  0  0  0
  2  3  2  0  0  0  0
  2  7  1  0  0  0  0
  3  8  1  0  0  0  0
  4  9  1  0  0  0  0
  4  3  1  0  0  0  0
  5  4  2  0  0  0  0
  6  5  1  0  0  0  0
  6  1  2  0  0  0  0
 10  5  1  0  0  0  0
 11 16  1  0  0  0  0
 12 11  2  0  0  0  0
 12 13  1  0  0  0  0
 13 14  2  0  0  0  0
 14 15  1  0  0  0  0
 15  1  1  0  0  0  0
 16 15  2  0  0  0  0
 17 11  1  0  0  0  0
 18 12  1  0  0  0  0
 19 13  1  0  0  0  0
 20  6  1  0  0  0  0
 21 20  1  0  0  0  0
 21 26  1  0  0  0  0
 22 21  2  0  0  0  0
 23 24  2  0  0  0  0
 23 22  1  0  0  0  0
 24 25  1  0  0  0  0
 25 20  2  0  0  0  0
 27 22  1  0  0  0  0
 29 28  1  0  0  0  0
 29 30  1  0  0  0  0
 30 24  1  0  0  0  0
 31 30  2  0  0  0  0
 31 32  1  0  0  0  0
 33 31  1  0  0  0  0
 34 36  1  0  0  0  0
 34 33  2  0  0  0  0
 35 34  1  0  0  0  0
 36 29  2  0  0  0  0
 37 36  1  0  0  0  0
M  END
>  <minimizedAffinity>
-5.5485673

>  <minimizedRMSD>
0.770914316

$$$$
