
 OpenBabel03212520133D

 32 34  0  0  0  0  0  0  0  0999 V2000
   41.5290   83.2570   58.7490 Cl  0  0  0  0  0  0  0  0  0  0  0  0
   42.4730   81.7750   58.9330 C   0  0  0  0  0  0  0  0  0  0  0  0
   43.0080   81.0870   57.8590 C   0  0  0  0  0  0  0  0  0  0  0  0
   43.7170   79.9490   58.1830 C   0  0  0  0  0  0  0  0  0  0  0  0
   43.9320   79.4530   59.4580 C   0  0  0  0  0  0  0  0  0  0  0  0
   43.3860   80.1640   60.4820 C   0  0  0  0  0  0  0  0  0  0  0  0
   43.5910   79.6290   62.1530 Cl  0  0  0  0  0  0  0  0  0  0  0  0
   42.6670   81.3080   60.2220 C   0  0  0  0  0  0  0  0  0  0  0  0
   44.1420   79.4030   57.3360 H   0  0  0  0  0  0  0  0  0  0  0  0
   44.5010   78.5530   59.6080 H   0  0  0  0  0  0  0  0  0  0  0  0
   39.8980   80.6060   61.2700 Cl  0  0  0  0  0  0  0  0  0  0  0  0
   40.8850   81.8640   61.9510 C   0  0  0  0  0  0  0  0  0  0  0  0
   42.0950   82.0440   61.3600 C   0  0  0  0  0  0  0  0  0  0  0  0
   42.9880   83.0200   61.8050 C   0  0  0  0  0  0  0  0  0  0  0  0
   43.9760   83.2410   61.4000 H   0  0  0  0  0  0  0  0  0  0  0  0
   42.6550   83.8390   62.8770 C   0  0  0  0  0  3  0  0  0  0  0  0
   41.4170   83.6520   63.4780 C   0  0  0  0  0  0  0  0  0  0  0  0
   40.9450   84.6570   64.8310 Cl  0  0  0  0  0  0  0  0  0  0  0  0
   40.5450   82.6740   63.0160 C   0  0  0  0  0  0  0  0  0  0  0  0
   39.5710   82.4960   63.4570 H   0  0  0  0  0  0  0  0  0  0  0  0
   41.6750   81.4250   55.7450 C   0  0  0  0  0  0  0  0  0  0  0  0
   42.7980   81.5820   56.5420 C   0  0  0  0  0  0  0  0  0  0  0  0
   43.8830   82.3120   56.0090 C   0  0  0  0  0  0  0  0  0  0  0  0
   43.7470   82.8120   54.7530 N   0  0  0  0  0  0  0  0  0  0  0  0
   42.6420   82.6390   54.0130 C   0  0  0  0  0  0  0  0  0  0  0  0
   41.6150   81.9500   54.5100 N   0  0  0  0  0  0  0  0  0  0  0  0
   40.8740   80.8590   56.1970 H   0  0  0  0  0  0  0  0  0  0  0  0
   44.8050   82.4800   56.5740 H   0  0  0  0  0  0  0  0  0  0  0  0
   42.6740   83.2580   52.6610 C   0  0  0  0  0  0  0  0  0  0  0  0
   43.2840   84.5000   52.6690 F   0  0  0  0  0  0  0  0  0  0  0  0
   43.3540   82.4400   51.7810 F   0  0  0  0  0  0  0  0  0  0  0  0
   41.3810   83.5060   52.1950 F   0  0  0  0  0  0  0  0  0  0  0  0
  1  2  1  0  0  0  0
  2  8  1  0  0  0  0
  3  4  1  0  0  0  0
  3  2  2  0  0  0  0
  4  5  2  0  0  0  0
  5 10  1  0  0  0  0
  5  6  1  0  0  0  0
  6  7  1  0  0  0  0
  8  6  2  0  0  0  0
  8 13  1  0  0  0  0
  9  4  1  0  0  0  0
 11 12  1  0  0  0  0
 12 19  1  0  0  0  0
 13 14  1  0  0  0  0
 13 12  2  0  0  0  0
 14 16  2  0  0  0  0
 15 14  1  0  0  0  0
 16 17  1  0  0  0  0
 17 18  1  0  0  0  0
 19 20  1  0  0  0  0
 19 17  2  0  0  0  0
 21 27  1  0  0  0  0
 21 22  1  0  0  0  0
 22  3  1  0  0  0  0
 23 22  2  0  0  0  0
 23 28  1  0  0  0  0
 24 23  1  0  0  0  0
 25 26  1  0  0  0  0
 25 24  2  0  0  0  0
 26 21  2  0  0  0  0
 29 30  1  0  0  0  0
 29 25  1  0  0  0  0
 31 29  1  0  0  0  0
 32 29  1  0  0  0  0
M  END
>  <minimizedAffinity>
-4.36481619

>  <minimizedRMSD>
8.15799332

$$$$
