
 OpenBabel03212520263D

 29 31  0  0  0  0  0  0  0  0999 V2000
   42.5900   84.6830   61.1880 C   0  0  0  0  0  0  0  0  0  0  0  0
   43.3490   85.2960   62.1880 C   0  0  0  0  0  0  0  0  0  0  0  0
   44.2640   86.0450   61.4410 C   0  0  0  0  0  0  0  0  0  0  0  0
   44.0400   85.8700   60.1120 N   0  0  0  0  0  0  0  0  0  0  0  0
   43.0130   85.0330   59.9810 N   0  0  0  0  0  0  0  0  0  0  0  0
   43.2890   85.2410   63.2700 H   0  0  0  0  0  0  0  0  0  0  0  0
   45.0360   86.6720   61.8980 H   0  0  0  0  0  0  0  0  0  0  0  0
   40.6030   81.5890   61.8080 C   0  0  0  0  0  0  0  0  0  0  0  0
   41.6970   82.4160   61.5460 C   0  0  0  0  0  0  0  0  0  0  0  0
   41.4870   83.7820   61.4560 C   0  0  0  0  0  0  0  0  0  0  0  0
   40.2200   84.2780   61.6250 N   0  0  0  0  0  0  0  0  0  0  0  0
   39.1910   83.4270   61.8770 C   0  0  0  0  0  0  0  0  0  0  0  0
   39.3860   82.1100   61.9650 N   0  0  0  0  0  0  0  0  0  0  0  0
   40.8410   80.5320   61.8650 H   0  0  0  0  0  0  0  0  0  0  0  0
   42.6960   82.0370   61.4130 H   0  0  0  0  0  0  0  0  0  0  0  0
   38.2010   83.8860   62.0020 H   0  0  0  0  0  0  0  0  0  0  0  0
   44.7760   86.4760   59.0080 C   0  0  0  0  0  0  0  0  0  0  0  0
   44.0970   87.2020   58.5210 H   0  0  0  0  0  0  0  0  0  0  0  0
   45.6040   87.0450   59.4630 H   0  0  0  0  0  0  0  0  0  0  0  0
   47.4380   85.1840   59.7120 Cl  0  0  0  0  0  0  0  0  0  0  0  0
   46.5100   84.8420   58.2600 C   0  0  0  0  0  0  0  0  0  0  0  0
   45.3130   85.4960   58.0530 C   0  0  0  0  0  0  0  0  0  0  0  0
   44.6090   85.1930   56.8830 C   0  0  0  0  0  0  0  0  0  0  0  0
   43.6620   85.7000   56.7040 H   0  0  0  0  0  0  0  0  0  0  0  0
   45.0470   84.2860   55.9410 C   0  0  0  0  0  3  0  0  0  0  0  0
   46.2540   83.6290   56.1540 C   0  0  0  0  0  0  0  0  0  0  0  0
   46.8500   82.4690   54.9850 Cl  0  0  0  0  0  0  0  0  0  0  0  0
   46.9420   83.9360   57.3110 C   0  0  0  0  0  0  0  0  0  0  0  0
   47.8870   83.4130   57.4640 H   0  0  0  0  0  0  0  0  0  0  0  0
  1 10  1  0  0  0  0
  1  2  1  0  0  0  0
  2  6  1  0  0  0  0
  3  7  1  0  0  0  0
  3  2  2  0  0  0  0
  4  3  1  0  0  0  0
  5  4  1  0  0  0  0
  5  1  2  0  0  0  0
  8 14  1  0  0  0  0
  8 13  1  0  0  0  0
  9  8  2  0  0  0  0
 10  9  1  0  0  0  0
 10 11  2  0  0  0  0
 11 12  1  0  0  0  0
 12 13  2  0  0  0  0
 12 16  1  0  0  0  0
 15  9  1  0  0  0  0
 17 19  1  0  0  0  0
 17  4  1  0  0  0  0
 18 17  1  0  0  0  0
 21 20  1  0  0  0  0
 22 21  1  0  0  0  0
 22 17  1  0  0  0  0
 23 22  2  0  0  0  0
 24 23  1  0  0  0  0
 25 26  2  0  0  0  0
 25 23  1  0  0  0  0
 26 28  1  0  0  0  0
 27 26  1  0  0  0  0
 28 29  1  0  0  0  0
 28 21  2  0  0  0  0
M  END
>  <minimizedAffinity>
-3.96715927

>  <minimizedRMSD>
1.1815753

$$$$
