
 OpenBabel03212521073D

 37 40  0  0  0  0  0  0  0  0999 V2000
   41.8260   84.2840   61.6120 C   0  0  0  0  0  0  0  0  0  0  0  0
   41.4550   83.8930   62.8920 C   0  0  0  0  0  0  0  0  0  0  0  0
   40.1650   83.4630   63.1860 C   0  0  0  0  0  0  0  0  0  0  0  0
   39.2270   83.4270   62.1640 C   0  0  0  0  0  0  0  0  0  0  0  0
   39.5880   83.8180   60.8740 C   0  0  0  0  0  0  0  0  0  0  0  0
   40.8770   84.2410   60.6040 C   0  0  0  0  0  0  0  0  0  0  0  0
   42.1870   83.9220   63.6870 H   0  0  0  0  0  0  0  0  0  0  0  0
   39.9300   83.1700   64.2010 H   0  0  0  0  0  0  0  0  0  0  0  0
   38.2220   83.1010   62.3530 H   0  0  0  0  0  0  0  0  0  0  0  0
   38.8350   83.7800   60.0910 H   0  0  0  0  0  0  0  0  0  0  0  0
   45.4100   84.1780   60.9240 C   0  0  0  0  0  0  0  0  0  0  0  0
   45.7670   85.5310   60.8970 C   0  0  0  0  0  0  0  0  0  0  0  0
   44.7510   86.4790   61.1190 C   0  0  0  0  0  0  0  0  0  0  0  0
   43.4920   86.0410   61.3480 N   0  0  0  0  0  0  0  0  0  0  0  0
   43.1810   84.7210   61.3670 C   0  0  0  0  0  0  0  0  0  0  0  0
   44.1400   83.8190   61.1570 N   0  0  0  0  0  0  0  0  0  0  0  0
   46.1520   83.3910   60.7590 H   0  0  0  0  0  0  0  0  0  0  0  0
   46.7930   85.7730   60.7080 H   0  0  0  0  0  0  0  0  0  0  0  0
   45.0280   87.5250   61.0980 H   0  0  0  0  0  0  0  0  0  0  0  0
   41.2090   84.6380   59.2480 C   0  0  0  0  0  0  0  0  0  0  0  0
   40.4140   85.6950   58.8110 C   0  0  0  0  0  0  0  0  0  0  0  0
   40.5720   86.2260   57.5380 C   0  0  0  0  0  0  0  0  0  0  0  0
   41.5130   85.6820   56.7620 N   0  0  0  0  0  0  0  0  0  0  0  0
   42.2920   84.6470   57.1900 C   0  0  0  0  0  0  0  0  0  0  0  0
   42.1380   84.1330   58.4240 N   0  0  0  0  0  0  0  0  0  0  0  0
   39.6260   86.1870   59.3950 H   0  0  0  0  0  0  0  0  0  0  0  0
   39.9550   87.0570   57.1790 H   0  0  0  0  0  0  0  0  0  0  0  0
   41.4110   82.1800   55.8240 Cl  0  0  0  0  0  0  0  0  0  0  0  0
   43.0130   82.9010   55.6140 C   0  0  0  0  0  0  0  0  0  0  0  0
   43.3140   84.0730   56.3160 C   0  0  0  0  0  0  0  0  0  0  0  0
   44.5690   84.6630   56.1700 C   0  0  0  0  0  0  0  0  0  0  0  0
   44.8120   85.5670   56.7060 H   0  0  0  0  0  0  0  0  0  0  0  0
   45.4730   84.0450   55.3170 C   0  0  0  0  0  3  0  0  0  0  0  0
   45.1740   82.8740   54.6150 C   0  0  0  0  0  0  0  0  0  0  0  0
   46.3760   82.1430   53.5460 Cl  0  0  0  0  0  0  0  0  0  0  0  0
   43.9290   82.3000   54.7690 C   0  0  0  0  0  0  0  0  0  0  0  0
   43.6700   81.3900   54.2340 H   0  0  0  0  0  0  0  0  0  0  0  0
  1  2  1  0  0  0  0
  2  3  2  0  0  0  0
  2  7  1  0  0  0  0
  3  8  1  0  0  0  0
  4  9  1  0  0  0  0
  4  3  1  0  0  0  0
  5  4  2  0  0  0  0
  6  5  1  0  0  0  0
  6  1  2  0  0  0  0
 10  5  1  0  0  0  0
 11 16  1  0  0  0  0
 12 11  2  0  0  0  0
 12 13  1  0  0  0  0
 13 14  2  0  0  0  0
 14 15  1  0  0  0  0
 15  1  1  0  0  0  0
 16 15  2  0  0  0  0
 17 11  1  0  0  0  0
 18 12  1  0  0  0  0
 19 13  1  0  0  0  0
 20  6  1  0  0  0  0
 21 20  1  0  0  0  0
 21 26  1  0  0  0  0
 22 21  2  0  0  0  0
 23 24  2  0  0  0  0
 23 22  1  0  0  0  0
 24 25  1  0  0  0  0
 25 20  2  0  0  0  0
 27 22  1  0  0  0  0
 29 28  1  0  0  0  0
 29 30  1  0  0  0  0
 30 24  1  0  0  0  0
 31 30  2  0  0  0  0
 31 32  1  0  0  0  0
 33 31  1  0  0  0  0
 34 36  1  0  0  0  0
 34 33  2  0  0  0  0
 35 34  1  0  0  0  0
 36 29  2  0  0  0  0
 37 36  1  0  0  0  0
M  END
>  <minimizedAffinity>
-5.5798111

>  <minimizedRMSD>
1.20708275

$$$$
