
 OpenBabel03212520063D

 42 46  0  0  0  0  0  0  0  0999 V2000
   44.2000   69.4480   59.9040 C   0  0  0  0  0  0  0  0  0  0  0  0
   43.4410   70.4470   59.2780 C   0  0  0  0  0  0  0  0  0  0  0  0
   42.1850   70.7100   59.7940 C   0  0  0  0  0  0  0  0  0  0  0  0
   41.7330   70.0170   60.8640 N   0  0  0  0  0  0  0  0  0  0  0  0
   42.4960   69.0540   61.4510 C   0  0  0  0  0  0  0  0  0  0  0  0
   43.7350   68.7650   60.9700 N   0  0  0  0  0  0  0  0  0  0  0  0
   45.1900   69.1290   59.6180 H   0  0  0  0  0  0  0  0  0  0  0  0
   44.0160   70.8750   58.4940 H   0  0  0  0  0  0  0  0  0  0  0  0
   41.9800   69.0350   63.8420 C   0  0  0  0  0  0  0  0  0  0  0  0
   42.0130   68.3450   62.6260 C   0  0  0  0  0  0  0  0  0  0  0  0
   41.5790   67.0210   62.5300 C   0  0  0  0  0  0  0  0  0  0  0  0
   41.0990   66.3440   63.6390 C   0  0  0  0  0  0  0  0  0  0  0  0
   40.6150   65.1270   63.9250 N   0  0  0  0  0  0  0  0  0  0  0  0
   40.2890   65.0260   65.2230 C   0  0  0  0  0  0  0  0  0  0  0  0
   40.5910   66.2280   65.7320 N   0  0  0  0  0  0  0  0  0  0  0  0
   41.0840   67.0530   64.8010 C   0  0  0  0  0  0  0  0  0  0  0  0
   41.4980   68.3610   64.9680 C   0  0  0  0  0  0  0  0  0  0  0  0
   42.3020   70.0450   63.9540 H   0  0  0  0  0  0  0  0  0  0  0  0
   41.6050   66.4820   61.5830 H   0  0  0  0  0  0  0  0  0  0  0  0
   40.5330   64.4060   63.1720 H   0  0  0  0  0  0  0  0  0  0  0  0
   39.8800   64.1200   65.6480 H   0  0  0  0  0  0  0  0  0  0  0  0
   41.4640   68.8800   65.9170 H   0  0  0  0  0  0  0  0  0  0  0  0
   42.5430   73.4970   60.8020 Cl  0  0  0  0  0  0  0  0  0  0  0  0
   41.3890   73.0350   59.5620 C   0  0  0  0  0  0  0  0  0  0  0  0
   41.3460   71.7200   59.1880 C   0  0  0  0  0  0  0  0  0  0  0  0
   40.4240   71.4500   58.1800 C   0  0  0  0  0  0  0  0  0  0  0  0
   39.6140   72.3890   57.5910 C   0  0  0  0  0  0  0  0  0  0  0  0
   39.7120   73.7120   58.0230 C   0  0  0  0  0  0  0  0  0  0  0  0
   38.7030   74.9420   57.3050 Cl  0  0  0  0  0  0  0  0  0  0  0  0
   40.6090   74.0330   59.0190 C   0  0  0  0  0  0  0  0  0  0  0  0
   40.3220   70.4360   57.8200 H   0  0  0  0  0  0  0  0  0  0  0  0
   38.9220   72.1040   56.8120 H   0  0  0  0  0  0  0  0  0  0  0  0
   38.7040   74.4860   61.2100 Cl  0  0  0  0  0  0  0  0  0  0  0  0
   39.8460   75.6610   60.5410 C   0  0  0  0  0  0  0  0  0  0  0  0
   40.7370   75.4060   59.4960 C   0  0  0  0  0  0  0  0  0  0  0  0
   41.5630   76.4090   59.0800 C   0  0  0  0  0  0  0  0  0  0  0  0
   42.2150   76.1050   58.2640 H   0  0  0  0  0  0  0  0  0  0  0  0
   41.5070   77.6330   59.6840 C   0  0  0  0  0  3  0  0  0  0  0  0
   40.6300   77.8960   60.7170 C   0  0  0  0  0  0  0  0  0  0  0  0
   40.5910   79.4800   61.4630 Cl  0  0  0  0  0  0  0  0  0  0  0  0
   39.7780   76.8920   61.1590 C   0  0  0  0  0  0  0  0  0  0  0  0
   39.1180   77.1480   61.9610 H   0  0  0  0  0  0  0  0  0  0  0  0
  1  6  1  0  0  0  0
  2  3  1  0  0  0  0
  2  1  2  0  0  0  0
  3  4  2  0  0  0  0
  4  5  1  0  0  0  0
  5 10  1  0  0  0  0
  6  5  2  0  0  0  0
  7  1  1  0  0  0  0
  8  2  1  0  0  0  0
  9 18  1  0  0  0  0
  9 17  1  0  0  0  0
 10  9  2  0  0  0  0
 11 10  1  0  0  0  0
 11 12  2  0  0  0  0
 12 13  1  0  0  0  0
 12 16  1  0  0  0  0
 13 14  1  0  0  0  0
 14 21  1  0  0  0  0
 14 15  2  0  0  0  0
 16 17  2  0  0  0  0
 16 15  1  0  0  0  0
 17 22  1  0  0  0  0
 19 11  1  0  0  0  0
 20 13  1  0  0  0  0
 24 23  1  0  0  0  0
 25 24  1  0  0  0  0
 25  3  1  0  0  0  0
 26 25  2  0  0  0  0
 27 28  2  0  0  0  0
 27 26  1  0  0  0  0
 28 30  1  0  0  0  0
 29 28  1  0  0  0  0
 30 35  1  0  0  0  0
 30 24  2  0  0  0  0
 31 26  1  0  0  0  0
 32 27  1  0  0  0  0
 34 41  1  0  0  0  0
 34 33  1  0  0  0  0
 35 34  2  0  0  0  0
 36 35  1  0  0  0  0
 36 38  2  0  0  0  0
 37 36  1  0  0  0  0
 38 39  1  0  0  0  0
 39 41  2  0  0  0  0
 39 40  1  0  0  0  0
 41 42  1  0  0  0  0
M  END
>  <minimizedAffinity>
-8.28610325

$$$$

 OpenBabel03212520063D

 42 46  0  0  0  0  0  0  0  0999 V2000
   43.2280   69.9900   57.6360 C   0  0  0  0  0  0  0  0  0  0  0  0
   42.4240   71.1040   57.3560 C   0  0  0  0  0  0  0  0  0  0  0  0
   41.5160   71.4960   58.3230 C   0  0  0  0  0  0  0  0  0  0  0  0
   41.4320   70.8140   59.4880 N   0  0  0  0  0  0  0  0  0  0  0  0
   42.2290   69.7370   59.7330 C   0  0  0  0  0  0  0  0  0  0  0  0
   43.1310   69.3200   58.8030 N   0  0  0  0  0  0  0  0  0  0  0  0
   43.9750   69.5650   56.9850 H   0  0  0  0  0  0  0  0  0  0  0  0
   42.6970   71.4940   56.4060 H   0  0  0  0  0  0  0  0  0  0  0  0
   42.4780   67.6790   61.0300 C   0  0  0  0  0  0  0  0  0  0  0  0
   42.1550   69.0390   61.0070 C   0  0  0  0  0  0  0  0  0  0  0  0
   41.7880   69.7180   62.1700 C   0  0  0  0  0  0  0  0  0  0  0  0
   41.7340   69.0660   63.3920 C   0  0  0  0  0  0  0  0  0  0  0  0
   41.4420   69.3680   64.6640 N   0  0  0  0  0  0  0  0  0  0  0  0
   41.5650   68.2940   65.4590 C   0  0  0  0  0  0  0  0  0  0  0  0
   41.9440   67.3120   64.6290 N   0  0  0  0  0  0  0  0  0  0  0  0
   42.0570   67.7440   63.3680 C   0  0  0  0  0  0  0  0  0  0  0  0
   42.4260   67.0110   62.2560 C   0  0  0  0  0  0  0  0  0  0  0  0
   42.7630   67.1270   60.1620 H   0  0  0  0  0  0  0  0  0  0  0  0
   41.5350   70.7780   62.1540 H   0  0  0  0  0  0  0  0  0  0  0  0
   41.1640   70.3430   64.9200 H   0  0  0  0  0  0  0  0  0  0  0  0
   41.3730   68.3360   66.5230 H   0  0  0  0  0  0  0  0  0  0  0  0
   42.6750   65.9570   62.2930 H   0  0  0  0  0  0  0  0  0  0  0  0
   42.2290   74.0140   59.7610 Cl  0  0  0  0  0  0  0  0  0  0  0  0
   40.8440   73.8420   58.6960 C   0  0  0  0  0  0  0  0  0  0  0  0
   40.6500   72.6300   58.0920 C   0  0  0  0  0  0  0  0  0  0  0  0
   39.5460   72.5930   57.2440 C   0  0  0  0  0  0  0  0  0  0  0  0
   38.7060   73.6530   57.0100 C   0  0  0  0  0  0  0  0  0  0  0  0
   38.9650   74.8600   57.6610 C   0  0  0  0  0  0  0  0  0  0  0  0
   37.9250   76.2360   57.3950 Cl  0  0  0  0  0  0  0  0  0  0  0  0
   40.0450   74.9500   58.5120 C   0  0  0  0  0  0  0  0  0  0  0  0
   39.3150   71.6750   56.7220 H   0  0  0  0  0  0  0  0  0  0  0  0
   37.8680   73.5490   56.3350 H   0  0  0  0  0  0  0  0  0  0  0  0
   38.7180   74.9420   61.1340 Cl  0  0  0  0  0  0  0  0  0  0  0  0
   39.7310   76.2300   60.4640 C   0  0  0  0  0  0  0  0  0  0  0  0
   40.3460   76.1950   59.2100 C   0  0  0  0  0  0  0  0  0  0  0  0
   41.1020   77.2620   58.8210 C   0  0  0  0  0  0  0  0  0  0  0  0
   41.5340   77.1320   57.8310 H   0  0  0  0  0  0  0  0  0  0  0  0
   41.2450   78.3360   59.6540 C   0  0  0  0  0  3  0  0  0  0  0  0
   40.6420   78.3810   60.8940 C   0  0  0  0  0  0  0  0  0  0  0  0
   40.8520   79.7780   61.9300 Cl  0  0  0  0  0  0  0  0  0  0  0  0
   39.8660   77.3080   61.3140 C   0  0  0  0  0  0  0  0  0  0  0  0
   39.4220   77.3930   62.2830 H   0  0  0  0  0  0  0  0  0  0  0  0
  1  6  1  0  0  0  0
  2  1  2  0  0  0  0
  2  3  1  0  0  0  0
  3  4  2  0  0  0  0
  4  5  1  0  0  0  0
  5 10  1  0  0  0  0
  6  5  2  0  0  0  0
  7  1  1  0  0  0  0
  8  2  1  0  0  0  0
  9 17  1  0  0  0  0
 10  9  2  0  0  0  0
 10 11  1  0  0  0  0
 11 12  2  0  0  0  0
 12 13  1  0  0  0  0
 13 20  1  0  0  0  0
 13 14  1  0  0  0  0
 14 21  1  0  0  0  0
 15 14  2  0  0  0  0
 16 12  1  0  0  0  0
 16 15  1  0  0  0  0
 17 22  1  0  0  0  0
 17 16  2  0  0  0  0
 18  9  1  0  0  0  0
 19 11  1  0  0  0  0
 24 23  1  0  0  0  0
 25  3  1  0  0  0  0
 25 24  2  0  0  0  0
 26 25  1  0  0  0  0
 27 26  2  0  0  0  0
 27 28  1  0  0  0  0
 28 30  2  0  0  0  0
 29 28  1  0  0  0  0
 30 24  1  0  0  0  0
 30 35  1  0  0  0  0
 31 26  1  0  0  0  0
 32 27  1  0  0  0  0
 34 33  1  0  0  0  0
 34 41  1  0  0  0  0
 35 34  2  0  0  0  0
 36 35  1  0  0  0  0
 36 38  2  0  0  0  0
 37 36  1  0  0  0  0
 38 39  1  0  0  0  0
 39 41  2  0  0  0  0
 39 40  1  0  0  0  0
 41 42  1  0  0  0  0
M  END
>  <minimizedAffinity>
-8.00070381

$$$$

 OpenBabel03212520063D

 42 46  0  0  0  0  0  0  0  0999 V2000
   44.9820   73.5330   59.0020 C   0  0  0  0  0  0  0  0  0  0  0  0
   44.1610   74.6420   58.7540 C   0  0  0  0  0  0  0  0  0  0  0  0
   42.8560   74.5830   59.2080 C   0  0  0  0  0  0  0  0  0  0  0  0
   42.4160   73.4870   59.8660 N   0  0  0  0  0  0  0  0  0  0  0  0
   43.2400   72.4260   60.0930 C   0  0  0  0  0  0  0  0  0  0  0  0
   44.5290   72.4460   59.6590 N   0  0  0  0  0  0  0  0  0  0  0  0
   46.0160   73.4280   58.7090 H   0  0  0  0  0  0  0  0  0  0  0  0
   44.7340   75.3900   58.2630 H   0  0  0  0  0  0  0  0  0  0  0  0
   42.7220   70.0370   60.1800 C   0  0  0  0  0  0  0  0  0  0  0  0
   42.7640   71.2700   60.8380 C   0  0  0  0  0  0  0  0  0  0  0  0
   42.3800   71.3940   62.1750 C   0  0  0  0  0  0  0  0  0  0  0  0
   41.9450   70.2950   62.8980 C   0  0  0  0  0  0  0  0  0  0  0  0
   41.5160   70.0320   64.1400 N   0  0  0  0  0  0  0  0  0  0  0  0
   41.2180   68.7330   64.2870 C   0  0  0  0  0  0  0  0  0  0  0  0
   41.4770   68.1980   63.0860 N   0  0  0  0  0  0  0  0  0  0  0  0
   41.9190   69.1160   62.2190 C   0  0  0  0  0  0  0  0  0  0  0  0
   42.2830   68.9220   60.8990 C   0  0  0  0  0  0  0  0  0  0  0  0
   43.0060   69.9040   59.1600 H   0  0  0  0  0  0  0  0  0  0  0  0
   42.4120   72.3540   62.6890 H   0  0  0  0  0  0  0  0  0  0  0  0
   41.4540   70.8010   64.8460 H   0  0  0  0  0  0  0  0  0  0  0  0
   40.8560   68.3230   65.2210 H   0  0  0  0  0  0  0  0  0  0  0  0
   42.2450   67.9590   60.4060 H   0  0  0  0  0  0  0  0  0  0  0  0
   40.6540   74.0970   57.2510 Cl  0  0  0  0  0  0  0  0  0  0  0  0
   40.9100   75.6150   58.0940 C   0  0  0  0  0  0  0  0  0  0  0  0
   41.9540   75.6890   58.9750 C   0  0  0  0  0  0  0  0  0  0  0  0
   42.0630   76.9190   59.6180 C   0  0  0  0  0  0  0  0  0  0  0  0
   41.2230   77.9840   59.4130 C   0  0  0  0  0  0  0  0  0  0  0  0
   40.1790   77.8390   58.4980 C   0  0  0  0  0  0  0  0  0  0  0  0
   39.0850   79.1650   58.2030 Cl  0  0  0  0  0  0  0  0  0  0  0  0
   40.0260   76.6410   57.8340 C   0  0  0  0  0  0  0  0  0  0  0  0
   42.8600   77.0680   60.3330 H   0  0  0  0  0  0  0  0  0  0  0  0
   41.3710   78.9100   59.9510 H   0  0  0  0  0  0  0  0  0  0  0  0
   40.9500   77.4530   55.1650 Cl  0  0  0  0  0  0  0  0  0  0  0  0
   39.3490   76.8280   55.5860 C   0  0  0  0  0  0  0  0  0  0  0  0
   38.9470   76.4530   56.8700 C   0  0  0  0  0  0  0  0  0  0  0  0
   37.6780   75.9860   57.0500 C   0  0  0  0  0  0  0  0  0  0  0  0
   37.4700   75.7220   58.0850 H   0  0  0  0  0  0  0  0  0  0  0  0
   36.8280   75.8950   55.9840 C   0  0  0  0  0  3  0  0  0  0  0  0
   37.2140   76.2640   54.7110 C   0  0  0  0  0  0  0  0  0  0  0  0
   36.0920   76.1310   53.3730 Cl  0  0  0  0  0  0  0  0  0  0  0  0
   38.5000   76.7430   54.5010 C   0  0  0  0  0  0  0  0  0  0  0  0
   38.7490   77.0140   53.4970 H   0  0  0  0  0  0  0  0  0  0  0  0
  1  6  1  0  0  0  0
  2  1  2  0  0  0  0
  2  3  1  0  0  0  0
  3  4  2  0  0  0  0
  4  5  1  0  0  0  0
  5 10  1  0  0  0  0
  6  5  2  0  0  0  0
  7  1  1  0  0  0  0
  8  2  1  0  0  0  0
  9 10  2  0  0  0  0
  9 17  1  0  0  0  0
 10 11  1  0  0  0  0
 11 19  1  0  0  0  0
 11 12  2  0  0  0  0
 12 13  1  0  0  0  0
 13 14  1  0  0  0  0
 13 20  1  0  0  0  0
 14 21  1  0  0  0  0
 15 14  2  0  0  0  0
 16 12  1  0  0  0  0
 16 15  1  0  0  0  0
 17 16  2  0  0  0  0
 18  9  1  0  0  0  0
 22 17  1  0  0  0  0
 23 24  1  0  0  0  0
 24 25  1  0  0  0  0
 25  3  1  0  0  0  0
 25 26  2  0  0  0  0
 26 31  1  0  0  0  0
 27 26  1  0  0  0  0
 27 32  1  0  0  0  0
 28 27  2  0  0  0  0
 29 28  1  0  0  0  0
 30 24  2  0  0  0  0
 30 28  1  0  0  0  0
 33 34  1  0  0  0  0
 34 35  1  0  0  0  0
 35 36  2  0  0  0  0
 35 30  1  0  0  0  0
 36 37  1  0  0  0  0
 38 36  1  0  0  0  0
 39 38  2  0  0  0  0
 40 39  1  0  0  0  0
 41 39  1  0  0  0  0
 41 34  2  0  0  0  0
 42 41  1  0  0  0  0
M  END
>  <minimizedAffinity>
-7.81474924

$$$$

 OpenBabel03212520063D

 42 46  0  0  0  0  0  0  0  0999 V2000
   39.8420   80.0540   58.2840 C   0  0  0  0  0  0  0  0  0  0  0  0
   40.1200   78.9190   59.0580 C   0  0  0  0  0  0  0  0  0  0  0  0
   39.6000   77.7110   58.6280 C   0  0  0  0  0  0  0  0  0  0  0  0
   38.8580   77.6570   57.4980 N   0  0  0  0  0  0  0  0  0  0  0  0
   38.6080   78.7780   56.7670 C   0  0  0  0  0  0  0  0  0  0  0  0
   39.0990   79.9840   57.1600 N   0  0  0  0  0  0  0  0  0  0  0  0
   40.1720   81.0610   58.4890 H   0  0  0  0  0  0  0  0  0  0  0  0
   40.7490   79.2000   59.8660 H   0  0  0  0  0  0  0  0  0  0  0  0
   36.4530   78.8190   55.6120 C   0  0  0  0  0  0  0  0  0  0  0  0
   37.8430   78.6960   55.5320 C   0  0  0  0  0  0  0  0  0  0  0  0
   38.4870   78.5190   54.3060 C   0  0  0  0  0  0  0  0  0  0  0  0
   37.7680   78.4600   53.1230 C   0  0  0  0  0  0  0  0  0  0  0  0
   38.0210   78.3090   51.8160 N   0  0  0  0  0  0  0  0  0  0  0  0
   36.8900   78.3320   51.0950 C   0  0  0  0  0  0  0  0  0  0  0  0
   35.9230   78.5030   52.0070 N   0  0  0  0  0  0  0  0  0  0  0  0
   36.4180   78.5840   53.2470 C   0  0  0  0  0  0  0  0  0  0  0  0
   35.7170   78.7600   54.4250 C   0  0  0  0  0  0  0  0  0  0  0  0
   35.9250   78.9550   56.5300 H   0  0  0  0  0  0  0  0  0  0  0  0
   39.5700   78.4220   54.2410 H   0  0  0  0  0  0  0  0  0  0  0  0
   39.0060   78.1950   51.4830 H   0  0  0  0  0  0  0  0  0  0  0  0
   36.8860   78.2270   50.0180 H   0  0  0  0  0  0  0  0  0  0  0  0
   34.6390   78.8550   54.4680 H   0  0  0  0  0  0  0  0  0  0  0  0
   41.8600   75.9980   57.6970 Cl  0  0  0  0  0  0  0  0  0  0  0  0
   40.8300   75.6160   59.0660 C   0  0  0  0  0  0  0  0  0  0  0  0
   39.8400   76.5040   59.3870 C   0  0  0  0  0  0  0  0  0  0  0  0
   39.0920   76.1350   60.5020 C   0  0  0  0  0  0  0  0  0  0  0  0
   39.2970   74.9950   61.2370 C   0  0  0  0  0  0  0  0  0  0  0  0
   40.3250   74.1340   60.8510 C   0  0  0  0  0  0  0  0  0  0  0  0
   40.6240   72.6710   61.7540 Cl  0  0  0  0  0  0  0  0  0  0  0  0
   41.0960   74.4520   59.7540 C   0  0  0  0  0  0  0  0  0  0  0  0
   38.2870   76.7780   60.8300 H   0  0  0  0  0  0  0  0  0  0  0  0
   38.6740   74.7760   62.0930 H   0  0  0  0  0  0  0  0  0  0  0  0
   40.0440   72.4630   57.8630 Cl  0  0  0  0  0  0  0  0  0  0  0  0
   41.7170   72.6130   58.4190 C   0  0  0  0  0  0  0  0  0  0  0  0
   42.1790   73.5750   59.3210 C   0  0  0  0  0  0  0  0  0  0  0  0
   43.4990   73.5740   59.6620 C   0  0  0  0  0  0  0  0  0  0  0  0
   43.7520   74.3620   60.3690 H   0  0  0  0  0  0  0  0  0  0  0  0
   44.3420   72.6420   59.1230 C   0  0  0  0  0  3  0  0  0  0  0  0
   43.8960   71.6880   58.2310 C   0  0  0  0  0  0  0  0  0  0  0  0
   45.0110   70.5120   57.5640 Cl  0  0  0  0  0  0  0  0  0  0  0  0
   42.5560   71.6670   57.8680 C   0  0  0  0  0  0  0  0  0  0  0  0
   42.2630   70.9080   57.1750 H   0  0  0  0  0  0  0  0  0  0  0  0
  1  7  1  0  0  0  0
  1  2  1  0  0  0  0
  2  8  1  0  0  0  0
  3  2  2  0  0  0  0
  3 25  1  0  0  0  0
  4  3  1  0  0  0  0
  5  6  1  0  0  0  0
  5  4  2  0  0  0  0
  6  1  2  0  0  0  0
  9 18  1  0  0  0  0
 10  9  1  0  0  0  0
 10  5  1  0  0  0  0
 11 10  2  0  0  0  0
 12 16  2  0  0  0  0
 12 11  1  0  0  0  0
 13 12  1  0  0  0  0
 14 13  1  0  0  0  0
 14 15  2  0  0  0  0
 15 16  1  0  0  0  0
 16 17  1  0  0  0  0
 17 22  1  0  0  0  0
 17  9  2  0  0  0  0
 19 11  1  0  0  0  0
 20 13  1  0  0  0  0
 21 14  1  0  0  0  0
 23 24  1  0  0  0  0
 24 25  2  0  0  0  0
 24 30  1  0  0  0  0
 25 26  1  0  0  0  0
 26 31  1  0  0  0  0
 26 27  2  0  0  0  0
 27 32  1  0  0  0  0
 28 27  1  0  0  0  0
 28 29  1  0  0  0  0
 30 28  2  0  0  0  0
 33 34  1  0  0  0  0
 34 35  1  0  0  0  0
 35 36  2  0  0  0  0
 35 30  1  0  0  0  0
 36 37  1  0  0  0  0
 38 36  1  0  0  0  0
 39 38  2  0  0  0  0
 40 39  1  0  0  0  0
 41 39  1  0  0  0  0
 41 34  2  0  0  0  0
 42 41  1  0  0  0  0
M  END
>  <minimizedAffinity>
-7.75147009

$$$$

 OpenBabel03212520063D

 42 46  0  0  0  0  0  0  0  0999 V2000
   43.7120   74.9110   59.6710 C   0  0  0  0  0  0  0  0  0  0  0  0
   44.0920   73.6040   60.0070 C   0  0  0  0  0  0  0  0  0  0  0  0
   43.1540   72.6030   59.8320 C   0  0  0  0  0  0  0  0  0  0  0  0
   41.9260   72.9010   59.3510 N   0  0  0  0  0  0  0  0  0  0  0  0
   41.5880   74.1810   59.0310 C   0  0  0  0  0  0  0  0  0  0  0  0
   42.4820   75.1930   59.1920 N   0  0  0  0  0  0  0  0  0  0  0  0
   44.3270   75.7940   59.7540 H   0  0  0  0  0  0  0  0  0  0  0  0
   45.1070   73.6120   60.3210 H   0  0  0  0  0  0  0  0  0  0  0  0
   39.1600   73.8870   59.0730 C   0  0  0  0  0  0  0  0  0  0  0  0
   40.2770   74.4800   58.4760 C   0  0  0  0  0  0  0  0  0  0  0  0
   40.1450   75.3490   57.3910 C   0  0  0  0  0  0  0  0  0  0  0  0
   38.8980   75.6550   56.8690 C   0  0  0  0  0  0  0  0  0  0  0  0
   38.3960   76.4110   55.8830 N   0  0  0  0  0  0  0  0  0  0  0  0
   37.0580   76.3230   55.8360 C   0  0  0  0  0  0  0  0  0  0  0  0
   36.7490   75.4810   56.8320 N   0  0  0  0  0  0  0  0  0  0  0  0
   37.8400   75.0560   57.4800 C   0  0  0  0  0  0  0  0  0  0  0  0
   37.8980   74.1880   58.5540 C   0  0  0  0  0  0  0  0  0  0  0  0
   39.2220   73.2180   59.9030 H   0  0  0  0  0  0  0  0  0  0  0  0
   41.0140   75.8120   56.9240 H   0  0  0  0  0  0  0  0  0  0  0  0
   39.0360   76.9700   55.2730 H   0  0  0  0  0  0  0  0  0  0  0  0
   36.4670   76.8620   55.1080 H   0  0  0  0  0  0  0  0  0  0  0  0
   37.0220   73.7390   59.0040 H   0  0  0  0  0  0  0  0  0  0  0  0
   41.6800   71.4340   62.1500 Cl  0  0  0  0  0  0  0  0  0  0  0  0
   42.8940   70.5760   61.2170 C   0  0  0  0  0  0  0  0  0  0  0  0
   43.4790   71.2350   60.1700 C   0  0  0  0  0  0  0  0  0  0  0  0
   44.4070   70.4690   59.4700 C   0  0  0  0  0  0  0  0  0  0  0  0
   44.7350   69.1710   59.7720 C   0  0  0  0  0  0  0  0  0  0  0  0
   44.1000   68.5620   60.8550 C   0  0  0  0  0  0  0  0  0  0  0  0
   44.4840   66.9130   61.2770 Cl  0  0  0  0  0  0  0  0  0  0  0  0
   43.1720   69.2760   61.5820 C   0  0  0  0  0  0  0  0  0  0  0  0
   44.9190   70.9080   58.6250 H   0  0  0  0  0  0  0  0  0  0  0  0
   45.4670   68.6400   59.1800 H   0  0  0  0  0  0  0  0  0  0  0  0
   41.0340   67.5090   60.6110 Cl  0  0  0  0  0  0  0  0  0  0  0  0
   41.4630   67.8220   62.2990 C   0  0  0  0  0  0  0  0  0  0  0  0
   42.4890   68.6710   62.7210 C   0  0  0  0  0  0  0  0  0  0  0  0
   42.7100   68.8190   64.0590 C   0  0  0  0  0  0  0  0  0  0  0  0
   43.5300   69.5000   64.2770 H   0  0  0  0  0  0  0  0  0  0  0  0
   41.9320   68.1420   64.9560 C   0  0  0  0  0  3  0  0  0  0  0  0
   40.9160   67.3020   64.5510 C   0  0  0  0  0  0  0  0  0  0  0  0
   39.9440   66.4530   65.7360 Cl  0  0  0  0  0  0  0  0  0  0  0  0
   40.6710   67.1340   63.1940 C   0  0  0  0  0  0  0  0  0  0  0  0
   39.8720   66.4720   62.9340 H   0  0  0  0  0  0  0  0  0  0  0  0
  1  7  1  0  0  0  0
  1  2  1  0  0  0  0
  2  8  1  0  0  0  0
  3  2  2  0  0  0  0
  3 25  1  0  0  0  0
  4  3  1  0  0  0  0
  5  6  1  0  0  0  0
  5  4  2  0  0  0  0
  6  1  2  0  0  0  0
  9 18  1  0  0  0  0
 10  5  1  0  0  0  0
 10  9  2  0  0  0  0
 11 10  1  0  0  0  0
 12 11  2  0  0  0  0
 12 16  1  0  0  0  0
 13 12  1  0  0  0  0
 14 13  1  0  0  0  0
 14 15  2  0  0  0  0
 15 16  1  0  0  0  0
 16 17  2  0  0  0  0
 17 22  1  0  0  0  0
 17  9  1  0  0  0  0
 19 11  1  0  0  0  0
 20 13  1  0  0  0  0
 21 14  1  0  0  0  0
 24 30  1  0  0  0  0
 24 23  1  0  0  0  0
 25 24  2  0  0  0  0
 26 27  2  0  0  0  0
 26 25  1  0  0  0  0
 27 28  1  0  0  0  0
 28 29  1  0  0  0  0
 28 30  2  0  0  0  0
 30 35  1  0  0  0  0
 31 26  1  0  0  0  0
 32 27  1  0  0  0  0
 33 34  1  0  0  0  0
 34 35  2  0  0  0  0
 34 41  1  0  0  0  0
 35 36  1  0  0  0  0
 36 37  1  0  0  0  0
 36 38  2  0  0  0  0
 39 38  1  0  0  0  0
 39 40  1  0  0  0  0
 41 39  2  0  0  0  0
 42 41  1  0  0  0  0
M  END
>  <minimizedAffinity>
-7.60815287

$$$$

 OpenBabel03212520063D

 42 46  0  0  0  0  0  0  0  0999 V2000
   44.9230   73.6980   58.9690 C   0  0  0  0  0  0  0  0  0  0  0  0
   44.1070   74.8140   58.7330 C   0  0  0  0  0  0  0  0  0  0  0  0
   42.8030   74.7590   59.1880 C   0  0  0  0  0  0  0  0  0  0  0  0
   42.3580   73.6580   59.8360 N   0  0  0  0  0  0  0  0  0  0  0  0
   43.1750   72.5910   60.0530 C   0  0  0  0  0  0  0  0  0  0  0  0
   44.4640   72.6080   59.6180 N   0  0  0  0  0  0  0  0  0  0  0  0
   45.9550   73.5910   58.6750 H   0  0  0  0  0  0  0  0  0  0  0  0
   44.6840   75.5640   58.2490 H   0  0  0  0  0  0  0  0  0  0  0  0
   42.6370   70.2060   60.1170 C   0  0  0  0  0  0  0  0  0  0  0  0
   42.6940   71.4310   60.7880 C   0  0  0  0  0  0  0  0  0  0  0  0
   42.3200   71.5430   62.1280 C   0  0  0  0  0  0  0  0  0  0  0  0
   41.8790   70.4400   62.8420 C   0  0  0  0  0  0  0  0  0  0  0  0
   41.4560   70.1670   64.0840 N   0  0  0  0  0  0  0  0  0  0  0  0
   41.1470   68.8690   64.2180 C   0  0  0  0  0  0  0  0  0  0  0  0
   41.3950   68.3450   63.0100 N   0  0  0  0  0  0  0  0  0  0  0  0
   41.8390   69.2690   62.1500 C   0  0  0  0  0  0  0  0  0  0  0  0
   42.1930   69.0860   60.8260 C   0  0  0  0  0  0  0  0  0  0  0  0
   42.9150   70.0820   59.0940 H   0  0  0  0  0  0  0  0  0  0  0  0
   42.3620   72.4970   62.6530 H   0  0  0  0  0  0  0  0  0  0  0  0
   41.4040   70.9290   64.7980 H   0  0  0  0  0  0  0  0  0  0  0  0
   40.7870   68.4520   65.1500 H   0  0  0  0  0  0  0  0  0  0  0  0
   42.1440   68.1290   60.3230 H   0  0  0  0  0  0  0  0  0  0  0  0
   41.5330   74.9110   56.4900 Cl  0  0  0  0  0  0  0  0  0  0  0  0
   41.2670   76.0770   57.7750 C   0  0  0  0  0  0  0  0  0  0  0  0
   41.9060   75.8710   58.9670 C   0  0  0  0  0  0  0  0  0  0  0  0
   41.6140   76.8280   59.9360 C   0  0  0  0  0  0  0  0  0  0  0  0
   40.7700   77.8940   59.7500 C   0  0  0  0  0  0  0  0  0  0  0  0
   40.1530   78.0420   58.5070 C   0  0  0  0  0  0  0  0  0  0  0  0
   39.0720   79.3820   58.2240 Cl  0  0  0  0  0  0  0  0  0  0  0  0
   40.4080   77.1230   57.5130 C   0  0  0  0  0  0  0  0  0  0  0  0
   42.0740   76.7450   60.9100 H   0  0  0  0  0  0  0  0  0  0  0  0
   40.5920   78.5970   60.5520 H   0  0  0  0  0  0  0  0  0  0  0  0
   37.8540   75.6700   57.5130 Cl  0  0  0  0  0  0  0  0  0  0  0  0
   38.5610   76.5680   56.1620 C   0  0  0  0  0  0  0  0  0  0  0  0
   39.7810   77.2460   56.2020 C   0  0  0  0  0  0  0  0  0  0  0  0
   40.2050   77.8990   55.0810 C   0  0  0  0  0  0  0  0  0  0  0  0
   41.1640   78.3930   55.2210 H   0  0  0  0  0  0  0  0  0  0  0  0
   39.4400   77.8780   53.9490 C   0  0  0  0  0  3  0  0  0  0  0  0
   38.2330   77.2100   53.8990 C   0  0  0  0  0  0  0  0  0  0  0  0
   37.2840   77.2090   52.4260 Cl  0  0  0  0  0  0  0  0  0  0  0  0
   37.7790   76.5380   55.0250 C   0  0  0  0  0  0  0  0  0  0  0  0
   36.8390   76.0360   54.9330 H   0  0  0  0  0  0  0  0  0  0  0  0
  1  6  1  0  0  0  0
  2  1  2  0  0  0  0
  2  3  1  0  0  0  0
  3  4  2  0  0  0  0
  4  5  1  0  0  0  0
  5 10  1  0  0  0  0
  6  5  2  0  0  0  0
  7  1  1  0  0  0  0
  8  2  1  0  0  0  0
  9 10  2  0  0  0  0
  9 17  1  0  0  0  0
 10 11  1  0  0  0  0
 11 19  1  0  0  0  0
 11 12  2  0  0  0  0
 12 13  1  0  0  0  0
 13 14  1  0  0  0  0
 13 20  1  0  0  0  0
 14 21  1  0  0  0  0
 15 14  2  0  0  0  0
 16 12  1  0  0  0  0
 16 15  1  0  0  0  0
 17 16  2  0  0  0  0
 18  9  1  0  0  0  0
 22 17  1  0  0  0  0
 23 24  1  0  0  0  0
 24 25  1  0  0  0  0
 25  3  1  0  0  0  0
 25 26  2  0  0  0  0
 26 31  1  0  0  0  0
 27 26  1  0  0  0  0
 27 32  1  0  0  0  0
 28 27  2  0  0  0  0
 29 28  1  0  0  0  0
 30 24  2  0  0  0  0
 30 28  1  0  0  0  0
 34 35  1  0  0  0  0
 34 33  1  0  0  0  0
 35 30  1  0  0  0  0
 36 37  1  0  0  0  0
 36 35  2  0  0  0  0
 38 36  1  0  0  0  0
 39 38  2  0  0  0  0
 39 41  1  0  0  0  0
 40 39  1  0  0  0  0
 41 34  2  0  0  0  0
 42 41  1  0  0  0  0
M  END
>  <minimizedAffinity>
-7.57751369

$$$$

 OpenBabel03212520063D

 42 46  0  0  0  0  0  0  0  0999 V2000
   43.3830   68.5360   58.2170 C   0  0  0  0  0  0  0  0  0  0  0  0
   43.3940   69.9370   58.1640 C   0  0  0  0  0  0  0  0  0  0  0  0
   42.7880   70.6190   59.2030 C   0  0  0  0  0  0  0  0  0  0  0  0
   42.2170   69.9350   60.2210 N   0  0  0  0  0  0  0  0  0  0  0  0
   42.2260   68.5740   60.2460 C   0  0  0  0  0  0  0  0  0  0  0  0
   42.8100   67.8680   59.2400 N   0  0  0  0  0  0  0  0  0  0  0  0
   43.8100   67.8680   57.4850 H   0  0  0  0  0  0  0  0  0  0  0  0
   43.9300   70.2420   57.3000 H   0  0  0  0  0  0  0  0  0  0  0  0
   41.5010   66.4670   61.2540 C   0  0  0  0  0  0  0  0  0  0  0  0
   41.6440   67.8530   61.3680 C   0  0  0  0  0  0  0  0  0  0  0  0
   41.2590   68.5310   62.5260 C   0  0  0  0  0  0  0  0  0  0  0  0
   40.7220   67.8510   63.6070 C   0  0  0  0  0  0  0  0  0  0  0  0
   40.2590   68.1420   64.8310 N   0  0  0  0  0  0  0  0  0  0  0  0
   39.8480   67.0370   65.4700 C   0  0  0  0  0  0  0  0  0  0  0  0
   40.0720   66.0470   64.5950 N   0  0  0  0  0  0  0  0  0  0  0  0
   40.6010   66.5040   63.4540 C   0  0  0  0  0  0  0  0  0  0  0  0
   40.9600   65.7700   62.3390 C   0  0  0  0  0  0  0  0  0  0  0  0
   41.7830   65.9150   60.3860 H   0  0  0  0  0  0  0  0  0  0  0  0
   41.3690   69.6120   62.6150 H   0  0  0  0  0  0  0  0  0  0  0  0
   40.2570   69.1320   65.1680 H   0  0  0  0  0  0  0  0  0  0  0  0
   39.4420   67.0650   66.4730 H   0  0  0  0  0  0  0  0  0  0  0  0
   40.8430   64.6960   62.2690 H   0  0  0  0  0  0  0  0  0  0  0  0
   40.5600   71.8840   57.6690 Cl  0  0  0  0  0  0  0  0  0  0  0  0
   41.8010   72.7800   58.5300 C   0  0  0  0  0  0  0  0  0  0  0  0
   42.7540   72.0640   59.2030 C   0  0  0  0  0  0  0  0  0  0  0  0
   43.6790   72.8550   59.8790 C   0  0  0  0  0  0  0  0  0  0  0  0
   43.6710   74.2280   59.8930 C   0  0  0  0  0  0  0  0  0  0  0  0
   42.6690   74.8910   59.1830 C   0  0  0  0  0  0  0  0  0  0  0  0
   42.6180   76.6350   59.1700 Cl  0  0  0  0  0  0  0  0  0  0  0  0
   41.7280   74.1560   58.4950 C   0  0  0  0  0  0  0  0  0  0  0  0
   44.4690   72.3760   60.4400 H   0  0  0  0  0  0  0  0  0  0  0  0
   44.4240   74.7740   60.4430 H   0  0  0  0  0  0  0  0  0  0  0  0
   39.4300   74.6350   60.2630 Cl  0  0  0  0  0  0  0  0  0  0  0  0
   39.5550   75.0610   58.5500 C   0  0  0  0  0  0  0  0  0  0  0  0
   40.6680   74.8160   57.7420 C   0  0  0  0  0  0  0  0  0  0  0  0
   40.6260   75.1990   56.4340 C   0  0  0  0  0  0  0  0  0  0  0  0
   41.5410   74.9620   55.8960 H   0  0  0  0  0  0  0  0  0  0  0  0
   39.5080   75.8110   55.9380 C   0  0  0  0  0  3  0  0  0  0  0  0
   38.4030   76.0580   56.7280 C   0  0  0  0  0  0  0  0  0  0  0  0
   36.9920   76.8450   56.0520 Cl  0  0  0  0  0  0  0  0  0  0  0  0
   38.4200   75.6770   58.0630 C   0  0  0  0  0  0  0  0  0  0  0  0
   37.5400   75.8910   58.6300 H   0  0  0  0  0  0  0  0  0  0  0  0
  1  6  1  0  0  0  0
  2  1  2  0  0  0  0
  2  3  1  0  0  0  0
  3 25  1  0  0  0  0
  3  4  2  0  0  0  0
  4  5  1  0  0  0  0
  5 10  1  0  0  0  0
  6  5  2  0  0  0  0
  7  1  1  0  0  0  0
  8  2  1  0  0  0  0
  9 10  2  0  0  0  0
  9 17  1  0  0  0  0
 10 11  1  0  0  0  0
 11 19  1  0  0  0  0
 11 12  2  0  0  0  0
 12 13  1  0  0  0  0
 13 20  1  0  0  0  0
 13 14  1  0  0  0  0
 14 21  1  0  0  0  0
 15 14  2  0  0  0  0
 16 12  1  0  0  0  0
 16 15  1  0  0  0  0
 17 16  2  0  0  0  0
 18  9  1  0  0  0  0
 22 17  1  0  0  0  0
 23 24  1  0  0  0  0
 24 25  1  0  0  0  0
 25 26  2  0  0  0  0
 26 27  1  0  0  0  0
 26 31  1  0  0  0  0
 27 32  1  0  0  0  0
 28 27  2  0  0  0  0
 29 28  1  0  0  0  0
 30 24  2  0  0  0  0
 30 28  1  0  0  0  0
 34 33  1  0  0  0  0
 35 30  1  0  0  0  0
 35 34  2  0  0  0  0
 36 35  1  0  0  0  0
 37 36  1  0  0  0  0
 38 36  2  0  0  0  0
 38 39  1  0  0  0  0
 39 41  2  0  0  0  0
 40 39  1  0  0  0  0
 41 34  1  0  0  0  0
 41 42  1  0  0  0  0
M  END
>  <minimizedAffinity>
-7.48055983

$$$$

 OpenBabel03212520063D

 42 46  0  0  0  0  0  0  0  0999 V2000
   44.3390   74.3790   59.9250 C   0  0  0  0  0  0  0  0  0  0  0  0
   43.2680   74.9670   59.2370 C   0  0  0  0  0  0  0  0  0  0  0  0
   42.0480   74.3170   59.2800 C   0  0  0  0  0  0  0  0  0  0  0  0
   41.9210   73.1610   59.9700 N   0  0  0  0  0  0  0  0  0  0  0  0
   42.9790   72.6160   60.6310 C   0  0  0  0  0  0  0  0  0  0  0  0
   44.1960   73.2250   60.6090 N   0  0  0  0  0  0  0  0  0  0  0  0
   45.3460   74.7620   59.9820 H   0  0  0  0  0  0  0  0  0  0  0  0
   43.5970   75.8820   58.8090 H   0  0  0  0  0  0  0  0  0  0  0  0
   43.4740   70.2430   60.9570 C   0  0  0  0  0  0  0  0  0  0  0  0
   42.8160   71.3930   61.4030 C   0  0  0  0  0  0  0  0  0  0  0  0
   42.0390   71.3830   62.5620 C   0  0  0  0  0  0  0  0  0  0  0  0
   41.8940   70.2280   63.3150 C   0  0  0  0  0  0  0  0  0  0  0  0
   41.2620   69.8470   64.4340 N   0  0  0  0  0  0  0  0  0  0  0  0
   41.4880   68.5520   64.7020 C   0  0  0  0  0  0  0  0  0  0  0  0
   42.2840   68.1430   63.7050 N   0  0  0  0  0  0  0  0  0  0  0  0
   42.5510   69.1330   62.8450 C   0  0  0  0  0  0  0  0  0  0  0  0
   43.3340   69.0720   61.7080 C   0  0  0  0  0  0  0  0  0  0  0  0
   44.0750   70.2130   60.0760 H   0  0  0  0  0  0  0  0  0  0  0  0
   41.5250   72.2780   62.9110 H   0  0  0  0  0  0  0  0  0  0  0  0
   40.6880   70.5360   64.9710 H   0  0  0  0  0  0  0  0  0  0  0  0
   41.0640   68.0570   65.5670 H   0  0  0  0  0  0  0  0  0  0  0  0
   43.8370   68.1720   61.3780 H   0  0  0  0  0  0  0  0  0  0  0  0
   41.9410   73.8210   56.3380 Cl  0  0  0  0  0  0  0  0  0  0  0  0
   40.7340   74.7290   57.2310 C   0  0  0  0  0  0  0  0  0  0  0  0
   40.9070   74.8650   58.5820 C   0  0  0  0  0  0  0  0  0  0  0  0
   39.8880   75.5750   59.2120 C   0  0  0  0  0  0  0  0  0  0  0  0
   38.7960   76.1070   58.5730 C   0  0  0  0  0  0  0  0  0  0  0  0
   38.6860   75.9310   57.1930 C   0  0  0  0  0  0  0  0  0  0  0  0
   37.3160   76.5890   56.3360 Cl  0  0  0  0  0  0  0  0  0  0  0  0
   39.6670   75.2360   56.5200 C   0  0  0  0  0  0  0  0  0  0  0  0
   39.9400   75.7300   60.2800 H   0  0  0  0  0  0  0  0  0  0  0  0
   38.0440   76.6460   59.1310 H   0  0  0  0  0  0  0  0  0  0  0  0
   40.8740   77.5340   55.1430 Cl  0  0  0  0  0  0  0  0  0  0  0  0
   40.1500   76.1070   54.3860 C   0  0  0  0  0  0  0  0  0  0  0  0
   39.5850   75.0330   55.0770 C   0  0  0  0  0  0  0  0  0  0  0  0
   39.0610   73.9960   54.3630 C   0  0  0  0  0  0  0  0  0  0  0  0
   38.6480   73.2150   54.9970 H   0  0  0  0  0  0  0  0  0  0  0  0
   39.0960   74.0230   52.9970 C   0  0  0  0  0  3  0  0  0  0  0  0
   39.6510   75.0800   52.3040 C   0  0  0  0  0  0  0  0  0  0  0  0
   39.6750   75.0730   50.5520 Cl  0  0  0  0  0  0  0  0  0  0  0  0
   40.1910   76.1480   53.0080 C   0  0  0  0  0  0  0  0  0  0  0  0
   40.6080   76.9400   52.4230 H   0  0  0  0  0  0  0  0  0  0  0  0
  1  7  1  0  0  0  0
  1  6  1  0  0  0  0
  2  3  1  0  0  0  0
  2  1  2  0  0  0  0
  3  4  2  0  0  0  0
  4  5  1  0  0  0  0
  5 10  1  0  0  0  0
  6  5  2  0  0  0  0
  8  2  1  0  0  0  0
  9 10  2  0  0  0  0
  9 17  1  0  0  0  0
 10 11  1  0  0  0  0
 11 19  1  0  0  0  0
 11 12  2  0  0  0  0
 12 13  1  0  0  0  0
 13 14  1  0  0  0  0
 13 20  1  0  0  0  0
 14 21  1  0  0  0  0
 15 14  2  0  0  0  0
 16 12  1  0  0  0  0
 16 15  1  0  0  0  0
 17 16  2  0  0  0  0
 18  9  1  0  0  0  0
 22 17  1  0  0  0  0
 23 24  1  0  0  0  0
 24 25  1  0  0  0  0
 25 26  2  0  0  0  0
 25  3  1  0  0  0  0
 26 31  1  0  0  0  0
 27 32  1  0  0  0  0
 27 26  1  0  0  0  0
 28 27  2  0  0  0  0
 29 28  1  0  0  0  0
 30 28  1  0  0  0  0
 30 24  2  0  0  0  0
 34 35  1  0  0  0  0
 34 33  1  0  0  0  0
 35 30  1  0  0  0  0
 36 37  1  0  0  0  0
 36 35  2  0  0  0  0
 38 36  1  0  0  0  0
 39 38  2  0  0  0  0
 39 41  1  0  0  0  0
 40 39  1  0  0  0  0
 41 34  2  0  0  0  0
 42 41  1  0  0  0  0
M  END
>  <minimizedAffinity>
-7.46695566

$$$$

 OpenBabel03212520063D

 42 46  0  0  0  0  0  0  0  0999 V2000
   43.0650   68.6060   58.9690 C   0  0  0  0  0  0  0  0  0  0  0  0
   43.0940   69.9900   58.7480 C   0  0  0  0  0  0  0  0  0  0  0  0
   42.6360   70.8080   59.7660 C   0  0  0  0  0  0  0  0  0  0  0  0
   42.1860   70.2650   60.9200 N   0  0  0  0  0  0  0  0  0  0  0  0
   42.1730   68.9160   61.1050 C   0  0  0  0  0  0  0  0  0  0  0  0
   42.6130   68.0800   60.1260 N   0  0  0  0  0  0  0  0  0  0  0  0
   43.3840   67.8440   58.2740 H   0  0  0  0  0  0  0  0  0  0  0  0
   43.5230   70.1770   57.7950 H   0  0  0  0  0  0  0  0  0  0  0  0
   41.8510   69.1300   63.5200 C   0  0  0  0  0  0  0  0  0  0  0  0
   41.7240   68.3490   62.3670 C   0  0  0  0  0  0  0  0  0  0  0  0
   41.1680   67.0690   62.4140 C   0  0  0  0  0  0  0  0  0  0  0  0
   40.7190   66.5290   63.6090 C   0  0  0  0  0  0  0  0  0  0  0  0
   40.1530   65.3900   64.0300 N   0  0  0  0  0  0  0  0  0  0  0  0
   39.9240   65.4200   65.3520 C   0  0  0  0  0  0  0  0  0  0  0  0
   40.3730   66.6240   65.7360 N   0  0  0  0  0  0  0  0  0  0  0  0
   40.8620   67.3230   64.7050 C   0  0  0  0  0  0  0  0  0  0  0  0
   41.4030   68.5940   64.7310 C   0  0  0  0  0  0  0  0  0  0  0  0
   42.2710   70.1110   63.5230 H   0  0  0  0  0  0  0  0  0  0  0  0
   41.0690   66.4590   61.5170 H   0  0  0  0  0  0  0  0  0  0  0  0
   39.9460   64.6240   63.3490 H   0  0  0  0  0  0  0  0  0  0  0  0
   39.4700   64.5930   65.8810 H   0  0  0  0  0  0  0  0  0  0  0  0
   41.4920   69.1860   65.6330 H   0  0  0  0  0  0  0  0  0  0  0  0
   40.1700   71.9800   58.5600 Cl  0  0  0  0  0  0  0  0  0  0  0  0
   41.5730   72.9160   59.0450 C   0  0  0  0  0  0  0  0  0  0  0  0
   42.6290   72.2440   59.5980 C   0  0  0  0  0  0  0  0  0  0  0  0
   43.6850   73.0680   59.9790 C   0  0  0  0  0  0  0  0  0  0  0  0
   43.7040   74.4320   59.8290 C   0  0  0  0  0  0  0  0  0  0  0  0
   42.5920   75.0510   59.2550 C   0  0  0  0  0  0  0  0  0  0  0  0
   42.5700   76.7820   59.0430 Cl  0  0  0  0  0  0  0  0  0  0  0  0
   41.5200   74.2810   58.8600 C   0  0  0  0  0  0  0  0  0  0  0  0
   44.5620   72.6230   60.4270 H   0  0  0  0  0  0  0  0  0  0  0  0
   44.5610   75.0060   60.1500 H   0  0  0  0  0  0  0  0  0  0  0  0
   41.8610   74.3840   55.9440 Cl  0  0  0  0  0  0  0  0  0  0  0  0
   40.4660   74.9610   56.8670 C   0  0  0  0  0  0  0  0  0  0  0  0
   40.3410   74.8940   58.2570 C   0  0  0  0  0  0  0  0  0  0  0  0
   39.2060   75.3780   58.8380 C   0  0  0  0  0  0  0  0  0  0  0  0
   39.2120   75.2770   59.9210 H   0  0  0  0  0  0  0  0  0  0  0  0
   38.2190   75.9160   58.0600 C   0  0  0  0  0  3  0  0  0  0  0  0
   38.3320   75.9880   56.6870 C   0  0  0  0  0  0  0  0  0  0  0  0
   37.0420   76.6860   55.7290 Cl  0  0  0  0  0  0  0  0  0  0  0  0
   39.4780   75.5020   56.0710 C   0  0  0  0  0  0  0  0  0  0  0  0
   39.5150   75.5820   55.0050 H   0  0  0  0  0  0  0  0  0  0  0  0
  1  6  1  0  0  0  0
  2  1  2  0  0  0  0
  2  3  1  0  0  0  0
  3  4  2  0  0  0  0
  4  5  1  0  0  0  0
  5 10  1  0  0  0  0
  6  5  2  0  0  0  0
  7  1  1  0  0  0  0
  8  2  1  0  0  0  0
  9 18  1  0  0  0  0
  9 17  1  0  0  0  0
 10 11  1  0  0  0  0
 10  9  2  0  0  0  0
 11 12  2  0  0  0  0
 12 13  1  0  0  0  0
 12 16  1  0  0  0  0
 13 14  1  0  0  0  0
 14 15  2  0  0  0  0
 14 21  1  0  0  0  0
 16 17  2  0  0  0  0
 16 15  1  0  0  0  0
 17 22  1  0  0  0  0
 19 11  1  0  0  0  0
 20 13  1  0  0  0  0
 23 24  1  0  0  0  0
 24 25  1  0  0  0  0
 25  3  1  0  0  0  0
 25 26  2  0  0  0  0
 26 31  1  0  0  0  0
 27 26  1  0  0  0  0
 27 32  1  0  0  0  0
 28 27  2  0  0  0  0
 29 28  1  0  0  0  0
 30 24  2  0  0  0  0
 30 28  1  0  0  0  0
 33 34  1  0  0  0  0
 34 35  1  0  0  0  0
 35 36  2  0  0  0  0
 35 30  1  0  0  0  0
 36 37  1  0  0  0  0
 38 36  1  0  0  0  0
 39 38  2  0  0  0  0
 40 39  1  0  0  0  0
 41 39  1  0  0  0  0
 41 34  2  0  0  0  0
 42 41  1  0  0  0  0
M  END
>  <minimizedAffinity>
-7.43492079

$$$$
