
 OpenBabel03212520283D

 29 31  0  0  0  0  0  0  0  0999 V2000
   41.9670   72.1420   61.2760 C   0  0  0  0  0  0  0  0  0  0  0  0
   42.6590   72.9200   60.3430 C   0  0  0  0  0  0  0  0  0  0  0  0
   41.8020   74.0140   60.1850 C   0  0  0  0  0  0  0  0  0  0  0  0
   40.7030   73.8690   60.9700 N   0  0  0  0  0  0  0  0  0  0  0  0
   40.8250   72.7170   61.6280 N   0  0  0  0  0  0  0  0  0  0  0  0
   43.6100   72.7650   59.8430 H   0  0  0  0  0  0  0  0  0  0  0  0
   42.0210   74.8510   59.5130 H   0  0  0  0  0  0  0  0  0  0  0  0
   42.5890   69.2030   63.4840 C   0  0  0  0  0  0  0  0  0  0  0  0
   42.0970   70.4330   63.0440 C   0  0  0  0  0  0  0  0  0  0  0  0
   42.4530   70.8730   61.7790 C   0  0  0  0  0  0  0  0  0  0  0  0
   43.2710   70.0940   61.0030 N   0  0  0  0  0  0  0  0  0  0  0  0
   43.7220   68.9050   61.4830 C   0  0  0  0  0  0  0  0  0  0  0  0
   43.3830   68.4750   62.7000 N   0  0  0  0  0  0  0  0  0  0  0  0
   42.2700   68.9220   64.4820 H   0  0  0  0  0  0  0  0  0  0  0  0
   41.4540   71.0530   63.6440 H   0  0  0  0  0  0  0  0  0  0  0  0
   44.3740   68.3270   60.8140 H   0  0  0  0  0  0  0  0  0  0  0  0
   39.5790   74.7900   61.0910 C   0  0  0  0  0  0  0  0  0  0  0  0
   38.8120   74.2900   61.7130 H   0  0  0  0  0  0  0  0  0  0  0  0
   39.9520   75.6610   61.6550 H   0  0  0  0  0  0  0  0  0  0  0  0
   40.2940   77.6050   60.1900 Cl  0  0  0  0  0  0  0  0  0  0  0  0
   39.2930   76.4840   59.2790 C   0  0  0  0  0  0  0  0  0  0  0  0
   39.0400   75.2300   59.7960 C   0  0  0  0  0  0  0  0  0  0  0  0
   38.2380   74.3710   59.0370 C   0  0  0  0  0  0  0  0  0  0  0  0
   38.0280   73.3790   59.4310 H   0  0  0  0  0  0  0  0  0  0  0  0
   37.6970   74.7130   57.8150 C   0  0  0  0  0  3  0  0  0  0  0  0
   37.9550   75.9770   57.2980 C   0  0  0  0  0  0  0  0  0  0  0  0
   37.2900   76.4550   55.7490 Cl  0  0  0  0  0  0  0  0  0  0  0  0
   38.7480   76.8170   58.0550 C   0  0  0  0  0  0  0  0  0  0  0  0
   38.9420   77.8060   57.6360 H   0  0  0  0  0  0  0  0  0  0  0  0
  1  5  2  0  0  0  0
  1 10  1  0  0  0  0
  2  1  1  0  0  0  0
  3  2  2  0  0  0  0
  3  4  1  0  0  0  0
  4 17  1  0  0  0  0
  4  5  1  0  0  0  0
  6  2  1  0  0  0  0
  7  3  1  0  0  0  0
  8 14  1  0  0  0  0
  9  8  1  0  0  0  0
  9 15  1  0  0  0  0
 10  9  2  0  0  0  0
 11 12  2  0  0  0  0
 11 10  1  0  0  0  0
 12 13  1  0  0  0  0
 13  8  2  0  0  0  0
 16 12  1  0  0  0  0
 17 19  1  0  0  0  0
 17 18  1  0  0  0  0
 21 22  1  0  0  0  0
 21 20  1  0  0  0  0
 22 17  1  0  0  0  0
 23 24  1  0  0  0  0
 23 22  2  0  0  0  0
 25 23  1  0  0  0  0
 26 25  2  0  0  0  0
 26 28  1  0  0  0  0
 27 26  1  0  0  0  0
 28 21  2  0  0  0  0
 29 28  1  0  0  0  0
M  END
>  <minimizedAffinity>
-5.61676979

$$$$

 OpenBabel03212520283D

 29 31  0  0  0  0  0  0  0  0999 V2000
   39.1070   74.6130   59.3770 C   0  0  0  0  0  0  0  0  0  0  0  0
   38.4790   74.2080   60.5580 C   0  0  0  0  0  0  0  0  0  0  0  0
   39.5390   73.6350   61.2680 C   0  0  0  0  0  0  0  0  0  0  0  0
   40.6860   73.7080   60.5430 N   0  0  0  0  0  0  0  0  0  0  0  0
   40.3980   74.3090   59.3910 N   0  0  0  0  0  0  0  0  0  0  0  0
   37.4500   74.2920   60.8890 H   0  0  0  0  0  0  0  0  0  0  0  0
   39.4220   73.1990   62.2660 H   0  0  0  0  0  0  0  0  0  0  0  0
   38.0240   77.1840   56.9040 C   0  0  0  0  0  0  0  0  0  0  0  0
   38.7140   76.5890   57.9610 C   0  0  0  0  0  0  0  0  0  0  0  0
   38.4180   75.2760   58.2880 C   0  0  0  0  0  0  0  0  0  0  0  0
   37.4620   74.6040   57.5700 N   0  0  0  0  0  0  0  0  0  0  0  0
   36.8200   75.2330   56.5510 C   0  0  0  0  0  0  0  0  0  0  0  0
   37.1010   76.4980   56.2290 N   0  0  0  0  0  0  0  0  0  0  0  0
   38.3070   78.2120   56.7040 H   0  0  0  0  0  0  0  0  0  0  0  0
   39.4660   77.1060   58.5310 H   0  0  0  0  0  0  0  0  0  0  0  0
   36.0660   74.6430   56.0140 H   0  0  0  0  0  0  0  0  0  0  0  0
   42.0060   73.2250   60.9320 C   0  0  0  0  0  0  0  0  0  0  0  0
   42.6810   73.3880   60.0710 H   0  0  0  0  0  0  0  0  0  0  0  0
   42.3460   73.8790   61.7530 H   0  0  0  0  0  0  0  0  0  0  0  0
   42.0500   71.0920   58.7640 Cl  0  0  0  0  0  0  0  0  0  0  0  0
   42.0290   70.7670   60.4910 C   0  0  0  0  0  0  0  0  0  0  0  0
   42.0090   71.8240   61.3780 C   0  0  0  0  0  0  0  0  0  0  0  0
   41.9930   71.5180   62.7430 C   0  0  0  0  0  0  0  0  0  0  0  0
   41.9770   72.3400   63.4550 H   0  0  0  0  0  0  0  0  0  0  0  0
   41.9950   70.2290   63.2360 C   0  0  0  0  0  3  0  0  0  0  0  0
   42.0150   69.1680   62.3390 C   0  0  0  0  0  0  0  0  0  0  0  0
   42.0190   67.5150   62.9200 Cl  0  0  0  0  0  0  0  0  0  0  0  0
   42.0310   69.4810   60.9940 C   0  0  0  0  0  0  0  0  0  0  0  0
   42.0470   68.6380   60.3020 H   0  0  0  0  0  0  0  0  0  0  0  0
  1  5  2  0  0  0  0
  1  2  1  0  0  0  0
  2  6  1  0  0  0  0
  2  3  2  0  0  0  0
  3  7  1  0  0  0  0
  4 17  1  0  0  0  0
  4  3  1  0  0  0  0
  5  4  1  0  0  0  0
  8  9  1  0  0  0  0
  9 10  2  0  0  0  0
  9 15  1  0  0  0  0
 10  1  1  0  0  0  0
 11 10  1  0  0  0  0
 12 11  2  0  0  0  0
 13 12  1  0  0  0  0
 13  8  2  0  0  0  0
 14  8  1  0  0  0  0
 16 12  1  0  0  0  0
 17 22  1  0  0  0  0
 17 19  1  0  0  0  0
 18 17  1  0  0  0  0
 20 21  1  0  0  0  0
 21 28  2  0  0  0  0
 21 22  1  0  0  0  0
 22 23  2  0  0  0  0
 23 25  1  0  0  0  0
 23 24  1  0  0  0  0
 26 27  1  0  0  0  0
 26 25  2  0  0  0  0
 28 26  1  0  0  0  0
 29 28  1  0  0  0  0
M  END
>  <minimizedAffinity>
-5.54381752

$$$$

 OpenBabel03212520283D

 29 31  0  0  0  0  0  0  0  0999 V2000
   42.2800   69.2400   61.8380 C   0  0  0  0  0  0  0  0  0  0  0  0
   43.2530   69.5930   60.8990 C   0  0  0  0  0  0  0  0  0  0  0  0
   43.2100   70.9890   60.9470 C   0  0  0  0  0  0  0  0  0  0  0  0
   42.2810   71.4010   61.8490 N   0  0  0  0  0  0  0  0  0  0  0  0
   41.7240   70.3150   62.3810 N   0  0  0  0  0  0  0  0  0  0  0  0
   43.8980   68.9870   60.2710 H   0  0  0  0  0  0  0  0  0  0  0  0
   43.8520   71.6280   60.3310 H   0  0  0  0  0  0  0  0  0  0  0  0
   40.7820   66.2500   63.4870 C   0  0  0  0  0  0  0  0  0  0  0  0
   41.0830   67.5860   63.2160 C   0  0  0  0  0  0  0  0  0  0  0  0
   41.9370   67.8700   62.1620 C   0  0  0  0  0  0  0  0  0  0  0  0
   42.4570   66.8390   61.4230 N   0  0  0  0  0  0  0  0  0  0  0  0
   42.1300   65.5570   61.7330 C   0  0  0  0  0  0  0  0  0  0  0  0
   41.3080   65.2760   62.7470 N   0  0  0  0  0  0  0  0  0  0  0  0
   40.1080   66.1030   64.3250 H   0  0  0  0  0  0  0  0  0  0  0  0
   40.6800   68.4030   63.7880 H   0  0  0  0  0  0  0  0  0  0  0  0
   42.5780   64.7750   61.1040 H   0  0  0  0  0  0  0  0  0  0  0  0
   41.9350   72.7760   62.1920 C   0  0  0  0  0  0  0  0  0  0  0  0
   41.4960   72.7600   63.2080 H   0  0  0  0  0  0  0  0  0  0  0  0
   42.8880   73.3300   62.2480 H   0  0  0  0  0  0  0  0  0  0  0  0
   43.2580   74.3110   59.9240 Cl  0  0  0  0  0  0  0  0  0  0  0  0
   41.5230   74.1410   60.1430 C   0  0  0  0  0  0  0  0  0  0  0  0
   41.0440   73.4170   61.2150 C   0  0  0  0  0  0  0  0  0  0  0  0
   39.6560   73.3090   61.3490 C   0  0  0  0  0  0  0  0  0  0  0  0
   39.2610   72.7420   62.1900 H   0  0  0  0  0  0  0  0  0  0  0  0
   38.7570   73.8830   60.4730 C   0  0  0  0  0  3  0  0  0  0  0  0
   39.2440   74.6110   59.3940 C   0  0  0  0  0  0  0  0  0  0  0  0
   38.1400   75.3570   58.2560 Cl  0  0  0  0  0  0  0  0  0  0  0  0
   40.6160   74.7110   59.2710 C   0  0  0  0  0  0  0  0  0  0  0  0
   40.9840   75.2850   58.4190 H   0  0  0  0  0  0  0  0  0  0  0  0
  1 10  1  0  0  0  0
  1  5  2  0  0  0  0
  2  3  2  0  0  0  0
  2  1  1  0  0  0  0
  3  4  1  0  0  0  0
  4 17  1  0  0  0  0
  4  5  1  0  0  0  0
  6  2  1  0  0  0  0
  7  3  1  0  0  0  0
  8 14  1  0  0  0  0
  9  8  1  0  0  0  0
  9 15  1  0  0  0  0
 10  9  2  0  0  0  0
 11 12  2  0  0  0  0
 11 10  1  0  0  0  0
 12 13  1  0  0  0  0
 13  8  2  0  0  0  0
 16 12  1  0  0  0  0
 17 19  1  0  0  0  0
 17 18  1  0  0  0  0
 20 21  1  0  0  0  0
 21 22  1  0  0  0  0
 22 23  2  0  0  0  0
 22 17  1  0  0  0  0
 23 24  1  0  0  0  0
 25 23  1  0  0  0  0
 26 25  2  0  0  0  0
 27 26  1  0  0  0  0
 28 26  1  0  0  0  0
 28 21  2  0  0  0  0
 29 28  1  0  0  0  0
M  END
>  <minimizedAffinity>
-5.44382381

$$$$

 OpenBabel03212520283D

 29 31  0  0  0  0  0  0  0  0999 V2000
   39.7000   73.8880   59.8360 C   0  0  0  0  0  0  0  0  0  0  0  0
   39.2760   73.6860   61.1530 C   0  0  0  0  0  0  0  0  0  0  0  0
   40.2930   72.8730   61.6620 C   0  0  0  0  0  0  0  0  0  0  0  0
   41.2270   72.6310   60.7060 N   0  0  0  0  0  0  0  0  0  0  0  0
   40.8440   73.2610   59.5970 N   0  0  0  0  0  0  0  0  0  0  0  0
   38.4020   74.0400   61.6880 H   0  0  0  0  0  0  0  0  0  0  0  0
   40.3010   72.5030   62.6930 H   0  0  0  0  0  0  0  0  0  0  0  0
   37.2960   74.9210   57.1790 C   0  0  0  0  0  0  0  0  0  0  0  0
   37.9740   74.1130   58.0940 C   0  0  0  0  0  0  0  0  0  0  0  0
   38.9670   74.6850   58.8710 C   0  0  0  0  0  0  0  0  0  0  0  0
   39.2550   76.0160   58.7210 N   0  0  0  0  0  0  0  0  0  0  0  0
   38.5630   76.7560   57.8150 C   0  0  0  0  0  0  0  0  0  0  0  0
   37.6040   76.2120   57.0620 N   0  0  0  0  0  0  0  0  0  0  0  0
   36.5320   74.4080   56.6050 H   0  0  0  0  0  0  0  0  0  0  0  0
   37.7570   73.0670   58.2200 H   0  0  0  0  0  0  0  0  0  0  0  0
   38.8390   77.8170   57.7410 H   0  0  0  0  0  0  0  0  0  0  0  0
   42.4390   71.8300   60.8400 C   0  0  0  0  0  0  0  0  0  0  0  0
   43.1690   72.2140   60.1020 H   0  0  0  0  0  0  0  0  0  0  0  0
   42.8390   72.0410   61.8470 H   0  0  0  0  0  0  0  0  0  0  0  0
   42.0890   70.2200   63.3960 Cl  0  0  0  0  0  0  0  0  0  0  0  0
   42.0340   69.5500   61.7730 C   0  0  0  0  0  0  0  0  0  0  0  0
   42.2080   70.3860   60.6890 C   0  0  0  0  0  0  0  0  0  0  0  0
   42.1560   69.8090   59.4160 C   0  0  0  0  0  0  0  0  0  0  0  0
   42.2910   70.4550   58.5510 H   0  0  0  0  0  0  0  0  0  0  0  0
   41.9430   68.4640   59.1950 C   0  0  0  0  0  3  0  0  0  0  0  0
   41.7690   67.6250   60.2900 C   0  0  0  0  0  0  0  0  0  0  0  0
   41.4950   65.9100   60.0580 Cl  0  0  0  0  0  0  0  0  0  0  0  0
   41.8210   68.2050   61.5420 C   0  0  0  0  0  0  0  0  0  0  0  0
   41.6820   67.5340   62.3910 H   0  0  0  0  0  0  0  0  0  0  0  0
  1  2  1  0  0  0  0
  2  3  2  0  0  0  0
  2  6  1  0  0  0  0
  3  7  1  0  0  0  0
  4 17  1  0  0  0  0
  4  3  1  0  0  0  0
  5  1  2  0  0  0  0
  5  4  1  0  0  0  0
  8  9  1  0  0  0  0
  9 15  1  0  0  0  0
  9 10  2  0  0  0  0
 10  1  1  0  0  0  0
 11 10  1  0  0  0  0
 12 11  2  0  0  0  0
 13  8  2  0  0  0  0
 13 12  1  0  0  0  0
 14  8  1  0  0  0  0
 16 12  1  0  0  0  0
 17 19  1  0  0  0  0
 18 17  1  0  0  0  0
 21 20  1  0  0  0  0
 22 17  1  0  0  0  0
 22 21  2  0  0  0  0
 23 22  1  0  0  0  0
 24 23  1  0  0  0  0
 25 23  2  0  0  0  0
 25 26  1  0  0  0  0
 26 28  2  0  0  0  0
 27 26  1  0  0  0  0
 28 21  1  0  0  0  0
 28 29  1  0  0  0  0
M  END
>  <minimizedAffinity>
-5.40098524

$$$$

 OpenBabel03212520283D

 29 31  0  0  0  0  0  0  0  0999 V2000
   40.1840   72.9230   60.1600 C   0  0  0  0  0  0  0  0  0  0  0  0
   40.3280   73.5700   61.3900 C   0  0  0  0  0  0  0  0  0  0  0  0
   41.2830   72.7720   62.0280 C   0  0  0  0  0  0  0  0  0  0  0  0
   41.6550   71.7450   61.2190 N   0  0  0  0  0  0  0  0  0  0  0  0
   40.9710   71.8570   60.0830 N   0  0  0  0  0  0  0  0  0  0  0  0
   39.8520   74.4570   61.7940 H   0  0  0  0  0  0  0  0  0  0  0  0
   41.6540   72.9770   63.0370 H   0  0  0  0  0  0  0  0  0  0  0  0
   37.9660   72.9760   57.1630 C   0  0  0  0  0  0  0  0  0  0  0  0
   38.8320   72.4940   58.1470 C   0  0  0  0  0  0  0  0  0  0  0  0
   39.2850   73.3740   59.1160 C   0  0  0  0  0  0  0  0  0  0  0  0
   38.8750   74.6810   59.0810 N   0  0  0  0  0  0  0  0  0  0  0  0
   38.0320   75.0960   58.0990 C   0  0  0  0  0  0  0  0  0  0  0  0
   37.5900   74.2540   57.1620 N   0  0  0  0  0  0  0  0  0  0  0  0
   37.6520   72.2330   56.4380 H   0  0  0  0  0  0  0  0  0  0  0  0
   39.1600   71.4700   58.1840 H   0  0  0  0  0  0  0  0  0  0  0  0
   37.7400   76.1550   58.1250 H   0  0  0  0  0  0  0  0  0  0  0  0
   42.6250   70.6970   61.5160 C   0  0  0  0  0  0  0  0  0  0  0  0
   43.3100   70.6300   60.6490 H   0  0  0  0  0  0  0  0  0  0  0  0
   43.2110   71.0540   62.3800 H   0  0  0  0  0  0  0  0  0  0  0  0
   42.5190   68.6410   59.2780 Cl  0  0  0  0  0  0  0  0  0  0  0  0
   41.9020   68.3870   60.9030 C   0  0  0  0  0  0  0  0  0  0  0  0
   42.0090   69.4010   61.8340 C   0  0  0  0  0  0  0  0  0  0  0  0
   41.5040   69.1550   63.1140 C   0  0  0  0  0  0  0  0  0  0  0  0
   41.5790   69.9440   63.8590 H   0  0  0  0  0  0  0  0  0  0  0  0
   40.9130   67.9650   63.4860 C   0  0  0  0  0  3  0  0  0  0  0  0
   40.8070   66.9460   62.5460 C   0  0  0  0  0  0  0  0  0  0  0  0
   40.0650   65.4170   62.9730 Cl  0  0  0  0  0  0  0  0  0  0  0  0
   41.3090   67.2000   61.2850 C   0  0  0  0  0  0  0  0  0  0  0  0
   41.2200   66.3910   60.5580 H   0  0  0  0  0  0  0  0  0  0  0  0
  1  2  1  0  0  0  0
  2  6  1  0  0  0  0
  2  3  2  0  0  0  0
  3  7  1  0  0  0  0
  4 17  1  0  0  0  0
  4  3  1  0  0  0  0
  5  1  2  0  0  0  0
  5  4  1  0  0  0  0
  8  9  1  0  0  0  0
  9 15  1  0  0  0  0
  9 10  2  0  0  0  0
 10  1  1  0  0  0  0
 11 10  1  0  0  0  0
 12 16  1  0  0  0  0
 12 11  2  0  0  0  0
 13  8  2  0  0  0  0
 13 12  1  0  0  0  0
 14  8  1  0  0  0  0
 17 22  1  0  0  0  0
 17 19  1  0  0  0  0
 18 17  1  0  0  0  0
 20 21  1  0  0  0  0
 21 28  2  0  0  0  0
 21 22  1  0  0  0  0
 22 23  2  0  0  0  0
 23 25  1  0  0  0  0
 23 24  1  0  0  0  0
 26 27  1  0  0  0  0
 26 25  2  0  0  0  0
 28 26  1  0  0  0  0
 29 28  1  0  0  0  0
M  END
>  <minimizedAffinity>
-5.3824687

$$$$

 OpenBabel03212520283D

 29 31  0  0  0  0  0  0  0  0999 V2000
   40.9460   72.6100   59.8660 C   0  0  0  0  0  0  0  0  0  0  0  0
   40.5270   71.8670   58.7590 C   0  0  0  0  0  0  0  0  0  0  0  0
   41.2280   70.6690   58.9320 C   0  0  0  0  0  0  0  0  0  0  0  0
   41.9900   70.7270   60.0550 N   0  0  0  0  0  0  0  0  0  0  0  0
   41.8030   71.9230   60.6100 N   0  0  0  0  0  0  0  0  0  0  0  0
   39.8440   72.1060   57.9510 H   0  0  0  0  0  0  0  0  0  0  0  0
   41.1480   69.8260   58.2380 H   0  0  0  0  0  0  0  0  0  0  0  0
   39.0250   75.4960   61.2390 C   0  0  0  0  0  0  0  0  0  0  0  0
   39.4240   74.1790   61.0000 C   0  0  0  0  0  0  0  0  0  0  0  0
   40.4920   73.9580   60.1460 C   0  0  0  0  0  0  0  0  0  0  0  0
   41.1200   75.0290   59.5640 N   0  0  0  0  0  0  0  0  0  0  0  0
   40.6880   76.2890   59.8320 C   0  0  0  0  0  0  0  0  0  0  0  0
   39.6600   76.5100   60.6550 N   0  0  0  0  0  0  0  0  0  0  0  0
   38.1840   75.5940   61.9180 H   0  0  0  0  0  0  0  0  0  0  0  0
   38.9400   73.3310   61.4520 H   0  0  0  0  0  0  0  0  0  0  0  0
   41.2320   77.1050   59.3360 H   0  0  0  0  0  0  0  0  0  0  0  0
   42.8640   69.6850   60.5820 C   0  0  0  0  0  0  0  0  0  0  0  0
   43.4850   69.3230   59.7400 H   0  0  0  0  0  0  0  0  0  0  0  0
   43.5340   70.1790   61.3050 H   0  0  0  0  0  0  0  0  0  0  0  0
   42.1830   67.2610   58.8760 Cl  0  0  0  0  0  0  0  0  0  0  0  0
   41.7740   67.4390   60.5760 C   0  0  0  0  0  0  0  0  0  0  0  0
   42.1390   68.5900   61.2430 C   0  0  0  0  0  0  0  0  0  0  0  0
   41.7920   68.6880   62.5940 C   0  0  0  0  0  0  0  0  0  0  0  0
   42.0730   69.5900   63.1340 H   0  0  0  0  0  0  0  0  0  0  0  0
   41.1130   67.7030   63.2820 C   0  0  0  0  0  3  0  0  0  0  0  0
   40.7480   66.5450   62.6060 C   0  0  0  0  0  0  0  0  0  0  0  0
   39.8840   65.2670   63.4390 Cl  0  0  0  0  0  0  0  0  0  0  0  0
   41.0950   66.4580   61.2720 C   0  0  0  0  0  0  0  0  0  0  0  0
   40.8010   65.5430   60.7550 H   0  0  0  0  0  0  0  0  0  0  0  0
  1 10  1  0  0  0  0
  1  5  2  0  0  0  0
  2  3  2  0  0  0  0
  2  1  1  0  0  0  0
  3  4  1  0  0  0  0
  4 17  1  0  0  0  0
  4  5  1  0  0  0  0
  6  2  1  0  0  0  0
  7  3  1  0  0  0  0
  8 14  1  0  0  0  0
  9  8  1  0  0  0  0
  9 15  1  0  0  0  0
 10  9  2  0  0  0  0
 11 12  2  0  0  0  0
 11 10  1  0  0  0  0
 12 13  1  0  0  0  0
 13  8  2  0  0  0  0
 16 12  1  0  0  0  0
 17 22  1  0  0  0  0
 17 19  1  0  0  0  0
 18 17  1  0  0  0  0
 20 21  1  0  0  0  0
 21 22  2  0  0  0  0
 21 28  1  0  0  0  0
 22 23  1  0  0  0  0
 23 24  1  0  0  0  0
 23 25  2  0  0  0  0
 26 25  1  0  0  0  0
 26 27  1  0  0  0  0
 28 26  2  0  0  0  0
 29 28  1  0  0  0  0
M  END
>  <minimizedAffinity>
-5.28756571

$$$$

 OpenBabel03212520283D

 29 31  0  0  0  0  0  0  0  0999 V2000
   37.9840   75.9600   56.6130 C   0  0  0  0  0  0  0  0  0  0  0  0
   37.3490   74.7920   57.0450 C   0  0  0  0  0  0  0  0  0  0  0  0
   37.8090   74.6810   58.3610 C   0  0  0  0  0  0  0  0  0  0  0  0
   38.6440   75.7110   58.6560 N   0  0  0  0  0  0  0  0  0  0  0  0
   38.7370   76.4800   57.5730 N   0  0  0  0  0  0  0  0  0  0  0  0
   36.6710   74.1140   56.5370 H   0  0  0  0  0  0  0  0  0  0  0  0
   37.5140   73.8640   59.0280 H   0  0  0  0  0  0  0  0  0  0  0  0
   38.6990   77.6180   53.3510 C   0  0  0  0  0  0  0  0  0  0  0  0
   38.9010   77.0990   54.6320 C   0  0  0  0  0  0  0  0  0  0  0  0
   37.8270   76.5140   55.2830 C   0  0  0  0  0  0  0  0  0  0  0  0
   36.6090   76.4620   54.6570 N   0  0  0  0  0  0  0  0  0  0  0  0
   36.4700   76.9840   53.4100 C   0  0  0  0  0  0  0  0  0  0  0  0
   37.5000   77.5490   52.7760 N   0  0  0  0  0  0  0  0  0  0  0  0
   39.5820   78.0600   52.9020 H   0  0  0  0  0  0  0  0  0  0  0  0
   39.8520   77.1340   55.1330 H   0  0  0  0  0  0  0  0  0  0  0  0
   35.4700   76.9110   52.9620 H   0  0  0  0  0  0  0  0  0  0  0  0
   39.3290   75.9540   59.9210 C   0  0  0  0  0  0  0  0  0  0  0  0
   39.8630   76.9190   59.8230 H   0  0  0  0  0  0  0  0  0  0  0  0
   38.5390   76.0840   60.6800 H   0  0  0  0  0  0  0  0  0  0  0  0
   42.1110   75.9480   58.6930 Cl  0  0  0  0  0  0  0  0  0  0  0  0
   41.5150   74.7510   59.8330 C   0  0  0  0  0  0  0  0  0  0  0  0
   40.2290   74.8620   60.3200 C   0  0  0  0  0  0  0  0  0  0  0  0
   39.7970   73.8870   61.2250 C   0  0  0  0  0  0  0  0  0  0  0  0
   38.7850   73.9600   61.6180 H   0  0  0  0  0  0  0  0  0  0  0  0
   40.5830   72.8350   61.6460 C   0  0  0  0  0  3  0  0  0  0  0  0
   41.8780   72.7260   61.1530 C   0  0  0  0  0  0  0  0  0  0  0  0
   42.9130   71.4060   61.6600 Cl  0  0  0  0  0  0  0  0  0  0  0  0
   42.2950   73.6940   60.2600 C   0  0  0  0  0  0  0  0  0  0  0  0
   43.3130   73.5960   59.8820 H   0  0  0  0  0  0  0  0  0  0  0  0
  1  2  1  0  0  0  0
  1  5  2  0  0  0  0
  2  3  2  0  0  0  0
  3  4  1  0  0  0  0
  3  7  1  0  0  0  0
  4 17  1  0  0  0  0
  5  4  1  0  0  0  0
  6  2  1  0  0  0  0
  8  9  1  0  0  0  0
  9 15  1  0  0  0  0
  9 10  2  0  0  0  0
 10  1  1  0  0  0  0
 11 10  1  0  0  0  0
 12 11  2  0  0  0  0
 13  8  2  0  0  0  0
 13 12  1  0  0  0  0
 14  8  1  0  0  0  0
 16 12  1  0  0  0  0
 17 22  1  0  0  0  0
 17 19  1  0  0  0  0
 18 17  1  0  0  0  0
 20 21  1  0  0  0  0
 21 28  2  0  0  0  0
 21 22  1  0  0  0  0
 22 23  2  0  0  0  0
 23 24  1  0  0  0  0
 23 25  1  0  0  0  0
 26 25  2  0  0  0  0
 26 27  1  0  0  0  0
 28 26  1  0  0  0  0
 29 28  1  0  0  0  0
M  END
>  <minimizedAffinity>
-5.27111816

$$$$

 OpenBabel03212520283D

 29 31  0  0  0  0  0  0  0  0999 V2000
   41.5900   68.1600   59.7500 C   0  0  0  0  0  0  0  0  0  0  0  0
   41.0710   67.9230   58.4730 C   0  0  0  0  0  0  0  0  0  0  0  0
   41.2280   69.1700   57.8600 C   0  0  0  0  0  0  0  0  0  0  0  0
   41.7960   70.0520   58.7240 N   0  0  0  0  0  0  0  0  0  0  0  0
   42.0070   69.4130   59.8730 N   0  0  0  0  0  0  0  0  0  0  0  0
   40.6470   67.0310   58.0260 H   0  0  0  0  0  0  0  0  0  0  0  0
   40.9250   69.3680   56.8270 H   0  0  0  0  0  0  0  0  0  0  0  0
   42.8530   65.5380   62.0800 C   0  0  0  0  0  0  0  0  0  0  0  0
   42.8420   66.5000   61.0680 C   0  0  0  0  0  0  0  0  0  0  0  0
   41.6530   67.1530   60.7900 C   0  0  0  0  0  0  0  0  0  0  0  0
   40.5300   66.8400   61.5110 N   0  0  0  0  0  0  0  0  0  0  0  0
   40.5980   65.8950   62.4850 C   0  0  0  0  0  0  0  0  0  0  0  0
   41.7400   65.2610   62.7590 N   0  0  0  0  0  0  0  0  0  0  0  0
   43.8160   65.0680   62.2430 H   0  0  0  0  0  0  0  0  0  0  0  0
   43.7170   66.7540   60.4960 H   0  0  0  0  0  0  0  0  0  0  0  0
   39.6650   65.6880   63.0270 H   0  0  0  0  0  0  0  0  0  0  0  0
   42.1240   71.4490   58.4670 C   0  0  0  0  0  0  0  0  0  0  0  0
   43.1980   71.5810   58.6980 H   0  0  0  0  0  0  0  0  0  0  0  0
   41.9940   71.6030   57.3820 H   0  0  0  0  0  0  0  0  0  0  0  0
   43.3370   72.7190   60.9490 Cl  0  0  0  0  0  0  0  0  0  0  0  0
   41.7160   73.0370   60.3500 C   0  0  0  0  0  0  0  0  0  0  0  0
   41.2790   72.3960   59.2080 C   0  0  0  0  0  0  0  0  0  0  0  0
   39.9820   72.6800   58.7680 C   0  0  0  0  0  0  0  0  0  0  0  0
   39.6220   72.1820   57.8700 H   0  0  0  0  0  0  0  0  0  0  0  0
   39.1320   73.5560   59.4110 C   0  0  0  0  0  3  0  0  0  0  0  0
   39.5760   74.1990   60.5600 C   0  0  0  0  0  0  0  0  0  0  0  0
   38.5310   75.3210   61.4100 Cl  0  0  0  0  0  0  0  0  0  0  0  0
   40.8580   73.9120   60.9860 C   0  0  0  0  0  0  0  0  0  0  0  0
   41.1930   74.4250   61.8890 H   0  0  0  0  0  0  0  0  0  0  0  0
  1  5  2  0  0  0  0
  1 10  1  0  0  0  0
  2  1  1  0  0  0  0
  3  2  2  0  0  0  0
  3  4  1  0  0  0  0
  4  5  1  0  0  0  0
  6  2  1  0  0  0  0
  7  3  1  0  0  0  0
  8 14  1  0  0  0  0
  8 13  1  0  0  0  0
  9  8  2  0  0  0  0
 10  9  1  0  0  0  0
 10 11  2  0  0  0  0
 11 12  1  0  0  0  0
 12 13  2  0  0  0  0
 12 16  1  0  0  0  0
 15  9  1  0  0  0  0
 17 18  1  0  0  0  0
 17  4  1  0  0  0  0
 17 22  1  0  0  0  0
 19 17  1  0  0  0  0
 21 20  1  0  0  0  0
 21 28  1  0  0  0  0
 22 21  2  0  0  0  0
 23 22  1  0  0  0  0
 23 25  2  0  0  0  0
 24 23  1  0  0  0  0
 25 26  1  0  0  0  0
 26 28  2  0  0  0  0
 26 27  1  0  0  0  0
 28 29  1  0  0  0  0
M  END
>  <minimizedAffinity>
-5.14876604

$$$$

 OpenBabel03212520283D

 29 31  0  0  0  0  0  0  0  0999 V2000
   41.5090   68.5030   59.6190 C   0  0  0  0  0  0  0  0  0  0  0  0
   41.3240   67.8870   58.3780 C   0  0  0  0  0  0  0  0  0  0  0  0
   41.3260   68.9820   57.5080 C   0  0  0  0  0  0  0  0  0  0  0  0
   41.5000   70.1360   58.2040 N   0  0  0  0  0  0  0  0  0  0  0  0
   41.6090   69.8190   59.4920 N   0  0  0  0  0  0  0  0  0  0  0  0
   41.2050   66.8440   58.1050 H   0  0  0  0  0  0  0  0  0  0  0  0
   41.2020   68.8830   56.4240 H   0  0  0  0  0  0  0  0  0  0  0  0
   41.4630   65.7530   62.1360 C   0  0  0  0  0  0  0  0  0  0  0  0
   41.3840   66.4070   60.9050 C   0  0  0  0  0  0  0  0  0  0  0  0
   41.5790   67.7780   60.8720 C   0  0  0  0  0  0  0  0  0  0  0  0
   41.8400   68.4470   62.0390 N   0  0  0  0  0  0  0  0  0  0  0  0
   41.9050   67.7600   63.2100 C   0  0  0  0  0  0  0  0  0  0  0  0
   41.7190   66.4380   63.2490 N   0  0  0  0  0  0  0  0  0  0  0  0
   41.3000   64.6810   62.0870 H   0  0  0  0  0  0  0  0  0  0  0  0
   41.1800   65.8910   59.9830 H   0  0  0  0  0  0  0  0  0  0  0  0
   42.1180   68.3520   64.1100 H   0  0  0  0  0  0  0  0  0  0  0  0
   41.5590   71.4900   57.6630 C   0  0  0  0  0  0  0  0  0  0  0  0
   42.6260   71.7240   57.4860 H   0  0  0  0  0  0  0  0  0  0  0  0
   41.0570   71.4540   56.6820 H   0  0  0  0  0  0  0  0  0  0  0  0
   38.5380   71.7410   57.4320 Cl  0  0  0  0  0  0  0  0  0  0  0  0
   39.5450   72.7000   58.5050 C   0  0  0  0  0  0  0  0  0  0  0  0
   40.9090   72.4920   58.5190 C   0  0  0  0  0  0  0  0  0  0  0  0
   41.6700   73.2790   59.3890 C   0  0  0  0  0  0  0  0  0  0  0  0
   42.7470   73.1270   59.4120 H   0  0  0  0  0  0  0  0  0  0  0  0
   41.1310   74.2380   60.2210 C   0  0  0  0  0  3  0  0  0  0  0  0
   39.7570   74.4440   60.2040 C   0  0  0  0  0  0  0  0  0  0  0  0
   39.0270   75.6520   61.2440 Cl  0  0  0  0  0  0  0  0  0  0  0  0
   39.0140   73.6620   59.3420 C   0  0  0  0  0  0  0  0  0  0  0  0
   37.9360   73.8350   59.3400 H   0  0  0  0  0  0  0  0  0  0  0  0
  1 10  1  0  0  0  0
  2  1  1  0  0  0  0
  3  4  1  0  0  0  0
  3  2  2  0  0  0  0
  4  5  1  0  0  0  0
  5  1  2  0  0  0  0
  6  2  1  0  0  0  0
  7  3  1  0  0  0  0
  8 13  1  0  0  0  0
  9  8  2  0  0  0  0
 10  9  1  0  0  0  0
 10 11  2  0  0  0  0
 11 12  1  0  0  0  0
 12 13  2  0  0  0  0
 12 16  1  0  0  0  0
 14  8  1  0  0  0  0
 15  9  1  0  0  0  0
 17  4  1  0  0  0  0
 17 22  1  0  0  0  0
 18 17  1  0  0  0  0
 19 17  1  0  0  0  0
 20 21  1  0  0  0  0
 21 22  2  0  0  0  0
 21 28  1  0  0  0  0
 22 23  1  0  0  0  0
 23 24  1  0  0  0  0
 23 25  2  0  0  0  0
 26 25  1  0  0  0  0
 26 27  1  0  0  0  0
 28 26  2  0  0  0  0
 29 28  1  0  0  0  0
M  END
>  <minimizedAffinity>
-5.08554411

$$$$
