
 OpenBabel03212520103D

 19 20  0  0  0  0  0  0  0  0999 V2000
   41.2630   74.8780   57.4070 Cl  0  0  0  0  0  0  0  0  0  0  0  0
   40.3750   74.4580   58.8550 C   0  0  0  0  0  0  0  0  0  0  0  0
   39.0130   74.6660   59.0100 C   0  0  0  0  0  0  0  0  0  0  0  0
   38.4750   74.2750   60.2170 C   0  0  0  0  0  0  0  0  0  0  0  0
   37.3940   74.4400   60.3390 H   0  0  0  0  0  0  0  0  0  0  0  0
   39.1550   73.7040   61.2710 C   0  0  0  0  0  3  0  0  0  0  0  0
   40.5030   73.5110   61.0850 C   0  0  0  0  0  0  0  0  0  0  0  0
   41.5060   72.7900   62.3480 Cl  0  0  0  0  0  0  0  0  0  0  0  0
   41.0910   73.8860   59.8940 C   0  0  0  0  0  0  0  0  0  0  0  0
   42.1720   73.7110   59.7940 H   0  0  0  0  0  0  0  0  0  0  0  0
   38.2690   76.6120   57.5580 C   0  0  0  0  0  0  0  0  0  0  0  0
   38.2780   75.2570   57.9340 C   0  0  0  0  0  0  0  0  0  0  0  0
   37.4880   74.3610   57.1890 C   0  0  0  0  0  0  0  0  0  0  0  0
   36.7690   74.8700   56.1540 N   0  0  0  0  0  0  0  0  0  0  0  0
   36.7810   76.1710   55.8190 C   0  0  0  0  0  0  0  0  0  0  0  0
   37.5290   77.0370   56.5200 N   0  0  0  0  0  0  0  0  0  0  0  0
   38.8940   77.2580   58.1640 H   0  0  0  0  0  0  0  0  0  0  0  0
   37.4330   73.2980   57.4060 H   0  0  0  0  0  0  0  0  0  0  0  0
   36.1870   76.5310   54.9800 H   0  0  0  0  0  0  0  0  0  0  0  0
  1  2  1  0  0  0  0
  2  3  2  0  0  0  0
  2  9  1  0  0  0  0
  3  4  1  0  0  0  0
  4  5  1  0  0  0  0
  4  6  2  0  0  0  0
  7  6  1  0  0  0  0
  7  8  1  0  0  0  0
  9  7  2  0  0  0  0
 10  9  1  0  0  0  0
 11 12  1  0  0  0  0
 11 17  1  0  0  0  0
 12  3  1  0  0  0  0
 13 18  1  0  0  0  0
 13 12  2  0  0  0  0
 14 13  1  0  0  0  0
 15 14  2  0  0  0  0
 15 16  1  0  0  0  0
 16 11  2  0  0  0  0
 19 15  1  0  0  0  0
M  END
>  <minimizedAffinity>
-4.63806295

$$$$

 OpenBabel03212520103D

 19 20  0  0  0  0  0  0  0  0999 V2000
   40.9980   74.2170   57.1580 Cl  0  0  0  0  0  0  0  0  0  0  0  0
   40.1800   74.0800   58.6990 C   0  0  0  0  0  0  0  0  0  0  0  0
   38.8680   74.4770   58.9110 C   0  0  0  0  0  0  0  0  0  0  0  0
   38.3810   74.2960   60.1880 C   0  0  0  0  0  0  0  0  0  0  0  0
   37.3400   74.6120   60.3550 H   0  0  0  0  0  0  0  0  0  0  0  0
   39.0660   73.7660   61.2590 C   0  0  0  0  0  3  0  0  0  0  0  0
   40.3630   73.3830   61.0140 C   0  0  0  0  0  0  0  0  0  0  0  0
   41.3660   72.6860   62.2910 Cl  0  0  0  0  0  0  0  0  0  0  0  0
   40.8990   73.5430   59.7530 C   0  0  0  0  0  0  0  0  0  0  0  0
   41.9410   73.2210   59.6090 H   0  0  0  0  0  0  0  0  0  0  0  0
   37.2980   74.3400   56.9190 C   0  0  0  0  0  0  0  0  0  0  0  0
   38.1290   75.0320   57.8190 C   0  0  0  0  0  0  0  0  0  0  0  0
   38.2680   76.4230   57.6510 C   0  0  0  0  0  0  0  0  0  0  0  0
   37.5860   77.0030   56.6270 N   0  0  0  0  0  0  0  0  0  0  0  0
   36.8000   76.3140   55.7840 C   0  0  0  0  0  0  0  0  0  0  0  0
   36.6580   74.9880   55.9310 N   0  0  0  0  0  0  0  0  0  0  0  0
   37.2260   73.2730   57.0930 H   0  0  0  0  0  0  0  0  0  0  0  0
   38.8870   77.0390   58.2980 H   0  0  0  0  0  0  0  0  0  0  0  0
   36.2750   76.8240   54.9780 H   0  0  0  0  0  0  0  0  0  0  0  0
  1  2  1  0  0  0  0
  2  3  2  0  0  0  0
  2  9  1  0  0  0  0
  3  4  1  0  0  0  0
  4  5  1  0  0  0  0
  4  6  2  0  0  0  0
  7  6  1  0  0  0  0
  7  8  1  0  0  0  0
  9  7  2  0  0  0  0
 10  9  1  0  0  0  0
 11 17  1  0  0  0  0
 11 12  1  0  0  0  0
 12  3  1  0  0  0  0
 13 12  2  0  0  0  0
 13 18  1  0  0  0  0
 14 13  1  0  0  0  0
 15 16  1  0  0  0  0
 15 14  2  0  0  0  0
 16 11  2  0  0  0  0
 19 15  1  0  0  0  0
M  END
>  <minimizedAffinity>
-4.59686232

$$$$

 OpenBabel03212520103D

 19 20  0  0  0  0  0  0  0  0999 V2000
   40.2810   76.3880   60.2670 Cl  0  0  0  0  0  0  0  0  0  0  0  0
   39.4740   75.1600   59.3160 C   0  0  0  0  0  0  0  0  0  0  0  0
   39.7260   73.8020   59.4400 C   0  0  0  0  0  0  0  0  0  0  0  0
   39.0000   72.9750   58.6110 C   0  0  0  0  0  0  0  0  0  0  0  0
   39.2000   71.8970   58.7110 H   0  0  0  0  0  0  0  0  0  0  0  0
   38.0600   73.3650   57.6830 C   0  0  0  0  0  3  0  0  0  0  0  0
   37.8350   74.7170   57.5850 C   0  0  0  0  0  0  0  0  0  0  0  0
   36.6580   75.3670   56.4380 Cl  0  0  0  0  0  0  0  0  0  0  0  0
   38.5360   75.5900   58.3920 C   0  0  0  0  0  0  0  0  0  0  0  0
   38.3190   76.6610   58.2760 H   0  0  0  0  0  0  0  0  0  0  0  0
   42.0940   73.3540   60.2390 C   0  0  0  0  0  0  0  0  0  0  0  0
   40.6970   73.3640   60.3960 C   0  0  0  0  0  0  0  0  0  0  0  0
   40.1660   72.9010   61.6140 C   0  0  0  0  0  0  0  0  0  0  0  0
   41.0450   72.4730   62.5590 N   0  0  0  0  0  0  0  0  0  0  0  0
   42.3760   72.4740   62.3800 C   0  0  0  0  0  0  0  0  0  0  0  0
   42.8970   72.9130   61.2240 N   0  0  0  0  0  0  0  0  0  0  0  0
   42.4500   73.7210   59.2850 H   0  0  0  0  0  0  0  0  0  0  0  0
   39.1000   72.8730   61.8250 H   0  0  0  0  0  0  0  0  0  0  0  0
   43.0400   72.1210   63.1680 H   0  0  0  0  0  0  0  0  0  0  0  0
  2  3  1  0  0  0  0
  2  1  1  0  0  0  0
  3 12  1  0  0  0  0
  4  5  1  0  0  0  0
  4  3  2  0  0  0  0
  6  4  1  0  0  0  0
  7  6  2  0  0  0  0
  7  9  1  0  0  0  0
  8  7  1  0  0  0  0
  9  2  2  0  0  0  0
 10  9  1  0  0  0  0
 11 12  2  0  0  0  0
 11 16  1  0  0  0  0
 12 13  1  0  0  0  0
 13 18  1  0  0  0  0
 13 14  2  0  0  0  0
 15 14  1  0  0  0  0
 15 19  1  0  0  0  0
 16 15  2  0  0  0  0
 17 11  1  0  0  0  0
M  END
>  <minimizedAffinity>
-4.55473948

$$$$

 OpenBabel03212520103D

 19 20  0  0  0  0  0  0  0  0999 V2000
   38.3030   73.9750   61.2700 Cl  0  0  0  0  0  0  0  0  0  0  0  0
   40.0120   73.6360   61.1010 C   0  0  0  0  0  0  0  0  0  0  0  0
   40.8510   74.3240   60.2380 C   0  0  0  0  0  0  0  0  0  0  0  0
   42.1700   73.9250   60.2330 C   0  0  0  0  0  0  0  0  0  0  0  0
   42.8360   74.4720   59.5480 H   0  0  0  0  0  0  0  0  0  0  0  0
   42.7270   72.9210   60.9950 C   0  0  0  0  0  3  0  0  0  0  0  0
   41.8680   72.2600   61.8400 C   0  0  0  0  0  0  0  0  0  0  0  0
   42.4370   70.9490   62.8790 Cl  0  0  0  0  0  0  0  0  0  0  0  0
   40.5360   72.6200   61.8830 C   0  0  0  0  0  0  0  0  0  0  0  0
   39.8900   72.0600   62.5750 H   0  0  0  0  0  0  0  0  0  0  0  0
   40.0710   76.7040   59.8200 C   0  0  0  0  0  0  0  0  0  0  0  0
   40.3040   75.3720   59.4330 C   0  0  0  0  0  0  0  0  0  0  0  0
   39.9740   75.0010   58.1150 C   0  0  0  0  0  0  0  0  0  0  0  0
   39.4510   75.9600   57.3060 N   0  0  0  0  0  0  0  0  0  0  0  0
   39.2390   77.2250   57.7050 C   0  0  0  0  0  0  0  0  0  0  0  0
   39.5480   77.5930   58.9580 N   0  0  0  0  0  0  0  0  0  0  0  0
   40.3420   76.9360   60.8420 H   0  0  0  0  0  0  0  0  0  0  0  0
   40.1200   73.9960   57.7280 H   0  0  0  0  0  0  0  0  0  0  0  0
   38.8160   77.9570   57.0190 H   0  0  0  0  0  0  0  0  0  0  0  0
  2  1  1  0  0  0  0
  2  9  1  0  0  0  0
  3  2  2  0  0  0  0
  4  3  1  0  0  0  0
  4  6  2  0  0  0  0
  5  4  1  0  0  0  0
  6  7  1  0  0  0  0
  7  9  2  0  0  0  0
  7  8  1  0  0  0  0
  9 10  1  0  0  0  0
 11 17  1  0  0  0  0
 12 11  1  0  0  0  0
 12  3  1  0  0  0  0
 13 12  2  0  0  0  0
 14 15  2  0  0  0  0
 14 13  1  0  0  0  0
 15 16  1  0  0  0  0
 16 11  2  0  0  0  0
 18 13  1  0  0  0  0
 19 15  1  0  0  0  0
M  END
>  <minimizedAffinity>
-4.43522501

$$$$

 OpenBabel03212520103D

 19 20  0  0  0  0  0  0  0  0999 V2000
   39.4870   72.0820   58.4850 Cl  0  0  0  0  0  0  0  0  0  0  0  0
   39.5030   73.8020   58.8070 C   0  0  0  0  0  0  0  0  0  0  0  0
   40.1420   74.3750   59.8960 C   0  0  0  0  0  0  0  0  0  0  0  0
   40.0530   75.7460   59.9960 C   0  0  0  0  0  0  0  0  0  0  0  0
   40.5610   76.2000   60.8610 H   0  0  0  0  0  0  0  0  0  0  0  0
   39.3990   76.5910   59.1260 C   0  0  0  0  0  3  0  0  0  0  0  0
   38.7770   75.9920   58.0580 C   0  0  0  0  0  0  0  0  0  0  0  0
   37.8990   76.9470   56.8580 Cl  0  0  0  0  0  0  0  0  0  0  0  0
   38.8350   74.6200   57.9110 C   0  0  0  0  0  0  0  0  0  0  0  0
   38.3210   74.1900   57.0390 H   0  0  0  0  0  0  0  0  0  0  0  0
   40.2670   72.7990   61.8840 C   0  0  0  0  0  0  0  0  0  0  0  0
   40.8300   73.5240   60.8180 C   0  0  0  0  0  0  0  0  0  0  0  0
   42.2190   73.4220   60.6120 C   0  0  0  0  0  0  0  0  0  0  0  0
   42.9220   72.6260   61.4600 N   0  0  0  0  0  0  0  0  0  0  0  0
   42.3560   71.9450   62.4700 C   0  0  0  0  0  0  0  0  0  0  0  0
   41.0330   72.0320   62.6790 N   0  0  0  0  0  0  0  0  0  0  0  0
   39.1960   72.9120   61.9980 H   0  0  0  0  0  0  0  0  0  0  0  0
   42.7400   73.9460   59.8140 H   0  0  0  0  0  0  0  0  0  0  0  0
   42.9630   71.3200   63.1230 H   0  0  0  0  0  0  0  0  0  0  0  0
  1  2  1  0  0  0  0
  2  3  1  0  0  0  0
  3  4  2  0  0  0  0
  3 12  1  0  0  0  0
  4  5  1  0  0  0  0
  6  4  1  0  0  0  0
  7  6  2  0  0  0  0
  8  7  1  0  0  0  0
  9  7  1  0  0  0  0
  9  2  2  0  0  0  0
 10  9  1  0  0  0  0
 11 17  1  0  0  0  0
 11 16  1  0  0  0  0
 12 11  2  0  0  0  0
 13 12  1  0  0  0  0
 13 14  2  0  0  0  0
 14 15  1  0  0  0  0
 15 16  2  0  0  0  0
 15 19  1  0  0  0  0
 18 13  1  0  0  0  0
M  END
>  <minimizedAffinity>
-4.40159273

$$$$

 OpenBabel03212520103D

 19 20  0  0  0  0  0  0  0  0999 V2000
   40.6170   72.6720   57.9590 Cl  0  0  0  0  0  0  0  0  0  0  0  0
   40.2390   74.2330   58.6520 C   0  0  0  0  0  0  0  0  0  0  0  0
   40.5140   74.5780   59.9670 C   0  0  0  0  0  0  0  0  0  0  0  0
   40.1500   75.8520   60.3460 C   0  0  0  0  0  0  0  0  0  0  0  0
   40.3690   76.1240   61.3900 H   0  0  0  0  0  0  0  0  0  0  0  0
   39.5450   76.8020   59.5530 C   0  0  0  0  0  3  0  0  0  0  0  0
   39.2860   76.4280   58.2560 C   0  0  0  0  0  0  0  0  0  0  0  0
   38.5150   77.5410   57.1210 Cl  0  0  0  0  0  0  0  0  0  0  0  0
   39.6320   75.1630   57.8250 C   0  0  0  0  0  0  0  0  0  0  0  0
   39.4040   74.9130   56.7790 H   0  0  0  0  0  0  0  0  0  0  0  0
   42.5020   73.2540   60.8300 C   0  0  0  0  0  0  0  0  0  0  0  0
   41.1420   73.6140   60.8170 C   0  0  0  0  0  0  0  0  0  0  0  0
   40.2810   72.9720   61.7270 C   0  0  0  0  0  0  0  0  0  0  0  0
   40.8260   72.0450   62.5590 N   0  0  0  0  0  0  0  0  0  0  0  0
   42.1290   71.7230   62.5490 C   0  0  0  0  0  0  0  0  0  0  0  0
   42.9630   72.3260   61.6870 N   0  0  0  0  0  0  0  0  0  0  0  0
   43.1200   73.7770   60.1120 H   0  0  0  0  0  0  0  0  0  0  0  0
   39.2170   73.1860   61.7880 H   0  0  0  0  0  0  0  0  0  0  0  0
   42.5180   70.9730   63.2360 H   0  0  0  0  0  0  0  0  0  0  0  0
  1  2  1  0  0  0  0
  2  3  1  0  0  0  0
  3  4  2  0  0  0  0
  3 12  1  0  0  0  0
  4  5  1  0  0  0  0
  6  4  1  0  0  0  0
  7  6  2  0  0  0  0
  8  7  1  0  0  0  0
  9  7  1  0  0  0  0
  9  2  2  0  0  0  0
 10  9  1  0  0  0  0
 11 16  1  0  0  0  0
 12 11  2  0  0  0  0
 12 13  1  0  0  0  0
 13 18  1  0  0  0  0
 13 14  2  0  0  0  0
 15 14  1  0  0  0  0
 15 19  1  0  0  0  0
 16 15  2  0  0  0  0
 17 11  1  0  0  0  0
M  END
>  <minimizedAffinity>
-4.32716131

$$$$

 OpenBabel03212520103D

 19 20  0  0  0  0  0  0  0  0999 V2000
   43.5380   73.6750   59.6990 Cl  0  0  0  0  0  0  0  0  0  0  0  0
   41.8740   74.0490   60.0920 C   0  0  0  0  0  0  0  0  0  0  0  0
   41.0500   73.2090   60.8260 C   0  0  0  0  0  0  0  0  0  0  0  0
   39.7660   73.6620   61.0430 C   0  0  0  0  0  0  0  0  0  0  0  0
   39.1130   72.9940   61.6260 H   0  0  0  0  0  0  0  0  0  0  0  0
   39.2320   74.8530   60.6050 C   0  0  0  0  0  3  0  0  0  0  0  0
   40.0750   75.6610   59.8810 C   0  0  0  0  0  0  0  0  0  0  0  0
   39.5300   77.2200   59.2520 Cl  0  0  0  0  0  0  0  0  0  0  0  0
   41.3710   75.2550   59.6340 C   0  0  0  0  0  0  0  0  0  0  0  0
   42.0050   75.9370   59.0500 H   0  0  0  0  0  0  0  0  0  0  0  0
   41.7830   70.7950   60.5430 C   0  0  0  0  0  0  0  0  0  0  0  0
   41.5750   71.9640   61.2960 C   0  0  0  0  0  0  0  0  0  0  0  0
   41.9110   71.9360   62.6630 C   0  0  0  0  0  0  0  0  0  0  0  0
   42.4150   70.7770   63.1620 N   0  0  0  0  0  0  0  0  0  0  0  0
   42.6030   69.6750   62.4170 C   0  0  0  0  0  0  0  0  0  0  0  0
   42.2870   69.6860   61.1120 N   0  0  0  0  0  0  0  0  0  0  0  0
   41.5090   70.8700   59.4980 H   0  0  0  0  0  0  0  0  0  0  0  0
   41.7850   72.7920   63.3210 H   0  0  0  0  0  0  0  0  0  0  0  0
   43.0100   68.7690   62.8630 H   0  0  0  0  0  0  0  0  0  0  0  0
  1  2  1  0  0  0  0
  2  3  1  0  0  0  0
  3  4  2  0  0  0  0
  3 12  1  0  0  0  0
  4  5  1  0  0  0  0
  6  4  1  0  0  0  0
  7  6  2  0  0  0  0
  8  7  1  0  0  0  0
  9  7  1  0  0  0  0
  9  2  2  0  0  0  0
 10  9  1  0  0  0  0
 11 16  2  0  0  0  0
 11 12  1  0  0  0  0
 12 13  2  0  0  0  0
 13 14  1  0  0  0  0
 13 18  1  0  0  0  0
 15 19  1  0  0  0  0
 15 14  2  0  0  0  0
 16 15  1  0  0  0  0
 17 11  1  0  0  0  0
M  END
>  <minimizedAffinity>
-4.25834942

$$$$

 OpenBabel03212520103D

 19 20  0  0  0  0  0  0  0  0999 V2000
   37.8760   72.7920   57.4620 Cl  0  0  0  0  0  0  0  0  0  0  0  0
   38.1180   74.5250   57.5040 C   0  0  0  0  0  0  0  0  0  0  0  0
   38.8800   75.1720   58.4650 C   0  0  0  0  0  0  0  0  0  0  0  0
   38.9640   76.5420   58.3470 C   0  0  0  0  0  0  0  0  0  0  0  0
   39.5690   77.0550   59.1100 H   0  0  0  0  0  0  0  0  0  0  0  0
   38.3700   77.3200   57.3770 C   0  0  0  0  0  3  0  0  0  0  0  0
   37.6230   76.6470   56.4400 C   0  0  0  0  0  0  0  0  0  0  0  0
   36.8010   77.5100   55.1350 Cl  0  0  0  0  0  0  0  0  0  0  0  0
   37.5060   75.2740   56.5130 C   0  0  0  0  0  0  0  0  0  0  0  0
   36.8970   74.7830   55.7400 H   0  0  0  0  0  0  0  0  0  0  0  0
   38.9200   73.9090   60.6680 C   0  0  0  0  0  0  0  0  0  0  0  0
   39.5100   74.3930   59.4870 C   0  0  0  0  0  0  0  0  0  0  0  0
   40.8660   74.0940   59.2570 C   0  0  0  0  0  0  0  0  0  0  0  0
   41.5140   73.3560   60.1970 N   0  0  0  0  0  0  0  0  0  0  0  0
   40.9230   72.9070   61.3160 C   0  0  0  0  0  0  0  0  0  0  0  0
   39.6310   73.1840   61.5490 N   0  0  0  0  0  0  0  0  0  0  0  0
   37.8760   74.1660   60.7950 H   0  0  0  0  0  0  0  0  0  0  0  0
   41.4050   74.4260   58.3730 H   0  0  0  0  0  0  0  0  0  0  0  0
   41.4850   72.3190   62.0390 H   0  0  0  0  0  0  0  0  0  0  0  0
  1  2  1  0  0  0  0
  2  3  1  0  0  0  0
  3 12  1  0  0  0  0
  4  3  2  0  0  0  0
  4  5  1  0  0  0  0
  6  4  1  0  0  0  0
  7  9  1  0  0  0  0
  7  6  2  0  0  0  0
  8  7  1  0  0  0  0
  9  2  2  0  0  0  0
 10  9  1  0  0  0  0
 11 17  1  0  0  0  0
 11 16  1  0  0  0  0
 12 11  2  0  0  0  0
 13 12  1  0  0  0  0
 13 14  2  0  0  0  0
 14 15  1  0  0  0  0
 15 16  2  0  0  0  0
 15 19  1  0  0  0  0
 18 13  1  0  0  0  0
M  END
>  <minimizedAffinity>
-4.2109437

$$$$

 OpenBabel03212520103D

 19 20  0  0  0  0  0  0  0  0999 V2000
   41.0950   71.4690   58.6220 Cl  0  0  0  0  0  0  0  0  0  0  0  0
   41.5760   71.2780   60.2940 C   0  0  0  0  0  0  0  0  0  0  0  0
   41.3170   72.2170   61.2800 C   0  0  0  0  0  0  0  0  0  0  0  0
   41.7670   71.9050   62.5450 C   0  0  0  0  0  0  0  0  0  0  0  0
   41.5610   72.6510   63.3270 H   0  0  0  0  0  0  0  0  0  0  0  0
   42.4410   70.7620   62.9160 C   0  0  0  0  0  3  0  0  0  0  0  0
   42.6810   69.8520   61.9140 C   0  0  0  0  0  0  0  0  0  0  0  0
   43.5350   68.3400   62.2390 Cl  0  0  0  0  0  0  0  0  0  0  0  0
   42.2520   70.1170   60.6290 C   0  0  0  0  0  0  0  0  0  0  0  0
   42.4680   69.3580   59.8640 H   0  0  0  0  0  0  0  0  0  0  0  0
   41.1500   74.5470   60.2840 C   0  0  0  0  0  0  0  0  0  0  0  0
   40.6190   73.4150   60.9270 C   0  0  0  0  0  0  0  0  0  0  0  0
   39.2550   73.4340   61.2740 C   0  0  0  0  0  0  0  0  0  0  0  0
   38.5420   74.5490   60.9610 N   0  0  0  0  0  0  0  0  0  0  0  0
   39.0790   75.6150   60.3450 C   0  0  0  0  0  0  0  0  0  0  0  0
   40.3780   75.6130   60.0090 N   0  0  0  0  0  0  0  0  0  0  0  0
   42.2030   74.4810   60.0390 H   0  0  0  0  0  0  0  0  0  0  0  0
   38.7580   72.6050   61.7720 H   0  0  0  0  0  0  0  0  0  0  0  0
   38.4670   76.4860   60.1160 H   0  0  0  0  0  0  0  0  0  0  0  0
  1  2  1  0  0  0  0
  2  9  2  0  0  0  0
  2  3  1  0  0  0  0
  3  4  2  0  0  0  0
  4  6  1  0  0  0  0
  4  5  1  0  0  0  0
  7  8  1  0  0  0  0
  7  6  2  0  0  0  0
  9  7  1  0  0  0  0
 10  9  1  0  0  0  0
 11 12  1  0  0  0  0
 12 13  2  0  0  0  0
 12  3  1  0  0  0  0
 13 18  1  0  0  0  0
 14 13  1  0  0  0  0
 15 14  2  0  0  0  0
 16 11  2  0  0  0  0
 16 15  1  0  0  0  0
 17 11  1  0  0  0  0
 19 15  1  0  0  0  0
M  END
>  <minimizedAffinity>
-4.1801095

$$$$
