
 OpenBabel03212519593D

 19 20  0  0  0  0  0  0  0  0999 V2000
   43.6220   85.0090   60.8630 Cl  0  0  0  0  0  0  0  0  0  0  0  0
   42.0570   84.4540   61.4330 C   0  0  0  0  0  0  0  0  0  0  0  0
   41.1020   84.1060   60.5120 C   0  0  0  0  0  0  0  0  0  0  0  0
   39.8630   83.6680   60.9200 C   0  0  0  0  0  0  0  0  0  0  0  0
   39.1140   83.3940   60.1670 H   0  0  0  0  0  0  0  0  0  0  0  0
   39.5600   83.5710   62.2650 C   0  0  0  0  0  3  0  0  0  0  0  0
   40.5330   83.9250   63.1790 C   0  0  0  0  0  0  0  0  0  0  0  0
   40.2610   83.8420   64.9130 Cl  0  0  0  0  0  0  0  0  0  0  0  0
   41.7760   84.3660   62.7630 C   0  0  0  0  0  0  0  0  0  0  0  0
   42.5240   84.6380   63.4780 H   0  0  0  0  0  0  0  0  0  0  0  0
   42.1670   83.1970   57.1180 C   0  0  0  0  0  0  0  0  0  0  0  0
   41.9520   84.3870   56.3900 C   0  0  0  0  0  0  0  0  0  0  0  0
   41.4430   85.4810   57.0880 C   0  0  0  0  0  0  0  0  0  0  0  0
   41.1800   85.3560   58.4210 N   0  0  0  0  0  0  0  0  0  0  0  0
   41.3970   84.2010   59.0870 C   0  0  0  0  0  0  0  0  0  0  0  0
   41.8900   83.1320   58.4250 N   0  0  0  0  0  0  0  0  0  0  0  0
   42.5620   82.3760   56.5370 H   0  0  0  0  0  0  0  0  0  0  0  0
   42.1560   84.5000   55.3380 H   0  0  0  0  0  0  0  0  0  0  0  0
   41.2560   86.4340   56.5720 H   0  0  0  0  0  0  0  0  0  0  0  0
  1  2  1  0  0  0  0
  2  9  1  0  0  0  0
  3  4  1  0  0  0  0
  3  2  2  0  0  0  0
  4  6  2  0  0  0  0
  5  4  1  0  0  0  0
  6  7  1  0  0  0  0
  7  8  1  0  0  0  0
  9  7  2  0  0  0  0
  9 10  1  0  0  0  0
 11 16  1  0  0  0  0
 12 13  1  0  0  0  0
 12 11  2  0  0  0  0
 13 14  2  0  0  0  0
 14 15  1  0  0  0  0
 15  3  1  0  0  0  0
 16 15  2  0  0  0  0
 17 11  1  0  0  0  0
 18 12  1  0  0  0  0
 19 13  1  0  0  0  0
M  END
>  <minimizedAffinity>
-4.22244501

>  <minimizedRMSD>
4.25749111

$$$$
