
 OpenBabel03212520433D

 19 20  0  0  0  0  0  0  0  0999 V2000
   39.7910   80.4390   58.4540 Cl  0  0  0  0  0  0  0  0  0  0  0  0
   40.4910   79.7800   59.9200 C   0  0  0  0  0  0  0  0  0  0  0  0
   40.5390   80.5330   61.0800 C   0  0  0  0  0  0  0  0  0  0  0  0
   41.1030   79.9310   62.1640 C   0  0  0  0  0  0  0  0  0  0  0  0
   41.1650   80.4660   63.0790 H   0  0  0  0  0  0  0  0  0  0  0  0
   41.6060   78.6460   62.1460 C   0  0  0  0  0  3  0  0  0  0  0  0
   41.5480   77.9060   60.9760 C   0  0  0  0  0  0  0  0  0  0  0  0
   42.1950   76.2760   60.9850 Cl  0  0  0  0  0  0  0  0  0  0  0  0
   40.9800   78.4880   59.8500 C   0  0  0  0  0  0  0  0  0  0  0  0
   40.9350   77.9090   58.9310 H   0  0  0  0  0  0  0  0  0  0  0  0
   39.9960   81.8820   61.0450 C   0  0  0  0  0  0  0  0  0  0  0  0
   40.2290   82.7100   59.9400 C   0  0  0  0  0  0  0  0  0  0  0  0
   39.7230   84.0070   59.8740 C   0  0  0  0  0  0  0  0  0  0  0  0
   38.9920   84.4110   60.9480 N   0  0  0  0  0  0  0  0  0  0  0  0
   38.7710   83.6160   62.0070 C   0  0  0  0  0  0  0  0  0  0  0  0
   39.2620   82.3730   62.0570 N   0  0  0  0  0  0  0  0  0  0  0  0
   40.7970   82.4020   59.0980 H   0  0  0  0  0  0  0  0  0  0  0  0
   39.9120   84.6350   59.0110 H   0  0  0  0  0  0  0  0  0  0  0  0
   38.1900   83.9270   62.8690 H   0  0  0  0  0  0  0  0  0  0  0  0
  1  2  1  0  0  0  0
  2  3  1  0  0  0  0
  3  4  2  0  0  0  0
  4  5  1  0  0  0  0
  6  4  1  0  0  0  0
  7  8  1  0  0  0  0
  7  6  2  0  0  0  0
  9  2  2  0  0  0  0
  9  7  1  0  0  0  0
 10  9  1  0  0  0  0
 11  3  1  0  0  0  0
 11 16  1  0  0  0  0
 12 11  2  0  0  0  0
 13 12  1  0  0  0  0
 13 14  2  0  0  0  0
 14 15  1  0  0  0  0
 15 16  2  0  0  0  0
 15 19  1  0  0  0  0
 17 12  1  0  0  0  0
 18 13  1  0  0  0  0
M  END
>  <minimizedAffinity>
-4.82483101

>  <minimizedRMSD>
0.604958177

$$$$
