
 OpenBabel03212520443D

 19 20  0  0  0  0  0  0  0  0999 V2000
   39.7630   80.4950   58.4130 Cl  0  0  0  0  0  0  0  0  0  0  0  0
   40.4880   79.8520   59.8720 C   0  0  0  0  0  0  0  0  0  0  0  0
   40.5560   80.6170   61.0250 C   0  0  0  0  0  0  0  0  0  0  0  0
   41.1380   80.0260   62.1050 C   0  0  0  0  0  0  0  0  0  0  0  0
   41.2160   80.5700   63.0140 H   0  0  0  0  0  0  0  0  0  0  0  0
   41.6430   78.7420   62.0910 C   0  0  0  0  0  3  0  0  0  0  0  0
   41.5670   77.9910   60.9310 C   0  0  0  0  0  0  0  0  0  0  0  0
   42.2170   76.3630   60.9440 Cl  0  0  0  0  0  0  0  0  0  0  0  0
   40.9790   78.5620   59.8070 C   0  0  0  0  0  0  0  0  0  0  0  0
   40.9190   77.9720   58.8960 H   0  0  0  0  0  0  0  0  0  0  0  0
   40.0090   81.9650   60.9870 C   0  0  0  0  0  0  0  0  0  0  0  0
   40.2490   82.7940   59.8840 C   0  0  0  0  0  0  0  0  0  0  0  0
   39.7410   84.0900   59.8150 C   0  0  0  0  0  0  0  0  0  0  0  0
   39.0000   84.4920   60.8820 N   0  0  0  0  0  0  0  0  0  0  0  0
   38.7710   83.6950   61.9390 C   0  0  0  0  0  0  0  0  0  0  0  0
   39.2650   82.4530   61.9920 N   0  0  0  0  0  0  0  0  0  0  0  0
   40.8260   82.4890   59.0470 H   0  0  0  0  0  0  0  0  0  0  0  0
   39.9360   84.7190   58.9540 H   0  0  0  0  0  0  0  0  0  0  0  0
   38.1830   84.0040   62.7960 H   0  0  0  0  0  0  0  0  0  0  0  0
  1  2  1  0  0  0  0
  2  3  1  0  0  0  0
  3  4  2  0  0  0  0
  4  5  1  0  0  0  0
  6  4  1  0  0  0  0
  7  8  1  0  0  0  0
  7  6  2  0  0  0  0
  9  2  2  0  0  0  0
  9  7  1  0  0  0  0
 10  9  1  0  0  0  0
 11  3  1  0  0  0  0
 11 16  1  0  0  0  0
 12 11  2  0  0  0  0
 13 12  1  0  0  0  0
 13 14  2  0  0  0  0
 14 15  1  0  0  0  0
 15 16  2  0  0  0  0
 15 19  1  0  0  0  0
 17 12  1  0  0  0  0
 18 13  1  0  0  0  0
M  END
>  <minimizedAffinity>
-4.80749321

>  <minimizedRMSD>
0.361228824

$$$$
