
 OpenBabel03212519593D

 19 20  0  0  0  0  0  0  0  0999 V2000
   41.1250   74.4610   57.3170 Cl  0  0  0  0  0  0  0  0  0  0  0  0
   40.3490   74.1600   58.8630 C   0  0  0  0  0  0  0  0  0  0  0  0
   39.0390   74.5300   59.0290 C   0  0  0  0  0  0  0  0  0  0  0  0
   38.3960   74.3110   60.2270 C   0  0  0  0  0  0  0  0  0  0  0  0
   37.3480   74.6140   60.3380 H   0  0  0  0  0  0  0  0  0  0  0  0
   39.0610   73.7160   61.2810 C   0  0  0  0  0  3  0  0  0  0  0  0
   40.3800   73.3500   61.0970 C   0  0  0  0  0  0  0  0  0  0  0  0
   41.3240   72.5860   62.3670 Cl  0  0  0  0  0  0  0  0  0  0  0  0
   41.0210   73.5720   59.8920 C   0  0  0  0  0  0  0  0  0  0  0  0
   42.0420   73.2860   59.7580 H   0  0  0  0  0  0  0  0  0  0  0  0
   36.7760   74.9980   56.1760 C   0  0  0  0  0  0  0  0  0  0  0  0
   36.9500   76.3610   55.8540 C   0  0  0  0  0  0  0  0  0  0  0  0
   37.8480   77.0920   56.6310 C   0  0  0  0  0  0  0  0  0  0  0  0
   38.5070   76.4680   57.6500 N   0  0  0  0  0  0  0  0  0  0  0  0
   38.3160   75.1600   57.9310 C   0  0  0  0  0  0  0  0  0  0  0  0
   37.4490   74.4390   57.1870 N   0  0  0  0  0  0  0  0  0  0  0  0
   36.0700   74.4710   55.5490 H   0  0  0  0  0  0  0  0  0  0  0  0
   36.4370   76.8660   55.0530 H   0  0  0  0  0  0  0  0  0  0  0  0
   38.0260   78.1570   56.4260 H   0  0  0  0  0  0  0  0  0  0  0  0
  1  2  1  0  0  0  0
  2  3  2  0  0  0  0
  2  9  1  0  0  0  0
  3  4  1  0  0  0  0
  4  5  1  0  0  0  0
  4  6  2  0  0  0  0
  7  6  1  0  0  0  0
  7  8  1  0  0  0  0
  9  7  2  0  0  0  0
 10  9  1  0  0  0  0
 11 16  1  0  0  0  0
 12 11  2  0  0  0  0
 12 13  1  0  0  0  0
 13 14  2  0  0  0  0
 14 15  1  0  0  0  0
 15  3  1  0  0  0  0
 16 15  2  0  0  0  0
 17 11  1  0  0  0  0
 18 12  1  0  0  0  0
 19 13  1  0  0  0  0
M  END
>  <minimizedAffinity>
-4.50823641

$$$$

 OpenBabel03212519593D

 19 20  0  0  0  0  0  0  0  0999 V2000
   37.9050   72.6940   57.2290 Cl  0  0  0  0  0  0  0  0  0  0  0  0
   37.8820   74.4280   56.9580 C   0  0  0  0  0  0  0  0  0  0  0  0
   38.4640   75.2510   57.8890 C   0  0  0  0  0  0  0  0  0  0  0  0
   38.4650   76.6160   57.7130 C   0  0  0  0  0  0  0  0  0  0  0  0
   38.9360   77.2560   58.4690 H   0  0  0  0  0  0  0  0  0  0  0  0
   37.8810   77.1800   56.5950 C   0  0  0  0  0  3  0  0  0  0  0  0
   37.3000   76.3370   55.6680 C   0  0  0  0  0  0  0  0  0  0  0  0
   36.5290   76.9420   54.2090 Cl  0  0  0  0  0  0  0  0  0  0  0  0
   37.3010   74.9660   55.8500 C   0  0  0  0  0  0  0  0  0  0  0  0
   36.8500   74.3210   55.1270 H   0  0  0  0  0  0  0  0  0  0  0  0
   38.8870   73.8610   61.2610 C   0  0  0  0  0  0  0  0  0  0  0  0
   40.2730   73.5970   61.3220 C   0  0  0  0  0  0  0  0  0  0  0  0
   41.0340   73.9050   60.1950 C   0  0  0  0  0  0  0  0  0  0  0  0
   40.4160   74.4400   59.1020 N   0  0  0  0  0  0  0  0  0  0  0  0
   39.0860   74.6790   59.0780 C   0  0  0  0  0  0  0  0  0  0  0  0
   38.3360   74.3860   60.1610 N   0  0  0  0  0  0  0  0  0  0  0  0
   38.3380   73.6060   62.1560 H   0  0  0  0  0  0  0  0  0  0  0  0
   40.7730   73.1770   62.1790 H   0  0  0  0  0  0  0  0  0  0  0  0
   42.1180   73.7220   60.1860 H   0  0  0  0  0  0  0  0  0  0  0  0
  2  1  1  0  0  0  0
  2  3  1  0  0  0  0
  3 15  1  0  0  0  0
  4  3  2  0  0  0  0
  4  5  1  0  0  0  0
  6  4  1  0  0  0  0
  7  9  1  0  0  0  0
  7  6  2  0  0  0  0
  8  7  1  0  0  0  0
  9  2  2  0  0  0  0
 10  9  1  0  0  0  0
 11 12  1  0  0  0  0
 11 17  1  0  0  0  0
 12 18  1  0  0  0  0
 13 12  2  0  0  0  0
 14 13  1  0  0  0  0
 15 14  2  0  0  0  0
 15 16  1  0  0  0  0
 16 11  2  0  0  0  0
 19 13  1  0  0  0  0
M  END
>  <minimizedAffinity>
-4.38370419

$$$$

 OpenBabel03212519593D

 19 20  0  0  0  0  0  0  0  0999 V2000
   41.2040   71.6520   58.6780 Cl  0  0  0  0  0  0  0  0  0  0  0  0
   41.6940   71.2650   60.3190 C   0  0  0  0  0  0  0  0  0  0  0  0
   41.3170   72.1020   61.3370 C   0  0  0  0  0  0  0  0  0  0  0  0
   41.6830   71.8320   62.6360 C   0  0  0  0  0  0  0  0  0  0  0  0
   41.3710   72.5150   63.4360 H   0  0  0  0  0  0  0  0  0  0  0  0
   42.4360   70.7130   62.9360 C   0  0  0  0  0  3  0  0  0  0  0  0
   42.8070   69.8810   61.8980 C   0  0  0  0  0  0  0  0  0  0  0  0
   43.7630   68.4300   62.1610 Cl  0  0  0  0  0  0  0  0  0  0  0  0
   42.4370   70.1570   60.5950 C   0  0  0  0  0  0  0  0  0  0  0  0
   42.7280   69.5070   59.7970 H   0  0  0  0  0  0  0  0  0  0  0  0
   38.4550   74.3860   61.0660 C   0  0  0  0  0  0  0  0  0  0  0  0
   39.0270   75.5430   60.4940 C   0  0  0  0  0  0  0  0  0  0  0  0
   40.3920   75.5100   60.2130 C   0  0  0  0  0  0  0  0  0  0  0  0
   41.1030   74.3800   60.4980 N   0  0  0  0  0  0  0  0  0  0  0  0
   40.5230   73.2900   61.0460 C   0  0  0  0  0  0  0  0  0  0  0  0
   39.2010   73.3060   61.3250 N   0  0  0  0  0  0  0  0  0  0  0  0
   37.3960   74.4560   61.2670 H   0  0  0  0  0  0  0  0  0  0  0  0
   38.4780   76.4400   60.2630 H   0  0  0  0  0  0  0  0  0  0  0  0
   40.8910   76.3820   59.7660 H   0  0  0  0  0  0  0  0  0  0  0  0
  1  2  1  0  0  0  0
  2  9  2  0  0  0  0
  2  3  1  0  0  0  0
  3  4  2  0  0  0  0
  4  6  1  0  0  0  0
  4  5  1  0  0  0  0
  7  8  1  0  0  0  0
  7  6  2  0  0  0  0
  9  7  1  0  0  0  0
 10  9  1  0  0  0  0
 11 17  1  0  0  0  0
 11 16  1  0  0  0  0
 12 11  2  0  0  0  0
 13 12  1  0  0  0  0
 13 14  2  0  0  0  0
 14 15  1  0  0  0  0
 15 16  2  0  0  0  0
 15  3  1  0  0  0  0
 18 12  1  0  0  0  0
 19 13  1  0  0  0  0
M  END
>  <minimizedAffinity>
-4.35446739

$$$$

 OpenBabel03212519593D

 19 20  0  0  0  0  0  0  0  0999 V2000
   40.9060   71.5820   58.6400 Cl  0  0  0  0  0  0  0  0  0  0  0  0
   41.5640   71.2430   60.2310 C   0  0  0  0  0  0  0  0  0  0  0  0
   41.3210   72.1280   61.2510 C   0  0  0  0  0  0  0  0  0  0  0  0
   41.8210   71.8970   62.5120 C   0  0  0  0  0  0  0  0  0  0  0  0
   41.6140   72.6170   63.3130 H   0  0  0  0  0  0  0  0  0  0  0  0
   42.5760   70.7700   62.7720 C   0  0  0  0  0  3  0  0  0  0  0  0
   42.8120   69.8900   61.7350 C   0  0  0  0  0  0  0  0  0  0  0  0
   43.7570   68.4240   61.9490 Cl  0  0  0  0  0  0  0  0  0  0  0  0
   42.3070   70.1260   60.4690 C   0  0  0  0  0  0  0  0  0  0  0  0
   42.4940   69.4390   59.6710 H   0  0  0  0  0  0  0  0  0  0  0  0
   40.3850   75.5170   60.1950 C   0  0  0  0  0  0  0  0  0  0  0  0
   39.0160   75.5860   60.5310 C   0  0  0  0  0  0  0  0  0  0  0  0
   38.4430   74.4580   61.1160 C   0  0  0  0  0  0  0  0  0  0  0  0
   39.2180   73.3570   61.3350 N   0  0  0  0  0  0  0  0  0  0  0  0
   40.5270   73.3250   61.0010 C   0  0  0  0  0  0  0  0  0  0  0  0
   41.0960   74.4100   60.4320 N   0  0  0  0  0  0  0  0  0  0  0  0
   40.7860   76.4130   59.7430 H   0  0  0  0  0  0  0  0  0  0  0  0
   38.3930   76.4490   60.3640 H   0  0  0  0  0  0  0  0  0  0  0  0
   37.3800   74.4550   61.4000 H   0  0  0  0  0  0  0  0  0  0  0  0
  1  2  1  0  0  0  0
  2  9  2  0  0  0  0
  2  3  1  0  0  0  0
  3  4  2  0  0  0  0
  4  6  1  0  0  0  0
  4  5  1  0  0  0  0
  7  8  1  0  0  0  0
  7  6  2  0  0  0  0
  9  7  1  0  0  0  0
 10  9  1  0  0  0  0
 11 16  2  0  0  0  0
 11 12  1  0  0  0  0
 12 13  2  0  0  0  0
 13 14  1  0  0  0  0
 13 19  1  0  0  0  0
 15  3  1  0  0  0  0
 15 14  2  0  0  0  0
 16 15  1  0  0  0  0
 17 11  1  0  0  0  0
 18 12  1  0  0  0  0
M  END
>  <minimizedAffinity>
-4.2710104

$$$$

 OpenBabel03212519593D

 19 20  0  0  0  0  0  0  0  0999 V2000
   43.0530   74.7630   58.9500 Cl  0  0  0  0  0  0  0  0  0  0  0  0
   42.1160   73.8830   60.1450 C   0  0  0  0  0  0  0  0  0  0  0  0
   40.8040   74.2300   60.3440 C   0  0  0  0  0  0  0  0  0  0  0  0
   40.0380   73.5640   61.2730 C   0  0  0  0  0  0  0  0  0  0  0  0
   38.9910   73.8580   61.4170 H   0  0  0  0  0  0  0  0  0  0  0  0
   40.5760   72.5350   62.0200 C   0  0  0  0  0  3  0  0  0  0  0  0
   41.8990   72.1980   61.8060 C   0  0  0  0  0  0  0  0  0  0  0  0
   42.6890   70.9050   62.6970 Cl  0  0  0  0  0  0  0  0  0  0  0  0
   42.6650   72.8700   60.8720 C   0  0  0  0  0  0  0  0  0  0  0  0
   43.6880   72.6020   60.7130 H   0  0  0  0  0  0  0  0  0  0  0  0
   38.9820   76.0220   57.7080 C   0  0  0  0  0  0  0  0  0  0  0  0
   39.0960   77.3720   58.1070 C   0  0  0  0  0  0  0  0  0  0  0  0
   39.8010   77.6350   59.2810 C   0  0  0  0  0  0  0  0  0  0  0  0
   40.3410   76.5950   59.9790 N   0  0  0  0  0  0  0  0  0  0  0  0
   40.2130   75.3140   59.5680 C   0  0  0  0  0  0  0  0  0  0  0  0
   39.5330   75.0430   58.4340 N   0  0  0  0  0  0  0  0  0  0  0  0
   38.4270   75.8650   56.7940 H   0  0  0  0  0  0  0  0  0  0  0  0
   38.6750   78.2020   57.5650 H   0  0  0  0  0  0  0  0  0  0  0  0
   39.9220   78.6680   59.6390 H   0  0  0  0  0  0  0  0  0  0  0  0
  1  2  1  0  0  0  0
  2  3  2  0  0  0  0
  2  9  1  0  0  0  0
  3  4  1  0  0  0  0
  4  5  1  0  0  0  0
  4  6  2  0  0  0  0
  7  6  1  0  0  0  0
  7  8  1  0  0  0  0
  9  7  2  0  0  0  0
 10  9  1  0  0  0  0
 11 12  2  0  0  0  0
 11 16  1  0  0  0  0
 12 13  1  0  0  0  0
 13 19  1  0  0  0  0
 13 14  2  0  0  0  0
 15 14  1  0  0  0  0
 15  3  1  0  0  0  0
 16 15  2  0  0  0  0
 17 11  1  0  0  0  0
 18 12  1  0  0  0  0
M  END
>  <minimizedAffinity>
-4.25201988

$$$$

 OpenBabel03212519593D

 19 20  0  0  0  0  0  0  0  0999 V2000
   39.5860   71.6530   58.3550 Cl  0  0  0  0  0  0  0  0  0  0  0  0
   39.2470   73.3740   58.4280 C   0  0  0  0  0  0  0  0  0  0  0  0
   39.8390   74.1250   59.4100 C   0  0  0  0  0  0  0  0  0  0  0  0
   39.5970   75.4770   59.5000 C   0  0  0  0  0  0  0  0  0  0  0  0
   40.0810   76.0590   60.2930 H   0  0  0  0  0  0  0  0  0  0  0  0
   38.7520   76.0990   58.6020 C   0  0  0  0  0  3  0  0  0  0  0  0
   38.1630   75.3280   57.6190 C   0  0  0  0  0  0  0  0  0  0  0  0
   37.0730   76.0130   56.4230 Cl  0  0  0  0  0  0  0  0  0  0  0  0
   38.4100   73.9710   57.5330 C   0  0  0  0  0  0  0  0  0  0  0  0
   37.9510   73.3810   56.7680 H   0  0  0  0  0  0  0  0  0  0  0  0
   41.0350   72.2770   62.3490 C   0  0  0  0  0  0  0  0  0  0  0  0
   42.4370   72.2910   62.1820 C   0  0  0  0  0  0  0  0  0  0  0  0
   42.9410   72.9400   61.0560 C   0  0  0  0  0  0  0  0  0  0  0  0
   42.0720   73.5230   60.1800 N   0  0  0  0  0  0  0  0  0  0  0  0
   40.7350   73.4900   60.3700 C   0  0  0  0  0  0  0  0  0  0  0  0
   40.2310   72.8650   61.4570 N   0  0  0  0  0  0  0  0  0  0  0  0
   40.6890   71.7630   63.2350 H   0  0  0  0  0  0  0  0  0  0  0  0
   43.1330   71.8350   62.8660 H   0  0  0  0  0  0  0  0  0  0  0  0
   44.0250   72.9830   60.8750 H   0  0  0  0  0  0  0  0  0  0  0  0
  1  2  1  0  0  0  0
  2  3  1  0  0  0  0
  3  4  2  0  0  0  0
  3 15  1  0  0  0  0
  4  5  1  0  0  0  0
  6  4  1  0  0  0  0
  7  6  2  0  0  0  0
  8  7  1  0  0  0  0
  9  7  1  0  0  0  0
  9  2  2  0  0  0  0
 10  9  1  0  0  0  0
 11 17  1  0  0  0  0
 12 11  1  0  0  0  0
 12 18  1  0  0  0  0
 13 12  2  0  0  0  0
 14 15  2  0  0  0  0
 14 13  1  0  0  0  0
 15 16  1  0  0  0  0
 16 11  2  0  0  0  0
 19 13  1  0  0  0  0
M  END
>  <minimizedAffinity>
-4.22860813

$$$$

 OpenBabel03212519593D

 19 20  0  0  0  0  0  0  0  0999 V2000
   40.8630   74.2530   56.9520 Cl  0  0  0  0  0  0  0  0  0  0  0  0
   39.3590   74.8340   56.2590 C   0  0  0  0  0  0  0  0  0  0  0  0
   38.3810   75.3030   57.0980 C   0  0  0  0  0  0  0  0  0  0  0  0
   37.1870   75.7660   56.5930 C   0  0  0  0  0  0  0  0  0  0  0  0
   36.4190   76.1370   57.2810 H   0  0  0  0  0  0  0  0  0  0  0  0
   36.9540   75.7650   55.2310 C   0  0  0  0  0  3  0  0  0  0  0  0
   37.9490   75.2890   54.4000 C   0  0  0  0  0  0  0  0  0  0  0  0
   37.7650   75.2410   52.6530 Cl  0  0  0  0  0  0  0  0  0  0  0  0
   39.1460   74.8250   54.9130 C   0  0  0  0  0  0  0  0  0  0  0  0
   39.9120   74.4580   54.2630 H   0  0  0  0  0  0  0  0  0  0  0  0
   39.4710   76.3730   60.4370 C   0  0  0  0  0  0  0  0  0  0  0  0
   39.0180   75.3270   61.2680 C   0  0  0  0  0  0  0  0  0  0  0  0
   38.3430   74.2710   60.6570 C   0  0  0  0  0  0  0  0  0  0  0  0
   38.1550   74.2950   59.3060 N   0  0  0  0  0  0  0  0  0  0  0  0
   38.6030   75.3140   58.5400 C   0  0  0  0  0  0  0  0  0  0  0  0
   39.2580   76.3440   59.1170 N   0  0  0  0  0  0  0  0  0  0  0  0
   39.9880   77.1700   60.9530 H   0  0  0  0  0  0  0  0  0  0  0  0
   39.1600   75.2950   62.3350 H   0  0  0  0  0  0  0  0  0  0  0  0
   37.9680   73.4270   61.2550 H   0  0  0  0  0  0  0  0  0  0  0  0
  2  1  1  0  0  0  0
  2  3  1  0  0  0  0
  3 15  1  0  0  0  0
  4  3  2  0  0  0  0
  4  5  1  0  0  0  0
  6  4  1  0  0  0  0
  7  9  1  0  0  0  0
  7  6  2  0  0  0  0
  8  7  1  0  0  0  0
  9  2  2  0  0  0  0
 10  9  1  0  0  0  0
 11 17  1  0  0  0  0
 11 12  1  0  0  0  0
 12 18  1  0  0  0  0
 13 19  1  0  0  0  0
 13 12  2  0  0  0  0
 14 13  1  0  0  0  0
 15 16  1  0  0  0  0
 15 14  2  0  0  0  0
 16 11  2  0  0  0  0
M  END
>  <minimizedAffinity>
-4.1876297

$$$$

 OpenBabel03212519593D

 19 20  0  0  0  0  0  0  0  0999 V2000
   42.5710   70.3490   58.9660 Cl  0  0  0  0  0  0  0  0  0  0  0  0
   42.2900   70.3210   60.6990 C   0  0  0  0  0  0  0  0  0  0  0  0
   42.4000   71.4910   61.4060 C   0  0  0  0  0  0  0  0  0  0  0  0
   42.1870   71.5100   62.7660 C   0  0  0  0  0  0  0  0  0  0  0  0
   42.2800   72.4560   63.3120 H   0  0  0  0  0  0  0  0  0  0  0  0
   41.8610   70.3500   63.4410 C   0  0  0  0  0  3  0  0  0  0  0  0
   41.7540   69.1800   62.7130 C   0  0  0  0  0  0  0  0  0  0  0  0
   41.3430   67.6460   63.4660 Cl  0  0  0  0  0  0  0  0  0  0  0  0
   41.9690   69.1670   61.3480 C   0  0  0  0  0  0  0  0  0  0  0  0
   41.8840   68.2580   60.7920 H   0  0  0  0  0  0  0  0  0  0  0  0
   42.0650   74.6580   59.5790 C   0  0  0  0  0  0  0  0  0  0  0  0
   43.4050   75.0700   59.4120 C   0  0  0  0  0  0  0  0  0  0  0  0
   44.3980   74.2430   59.9350 C   0  0  0  0  0  0  0  0  0  0  0  0
   44.0380   73.0930   60.5730 N   0  0  0  0  0  0  0  0  0  0  0  0
   42.7440   72.7290   60.7160 C   0  0  0  0  0  0  0  0  0  0  0  0
   41.7700   73.5190   60.2150 N   0  0  0  0  0  0  0  0  0  0  0  0
   41.3290   75.3300   59.1590 H   0  0  0  0  0  0  0  0  0  0  0  0
   43.7030   75.9750   58.9100 H   0  0  0  0  0  0  0  0  0  0  0  0
   45.4590   74.5130   59.8340 H   0  0  0  0  0  0  0  0  0  0  0  0
  1  2  1  0  0  0  0
  2  9  2  0  0  0  0
  2  3  1  0  0  0  0
  3  4  2  0  0  0  0
  4  5  1  0  0  0  0
  4  6  1  0  0  0  0
  7  6  2  0  0  0  0
  7  8  1  0  0  0  0
  9  7  1  0  0  0  0
 10  9  1  0  0  0  0
 11 16  1  0  0  0  0
 12 11  2  0  0  0  0
 12 13  1  0  0  0  0
 13 14  2  0  0  0  0
 14 15  1  0  0  0  0
 15  3  1  0  0  0  0
 16 15  2  0  0  0  0
 17 11  1  0  0  0  0
 18 12  1  0  0  0  0
 19 13  1  0  0  0  0
M  END
>  <minimizedAffinity>
-4.11473036

$$$$

 OpenBabel03212519593D

 19 20  0  0  0  0  0  0  0  0999 V2000
   39.4230   76.0830   61.1400 Cl  0  0  0  0  0  0  0  0  0  0  0  0
   40.0500   74.5200   60.6450 C   0  0  0  0  0  0  0  0  0  0  0  0
   40.0590   74.2030   59.3100 C   0  0  0  0  0  0  0  0  0  0  0  0
   40.5420   72.9870   58.8830 C   0  0  0  0  0  0  0  0  0  0  0  0
   40.5410   72.7540   57.8120 H   0  0  0  0  0  0  0  0  0  0  0  0
   41.0260   72.0660   59.7910 C   0  0  0  0  0  3  0  0  0  0  0  0
   41.0090   72.4010   61.1310 C   0  0  0  0  0  0  0  0  0  0  0  0
   41.6000   71.3080   62.3750 Cl  0  0  0  0  0  0  0  0  0  0  0  0
   40.5230   73.6230   61.5550 C   0  0  0  0  0  0  0  0  0  0  0  0
   40.5140   73.8750   62.5940 H   0  0  0  0  0  0  0  0  0  0  0  0
   37.7640   76.0200   57.0950 C   0  0  0  0  0  0  0  0  0  0  0  0
   38.6050   76.9730   56.4810 C   0  0  0  0  0  0  0  0  0  0  0  0
   39.9510   76.9680   56.8450 C   0  0  0  0  0  0  0  0  0  0  0  0
   40.3870   76.0580   57.7630 N   0  0  0  0  0  0  0  0  0  0  0  0
   39.5540   75.1590   58.3320 C   0  0  0  0  0  0  0  0  0  0  0  0
   38.2480   75.1510   57.9890 N   0  0  0  0  0  0  0  0  0  0  0  0
   36.7300   76.0610   56.7830 H   0  0  0  0  0  0  0  0  0  0  0  0
   38.2730   77.6960   55.7540 H   0  0  0  0  0  0  0  0  0  0  0  0
   40.6530   77.6870   56.3990 H   0  0  0  0  0  0  0  0  0  0  0  0
  2  1  1  0  0  0  0
  2  9  1  0  0  0  0
  3  2  2  0  0  0  0
  4  3  1  0  0  0  0
  4  6  2  0  0  0  0
  5  4  1  0  0  0  0
  6  7  1  0  0  0  0
  7  9  2  0  0  0  0
  7  8  1  0  0  0  0
  9 10  1  0  0  0  0
 11 16  1  0  0  0  0
 12 13  1  0  0  0  0
 12 11  2  0  0  0  0
 13 14  2  0  0  0  0
 14 15  1  0  0  0  0
 15  3  1  0  0  0  0
 16 15  2  0  0  0  0
 17 11  1  0  0  0  0
 18 12  1  0  0  0  0
 19 13  1  0  0  0  0
M  END
>  <minimizedAffinity>
-4.08178043

$$$$
