
 OpenBabel03212520023D

 32 35  0  0  0  0  0  0  0  0999 V2000
   40.7130   81.7880   57.1150 C   0  0  0  0  0  0  0  0  0  0  0  0
   41.7900   82.3580   56.4150 C   0  0  0  0  0  0  0  0  0  0  0  0
   42.6020   83.2340   57.1120 C   0  0  0  0  0  0  0  0  0  0  0  0
   42.3450   83.5150   58.4200 N   0  0  0  0  0  0  0  0  0  0  0  0
   41.2820   82.9340   59.0570 C   0  0  0  0  0  0  0  0  0  0  0  0
   40.4660   82.0720   58.4050 N   0  0  0  0  0  0  0  0  0  0  0  0
   40.0520   81.1060   56.6270 H   0  0  0  0  0  0  0  0  0  0  0  0
   41.9590   82.1080   55.3790 H   0  0  0  0  0  0  0  0  0  0  0  0
   39.7010   83.0780   60.9190 C   0  0  0  0  0  0  0  0  0  0  0  0
   41.0190   83.2460   60.4530 C   0  0  0  0  0  0  0  0  0  0  0  0
   42.0270   83.6930   61.2930 C   0  0  0  0  0  0  0  0  0  0  0  0
   41.7680   83.9900   62.6220 C   0  0  0  0  0  0  0  0  0  0  0  0
   42.4590   84.4270   63.6870 N   0  0  0  0  0  0  0  0  0  0  0  0
   41.6610   84.5390   64.7630 C   0  0  0  0  0  0  0  0  0  0  0  0
   40.4400   84.1530   64.3320 N   0  0  0  0  0  0  0  0  0  0  0  0
   40.4750   83.8130   63.0310 C   0  0  0  0  0  0  0  0  0  0  0  0
   39.4200   83.3720   62.2550 C   0  0  0  0  0  0  0  0  0  0  0  0
   38.8920   82.7340   60.3010 H   0  0  0  0  0  0  0  0  0  0  0  0
   43.0440   83.8220   60.9340 H   0  0  0  0  0  0  0  0  0  0  0  0
   43.4730   84.6460   63.6660 H   0  0  0  0  0  0  0  0  0  0  0  0
   41.9290   84.8640   65.7580 H   0  0  0  0  0  0  0  0  0  0  0  0
   38.4230   83.2630   62.6710 H   0  0  0  0  0  0  0  0  0  0  0  0
   42.3750   83.5970   54.1650 Cl  0  0  0  0  0  0  0  0  0  0  0  0
   43.7660   84.1050   55.1190 C   0  0  0  0  0  0  0  0  0  0  0  0
   43.7450   83.8780   56.4790 C   0  0  0  0  0  0  0  0  0  0  0  0
   44.8710   84.3060   57.1390 C   0  0  0  0  0  0  0  0  0  0  0  0
   44.9400   84.1680   58.2050 H   0  0  0  0  0  0  0  0  0  0  0  0
   45.9420   84.9130   56.5260 C   0  0  0  0  0  0  0  0  0  0  0  0
   45.9210   85.1210   55.1640 C   0  0  0  0  0  0  0  0  0  0  0  0
   47.2570   85.8850   54.3470 Cl  0  0  0  0  0  0  0  0  0  0  0  0
   44.8220   84.7100   54.4700 C   0  0  0  0  0  0  0  0  0  0  0  0
   44.7520   84.8490   53.3940 H   0  0  0  0  0  0  0  0  0  0  0  0
  1  6  1  0  0  0  0
  2  3  1  0  0  0  0
  2  1  2  0  0  0  0
  3  4  2  0  0  0  0
  4  5  1  0  0  0  0
  5 10  1  0  0  0  0
  6  5  2  0  0  0  0
  7  1  1  0  0  0  0
  8  2  1  0  0  0  0
  9 17  1  0  0  0  0
 10  9  2  0  0  0  0
 10 11  1  0  0  0  0
 11 12  2  0  0  0  0
 12 16  1  0  0  0  0
 12 13  1  0  0  0  0
 13 14  1  0  0  0  0
 14 21  1  0  0  0  0
 15 14  2  0  0  0  0
 16 15  1  0  0  0  0
 17 22  1  0  0  0  0
 17 16  2  0  0  0  0
 18  9  1  0  0  0  0
 19 11  1  0  0  0  0
 20 13  1  0  0  0  0
 23 24  1  0  0  0  0
 24 25  1  0  0  0  0
 25  3  1  0  0  0  0
 25 26  2  0  0  0  0
 26 27  1  0  0  0  0
 28 26  1  0  0  0  0
 29 28  2  0  0  0  0
 30 29  1  0  0  0  0
 31 24  2  0  0  0  0
 31 29  1  0  0  0  0
 32 31  1  0  0  0  0
M  END
>  <minimizedAffinity>
-4.91411591

>  <minimizedRMSD>
1.00918972

$$$$
