
 OpenBabel03212520443D

 19 20  0  0  0  0  0  0  0  0999 V2000
   41.7190   80.5010   60.7560 Cl  0  0  0  0  0  0  0  0  0  0  0  0
   42.8280   81.4150   61.7590 C   0  0  0  0  0  0  0  0  0  0  0  0
   42.4980   82.6840   62.2030 C   0  0  0  0  0  0  0  0  0  0  0  0
   43.4280   83.3100   62.9760 C   0  0  0  0  0  0  0  0  0  0  0  0
   43.2240   84.2850   63.3430 H   0  0  0  0  0  0  0  0  0  0  0  0
   44.6390   82.7460   63.3180 C   0  0  0  0  0  3  0  0  0  0  0  0
   44.9540   81.4750   62.8650 C   0  0  0  0  0  0  0  0  0  0  0  0
   46.5010   80.7850   63.3160 Cl  0  0  0  0  0  0  0  0  0  0  0  0
   44.0290   80.8050   62.0730 C   0  0  0  0  0  0  0  0  0  0  0  0
   44.2740   79.8080   61.7170 H   0  0  0  0  0  0  0  0  0  0  0  0
   41.2090   83.2330   61.8130 C   0  0  0  0  0  0  0  0  0  0  0  0
   41.1080   84.0880   60.7100 C   0  0  0  0  0  0  0  0  0  0  0  0
   39.8890   84.6320   60.3090 C   0  0  0  0  0  0  0  0  0  0  0  0
   38.8100   84.2770   61.0570 N   0  0  0  0  0  0  0  0  0  0  0  0
   38.9080   83.4570   62.1160 C   0  0  0  0  0  0  0  0  0  0  0  0
   40.0850   82.9410   62.4890 N   0  0  0  0  0  0  0  0  0  0  0  0
   41.9450   84.3700   60.1200 H   0  0  0  0  0  0  0  0  0  0  0  0
   39.8280   85.2920   59.4520 H   0  0  0  0  0  0  0  0  0  0  0  0
   38.0560   83.1660   62.7200 H   0  0  0  0  0  0  0  0  0  0  0  0
  1  2  1  0  0  0  0
  2  9  2  0  0  0  0
  2  3  1  0  0  0  0
  3  4  2  0  0  0  0
  4  6  1  0  0  0  0
  4  5  1  0  0  0  0
  7  8  1  0  0  0  0
  7  6  2  0  0  0  0
  9  7  1  0  0  0  0
 10  9  1  0  0  0  0
 11  3  1  0  0  0  0
 11 16  1  0  0  0  0
 12 11  2  0  0  0  0
 13 12  1  0  0  0  0
 13 14  2  0  0  0  0
 14 15  1  0  0  0  0
 15 16  2  0  0  0  0
 15 19  1  0  0  0  0
 17 12  1  0  0  0  0
 18 13  1  0  0  0  0
M  END
>  <minimizedAffinity>
-5.05694771

>  <minimizedRMSD>
3.54751849

$$$$
