
 OpenBabel03212519593D

 19 20  0  0  0  0  0  0  0  0999 V2000
   43.5680   86.2740   60.7400 Cl  0  0  0  0  0  0  0  0  0  0  0  0
   43.2210   84.5850   61.0660 C   0  0  0  0  0  0  0  0  0  0  0  0
   42.1470   83.9980   60.4460 C   0  0  0  0  0  0  0  0  0  0  0  0
   41.8430   82.6750   60.6770 C   0  0  0  0  0  0  0  0  0  0  0  0
   40.9810   82.2250   60.1700 H   0  0  0  0  0  0  0  0  0  0  0  0
   42.6140   81.9180   61.5370 C   0  0  0  0  0  3  0  0  0  0  0  0
   43.6910   82.5250   62.1530 C   0  0  0  0  0  0  0  0  0  0  0  0
   44.7400   81.6590   63.2660 Cl  0  0  0  0  0  0  0  0  0  0  0  0
   43.9920   83.8530   61.9180 C   0  0  0  0  0  0  0  0  0  0  0  0
   44.8280   84.3150   62.4000 H   0  0  0  0  0  0  0  0  0  0  0  0
   41.0930   85.9570   57.5260 C   0  0  0  0  0  0  0  0  0  0  0  0
   39.7420   86.2500   57.8120 C   0  0  0  0  0  0  0  0  0  0  0  0
   39.2220   85.7630   59.0110 C   0  0  0  0  0  0  0  0  0  0  0  0
   40.0280   85.0380   59.8400 N   0  0  0  0  0  0  0  0  0  0  0  0
   41.3180   84.7770   59.5340 C   0  0  0  0  0  0  0  0  0  0  0  0
   41.8360   85.2410   58.3760 N   0  0  0  0  0  0  0  0  0  0  0  0
   41.4530   86.3530   56.5870 H   0  0  0  0  0  0  0  0  0  0  0  0
   39.0950   86.8200   57.1670 H   0  0  0  0  0  0  0  0  0  0  0  0
   38.1760   85.9600   59.2870 H   0  0  0  0  0  0  0  0  0  0  0  0
  1  2  1  0  0  0  0
  2  9  1  0  0  0  0
  3  4  1  0  0  0  0
  3  2  2  0  0  0  0
  4  6  2  0  0  0  0
  5  4  1  0  0  0  0
  6  7  1  0  0  0  0
  7  8  1  0  0  0  0
  9  7  2  0  0  0  0
  9 10  1  0  0  0  0
 11 12  2  0  0  0  0
 11 16  1  0  0  0  0
 12 13  1  0  0  0  0
 13 19  1  0  0  0  0
 13 14  2  0  0  0  0
 15 14  1  0  0  0  0
 15  3  1  0  0  0  0
 16 15  2  0  0  0  0
 17 11  1  0  0  0  0
 18 12  1  0  0  0  0
M  END
>  <minimizedAffinity>
-3.49116015

>  <minimizedRMSD>
5.82048368

$$$$
