
 OpenBabel03212519593D

 19 20  0  0  0  0  0  0  0  0999 V2000
   44.5230   83.0300   62.6820 Cl  0  0  0  0  0  0  0  0  0  0  0  0
   42.7880   83.2390   62.8430 C   0  0  0  0  0  0  0  0  0  0  0  0
   41.9620   82.6600   61.9120 C   0  0  0  0  0  0  0  0  0  0  0  0
   40.5960   82.8010   62.0050 C   0  0  0  0  0  0  0  0  0  0  0  0
   39.9540   82.3300   61.2510 H   0  0  0  0  0  0  0  0  0  0  0  0
   40.0330   83.5280   63.0370 C   0  0  0  0  0  3  0  0  0  0  0  0
   40.8800   84.1030   63.9630 C   0  0  0  0  0  0  0  0  0  0  0  0
   40.2760   85.0480   65.3170 Cl  0  0  0  0  0  0  0  0  0  0  0  0
   42.2510   83.9590   63.8670 C   0  0  0  0  0  0  0  0  0  0  0  0
   42.8980   84.4080   64.5900 H   0  0  0  0  0  0  0  0  0  0  0  0
   43.2970   79.8420   59.9740 C   0  0  0  0  0  0  0  0  0  0  0  0
   43.6090   80.4340   58.7310 C   0  0  0  0  0  0  0  0  0  0  0  0
   43.3520   81.7960   58.5880 C   0  0  0  0  0  0  0  0  0  0  0  0
   42.8200   82.4860   59.6380 N   0  0  0  0  0  0  0  0  0  0  0  0
   42.5320   81.8880   60.8150 C   0  0  0  0  0  0  0  0  0  0  0  0
   42.7750   80.5680   60.9680 N   0  0  0  0  0  0  0  0  0  0  0  0
   43.5120   78.7850   60.0390 H   0  0  0  0  0  0  0  0  0  0  0  0
   44.0310   79.9010   57.8950 H   0  0  0  0  0  0  0  0  0  0  0  0
   43.5760   82.3110   57.6420 H   0  0  0  0  0  0  0  0  0  0  0  0
  1  2  1  0  0  0  0
  2  9  1  0  0  0  0
  3  4  1  0  0  0  0
  3  2  2  0  0  0  0
  4  6  2  0  0  0  0
  5  4  1  0  0  0  0
  6  7  1  0  0  0  0
  7  8  1  0  0  0  0
  9  7  2  0  0  0  0
  9 10  1  0  0  0  0
 11 17  1  0  0  0  0
 11 16  1  0  0  0  0
 12 11  2  0  0  0  0
 13 12  1  0  0  0  0
 13 14  2  0  0  0  0
 14 15  1  0  0  0  0
 15 16  2  0  0  0  0
 15  3  1  0  0  0  0
 18 12  1  0  0  0  0
 19 13  1  0  0  0  0
M  END
>  <minimizedAffinity>
-3.57469201

>  <minimizedRMSD>
4.33641481

$$$$
