
 OpenBabel03212520433D

 19 20  0  0  0  0  0  0  0  0999 V2000
   39.7620   80.4970   58.4120 Cl  0  0  0  0  0  0  0  0  0  0  0  0
   40.4880   79.8540   59.8710 C   0  0  0  0  0  0  0  0  0  0  0  0
   40.5570   80.6190   61.0230 C   0  0  0  0  0  0  0  0  0  0  0  0
   41.1410   80.0270   62.1030 C   0  0  0  0  0  0  0  0  0  0  0  0
   41.2190   80.5710   63.0110 H   0  0  0  0  0  0  0  0  0  0  0  0
   41.6460   78.7430   62.0880 C   0  0  0  0  0  3  0  0  0  0  0  0
   41.5700   77.9920   60.9270 C   0  0  0  0  0  0  0  0  0  0  0  0
   42.2190   76.3640   60.9380 Cl  0  0  0  0  0  0  0  0  0  0  0  0
   40.9800   78.5640   59.8050 C   0  0  0  0  0  0  0  0  0  0  0  0
   40.9190   77.9740   58.8930 H   0  0  0  0  0  0  0  0  0  0  0  0
   40.0100   81.9660   60.9860 C   0  0  0  0  0  0  0  0  0  0  0  0
   40.2510   82.7960   59.8850 C   0  0  0  0  0  0  0  0  0  0  0  0
   39.7420   84.0920   59.8160 C   0  0  0  0  0  0  0  0  0  0  0  0
   39.0000   84.4930   60.8830 N   0  0  0  0  0  0  0  0  0  0  0  0
   38.7710   83.6950   61.9390 C   0  0  0  0  0  0  0  0  0  0  0  0
   39.2640   82.4530   61.9910 N   0  0  0  0  0  0  0  0  0  0  0  0
   40.8280   82.4920   59.0470 H   0  0  0  0  0  0  0  0  0  0  0  0
   39.9370   84.7220   58.9560 H   0  0  0  0  0  0  0  0  0  0  0  0
   38.1810   84.0030   62.7960 H   0  0  0  0  0  0  0  0  0  0  0  0
  1  2  1  0  0  0  0
  2  3  1  0  0  0  0
  3  4  2  0  0  0  0
  4  5  1  0  0  0  0
  6  4  1  0  0  0  0
  7  8  1  0  0  0  0
  7  6  2  0  0  0  0
  9  2  2  0  0  0  0
  9  7  1  0  0  0  0
 10  9  1  0  0  0  0
 11  3  1  0  0  0  0
 11 16  1  0  0  0  0
 12 11  2  0  0  0  0
 13 12  1  0  0  0  0
 13 14  2  0  0  0  0
 14 15  1  0  0  0  0
 15 16  2  0  0  0  0
 15 19  1  0  0  0  0
 17 12  1  0  0  0  0
 18 13  1  0  0  0  0
M  END
>  <minimizedAffinity>
-4.80226135

>  <minimizedRMSD>
0.411959469

$$$$
