
 OpenBabel03212520513D

 28 30  0  0  1  0  0  0  0  0999 V2000
   41.6660   83.8380   61.4050 C   0  0  0  0  0  0  0  0  0  0  0  0
   41.0720   84.2270   62.5760 C   0  0  0  0  0  0  0  0  0  0  0  0
   40.6310   83.2850   63.5050 C   0  0  0  0  0  0  0  0  0  0  0  0
   40.7880   81.9670   63.2550 N   0  0  0  0  0  0  0  0  0  0  0  0
   41.3790   81.6140   62.0910 C   0  0  0  0  0  0  0  0  0  0  0  0
   41.8120   82.5040   61.1800 N   0  0  0  0  0  0  0  0  0  0  0  0
   40.9330   85.2800   62.8000 H   0  0  0  0  0  0  0  0  0  0  0  0
   40.1570   83.5510   64.4400 H   0  0  0  0  0  0  0  0  0  0  0  0
   43.6200   86.4430   59.7230 C   0  0  0  0  0  0  0  0  0  0  0  0
   42.9120   86.5790   58.5130 C   0  0  0  0  0  0  0  0  0  0  0  0
   41.7950   85.8050   58.2680 C   0  0  0  0  0  0  0  0  0  0  0  0
   41.4450   84.9320   59.2550 N   0  0  0  0  0  0  0  0  0  0  0  0
   42.1260   84.8090   60.4090 C   0  0  0  0  0  0  0  0  0  0  0  0
   43.1960   85.5490   60.6450 N   0  0  0  0  0  0  0  0  0  0  0  0
   44.7350   87.2980   59.8230 N   0  0  0  0  0  0  0  0  0  0  0  0
   43.1820   87.2720   57.7180 H   0  0  0  0  0  0  0  0  0  0  0  0
   41.2220   85.8730   57.3570 H   0  0  0  0  0  0  0  0  0  0  0  0
   44.3350   88.2580   60.0310 H   0  0  0  0  0  0  0  0  0  0  0  0
   45.7620   87.1370   59.7320 H   0  0  0  0  0  0  0  0  0  0  0  0
   41.5180   80.1370   61.8560 C   0  0  1  0  0  0  0  0  0  0  0  0
   40.6350   79.1880   62.4970 C   0  0  0  0  0  0  0  0  0  0  0  0
   40.2970   79.5710   61.0930 C   0  0  2  0  0  0  0  0  0  0  0  0
   42.5020   79.8680   61.3920 H   0  0  0  0  0  0  0  0  0  0  0  0
   41.0610   78.1900   62.7230 H   0  0  0  0  0  0  0  0  0  0  0  0
   39.9360   79.5950   63.2780 H   0  0  0  0  0  0  0  0  0  0  0  0
   39.4440   80.2190   60.8970 H   0  0  0  0  0  0  0  0  0  0  0  0
   40.6380   78.4920   60.0890 C   0  0  0  0  0  2  0  0  0  0  0  0
   41.3900   78.8330   59.3500 H   0  0  0  0  0  0  0  0  0  0  0  0
  1  2  1  0  0  0  0
  2  7  1  0  0  0  0
  2  3  2  0  0  0  0
  3  8  1  0  0  0  0
  4  3  1  0  0  0  0
  5  4  2  0  0  0  0
  6  1  2  0  0  0  0
  6  5  1  0  0  0  0
  9 15  1  0  0  0  0
  9 14  1  0  0  0  0
 10  9  2  0  0  0  0
 11 10  1  0  0  0  0
 11 12  2  0  0  0  0
 12 13  1  0  0  0  0
 13 14  2  0  0  0  0
 13  1  1  0  0  0  0
 15 18  1  0  0  0  0
 16 10  1  0  0  0  0
 17 11  1  0  0  0  0
 19 15  1  0  0  0  0
 20 23  1  6  0  0  0
 20  5  1  0  0  0  0
 20 21  1  0  0  0  0
 21 24  1  0  0  0  0
 21 25  1  0  0  0  0
 22 26  1  6  0  0  0
 22 20  1  0  0  0  0
 22 21  1  0  0  0  0
 27 22  1  0  0  0  0
 28 27  1  0  0  0  0
M  END
>  <minimizedAffinity>
-4.99467182

>  <minimizedRMSD>
0.0403321274

$$$$
