
 OpenBabel03212520523D

 28 30  0  0  1  0  0  0  0  0999 V2000
   38.7890   76.4960   57.9240 C   0  0  0  0  0  0  0  0  0  0  0  0
   39.4070   77.6250   58.3930 C   0  0  0  0  0  0  0  0  0  0  0  0
   40.0430   77.6320   59.6340 C   0  0  0  0  0  0  0  0  0  0  0  0
   40.0530   76.5150   60.3930 N   0  0  0  0  0  0  0  0  0  0  0  0
   39.4350   75.4160   59.9020 C   0  0  0  0  0  0  0  0  0  0  0  0
   38.8170   75.3840   58.7090 N   0  0  0  0  0  0  0  0  0  0  0  0
   39.4110   78.5350   57.8030 H   0  0  0  0  0  0  0  0  0  0  0  0
   40.5410   78.5020   60.0400 H   0  0  0  0  0  0  0  0  0  0  0  0
   37.7370   75.4820   54.5630 C   0  0  0  0  0  0  0  0  0  0  0  0
   36.7970   76.4850   54.2550 C   0  0  0  0  0  0  0  0  0  0  0  0
   36.5220   77.4860   55.1660 C   0  0  0  0  0  0  0  0  0  0  0  0
   37.2080   77.4270   56.3430 N   0  0  0  0  0  0  0  0  0  0  0  0
   38.1050   76.4660   56.6280 C   0  0  0  0  0  0  0  0  0  0  0  0
   38.3700   75.5070   55.7570 N   0  0  0  0  0  0  0  0  0  0  0  0
   37.9050   74.5330   53.5360 N   0  0  0  0  0  0  0  0  0  0  0  0
   36.2430   76.5410   53.3200 H   0  0  0  0  0  0  0  0  0  0  0  0
   35.8100   78.2720   54.9760 H   0  0  0  0  0  0  0  0  0  0  0  0
   38.4920   75.0190   52.7980 H   0  0  0  0  0  0  0  0  0  0  0  0
   37.5750   73.5500   53.4170 H   0  0  0  0  0  0  0  0  0  0  0  0
   39.4660   74.2040   60.7900 C   0  0  1  0  0  0  0  0  0  0  0  0
   39.6060   72.8740   60.2410 C   0  0  0  0  0  0  0  0  0  0  0  0
   40.8520   73.5180   60.7560 C   0  0  2  0  0  0  0  0  0  0  0  0
   39.0990   74.4230   61.8260 H   0  0  0  0  0  0  0  0  0  0  0  0
   39.1210   72.0520   60.8040 H   0  0  0  0  0  0  0  0  0  0  0  0
   39.5520   72.7800   59.1220 H   0  0  0  0  0  0  0  0  0  0  0  0
   41.6080   73.8760   60.0580 H   0  0  0  0  0  0  0  0  0  0  0  0
   41.2990   72.9550   62.0880 C   0  0  0  0  0  2  0  0  0  0  0  0
   42.2070   73.4630   62.4710 H   0  0  0  0  0  0  0  0  0  0  0  0
  1  2  2  0  0  0  0
  1  6  1  0  0  0  0
  2  3  1  0  0  0  0
  3  8  1  0  0  0  0
  3  4  2  0  0  0  0
  5  4  1  0  0  0  0
  5 20  1  0  0  0  0
  6  5  2  0  0  0  0
  7  2  1  0  0  0  0
  9 14  1  0  0  0  0
 10  9  2  0  0  0  0
 10 11  1  0  0  0  0
 11 12  2  0  0  0  0
 12 13  1  0  0  0  0
 13  1  1  0  0  0  0
 14 13  2  0  0  0  0
 15  9  1  0  0  0  0
 16 10  1  0  0  0  0
 17 11  1  0  0  0  0
 18 15  1  0  0  0  0
 19 15  1  0  0  0  0
 20 23  1  1  0  0  0
 21 22  1  0  0  0  0
 21 20  1  0  0  0  0
 21 24  1  0  0  0  0
 22 26  1  6  0  0  0
 22 20  1  0  0  0  0
 22 27  1  0  0  0  0
 25 21  1  0  0  0  0
 27 28  1  0  0  0  0
M  END
>  <minimizedAffinity>
-5.34936714

$$$$

 OpenBabel03212520523D

 28 30  0  0  1  0  0  0  0  0999 V2000
   41.7140   74.4560   59.6570 C   0  0  0  0  0  0  0  0  0  0  0  0
   42.9780   74.7510   59.2190 C   0  0  0  0  0  0  0  0  0  0  0  0
   44.0990   74.1870   59.8280 C   0  0  0  0  0  0  0  0  0  0  0  0
   43.9450   73.3360   60.8650 N   0  0  0  0  0  0  0  0  0  0  0  0
   42.6860   73.0630   61.2740 C   0  0  0  0  0  0  0  0  0  0  0  0
   41.5890   73.5940   60.7030 N   0  0  0  0  0  0  0  0  0  0  0  0
   43.1260   75.4330   58.3890 H   0  0  0  0  0  0  0  0  0  0  0  0
   45.1110   74.3950   59.5120 H   0  0  0  0  0  0  0  0  0  0  0  0
   38.3870   74.8290   58.1660 C   0  0  0  0  0  0  0  0  0  0  0  0
   38.3550   76.2120   57.9070 C   0  0  0  0  0  0  0  0  0  0  0  0
   39.4380   77.0070   58.2290 C   0  0  0  0  0  0  0  0  0  0  0  0
   40.5000   76.3670   58.7980 N   0  0  0  0  0  0  0  0  0  0  0  0
   40.5210   75.0440   59.0420 C   0  0  0  0  0  0  0  0  0  0  0  0
   39.4860   74.2820   58.7330 N   0  0  0  0  0  0  0  0  0  0  0  0
   37.2090   74.1570   57.7840 N   0  0  0  0  0  0  0  0  0  0  0  0
   37.5140   76.7330   57.4540 H   0  0  0  0  0  0  0  0  0  0  0  0
   39.4590   78.0700   58.0510 H   0  0  0  0  0  0  0  0  0  0  0  0
   37.2620   74.0770   56.7280 H   0  0  0  0  0  0  0  0  0  0  0  0
   36.4000   73.7780   58.3250 H   0  0  0  0  0  0  0  0  0  0  0  0
   42.5720   72.1200   62.4380 C   0  0  1  0  0  0  0  0  0  0  0  0
   41.3290   71.4470   62.7410 C   0  0  0  0  0  0  0  0  0  0  0  0
   42.3370   70.6660   61.9630 C   0  0  2  0  0  0  0  0  0  0  0  0
   43.4230   72.2250   63.1590 H   0  0  0  0  0  0  0  0  0  0  0  0
   41.1370   71.2170   63.8080 H   0  0  0  0  0  0  0  0  0  0  0  0
   40.4250   71.7660   62.1530 H   0  0  0  0  0  0  0  0  0  0  0  0
   42.1750   70.4710   60.9040 H   0  0  0  0  0  0  0  0  0  0  0  0
   43.0430   69.6190   62.7970 C   0  0  0  0  0  2  0  0  0  0  0  0
   43.8080   69.0690   62.2140 H   0  0  0  0  0  0  0  0  0  0  0  0
  1  6  1  0  0  0  0
  2  1  2  0  0  0  0
  2  3  1  0  0  0  0
  3  4  2  0  0  0  0
  4  5  1  0  0  0  0
  5 20  1  0  0  0  0
  6  5  2  0  0  0  0
  7  2  1  0  0  0  0
  8  3  1  0  0  0  0
  9 14  1  0  0  0  0
 10  9  2  0  0  0  0
 10 11  1  0  0  0  0
 11 12  2  0  0  0  0
 12 13  1  0  0  0  0
 13  1  1  0  0  0  0
 14 13  2  0  0  0  0
 15  9  1  0  0  0  0
 15 19  1  0  0  0  0
 16 10  1  0  0  0  0
 17 11  1  0  0  0  0
 18 15  1  0  0  0  0
 20 21  1  0  0  0  0
 20 23  1  1  0  0  0
 21 24  1  0  0  0  0
 22 26  1  6  0  0  0
 22 20  1  0  0  0  0
 22 21  1  0  0  0  0
 22 27  1  0  0  0  0
 25 21  1  0  0  0  0
 28 27  1  0  0  0  0
M  END
>  <minimizedAffinity>
-5.20731783

$$$$

 OpenBabel03212520523D

 28 30  0  0  1  0  0  0  0  0999 V2000
   41.5150   71.8250   61.3530 C   0  0  0  0  0  0  0  0  0  0  0  0
   41.7040   71.4880   62.6670 C   0  0  0  0  0  0  0  0  0  0  0  0
   42.0970   70.1990   63.0280 C   0  0  0  0  0  0  0  0  0  0  0  0
   42.2970   69.2630   62.0750 N   0  0  0  0  0  0  0  0  0  0  0  0
   42.1040   69.6260   60.7870 C   0  0  0  0  0  0  0  0  0  0  0  0
   41.7250   70.8620   60.4130 N   0  0  0  0  0  0  0  0  0  0  0  0
   41.5480   72.2210   63.4500 H   0  0  0  0  0  0  0  0  0  0  0  0
   42.2550   69.8940   64.0530 H   0  0  0  0  0  0  0  0  0  0  0  0
   39.6160   74.9480   61.0970 C   0  0  0  0  0  0  0  0  0  0  0  0
   40.3780   75.6570   60.1480 C   0  0  0  0  0  0  0  0  0  0  0  0
   41.5140   75.0910   59.6030 C   0  0  0  0  0  0  0  0  0  0  0  0
   41.8260   73.8380   60.0420 N   0  0  0  0  0  0  0  0  0  0  0  0
   41.0910   73.1680   60.9490 C   0  0  0  0  0  0  0  0  0  0  0  0
   40.0030   73.7080   61.4710 N   0  0  0  0  0  0  0  0  0  0  0  0
   38.4900   75.6580   61.5590 N   0  0  0  0  0  0  0  0  0  0  0  0
   40.1390   76.6570   59.7910 H   0  0  0  0  0  0  0  0  0  0  0  0
   42.1290   75.5940   58.8760 H   0  0  0  0  0  0  0  0  0  0  0  0
   37.7800   75.6000   60.7740 H   0  0  0  0  0  0  0  0  0  0  0  0
   38.2880   76.1660   62.4490 H   0  0  0  0  0  0  0  0  0  0  0  0
   42.3280   68.5450   59.7680 C   0  0  1  0  0  0  0  0  0  0  0  0
   41.6370   67.2780   59.8530 C   0  0  0  0  0  0  0  0  0  0  0  0
   41.0550   68.2940   58.9250 C   0  0  2  0  0  0  0  0  0  0  0  0
   43.2470   68.7220   59.1520 H   0  0  0  0  0  0  0  0  0  0  0  0
   42.1730   66.3930   59.4560 H   0  0  0  0  0  0  0  0  0  0  0  0
   41.0350   67.0910   60.7840 H   0  0  0  0  0  0  0  0  0  0  0  0
   40.1310   68.8070   59.1890 H   0  0  0  0  0  0  0  0  0  0  0  0
   41.3260   67.9870   57.4690 C   0  0  0  0  0  2  0  0  0  0  0  0
   40.9140   68.7650   56.7950 H   0  0  0  0  0  0  0  0  0  0  0  0
  1  2  1  0  0  0  0
  2  3  2  0  0  0  0
  2  7  1  0  0  0  0
  3  8  1  0  0  0  0
  4  3  1  0  0  0  0
  5  4  2  0  0  0  0
  6  5  1  0  0  0  0
  6  1  2  0  0  0  0
  9 14  1  0  0  0  0
  9 15  1  0  0  0  0
 10  9  2  0  0  0  0
 11 12  2  0  0  0  0
 11 10  1  0  0  0  0
 12 13  1  0  0  0  0
 13  1  1  0  0  0  0
 13 14  2  0  0  0  0
 15 19  1  0  0  0  0
 16 10  1  0  0  0  0
 17 11  1  0  0  0  0
 18 15  1  0  0  0  0
 20 23  1  6  0  0  0
 20 21  1  0  0  0  0
 20  5  1  0  0  0  0
 21 25  1  0  0  0  0
 22 26  1  1  0  0  0
 22 20  1  0  0  0  0
 22 21  1  0  0  0  0
 24 21  1  0  0  0  0
 27 22  1  0  0  0  0
 28 27  1  0  0  0  0
M  END
>  <minimizedAffinity>
-5.18003702

$$$$

 OpenBabel03212520523D

 28 30  0  0  1  0  0  0  0  0999 V2000
   38.1920   74.2290   56.7220 C   0  0  0  0  0  0  0  0  0  0  0  0
   38.6170   72.9370   56.5600 C   0  0  0  0  0  0  0  0  0  0  0  0
   39.0770   72.1910   57.6450 C   0  0  0  0  0  0  0  0  0  0  0  0
   39.1070   72.7430   58.8770 N   0  0  0  0  0  0  0  0  0  0  0  0
   38.6800   74.0200   59.0060 C   0  0  0  0  0  0  0  0  0  0  0  0
   38.2320   74.7590   57.9750 N   0  0  0  0  0  0  0  0  0  0  0  0
   38.6040   72.4730   55.5790 H   0  0  0  0  0  0  0  0  0  0  0  0
   39.4220   71.1710   57.5580 H   0  0  0  0  0  0  0  0  0  0  0  0
   37.5060   75.3970   53.3160 C   0  0  0  0  0  0  0  0  0  0  0  0
   36.7980   76.5870   53.5710 C   0  0  0  0  0  0  0  0  0  0  0  0
   36.5550   76.9890   54.8700 C   0  0  0  0  0  0  0  0  0  0  0  0
   37.0380   76.1720   55.8480 N   0  0  0  0  0  0  0  0  0  0  0  0
   37.7150   75.0370   55.5960 C   0  0  0  0  0  0  0  0  0  0  0  0
   37.9480   74.6510   54.3530 N   0  0  0  0  0  0  0  0  0  0  0  0
   37.6710   75.1220   51.9450 N   0  0  0  0  0  0  0  0  0  0  0  0
   36.4070   77.2470   52.7990 H   0  0  0  0  0  0  0  0  0  0  0  0
   36.0170   77.8910   55.1140 H   0  0  0  0  0  0  0  0  0  0  0  0
   38.4330   75.7820   51.6150 H   0  0  0  0  0  0  0  0  0  0  0  0
   37.2070   74.4480   51.2950 H   0  0  0  0  0  0  0  0  0  0  0  0
   38.7460   74.5890   60.3950 C   0  0  1  0  0  0  0  0  0  0  0  0
   39.8330   74.2610   61.2900 C   0  0  0  0  0  0  0  0  0  0  0  0
   39.9450   75.5540   60.5500 C   0  0  2  0  0  0  0  0  0  0  0  0
   37.7690   75.0280   60.7230 H   0  0  0  0  0  0  0  0  0  0  0  0
   39.5970   74.2480   62.3730 H   0  0  0  0  0  0  0  0  0  0  0  0
   40.5450   73.4600   60.9500 H   0  0  0  0  0  0  0  0  0  0  0  0
   40.6590   75.6540   59.7340 H   0  0  0  0  0  0  0  0  0  0  0  0
   39.6630   76.7580   61.4220 C   0  0  0  0  0  2  0  0  0  0  0  0
   39.7210   77.7070   60.8530 H   0  0  0  0  0  0  0  0  0  0  0  0
  1  6  1  0  0  0  0
  2  1  2  0  0  0  0
  2  3  1  0  0  0  0
  3  4  2  0  0  0  0
  4  5  1  0  0  0  0
  5 20  1  0  0  0  0
  6  5  2  0  0  0  0
  7  2  1  0  0  0  0
  8  3  1  0  0  0  0
  9 10  2  0  0  0  0
  9 14  1  0  0  0  0
 10 11  1  0  0  0  0
 11 17  1  0  0  0  0
 11 12  2  0  0  0  0
 13 12  1  0  0  0  0
 13  1  1  0  0  0  0
 14 13  2  0  0  0  0
 15  9  1  0  0  0  0
 16 10  1  0  0  0  0
 18 15  1  0  0  0  0
 19 15  1  0  0  0  0
 20 22  1  0  0  0  0
 20 23  1  1  0  0  0
 20 21  1  0  0  0  0
 21 24  1  0  0  0  0
 22 26  1  6  0  0  0
 22 21  1  0  0  0  0
 22 27  1  0  0  0  0
 25 21  1  0  0  0  0
 28 27  1  0  0  0  0
M  END
>  <minimizedAffinity>
-4.94068718

$$$$

 OpenBabel03212520523D

 28 30  0  0  1  0  0  0  0  0999 V2000
   40.7430   72.3070   60.4280 C   0  0  0  0  0  0  0  0  0  0  0  0
   40.9630   73.1090   61.5160 C   0  0  0  0  0  0  0  0  0  0  0  0
   41.8790   72.7450   62.5030 C   0  0  0  0  0  0  0  0  0  0  0  0
   42.5640   71.5860   62.3920 N   0  0  0  0  0  0  0  0  0  0  0  0
   42.3260   70.8160   61.3050 C   0  0  0  0  0  0  0  0  0  0  0  0
   41.4480   71.1460   60.3410 N   0  0  0  0  0  0  0  0  0  0  0  0
   40.4240   74.0440   61.6290 H   0  0  0  0  0  0  0  0  0  0  0  0
   42.0810   73.3490   63.3770 H   0  0  0  0  0  0  0  0  0  0  0  0
   38.7950   72.2650   57.3230 C   0  0  0  0  0  0  0  0  0  0  0  0
   37.9660   73.3880   57.5040 C   0  0  0  0  0  0  0  0  0  0  0  0
   38.0610   74.1480   58.6540 C   0  0  0  0  0  0  0  0  0  0  0  0
   38.9880   73.7370   59.5650 N   0  0  0  0  0  0  0  0  0  0  0  0
   39.7780   72.6630   59.3840 C   0  0  0  0  0  0  0  0  0  0  0  0
   39.6880   71.9350   58.2840 N   0  0  0  0  0  0  0  0  0  0  0  0
   38.5780   71.5940   56.1040 N   0  0  0  0  0  0  0  0  0  0  0  0
   37.2220   73.7250   56.7850 H   0  0  0  0  0  0  0  0  0  0  0  0
   37.4470   75.0140   58.8370 H   0  0  0  0  0  0  0  0  0  0  0  0
   39.0400   72.1990   55.3650 H   0  0  0  0  0  0  0  0  0  0  0  0
   38.0890   70.7040   55.8610 H   0  0  0  0  0  0  0  0  0  0  0  0
   43.1050   69.5330   61.2360 C   0  0  1  0  0  0  0  0  0  0  0  0
   43.5470   68.8580   62.4350 C   0  0  0  0  0  0  0  0  0  0  0  0
   42.2900   68.3500   61.8100 C   0  0  2  0  0  0  0  0  0  0  0  0
   43.5200   69.3400   60.2140 H   0  0  0  0  0  0  0  0  0  0  0  0
   44.4900   68.2800   62.3600 H   0  0  0  0  0  0  0  0  0  0  0  0
   43.4030   69.4050   63.4070 H   0  0  0  0  0  0  0  0  0  0  0  0
   41.3290   68.5440   62.2840 H   0  0  0  0  0  0  0  0  0  0  0  0
   42.4860   67.0450   61.0690 C   0  0  0  0  0  2  0  0  0  0  0  0
   41.5510   66.6970   60.5860 H   0  0  0  0  0  0  0  0  0  0  0  0
  1  2  1  0  0  0  0
  2  7  1  0  0  0  0
  2  3  2  0  0  0  0
  3  8  1  0  0  0  0
  4  3  1  0  0  0  0
  5  4  2  0  0  0  0
  6  1  2  0  0  0  0
  6  5  1  0  0  0  0
  9 10  2  0  0  0  0
  9 14  1  0  0  0  0
 10 11  1  0  0  0  0
 11 17  1  0  0  0  0
 11 12  2  0  0  0  0
 13 12  1  0  0  0  0
 13  1  1  0  0  0  0
 14 13  2  0  0  0  0
 15  9  1  0  0  0  0
 16 10  1  0  0  0  0
 18 15  1  0  0  0  0
 19 15  1  0  0  0  0
 20 23  1  6  0  0  0
 20  5  1  0  0  0  0
 20 22  1  0  0  0  0
 20 21  1  0  0  0  0
 21 25  1  0  0  0  0
 22 26  1  1  0  0  0
 22 21  1  0  0  0  0
 24 21  1  0  0  0  0
 27 22  1  0  0  0  0
 28 27  1  0  0  0  0
M  END
>  <minimizedAffinity>
-4.8805604

$$$$

 OpenBabel03212520523D

 28 30  0  0  1  0  0  0  0  0999 V2000
   42.1650   72.7750   60.1780 C   0  0  0  0  0  0  0  0  0  0  0  0
   42.9300   72.4210   59.0970 C   0  0  0  0  0  0  0  0  0  0  0  0
   43.7070   71.2630   59.1160 C   0  0  0  0  0  0  0  0  0  0  0  0
   43.7120   70.4720   60.2100 N   0  0  0  0  0  0  0  0  0  0  0  0
   42.9460   70.8460   61.2600 C   0  0  0  0  0  0  0  0  0  0  0  0
   42.1880   71.9580   61.2670 N   0  0  0  0  0  0  0  0  0  0  0  0
   42.9440   73.0410   58.2070 H   0  0  0  0  0  0  0  0  0  0  0  0
   44.3240   70.9500   58.2850 H   0  0  0  0  0  0  0  0  0  0  0  0
   39.5020   75.1780   60.9290 C   0  0  0  0  0  0  0  0  0  0  0  0
   39.8990   76.2810   60.1480 C   0  0  0  0  0  0  0  0  0  0  0  0
   41.0460   76.2150   59.3810 C   0  0  0  0  0  0  0  0  0  0  0  0
   41.7370   75.0410   59.4390 N   0  0  0  0  0  0  0  0  0  0  0  0
   41.3500   73.9920   60.1870 C   0  0  0  0  0  0  0  0  0  0  0  0
   40.2520   74.0530   60.9210 N   0  0  0  0  0  0  0  0  0  0  0  0
   38.3160   75.3990   61.6550 N   0  0  0  0  0  0  0  0  0  0  0  0
   39.3560   77.2220   60.0950 H   0  0  0  0  0  0  0  0  0  0  0  0
   41.3890   77.0330   58.7690 H   0  0  0  0  0  0  0  0  0  0  0  0
   37.5330   75.3240   60.9430 H   0  0  0  0  0  0  0  0  0  0  0  0
   38.1270   75.6010   62.6620 H   0  0  0  0  0  0  0  0  0  0  0  0
   42.9970   69.9380   62.4560 C   0  0  1  0  0  0  0  0  0  0  0  0
   41.9850   69.9970   63.4870 C   0  0  0  0  0  0  0  0  0  0  0  0
   41.8200   68.9350   62.4500 C   0  0  2  0  0  0  0  0  0  0  0  0
   43.9990   69.4550   62.5840 H   0  0  0  0  0  0  0  0  0  0  0  0
   42.3090   69.7370   64.5150 H   0  0  0  0  0  0  0  0  0  0  0  0
   41.2440   70.8390   63.4210 H   0  0  0  0  0  0  0  0  0  0  0  0
   41.0420   69.0290   61.6930 H   0  0  0  0  0  0  0  0  0  0  0  0
   42.1770   67.5550   62.9570 C   0  0  0  0  0  2  0  0  0  0  0  0
   42.0790   66.7830   62.1680 H   0  0  0  0  0  0  0  0  0  0  0  0
  1 13  1  0  0  0  0
  1  6  1  0  0  0  0
  2  3  1  0  0  0  0
  2  1  2  0  0  0  0
  3  4  2  0  0  0  0
  4  5  1  0  0  0  0
  5  6  2  0  0  0  0
  5 20  1  0  0  0  0
  7  2  1  0  0  0  0
  8  3  1  0  0  0  0
  9 15  1  0  0  0  0
 10  9  2  0  0  0  0
 11 12  2  0  0  0  0
 11 10  1  0  0  0  0
 12 13  1  0  0  0  0
 13 14  2  0  0  0  0
 14  9  1  0  0  0  0
 15 19  1  0  0  0  0
 16 10  1  0  0  0  0
 17 11  1  0  0  0  0
 18 15  1  0  0  0  0
 20 23  1  1  0  0  0
 20 21  1  0  0  0  0
 21 24  1  0  0  0  0
 22 26  1  6  0  0  0
 22 20  1  0  0  0  0
 22 27  1  0  0  0  0
 22 21  1  0  0  0  0
 25 21  1  0  0  0  0
 28 27  1  0  0  0  0
M  END
>  <minimizedAffinity>
-4.8638258

$$$$

 OpenBabel03212520523D

 28 30  0  0  1  0  0  0  0  0999 V2000
   40.4010   72.8510   60.2220 C   0  0  0  0  0  0  0  0  0  0  0  0
   40.5850   73.0890   61.5590 C   0  0  0  0  0  0  0  0  0  0  0  0
   41.3890   72.2530   62.3330 C   0  0  0  0  0  0  0  0  0  0  0  0
   41.9980   71.1890   61.7660 N   0  0  0  0  0  0  0  0  0  0  0  0
   41.7980   70.9810   60.4440 C   0  0  0  0  0  0  0  0  0  0  0  0
   41.0280   71.7730   59.6770 N   0  0  0  0  0  0  0  0  0  0  0  0
   40.1050   73.9360   62.0370 H   0  0  0  0  0  0  0  0  0  0  0  0
   41.5590   72.4060   63.3890 H   0  0  0  0  0  0  0  0  0  0  0  0
   37.9180   73.9670   57.7680 C   0  0  0  0  0  0  0  0  0  0  0  0
   38.0200   75.3660   57.8900 C   0  0  0  0  0  0  0  0  0  0  0  0
   38.9110   75.9240   58.7860 C   0  0  0  0  0  0  0  0  0  0  0  0
   39.6560   75.0450   59.5150 N   0  0  0  0  0  0  0  0  0  0  0  0
   39.5530   73.7090   59.3910 C   0  0  0  0  0  0  0  0  0  0  0  0
   38.7000   73.1730   58.5330 N   0  0  0  0  0  0  0  0  0  0  0  0
   36.9660   73.5530   56.8170 N   0  0  0  0  0  0  0  0  0  0  0  0
   37.4310   76.0780   57.3160 H   0  0  0  0  0  0  0  0  0  0  0  0
   39.0240   76.9890   58.9160 H   0  0  0  0  0  0  0  0  0  0  0  0
   37.4210   73.7180   55.8730 H   0  0  0  0  0  0  0  0  0  0  0  0
   36.0020   73.1590   56.9020 H   0  0  0  0  0  0  0  0  0  0  0  0
   42.4880   69.7780   59.8660 C   0  0  1  0  0  0  0  0  0  0  0  0
   43.0390   68.7470   60.7160 C   0  0  0  0  0  0  0  0  0  0  0  0
   41.6860   68.4840   60.1400 C   0  0  2  0  0  0  0  0  0  0  0  0
   42.7600   69.9190   58.7880 H   0  0  0  0  0  0  0  0  0  0  0  0
   43.9300   68.2110   60.3330 H   0  0  0  0  0  0  0  0  0  0  0  0
   43.0480   68.9530   61.8210 H   0  0  0  0  0  0  0  0  0  0  0  0
   40.8040   68.5270   60.7780 H   0  0  0  0  0  0  0  0  0  0  0  0
   41.7130   67.4840   59.0040 C   0  0  0  0  0  2  0  0  0  0  0  0
   40.7070   67.3230   58.5670 H   0  0  0  0  0  0  0  0  0  0  0  0
  1  2  1  0  0  0  0
  2  7  1  0  0  0  0
  2  3  2  0  0  0  0
  3  8  1  0  0  0  0
  4  3  1  0  0  0  0
  5  4  2  0  0  0  0
  6  1  2  0  0  0  0
  6  5  1  0  0  0  0
  9 10  2  0  0  0  0
  9 14  1  0  0  0  0
 10 11  1  0  0  0  0
 11 17  1  0  0  0  0
 11 12  2  0  0  0  0
 13 12  1  0  0  0  0
 13  1  1  0  0  0  0
 14 13  2  0  0  0  0
 15 19  1  0  0  0  0
 15  9  1  0  0  0  0
 16 10  1  0  0  0  0
 18 15  1  0  0  0  0
 20 23  1  6  0  0  0
 20 22  1  0  0  0  0
 20  5  1  0  0  0  0
 20 21  1  0  0  0  0
 21 25  1  0  0  0  0
 22 21  1  0  0  0  0
 22 26  1  1  0  0  0
 24 21  1  0  0  0  0
 27 22  1  0  0  0  0
 28 27  1  0  0  0  0
M  END
>  <minimizedAffinity>
-4.82943869

$$$$

 OpenBabel03212520523D

 28 30  0  0  1  0  0  0  0  0999 V2000
   39.0560   74.1830   56.2950 C   0  0  0  0  0  0  0  0  0  0  0  0
   38.1790   75.2170   56.0970 C   0  0  0  0  0  0  0  0  0  0  0  0
   37.8930   76.1220   57.1190 C   0  0  0  0  0  0  0  0  0  0  0  0
   38.4860   75.9850   58.3250 N   0  0  0  0  0  0  0  0  0  0  0  0
   39.3470   74.9550   58.4900 C   0  0  0  0  0  0  0  0  0  0  0  0
   39.6390   74.0700   57.5200 N   0  0  0  0  0  0  0  0  0  0  0  0
   37.6900   75.3470   55.1380 H   0  0  0  0  0  0  0  0  0  0  0  0
   37.2080   76.9490   57.0040 H   0  0  0  0  0  0  0  0  0  0  0  0
   39.9060   71.0610   54.5740 C   0  0  0  0  0  0  0  0  0  0  0  0
   39.9210   71.4830   53.2300 C   0  0  0  0  0  0  0  0  0  0  0  0
   39.6490   72.7990   52.9100 C   0  0  0  0  0  0  0  0  0  0  0  0
   39.3740   73.6250   53.9600 N   0  0  0  0  0  0  0  0  0  0  0  0
   39.3630   73.2130   55.2410 C   0  0  0  0  0  0  0  0  0  0  0  0
   39.6240   71.9540   55.5490 N   0  0  0  0  0  0  0  0  0  0  0  0
   40.2000   69.6930   54.7380 N   0  0  0  0  0  0  0  0  0  0  0  0
   40.1370   70.8330   52.3850 H   0  0  0  0  0  0  0  0  0  0  0  0
   39.6470   73.1680   51.8970 H   0  0  0  0  0  0  0  0  0  0  0  0
   41.2490   69.6140   54.6040 H   0  0  0  0  0  0  0  0  0  0  0  0
   39.6070   68.8600   54.9450 H   0  0  0  0  0  0  0  0  0  0  0  0
   39.9690   74.8420   59.8530 C   0  0  1  0  0  0  0  0  0  0  0  0
   39.2620   75.2720   61.0390 C   0  0  0  0  0  0  0  0  0  0  0  0
   39.2170   73.8110   60.7290 C   0  0  2  0  0  0  0  0  0  0  0  0
   41.0750   74.6700   59.8060 H   0  0  0  0  0  0  0  0  0  0  0  0
   39.8830   75.6530   61.8750 H   0  0  0  0  0  0  0  0  0  0  0  0
   38.2920   75.8170   60.8800 H   0  0  0  0  0  0  0  0  0  0  0  0
   38.2980   73.3620   60.3550 H   0  0  0  0  0  0  0  0  0  0  0  0
   40.1150   72.9900   61.6290 C   0  0  0  0  0  2  0  0  0  0  0  0
   40.0940   71.9130   61.3670 H   0  0  0  0  0  0  0  0  0  0  0  0
  1  6  1  0  0  0  0
  2  1  2  0  0  0  0
  2  3  1  0  0  0  0
  3  4  2  0  0  0  0
  4  5  1  0  0  0  0
  5 20  1  0  0  0  0
  6  5  2  0  0  0  0
  7  2  1  0  0  0  0
  8  3  1  0  0  0  0
  9 15  1  0  0  0  0
  9 14  1  0  0  0  0
 10  9  2  0  0  0  0
 11 10  1  0  0  0  0
 11 12  2  0  0  0  0
 12 13  1  0  0  0  0
 13 14  2  0  0  0  0
 13  1  1  0  0  0  0
 15 19  1  0  0  0  0
 16 10  1  0  0  0  0
 17 11  1  0  0  0  0
 18 15  1  0  0  0  0
 20 23  1  1  0  0  0
 20 22  1  0  0  0  0
 20 21  1  0  0  0  0
 21 24  1  0  0  0  0
 22 26  1  6  0  0  0
 22 21  1  0  0  0  0
 22 27  1  0  0  0  0
 25 21  1  0  0  0  0
 28 27  1  0  0  0  0
M  END
>  <minimizedAffinity>
-4.73969364

$$$$

 OpenBabel03212520523D

 28 30  0  0  1  0  0  0  0  0999 V2000
   41.4170   72.7210   61.0380 C   0  0  0  0  0  0  0  0  0  0  0  0
   41.3880   72.3660   62.3600 C   0  0  0  0  0  0  0  0  0  0  0  0
   41.7240   71.0740   62.7640 C   0  0  0  0  0  0  0  0  0  0  0  0
   42.0840   70.1530   61.8450 N   0  0  0  0  0  0  0  0  0  0  0  0
   42.1040   70.5340   60.5470 C   0  0  0  0  0  0  0  0  0  0  0  0
   41.7860   71.7730   60.1330 N   0  0  0  0  0  0  0  0  0  0  0  0
   41.1010   73.0880   63.1170 H   0  0  0  0  0  0  0  0  0  0  0  0
   41.7130   70.7540   63.7970 H   0  0  0  0  0  0  0  0  0  0  0  0
   41.5080   75.9650   59.3340 C   0  0  0  0  0  0  0  0  0  0  0  0
   40.3210   76.5560   59.8040 C   0  0  0  0  0  0  0  0  0  0  0  0
   39.5020   75.8730   60.6820 C   0  0  0  0  0  0  0  0  0  0  0  0
   39.9210   74.6260   61.0420 N   0  0  0  0  0  0  0  0  0  0  0  0
   41.0580   74.0690   60.5880 C   0  0  0  0  0  0  0  0  0  0  0  0
   41.8430   74.7220   59.7480 N   0  0  0  0  0  0  0  0  0  0  0  0
   42.2330   76.7840   58.4460 N   0  0  0  0  0  0  0  0  0  0  0  0
   39.9760   77.5490   59.5240 H   0  0  0  0  0  0  0  0  0  0  0  0
   38.5830   76.2840   61.0680 H   0  0  0  0  0  0  0  0  0  0  0  0
   42.7010   77.5140   59.0560 H   0  0  0  0  0  0  0  0  0  0  0  0
   42.3540   76.7740   57.4090 H   0  0  0  0  0  0  0  0  0  0  0  0
   42.5000   69.4680   59.5640 C   0  0  1  0  0  0  0  0  0  0  0  0
   42.4900   68.0690   59.9290 C   0  0  0  0  0  0  0  0  0  0  0  0
   41.2950   68.5740   59.1890 C   0  0  2  0  0  0  0  0  0  0  0  0
   43.0440   69.8840   58.6780 H   0  0  0  0  0  0  0  0  0  0  0  0
   43.2330   67.4200   59.4250 H   0  0  0  0  0  0  0  0  0  0  0  0
   42.3070   67.8300   61.0120 H   0  0  0  0  0  0  0  0  0  0  0  0
   40.3480   68.7080   59.7110 H   0  0  0  0  0  0  0  0  0  0  0  0
   41.2710   68.1400   57.7400 C   0  0  0  0  0  2  0  0  0  0  0  0
   40.3950   68.5470   57.1970 H   0  0  0  0  0  0  0  0  0  0  0  0
  1  2  1  0  0  0  0
  2  3  2  0  0  0  0
  2  7  1  0  0  0  0
  3  8  1  0  0  0  0
  4  3  1  0  0  0  0
  5  4  2  0  0  0  0
  6  5  1  0  0  0  0
  6  1  2  0  0  0  0
  9 14  2  0  0  0  0
  9 10  1  0  0  0  0
 10 11  2  0  0  0  0
 11 12  1  0  0  0  0
 11 17  1  0  0  0  0
 13  1  1  0  0  0  0
 13 12  2  0  0  0  0
 14 13  1  0  0  0  0
 15 18  1  0  0  0  0
 15  9  1  0  0  0  0
 16 10  1  0  0  0  0
 19 15  1  0  0  0  0
 20 23  1  6  0  0  0
 20 21  1  0  0  0  0
 20  5  1  0  0  0  0
 21 25  1  0  0  0  0
 22 20  1  0  0  0  0
 22 26  1  1  0  0  0
 22 21  1  0  0  0  0
 24 21  1  0  0  0  0
 27 22  1  0  0  0  0
 28 27  1  0  0  0  0
M  END
>  <minimizedAffinity>
-4.70629215

$$$$
