
 OpenBabel03212520543D

 26 28  0  0  0  0  0  0  0  0999 V2000
   42.6650   79.6620   61.8590 C   0  0  0  0  0  0  0  0  0  0  0  0
   41.2900   79.4570   61.8510 C   0  0  0  0  0  0  0  0  0  0  0  0
   40.4970   80.4520   61.3860 C   0  0  0  0  0  0  0  0  0  0  0  0
   41.0820   81.6360   60.9360 C   0  0  0  0  0  0  0  0  0  0  0  0
   42.8980   81.3340   61.1830 S   0  0  0  0  0  0  0  0  0  0  0  0
   40.8370   78.5410   62.2000 H   0  0  0  0  0  0  0  0  0  0  0  0
   39.4240   80.4920   61.2980 H   0  0  0  0  0  0  0  0  0  0  0  0
   45.8580   78.1810   62.8640 C   0  0  0  0  0  0  0  0  0  0  0  0
   45.4870   76.8290   63.1980 C   0  0  0  0  0  0  0  0  0  0  0  0
   44.1460   76.4650   63.0740 C   0  0  0  0  0  0  0  0  0  0  0  0
   43.2780   77.4040   62.6450 N   0  0  0  0  0  0  0  0  0  0  0  0
   43.6480   78.6620   62.3360 C   0  0  0  0  0  0  0  0  0  0  0  0
   44.9160   79.0410   62.4460 N   0  0  0  0  0  0  0  0  0  0  0  0
   46.8860   78.4600   62.9610 H   0  0  0  0  0  0  0  0  0  0  0  0
   46.2250   76.1150   63.5380 H   0  0  0  0  0  0  0  0  0  0  0  0
   43.8490   75.4560   63.3210 H   0  0  0  0  0  0  0  0  0  0  0  0
   40.6230   82.8840   60.3900 C   0  0  0  0  0  0  0  0  0  0  0  0
   39.6180   83.5580   61.0220 C   0  0  0  0  0  0  0  0  0  0  0  0
   39.2590   84.7600   60.3970 C   0  0  0  0  0  0  0  0  0  0  0  0
   39.8500   85.2040   59.2840 N   0  0  0  0  0  0  0  0  0  0  0  0
   40.8470   84.4710   58.7130 C   0  0  0  0  0  0  0  0  0  0  0  0
   41.2390   83.2890   59.2780 N   0  0  0  0  0  0  0  0  0  0  0  0
   39.1220   83.2250   61.9220 H   0  0  0  0  0  0  0  0  0  0  0  0
   38.4750   85.3810   60.8080 H   0  0  0  0  0  0  0  0  0  0  0  0
   41.5270   84.9450   57.4610 C   0  0  0  0  0  0  0  0  0  0  0  0
   40.7580   85.3190   56.7300 H   0  0  0  0  0  0  0  0  0  0  0  0
  1 12  1  0  0  0  0
  2  1  2  0  0  0  0
  2  6  1  0  0  0  0
  3  2  1  0  0  0  0
  4  5  1  0  0  0  0
  4  3  2  0  0  0  0
  5  1  1  0  0  0  0
  7  3  1  0  0  0  0
  8 14  1  0  0  0  0
  8  9  1  0  0  0  0
  9 15  1  0  0  0  0
 10  9  2  0  0  0  0
 10 16  1  0  0  0  0
 11 10  1  0  0  0  0
 12 13  1  0  0  0  0
 12 11  2  0  0  0  0
 13  8  2  0  0  0  0
 17  4  1  0  0  0  0
 17 18  1  0  0  0  0
 18 23  1  0  0  0  0
 19 24  1  0  0  0  0
 19 18  2  0  0  0  0
 20 19  1  0  0  0  0
 21 22  1  0  0  0  0
 21 20  2  0  0  0  0
 22 17  2  0  0  0  0
 25 21  1  0  0  0  0
 26 25  1  0  0  0  0
M  END
>  <minimizedAffinity>
-4.34843779

>  <minimizedRMSD>
2.1016674

$$$$
