
 OpenBabel03212520543D

 26 28  0  0  0  0  0  0  0  0999 V2000
   42.0310   71.9070   61.1990 C   0  0  0  0  0  0  0  0  0  0  0  0
   42.0410   71.7030   62.5730 C   0  0  0  0  0  0  0  0  0  0  0  0
   42.1020   70.4290   63.0310 C   0  0  0  0  0  0  0  0  0  0  0  0
   42.1500   69.3780   62.1150 C   0  0  0  0  0  0  0  0  0  0  0  0
   42.1090   70.2430   60.4720 S   0  0  0  0  0  0  0  0  0  0  0  0
   42.0030   72.5170   63.2830 H   0  0  0  0  0  0  0  0  0  0  0  0
   42.1190   70.0620   64.0440 H   0  0  0  0  0  0  0  0  0  0  0  0
   40.6830   75.0960   60.0070 C   0  0  0  0  0  0  0  0  0  0  0  0
   41.8270   75.7040   59.3740 C   0  0  0  0  0  0  0  0  0  0  0  0
   43.0320   75.0020   59.3790 C   0  0  0  0  0  0  0  0  0  0  0  0
   43.0520   73.7930   59.9770 N   0  0  0  0  0  0  0  0  0  0  0  0
   41.9700   73.2430   60.5610 C   0  0  0  0  0  0  0  0  0  0  0  0
   40.8080   73.8860   60.5750 N   0  0  0  0  0  0  0  0  0  0  0  0
   39.7590   75.6350   60.0040 H   0  0  0  0  0  0  0  0  0  0  0  0
   41.7540   76.6780   58.9090 H   0  0  0  0  0  0  0  0  0  0  0  0
   43.9000   75.4430   58.9100 H   0  0  0  0  0  0  0  0  0  0  0  0
   42.2170   67.9430   62.1770 C   0  0  0  0  0  0  0  0  0  0  0  0
   43.3530   67.3120   61.7600 C   0  0  0  0  0  0  0  0  0  0  0  0
   43.3010   65.9160   61.8690 C   0  0  0  0  0  0  0  0  0  0  0  0
   42.2330   65.2640   62.3390 N   0  0  0  0  0  0  0  0  0  0  0  0
   41.1350   65.9680   62.7360 C   0  0  0  0  0  0  0  0  0  0  0  0
   41.1300   67.3330   62.6520 N   0  0  0  0  0  0  0  0  0  0  0  0
   44.2310   67.8100   61.3760 H   0  0  0  0  0  0  0  0  0  0  0  0
   44.1430   65.3080   61.5690 H   0  0  0  0  0  0  0  0  0  0  0  0
   39.9220   65.2620   63.2670 C   0  0  0  0  0  2  0  0  0  0  0  0
   39.6850   64.3740   62.6190 H   0  0  0  0  0  0  0  0  0  0  0  0
  1  2  2  0  0  0  0
  2  3  1  0  0  0  0
  2  6  1  0  0  0  0
  3  7  1  0  0  0  0
  4 17  1  0  0  0  0
  4  3  2  0  0  0  0
  5  1  1  0  0  0  0
  5  4  1  0  0  0  0
  8 13  1  0  0  0  0
  9 10  1  0  0  0  0
  9  8  2  0  0  0  0
 10 11  2  0  0  0  0
 11 12  1  0  0  0  0
 12 13  2  0  0  0  0
 12  1  1  0  0  0  0
 14  8  1  0  0  0  0
 15  9  1  0  0  0  0
 16 10  1  0  0  0  0
 17 22  1  0  0  0  0
 18 19  1  0  0  0  0
 18 17  2  0  0  0  0
 19 20  2  0  0  0  0
 20 21  1  0  0  0  0
 21 25  1  0  0  0  0
 22 21  2  0  0  0  0
 23 18  1  0  0  0  0
 24 19  1  0  0  0  0
 26 25  1  0  0  0  0
M  END
>  <minimizedAffinity>
-5.32732201

$$$$

 OpenBabel03212520543D

 26 28  0  0  0  0  0  0  0  0999 V2000
   42.0840   72.0380   61.1830 C   0  0  0  0  0  0  0  0  0  0  0  0
   41.8380   71.9160   62.5450 C   0  0  0  0  0  0  0  0  0  0  0  0
   41.7310   70.6710   63.0670 C   0  0  0  0  0  0  0  0  0  0  0  0
   41.8700   69.5650   62.2280 C   0  0  0  0  0  0  0  0  0  0  0  0
   42.1770   70.3310   60.5640 S   0  0  0  0  0  0  0  0  0  0  0  0
   41.7300   72.7720   63.1950 H   0  0  0  0  0  0  0  0  0  0  0  0
   41.5440   70.3640   64.0830 H   0  0  0  0  0  0  0  0  0  0  0  0
   43.6050   74.7890   59.3060 C   0  0  0  0  0  0  0  0  0  0  0  0
   42.5200   75.7310   59.1940 C   0  0  0  0  0  0  0  0  0  0  0  0
   41.2920   75.3920   59.7630 C   0  0  0  0  0  0  0  0  0  0  0  0
   41.1980   74.2000   60.3870 N   0  0  0  0  0  0  0  0  0  0  0  0
   42.2260   73.3350   60.4800 C   0  0  0  0  0  0  0  0  0  0  0  0
   43.4070   73.6270   59.9470 N   0  0  0  0  0  0  0  0  0  0  0  0
   44.5450   75.0490   58.8680 H   0  0  0  0  0  0  0  0  0  0  0  0
   42.6510   76.6750   58.6820 H   0  0  0  0  0  0  0  0  0  0  0  0
   40.4680   76.0860   59.6890 H   0  0  0  0  0  0  0  0  0  0  0  0
   41.8290   68.1350   62.3700 C   0  0  0  0  0  0  0  0  0  0  0  0
   41.1700   67.5910   63.4350 C   0  0  0  0  0  0  0  0  0  0  0  0
   41.1970   66.1910   63.4650 C   0  0  0  0  0  0  0  0  0  0  0  0
   41.8130   65.4570   62.5340 N   0  0  0  0  0  0  0  0  0  0  0  0
   42.4500   66.0760   61.5000 C   0  0  0  0  0  0  0  0  0  0  0  0
   42.4560   67.4420   61.4190 N   0  0  0  0  0  0  0  0  0  0  0  0
   40.6630   68.1580   64.2030 H   0  0  0  0  0  0  0  0  0  0  0  0
   40.7080   65.6480   64.2620 H   0  0  0  0  0  0  0  0  0  0  0  0
   43.1500   65.2770   60.4400 C   0  0  0  0  0  2  0  0  0  0  0  0
   43.7500   64.4550   60.9200 H   0  0  0  0  0  0  0  0  0  0  0  0
  1  2  2  0  0  0  0
  2  3  1  0  0  0  0
  2  6  1  0  0  0  0
  3  7  1  0  0  0  0
  4 17  1  0  0  0  0
  4  3  2  0  0  0  0
  5  1  1  0  0  0  0
  5  4  1  0  0  0  0
  8 13  1  0  0  0  0
  9  8  2  0  0  0  0
  9 10  1  0  0  0  0
 10 11  2  0  0  0  0
 11 12  1  0  0  0  0
 12  1  1  0  0  0  0
 13 12  2  0  0  0  0
 14  8  1  0  0  0  0
 15  9  1  0  0  0  0
 16 10  1  0  0  0  0
 17 18  1  0  0  0  0
 18 19  2  0  0  0  0
 18 23  1  0  0  0  0
 19 24  1  0  0  0  0
 20 19  1  0  0  0  0
 21 20  2  0  0  0  0
 22 21  1  0  0  0  0
 22 17  2  0  0  0  0
 25 26  1  0  0  0  0
 25 21  1  0  0  0  0
M  END
>  <minimizedAffinity>
-5.16331244

$$$$

 OpenBabel03212520543D

 26 28  0  0  0  0  0  0  0  0999 V2000
   42.0490   69.9260   61.8570 C   0  0  0  0  0  0  0  0  0  0  0  0
   42.0910   70.8680   62.8780 C   0  0  0  0  0  0  0  0  0  0  0  0
   42.1300   72.1790   62.5380 C   0  0  0  0  0  0  0  0  0  0  0  0
   42.1270   72.5350   61.1900 C   0  0  0  0  0  0  0  0  0  0  0  0
   42.0640   70.8950   60.3180 S   0  0  0  0  0  0  0  0  0  0  0  0
   42.0950   70.5940   63.9230 H   0  0  0  0  0  0  0  0  0  0  0  0
   42.1660   73.0520   63.1690 H   0  0  0  0  0  0  0  0  0  0  0  0
   41.3270   66.7090   63.4460 C   0  0  0  0  0  0  0  0  0  0  0  0
   41.9180   65.7660   62.5310 C   0  0  0  0  0  0  0  0  0  0  0  0
   42.5450   66.2620   61.3880 C   0  0  0  0  0  0  0  0  0  0  0  0
   42.5600   67.5990   61.2120 N   0  0  0  0  0  0  0  0  0  0  0  0
   42.0020   68.4630   62.0820 C   0  0  0  0  0  0  0  0  0  0  0  0
   41.3960   68.0220   63.1780 N   0  0  0  0  0  0  0  0  0  0  0  0
   40.8450   66.3270   64.3210 H   0  0  0  0  0  0  0  0  0  0  0  0
   41.8770   64.7010   62.7220 H   0  0  0  0  0  0  0  0  0  0  0  0
   42.9940   65.5700   60.6900 H   0  0  0  0  0  0  0  0  0  0  0  0
   42.1590   73.7560   60.4320 C   0  0  0  0  0  0  0  0  0  0  0  0
   43.3320   74.1540   59.8610 C   0  0  0  0  0  0  0  0  0  0  0  0
   43.2390   75.3570   59.1480 C   0  0  0  0  0  0  0  0  0  0  0  0
   42.1010   76.0490   59.0390 N   0  0  0  0  0  0  0  0  0  0  0  0
   40.9690   75.5840   59.6400 C   0  0  0  0  0  0  0  0  0  0  0  0
   41.0010   74.4150   60.3500 N   0  0  0  0  0  0  0  0  0  0  0  0
   44.2670   73.6170   59.9310 H   0  0  0  0  0  0  0  0  0  0  0  0
   44.1050   75.7720   58.6510 H   0  0  0  0  0  0  0  0  0  0  0  0
   39.6770   76.3410   59.5350 C   0  0  0  0  0  2  0  0  0  0  0  0
   39.8660   77.4380   59.7020 H   0  0  0  0  0  0  0  0  0  0  0  0
  1 12  1  0  0  0  0
  1  2  2  0  0  0  0
  2  6  1  0  0  0  0
  3  2  1  0  0  0  0
  3  7  1  0  0  0  0
  4  3  2  0  0  0  0
  5  4  1  0  0  0  0
  5  1  1  0  0  0  0
  8 14  1  0  0  0  0
  9 15  1  0  0  0  0
  9  8  2  0  0  0  0
 10  9  1  0  0  0  0
 11 10  2  0  0  0  0
 11 12  1  0  0  0  0
 12 13  2  0  0  0  0
 13  8  1  0  0  0  0
 16 10  1  0  0  0  0
 17  4  1  0  0  0  0
 18 23  1  0  0  0  0
 18 17  2  0  0  0  0
 19 18  1  0  0  0  0
 20 19  2  0  0  0  0
 20 21  1  0  0  0  0
 21 22  2  0  0  0  0
 22 17  1  0  0  0  0
 24 19  1  0  0  0  0
 25 21  1  0  0  0  0
 25 26  1  0  0  0  0
M  END
>  <minimizedAffinity>
-5.09760714

$$$$

 OpenBabel03212520543D

 26 28  0  0  0  0  0  0  0  0999 V2000
   39.0220   75.0160   58.6410 C   0  0  0  0  0  0  0  0  0  0  0  0
   39.2550   75.5770   59.8910 C   0  0  0  0  0  0  0  0  0  0  0  0
   39.9780   74.8640   60.7880 C   0  0  0  0  0  0  0  0  0  0  0  0
   40.4590   73.6050   60.4300 C   0  0  0  0  0  0  0  0  0  0  0  0
   39.8490   73.3980   58.6880 S   0  0  0  0  0  0  0  0  0  0  0  0
   38.8810   76.5510   60.1700 H   0  0  0  0  0  0  0  0  0  0  0  0
   40.2640   75.1160   61.7960 H   0  0  0  0  0  0  0  0  0  0  0  0
   37.8090   77.6350   56.3900 C   0  0  0  0  0  0  0  0  0  0  0  0
   36.8270   76.9390   55.5980 C   0  0  0  0  0  0  0  0  0  0  0  0
   36.6120   75.5860   55.8560 C   0  0  0  0  0  0  0  0  0  0  0  0
   37.3390   75.0110   56.8360 N   0  0  0  0  0  0  0  0  0  0  0  0
   38.2510   75.6820   57.5660 C   0  0  0  0  0  0  0  0  0  0  0  0
   38.4800   76.9710   57.3440 N   0  0  0  0  0  0  0  0  0  0  0  0
   37.9740   78.6730   56.1910 H   0  0  0  0  0  0  0  0  0  0  0  0
   36.2710   77.4510   54.8220 H   0  0  0  0  0  0  0  0  0  0  0  0
   35.8800   75.0480   55.2720 H   0  0  0  0  0  0  0  0  0  0  0  0
   41.2330   72.5670   61.0540 C   0  0  0  0  0  0  0  0  0  0  0  0
   41.0270   72.2870   62.3740 C   0  0  0  0  0  0  0  0  0  0  0  0
   41.8380   71.2560   62.8700 C   0  0  0  0  0  0  0  0  0  0  0  0
   42.7310   70.6090   62.1150 N   0  0  0  0  0  0  0  0  0  0  0  0
   42.8770   70.9490   60.8030 C   0  0  0  0  0  0  0  0  0  0  0  0
   42.1120   71.9470   60.2650 N   0  0  0  0  0  0  0  0  0  0  0  0
   40.3140   72.7920   63.0090 H   0  0  0  0  0  0  0  0  0  0  0  0
   41.7630   70.9460   63.9030 H   0  0  0  0  0  0  0  0  0  0  0  0
   43.8720   70.2390   59.9330 C   0  0  0  0  0  2  0  0  0  0  0  0
   44.8450   70.1230   60.4860 H   0  0  0  0  0  0  0  0  0  0  0  0
  1  5  1  0  0  0  0
  1  2  2  0  0  0  0
  2  6  1  0  0  0  0
  2  3  1  0  0  0  0
  3  7  1  0  0  0  0
  4  3  2  0  0  0  0
  4 17  1  0  0  0  0
  5  4  1  0  0  0  0
  8 13  1  0  0  0  0
  9 10  1  0  0  0  0
  9  8  2  0  0  0  0
 10 11  2  0  0  0  0
 11 12  1  0  0  0  0
 12  1  1  0  0  0  0
 13 12  2  0  0  0  0
 14  8  1  0  0  0  0
 15  9  1  0  0  0  0
 16 10  1  0  0  0  0
 17 18  1  0  0  0  0
 18 19  2  0  0  0  0
 18 23  1  0  0  0  0
 19 24  1  0  0  0  0
 20 19  1  0  0  0  0
 21 20  2  0  0  0  0
 22 21  1  0  0  0  0
 22 17  2  0  0  0  0
 25 26  1  0  0  0  0
 25 21  1  0  0  0  0
M  END
>  <minimizedAffinity>
-5.088696

$$$$

 OpenBabel03212520543D

 26 28  0  0  0  0  0  0  0  0999 V2000
   41.3940   72.6670   61.0750 C   0  0  0  0  0  0  0  0  0  0  0  0
   41.5150   72.3790   62.4290 C   0  0  0  0  0  0  0  0  0  0  0  0
   41.8180   71.1080   62.7890 C   0  0  0  0  0  0  0  0  0  0  0  0
   41.9960   70.1430   61.7970 C   0  0  0  0  0  0  0  0  0  0  0  0
   41.7170   71.0930   60.2260 S   0  0  0  0  0  0  0  0  0  0  0  0
   41.3770   73.1250   63.1980 H   0  0  0  0  0  0  0  0  0  0  0  0
   41.9540   70.6850   63.7710 H   0  0  0  0  0  0  0  0  0  0  0  0
   41.7250   75.8100   59.2270 C   0  0  0  0  0  0  0  0  0  0  0  0
   40.5020   76.4990   59.5560 C   0  0  0  0  0  0  0  0  0  0  0  0
   39.5950   75.8610   60.4020 C   0  0  0  0  0  0  0  0  0  0  0  0
   39.9200   74.6350   60.8610 N   0  0  0  0  0  0  0  0  0  0  0  0
   41.0700   74.0100   60.5410 C   0  0  0  0  0  0  0  0  0  0  0  0
   41.9540   74.5900   59.7370 N   0  0  0  0  0  0  0  0  0  0  0  0
   42.4200   76.2990   58.5770 H   0  0  0  0  0  0  0  0  0  0  0  0
   40.2920   77.4830   59.1590 H   0  0  0  0  0  0  0  0  0  0  0  0
   38.6730   76.3620   60.6600 H   0  0  0  0  0  0  0  0  0  0  0  0
   42.3120   68.7410   61.7500 C   0  0  0  0  0  0  0  0  0  0  0  0
   43.5150   68.3480   61.2400 C   0  0  0  0  0  0  0  0  0  0  0  0
   43.7090   66.9600   61.2480 C   0  0  0  0  0  0  0  0  0  0  0  0
   42.7960   66.1020   61.7140 N   0  0  0  0  0  0  0  0  0  0  0  0
   41.6180   66.5760   62.2080 C   0  0  0  0  0  0  0  0  0  0  0  0
   41.3730   67.9210   62.2250 N   0  0  0  0  0  0  0  0  0  0  0  0
   44.2720   69.0160   60.8560 H   0  0  0  0  0  0  0  0  0  0  0  0
   44.6260   66.5300   60.8680 H   0  0  0  0  0  0  0  0  0  0  0  0
   40.5740   65.6350   62.7370 C   0  0  0  0  0  2  0  0  0  0  0  0
   40.4590   64.7630   62.0360 H   0  0  0  0  0  0  0  0  0  0  0  0
  1  2  2  0  0  0  0
  2  3  1  0  0  0  0
  2  6  1  0  0  0  0
  3  7  1  0  0  0  0
  4  3  2  0  0  0  0
  5  1  1  0  0  0  0
  5  4  1  0  0  0  0
  8  9  2  0  0  0  0
  8 13  1  0  0  0  0
  9 10  1  0  0  0  0
 10 16  1  0  0  0  0
 10 11  2  0  0  0  0
 12 11  1  0  0  0  0
 12  1  1  0  0  0  0
 13 12  2  0  0  0  0
 14  8  1  0  0  0  0
 15  9  1  0  0  0  0
 17  4  1  0  0  0  0
 17 22  1  0  0  0  0
 18 19  1  0  0  0  0
 18 17  2  0  0  0  0
 19 20  2  0  0  0  0
 20 21  1  0  0  0  0
 21 22  2  0  0  0  0
 21 25  1  0  0  0  0
 23 18  1  0  0  0  0
 24 19  1  0  0  0  0
 26 25  1  0  0  0  0
M  END
>  <minimizedAffinity>
-5.04382467

$$$$

 OpenBabel03212520543D

 26 28  0  0  0  0  0  0  0  0999 V2000
   42.1130   69.7160   61.8200 C   0  0  0  0  0  0  0  0  0  0  0  0
   41.9790   70.5300   62.9380 C   0  0  0  0  0  0  0  0  0  0  0  0
   41.7030   71.8420   62.7460 C   0  0  0  0  0  0  0  0  0  0  0  0
   41.5640   72.3260   61.4450 C   0  0  0  0  0  0  0  0  0  0  0  0
   41.8430   70.8170   60.3990 S   0  0  0  0  0  0  0  0  0  0  0  0
   42.0870   70.1560   63.9460 H   0  0  0  0  0  0  0  0  0  0  0  0
   41.5640   72.6290   63.4690 H   0  0  0  0  0  0  0  0  0  0  0  0
   44.0230   66.5950   61.9190 C   0  0  0  0  0  0  0  0  0  0  0  0
   42.9880   65.5940   61.9770 C   0  0  0  0  0  0  0  0  0  0  0  0
   41.6600   66.0200   61.9860 C   0  0  0  0  0  0  0  0  0  0  0  0
   41.4270   67.3480   61.9370 N   0  0  0  0  0  0  0  0  0  0  0  0
   42.4110   68.2660   61.8820 C   0  0  0  0  0  0  0  0  0  0  0  0
   43.6850   67.8930   61.8740 N   0  0  0  0  0  0  0  0  0  0  0  0
   45.0410   66.2670   61.9130 H   0  0  0  0  0  0  0  0  0  0  0  0
   43.2310   64.5400   62.0140 H   0  0  0  0  0  0  0  0  0  0  0  0
   40.8700   65.2840   62.0290 H   0  0  0  0  0  0  0  0  0  0  0  0
   41.2850   73.5940   60.8280 C   0  0  0  0  0  0  0  0  0  0  0  0
   40.1190   74.2370   61.1280 C   0  0  0  0  0  0  0  0  0  0  0  0
   39.9590   75.4630   60.4680 C   0  0  0  0  0  0  0  0  0  0  0  0
   40.8690   75.9550   59.6210 N   0  0  0  0  0  0  0  0  0  0  0  0
   42.0090   75.2500   59.3740 C   0  0  0  0  0  0  0  0  0  0  0  0
   42.2190   74.0470   59.9900 N   0  0  0  0  0  0  0  0  0  0  0  0
   39.3660   73.8660   61.8080 H   0  0  0  0  0  0  0  0  0  0  0  0
   39.0740   76.0630   60.6280 H   0  0  0  0  0  0  0  0  0  0  0  0
   43.0470   75.7780   58.4270 C   0  0  0  0  0  2  0  0  0  0  0  0
   42.5480   76.1790   57.5020 H   0  0  0  0  0  0  0  0  0  0  0  0
  1 12  1  0  0  0  0
  1  2  2  0  0  0  0
  2  6  1  0  0  0  0
  3  2  1  0  0  0  0
  3  7  1  0  0  0  0
  4  3  2  0  0  0  0
  5  4  1  0  0  0  0
  5  1  1  0  0  0  0
  8  9  1  0  0  0  0
  9 10  2  0  0  0  0
  9 15  1  0  0  0  0
 10 16  1  0  0  0  0
 11 10  1  0  0  0  0
 12 11  2  0  0  0  0
 13 12  1  0  0  0  0
 13  8  2  0  0  0  0
 14  8  1  0  0  0  0
 17 18  1  0  0  0  0
 17  4  1  0  0  0  0
 18 23  1  0  0  0  0
 19 24  1  0  0  0  0
 19 18  2  0  0  0  0
 20 19  1  0  0  0  0
 21 20  2  0  0  0  0
 21 22  1  0  0  0  0
 22 17  2  0  0  0  0
 25 21  1  0  0  0  0
 26 25  1  0  0  0  0
M  END
>  <minimizedAffinity>
-5.02843666

$$$$

 OpenBabel03212520543D

 26 28  0  0  0  0  0  0  0  0999 V2000
   42.0530   70.2510   61.3580 C   0  0  0  0  0  0  0  0  0  0  0  0
   41.9010   70.4610   59.9930 C   0  0  0  0  0  0  0  0  0  0  0  0
   41.4100   71.6540   59.5790 C   0  0  0  0  0  0  0  0  0  0  0  0
   41.0790   72.6210   60.5280 C   0  0  0  0  0  0  0  0  0  0  0  0
   41.4880   71.7930   62.1400 S   0  0  0  0  0  0  0  0  0  0  0  0
   42.1560   69.7120   59.2570 H   0  0  0  0  0  0  0  0  0  0  0  0
   41.2180   72.0100   58.5800 H   0  0  0  0  0  0  0  0  0  0  0  0
   44.0070   68.0030   63.4860 C   0  0  0  0  0  0  0  0  0  0  0  0
   43.5770   66.7000   63.0450 C   0  0  0  0  0  0  0  0  0  0  0  0
   42.6230   66.6300   62.0310 C   0  0  0  0  0  0  0  0  0  0  0  0
   42.1610   67.7910   61.5230 N   0  0  0  0  0  0  0  0  0  0  0  0
   42.5780   68.9990   61.9500 C   0  0  0  0  0  0  0  0  0  0  0  0
   43.4850   69.0990   62.9150 N   0  0  0  0  0  0  0  0  0  0  0  0
   44.7380   68.0560   64.2650 H   0  0  0  0  0  0  0  0  0  0  0  0
   43.9820   65.7990   63.4880 H   0  0  0  0  0  0  0  0  0  0  0  0
   42.2880   65.6620   61.6880 H   0  0  0  0  0  0  0  0  0  0  0  0
   40.5520   73.9590   60.5150 C   0  0  0  0  0  0  0  0  0  0  0  0
   39.4040   74.2280   61.2020 C   0  0  0  0  0  0  0  0  0  0  0  0
   38.9910   75.5640   61.1170 C   0  0  0  0  0  0  0  0  0  0  0  0
   39.6630   76.4890   60.4250 N   0  0  0  0  0  0  0  0  0  0  0  0
   40.8030   76.1390   59.7650 C   0  0  0  0  0  0  0  0  0  0  0  0
   41.2540   74.8490   59.8120 N   0  0  0  0  0  0  0  0  0  0  0  0
   38.8390   73.5030   61.7700 H   0  0  0  0  0  0  0  0  0  0  0  0
   38.0940   75.8970   61.6210 H   0  0  0  0  0  0  0  0  0  0  0  0
   41.5770   77.1570   58.9790 C   0  0  0  0  0  2  0  0  0  0  0  0
   40.8700   77.7840   58.3690 H   0  0  0  0  0  0  0  0  0  0  0  0
  1 12  1  0  0  0  0
  1  5  1  0  0  0  0
  2  1  2  0  0  0  0
  3  2  1  0  0  0  0
  3  4  2  0  0  0  0
  4  5  1  0  0  0  0
  6  2  1  0  0  0  0
  7  3  1  0  0  0  0
  8 14  1  0  0  0  0
  9  8  1  0  0  0  0
  9 15  1  0  0  0  0
 10  9  2  0  0  0  0
 11 12  2  0  0  0  0
 11 10  1  0  0  0  0
 12 13  1  0  0  0  0
 13  8  2  0  0  0  0
 16 10  1  0  0  0  0
 17  4  1  0  0  0  0
 17 18  1  0  0  0  0
 18 23  1  0  0  0  0
 19 18  2  0  0  0  0
 19 24  1  0  0  0  0
 20 19  1  0  0  0  0
 21 22  1  0  0  0  0
 21 20  2  0  0  0  0
 22 17  2  0  0  0  0
 25 21  1  0  0  0  0
 26 25  1  0  0  0  0
M  END
>  <minimizedAffinity>
-4.81939983

$$$$

 OpenBabel03212520543D

 26 28  0  0  0  0  0  0  0  0999 V2000
   41.2240   72.7450   61.0160 C   0  0  0  0  0  0  0  0  0  0  0  0
   41.4510   72.4900   62.3630 C   0  0  0  0  0  0  0  0  0  0  0  0
   41.9750   71.2890   62.7080 C   0  0  0  0  0  0  0  0  0  0  0  0
   42.2650   70.3600   61.7090 C   0  0  0  0  0  0  0  0  0  0  0  0
   41.7630   71.2390   60.1520 S   0  0  0  0  0  0  0  0  0  0  0  0
   41.2260   73.2090   63.1370 H   0  0  0  0  0  0  0  0  0  0  0  0
   42.2220   70.9010   63.6830 H   0  0  0  0  0  0  0  0  0  0  0  0
   39.2990   75.8560   60.8810 C   0  0  0  0  0  0  0  0  0  0  0  0
   39.5870   76.3470   59.5560 C   0  0  0  0  0  0  0  0  0  0  0  0
   40.4400   75.5960   58.7470 C   0  0  0  0  0  0  0  0  0  0  0  0
   40.9430   74.4530   59.2570 N   0  0  0  0  0  0  0  0  0  0  0  0
   40.6590   74.0120   60.4980 C   0  0  0  0  0  0  0  0  0  0  0  0
   39.8510   74.7040   61.2930 N   0  0  0  0  0  0  0  0  0  0  0  0
   38.6460   76.4320   61.5010 H   0  0  0  0  0  0  0  0  0  0  0  0
   39.1560   77.2720   59.1980 H   0  0  0  0  0  0  0  0  0  0  0  0
   40.6680   75.9490   57.7520 H   0  0  0  0  0  0  0  0  0  0  0  0
   42.8060   69.0290   61.6470 C   0  0  0  0  0  0  0  0  0  0  0  0
   42.0350   67.9780   62.0540 C   0  0  0  0  0  0  0  0  0  0  0  0
   42.6680   66.7330   61.9460 C   0  0  0  0  0  0  0  0  0  0  0  0
   43.9140   66.5900   61.4850 N   0  0  0  0  0  0  0  0  0  0  0  0
   44.6190   67.6910   61.0980 C   0  0  0  0  0  0  0  0  0  0  0  0
   44.0520   68.9320   61.1820 N   0  0  0  0  0  0  0  0  0  0  0  0
   41.0250   68.0620   62.4310 H   0  0  0  0  0  0  0  0  0  0  0  0
   42.1550   65.8270   62.2380 H   0  0  0  0  0  0  0  0  0  0  0  0
   46.0210   67.5590   60.5770 C   0  0  0  0  0  2  0  0  0  0  0  0
   46.6020   66.8490   61.2280 H   0  0  0  0  0  0  0  0  0  0  0  0
  1  2  2  0  0  0  0
  2  3  1  0  0  0  0
  2  6  1  0  0  0  0
  3  7  1  0  0  0  0
  4  3  2  0  0  0  0
  5  1  1  0  0  0  0
  5  4  1  0  0  0  0
  8 13  1  0  0  0  0
  8 14  1  0  0  0  0
  9  8  2  0  0  0  0
 10 11  2  0  0  0  0
 10  9  1  0  0  0  0
 11 12  1  0  0  0  0
 12  1  1  0  0  0  0
 12 13  2  0  0  0  0
 15  9  1  0  0  0  0
 16 10  1  0  0  0  0
 17  4  1  0  0  0  0
 17 18  1  0  0  0  0
 18 23  1  0  0  0  0
 19 18  2  0  0  0  0
 19 24  1  0  0  0  0
 20 19  1  0  0  0  0
 21 22  1  0  0  0  0
 21 20  2  0  0  0  0
 22 17  2  0  0  0  0
 25 21  1  0  0  0  0
 25 26  1  0  0  0  0
M  END
>  <minimizedAffinity>
-4.66720295

$$$$

 OpenBabel03212520543D

 26 28  0  0  0  0  0  0  0  0999 V2000
   41.3660   74.0510   59.7760 C   0  0  0  0  0  0  0  0  0  0  0  0
   42.7280   73.9540   60.0340 C   0  0  0  0  0  0  0  0  0  0  0  0
   43.2180   72.7600   60.4460 C   0  0  0  0  0  0  0  0  0  0  0  0
   42.3470   71.6810   60.5950 C   0  0  0  0  0  0  0  0  0  0  0  0
   40.7000   72.3940   60.1180 S   0  0  0  0  0  0  0  0  0  0  0  0
   43.4030   74.7890   59.9200 H   0  0  0  0  0  0  0  0  0  0  0  0
   44.2280   72.4800   60.6950 H   0  0  0  0  0  0  0  0  0  0  0  0
   38.8030   76.2750   58.4040 C   0  0  0  0  0  0  0  0  0  0  0  0
   39.4460   77.5640   58.4510 C   0  0  0  0  0  0  0  0  0  0  0  0
   40.7430   77.6340   58.9590 C   0  0  0  0  0  0  0  0  0  0  0  0
   41.3170   76.4860   59.3740 N   0  0  0  0  0  0  0  0  0  0  0  0
   40.6970   75.2910   59.3190 C   0  0  0  0  0  0  0  0  0  0  0  0
   39.4620   75.1910   58.8420 N   0  0  0  0  0  0  0  0  0  0  0  0
   37.8080   76.2230   58.0150 H   0  0  0  0  0  0  0  0  0  0  0  0
   38.9380   78.4550   58.1040 H   0  0  0  0  0  0  0  0  0  0  0  0
   41.2410   78.5920   59.0030 H   0  0  0  0  0  0  0  0  0  0  0  0
   42.4520   70.3020   60.9920 C   0  0  0  0  0  0  0  0  0  0  0  0
   42.9910   70.0000   62.2090 C   0  0  0  0  0  0  0  0  0  0  0  0
   43.0380   68.6270   62.4840 C   0  0  0  0  0  0  0  0  0  0  0  0
   42.5930   67.7000   61.6310 N   0  0  0  0  0  0  0  0  0  0  0  0
   42.0680   68.0840   60.4340 C   0  0  0  0  0  0  0  0  0  0  0  0
   41.9960   69.4110   60.1100 N   0  0  0  0  0  0  0  0  0  0  0  0
   43.3590   70.7260   62.9200 H   0  0  0  0  0  0  0  0  0  0  0  0
   43.4450   68.2670   63.4190 H   0  0  0  0  0  0  0  0  0  0  0  0
   41.5610   67.0640   59.4560 C   0  0  0  0  0  2  0  0  0  0  0  0
   42.2940   66.2130   59.3810 H   0  0  0  0  0  0  0  0  0  0  0  0
  1  2  2  0  0  0  0
  1  5  1  0  0  0  0
  2  3  1  0  0  0  0
  3  4  2  0  0  0  0
  3  7  1  0  0  0  0
  4 17  1  0  0  0  0
  5  4  1  0  0  0  0
  6  2  1  0  0  0  0
  8  9  2  0  0  0  0
  8 13  1  0  0  0  0
  9 10  1  0  0  0  0
 10 16  1  0  0  0  0
 10 11  2  0  0  0  0
 12 11  1  0  0  0  0
 12  1  1  0  0  0  0
 13 12  2  0  0  0  0
 14  8  1  0  0  0  0
 15  9  1  0  0  0  0
 17 18  1  0  0  0  0
 18 19  2  0  0  0  0
 18 23  1  0  0  0  0
 19 24  1  0  0  0  0
 20 19  1  0  0  0  0
 21 20  2  0  0  0  0
 22 21  1  0  0  0  0
 22 17  2  0  0  0  0
 25 21  1  0  0  0  0
 26 25  1  0  0  0  0
M  END
>  <minimizedAffinity>
-4.6003809

$$$$
