
 OpenBabel03212521053D

 29 31  0  0  0  0  0  0  0  0999 V2000
   41.8120   84.2380   61.5630 C   0  0  0  0  0  0  0  0  0  0  0  0
   41.4350   83.9580   62.8720 C   0  0  0  0  0  0  0  0  0  0  0  0
   40.1520   83.5500   63.1890 C   0  0  0  0  0  0  0  0  0  0  0  0
   39.2130   83.4170   62.1740 C   0  0  0  0  0  0  0  0  0  0  0  0
   39.5880   83.6980   60.8600 C   0  0  0  0  0  0  0  0  0  0  0  0
   40.8650   84.1010   60.5680 C   0  0  0  0  0  0  0  0  0  0  0  0
   42.1860   84.0670   63.6600 H   0  0  0  0  0  0  0  0  0  0  0  0
   39.9550   83.3540   64.2520 H   0  0  0  0  0  0  0  0  0  0  0  0
   38.2230   83.0990   62.4480 H   0  0  0  0  0  0  0  0  0  0  0  0
   38.8290   83.5860   60.0830 H   0  0  0  0  0  0  0  0  0  0  0  0
   45.3530   84.1170   60.7010 C   0  0  0  0  0  0  0  0  0  0  0  0
   45.7390   85.4510   60.7580 C   0  0  0  0  0  0  0  0  0  0  0  0
   44.7600   86.4260   61.1040 C   0  0  0  0  0  0  0  0  0  0  0  0
   43.5040   85.9820   61.3540 N   0  0  0  0  0  0  0  0  0  0  0  0
   43.1640   84.6600   61.2860 C   0  0  0  0  0  0  0  0  0  0  0  0
   44.0860   83.7700   60.9650 N   0  0  0  0  0  0  0  0  0  0  0  0
   46.1460   83.4230   60.4320 H   0  0  0  0  0  0  0  0  0  0  0  0
   46.7180   85.8400   60.5680 H   0  0  0  0  0  0  0  0  0  0  0  0
   44.9790   87.4840   61.1700 H   0  0  0  0  0  0  0  0  0  0  0  0
   41.2020   84.3810   59.1770 C   0  0  0  0  0  0  0  0  0  0  0  0
   40.7700   85.6450   58.7740 C   0  0  0  0  0  0  0  0  0  0  0  0
   40.9990   86.0970   57.4770 C   0  0  0  0  0  0  0  0  0  0  0  0
   41.6440   85.2740   56.6490 N   0  0  0  0  0  0  0  0  0  0  0  0
   42.0660   84.0490   57.0360 C   0  0  0  0  0  0  0  0  0  0  0  0
   41.8480   83.6020   58.2890 N   0  0  0  0  0  0  0  0  0  0  0  0
   40.2340   86.3580   59.4200 H   0  0  0  0  0  0  0  0  0  0  0  0
   40.6720   87.0720   57.1470 H   0  0  0  0  0  0  0  0  0  0  0  0
   42.7890   83.0920   56.1540 C   0  0  0  0  0  2  0  0  0  0  0  0
   43.3860   82.3670   56.7690 H   0  0  0  0  0  0  0  0  0  0  0  0
  1  2  1  0  0  0  0
  2  3  2  0  0  0  0
  2  7  1  0  0  0  0
  3  8  1  0  0  0  0
  4  9  1  0  0  0  0
  4  3  1  0  0  0  0
  5  4  2  0  0  0  0
  6  5  1  0  0  0  0
  6  1  2  0  0  0  0
 10  5  1  0  0  0  0
 11 12  2  0  0  0  0
 11 16  1  0  0  0  0
 12 13  1  0  0  0  0
 13 19  1  0  0  0  0
 13 14  2  0  0  0  0
 15 14  1  0  0  0  0
 15  1  1  0  0  0  0
 16 15  2  0  0  0  0
 17 11  1  0  0  0  0
 18 12  1  0  0  0  0
 20  6  1  0  0  0  0
 21 20  1  0  0  0  0
 21 26  1  0  0  0  0
 22 21  2  0  0  0  0
 23 24  2  0  0  0  0
 23 22  1  0  0  0  0
 24 25  1  0  0  0  0
 25 20  2  0  0  0  0
 27 22  1  0  0  0  0
 28 29  1  0  0  0  0
 28 24  1  0  0  0  0
M  END
>  <minimizedAffinity>
-5.31287766

>  <minimizedRMSD>
0.0764781088

$$$$
