
 OpenBabel03212520313D

 34 36  0  0  0  0  0  0  0  0999 V2000
   40.6760   79.8870   58.6060 C   0  0  0  0  0  0  0  0  0  0  0  0
   40.1490   80.7840   57.6990 C   0  0  0  0  0  0  0  0  0  0  0  0
   40.4170   82.1410   57.9170 C   0  0  0  0  0  0  0  0  0  0  0  0
   41.1730   82.4780   58.9950 N   0  0  0  0  0  0  0  0  0  0  0  0
   41.6690   81.6040   59.8510 C   0  0  0  0  0  0  0  0  0  0  0  0
   41.4120   80.2990   59.6440 N   0  0  0  0  0  0  0  0  0  0  0  0
   40.4600   78.8230   58.4270 H   0  0  0  0  0  0  0  0  0  0  0  0
   40.0280   82.8710   57.2390 H   0  0  0  0  0  0  0  0  0  0  0  0
   39.3690   80.3500   56.6000 N   0  0  0  0  0  0  0  0  0  0  0  0
   38.2590   79.6880   56.9680 C   0  0  0  0  0  0  0  0  0  0  0  0
   37.4160   79.2130   55.9610 C   0  0  0  0  0  0  0  0  0  0  0  0
   37.7490   79.4380   54.6290 C   0  0  0  0  0  0  0  0  0  0  0  0
   37.0630   79.0550   53.6500 O   0  0  0  0  0  0  0  0  0  0  0  0
   38.9000   80.1220   54.3440 N   0  0  0  0  0  0  0  0  0  0  0  0
   39.7190   80.5840   55.3250 C   0  0  0  0  0  0  0  0  0  0  0  0
   40.7650   81.2040   55.0760 O   0  0  0  0  0  0  0  0  0  0  0  0
   37.9630   79.4910   57.9790 H   0  0  0  0  0  0  0  0  0  0  0  0
   36.5040   78.6710   56.1730 H   0  0  0  0  0  0  0  0  0  0  0  0
   39.2310   80.3370   53.3730 H   0  0  0  0  0  0  0  0  0  0  0  0
   41.8820   82.7720   62.0200 C   0  0  0  0  0  0  0  0  0  0  0  0
   42.4570   82.1010   60.9610 C   0  0  0  0  0  0  0  0  0  0  0  0
   43.8180   81.8670   60.9410 C   0  0  0  0  0  0  0  0  0  0  0  0
   44.6700   82.2860   61.9670 C   0  0  0  0  0  0  0  0  0  0  0  0
   44.1010   82.9590   63.0320 C   0  0  0  0  0  0  0  0  0  0  0  0
   42.7400   83.1890   63.0470 C   0  0  0  0  0  0  0  0  0  0  0  0
   44.2760   81.3400   60.1080 H   0  0  0  0  0  0  0  0  0  0  0  0
   45.7250   82.1060   61.9550 H   0  0  0  0  0  0  0  0  0  0  0  0
   44.7180   83.3090   63.8640 H   0  0  0  0  0  0  0  0  0  0  0  0
   42.2390   83.7070   63.8500 H   0  0  0  0  0  0  0  0  0  0  0  0
   40.1690   83.0920   62.0690 S   0  0  0  0  0  0  0  0  0  0  0  0
   39.7780   83.6240   63.4190 O   0  0  0  0  0  0  0  0  0  0  0  0
   39.4780   81.7270   61.9990 O   0  0  0  0  0  0  0  0  0  0  0  0
   39.5620   84.1900   60.8610 C   0  0  0  0  0  2  0  0  0  0  0  0
   38.9890   85.0140   61.3630 H   0  0  0  0  0  0  0  0  0  0  0  0
  1  6  1  0  0  0  0
  2  3  1  0  0  0  0
  2  1  2  0  0  0  0
  3  4  2  0  0  0  0
  4  5  1  0  0  0  0
  5 21  1  0  0  0  0
  6  5  2  0  0  0  0
  7  1  1  0  0  0  0
  8  3  1  0  0  0  0
  9 10  1  0  0  0  0
  9  2  1  0  0  0  0
 10 17  1  0  0  0  0
 11 18  1  0  0  0  0
 11 10  2  0  0  0  0
 12 11  1  0  0  0  0
 13 12  2  0  0  0  0
 14 12  1  0  0  0  0
 14 15  1  0  0  0  0
 15  9  1  0  0  0  0
 16 15  2  0  0  0  0
 19 14  1  0  0  0  0
 20 30  1  0  0  0  0
 20 25  1  0  0  0  0
 21 20  2  0  0  0  0
 22 21  1  0  0  0  0
 22 23  2  0  0  0  0
 23 24  1  0  0  0  0
 24 25  2  0  0  0  0
 24 28  1  0  0  0  0
 25 29  1  0  0  0  0
 26 22  1  0  0  0  0
 27 23  1  0  0  0  0
 30 31  2  0  0  0  0
 32 30  2  0  0  0  0
 33 34  1  0  0  0  0
 33 30  1  0  0  0  0
M  END
>  <minimizedAffinity>
-5.8602643

>  <minimizedRMSD>
0.0933239758

$$$$
