
 OpenBabel03212520163D

 25 26  0  0  0  0  0  0  0  0999 V2000
   39.4660   73.0710   61.2430 Cl  0  0  0  0  0  0  0  0  0  0  0  0
   41.0520   73.5380   60.6630 C   0  0  0  0  0  0  0  0  0  0  0  0
   42.1670   72.7230   60.7610 C   0  0  0  0  0  0  0  0  0  0  0  0
   43.3380   73.2450   60.2530 C   0  0  0  0  0  0  0  0  0  0  0  0
   43.5140   74.4760   59.6660 C   0  0  0  0  0  0  0  0  0  0  0  0
   42.3920   75.2510   59.5880 C   0  0  0  0  0  0  0  0  0  0  0  0
   42.4550   76.8550   58.8620 Cl  0  0  0  0  0  0  0  0  0  0  0  0
   41.1780   74.7840   60.0830 C   0  0  0  0  0  0  0  0  0  0  0  0
   44.2250   72.5970   60.3300 H   0  0  0  0  0  0  0  0  0  0  0  0
   44.4650   74.7980   59.2980 H   0  0  0  0  0  0  0  0  0  0  0  0
   42.0250   71.1400   62.7430 C   0  0  0  0  0  0  0  0  0  0  0  0
   42.0300   71.4410   61.3630 C   0  0  0  0  0  0  0  0  0  0  0  0
   41.8870   70.3810   60.4860 C   0  0  0  0  0  0  0  0  0  0  0  0
   41.7530   69.1350   61.0240 N   0  0  0  0  0  0  0  0  0  0  0  0
   41.7520   68.8830   62.3350 C   0  0  0  0  0  0  0  0  0  0  0  0
   41.8900   69.9010   63.2100 N   0  0  0  0  0  0  0  0  0  0  0  0
   42.1400   72.0040   63.3850 H   0  0  0  0  0  0  0  0  0  0  0  0
   41.8750   70.4800   59.4100 H   0  0  0  0  0  0  0  0  0  0  0  0
   41.5930   67.4540   62.7090 C   0  0  0  0  0  0  0  0  0  0  0  0
   40.4840   67.2330   63.4850 F   0  0  0  0  0  0  0  0  0  0  0  0
   41.5030   66.6700   61.5670 F   0  0  0  0  0  0  0  0  0  0  0  0
   42.6800   67.0230   63.4850 F   0  0  0  0  0  0  0  0  0  0  0  0
   40.0630   75.6220   59.9770 O   0  0  0  0  0  0  0  0  0  0  0  0
   39.6570   76.5310   60.9630 C   0  0  0  0  0  2  0  0  0  0  0  0
   39.7340   76.0680   61.9650 H   0  0  0  0  0  0  0  0  0  0  0  0
  2  3  1  0  0  0  0
  2  1  1  0  0  0  0
  3 12  1  0  0  0  0
  4  9  1  0  0  0  0
  4  3  2  0  0  0  0
  5  4  1  0  0  0  0
  6  5  2  0  0  0  0
  6  8  1  0  0  0  0
  7  6  1  0  0  0  0
  8  2  2  0  0  0  0
 10  5  1  0  0  0  0
 11 16  1  0  0  0  0
 11 17  1  0  0  0  0
 12 11  2  0  0  0  0
 13 14  2  0  0  0  0
 13 12  1  0  0  0  0
 14 15  1  0  0  0  0
 15 19  1  0  0  0  0
 15 16  2  0  0  0  0
 18 13  1  0  0  0  0
 19 20  1  0  0  0  0
 19 22  1  0  0  0  0
 21 19  1  0  0  0  0
 23  8  1  0  0  0  0
 23 24  1  0  0  0  0
 24 25  1  0  0  0  0
M  END
>  <minimizedAffinity>
-5.21812201

$$$$

 OpenBabel03212520163D

 25 26  0  0  0  0  0  0  0  0999 V2000
   41.4790   70.2890   58.8640 Cl  0  0  0  0  0  0  0  0  0  0  0  0
   42.0830   70.0400   60.4900 C   0  0  0  0  0  0  0  0  0  0  0  0
   42.0790   71.0260   61.4620 C   0  0  0  0  0  0  0  0  0  0  0  0
   42.5920   70.6600   62.6890 C   0  0  0  0  0  0  0  0  0  0  0  0
   43.1000   69.4330   63.0460 C   0  0  0  0  0  0  0  0  0  0  0  0
   43.0870   68.4880   62.0610 C   0  0  0  0  0  0  0  0  0  0  0  0
   43.7050   66.8650   62.3630 Cl  0  0  0  0  0  0  0  0  0  0  0  0
   42.5840   68.7920   60.7990 C   0  0  0  0  0  0  0  0  0  0  0  0
   42.5880   71.4440   63.4620 H   0  0  0  0  0  0  0  0  0  0  0  0
   43.4770   69.2400   64.0270 H   0  0  0  0  0  0  0  0  0  0  0  0
   42.1870   73.3100   60.3540 C   0  0  0  0  0  0  0  0  0  0  0  0
   41.5630   72.3110   61.1340 C   0  0  0  0  0  0  0  0  0  0  0  0
   40.3100   72.5990   61.6440 C   0  0  0  0  0  0  0  0  0  0  0  0
   39.7800   73.8220   61.3520 N   0  0  0  0  0  0  0  0  0  0  0  0
   40.3960   74.7450   60.6120 C   0  0  0  0  0  0  0  0  0  0  0  0
   41.6190   74.4870   60.1040 N   0  0  0  0  0  0  0  0  0  0  0  0
   43.1640   73.0330   59.9810 H   0  0  0  0  0  0  0  0  0  0  0  0
   39.7310   71.9200   62.2530 H   0  0  0  0  0  0  0  0  0  0  0  0
   39.6420   76.0110   60.4160 C   0  0  0  0  0  0  0  0  0  0  0  0
   40.4470   77.0450   60.0130 F   0  0  0  0  0  0  0  0  0  0  0  0
   38.6420   75.8290   59.4710 F   0  0  0  0  0  0  0  0  0  0  0  0
   39.0690   76.4360   61.6240 F   0  0  0  0  0  0  0  0  0  0  0  0
   42.5980   67.7840   59.8300 O   0  0  0  0  0  0  0  0  0  0  0  0
   41.5650   66.8570   59.6320 C   0  0  0  0  0  2  0  0  0  0  0  0
   41.1900   66.4900   60.6060 H   0  0  0  0  0  0  0  0  0  0  0  0
  1  2  1  0  0  0  0
  2  8  2  0  0  0  0
  2  3  1  0  0  0  0
  3  4  2  0  0  0  0
  4  5  1  0  0  0  0
  4  9  1  0  0  0  0
  5 10  1  0  0  0  0
  6  7  1  0  0  0  0
  6  5  2  0  0  0  0
  8  6  1  0  0  0  0
 11 12  1  0  0  0  0
 12  3  1  0  0  0  0
 12 13  2  0  0  0  0
 13 18  1  0  0  0  0
 14 13  1  0  0  0  0
 15 14  2  0  0  0  0
 16 11  2  0  0  0  0
 16 15  1  0  0  0  0
 17 11  1  0  0  0  0
 19 15  1  0  0  0  0
 19 22  1  0  0  0  0
 20 19  1  0  0  0  0
 21 19  1  0  0  0  0
 23  8  1  0  0  0  0
 24 23  1  0  0  0  0
 24 25  1  0  0  0  0
M  END
>  <minimizedAffinity>
-5.19095707

$$$$

 OpenBabel03212520163D

 25 26  0  0  0  0  0  0  0  0999 V2000
   41.3150   70.6050   58.8170 Cl  0  0  0  0  0  0  0  0  0  0  0  0
   41.8990   70.3750   60.4530 C   0  0  0  0  0  0  0  0  0  0  0  0
   41.8330   71.3550   61.4290 C   0  0  0  0  0  0  0  0  0  0  0  0
   42.3370   71.0060   62.6640 C   0  0  0  0  0  0  0  0  0  0  0  0
   42.8930   69.8010   63.0260 C   0  0  0  0  0  0  0  0  0  0  0  0
   42.9410   68.8610   62.0370 C   0  0  0  0  0  0  0  0  0  0  0  0
   43.6240   67.2660   62.3440 Cl  0  0  0  0  0  0  0  0  0  0  0  0
   42.4490   69.1490   60.7670 C   0  0  0  0  0  0  0  0  0  0  0  0
   42.2850   71.7850   63.4410 H   0  0  0  0  0  0  0  0  0  0  0  0
   43.2590   69.6200   64.0130 H   0  0  0  0  0  0  0  0  0  0  0  0
   39.9590   73.0700   61.3840 C   0  0  0  0  0  0  0  0  0  0  0  0
   41.2660   72.6170   61.0970 C   0  0  0  0  0  0  0  0  0  0  0  0
   42.0990   73.4860   60.4150 C   0  0  0  0  0  0  0  0  0  0  0  0
   41.5930   74.7060   60.0780 N   0  0  0  0  0  0  0  0  0  0  0  0
   40.3520   75.1060   60.3650 C   0  0  0  0  0  0  0  0  0  0  0  0
   39.5210   74.2750   61.0290 N   0  0  0  0  0  0  0  0  0  0  0  0
   39.3490   72.3530   61.9180 H   0  0  0  0  0  0  0  0  0  0  0  0
   43.1180   73.2580   60.1380 H   0  0  0  0  0  0  0  0  0  0  0  0
   40.0010   76.4750   59.9060 C   0  0  0  0  0  0  0  0  0  0  0  0
   38.7950   76.5180   59.2550 F   0  0  0  0  0  0  0  0  0  0  0  0
   39.9570   77.3430   60.9870 F   0  0  0  0  0  0  0  0  0  0  0  0
   40.9420   76.9390   58.9740 F   0  0  0  0  0  0  0  0  0  0  0  0
   42.5260   68.1470   59.7940 O   0  0  0  0  0  0  0  0  0  0  0  0
   41.5290   67.1900   59.5580 C   0  0  0  0  0  2  0  0  0  0  0  0
   41.1340   66.8060   60.5170 H   0  0  0  0  0  0  0  0  0  0  0  0
  1  2  1  0  0  0  0
  2  8  2  0  0  0  0
  2  3  1  0  0  0  0
  3  4  2  0  0  0  0
  4  5  1  0  0  0  0
  4  9  1  0  0  0  0
  5 10  1  0  0  0  0
  6  7  1  0  0  0  0
  6  5  2  0  0  0  0
  8  6  1  0  0  0  0
 11 17  1  0  0  0  0
 12 11  1  0  0  0  0
 12  3  1  0  0  0  0
 13 12  2  0  0  0  0
 14 15  2  0  0  0  0
 14 13  1  0  0  0  0
 15 16  1  0  0  0  0
 16 11  2  0  0  0  0
 18 13  1  0  0  0  0
 19 15  1  0  0  0  0
 19 21  1  0  0  0  0
 20 19  1  0  0  0  0
 22 19  1  0  0  0  0
 23  8  1  0  0  0  0
 24 23  1  0  0  0  0
 24 25  1  0  0  0  0
M  END
>  <minimizedAffinity>
-5.09632301

$$$$

 OpenBabel03212520163D

 25 26  0  0  0  0  0  0  0  0999 V2000
   43.3580   73.6360   59.8540 Cl  0  0  0  0  0  0  0  0  0  0  0  0
   41.6430   73.8740   60.1190 C   0  0  0  0  0  0  0  0  0  0  0  0
   40.8570   72.9930   60.8420 C   0  0  0  0  0  0  0  0  0  0  0  0
   39.5250   73.3330   60.9550 C   0  0  0  0  0  0  0  0  0  0  0  0
   38.9010   74.4410   60.4310 C   0  0  0  0  0  0  0  0  0  0  0  0
   39.7090   75.2850   59.7240 C   0  0  0  0  0  0  0  0  0  0  0  0
   39.0590   76.7490   58.9900 Cl  0  0  0  0  0  0  0  0  0  0  0  0
   41.0630   75.0000   59.5720 C   0  0  0  0  0  0  0  0  0  0  0  0
   38.8990   72.6330   61.5310 H   0  0  0  0  0  0  0  0  0  0  0  0
   37.8580   74.6230   60.5710 H   0  0  0  0  0  0  0  0  0  0  0  0
   41.8460   71.6320   62.7460 C   0  0  0  0  0  0  0  0  0  0  0  0
   41.4610   71.8330   61.4010 C   0  0  0  0  0  0  0  0  0  0  0  0
   41.6930   70.7950   60.5170 C   0  0  0  0  0  0  0  0  0  0  0  0
   42.2720   69.6650   61.0150 N   0  0  0  0  0  0  0  0  0  0  0  0
   42.6240   69.5060   62.2920 C   0  0  0  0  0  0  0  0  0  0  0  0
   42.4080   70.5050   63.1730 N   0  0  0  0  0  0  0  0  0  0  0  0
   41.6430   72.4750   63.3950 H   0  0  0  0  0  0  0  0  0  0  0  0
   41.4440   70.8250   59.4660 H   0  0  0  0  0  0  0  0  0  0  0  0
   43.2420   68.1950   62.6250 C   0  0  0  0  0  0  0  0  0  0  0  0
   42.3810   67.3630   63.2930 F   0  0  0  0  0  0  0  0  0  0  0  0
   43.6660   67.5610   61.4660 F   0  0  0  0  0  0  0  0  0  0  0  0
   44.3340   68.3700   63.4870 F   0  0  0  0  0  0  0  0  0  0  0  0
   41.8410   75.9000   58.8360 O   0  0  0  0  0  0  0  0  0  0  0  0
   42.4330   77.0560   59.3640 C   0  0  0  0  0  2  0  0  0  0  0  0
   41.7240   77.5740   60.0370 H   0  0  0  0  0  0  0  0  0  0  0  0
  1  2  1  0  0  0  0
  2  3  1  0  0  0  0
  3  4  2  0  0  0  0
  3 12  1  0  0  0  0
  4  9  1  0  0  0  0
  5 10  1  0  0  0  0
  5  4  1  0  0  0  0
  6  5  2  0  0  0  0
  7  6  1  0  0  0  0
  8  6  1  0  0  0  0
  8  2  2  0  0  0  0
 11 16  1  0  0  0  0
 11 17  1  0  0  0  0
 12 11  2  0  0  0  0
 13 14  2  0  0  0  0
 13 12  1  0  0  0  0
 14 15  1  0  0  0  0
 15 19  1  0  0  0  0
 15 16  2  0  0  0  0
 18 13  1  0  0  0  0
 19 20  1  0  0  0  0
 19 22  1  0  0  0  0
 21 19  1  0  0  0  0
 23 24  1  0  0  0  0
 23  8  1  0  0  0  0
 24 25  1  0  0  0  0
M  END
>  <minimizedAffinity>
-5.06947279

$$$$

 OpenBabel03212520163D

 25 26  0  0  0  0  0  0  0  0999 V2000
   42.0850   70.2620   58.9190 Cl  0  0  0  0  0  0  0  0  0  0  0  0
   42.0650   70.2370   60.6700 C   0  0  0  0  0  0  0  0  0  0  0  0
   42.1610   71.3790   61.4480 C   0  0  0  0  0  0  0  0  0  0  0  0
   42.1280   71.1790   62.8120 C   0  0  0  0  0  0  0  0  0  0  0  0
   42.0120   69.9800   63.4750 C   0  0  0  0  0  0  0  0  0  0  0  0
   41.9200   68.8780   62.6740 C   0  0  0  0  0  0  0  0  0  0  0  0
   41.7660   67.2680   63.3750 Cl  0  0  0  0  0  0  0  0  0  0  0  0
   41.9480   69.0090   61.2890 C   0  0  0  0  0  0  0  0  0  0  0  0
   42.2040   72.0870   63.4310 H   0  0  0  0  0  0  0  0  0  0  0  0
   41.9940   69.9220   64.5420 H   0  0  0  0  0  0  0  0  0  0  0  0
   43.4750   73.2730   60.3810 C   0  0  0  0  0  0  0  0  0  0  0  0
   42.2840   72.6400   60.8020 C   0  0  0  0  0  0  0  0  0  0  0  0
   41.0970   73.3110   60.5690 C   0  0  0  0  0  0  0  0  0  0  0  0
   41.1730   74.5250   59.9520 N   0  0  0  0  0  0  0  0  0  0  0  0
   42.3150   75.0970   59.5650 C   0  0  0  0  0  0  0  0  0  0  0  0
   43.4860   74.4610   59.7820 N   0  0  0  0  0  0  0  0  0  0  0  0
   44.3740   72.7070   60.5870 H   0  0  0  0  0  0  0  0  0  0  0  0
   40.1220   72.9340   60.8430 H   0  0  0  0  0  0  0  0  0  0  0  0
   42.1740   76.4230   58.9110 C   0  0  0  0  0  0  0  0  0  0  0  0
   42.8360   76.4920   57.7120 F   0  0  0  0  0  0  0  0  0  0  0  0
   40.8330   76.7090   58.6980 F   0  0  0  0  0  0  0  0  0  0  0  0
   42.7440   77.4290   59.7070 F   0  0  0  0  0  0  0  0  0  0  0  0
   41.8520   67.8450   60.5200 O   0  0  0  0  0  0  0  0  0  0  0  0
   42.9490   67.0850   60.0890 C   0  0  0  0  0  2  0  0  0  0  0  0
   43.7580   67.7510   59.7350 H   0  0  0  0  0  0  0  0  0  0  0  0
  1  2  1  0  0  0  0
  2  8  2  0  0  0  0
  2  3  1  0  0  0  0
  3  4  2  0  0  0  0
  4  9  1  0  0  0  0
  4  5  1  0  0  0  0
  5 10  1  0  0  0  0
  6  7  1  0  0  0  0
  6  5  2  0  0  0  0
  8  6  1  0  0  0  0
 11 17  1  0  0  0  0
 11 12  1  0  0  0  0
 12  3  1  0  0  0  0
 13 12  2  0  0  0  0
 13 18  1  0  0  0  0
 14 13  1  0  0  0  0
 15 16  1  0  0  0  0
 15 14  2  0  0  0  0
 16 11  2  0  0  0  0
 19 15  1  0  0  0  0
 19 22  1  0  0  0  0
 20 19  1  0  0  0  0
 21 19  1  0  0  0  0
 23  8  1  0  0  0  0
 24 23  1  0  0  0  0
 25 24  1  0  0  0  0
M  END
>  <minimizedAffinity>
-4.99978685

$$$$

 OpenBabel03212520163D

 25 26  0  0  0  0  0  0  0  0999 V2000
   42.1480   71.5120   62.6930 Cl  0  0  0  0  0  0  0  0  0  0  0  0
   41.8900   70.6500   61.1900 C   0  0  0  0  0  0  0  0  0  0  0  0
   41.5000   71.2710   60.0150 C   0  0  0  0  0  0  0  0  0  0  0  0
   41.3430   70.4430   58.9230 C   0  0  0  0  0  0  0  0  0  0  0  0
   41.5320   69.0820   58.8770 C   0  0  0  0  0  0  0  0  0  0  0  0
   41.9160   68.5060   60.0550 C   0  0  0  0  0  0  0  0  0  0  0  0
   42.1980   66.7700   60.1570 Cl  0  0  0  0  0  0  0  0  0  0  0  0
   42.0910   69.2850   61.1950 C   0  0  0  0  0  0  0  0  0  0  0  0
   41.0340   70.9360   57.9880 H   0  0  0  0  0  0  0  0  0  0  0  0
   41.3870   68.5200   57.9800 H   0  0  0  0  0  0  0  0  0  0  0  0
   42.2360   73.6830   59.7050 C   0  0  0  0  0  0  0  0  0  0  0  0
   41.2930   72.6780   60.0180 C   0  0  0  0  0  0  0  0  0  0  0  0
   40.0220   73.0950   60.3720 C   0  0  0  0  0  0  0  0  0  0  0  0
   39.7830   74.4370   60.3870 N   0  0  0  0  0  0  0  0  0  0  0  0
   40.6960   75.3620   60.0850 C   0  0  0  0  0  0  0  0  0  0  0  0
   41.9430   74.9800   59.7380 N   0  0  0  0  0  0  0  0  0  0  0  0
   43.2130   73.3030   59.4360 H   0  0  0  0  0  0  0  0  0  0  0  0
   39.2140   72.4260   60.6320 H   0  0  0  0  0  0  0  0  0  0  0  0
   40.2280   76.7700   60.1650 C   0  0  0  0  0  0  0  0  0  0  0  0
   39.8400   77.1240   61.4320 F   0  0  0  0  0  0  0  0  0  0  0  0
   41.2330   77.6310   59.7490 F   0  0  0  0  0  0  0  0  0  0  0  0
   39.0920   76.9590   59.3640 F   0  0  0  0  0  0  0  0  0  0  0  0
   42.4840   68.6400   62.3720 O   0  0  0  0  0  0  0  0  0  0  0  0
   41.5980   68.1120   63.3220 C   0  0  0  0  0  2  0  0  0  0  0  0
   40.7580   68.8130   63.4920 H   0  0  0  0  0  0  0  0  0  0  0  0
  2  8  1  0  0  0  0
  2  1  1  0  0  0  0
  3 12  1  0  0  0  0
  3  2  2  0  0  0  0
  4  3  1  0  0  0  0
  5  4  2  0  0  0  0
  5  6  1  0  0  0  0
  6  7  1  0  0  0  0
  6  8  2  0  0  0  0
  8 23  1  0  0  0  0
  9  4  1  0  0  0  0
 10  5  1  0  0  0  0
 11 16  2  0  0  0  0
 11 12  1  0  0  0  0
 12 13  2  0  0  0  0
 13 14  1  0  0  0  0
 13 18  1  0  0  0  0
 15 19  1  0  0  0  0
 15 14  2  0  0  0  0
 16 15  1  0  0  0  0
 17 11  1  0  0  0  0
 19 20  1  0  0  0  0
 21 19  1  0  0  0  0
 22 19  1  0  0  0  0
 23 24  1  0  0  0  0
 24 25  1  0  0  0  0
M  END
>  <minimizedAffinity>
-4.99736834

$$$$

 OpenBabel03212520163D

 25 26  0  0  0  0  0  0  0  0999 V2000
   36.7930   76.6540   55.6520 Cl  0  0  0  0  0  0  0  0  0  0  0  0
   37.8710   75.5440   54.8310 C   0  0  0  0  0  0  0  0  0  0  0  0
   38.7620   74.7180   55.4960 C   0  0  0  0  0  0  0  0  0  0  0  0
   39.5370   73.9050   54.6960 C   0  0  0  0  0  0  0  0  0  0  0  0
   39.5190   73.8270   53.3230 C   0  0  0  0  0  0  0  0  0  0  0  0
   38.6280   74.6560   52.7040 C   0  0  0  0  0  0  0  0  0  0  0  0
   38.4860   74.6730   50.9470 Cl  0  0  0  0  0  0  0  0  0  0  0  0
   37.8170   75.5030   53.4530 C   0  0  0  0  0  0  0  0  0  0  0  0
   40.2460   73.2480   55.2240 H   0  0  0  0  0  0  0  0  0  0  0  0
   40.1600   73.1620   52.7850 H   0  0  0  0  0  0  0  0  0  0  0  0
   38.0340   74.0210   57.8280 C   0  0  0  0  0  0  0  0  0  0  0  0
   38.8140   74.7670   56.9170 C   0  0  0  0  0  0  0  0  0  0  0  0
   39.7360   75.6500   57.4510 C   0  0  0  0  0  0  0  0  0  0  0  0
   39.8160   75.7260   58.8100 N   0  0  0  0  0  0  0  0  0  0  0  0
   39.0640   75.0070   59.6450 C   0  0  0  0  0  0  0  0  0  0  0  0
   38.1580   74.1390   59.1470 N   0  0  0  0  0  0  0  0  0  0  0  0
   37.3300   73.3470   57.3580 H   0  0  0  0  0  0  0  0  0  0  0  0
   40.3910   76.2750   56.8610 H   0  0  0  0  0  0  0  0  0  0  0  0
   39.3110   75.2440   61.0910 C   0  0  0  0  0  0  0  0  0  0  0  0
   40.0570   74.2490   61.6680 F   0  0  0  0  0  0  0  0  0  0  0  0
   39.9650   76.4540   61.2700 F   0  0  0  0  0  0  0  0  0  0  0  0
   38.1010   75.2590   61.8020 F   0  0  0  0  0  0  0  0  0  0  0  0
   36.9240   76.3310   52.7640 O   0  0  0  0  0  0  0  0  0  0  0  0
   37.2160   77.6350   52.3400 C   0  0  0  0  0  2  0  0  0  0  0  0
   37.7610   78.1810   53.1330 H   0  0  0  0  0  0  0  0  0  0  0  0
  2  3  1  0  0  0  0
  2  1  1  0  0  0  0
  3 12  1  0  0  0  0
  4  9  1  0  0  0  0
  4  3  2  0  0  0  0
  5  4  1  0  0  0  0
  6  5  2  0  0  0  0
  6  8  1  0  0  0  0
  7  6  1  0  0  0  0
  8  2  2  0  0  0  0
 10  5  1  0  0  0  0
 11 16  1  0  0  0  0
 12 13  1  0  0  0  0
 12 11  2  0  0  0  0
 13 14  2  0  0  0  0
 14 15  1  0  0  0  0
 15 19  1  0  0  0  0
 16 15  2  0  0  0  0
 17 11  1  0  0  0  0
 18 13  1  0  0  0  0
 19 21  1  0  0  0  0
 19 20  1  0  0  0  0
 19 22  1  0  0  0  0
 23  8  1  0  0  0  0
 24 23  1  0  0  0  0
 24 25  1  0  0  0  0
M  END
>  <minimizedAffinity>
-4.83784819

$$$$

 OpenBabel03212520163D

 25 26  0  0  0  0  0  0  0  0999 V2000
   41.6530   70.8440   58.5560 Cl  0  0  0  0  0  0  0  0  0  0  0  0
   41.7280   70.9380   60.3040 C   0  0  0  0  0  0  0  0  0  0  0  0
   41.3840   72.0730   61.0200 C   0  0  0  0  0  0  0  0  0  0  0  0
   41.5010   71.9740   62.3900 C   0  0  0  0  0  0  0  0  0  0  0  0
   41.9160   70.8820   63.1140 C   0  0  0  0  0  0  0  0  0  0  0  0
   42.2470   69.7830   62.3730 C   0  0  0  0  0  0  0  0  0  0  0  0
   42.7990   68.3040   63.1560 Cl  0  0  0  0  0  0  0  0  0  0  0  0
   42.1530   69.8160   60.9850 C   0  0  0  0  0  0  0  0  0  0  0  0
   41.2270   72.8760   62.9600 H   0  0  0  0  0  0  0  0  0  0  0  0
   41.9750   70.8980   64.1810 H   0  0  0  0  0  0  0  0  0  0  0  0
   41.7570   74.1940   59.6730 C   0  0  0  0  0  0  0  0  0  0  0  0
   40.9490   73.2260   60.3100 C   0  0  0  0  0  0  0  0  0  0  0  0
   39.5790   73.4080   60.2460 C   0  0  0  0  0  0  0  0  0  0  0  0
   39.1220   74.5030   59.5750 N   0  0  0  0  0  0  0  0  0  0  0  0
   39.9130   75.4000   58.9820 C   0  0  0  0  0  0  0  0  0  0  0  0
   41.2520   75.2440   59.0310 N   0  0  0  0  0  0  0  0  0  0  0  0
   42.8200   74.0040   59.7530 H   0  0  0  0  0  0  0  0  0  0  0  0
   38.8560   72.7390   60.6920 H   0  0  0  0  0  0  0  0  0  0  0  0
   39.2090   76.5200   58.3040 C   0  0  0  0  0  0  0  0  0  0  0  0
   39.8840   76.9740   57.2000 F   0  0  0  0  0  0  0  0  0  0  0  0
   37.9380   76.1200   57.9170 F   0  0  0  0  0  0  0  0  0  0  0  0
   39.1090   77.6280   59.1590 F   0  0  0  0  0  0  0  0  0  0  0  0
   42.5060   68.6610   60.2790 O   0  0  0  0  0  0  0  0  0  0  0  0
   43.7930   68.3900   59.7930 C   0  0  0  0  0  2  0  0  0  0  0  0
   44.2320   69.3010   59.3450 H   0  0  0  0  0  0  0  0  0  0  0  0
  1  2  1  0  0  0  0
  2  8  2  0  0  0  0
  2  3  1  0  0  0  0
  3  4  2  0  0  0  0
  4  9  1  0  0  0  0
  4  5  1  0  0  0  0
  5 10  1  0  0  0  0
  6  5  2  0  0  0  0
  6  7  1  0  0  0  0
  8  6  1  0  0  0  0
 11 17  1  0  0  0  0
 11 12  1  0  0  0  0
 12  3  1  0  0  0  0
 13 12  2  0  0  0  0
 13 18  1  0  0  0  0
 14 13  1  0  0  0  0
 15 16  1  0  0  0  0
 15 14  2  0  0  0  0
 16 11  2  0  0  0  0
 19 15  1  0  0  0  0
 19 22  1  0  0  0  0
 20 19  1  0  0  0  0
 21 19  1  0  0  0  0
 23  8  1  0  0  0  0
 24 23  1  0  0  0  0
 25 24  1  0  0  0  0
M  END
>  <minimizedAffinity>
-4.80168915

$$$$

 OpenBabel03212520163D

 25 26  0  0  0  0  0  0  0  0999 V2000
   41.3830   68.9190   63.0640 Cl  0  0  0  0  0  0  0  0  0  0  0  0
   42.7050   68.9810   61.9160 C   0  0  0  0  0  0  0  0  0  0  0  0
   42.9450   70.0670   61.0910 C   0  0  0  0  0  0  0  0  0  0  0  0
   44.0290   69.9490   60.2470 C   0  0  0  0  0  0  0  0  0  0  0  0
   44.8880   68.8810   60.1390 C   0  0  0  0  0  0  0  0  0  0  0  0
   44.6180   67.8300   60.9680 C   0  0  0  0  0  0  0  0  0  0  0  0
   45.6290   66.3860   60.9480 Cl  0  0  0  0  0  0  0  0  0  0  0  0
   43.5390   67.8830   61.8440 C   0  0  0  0  0  0  0  0  0  0  0  0
   44.2210   70.8130   59.5900 H   0  0  0  0  0  0  0  0  0  0  0  0
   45.7070   68.8790   59.4520 H   0  0  0  0  0  0  0  0  0  0  0  0
   41.9100   72.0660   62.2680 C   0  0  0  0  0  0  0  0  0  0  0  0
   42.0800   71.1930   61.1700 C   0  0  0  0  0  0  0  0  0  0  0  0
   41.3270   71.4490   60.0380 C   0  0  0  0  0  0  0  0  0  0  0  0
   40.4850   72.5210   60.0740 N   0  0  0  0  0  0  0  0  0  0  0  0
   40.3470   73.3280   61.1280 C   0  0  0  0  0  0  0  0  0  0  0  0
   41.0710   73.0980   62.2440 N   0  0  0  0  0  0  0  0  0  0  0  0
   42.5220   71.8210   63.1260 H   0  0  0  0  0  0  0  0  0  0  0  0
   41.3670   70.8570   59.1350 H   0  0  0  0  0  0  0  0  0  0  0  0
   39.3740   74.4380   60.9580 C   0  0  0  0  0  0  0  0  0  0  0  0
   38.1570   74.1630   61.5270 F   0  0  0  0  0  0  0  0  0  0  0  0
   39.8760   75.6030   61.5200 F   0  0  0  0  0  0  0  0  0  0  0  0
   39.1060   74.6550   59.5980 F   0  0  0  0  0  0  0  0  0  0  0  0
   43.3100   66.7760   62.6680 O   0  0  0  0  0  0  0  0  0  0  0  0
   42.4810   65.6960   62.3350 C   0  0  0  0  0  2  0  0  0  0  0  0
   41.5500   66.0610   61.8630 H   0  0  0  0  0  0  0  0  0  0  0  0
  2  1  1  0  0  0  0
  3 12  1  0  0  0  0
  3  2  2  0  0  0  0
  4  3  1  0  0  0  0
  5  4  2  0  0  0  0
  5  6  1  0  0  0  0
  6  8  2  0  0  0  0
  7  6  1  0  0  0  0
  8  2  1  0  0  0  0
  8 23  1  0  0  0  0
  9  4  1  0  0  0  0
 10  5  1  0  0  0  0
 11 17  1  0  0  0  0
 12 11  2  0  0  0  0
 13 14  2  0  0  0  0
 13 12  1  0  0  0  0
 14 15  1  0  0  0  0
 15 16  2  0  0  0  0
 16 11  1  0  0  0  0
 18 13  1  0  0  0  0
 19 15  1  0  0  0  0
 19 21  1  0  0  0  0
 19 20  1  0  0  0  0
 22 19  1  0  0  0  0
 24 23  1  0  0  0  0
 25 24  1  0  0  0  0
M  END
>  <minimizedAffinity>
-4.77817917

$$$$
