
 OpenBabel03212520393D

 20 21  0  0  1  0  0  0  0  0999 V2000
   42.8150   84.4700   60.8010 O   0  0  0  0  0  0  0  0  0  0  0  0
   40.0380   83.5410   62.9330 C   0  0  0  0  0  0  0  0  0  0  0  0
   40.5550   83.8030   64.2140 C   0  0  0  0  0  0  0  0  0  0  0  0
   41.8860   84.3060   64.2950 C   0  0  0  0  0  0  0  0  0  0  0  0
   42.5270   84.4850   63.1160 N   0  0  0  0  0  0  0  0  0  0  0  0
   42.0170   84.2290   61.8970 C   0  0  0  0  0  0  0  0  0  0  0  0
   40.7780   83.7580   61.8040 N   0  0  0  0  0  0  0  0  0  0  0  0
   39.0310   83.1590   62.8510 H   0  0  0  0  0  0  0  0  0  0  0  0
   40.0150   83.6480   65.1130 H   0  0  0  0  0  0  0  0  0  0  0  0
   42.3710   84.5390   65.2350 H   0  0  0  0  0  0  0  0  0  0  0  0
   42.4130   85.3920   59.7910 C   0  0  1  0  0  0  0  0  0  0  0  0
   43.4490   86.4870   59.5820 C   0  0  0  0  0  0  0  0  0  0  0  0
   43.1590   85.4220   58.5260 C   0  0  1  0  0  0  0  0  0  0  0  0
   41.3880   85.8300   59.9030 H   0  0  0  0  0  0  0  0  0  0  0  0
   43.1360   87.5200   59.3780 H   0  0  0  0  0  0  0  0  0  0  0  0
   44.4440   86.4010   60.0650 H   0  0  0  0  0  0  0  0  0  0  0  0
   42.6240   85.8060   57.6250 H   0  0  0  0  0  0  0  0  0  0  0  0
   44.1200   84.4320   58.3300 O   0  0  0  0  0  0  0  0  0  0  0  0
   43.7160   83.4340   57.4560 C   0  0  0  0  0  2  0  0  0  0  0  0
   44.2440   82.4970   57.7870 H   0  0  0  0  0  0  0  0  0  0  0  0
  1  6  1  0  0  0  0
  2  3  1  0  0  0  0
  3  4  2  0  0  0  0
  3  9  1  0  0  0  0
  4 10  1  0  0  0  0
  5  4  1  0  0  0  0
  6  5  2  0  0  0  0
  7  6  1  0  0  0  0
  7  2  2  0  0  0  0
  8  2  1  0  0  0  0
 11 14  1  6  0  0  0
 11  1  1  0  0  0  0
 12 11  1  0  0  0  0
 12 16  1  0  0  0  0
 13 17  1  6  0  0  0
 13 12  1  0  0  0  0
 13 11  1  0  0  0  0
 15 12  1  0  0  0  0
 18 13  1  0  0  0  0
 19 20  1  0  0  0  0
 19 18  1  0  0  0  0
M  END
>  <minimizedAffinity>
-3.32310224

>  <minimizedRMSD>
0.234147191

$$$$
