
 OpenBabel03212520413D

 20 21  0  0  1  0  0  0  0  0999 V2000
   40.6090   73.7970   61.6950 O   0  0  0  0  0  0  0  0  0  0  0  0
   43.0410   71.1740   61.1290 C   0  0  0  0  0  0  0  0  0  0  0  0
   42.8040   70.3180   62.2190 C   0  0  0  0  0  0  0  0  0  0  0  0
   41.7800   70.6920   63.1380 C   0  0  0  0  0  0  0  0  0  0  0  0
   41.1300   71.8480   62.8650 N   0  0  0  0  0  0  0  0  0  0  0  0
   41.3690   72.6560   61.8160 C   0  0  0  0  0  0  0  0  0  0  0  0
   42.3210   72.3230   60.9500 N   0  0  0  0  0  0  0  0  0  0  0  0
   43.8130   70.9080   60.4220 H   0  0  0  0  0  0  0  0  0  0  0  0
   43.3390   69.4200   62.3930 H   0  0  0  0  0  0  0  0  0  0  0  0
   41.5230   70.0990   64.0060 H   0  0  0  0  0  0  0  0  0  0  0  0
   39.6990   73.9600   60.6090 C   0  0  1  0  0  0  0  0  0  0  0  0
   38.2760   74.1920   61.0940 C   0  0  0  0  0  0  0  0  0  0  0  0
   39.0890   75.2790   60.3920 C   0  0  1  0  0  0  0  0  0  0  0  0
   39.7260   73.1650   59.8210 H   0  0  0  0  0  0  0  0  0  0  0  0
   37.4250   73.7520   60.5590 H   0  0  0  0  0  0  0  0  0  0  0  0
   38.0870   74.3790   62.1710 H   0  0  0  0  0  0  0  0  0  0  0  0
   38.7370   75.5160   59.3600 H   0  0  0  0  0  0  0  0  0  0  0  0
   39.5600   76.3340   61.1700 O   0  0  0  0  0  0  0  0  0  0  0  0
   40.2730   77.2790   60.4470 C   0  0  0  0  0  2  0  0  0  0  0  0
   40.5890   78.0650   61.1890 H   0  0  0  0  0  0  0  0  0  0  0  0
  1  6  1  0  0  0  0
  2  3  1  0  0  0  0
  3  9  1  0  0  0  0
  3  4  2  0  0  0  0
  4 10  1  0  0  0  0
  5  4  1  0  0  0  0
  6  5  2  0  0  0  0
  7  2  2  0  0  0  0
  7  6  1  0  0  0  0
  8  2  1  0  0  0  0
 11 14  1  6  0  0  0
 11 12  1  0  0  0  0
 11  1  1  0  0  0  0
 12 16  1  0  0  0  0
 13 17  1  6  0  0  0
 13 11  1  0  0  0  0
 13 12  1  0  0  0  0
 13 18  1  0  0  0  0
 15 12  1  0  0  0  0
 19 18  1  0  0  0  0
 19 20  1  0  0  0  0
M  END
>  <minimizedAffinity>
-3.81849623

$$$$

 OpenBabel03212520413D

 20 21  0  0  1  0  0  0  0  0999 V2000
   38.6410   75.0260   59.0060 O   0  0  0  0  0  0  0  0  0  0  0  0
   36.7730   75.7780   55.9950 C   0  0  0  0  0  0  0  0  0  0  0  0
   37.2540   77.0590   55.6680 C   0  0  0  0  0  0  0  0  0  0  0  0
   38.2360   77.6320   56.5270 C   0  0  0  0  0  0  0  0  0  0  0  0
   38.6130   76.8770   57.5860 N   0  0  0  0  0  0  0  0  0  0  0  0
   38.1430   75.6520   57.8850 C   0  0  0  0  0  0  0  0  0  0  0  0
   37.2270   75.1030   57.0940 N   0  0  0  0  0  0  0  0  0  0  0  0
   36.0290   75.3270   55.3560 H   0  0  0  0  0  0  0  0  0  0  0  0
   36.9290   77.6150   54.8260 H   0  0  0  0  0  0  0  0  0  0  0  0
   38.6660   78.6110   56.3580 H   0  0  0  0  0  0  0  0  0  0  0  0
   39.7860   75.5390   59.6830 C   0  0  1  0  0  0  0  0  0  0  0  0
   39.4140   76.1880   61.0090 C   0  0  0  0  0  0  0  0  0  0  0  0
   40.2170   74.8900   60.9290 C   0  0  1  0  0  0  0  0  0  0  0  0
   40.4520   76.2110   59.0850 H   0  0  0  0  0  0  0  0  0  0  0  0
   39.9270   77.0970   61.3490 H   0  0  0  0  0  0  0  0  0  0  0  0
   38.3850   76.0710   61.4080 H   0  0  0  0  0  0  0  0  0  0  0  0
   41.2900   74.9990   61.2190 H   0  0  0  0  0  0  0  0  0  0  0  0
   39.5700   73.7100   61.2900 O   0  0  0  0  0  0  0  0  0  0  0  0
   40.4380   72.7030   61.6860 C   0  0  0  0  0  2  0  0  0  0  0  0
   39.7910   71.8190   61.9460 H   0  0  0  0  0  0  0  0  0  0  0  0
  1 11  1  0  0  0  0
  2  7  1  0  0  0  0
  3  2  2  0  0  0  0
  3  4  1  0  0  0  0
  4  5  2  0  0  0  0
  5  6  1  0  0  0  0
  6  1  1  0  0  0  0
  7  6  2  0  0  0  0
  8  2  1  0  0  0  0
  9  3  1  0  0  0  0
 10  4  1  0  0  0  0
 11 14  1  6  0  0  0
 11 13  1  0  0  0  0
 11 12  1  0  0  0  0
 12 15  1  0  0  0  0
 12 16  1  0  0  0  0
 13 12  1  0  0  0  0
 13 17  1  1  0  0  0
 13 18  1  0  0  0  0
 18 19  1  0  0  0  0
 19 20  1  0  0  0  0
M  END
>  <minimizedAffinity>
-3.72658396

$$$$

 OpenBabel03212520413D

 20 21  0  0  1  0  0  0  0  0999 V2000
   38.9990   77.1990   58.4260 O   0  0  0  0  0  0  0  0  0  0  0  0
   37.0710   74.6940   56.6580 C   0  0  0  0  0  0  0  0  0  0  0  0
   36.6550   75.4010   55.5160 C   0  0  0  0  0  0  0  0  0  0  0  0
   37.0690   76.7590   55.3960 C   0  0  0  0  0  0  0  0  0  0  0  0
   37.8320   77.2390   56.4070 N   0  0  0  0  0  0  0  0  0  0  0  0
   38.2220   76.5490   57.4940 C   0  0  0  0  0  0  0  0  0  0  0  0
   37.8440   75.2810   57.6210 N   0  0  0  0  0  0  0  0  0  0  0  0
   36.7670   73.6630   56.7670 H   0  0  0  0  0  0  0  0  0  0  0  0
   36.0560   74.9830   54.7470 H   0  0  0  0  0  0  0  0  0  0  0  0
   36.8010   77.3850   54.5540 H   0  0  0  0  0  0  0  0  0  0  0  0
   40.2260   76.6330   58.8800 C   0  0  1  0  0  0  0  0  0  0  0  0
   40.8480   77.4550   59.9990 C   0  0  0  0  0  0  0  0  0  0  0  0
   40.2800   76.0550   60.2300 C   0  0  1  0  0  0  0  0  0  0  0  0
   40.9840   76.4000   58.0890 H   0  0  0  0  0  0  0  0  0  0  0  0
   41.9360   77.5900   60.0550 H   0  0  0  0  0  0  0  0  0  0  0  0
   40.2650   78.2740   60.4680 H   0  0  0  0  0  0  0  0  0  0  0  0
   41.0540   75.2750   60.4230 H   0  0  0  0  0  0  0  0  0  0  0  0
   39.0780   75.9560   60.9280 O   0  0  0  0  0  0  0  0  0  0  0  0
   38.6560   74.6490   61.1190 C   0  0  0  0  0  2  0  0  0  0  0  0
   37.6870   74.7140   61.6890 H   0  0  0  0  0  0  0  0  0  0  0  0
  1 11  1  0  0  0  0
  2  8  1  0  0  0  0
  2  7  1  0  0  0  0
  3  2  2  0  0  0  0
  4  3  1  0  0  0  0
  4  5  2  0  0  0  0
  5  6  1  0  0  0  0
  6  7  2  0  0  0  0
  6  1  1  0  0  0  0
  9  3  1  0  0  0  0
 10  4  1  0  0  0  0
 11 14  1  6  0  0  0
 11 12  1  0  0  0  0
 11 13  1  0  0  0  0
 12 15  1  0  0  0  0
 12 13  1  0  0  0  0
 12 16  1  0  0  0  0
 13 17  1  1  0  0  0
 13 18  1  0  0  0  0
 18 19  1  0  0  0  0
 19 20  1  0  0  0  0
M  END
>  <minimizedAffinity>
-3.68200254

$$$$

 OpenBabel03212520413D

 20 21  0  0  1  0  0  0  0  0999 V2000
   40.6560   73.5450   61.7060 O   0  0  0  0  0  0  0  0  0  0  0  0
   41.9460   70.5000   63.1810 C   0  0  0  0  0  0  0  0  0  0  0  0
   42.9080   70.1040   62.2350 C   0  0  0  0  0  0  0  0  0  0  0  0
   43.0790   70.9300   61.0870 C   0  0  0  0  0  0  0  0  0  0  0  0
   42.2890   72.0280   61.0210 N   0  0  0  0  0  0  0  0  0  0  0  0
   41.3730   72.3930   61.9360 C   0  0  0  0  0  0  0  0  0  0  0  0
   41.2010   71.6330   63.0130 N   0  0  0  0  0  0  0  0  0  0  0  0
   41.8020   69.8870   64.0590 H   0  0  0  0  0  0  0  0  0  0  0  0
   43.5060   69.2340   62.3280 H   0  0  0  0  0  0  0  0  0  0  0  0
   43.7940   70.7090   60.3040 H   0  0  0  0  0  0  0  0  0  0  0  0
   39.3060   73.4890   61.2510 C   0  0  1  0  0  0  0  0  0  0  0  0
   38.7120   74.8790   61.0710 C   0  0  0  0  0  0  0  0  0  0  0  0
   39.0000   73.9520   59.8900 C   0  0  1  0  0  0  0  0  0  0  0  0
   38.6140   72.8350   61.8400 H   0  0  0  0  0  0  0  0  0  0  0  0
   37.6640   75.0760   61.3330 H   0  0  0  0  0  0  0  0  0  0  0  0
   39.3710   75.7690   61.1310 H   0  0  0  0  0  0  0  0  0  0  0  0
   38.0860   73.5380   59.4020 H   0  0  0  0  0  0  0  0  0  0  0  0
   40.0790   74.2730   59.0690 O   0  0  0  0  0  0  0  0  0  0  0  0
   40.3770   73.2890   58.1380 C   0  0  0  0  0  2  0  0  0  0  0  0
   41.2560   73.6730   57.5490 H   0  0  0  0  0  0  0  0  0  0  0  0
  1  6  1  0  0  0  0
  2  8  1  0  0  0  0
  3  9  1  0  0  0  0
  3  2  2  0  0  0  0
  4  3  1  0  0  0  0
  5  4  2  0  0  0  0
  5  6  1  0  0  0  0
  6  7  2  0  0  0  0
  7  2  1  0  0  0  0
 10  4  1  0  0  0  0
 11  1  1  0  0  0  0
 11 14  1  1  0  0  0
 12 16  1  0  0  0  0
 12 11  1  0  0  0  0
 12 15  1  0  0  0  0
 13 17  1  6  0  0  0
 13 12  1  0  0  0  0
 13 11  1  0  0  0  0
 18 13  1  0  0  0  0
 19 18  1  0  0  0  0
 20 19  1  0  0  0  0
M  END
>  <minimizedAffinity>
-3.58434415

$$$$

 OpenBabel03212520413D

 20 21  0  0  1  0  0  0  0  0999 V2000
   38.3830   74.3040   59.0510 O   0  0  0  0  0  0  0  0  0  0  0  0
   38.3820   77.3140   57.0360 C   0  0  0  0  0  0  0  0  0  0  0  0
   37.4520   76.9910   56.0320 C   0  0  0  0  0  0  0  0  0  0  0  0
   36.8410   75.7050   56.0920 C   0  0  0  0  0  0  0  0  0  0  0  0
   37.2220   74.9130   57.1220 N   0  0  0  0  0  0  0  0  0  0  0  0
   38.1140   75.2370   58.0750 C   0  0  0  0  0  0  0  0  0  0  0  0
   38.6940   76.4330   58.0340 N   0  0  0  0  0  0  0  0  0  0  0  0
   38.8560   78.2840   57.0090 H   0  0  0  0  0  0  0  0  0  0  0  0
   37.1830   77.6450   55.2430 H   0  0  0  0  0  0  0  0  0  0  0  0
   36.1130   75.3650   55.3660 H   0  0  0  0  0  0  0  0  0  0  0  0
   38.7430   74.7070   60.3700 C   0  0  1  0  0  0  0  0  0  0  0  0
   39.1400   73.5200   61.2350 C   0  0  0  0  0  0  0  0  0  0  0  0
   40.1460   74.5790   60.7890 C   0  0  1  0  0  0  0  0  0  0  0  0
   38.0060   75.3600   60.9040 H   0  0  0  0  0  0  0  0  0  0  0  0
   38.8600   73.4830   62.2960 H   0  0  0  0  0  0  0  0  0  0  0  0
   39.2800   72.5230   60.7680 H   0  0  0  0  0  0  0  0  0  0  0  0
   40.4990   75.2480   61.6090 H   0  0  0  0  0  0  0  0  0  0  0  0
   41.0710   74.2170   59.8110 O   0  0  0  0  0  0  0  0  0  0  0  0
   41.8800   75.2650   59.4000 C   0  0  0  0  0  2  0  0  0  0  0  0
   42.5710   74.8390   58.6200 H   0  0  0  0  0  0  0  0  0  0  0  0
  1 11  1  0  0  0  0
  2  7  1  0  0  0  0
  3  4  1  0  0  0  0
  3  2  2  0  0  0  0
  4  5  2  0  0  0  0
  5  6  1  0  0  0  0
  6  1  1  0  0  0  0
  7  6  2  0  0  0  0
  8  2  1  0  0  0  0
  9  3  1  0  0  0  0
 10  4  1  0  0  0  0
 11 13  1  0  0  0  0
 11 14  1  1  0  0  0
 11 12  1  0  0  0  0
 12 15  1  0  0  0  0
 13 12  1  0  0  0  0
 13 17  1  1  0  0  0
 16 12  1  0  0  0  0
 18 13  1  0  0  0  0
 19 18  1  0  0  0  0
 20 19  1  0  0  0  0
M  END
>  <minimizedAffinity>
-3.56854224

$$$$

 OpenBabel03212520413D

 20 21  0  0  1  0  0  0  0  0999 V2000
   38.2080   76.4360   57.1170 O   0  0  0  0  0  0  0  0  0  0  0  0
   39.6290   76.3100   60.4460 C   0  0  0  0  0  0  0  0  0  0  0  0
   39.1990   75.0490   60.8970 C   0  0  0  0  0  0  0  0  0  0  0  0
   38.4100   74.2660   60.0060 C   0  0  0  0  0  0  0  0  0  0  0  0
   38.1500   74.8200   58.7990 N   0  0  0  0  0  0  0  0  0  0  0  0
   38.5690   76.0290   58.3820 C   0  0  0  0  0  0  0  0  0  0  0  0
   39.3060   76.7730   59.2010 N   0  0  0  0  0  0  0  0  0  0  0  0
   40.2280   76.9190   61.1070 H   0  0  0  0  0  0  0  0  0  0  0  0
   39.4280   74.6540   61.8540 H   0  0  0  0  0  0  0  0  0  0  0  0
   38.0330   73.2830   60.2620 H   0  0  0  0  0  0  0  0  0  0  0  0
   37.1000   75.8420   56.4450 C   0  0  1  0  0  0  0  0  0  0  0  0
   36.6800   76.6510   55.2260 C   0  0  0  0  0  0  0  0  0  0  0  0
   37.3120   75.2640   55.1100 C   0  0  1  0  0  0  0  0  0  0  0  0
   36.2140   75.5920   57.0810 H   0  0  0  0  0  0  0  0  0  0  0  0
   35.6180   76.7600   54.9680 H   0  0  0  0  0  0  0  0  0  0  0  0
   37.3220   77.4830   54.8710 H   0  0  0  0  0  0  0  0  0  0  0  0
   36.6060   74.4660   54.7790 H   0  0  0  0  0  0  0  0  0  0  0  0
   38.6250   75.1930   54.6480 O   0  0  0  0  0  0  0  0  0  0  0  0
   39.1840   73.9290   54.7640 C   0  0  0  0  0  2  0  0  0  0  0  0
   40.2310   74.0130   54.3590 H   0  0  0  0  0  0  0  0  0  0  0  0
  1  6  1  0  0  0  0
  2  3  1  0  0  0  0
  2  8  1  0  0  0  0
  3  9  1  0  0  0  0
  4 10  1  0  0  0  0
  4  3  2  0  0  0  0
  5  4  1  0  0  0  0
  6  5  2  0  0  0  0
  6  7  1  0  0  0  0
  7  2  2  0  0  0  0
 11 14  1  1  0  0  0
 11  1  1  0  0  0  0
 12 11  1  0  0  0  0
 13 17  1  6  0  0  0
 13 12  1  0  0  0  0
 13 11  1  0  0  0  0
 15 12  1  0  0  0  0
 16 12  1  0  0  0  0
 18 19  1  0  0  0  0
 18 13  1  0  0  0  0
 20 19  1  0  0  0  0
M  END
>  <minimizedAffinity>
-3.56010032

$$$$

 OpenBabel03212520413D

 20 21  0  0  1  0  0  0  0  0999 V2000
   40.2780   74.5150   59.7530 O   0  0  0  0  0  0  0  0  0  0  0  0
   40.9950   72.1150   62.3680 C   0  0  0  0  0  0  0  0  0  0  0  0
   42.3940   71.9970   62.2780 C   0  0  0  0  0  0  0  0  0  0  0  0
   43.0570   72.7750   61.2860 C   0  0  0  0  0  0  0  0  0  0  0  0
   42.2640   73.5610   60.5190 N   0  0  0  0  0  0  0  0  0  0  0  0
   40.9260   73.6630   60.6190 C   0  0  0  0  0  0  0  0  0  0  0  0
   40.2920   72.9430   61.5390 N   0  0  0  0  0  0  0  0  0  0  0  0
   40.4750   71.5330   63.1150 H   0  0  0  0  0  0  0  0  0  0  0  0
   42.9760   71.3670   62.9020 H   0  0  0  0  0  0  0  0  0  0  0  0
   44.1290   72.7530   61.1400 H   0  0  0  0  0  0  0  0  0  0  0  0
   39.7100   75.7380   60.2160 C   0  0  1  0  0  0  0  0  0  0  0  0
   40.6290   76.9220   59.9520 C   0  0  0  0  0  0  0  0  0  0  0  0
   39.2960   76.7420   59.2260 C   0  0  1  0  0  0  0  0  0  0  0  0
   39.3480   75.7430   61.2750 H   0  0  0  0  0  0  0  0  0  0  0  0
   40.7150   77.7350   60.6850 H   0  0  0  0  0  0  0  0  0  0  0  0
   41.5250   76.7900   59.3130 H   0  0  0  0  0  0  0  0  0  0  0  0
   38.5070   77.4690   59.5340 H   0  0  0  0  0  0  0  0  0  0  0  0
   39.3400   76.3700   57.8840 O   0  0  0  0  0  0  0  0  0  0  0  0
   38.0870   76.1860   57.3200 C   0  0  0  0  0  2  0  0  0  0  0  0
   38.2670   75.8920   56.2480 H   0  0  0  0  0  0  0  0  0  0  0  0
  1 11  1  0  0  0  0
  1  6  1  0  0  0  0
  2  8  1  0  0  0  0
  3  2  1  0  0  0  0
  3  9  1  0  0  0  0
  4  3  2  0  0  0  0
  5  6  2  0  0  0  0
  5  4  1  0  0  0  0
  6  7  1  0  0  0  0
  7  2  2  0  0  0  0
 10  4  1  0  0  0  0
 11 14  1  1  0  0  0
 12 11  1  0  0  0  0
 12 15  1  0  0  0  0
 13 17  1  1  0  0  0
 13 12  1  0  0  0  0
 13 11  1  0  0  0  0
 16 12  1  0  0  0  0
 18 13  1  0  0  0  0
 19 18  1  0  0  0  0
 20 19  1  0  0  0  0
M  END
>  <minimizedAffinity>
-3.49856997

$$$$

 OpenBabel03212520413D

 20 21  0  0  1  0  0  0  0  0999 V2000
   40.4130   72.5860   60.8220 O   0  0  0  0  0  0  0  0  0  0  0  0
   38.3760   74.5840   58.5910 C   0  0  0  0  0  0  0  0  0  0  0  0
   38.8300   75.8860   58.8720 C   0  0  0  0  0  0  0  0  0  0  0  0
   39.8540   76.0280   59.8530 C   0  0  0  0  0  0  0  0  0  0  0  0
   40.2940   74.8810   60.4230 N   0  0  0  0  0  0  0  0  0  0  0  0
   39.8500   73.6420   60.1420 C   0  0  0  0  0  0  0  0  0  0  0  0
   38.8940   73.4920   59.2300 N   0  0  0  0  0  0  0  0  0  0  0  0
   37.6000   74.4560   57.8510 H   0  0  0  0  0  0  0  0  0  0  0  0
   38.4550   76.7570   58.3990 H   0  0  0  0  0  0  0  0  0  0  0  0
   40.2680   76.9870   60.1370 H   0  0  0  0  0  0  0  0  0  0  0  0
   41.0060   72.7730   62.1050 C   0  0  1  0  0  0  0  0  0  0  0  0
   41.4910   71.4590   62.7000 C   0  0  0  0  0  0  0  0  0  0  0  0
   42.4520   72.5590   62.2510 C   0  0  1  0  0  0  0  0  0  0  0  0
   40.3970   73.3460   62.8500 H   0  0  0  0  0  0  0  0  0  0  0  0
   41.3920   71.2620   63.7750 H   0  0  0  0  0  0  0  0  0  0  0  0
   41.5090   70.5450   62.0710 H   0  0  0  0  0  0  0  0  0  0  0  0
   42.9660   73.0860   63.0900 H   0  0  0  0  0  0  0  0  0  0  0  0
   43.1840   72.3380   61.0860 O   0  0  0  0  0  0  0  0  0  0  0  0
   43.7350   73.4930   60.5520 C   0  0  0  0  0  2  0  0  0  0  0  0
   44.2920   73.1740   59.6270 H   0  0  0  0  0  0  0  0  0  0  0  0
  1 11  1  0  0  0  0
  2  3  2  0  0  0  0
  2  7  1  0  0  0  0
  3  4  1  0  0  0  0
  4 10  1  0  0  0  0
  4  5  2  0  0  0  0
  6  5  1  0  0  0  0
  6  1  1  0  0  0  0
  7  6  2  0  0  0  0
  8  2  1  0  0  0  0
  9  3  1  0  0  0  0
 11 13  1  0  0  0  0
 11 12  1  0  0  0  0
 11 14  1  1  0  0  0
 12 15  1  0  0  0  0
 13 12  1  0  0  0  0
 13 17  1  1  0  0  0
 16 12  1  0  0  0  0
 18 13  1  0  0  0  0
 19 18  1  0  0  0  0
 20 19  1  0  0  0  0
M  END
>  <minimizedAffinity>
-3.39349747

$$$$

 OpenBabel03212520413D

 20 21  0  0  1  0  0  0  0  0999 V2000
   40.3760   72.5580   61.0140 O   0  0  0  0  0  0  0  0  0  0  0  0
   39.6650   75.9590   59.9910 C   0  0  0  0  0  0  0  0  0  0  0  0
   38.7830   75.7590   58.9140 C   0  0  0  0  0  0  0  0  0  0  0  0
   38.4580   74.4150   58.5710 C   0  0  0  0  0  0  0  0  0  0  0  0
   39.0370   73.4520   59.3260 N   0  0  0  0  0  0  0  0  0  0  0  0
   39.8790   73.6600   60.3550 C   0  0  0  0  0  0  0  0  0  0  0  0
   40.1940   74.9080   60.6870 N   0  0  0  0  0  0  0  0  0  0  0  0
   39.9240   76.9710   60.2660 H   0  0  0  0  0  0  0  0  0  0  0  0
   38.3520   76.5460   58.3490 H   0  0  0  0  0  0  0  0  0  0  0  0
   37.7890   74.1600   57.7590 H   0  0  0  0  0  0  0  0  0  0  0  0
   41.1040   72.6990   62.2310 C   0  0  1  0  0  0  0  0  0  0  0  0
   41.6930   71.3750   62.6940 C   0  0  0  0  0  0  0  0  0  0  0  0
   42.5640   72.5310   62.2040 C   0  0  1  0  0  0  0  0  0  0  0  0
   40.5670   73.2100   63.0700 H   0  0  0  0  0  0  0  0  0  0  0  0
   41.7220   71.1190   63.7620 H   0  0  0  0  0  0  0  0  0  0  0  0
   41.6670   70.4960   62.0180 H   0  0  0  0  0  0  0  0  0  0  0  0
   43.1520   73.0320   63.0090 H   0  0  0  0  0  0  0  0  0  0  0  0
   43.1660   72.3970   60.9540 O   0  0  0  0  0  0  0  0  0  0  0  0
   43.7460   73.5690   60.4930 C   0  0  0  0  0  2  0  0  0  0  0  0
   44.1910   73.3230   59.4880 H   0  0  0  0  0  0  0  0  0  0  0  0
  1 11  1  0  0  0  0
  2  8  1  0  0  0  0
  2  7  1  0  0  0  0
  3  2  2  0  0  0  0
  4  3  1  0  0  0  0
  4  5  2  0  0  0  0
  5  6  1  0  0  0  0
  6  7  2  0  0  0  0
  6  1  1  0  0  0  0
  9  3  1  0  0  0  0
 10  4  1  0  0  0  0
 11 12  1  0  0  0  0
 11 14  1  1  0  0  0
 12 15  1  0  0  0  0
 13 11  1  0  0  0  0
 13 12  1  0  0  0  0
 13 17  1  1  0  0  0
 16 12  1  0  0  0  0
 18 13  1  0  0  0  0
 19 18  1  0  0  0  0
 20 19  1  0  0  0  0
M  END
>  <minimizedAffinity>
-3.35707521

$$$$
