
 OpenBabel03212520103D

 11 11  0  0  0  0  0  0  0  0999 V2000
   39.0700   76.3780   58.7570 C   0  0  0  0  0  0  0  0  0  0  0  0
   39.5710   76.4660   60.0810 C   0  0  0  0  0  0  0  0  0  0  0  0
   39.2850   75.4510   60.9930 C   0  0  0  0  0  0  0  0  0  0  0  0
   38.5200   74.4020   60.5480 N   0  0  0  0  0  0  0  0  0  0  0  0
   38.0630   74.3530   59.2860 C   0  0  0  0  0  0  0  0  0  0  0  0
   38.3200   75.3120   58.3870 N   0  0  0  0  0  0  0  0  0  0  0  0
   39.3210   77.1890   58.0970 H   0  0  0  0  0  0  0  0  0  0  0  0
   39.6690   75.5350   61.9760 H   0  0  0  0  0  0  0  0  0  0  0  0
   37.4570   73.4710   59.0250 H   0  0  0  0  0  0  0  0  0  0  0  0
   40.4030   77.6350   60.5140 C   0  0  0  0  0  2  0  0  0  0  0  0
   40.2650   78.4380   59.7620 H   0  0  0  0  0  0  0  0  0  0  0  0
  1  2  1  0  0  0  0
  2 10  1  0  0  0  0
  2  3  2  0  0  0  0
  3  8  1  0  0  0  0
  4  3  1  0  0  0  0
  5  4  2  0  0  0  0
  6  1  2  0  0  0  0
  6  5  1  0  0  0  0
  7  1  1  0  0  0  0
  9  5  1  0  0  0  0
 11 10  1  0  0  0  0
M  END
>  <minimizedAffinity>
-2.82755899

$$$$

 OpenBabel03212520103D

 11 11  0  0  0  0  0  0  0  0999 V2000
   39.0970   75.2730   60.8510 C   0  0  0  0  0  0  0  0  0  0  0  0
   39.4730   76.3700   60.0350 C   0  0  0  0  0  0  0  0  0  0  0  0
   39.0840   76.3960   58.6960 C   0  0  0  0  0  0  0  0  0  0  0  0
   38.3430   75.3370   58.2340 N   0  0  0  0  0  0  0  0  0  0  0  0
   38.0060   74.3140   59.0370 C   0  0  0  0  0  0  0  0  0  0  0  0
   38.3650   74.2590   60.3270 N   0  0  0  0  0  0  0  0  0  0  0  0
   39.4250   75.3050   61.8740 H   0  0  0  0  0  0  0  0  0  0  0  0
   39.3730   77.2260   58.1050 H   0  0  0  0  0  0  0  0  0  0  0  0
   37.4120   73.5110   58.5740 H   0  0  0  0  0  0  0  0  0  0  0  0
   40.2810   77.5020   60.5920 C   0  0  0  0  0  2  0  0  0  0  0  0
   40.7230   77.1560   61.5490 H   0  0  0  0  0  0  0  0  0  0  0  0
  1  7  1  0  0  0  0
  2 10  1  0  0  0  0
  2  1  2  0  0  0  0
  3  2  1  0  0  0  0
  4  3  2  0  0  0  0
  4  5  1  0  0  0  0
  5  6  2  0  0  0  0
  6  1  1  0  0  0  0
  8  3  1  0  0  0  0
  9  5  1  0  0  0  0
 10 11  1  0  0  0  0
M  END
>  <minimizedAffinity>
-2.81258416

$$$$

 OpenBabel03212520103D

 11 11  0  0  0  0  0  0  0  0999 V2000
   41.4120   67.9330   62.5390 C   0  0  0  0  0  0  0  0  0  0  0  0
   40.4250   67.0010   62.9490 C   0  0  0  0  0  0  0  0  0  0  0  0
   40.6870   65.6350   62.8510 C   0  0  0  0  0  0  0  0  0  0  0  0
   41.9110   65.2620   62.3530 N   0  0  0  0  0  0  0  0  0  0  0  0
   42.8210   66.1750   61.9740 C   0  0  0  0  0  0  0  0  0  0  0  0
   42.5990   67.4940   62.0550 N   0  0  0  0  0  0  0  0  0  0  0  0
   41.1560   68.9720   62.6360 H   0  0  0  0  0  0  0  0  0  0  0  0
   39.9380   64.9550   63.1630 H   0  0  0  0  0  0  0  0  0  0  0  0
   43.7720   65.7770   61.5860 H   0  0  0  0  0  0  0  0  0  0  0  0
   39.1050   67.4620   63.4870 C   0  0  0  0  0  2  0  0  0  0  0  0
   38.9890   68.5300   63.2110 H   0  0  0  0  0  0  0  0  0  0  0  0
  1  7  1  0  0  0  0
  1  2  1  0  0  0  0
  2 10  1  0  0  0  0
  3  2  2  0  0  0  0
  3  8  1  0  0  0  0
  4  3  1  0  0  0  0
  5  6  1  0  0  0  0
  5  4  2  0  0  0  0
  6  1  2  0  0  0  0
  9  5  1  0  0  0  0
 11 10  1  0  0  0  0
M  END
>  <minimizedAffinity>
-2.81089234

$$$$

 OpenBabel03212520103D

 11 11  0  0  0  0  0  0  0  0999 V2000
   38.0910   74.4950   58.8690 C   0  0  0  0  0  0  0  0  0  0  0  0
   38.8070   74.7830   60.0580 C   0  0  0  0  0  0  0  0  0  0  0  0
   39.4560   76.0100   60.1890 C   0  0  0  0  0  0  0  0  0  0  0  0
   39.3640   76.8880   59.1390 N   0  0  0  0  0  0  0  0  0  0  0  0
   38.6760   76.5800   58.0260 C   0  0  0  0  0  0  0  0  0  0  0  0
   38.0420   75.4100   57.8700 N   0  0  0  0  0  0  0  0  0  0  0  0
   37.6100   73.5350   58.8220 H   0  0  0  0  0  0  0  0  0  0  0  0
   39.9850   76.2060   61.0860 H   0  0  0  0  0  0  0  0  0  0  0  0
   38.6610   77.3490   57.2380 H   0  0  0  0  0  0  0  0  0  0  0  0
   38.8740   73.7880   61.1770 C   0  0  0  0  0  2  0  0  0  0  0  0
   38.5610   72.8060   60.7670 H   0  0  0  0  0  0  0  0  0  0  0  0
  1  2  1  0  0  0  0
  2  3  2  0  0  0  0
  2 10  1  0  0  0  0
  3  8  1  0  0  0  0
  4  3  1  0  0  0  0
  5  4  2  0  0  0  0
  6  5  1  0  0  0  0
  6  1  2  0  0  0  0
  7  1  1  0  0  0  0
  9  5  1  0  0  0  0
 11 10  1  0  0  0  0
M  END
>  <minimizedAffinity>
-2.79298306

$$$$

 OpenBabel03212520103D

 11 11  0  0  0  0  0  0  0  0999 V2000
   39.3830   76.0210   60.0710 C   0  0  0  0  0  0  0  0  0  0  0  0
   38.7650   74.7460   60.0140 C   0  0  0  0  0  0  0  0  0  0  0  0
   38.0490   74.3790   58.8760 C   0  0  0  0  0  0  0  0  0  0  0  0
   37.9810   75.2910   57.8520 N   0  0  0  0  0  0  0  0  0  0  0  0
   38.5790   76.4910   57.9420 C   0  0  0  0  0  0  0  0  0  0  0  0
   39.2740   76.8730   59.0220 N   0  0  0  0  0  0  0  0  0  0  0  0
   39.9220   76.2510   60.9720 H   0  0  0  0  0  0  0  0  0  0  0  0
   37.5960   73.4220   58.8530 H   0  0  0  0  0  0  0  0  0  0  0  0
   38.4670   77.1540   57.0700 H   0  0  0  0  0  0  0  0  0  0  0  0
   38.8720   73.7860   61.1610 C   0  0  0  0  0  2  0  0  0  0  0  0
   39.2110   74.3630   62.0460 H   0  0  0  0  0  0  0  0  0  0  0  0
  1  7  1  0  0  0  0
  2  1  1  0  0  0  0
  2 10  1  0  0  0  0
  3  2  2  0  0  0  0
  4  5  2  0  0  0  0
  4  3  1  0  0  0  0
  5  6  1  0  0  0  0
  6  1  2  0  0  0  0
  8  3  1  0  0  0  0
  9  5  1  0  0  0  0
 10 11  1  0  0  0  0
M  END
>  <minimizedAffinity>
-2.7901361

$$$$

 OpenBabel03212520103D

 11 11  0  0  0  0  0  0  0  0999 V2000
   42.5410   66.2130   62.5360 C   0  0  0  0  0  0  0  0  0  0  0  0
   42.2360   67.5250   62.9810 C   0  0  0  0  0  0  0  0  0  0  0  0
   40.9190   67.8540   63.2990 C   0  0  0  0  0  0  0  0  0  0  0  0
   39.9720   66.8700   63.1620 N   0  0  0  0  0  0  0  0  0  0  0  0
   40.2990   65.6370   62.7370 C   0  0  0  0  0  0  0  0  0  0  0  0
   41.5550   65.2900   62.4230 N   0  0  0  0  0  0  0  0  0  0  0  0
   43.5720   66.0150   62.3050 H   0  0  0  0  0  0  0  0  0  0  0  0
   40.7120   68.8390   63.6300 H   0  0  0  0  0  0  0  0  0  0  0  0
   39.4690   64.9170   62.6580 H   0  0  0  0  0  0  0  0  0  0  0  0
   43.3090   68.5620   63.1150 C   0  0  0  0  0  2  0  0  0  0  0  0
   44.1930   68.2000   62.5490 H   0  0  0  0  0  0  0  0  0  0  0  0
  1  2  1  0  0  0  0
  2 10  1  0  0  0  0
  2  3  2  0  0  0  0
  3  8  1  0  0  0  0
  4  3  1  0  0  0  0
  5  4  2  0  0  0  0
  6  1  2  0  0  0  0
  6  5  1  0  0  0  0
  7  1  1  0  0  0  0
  9  5  1  0  0  0  0
 11 10  1  0  0  0  0
M  END
>  <minimizedAffinity>
-2.78117633

$$$$

 OpenBabel03212520103D

 11 11  0  0  0  0  0  0  0  0999 V2000
   40.9550   67.8340   63.2070 C   0  0  0  0  0  0  0  0  0  0  0  0
   42.3110   67.5140   62.9450 C   0  0  0  0  0  0  0  0  0  0  0  0
   42.6450   66.2250   62.5310 C   0  0  0  0  0  0  0  0  0  0  0  0
   41.6220   65.3210   62.3960 N   0  0  0  0  0  0  0  0  0  0  0  0
   40.3480   65.6610   62.6540 C   0  0  0  0  0  0  0  0  0  0  0  0
   39.9950   66.8900   63.0540 N   0  0  0  0  0  0  0  0  0  0  0  0
   40.7550   68.8420   63.5240 H   0  0  0  0  0  0  0  0  0  0  0  0
   43.6640   66.0070   62.3390 H   0  0  0  0  0  0  0  0  0  0  0  0
   39.5980   64.8650   62.5180 H   0  0  0  0  0  0  0  0  0  0  0  0
   43.3900   68.5410   63.1070 C   0  0  0  0  0  2  0  0  0  0  0  0
   42.9690   69.3730   63.7070 H   0  0  0  0  0  0  0  0  0  0  0  0
  1  7  1  0  0  0  0
  2 10  1  0  0  0  0
  2  1  2  0  0  0  0
  3  2  1  0  0  0  0
  4  3  2  0  0  0  0
  4  5  1  0  0  0  0
  5  6  2  0  0  0  0
  6  1  1  0  0  0  0
  8  3  1  0  0  0  0
  9  5  1  0  0  0  0
 10 11  1  0  0  0  0
M  END
>  <minimizedAffinity>
-2.75640154

$$$$

 OpenBabel03212520103D

 11 11  0  0  0  0  0  0  0  0999 V2000
   38.3220   74.4990   59.2570 C   0  0  0  0  0  0  0  0  0  0  0  0
   39.0430   75.6440   59.6800 C   0  0  0  0  0  0  0  0  0  0  0  0
   39.1230   76.7550   58.8400 C   0  0  0  0  0  0  0  0  0  0  0  0
   38.4860   76.6750   57.6280 N   0  0  0  0  0  0  0  0  0  0  0  0
   37.8120   75.5720   57.2600 C   0  0  0  0  0  0  0  0  0  0  0  0
   37.7170   74.4890   58.0440 N   0  0  0  0  0  0  0  0  0  0  0  0
   38.2940   73.6720   59.9440 H   0  0  0  0  0  0  0  0  0  0  0  0
   39.6650   77.6000   59.1760 H   0  0  0  0  0  0  0  0  0  0  0  0
   37.3360   75.6040   56.2680 H   0  0  0  0  0  0  0  0  0  0  0  0
   39.7190   75.6780   61.0170 C   0  0  0  0  0  2  0  0  0  0  0  0
   39.7860   74.6330   61.3820 H   0  0  0  0  0  0  0  0  0  0  0  0
  1  2  1  0  0  0  0
  1  7  1  0  0  0  0
  2 10  1  0  0  0  0
  3  8  1  0  0  0  0
  3  2  2  0  0  0  0
  4  3  1  0  0  0  0
  5  4  2  0  0  0  0
  5  6  1  0  0  0  0
  6  1  2  0  0  0  0
  9  5  1  0  0  0  0
 10 11  1  0  0  0  0
M  END
>  <minimizedAffinity>
-2.74849844

$$$$

 OpenBabel03212520103D

 11 11  0  0  0  0  0  0  0  0999 V2000
   39.0020   76.2280   58.7590 C   0  0  0  0  0  0  0  0  0  0  0  0
   38.3820   74.9550   58.8220 C   0  0  0  0  0  0  0  0  0  0  0  0
   38.3310   74.2750   60.0380 C   0  0  0  0  0  0  0  0  0  0  0  0
   38.8950   74.8900   61.1280 N   0  0  0  0  0  0  0  0  0  0  0  0
   39.4740   76.0980   61.0300 C   0  0  0  0  0  0  0  0  0  0  0  0
   39.5400   76.7760   59.8760 N   0  0  0  0  0  0  0  0  0  0  0  0
   39.0130   76.7070   57.7960 H   0  0  0  0  0  0  0  0  0  0  0  0
   37.8630   73.3250   60.0640 H   0  0  0  0  0  0  0  0  0  0  0  0
   39.9000   76.5080   61.9600 H   0  0  0  0  0  0  0  0  0  0  0  0
   37.7810   74.3290   57.6000 C   0  0  0  0  0  2  0  0  0  0  0  0
   38.1780   74.8730   56.7190 H   0  0  0  0  0  0  0  0  0  0  0  0
  1  2  2  0  0  0  0
  1  6  1  0  0  0  0
  2  3  1  0  0  0  0
  3  8  1  0  0  0  0
  3  4  2  0  0  0  0
  5  4  1  0  0  0  0
  5  9  1  0  0  0  0
  6  5  2  0  0  0  0
  7  1  1  0  0  0  0
 10  2  1  0  0  0  0
 11 10  1  0  0  0  0
M  END
>  <minimizedAffinity>
-2.67666864

$$$$
