
 OpenBabel03212520463D

 13 13  0  0  0  0  0  0  0  0999 V2000
   40.2220   81.0630   59.8170 C   0  0  0  0  0  0  0  0  0  0  0  0
   40.4990   81.7940   58.6440 C   0  0  0  0  0  0  0  0  0  0  0  0
   40.3320   83.1800   58.7110 C   0  0  0  0  0  0  0  0  0  0  0  0
   39.9220   83.7190   59.8760 N   0  0  0  0  0  0  0  0  0  0  0  0
   39.6650   82.9840   60.9840 C   0  0  0  0  0  0  0  0  0  0  0  0
   39.8190   81.6630   60.9350 N   0  0  0  0  0  0  0  0  0  0  0  0
   40.4320   79.6570   59.6110 N   0  0  0  0  0  0  0  0  0  0  0  0
   40.8240   81.3760   57.7170 H   0  0  0  0  0  0  0  0  0  0  0  0
   40.5280   83.8130   57.8440 H   0  0  0  0  0  0  0  0  0  0  0  0
   40.9050   79.1380   60.3940 H   0  0  0  0  0  0  0  0  0  0  0  0
   40.1380   79.1720   58.7410 H   0  0  0  0  0  0  0  0  0  0  0  0
   39.2160   83.5420   62.2740 C   0  0  0  0  0  2  0  0  0  0  0  0
   39.9420   83.4390   63.0990 H   0  0  0  0  0  0  0  0  0  0  0  0
  1  6  1  0  0  0  0
  2  3  1  0  0  0  0
  2  1  2  0  0  0  0
  3  4  2  0  0  0  0
  4  5  1  0  0  0  0
  5 12  1  0  0  0  0
  6  5  2  0  0  0  0
  7  1  1  0  0  0  0
  7 10  1  0  0  0  0
  8  2  1  0  0  0  0
  9  3  1  0  0  0  0
 11  7  1  0  0  0  0
 12 13  1  0  0  0  0
M  END
>  <minimizedAffinity>
-2.72518849

>  <minimizedRMSD>
1.45242929

$$$$
