
 OpenBabel03212520583D

 42 46  0  0  1  0  0  0  0  0999 V2000
   39.7860   77.4060   59.1680 C   0  0  0  0  0  0  0  0  0  0  0  0
   40.4840   76.2850   58.8730 C   0  0  0  0  0  0  0  0  0  0  0  0
   39.9330   75.5780   57.7960 C   0  0  0  0  0  0  0  0  0  0  0  0
   38.8320   75.9600   57.1220 N   0  0  0  0  0  0  0  0  0  0  0  0
   38.2000   77.1100   57.5000 C   0  0  0  0  0  0  0  0  0  0  0  0
   38.6800   77.8420   58.5330 N   0  0  0  0  0  0  0  0  0  0  0  0
   41.3600   75.9290   59.3660 H   0  0  0  0  0  0  0  0  0  0  0  0
   40.3740   74.6510   57.4300 H   0  0  0  0  0  0  0  0  0  0  0  0
   40.9800   80.3340   61.7440 C   0  0  0  0  0  0  0  0  0  0  0  0
   40.9660   79.0950   62.3360 C   0  0  0  0  0  0  0  0  0  0  0  0
   40.5890   78.0410   61.5890 C   0  0  0  0  0  0  0  0  0  0  0  0
   40.2320   78.2440   60.2590 C   0  0  0  0  0  0  0  0  0  0  0  0
   40.4400   80.0540   60.0330 S   0  0  0  0  0  0  0  0  0  0  0  0
   41.2450   78.9420   63.3780 H   0  0  0  0  0  0  0  0  0  0  0  0
   40.5100   76.9970   61.8640 H   0  0  0  0  0  0  0  0  0  0  0  0
   43.0440   83.1380   62.9040 C   0  0  0  0  0  0  0  0  0  0  0  0
   42.1380   83.8920   63.6950 C   0  0  0  0  0  0  0  0  0  0  0  0
   40.8140   83.4330   63.8270 C   0  0  0  0  0  0  0  0  0  0  0  0
   40.4720   82.2960   63.1900 N   0  0  0  0  0  0  0  0  0  0  0  0
   41.3690   81.5940   62.4350 C   0  0  0  0  0  0  0  0  0  0  0  0
   42.6250   82.0230   62.3070 N   0  0  0  0  0  0  0  0  0  0  0  0
   44.0450   83.5280   62.8320 H   0  0  0  0  0  0  0  0  0  0  0  0
   42.3830   84.7930   64.2070 H   0  0  0  0  0  0  0  0  0  0  0  0
   40.0800   83.9570   64.4110 H   0  0  0  0  0  0  0  0  0  0  0  0
   37.0210   77.5060   56.7520 C   0  0  0  0  0  0  0  0  0  0  0  0
   35.9290   77.0590   57.1300 O   0  0  0  0  0  0  0  0  0  0  0  0
   37.1060   78.4190   55.5510 C   0  0  1  0  0  0  0  0  0  0  0  0
   37.3080   79.8670   55.9310 C   0  0  0  0  0  0  0  0  0  0  0  0
   38.3440   79.1010   55.2360 C   0  0  2  0  0  0  0  0  0  0  0  0
   36.2140   78.3900   54.8740 H   0  0  0  0  0  0  0  0  0  0  0  0
   36.8560   80.6900   55.3510 H   0  0  0  0  0  0  0  0  0  0  0  0
   37.4010   80.1190   57.0060 H   0  0  0  0  0  0  0  0  0  0  0  0
   39.2300   78.8000   55.8640 H   0  0  0  0  0  0  0  0  0  0  0  0
   39.9890   78.7100   53.3910 C   0  0  2  0  0  3  0  0  0  0  0  0
   38.7170   79.4000   53.7990 C   0  0  1  0  0  3  0  0  0  0  0  0
   37.7050   78.7110   52.8810 C   0  0  0  0  0  3  0  0  0  0  0  0
   37.5750   77.6970   53.3110 H   0  0  0  0  0  0  0  0  0  0  0  0
   38.4030   78.5830   51.6960 O   0  0  0  0  0  0  0  0  0  0  0  0
   39.6430   78.0840   52.0760 C   0  0  0  0  0  3  0  0  0  0  0  0
   39.6450   76.9680   52.1150 H   0  0  0  0  0  0  0  0  0  0  0  0
   40.2520   77.7300   54.3450 O   0  0  0  0  0  0  0  0  0  0  0  0
   40.9920   78.0140   54.9360 H   0  0  0  0  0  0  0  0  0  0  0  0
  1 12  1  0  0  0  0
  2  1  1  0  0  0  0
  2  7  1  0  0  0  0
  3  2  2  0  0  0  0
  4  5  2  0  0  0  0
  4  3  1  0  0  0  0
  5  6  1  0  0  0  0
  6  1  2  0  0  0  0
  8  3  1  0  0  0  0
  9 10  2  0  0  0  0
  9 20  1  0  0  0  0
 10 14  1  0  0  0  0
 11 15  1  0  0  0  0
 11 10  1  0  0  0  0
 12 11  2  0  0  0  0
 13 12  1  0  0  0  0
 13  9  1  0  0  0  0
 16 17  1  0  0  0  0
 17 18  2  0  0  0  0
 17 23  1  0  0  0  0
 18 24  1  0  0  0  0
 19 18  1  0  0  0  0
 20 19  2  0  0  0  0
 21 20  1  0  0  0  0
 21 16  2  0  0  0  0
 22 16  1  0  0  0  0
 25 26  2  0  0  0  0
 25  5  1  0  0  0  0
 27 30  1  6  0  0  0
 27 28  1  0  0  0  0
 27 25  1  0  0  0  0
 28 32  1  0  0  0  0
 29 27  1  0  0  0  0
 29 33  1  1  0  0  0
 29 28  1  0  0  0  0
 31 28  1  0  0  0  0
 34 35  1  0  0  0  0
 34 41  1  1  0  0  0
 35 36  1  6  0  0  0
 35 29  1  0  0  0  0
 36 37  1  0  0  0  0
 38 39  1  0  0  0  0
 38 36  1  0  0  0  0
 39 40  1  0  0  0  0
 39 34  1  0  0  0  0
 41 42  1  0  0  0  0
M  END
>  <minimizedAffinity>
-6.38517904

>  <minimizedRMSD>
1.03599429

$$$$
