
 OpenBabel03212520583D

 42 46  0  0  1  0  0  0  0  0999 V2000
   39.8960   77.5700   59.0960 C   0  0  0  0  0  0  0  0  0  0  0  0
   40.6520   76.5020   58.7520 C   0  0  0  0  0  0  0  0  0  0  0  0
   40.1310   75.8080   57.6530 C   0  0  0  0  0  0  0  0  0  0  0  0
   39.0040   76.1540   57.0020 N   0  0  0  0  0  0  0  0  0  0  0  0
   38.3140   77.2520   57.4290 C   0  0  0  0  0  0  0  0  0  0  0  0
   38.7620   77.9690   58.4870 N   0  0  0  0  0  0  0  0  0  0  0  0
   41.5510   76.1770   59.2250 H   0  0  0  0  0  0  0  0  0  0  0  0
   40.6190   74.9220   57.2470 H   0  0  0  0  0  0  0  0  0  0  0  0
   40.9930   80.4530   61.7640 C   0  0  0  0  0  0  0  0  0  0  0  0
   40.9790   79.2020   62.3290 C   0  0  0  0  0  0  0  0  0  0  0  0
   40.6320   78.1610   61.5490 C   0  0  0  0  0  0  0  0  0  0  0  0
   40.3060   78.3890   60.2160 C   0  0  0  0  0  0  0  0  0  0  0  0
   40.4980   80.2060   60.0340 S   0  0  0  0  0  0  0  0  0  0  0  0
   41.2340   79.0290   63.3730 H   0  0  0  0  0  0  0  0  0  0  0  0
   40.5590   77.1100   61.7990 H   0  0  0  0  0  0  0  0  0  0  0  0
   42.9950   83.2560   63.0320 C   0  0  0  0  0  0  0  0  0  0  0  0
   42.0630   83.9800   63.8200 C   0  0  0  0  0  0  0  0  0  0  0  0
   40.7420   83.5020   63.9130 C   0  0  0  0  0  0  0  0  0  0  0  0
   40.4280   82.3750   63.2430 N   0  0  0  0  0  0  0  0  0  0  0  0
   41.3510   81.7020   62.4920 C   0  0  0  0  0  0  0  0  0  0  0  0
   42.6040   82.1500   62.4010 N   0  0  0  0  0  0  0  0  0  0  0  0
   43.9920   83.6600   62.9910 H   0  0  0  0  0  0  0  0  0  0  0  0
   42.2840   84.8720   64.3580 H   0  0  0  0  0  0  0  0  0  0  0  0
   39.9890   84.0030   64.4920 H   0  0  0  0  0  0  0  0  0  0  0  0
   37.1070   77.6110   56.7060 C   0  0  0  0  0  0  0  0  0  0  0  0
   36.0330   77.1630   57.1310 O   0  0  0  0  0  0  0  0  0  0  0  0
   37.1450   78.4870   55.4750 C   0  0  1  0  0  0  0  0  0  0  0  0
   37.2920   79.9530   55.8060 C   0  0  0  0  0  0  0  0  0  0  0  0
   38.3510   79.2070   55.1250 C   0  0  2  0  0  0  0  0  0  0  0  0
   36.2480   78.4000   54.8090 H   0  0  0  0  0  0  0  0  0  0  0  0
   36.8010   80.7380   55.2050 H   0  0  0  0  0  0  0  0  0  0  0  0
   37.3850   80.2440   56.8720 H   0  0  0  0  0  0  0  0  0  0  0  0
   39.2550   78.9620   55.7530 H   0  0  0  0  0  0  0  0  0  0  0  0
   39.7740   78.5500   53.1740 C   0  0  2  0  0  3  0  0  0  0  0  0
   38.6980   79.4730   53.6750 C   0  0  1  0  0  3  0  0  0  0  0  0
   37.5160   79.0400   52.8050 C   0  0  0  0  0  3  0  0  0  0  0  0
   37.2020   78.0600   53.2200 H   0  0  0  0  0  0  0  0  0  0  0  0
   38.1060   78.8130   51.5770 O   0  0  0  0  0  0  0  0  0  0  0  0
   39.2340   78.0560   51.8690 C   0  0  0  0  0  3  0  0  0  0  0  0
   39.0060   76.9620   51.8810 H   0  0  0  0  0  0  0  0  0  0  0  0
   39.8800   77.5040   54.0870 O   0  0  0  0  0  0  0  0  0  0  0  0
   40.6950   77.6090   54.6390 H   0  0  0  0  0  0  0  0  0  0  0  0
  1 12  1  0  0  0  0
  2  1  1  0  0  0  0
  2  7  1  0  0  0  0
  3  2  2  0  0  0  0
  4  5  2  0  0  0  0
  4  3  1  0  0  0  0
  5  6  1  0  0  0  0
  6  1  2  0  0  0  0
  8  3  1  0  0  0  0
  9 10  2  0  0  0  0
  9 20  1  0  0  0  0
 10 14  1  0  0  0  0
 11 15  1  0  0  0  0
 11 10  1  0  0  0  0
 12 11  2  0  0  0  0
 13 12  1  0  0  0  0
 13  9  1  0  0  0  0
 16 17  1  0  0  0  0
 17 18  2  0  0  0  0
 17 23  1  0  0  0  0
 18 24  1  0  0  0  0
 19 18  1  0  0  0  0
 20 19  2  0  0  0  0
 21 20  1  0  0  0  0
 21 16  2  0  0  0  0
 22 16  1  0  0  0  0
 25 26  2  0  0  0  0
 25  5  1  0  0  0  0
 27 30  1  6  0  0  0
 27 28  1  0  0  0  0
 27 25  1  0  0  0  0
 28 32  1  0  0  0  0
 29 27  1  0  0  0  0
 29 33  1  1  0  0  0
 29 28  1  0  0  0  0
 31 28  1  0  0  0  0
 34 35  1  0  0  0  0
 34 41  1  1  0  0  0
 35 36  1  6  0  0  0
 35 29  1  0  0  0  0
 36 37  1  0  0  0  0
 38 39  1  0  0  0  0
 38 36  1  0  0  0  0
 39 40  1  0  0  0  0
 39 34  1  0  0  0  0
 41 42  1  0  0  0  0
M  END
>  <minimizedAffinity>
-6.40137672

>  <minimizedRMSD>
0.285065293

$$$$
