
 OpenBabel03212520383D

 26 28  0  0  1  0  0  0  0  0999 V2000
   42.8490   85.4340   60.0080 C   0  0  1  0  0  0  0  0  0  0  0  0
   44.0020   85.9890   59.1970 C   0  0  0  0  0  0  0  0  0  0  0  0
   43.5120   84.5620   59.0150 C   0  0  2  0  0  0  0  0  0  0  0  0
   41.8550   85.8980   59.8670 H   0  0  0  0  0  0  0  0  0  0  0  0
   44.9600   86.1570   59.7120 H   0  0  0  0  0  0  0  0  0  0  0  0
   43.7200   86.7590   58.4810 H   0  0  0  0  0  0  0  0  0  0  0  0
   44.2290   83.8020   59.3780 H   0  0  0  0  0  0  0  0  0  0  0  0
   41.6330   83.2050   58.1560 C   0  0  1  0  0  3  0  0  0  0  0  0
   42.7770   84.1530   57.7750 C   0  0  2  0  0  3  0  0  0  0  0  0
   43.5430   83.2360   56.8610 C   0  0  0  0  0  3  0  0  0  0  0  0
   44.1960   83.8530   56.2020 H   0  0  0  0  0  0  0  0  0  0  0  0
   42.5820   82.5820   56.1000 O   0  0  0  0  0  0  0  0  0  0  0  0
   41.3950   82.5600   56.8110 C   0  0  0  0  0  3  0  0  0  0  0  0
   40.6400   83.1140   56.2380 H   0  0  0  0  0  0  0  0  0  0  0  0
   42.1230   82.3110   59.0990 O   0  0  0  0  0  0  0  0  0  0  0  0
   41.5850   82.4300   59.9280 H   0  0  0  0  0  0  0  0  0  0  0  0
   43.1720   85.2280   61.3730 O   0  0  0  0  0  0  0  0  0  0  0  0
   40.7200   82.9160   62.7040 C   0  0  0  0  0  0  0  0  0  0  0  0
   40.6320   83.3160   64.0370 C   0  0  0  0  0  0  0  0  0  0  0  0
   41.4440   84.4010   64.4470 C   0  0  0  0  0  0  0  0  0  0  0  0
   42.2350   84.9540   63.5050 N   0  0  0  0  0  0  0  0  0  0  0  0
   42.3050   84.5520   62.2230 C   0  0  0  0  0  0  0  0  0  0  0  0
   41.5360   83.5140   61.8100 N   0  0  0  0  0  0  0  0  0  0  0  0
   40.1100   82.0800   62.3450 H   0  0  0  0  0  0  0  0  0  0  0  0
   39.9720   82.8260   64.7460 H   0  0  0  0  0  0  0  0  0  0  0  0
   41.4210   84.7590   65.4660 H   0  0  0  0  0  0  0  0  0  0  0  0
  1  4  1  6  0  0  0
  1 17  1  0  0  0  0
  2  5  1  0  0  0  0
  2  1  1  0  0  0  0
  3  2  1  0  0  0  0
  3  7  1  1  0  0  0
  3  1  1  0  0  0  0
  6  2  1  0  0  0  0
  8 15  1  1  0  0  0
  9 10  1  6  0  0  0
  9  8  1  0  0  0  0
  9  3  1  0  0  0  0
 11 10  1  0  0  0  0
 12 13  1  0  0  0  0
 12 10  1  0  0  0  0
 13  8  1  0  0  0  0
 14 13  1  0  0  0  0
 15 16  1  0  0  0  0
 17 22  1  0  0  0  0
 18 19  1  0  0  0  0
 19 20  2  0  0  0  0
 19 25  1  0  0  0  0
 20 26  1  0  0  0  0
 21 20  1  0  0  0  0
 22 21  2  0  0  0  0
 23 22  1  0  0  0  0
 23 18  2  0  0  0  0
 24 18  1  0  0  0  0
M  END
>  <minimizedAffinity>
-3.73058653

>  <minimizedRMSD>
2.03201151

$$$$
