
 OpenBabel03212520293D

 28 30  0  0  1  0  0  0  0  0999 V2000
   42.0460   82.5330   59.4960 C   0  0  0  0  0  0  0  0  0  0  0  0
   41.1430   82.9720   58.5140 C   0  0  0  0  0  0  0  0  0  0  0  0
   40.1760   83.9240   58.8710 C   0  0  0  0  0  0  0  0  0  0  0  0
   40.1780   84.3610   60.1610 N   0  0  0  0  0  0  0  0  0  0  0  0
   41.0470   83.9290   61.0800 C   0  0  0  0  0  0  0  0  0  0  0  0
   41.9710   83.0220   60.7450 N   0  0  0  0  0  0  0  0  0  0  0  0
   42.8010   81.7930   59.2260 H   0  0  0  0  0  0  0  0  0  0  0  0
   39.4750   84.2780   58.1470 H   0  0  0  0  0  0  0  0  0  0  0  0
   41.2290   82.4490   57.1930 N   0  0  0  0  0  0  0  0  0  0  0  0
   42.1260   83.0670   56.4240 C   0  0  0  0  0  0  0  0  0  0  0  0
   42.2820   82.6230   55.1070 C   0  0  0  0  0  0  0  0  0  0  0  0
   41.5030   81.5580   54.6440 C   0  0  0  0  0  0  0  0  0  0  0  0
   41.5830   81.1000   53.4780 O   0  0  0  0  0  0  0  0  0  0  0  0
   40.6150   80.9890   55.4930 N   0  0  0  0  0  0  0  0  0  0  0  0
   40.4640   81.4210   56.7720 C   0  0  0  0  0  0  0  0  0  0  0  0
   39.6400   80.8870   57.5520 O   0  0  0  0  0  0  0  0  0  0  0  0
   42.7460   83.8930   56.7480 H   0  0  0  0  0  0  0  0  0  0  0  0
   42.9890   83.0740   54.4260 H   0  0  0  0  0  0  0  0  0  0  0  0
   40.0400   80.2020   55.1480 H   0  0  0  0  0  0  0  0  0  0  0  0
   40.1850   83.5810   63.4010 C   0  0  2  0  0  3  0  0  0  0  0  0
   40.9870   84.4460   62.4500 C   0  0  1  0  0  3  0  0  0  0  0  0
   42.3140   84.4510   63.1730 C   0  0  0  0  0  3  0  0  0  0  0  0
   42.9360   85.3410   62.9580 H   0  0  0  0  0  0  0  0  0  0  0  0
   42.0550   84.3000   64.5290 O   0  0  0  0  0  0  0  0  0  0  0  0
   40.7010   84.1610   64.7180 C   0  0  0  0  0  3  0  0  0  0  0  0
   40.2720   85.1860   64.8550 H   0  0  0  0  0  0  0  0  0  0  0  0
   40.6490   82.2680   63.3470 O   0  0  0  0  0  0  0  0  0  0  0  0
   41.5570   82.2140   63.7380 H   0  0  0  0  0  0  0  0  0  0  0  0
  1  6  1  0  0  0  0
  2  3  1  0  0  0  0
  2  1  2  0  0  0  0
  3  4  2  0  0  0  0
  4  5  1  0  0  0  0
  6  5  2  0  0  0  0
  7  1  1  0  0  0  0
  8  3  1  0  0  0  0
  9  2  1  0  0  0  0
 10 17  1  0  0  0  0
 10  9  1  0  0  0  0
 11 10  2  0  0  0  0
 12 11  1  0  0  0  0
 12 14  1  0  0  0  0
 13 12  2  0  0  0  0
 14 15  1  0  0  0  0
 15  9  1  0  0  0  0
 15 16  2  0  0  0  0
 18 11  1  0  0  0  0
 19 14  1  0  0  0  0
 20 27  1  1  0  0  0
 20 25  1  0  0  0  0
 21  5  1  6  0  0  0
 21 22  1  0  0  0  0
 21 20  1  0  0  0  0
 22 24  1  0  0  0  0
 23 22  1  0  0  0  0
 24 25  1  0  0  0  0
 25 26  1  0  0  0  0
 27 28  1  0  0  0  0
M  END
>  <minimizedAffinity>
-5.19318676

>  <minimizedRMSD>
4.16939211

$$$$
