
 OpenBabel03212520373D

 26 28  0  0  1  0  0  0  0  0999 V2000
   41.6470   84.8020   59.3590 C   0  0  1  0  0  0  0  0  0  0  0  0
   42.4900   85.2690   58.1890 C   0  0  0  0  0  0  0  0  0  0  0  0
   42.0900   83.8120   58.3530 C   0  0  2  0  0  0  0  0  0  0  0  0
   40.6160   85.1960   59.4350 H   0  0  0  0  0  0  0  0  0  0  0  0
   43.5330   85.5550   58.3880 H   0  0  0  0  0  0  0  0  0  0  0  0
   41.9630   85.9030   57.4780 H   0  0  0  0  0  0  0  0  0  0  0  0
   42.9380   83.1490   58.6080 H   0  0  0  0  0  0  0  0  0  0  0  0
   40.4520   81.9740   58.1380 C   0  0  1  0  0  3  0  0  0  0  0  0
   41.0860   83.1810   57.4370 C   0  0  2  0  0  3  0  0  0  0  0  0
   41.6760   82.4740   56.2460 C   0  0  0  0  0  3  0  0  0  0  0  0
   41.8560   83.2240   55.4410 H   0  0  0  0  0  0  0  0  0  0  0  0
   40.7100   81.5620   55.8390 O   0  0  0  0  0  0  0  0  0  0  0  0
   39.9170   81.2450   56.9260 C   0  0  0  0  0  3  0  0  0  0  0  0
   38.8870   81.5570   56.7050 H   0  0  0  0  0  0  0  0  0  0  0  0
   41.4680   81.2740   58.7750 O   0  0  0  0  0  0  0  0  0  0  0  0
   41.2610   81.2710   59.7490 H   0  0  0  0  0  0  0  0  0  0  0  0
   42.3390   84.8290   60.5950 O   0  0  0  0  0  0  0  0  0  0  0  0
   39.9730   83.4860   62.9870 C   0  0  0  0  0  0  0  0  0  0  0  0
   40.6420   83.6690   64.1970 C   0  0  0  0  0  0  0  0  0  0  0  0
   41.9250   84.2660   64.1490 C   0  0  0  0  0  0  0  0  0  0  0  0
   42.3880   84.6070   62.9280 N   0  0  0  0  0  0  0  0  0  0  0  0
   41.7250   84.4210   61.7720 C   0  0  0  0  0  0  0  0  0  0  0  0
   40.4950   83.8510   61.7970 N   0  0  0  0  0  0  0  0  0  0  0  0
   38.9780   83.0280   62.9790 H   0  0  0  0  0  0  0  0  0  0  0  0
   40.2110   83.3710   65.1480 H   0  0  0  0  0  0  0  0  0  0  0  0
   42.4940   84.4350   65.0510 H   0  0  0  0  0  0  0  0  0  0  0  0
  1  4  1  1  0  0  0
  1 17  1  0  0  0  0
  2  3  1  0  0  0  0
  2  5  1  0  0  0  0
  2  1  1  0  0  0  0
  3  7  1  1  0  0  0
  3  1  1  0  0  0  0
  6  2  1  0  0  0  0
  8 15  1  6  0  0  0
  9 10  1  6  0  0  0
  9  8  1  0  0  0  0
  9  3  1  0  0  0  0
 11 10  1  0  0  0  0
 12 10  1  0  0  0  0
 12 13  1  0  0  0  0
 13  8  1  0  0  0  0
 14 13  1  0  0  0  0
 15 16  1  0  0  0  0
 17 22  1  0  0  0  0
 18 19  1  0  0  0  0
 19 25  1  0  0  0  0
 20 19  2  0  0  0  0
 20 26  1  0  0  0  0
 21 20  1  0  0  0  0
 22 23  1  0  0  0  0
 22 21  2  0  0  0  0
 23 18  2  0  0  0  0
 24 18  1  0  0  0  0
M  END
>  <minimizedAffinity>
-4.15003967

>  <minimizedRMSD>
3.26877141

$$$$
