
 OpenBabel03212520383D

 26 28  0  0  1  0  0  0  0  0999 V2000
   42.6560   85.4500   59.9690 C   0  0  1  0  0  0  0  0  0  0  0  0
   43.6310   86.3210   59.2020 C   0  0  0  0  0  0  0  0  0  0  0  0
   43.4130   84.8590   58.8440 C   0  0  2  0  0  0  0  0  0  0  0  0
   41.5850   85.7220   59.9260 H   0  0  0  0  0  0  0  0  0  0  0  0
   44.5670   86.6080   59.7020 H   0  0  0  0  0  0  0  0  0  0  0  0
   43.1640   87.1030   58.6070 H   0  0  0  0  0  0  0  0  0  0  0  0
   44.2820   84.2160   59.0770 H   0  0  0  0  0  0  0  0  0  0  0  0
   41.8730   83.2060   57.8430 C   0  0  1  0  0  3  0  0  0  0  0  0
   42.6980   84.4730   57.5860 C   0  0  2  0  0  3  0  0  0  0  0  0
   43.5860   83.9520   56.4880 C   0  0  0  0  0  3  0  0  0  0  0  0
   43.9960   84.8200   55.9220 H   0  0  0  0  0  0  0  0  0  0  0  0
   42.7580   83.1970   55.6680 O   0  0  0  0  0  0  0  0  0  0  0  0
   41.6870   82.7460   56.4170 C   0  0  0  0  0  3  0  0  0  0  0  0
   40.7650   83.1620   55.9870 H   0  0  0  0  0  0  0  0  0  0  0  0
   42.6580   82.3350   58.5870 O   0  0  0  0  0  0  0  0  0  0  0  0
   42.1860   82.1720   59.4490 H   0  0  0  0  0  0  0  0  0  0  0  0
   43.0930   85.1410   61.2810 O   0  0  0  0  0  0  0  0  0  0  0  0
   40.7040   82.8620   62.7740 C   0  0  0  0  0  0  0  0  0  0  0  0
   40.6530   83.3120   64.0930 C   0  0  0  0  0  0  0  0  0  0  0  0
   41.4670   84.4180   64.4370 C   0  0  0  0  0  0  0  0  0  0  0  0
   42.2250   84.9410   63.4500 N   0  0  0  0  0  0  0  0  0  0  0  0
   42.2580   84.4910   62.1820 C   0  0  0  0  0  0  0  0  0  0  0  0
   41.4870   83.4320   61.8330 N   0  0  0  0  0  0  0  0  0  0  0  0
   40.0900   82.0090   62.4660 H   0  0  0  0  0  0  0  0  0  0  0  0
   40.0200   82.8440   64.8400 H   0  0  0  0  0  0  0  0  0  0  0  0
   41.4730   84.8140   65.4410 H   0  0  0  0  0  0  0  0  0  0  0  0
  1  4  1  6  0  0  0
  1 17  1  0  0  0  0
  2  5  1  0  0  0  0
  2  1  1  0  0  0  0
  3  7  1  1  0  0  0
  3  2  1  0  0  0  0
  3  1  1  0  0  0  0
  6  2  1  0  0  0  0
  8 15  1  1  0  0  0
  9 10  1  6  0  0  0
  9  8  1  0  0  0  0
  9  3  1  0  0  0  0
 11 10  1  0  0  0  0
 12 13  1  0  0  0  0
 12 10  1  0  0  0  0
 13  8  1  0  0  0  0
 14 13  1  0  0  0  0
 15 16  1  0  0  0  0
 17 22  1  0  0  0  0
 18 19  1  0  0  0  0
 19 20  2  0  0  0  0
 19 25  1  0  0  0  0
 20 26  1  0  0  0  0
 21 20  1  0  0  0  0
 22 21  2  0  0  0  0
 23 22  1  0  0  0  0
 23 18  2  0  0  0  0
 24 18  1  0  0  0  0
M  END
>  <minimizedAffinity>
-3.75305295

>  <minimizedRMSD>
1.78200507

$$$$
