
 OpenBabel03212520583D

 42 46  0  0  1  0  0  0  0  0999 V2000
   39.8970   77.5710   59.0980 C   0  0  0  0  0  0  0  0  0  0  0  0
   40.6540   76.5030   58.7540 C   0  0  0  0  0  0  0  0  0  0  0  0
   40.1330   75.8090   57.6540 C   0  0  0  0  0  0  0  0  0  0  0  0
   39.0060   76.1540   57.0030 N   0  0  0  0  0  0  0  0  0  0  0  0
   38.3150   77.2510   57.4310 C   0  0  0  0  0  0  0  0  0  0  0  0
   38.7630   77.9690   58.4890 N   0  0  0  0  0  0  0  0  0  0  0  0
   41.5530   76.1780   59.2270 H   0  0  0  0  0  0  0  0  0  0  0  0
   40.6220   74.9230   57.2490 H   0  0  0  0  0  0  0  0  0  0  0  0
   40.9930   80.4540   61.7660 C   0  0  0  0  0  0  0  0  0  0  0  0
   40.9770   79.2030   62.3310 C   0  0  0  0  0  0  0  0  0  0  0  0
   40.6310   78.1620   61.5520 C   0  0  0  0  0  0  0  0  0  0  0  0
   40.3070   78.3900   60.2180 C   0  0  0  0  0  0  0  0  0  0  0  0
   40.5000   80.2070   60.0360 S   0  0  0  0  0  0  0  0  0  0  0  0
   41.2310   79.0310   63.3760 H   0  0  0  0  0  0  0  0  0  0  0  0
   40.5570   77.1110   61.8020 H   0  0  0  0  0  0  0  0  0  0  0  0
   42.9950   83.2570   63.0330 C   0  0  0  0  0  0  0  0  0  0  0  0
   42.0630   83.9820   63.8220 C   0  0  0  0  0  0  0  0  0  0  0  0
   40.7420   83.5030   63.9150 C   0  0  0  0  0  0  0  0  0  0  0  0
   40.4290   82.3760   63.2450 N   0  0  0  0  0  0  0  0  0  0  0  0
   41.3510   81.7040   62.4940 C   0  0  0  0  0  0  0  0  0  0  0  0
   42.6040   82.1510   62.4020 N   0  0  0  0  0  0  0  0  0  0  0  0
   43.9920   83.6620   62.9920 H   0  0  0  0  0  0  0  0  0  0  0  0
   42.2850   84.8730   64.3590 H   0  0  0  0  0  0  0  0  0  0  0  0
   39.9900   84.0040   64.4940 H   0  0  0  0  0  0  0  0  0  0  0  0
   37.1080   77.6100   56.7080 C   0  0  0  0  0  0  0  0  0  0  0  0
   36.0350   77.1620   57.1330 O   0  0  0  0  0  0  0  0  0  0  0  0
   37.1450   78.4860   55.4770 C   0  0  1  0  0  0  0  0  0  0  0  0
   37.2930   79.9520   55.8080 C   0  0  0  0  0  0  0  0  0  0  0  0
   38.3520   79.2060   55.1270 C   0  0  2  0  0  0  0  0  0  0  0  0
   36.2490   78.3990   54.8110 H   0  0  0  0  0  0  0  0  0  0  0  0
   36.8020   80.7360   55.2060 H   0  0  0  0  0  0  0  0  0  0  0  0
   37.3850   80.2430   56.8730 H   0  0  0  0  0  0  0  0  0  0  0  0
   39.2550   78.9620   55.7550 H   0  0  0  0  0  0  0  0  0  0  0  0
   39.7750   78.5490   53.1750 C   0  0  2  0  0  3  0  0  0  0  0  0
   38.6980   79.4720   53.6760 C   0  0  1  0  0  3  0  0  0  0  0  0
   37.5160   79.0390   52.8060 C   0  0  0  0  0  3  0  0  0  0  0  0
   37.2030   78.0590   53.2210 H   0  0  0  0  0  0  0  0  0  0  0  0
   38.1060   78.8120   51.5780 O   0  0  0  0  0  0  0  0  0  0  0  0
   39.2340   78.0540   51.8700 C   0  0  0  0  0  3  0  0  0  0  0  0
   39.0060   76.9610   51.8830 H   0  0  0  0  0  0  0  0  0  0  0  0
   39.8800   77.5030   54.0890 O   0  0  0  0  0  0  0  0  0  0  0  0
   40.6950   77.6070   54.6400 H   0  0  0  0  0  0  0  0  0  0  0  0
  1 12  1  0  0  0  0
  2  1  1  0  0  0  0
  2  7  1  0  0  0  0
  3  2  2  0  0  0  0
  4  5  2  0  0  0  0
  4  3  1  0  0  0  0
  5  6  1  0  0  0  0
  6  1  2  0  0  0  0
  8  3  1  0  0  0  0
  9 10  2  0  0  0  0
  9 20  1  0  0  0  0
 10 14  1  0  0  0  0
 11 15  1  0  0  0  0
 11 10  1  0  0  0  0
 12 11  2  0  0  0  0
 13 12  1  0  0  0  0
 13  9  1  0  0  0  0
 16 17  1  0  0  0  0
 17 18  2  0  0  0  0
 17 23  1  0  0  0  0
 18 24  1  0  0  0  0
 19 18  1  0  0  0  0
 20 19  2  0  0  0  0
 21 20  1  0  0  0  0
 21 16  2  0  0  0  0
 22 16  1  0  0  0  0
 25 26  2  0  0  0  0
 25  5  1  0  0  0  0
 27 30  1  6  0  0  0
 27 28  1  0  0  0  0
 27 25  1  0  0  0  0
 28 32  1  0  0  0  0
 29 27  1  0  0  0  0
 29 33  1  1  0  0  0
 29 28  1  0  0  0  0
 31 28  1  0  0  0  0
 34 35  1  0  0  0  0
 34 41  1  1  0  0  0
 35 36  1  6  0  0  0
 35 29  1  0  0  0  0
 36 37  1  0  0  0  0
 38 39  1  0  0  0  0
 38 36  1  0  0  0  0
 39 40  1  0  0  0  0
 39 34  1  0  0  0  0
 41 42  1  0  0  0  0
M  END
>  <minimizedAffinity>
-6.40148592

>  <minimizedRMSD>
0.349807322

$$$$
