
 OpenBabel03212520583D

 42 46  0  0  1  0  0  0  0  0999 V2000
   39.7600   77.3440   59.2180 C   0  0  0  0  0  0  0  0  0  0  0  0
   40.4060   76.1790   58.9800 C   0  0  0  0  0  0  0  0  0  0  0  0
   39.8510   75.4660   57.9090 C   0  0  0  0  0  0  0  0  0  0  0  0
   38.7920   75.8830   57.1890 N   0  0  0  0  0  0  0  0  0  0  0  0
   38.2110   77.0760   57.5110 C   0  0  0  0  0  0  0  0  0  0  0  0
   38.6980   77.8160   58.5350 N   0  0  0  0  0  0  0  0  0  0  0  0
   41.2470   75.7950   59.5120 H   0  0  0  0  0  0  0  0  0  0  0  0
   40.2530   74.5060   57.5860 H   0  0  0  0  0  0  0  0  0  0  0  0
   40.9800   80.2970   61.7520 C   0  0  0  0  0  0  0  0  0  0  0  0
   40.9720   79.0650   62.3560 C   0  0  0  0  0  0  0  0  0  0  0  0
   40.5880   78.0030   61.6240 C   0  0  0  0  0  0  0  0  0  0  0  0
   40.2180   78.1930   60.2960 C   0  0  0  0  0  0  0  0  0  0  0  0
   40.4220   80.0010   60.0490 S   0  0  0  0  0  0  0  0  0  0  0  0
   41.2620   78.9220   63.3970 H   0  0  0  0  0  0  0  0  0  0  0  0
   40.5120   76.9620   61.9100 H   0  0  0  0  0  0  0  0  0  0  0  0
   43.0580   83.1090   62.8680 C   0  0  0  0  0  0  0  0  0  0  0  0
   42.1580   83.8750   63.6550 C   0  0  0  0  0  0  0  0  0  0  0  0
   40.8330   83.4220   63.7990 C   0  0  0  0  0  0  0  0  0  0  0  0
   40.4850   82.2780   63.1770 N   0  0  0  0  0  0  0  0  0  0  0  0
   41.3760   81.5650   62.4260 C   0  0  0  0  0  0  0  0  0  0  0  0
   42.6330   81.9880   62.2860 N   0  0  0  0  0  0  0  0  0  0  0  0
   44.0590   83.4950   62.7870 H   0  0  0  0  0  0  0  0  0  0  0  0
   42.4080   84.7810   64.1560 H   0  0  0  0  0  0  0  0  0  0  0  0
   40.1040   83.9550   64.3800 H   0  0  0  0  0  0  0  0  0  0  0  0
   37.0770   77.5080   56.7140 C   0  0  0  0  0  0  0  0  0  0  0  0
   35.9640   77.0570   57.0150 O   0  0  0  0  0  0  0  0  0  0  0  0
   37.2340   78.4630   55.5540 C   0  0  1  0  0  0  0  0  0  0  0  0
   37.2300   79.9110   55.9840 C   0  0  0  0  0  0  0  0  0  0  0  0
   38.4260   79.2750   55.4300 C   0  0  2  0  0  0  0  0  0  0  0  0
   36.4520   78.3670   54.7570 H   0  0  0  0  0  0  0  0  0  0  0  0
   36.7800   80.7030   55.3600 H   0  0  0  0  0  0  0  0  0  0  0  0
   37.1460   80.1370   57.0660 H   0  0  0  0  0  0  0  0  0  0  0  0
   39.2430   79.0450   56.1720 H   0  0  0  0  0  0  0  0  0  0  0  0
   40.4340   79.9590   54.1030 C   0  0  2  0  0  3  0  0  0  0  0  0
   38.9630   79.6560   54.0650 C   0  0  1  0  0  3  0  0  0  0  0  0
   38.9450   78.4140   53.1710 C   0  0  0  0  0  3  0  0  0  0  0  0
   39.3410   77.5980   53.8120 H   0  0  0  0  0  0  0  0  0  0  0  0
   39.9010   78.7070   52.2180 O   0  0  0  0  0  0  0  0  0  0  0  0
   40.9840   79.1810   52.9480 C   0  0  0  0  0  3  0  0  0  0  0  0
   41.6620   78.3520   53.2690 H   0  0  0  0  0  0  0  0  0  0  0  0
   40.9280   79.4630   55.3070 O   0  0  0  0  0  0  0  0  0  0  0  0
   41.1030   80.2020   55.9400 H   0  0  0  0  0  0  0  0  0  0  0  0
  1 12  1  0  0  0  0
  2  1  1  0  0  0  0
  2  7  1  0  0  0  0
  3  2  2  0  0  0  0
  4  5  2  0  0  0  0
  4  3  1  0  0  0  0
  5  6  1  0  0  0  0
  6  1  2  0  0  0  0
  8  3  1  0  0  0  0
  9 10  2  0  0  0  0
  9 20  1  0  0  0  0
 10 14  1  0  0  0  0
 11 15  1  0  0  0  0
 11 10  1  0  0  0  0
 12 11  2  0  0  0  0
 13 12  1  0  0  0  0
 13  9  1  0  0  0  0
 16 17  1  0  0  0  0
 17 18  2  0  0  0  0
 17 23  1  0  0  0  0
 18 24  1  0  0  0  0
 19 18  1  0  0  0  0
 20 19  2  0  0  0  0
 21 20  1  0  0  0  0
 21 16  2  0  0  0  0
 22 16  1  0  0  0  0
 25 26  2  0  0  0  0
 25  5  1  0  0  0  0
 27 30  1  6  0  0  0
 27 28  1  0  0  0  0
 27 25  1  0  0  0  0
 28 32  1  0  0  0  0
 29 27  1  0  0  0  0
 29 28  1  0  0  0  0
 29 33  1  1  0  0  0
 31 28  1  0  0  0  0
 34 41  1  1  0  0  0
 35 36  1  6  0  0  0
 35 34  1  0  0  0  0
 35 29  1  0  0  0  0
 36 37  1  0  0  0  0
 38 39  1  0  0  0  0
 38 36  1  0  0  0  0
 39 40  1  0  0  0  0
 39 34  1  0  0  0  0
 41 42  1  0  0  0  0
M  END
>  <minimizedAffinity>
-6.23623037

>  <minimizedRMSD>
0.124171771

$$$$
