
 OpenBabel03212520593D

 42 46  0  0  1  0  0  0  0  0999 V2000
   39.6290   77.0870   59.1870 C   0  0  0  0  0  0  0  0  0  0  0  0
   40.2550   75.9090   58.9620 C   0  0  0  0  0  0  0  0  0  0  0  0
   39.6710   75.1820   57.9160 C   0  0  0  0  0  0  0  0  0  0  0  0
   38.6050   75.5980   57.2070 N   0  0  0  0  0  0  0  0  0  0  0  0
   38.0460   76.8060   57.5150 C   0  0  0  0  0  0  0  0  0  0  0  0
   38.5610   77.5600   58.5150 N   0  0  0  0  0  0  0  0  0  0  0  0
   41.1000   75.5240   59.4860 H   0  0  0  0  0  0  0  0  0  0  0  0
   40.0550   74.2110   57.6060 H   0  0  0  0  0  0  0  0  0  0  0  0
   40.9480   80.0730   61.6330 C   0  0  0  0  0  0  0  0  0  0  0  0
   40.9110   78.8580   62.2710 C   0  0  0  0  0  0  0  0  0  0  0  0
   40.4920   77.7880   61.5690 C   0  0  0  0  0  0  0  0  0  0  0  0
   40.1180   77.9520   60.2390 C   0  0  0  0  0  0  0  0  0  0  0  0
   40.3700   79.7460   59.9430 S   0  0  0  0  0  0  0  0  0  0  0  0
   41.2040   78.7350   63.3130 H   0  0  0  0  0  0  0  0  0  0  0  0
   40.3910   76.7570   61.8840 H   0  0  0  0  0  0  0  0  0  0  0  0
   43.1070   82.8590   62.6540 C   0  0  0  0  0  0  0  0  0  0  0  0
   42.2370   83.6660   63.4320 C   0  0  0  0  0  0  0  0  0  0  0  0
   40.9030   83.2500   63.6020 C   0  0  0  0  0  0  0  0  0  0  0  0
   40.5190   82.1000   63.0140 N   0  0  0  0  0  0  0  0  0  0  0  0
   41.3830   81.3460   62.2710 C   0  0  0  0  0  0  0  0  0  0  0  0
   42.6480   81.7350   62.1060 N   0  0  0  0  0  0  0  0  0  0  0  0
   44.1170   83.2180   62.5520 H   0  0  0  0  0  0  0  0  0  0  0  0
   42.5150   84.5780   63.9060 H   0  0  0  0  0  0  0  0  0  0  0  0
   40.1940   83.8150   64.1780 H   0  0  0  0  0  0  0  0  0  0  0  0
   36.9030   77.2370   56.7300 C   0  0  0  0  0  0  0  0  0  0  0  0
   35.7860   77.1550   57.2570 O   0  0  0  0  0  0  0  0  0  0  0  0
   37.0540   77.7590   55.3190 C   0  0  1  0  0  0  0  0  0  0  0  0
   37.3520   79.2390   55.2730 C   0  0  0  0  0  0  0  0  0  0  0  0
   38.3360   78.2410   54.8510 C   0  0  2  0  0  0  0  0  0  0  0  0
   36.1640   77.5930   54.6590 H   0  0  0  0  0  0  0  0  0  0  0  0
   36.9570   79.8870   54.4710 H   0  0  0  0  0  0  0  0  0  0  0  0
   37.4570   79.7830   56.2320 H   0  0  0  0  0  0  0  0  0  0  0  0
   39.1980   78.0790   55.5580 H   0  0  0  0  0  0  0  0  0  0  0  0
   40.1920   78.3800   53.1780 C   0  0  2  0  0  3  0  0  0  0  0  0
   38.7330   78.0900   53.3970 C   0  0  1  0  0  3  0  0  0  0  0  0
   38.6720   76.6070   53.0280 C   0  0  0  0  0  3  0  0  0  0  0  0
   39.1510   76.0820   53.8820 H   0  0  0  0  0  0  0  0  0  0  0  0
   39.5270   76.5240   51.9460 O   0  0  0  0  0  0  0  0  0  0  0  0
   40.6570   77.2290   52.3430 C   0  0  0  0  0  3  0  0  0  0  0  0
   41.3870   76.5730   52.8770 H   0  0  0  0  0  0  0  0  0  0  0  0
   40.8090   78.3590   54.4260 O   0  0  0  0  0  0  0  0  0  0  0  0
   41.0170   79.2800   54.7230 H   0  0  0  0  0  0  0  0  0  0  0  0
  1 12  1  0  0  0  0
  2  1  1  0  0  0  0
  2  7  1  0  0  0  0
  3  2  2  0  0  0  0
  4  5  2  0  0  0  0
  4  3  1  0  0  0  0
  5  6  1  0  0  0  0
  6  1  2  0  0  0  0
  8  3  1  0  0  0  0
  9 20  1  0  0  0  0
  9 10  2  0  0  0  0
 10 14  1  0  0  0  0
 11 15  1  0  0  0  0
 11 10  1  0  0  0  0
 12 11  2  0  0  0  0
 13 12  1  0  0  0  0
 13  9  1  0  0  0  0
 16 17  1  0  0  0  0
 17 18  2  0  0  0  0
 17 23  1  0  0  0  0
 18 24  1  0  0  0  0
 19 18  1  0  0  0  0
 20 19  2  0  0  0  0
 21 20  1  0  0  0  0
 21 16  2  0  0  0  0
 22 16  1  0  0  0  0
 25 26  2  0  0  0  0
 25  5  1  0  0  0  0
 27 30  1  6  0  0  0
 27 25  1  0  0  0  0
 28 27  1  0  0  0  0
 28 32  1  0  0  0  0
 29 28  1  0  0  0  0
 29 27  1  0  0  0  0
 29 33  1  1  0  0  0
 31 28  1  0  0  0  0
 34 35  1  0  0  0  0
 34 41  1  1  0  0  0
 35 36  1  1  0  0  0
 35 29  1  0  0  0  0
 36 37  1  0  0  0  0
 38 39  1  0  0  0  0
 38 36  1  0  0  0  0
 39 40  1  0  0  0  0
 39 34  1  0  0  0  0
 41 42  1  0  0  0  0
M  END
>  <minimizedAffinity>
-6.14878178

>  <minimizedRMSD>
1.58637679

$$$$
