
 OpenBabel03212520383D

 26 28  0  0  1  0  0  0  0  0999 V2000
   41.7280   84.8740   59.4210 C   0  0  1  0  0  0  0  0  0  0  0  0
   42.6310   85.2790   58.2730 C   0  0  0  0  0  0  0  0  0  0  0  0
   42.2190   83.8320   58.4930 C   0  0  2  0  0  0  0  0  0  0  0  0
   40.6960   85.2720   59.4230 H   0  0  0  0  0  0  0  0  0  0  0  0
   43.6640   85.5750   58.5100 H   0  0  0  0  0  0  0  0  0  0  0  0
   42.1430   85.8740   57.5040 H   0  0  0  0  0  0  0  0  0  0  0  0
   43.0510   83.1840   58.8240 H   0  0  0  0  0  0  0  0  0  0  0  0
   40.4290   82.1350   58.3470 C   0  0  1  0  0  3  0  0  0  0  0  0
   41.2620   83.1540   57.5610 C   0  0  2  0  0  3  0  0  0  0  0  0
   41.8990   82.2190   56.5700 C   0  0  0  0  0  3  0  0  0  0  0  0
   42.2460   82.8110   55.6930 H   0  0  0  0  0  0  0  0  0  0  0  0
   40.8920   81.3430   56.1840 O   0  0  0  0  0  0  0  0  0  0  0  0
   39.9550   81.2730   57.1990 C   0  0  0  0  0  3  0  0  0  0  0  0
   38.9940   81.6360   56.8070 H   0  0  0  0  0  0  0  0  0  0  0  0
   41.2880   81.4580   59.2020 O   0  0  0  0  0  0  0  0  0  0  0  0
   40.9760   81.6280   60.1340 H   0  0  0  0  0  0  0  0  0  0  0  0
   42.3570   84.9660   60.6880 O   0  0  0  0  0  0  0  0  0  0  0  0
   39.9810   83.4760   62.9810 C   0  0  0  0  0  0  0  0  0  0  0  0
   40.6230   83.6280   64.2100 C   0  0  0  0  0  0  0  0  0  0  0  0
   41.8910   84.2570   64.2090 C   0  0  0  0  0  0  0  0  0  0  0  0
   42.3680   84.6550   63.0110 N   0  0  0  0  0  0  0  0  0  0  0  0
   41.7310   84.4980   61.8370 C   0  0  0  0  0  0  0  0  0  0  0  0
   40.5160   83.8980   61.8150 N   0  0  0  0  0  0  0  0  0  0  0  0
   38.9980   82.9950   62.9360 H   0  0  0  0  0  0  0  0  0  0  0  0
   40.1820   83.2840   65.1400 H   0  0  0  0  0  0  0  0  0  0  0  0
   42.4390   84.4040   65.1270 H   0  0  0  0  0  0  0  0  0  0  0  0
  1  4  1  6  0  0  0
  1 17  1  0  0  0  0
  2  3  1  0  0  0  0
  2  5  1  0  0  0  0
  2  1  1  0  0  0  0
  3  7  1  1  0  0  0
  3  1  1  0  0  0  0
  6  2  1  0  0  0  0
  8 15  1  1  0  0  0
  9 10  1  6  0  0  0
  9  8  1  0  0  0  0
  9  3  1  0  0  0  0
 11 10  1  0  0  0  0
 12 10  1  0  0  0  0
 12 13  1  0  0  0  0
 13  8  1  0  0  0  0
 14 13  1  0  0  0  0
 15 16  1  0  0  0  0
 17 22  1  0  0  0  0
 18 19  1  0  0  0  0
 19 25  1  0  0  0  0
 20 19  2  0  0  0  0
 20 26  1  0  0  0  0
 21 20  1  0  0  0  0
 22 21  2  0  0  0  0
 23 22  1  0  0  0  0
 23 18  2  0  0  0  0
 24 18  1  0  0  0  0
M  END
>  <minimizedAffinity>
-4.10112715

>  <minimizedRMSD>
2.12595797

$$$$
