
 OpenBabel03212520583D

 42 46  0  0  1  0  0  0  0  0999 V2000
   39.8970   77.5710   59.0980 C   0  0  0  0  0  0  0  0  0  0  0  0
   40.6530   76.5030   58.7540 C   0  0  0  0  0  0  0  0  0  0  0  0
   40.1310   75.8080   57.6550 C   0  0  0  0  0  0  0  0  0  0  0  0
   39.0040   76.1550   57.0040 N   0  0  0  0  0  0  0  0  0  0  0  0
   38.3140   77.2530   57.4310 C   0  0  0  0  0  0  0  0  0  0  0  0
   38.7620   77.9700   58.4890 N   0  0  0  0  0  0  0  0  0  0  0  0
   41.5510   76.1770   59.2270 H   0  0  0  0  0  0  0  0  0  0  0  0
   40.6190   74.9220   57.2500 H   0  0  0  0  0  0  0  0  0  0  0  0
   40.9940   80.4550   61.7660 C   0  0  0  0  0  0  0  0  0  0  0  0
   40.9790   79.2030   62.3300 C   0  0  0  0  0  0  0  0  0  0  0  0
   40.6330   78.1620   61.5510 C   0  0  0  0  0  0  0  0  0  0  0  0
   40.3070   78.3910   60.2180 C   0  0  0  0  0  0  0  0  0  0  0  0
   40.4990   80.2070   60.0360 S   0  0  0  0  0  0  0  0  0  0  0  0
   41.2340   79.0300   63.3750 H   0  0  0  0  0  0  0  0  0  0  0  0
   40.5600   77.1110   61.8010 H   0  0  0  0  0  0  0  0  0  0  0  0
   42.9950   83.2580   63.0330 C   0  0  0  0  0  0  0  0  0  0  0  0
   42.0630   83.9820   63.8210 C   0  0  0  0  0  0  0  0  0  0  0  0
   40.7430   83.5030   63.9140 C   0  0  0  0  0  0  0  0  0  0  0  0
   40.4290   82.3760   63.2450 N   0  0  0  0  0  0  0  0  0  0  0  0
   41.3510   81.7040   62.4930 C   0  0  0  0  0  0  0  0  0  0  0  0
   42.6040   82.1510   62.4020 N   0  0  0  0  0  0  0  0  0  0  0  0
   43.9920   83.6620   62.9920 H   0  0  0  0  0  0  0  0  0  0  0  0
   42.2850   84.8730   64.3590 H   0  0  0  0  0  0  0  0  0  0  0  0
   39.9900   84.0040   64.4940 H   0  0  0  0  0  0  0  0  0  0  0  0
   37.1080   77.6120   56.7080 C   0  0  0  0  0  0  0  0  0  0  0  0
   36.0340   77.1650   57.1330 O   0  0  0  0  0  0  0  0  0  0  0  0
   37.1450   78.4870   55.4770 C   0  0  1  0  0  0  0  0  0  0  0  0
   37.2930   79.9540   55.8070 C   0  0  0  0  0  0  0  0  0  0  0  0
   38.3520   79.2070   55.1270 C   0  0  2  0  0  0  0  0  0  0  0  0
   36.2480   78.4010   54.8110 H   0  0  0  0  0  0  0  0  0  0  0  0
   36.8030   80.7380   55.2050 H   0  0  0  0  0  0  0  0  0  0  0  0
   37.3860   80.2450   56.8720 H   0  0  0  0  0  0  0  0  0  0  0  0
   39.2550   78.9620   55.7550 H   0  0  0  0  0  0  0  0  0  0  0  0
   39.7760   78.5490   53.1760 C   0  0  2  0  0  3  0  0  0  0  0  0
   38.6990   79.4720   53.6760 C   0  0  1  0  0  3  0  0  0  0  0  0
   37.5170   79.0400   52.8060 C   0  0  0  0  0  3  0  0  0  0  0  0
   37.2040   78.0580   53.2210 H   0  0  0  0  0  0  0  0  0  0  0  0
   38.1080   78.8110   51.5790 O   0  0  0  0  0  0  0  0  0  0  0  0
   39.2360   78.0540   51.8700 C   0  0  0  0  0  3  0  0  0  0  0  0
   39.0080   76.9610   51.8840 H   0  0  0  0  0  0  0  0  0  0  0  0
   39.8810   77.5040   54.0900 O   0  0  0  0  0  0  0  0  0  0  0  0
   40.6970   77.6090   54.6410 H   0  0  0  0  0  0  0  0  0  0  0  0
  1 12  1  0  0  0  0
  2  1  1  0  0  0  0
  2  7  1  0  0  0  0
  3  2  2  0  0  0  0
  4  5  2  0  0  0  0
  4  3  1  0  0  0  0
  5  6  1  0  0  0  0
  6  1  2  0  0  0  0
  8  3  1  0  0  0  0
  9 10  2  0  0  0  0
  9 20  1  0  0  0  0
 10 14  1  0  0  0  0
 11 15  1  0  0  0  0
 11 10  1  0  0  0  0
 12 11  2  0  0  0  0
 13 12  1  0  0  0  0
 13  9  1  0  0  0  0
 16 17  1  0  0  0  0
 17 18  2  0  0  0  0
 17 23  1  0  0  0  0
 18 24  1  0  0  0  0
 19 18  1  0  0  0  0
 20 19  2  0  0  0  0
 21 20  1  0  0  0  0
 21 16  2  0  0  0  0
 22 16  1  0  0  0  0
 25 26  2  0  0  0  0
 25  5  1  0  0  0  0
 27 30  1  6  0  0  0
 27 28  1  0  0  0  0
 27 25  1  0  0  0  0
 28 32  1  0  0  0  0
 29 27  1  0  0  0  0
 29 33  1  1  0  0  0
 29 28  1  0  0  0  0
 31 28  1  0  0  0  0
 34 35  1  0  0  0  0
 34 41  1  1  0  0  0
 35 36  1  6  0  0  0
 35 29  1  0  0  0  0
 36 37  1  0  0  0  0
 38 39  1  0  0  0  0
 38 36  1  0  0  0  0
 39 40  1  0  0  0  0
 39 34  1  0  0  0  0
 41 42  1  0  0  0  0
M  END
>  <minimizedAffinity>
-6.40111637

>  <minimizedRMSD>
0.796268404

$$$$
