
 OpenBabel03212520593D

 42 46  0  0  1  0  0  0  0  0999 V2000
   39.8970   77.5710   59.0970 C   0  0  0  0  0  0  0  0  0  0  0  0
   40.6530   76.5030   58.7530 C   0  0  0  0  0  0  0  0  0  0  0  0
   40.1310   75.8080   57.6540 C   0  0  0  0  0  0  0  0  0  0  0  0
   39.0040   76.1540   57.0030 N   0  0  0  0  0  0  0  0  0  0  0  0
   38.3140   77.2530   57.4310 C   0  0  0  0  0  0  0  0  0  0  0  0
   38.7630   77.9700   58.4880 N   0  0  0  0  0  0  0  0  0  0  0  0
   41.5510   76.1770   59.2260 H   0  0  0  0  0  0  0  0  0  0  0  0
   40.6190   74.9220   57.2490 H   0  0  0  0  0  0  0  0  0  0  0  0
   40.9940   80.4540   61.7650 C   0  0  0  0  0  0  0  0  0  0  0  0
   40.9820   79.2030   62.3290 C   0  0  0  0  0  0  0  0  0  0  0  0
   40.6370   78.1610   61.5500 C   0  0  0  0  0  0  0  0  0  0  0  0
   40.3080   78.3900   60.2170 C   0  0  0  0  0  0  0  0  0  0  0  0
   40.4970   80.2070   60.0360 S   0  0  0  0  0  0  0  0  0  0  0  0
   41.2400   79.0290   63.3730 H   0  0  0  0  0  0  0  0  0  0  0  0
   40.5650   77.1100   61.7990 H   0  0  0  0  0  0  0  0  0  0  0  0
   42.9940   83.2570   63.0350 C   0  0  0  0  0  0  0  0  0  0  0  0
   42.0610   83.9820   63.8220 C   0  0  0  0  0  0  0  0  0  0  0  0
   40.7400   83.5040   63.9120 C   0  0  0  0  0  0  0  0  0  0  0  0
   40.4270   82.3760   63.2430 N   0  0  0  0  0  0  0  0  0  0  0  0
   41.3500   81.7040   62.4930 C   0  0  0  0  0  0  0  0  0  0  0  0
   42.6040   82.1510   62.4030 N   0  0  0  0  0  0  0  0  0  0  0  0
   43.9910   83.6610   62.9950 H   0  0  0  0  0  0  0  0  0  0  0  0
   42.2820   84.8740   64.3590 H   0  0  0  0  0  0  0  0  0  0  0  0
   39.9870   84.0050   64.4910 H   0  0  0  0  0  0  0  0  0  0  0  0
   37.1080   77.6120   56.7080 C   0  0  0  0  0  0  0  0  0  0  0  0
   36.0340   77.1650   57.1340 O   0  0  0  0  0  0  0  0  0  0  0  0
   37.1450   78.4870   55.4770 C   0  0  1  0  0  0  0  0  0  0  0  0
   37.2930   79.9540   55.8070 C   0  0  0  0  0  0  0  0  0  0  0  0
   38.3520   79.2070   55.1270 C   0  0  2  0  0  0  0  0  0  0  0  0
   36.2490   78.4000   54.8100 H   0  0  0  0  0  0  0  0  0  0  0  0
   36.8020   80.7380   55.2040 H   0  0  0  0  0  0  0  0  0  0  0  0
   37.3850   80.2450   56.8720 H   0  0  0  0  0  0  0  0  0  0  0  0
   39.2550   78.9630   55.7550 H   0  0  0  0  0  0  0  0  0  0  0  0
   39.7760   78.5500   53.1770 C   0  0  2  0  0  3  0  0  0  0  0  0
   38.6990   79.4730   53.6760 C   0  0  1  0  0  3  0  0  0  0  0  0
   37.5170   79.0390   52.8060 C   0  0  0  0  0  3  0  0  0  0  0  0
   37.2040   78.0590   53.2210 H   0  0  0  0  0  0  0  0  0  0  0  0
   38.1080   78.8110   51.5790 O   0  0  0  0  0  0  0  0  0  0  0  0
   39.2360   78.0550   51.8710 C   0  0  0  0  0  3  0  0  0  0  0  0
   39.0080   76.9600   51.8850 H   0  0  0  0  0  0  0  0  0  0  0  0
   39.8820   77.5040   54.0900 O   0  0  0  0  0  0  0  0  0  0  0  0
   40.6960   77.6090   54.6410 H   0  0  0  0  0  0  0  0  0  0  0  0
  1 12  1  0  0  0  0
  2  1  1  0  0  0  0
  2  7  1  0  0  0  0
  3  2  2  0  0  0  0
  4  5  2  0  0  0  0
  4  3  1  0  0  0  0
  5  6  1  0  0  0  0
  6  1  2  0  0  0  0
  8  3  1  0  0  0  0
  9 10  2  0  0  0  0
  9 20  1  0  0  0  0
 10 14  1  0  0  0  0
 11 15  1  0  0  0  0
 11 10  1  0  0  0  0
 12 11  2  0  0  0  0
 13 12  1  0  0  0  0
 13  9  1  0  0  0  0
 16 17  1  0  0  0  0
 17 18  2  0  0  0  0
 17 23  1  0  0  0  0
 18 24  1  0  0  0  0
 19 18  1  0  0  0  0
 20 19  2  0  0  0  0
 21 20  1  0  0  0  0
 21 16  2  0  0  0  0
 22 16  1  0  0  0  0
 25 26  2  0  0  0  0
 25  5  1  0  0  0  0
 27 30  1  6  0  0  0
 27 28  1  0  0  0  0
 27 25  1  0  0  0  0
 28 32  1  0  0  0  0
 29 27  1  0  0  0  0
 29 33  1  1  0  0  0
 29 28  1  0  0  0  0
 31 28  1  0  0  0  0
 34 35  1  0  0  0  0
 34 41  1  1  0  0  0
 35 36  1  6  0  0  0
 35 29  1  0  0  0  0
 36 37  1  0  0  0  0
 38 39  1  0  0  0  0
 38 36  1  0  0  0  0
 39 40  1  0  0  0  0
 39 34  1  0  0  0  0
 41 42  1  0  0  0  0
M  END
>  <minimizedAffinity>
-6.4009223

>  <minimizedRMSD>
0.634928823

$$$$
