
 OpenBabel03212520583D

 42 46  0  0  1  0  0  0  0  0999 V2000
   40.0870   77.8480   59.0500 C   0  0  0  0  0  0  0  0  0  0  0  0
   40.9480   76.9040   58.6050 C   0  0  0  0  0  0  0  0  0  0  0  0
   40.4610   76.2190   57.4840 C   0  0  0  0  0  0  0  0  0  0  0  0
   39.2690   76.4610   56.9050 N   0  0  0  0  0  0  0  0  0  0  0  0
   38.4730   77.4370   57.4330 C   0  0  0  0  0  0  0  0  0  0  0  0
   38.8830   78.1390   58.5170 N   0  0  0  0  0  0  0  0  0  0  0  0
   41.9020   76.6640   59.0170 H   0  0  0  0  0  0  0  0  0  0  0  0
   41.0310   75.4260   57.0010 H   0  0  0  0  0  0  0  0  0  0  0  0
   41.0390   80.6740   61.8320 C   0  0  0  0  0  0  0  0  0  0  0  0
   41.0600   79.4050   62.3530 C   0  0  0  0  0  0  0  0  0  0  0  0
   40.7630   78.3790   61.5340 C   0  0  0  0  0  0  0  0  0  0  0  0
   40.4500   78.6420   60.2030 C   0  0  0  0  0  0  0  0  0  0  0  0
   40.5800   80.4690   60.0860 S   0  0  0  0  0  0  0  0  0  0  0  0
   41.3050   79.2050   63.3960 H   0  0  0  0  0  0  0  0  0  0  0  0
   40.7230   77.3190   61.7470 H   0  0  0  0  0  0  0  0  0  0  0  0
   42.9090   83.5230   63.1950 C   0  0  0  0  0  0  0  0  0  0  0  0
   41.9500   84.1650   64.0210 C   0  0  0  0  0  0  0  0  0  0  0  0
   40.6570   83.6160   64.1070 C   0  0  0  0  0  0  0  0  0  0  0  0
   40.3930   82.5020   63.3940 N   0  0  0  0  0  0  0  0  0  0  0  0
   41.3400   81.9100   62.6070 C   0  0  0  0  0  0  0  0  0  0  0  0
   42.5670   82.4240   62.5220 N   0  0  0  0  0  0  0  0  0  0  0  0
   43.8830   83.9790   63.1610 H   0  0  0  0  0  0  0  0  0  0  0  0
   42.1320   85.0440   64.5930 H   0  0  0  0  0  0  0  0  0  0  0  0
   39.8860   84.0530   64.7140 H   0  0  0  0  0  0  0  0  0  0  0  0
   37.1980   77.6880   56.7870 C   0  0  0  0  0  0  0  0  0  0  0  0
   36.2040   77.1060   57.2430 O   0  0  0  0  0  0  0  0  0  0  0  0
   37.0730   78.6110   55.5960 C   0  0  1  0  0  0  0  0  0  0  0  0
   37.1920   80.0680   55.9730 C   0  0  0  0  0  0  0  0  0  0  0  0
   38.2070   79.3980   55.1590 C   0  0  2  0  0  0  0  0  0  0  0  0
   36.1180   78.5080   55.0200 H   0  0  0  0  0  0  0  0  0  0  0  0
   36.6100   80.8520   55.4560 H   0  0  0  0  0  0  0  0  0  0  0  0
   37.3790   80.3220   57.0350 H   0  0  0  0  0  0  0  0  0  0  0  0
   39.1790   79.1720   55.6830 H   0  0  0  0  0  0  0  0  0  0  0  0
   39.5040   78.9360   53.0690 C   0  0  2  0  0  3  0  0  0  0  0  0
   38.3940   79.7350   53.6940 C   0  0  1  0  0  3  0  0  0  0  0  0
   37.1840   79.2110   52.9160 C   0  0  0  0  0  3  0  0  0  0  0  0
   37.0050   78.1930   53.3230 H   0  0  0  0  0  0  0  0  0  0  0  0
   37.6790   79.0740   51.6350 O   0  0  0  0  0  0  0  0  0  0  0  0
   38.8960   78.4240   51.8000 C   0  0  0  0  0  3  0  0  0  0  0  0
   38.7770   77.3140   51.7940 H   0  0  0  0  0  0  0  0  0  0  0  0
   39.7910   77.8820   53.9330 O   0  0  0  0  0  0  0  0  0  0  0  0
   40.6400   78.0510   54.4130 H   0  0  0  0  0  0  0  0  0  0  0  0
  1 12  1  0  0  0  0
  2  7  1  0  0  0  0
  2  1  1  0  0  0  0
  3  2  2  0  0  0  0
  4  5  2  0  0  0  0
  4  3  1  0  0  0  0
  5  6  1  0  0  0  0
  6  1  2  0  0  0  0
  8  3  1  0  0  0  0
  9 10  2  0  0  0  0
  9 20  1  0  0  0  0
 10 14  1  0  0  0  0
 11 15  1  0  0  0  0
 11 10  1  0  0  0  0
 12 11  2  0  0  0  0
 13 12  1  0  0  0  0
 13  9  1  0  0  0  0
 16 17  1  0  0  0  0
 17 18  2  0  0  0  0
 17 23  1  0  0  0  0
 18 24  1  0  0  0  0
 19 18  1  0  0  0  0
 20 19  2  0  0  0  0
 21 20  1  0  0  0  0
 21 16  2  0  0  0  0
 22 16  1  0  0  0  0
 25 26  2  0  0  0  0
 25  5  1  0  0  0  0
 27 30  1  6  0  0  0
 27 28  1  0  0  0  0
 27 25  1  0  0  0  0
 28 32  1  0  0  0  0
 29 27  1  0  0  0  0
 29 33  1  1  0  0  0
 29 28  1  0  0  0  0
 31 28  1  0  0  0  0
 34 35  1  0  0  0  0
 34 41  1  1  0  0  0
 35 36  1  6  0  0  0
 35 29  1  0  0  0  0
 36 37  1  0  0  0  0
 38 39  1  0  0  0  0
 38 36  1  0  0  0  0
 39 34  1  0  0  0  0
 40 39  1  0  0  0  0
 41 42  1  0  0  0  0
M  END
>  <minimizedAffinity>
-6.40748358

>  <minimizedRMSD>
1.09477067

$$$$
