
 OpenBabel03212520583D

 42 46  0  0  1  0  0  0  0  0999 V2000
   39.7570   77.2720   59.2100 C   0  0  0  0  0  0  0  0  0  0  0  0
   40.4230   76.1200   58.9700 C   0  0  0  0  0  0  0  0  0  0  0  0
   39.8750   75.3960   57.9030 C   0  0  0  0  0  0  0  0  0  0  0  0
   38.8050   75.7920   57.1880 N   0  0  0  0  0  0  0  0  0  0  0  0
   38.2040   76.9740   57.5120 C   0  0  0  0  0  0  0  0  0  0  0  0
   38.6820   77.7240   58.5330 N   0  0  0  0  0  0  0  0  0  0  0  0
   41.2730   75.7510   59.4980 H   0  0  0  0  0  0  0  0  0  0  0  0
   40.2930   74.4430   57.5790 H   0  0  0  0  0  0  0  0  0  0  0  0
   40.9670   80.2460   61.7260 C   0  0  0  0  0  0  0  0  0  0  0  0
   40.9290   79.0230   62.3480 C   0  0  0  0  0  0  0  0  0  0  0  0
   40.5440   77.9560   61.6230 C   0  0  0  0  0  0  0  0  0  0  0  0
   40.2040   78.1310   60.2850 C   0  0  0  0  0  0  0  0  0  0  0  0
   40.4410   79.9320   60.0160 S   0  0  0  0  0  0  0  0  0  0  0  0
   41.1950   78.8910   63.3960 H   0  0  0  0  0  0  0  0  0  0  0  0
   40.4470   76.9200   61.9230 H   0  0  0  0  0  0  0  0  0  0  0  0
   43.0510   83.0660   62.8070 C   0  0  0  0  0  0  0  0  0  0  0  0
   42.1580   83.8350   63.5990 C   0  0  0  0  0  0  0  0  0  0  0  0
   40.8350   83.3800   63.7580 C   0  0  0  0  0  0  0  0  0  0  0  0
   40.4820   82.2320   63.1460 N   0  0  0  0  0  0  0  0  0  0  0  0
   41.3680   81.5170   62.3890 C   0  0  0  0  0  0  0  0  0  0  0  0
   42.6220   81.9420   62.2350 N   0  0  0  0  0  0  0  0  0  0  0  0
   44.0510   83.4540   62.7140 H   0  0  0  0  0  0  0  0  0  0  0  0
   42.4110   84.7440   64.0920 H   0  0  0  0  0  0  0  0  0  0  0  0
   40.1110   83.9150   64.3430 H   0  0  0  0  0  0  0  0  0  0  0  0
   37.0580   77.3850   56.7210 C   0  0  0  0  0  0  0  0  0  0  0  0
   35.9330   77.1810   57.1980 O   0  0  0  0  0  0  0  0  0  0  0  0
   37.2140   78.0270   55.3620 C   0  0  1  0  0  0  0  0  0  0  0  0
   37.2210   79.5360   55.4270 C   0  0  0  0  0  0  0  0  0  0  0  0
   38.4110   78.7760   55.0390 C   0  0  2  0  0  0  0  0  0  0  0  0
   36.4280   77.7450   54.6150 H   0  0  0  0  0  0  0  0  0  0  0  0
   36.7730   80.1550   54.6310 H   0  0  0  0  0  0  0  0  0  0  0  0
   37.1440   80.0190   56.4210 H   0  0  0  0  0  0  0  0  0  0  0  0
   39.2300   78.7280   55.8120 H   0  0  0  0  0  0  0  0  0  0  0  0
   39.8610   79.9760   53.3910 C   0  0  2  0  0  3  0  0  0  0  0  0
   38.9420   78.8090   53.6210 C   0  0  1  0  0  3  0  0  0  0  0  0
   39.9080   77.6370   53.4360 C   0  0  0  0  0  3  0  0  0  0  0  0
   40.5320   77.6350   54.3550 H   0  0  0  0  0  0  0  0  0  0  0  0
   40.7010   78.0560   52.3870 O   0  0  0  0  0  0  0  0  0  0  0  0
   41.0440   79.3630   52.7100 C   0  0  0  0  0  3  0  0  0  0  0  0
   41.9710   79.4050   53.3330 H   0  0  0  0  0  0  0  0  0  0  0  0
   40.2190   80.4740   54.6420 O   0  0  0  0  0  0  0  0  0  0  0  0
   39.7400   81.3200   54.8260 H   0  0  0  0  0  0  0  0  0  0  0  0
  1 12  1  0  0  0  0
  2  1  1  0  0  0  0
  2  7  1  0  0  0  0
  3  2  2  0  0  0  0
  4  5  2  0  0  0  0
  4  3  1  0  0  0  0
  5  6  1  0  0  0  0
  6  1  2  0  0  0  0
  8  3  1  0  0  0  0
  9 10  2  0  0  0  0
  9 20  1  0  0  0  0
 10 14  1  0  0  0  0
 11 15  1  0  0  0  0
 11 10  1  0  0  0  0
 12 11  2  0  0  0  0
 13 12  1  0  0  0  0
 13  9  1  0  0  0  0
 16 17  1  0  0  0  0
 17 18  2  0  0  0  0
 17 23  1  0  0  0  0
 18 24  1  0  0  0  0
 19 18  1  0  0  0  0
 20 19  2  0  0  0  0
 21 20  1  0  0  0  0
 21 16  2  0  0  0  0
 22 16  1  0  0  0  0
 25 26  2  0  0  0  0
 25  5  1  0  0  0  0
 27 30  1  6  0  0  0
 27 28  1  0  0  0  0
 27 25  1  0  0  0  0
 28 32  1  0  0  0  0
 29 27  1  0  0  0  0
 29 28  1  0  0  0  0
 29 33  1  1  0  0  0
 31 28  1  0  0  0  0
 34 35  1  0  0  0  0
 34 41  1  1  0  0  0
 35 36  1  1  0  0  0
 35 29  1  0  0  0  0
 36 37  1  0  0  0  0
 38 39  1  0  0  0  0
 38 36  1  0  0  0  0
 39 40  1  0  0  0  0
 39 34  1  0  0  0  0
 41 42  1  0  0  0  0
M  END
>  <minimizedAffinity>
-6.18334723

>  <minimizedRMSD>
1.02197301

$$$$
