
 OpenBabel03212520583D

 42 46  0  0  1  0  0  0  0  0999 V2000
   39.8960   77.5710   59.0990 C   0  0  0  0  0  0  0  0  0  0  0  0
   40.6530   76.5040   58.7550 C   0  0  0  0  0  0  0  0  0  0  0  0
   40.1320   75.8090   57.6550 C   0  0  0  0  0  0  0  0  0  0  0  0
   39.0050   76.1540   57.0040 N   0  0  0  0  0  0  0  0  0  0  0  0
   38.3140   77.2520   57.4320 C   0  0  0  0  0  0  0  0  0  0  0  0
   38.7620   77.9690   58.4890 N   0  0  0  0  0  0  0  0  0  0  0  0
   41.5510   76.1780   59.2280 H   0  0  0  0  0  0  0  0  0  0  0  0
   40.6210   74.9230   57.2500 H   0  0  0  0  0  0  0  0  0  0  0  0
   40.9930   80.4550   61.7670 C   0  0  0  0  0  0  0  0  0  0  0  0
   40.9760   79.2040   62.3320 C   0  0  0  0  0  0  0  0  0  0  0  0
   40.6300   78.1620   61.5530 C   0  0  0  0  0  0  0  0  0  0  0  0
   40.3060   78.3910   60.2190 C   0  0  0  0  0  0  0  0  0  0  0  0
   40.5000   80.2070   60.0360 S   0  0  0  0  0  0  0  0  0  0  0  0
   41.2300   79.0310   63.3770 H   0  0  0  0  0  0  0  0  0  0  0  0
   40.5550   77.1120   61.8030 H   0  0  0  0  0  0  0  0  0  0  0  0
   42.9950   83.2580   63.0320 C   0  0  0  0  0  0  0  0  0  0  0  0
   42.0640   83.9820   63.8220 C   0  0  0  0  0  0  0  0  0  0  0  0
   40.7430   83.5030   63.9160 C   0  0  0  0  0  0  0  0  0  0  0  0
   40.4290   82.3760   63.2460 N   0  0  0  0  0  0  0  0  0  0  0  0
   41.3510   81.7040   62.4940 C   0  0  0  0  0  0  0  0  0  0  0  0
   42.6040   82.1510   62.4020 N   0  0  0  0  0  0  0  0  0  0  0  0
   43.9920   83.6620   62.9910 H   0  0  0  0  0  0  0  0  0  0  0  0
   42.2860   84.8730   64.3590 H   0  0  0  0  0  0  0  0  0  0  0  0
   39.9910   84.0040   64.4960 H   0  0  0  0  0  0  0  0  0  0  0  0
   37.1080   77.6110   56.7080 C   0  0  0  0  0  0  0  0  0  0  0  0
   36.0340   77.1630   57.1330 O   0  0  0  0  0  0  0  0  0  0  0  0
   37.1450   78.4860   55.4770 C   0  0  1  0  0  0  0  0  0  0  0  0
   37.2920   79.9530   55.8080 C   0  0  0  0  0  0  0  0  0  0  0  0
   38.3520   79.2060   55.1270 C   0  0  2  0  0  0  0  0  0  0  0  0
   36.2490   78.3990   54.8110 H   0  0  0  0  0  0  0  0  0  0  0  0
   36.8020   80.7370   55.2060 H   0  0  0  0  0  0  0  0  0  0  0  0
   37.3850   80.2440   56.8730 H   0  0  0  0  0  0  0  0  0  0  0  0
   39.2550   78.9620   55.7560 H   0  0  0  0  0  0  0  0  0  0  0  0
   39.7750   78.5500   53.1770 C   0  0  2  0  0  3  0  0  0  0  0  0
   38.6990   79.4730   53.6770 C   0  0  1  0  0  3  0  0  0  0  0  0
   37.5180   79.0390   52.8060 C   0  0  0  0  0  3  0  0  0  0  0  0
   37.2030   78.0580   53.2220 H   0  0  0  0  0  0  0  0  0  0  0  0
   38.1080   78.8110   51.5790 O   0  0  0  0  0  0  0  0  0  0  0  0
   39.2360   78.0550   51.8720 C   0  0  0  0  0  3  0  0  0  0  0  0
   39.0090   76.9620   51.8850 H   0  0  0  0  0  0  0  0  0  0  0  0
   39.8810   77.5040   54.0910 O   0  0  0  0  0  0  0  0  0  0  0  0
   40.6960   77.6090   54.6420 H   0  0  0  0  0  0  0  0  0  0  0  0
  1 12  1  0  0  0  0
  2  1  1  0  0  0  0
  2  7  1  0  0  0  0
  3  2  2  0  0  0  0
  4  5  2  0  0  0  0
  4  3  1  0  0  0  0
  5  6  1  0  0  0  0
  6  1  2  0  0  0  0
  8  3  1  0  0  0  0
  9 10  2  0  0  0  0
  9 20  1  0  0  0  0
 10 14  1  0  0  0  0
 11 15  1  0  0  0  0
 11 10  1  0  0  0  0
 12 11  2  0  0  0  0
 13 12  1  0  0  0  0
 13  9  1  0  0  0  0
 16 17  1  0  0  0  0
 17 18  2  0  0  0  0
 17 23  1  0  0  0  0
 18 24  1  0  0  0  0
 19 18  1  0  0  0  0
 20 19  2  0  0  0  0
 21 20  1  0  0  0  0
 21 16  2  0  0  0  0
 22 16  1  0  0  0  0
 25 26  2  0  0  0  0
 25  5  1  0  0  0  0
 27 30  1  6  0  0  0
 27 28  1  0  0  0  0
 27 25  1  0  0  0  0
 28 32  1  0  0  0  0
 29 27  1  0  0  0  0
 29 33  1  1  0  0  0
 29 28  1  0  0  0  0
 31 28  1  0  0  0  0
 34 35  1  0  0  0  0
 34 41  1  1  0  0  0
 35 36  1  6  0  0  0
 35 29  1  0  0  0  0
 36 37  1  0  0  0  0
 38 39  1  0  0  0  0
 38 36  1  0  0  0  0
 39 40  1  0  0  0  0
 39 34  1  0  0  0  0
 41 42  1  0  0  0  0
M  END
>  <minimizedAffinity>
-6.4011054

>  <minimizedRMSD>
0.341816932

$$$$
