
 OpenBabel03212520583D

 42 46  0  0  1  0  0  0  0  0999 V2000
   39.7600   77.3440   59.2180 C   0  0  0  0  0  0  0  0  0  0  0  0
   40.4050   76.1790   58.9800 C   0  0  0  0  0  0  0  0  0  0  0  0
   39.8490   75.4660   57.9100 C   0  0  0  0  0  0  0  0  0  0  0  0
   38.7900   75.8830   57.1900 N   0  0  0  0  0  0  0  0  0  0  0  0
   38.2100   77.0770   57.5120 C   0  0  0  0  0  0  0  0  0  0  0  0
   38.6980   77.8170   58.5360 N   0  0  0  0  0  0  0  0  0  0  0  0
   41.2460   75.7940   59.5120 H   0  0  0  0  0  0  0  0  0  0  0  0
   40.2510   74.5060   57.5870 H   0  0  0  0  0  0  0  0  0  0  0  0
   40.9810   80.2980   61.7520 C   0  0  0  0  0  0  0  0  0  0  0  0
   40.9760   79.0650   62.3560 C   0  0  0  0  0  0  0  0  0  0  0  0
   40.5920   78.0030   61.6230 C   0  0  0  0  0  0  0  0  0  0  0  0
   40.2190   78.1930   60.2960 C   0  0  0  0  0  0  0  0  0  0  0  0
   40.4200   80.0020   60.0500 S   0  0  0  0  0  0  0  0  0  0  0  0
   41.2690   78.9220   63.3950 H   0  0  0  0  0  0  0  0  0  0  0  0
   40.5190   76.9610   61.9090 H   0  0  0  0  0  0  0  0  0  0  0  0
   43.0570   83.1100   62.8700 C   0  0  0  0  0  0  0  0  0  0  0  0
   42.1570   83.8760   63.6560 C   0  0  0  0  0  0  0  0  0  0  0  0
   40.8320   83.4220   63.7990 C   0  0  0  0  0  0  0  0  0  0  0  0
   40.4840   82.2780   63.1770 N   0  0  0  0  0  0  0  0  0  0  0  0
   41.3760   81.5650   62.4270 C   0  0  0  0  0  0  0  0  0  0  0  0
   42.6330   81.9890   62.2880 N   0  0  0  0  0  0  0  0  0  0  0  0
   44.0590   83.4960   62.7900 H   0  0  0  0  0  0  0  0  0  0  0  0
   42.4060   84.7820   64.1570 H   0  0  0  0  0  0  0  0  0  0  0  0
   40.1020   83.9550   64.3790 H   0  0  0  0  0  0  0  0  0  0  0  0
   37.0760   77.5100   56.7160 C   0  0  0  0  0  0  0  0  0  0  0  0
   35.9630   77.0590   57.0180 O   0  0  0  0  0  0  0  0  0  0  0  0
   37.2340   78.4640   55.5550 C   0  0  1  0  0  0  0  0  0  0  0  0
   37.2300   79.9120   55.9840 C   0  0  0  0  0  0  0  0  0  0  0  0
   38.4260   79.2760   55.4310 C   0  0  2  0  0  0  0  0  0  0  0  0
   36.4520   78.3670   54.7570 H   0  0  0  0  0  0  0  0  0  0  0  0
   36.7800   80.7030   55.3600 H   0  0  0  0  0  0  0  0  0  0  0  0
   37.1440   80.1380   57.0660 H   0  0  0  0  0  0  0  0  0  0  0  0
   39.2420   79.0460   56.1730 H   0  0  0  0  0  0  0  0  0  0  0  0
   40.4350   79.9590   54.1040 C   0  0  2  0  0  3  0  0  0  0  0  0
   38.9630   79.6560   54.0660 C   0  0  1  0  0  3  0  0  0  0  0  0
   38.9440   78.4140   53.1730 C   0  0  0  0  0  3  0  0  0  0  0  0
   39.3390   77.5970   53.8130 H   0  0  0  0  0  0  0  0  0  0  0  0
   39.9000   78.7060   52.2200 O   0  0  0  0  0  0  0  0  0  0  0  0
   40.9830   79.1790   52.9500 C   0  0  0  0  0  3  0  0  0  0  0  0
   41.6600   78.3490   53.2700 H   0  0  0  0  0  0  0  0  0  0  0  0
   40.9280   79.4610   55.3070 O   0  0  0  0  0  0  0  0  0  0  0  0
   41.1030   80.2000   55.9410 H   0  0  0  0  0  0  0  0  0  0  0  0
  1 12  1  0  0  0  0
  2  1  1  0  0  0  0
  2  7  1  0  0  0  0
  3  2  2  0  0  0  0
  4  5  2  0  0  0  0
  4  3  1  0  0  0  0
  5  6  1  0  0  0  0
  6  1  2  0  0  0  0
  8  3  1  0  0  0  0
  9 10  2  0  0  0  0
  9 20  1  0  0  0  0
 10 14  1  0  0  0  0
 11 15  1  0  0  0  0
 11 10  1  0  0  0  0
 12 11  2  0  0  0  0
 13 12  1  0  0  0  0
 13  9  1  0  0  0  0
 16 17  1  0  0  0  0
 17 18  2  0  0  0  0
 17 23  1  0  0  0  0
 18 24  1  0  0  0  0
 19 18  1  0  0  0  0
 20 19  2  0  0  0  0
 21 20  1  0  0  0  0
 21 16  2  0  0  0  0
 22 16  1  0  0  0  0
 25 26  2  0  0  0  0
 25  5  1  0  0  0  0
 27 30  1  6  0  0  0
 27 28  1  0  0  0  0
 27 25  1  0  0  0  0
 28 32  1  0  0  0  0
 29 27  1  0  0  0  0
 29 28  1  0  0  0  0
 29 33  1  1  0  0  0
 31 28  1  0  0  0  0
 34 41  1  1  0  0  0
 35 36  1  6  0  0  0
 35 34  1  0  0  0  0
 35 29  1  0  0  0  0
 36 37  1  0  0  0  0
 38 39  1  0  0  0  0
 38 36  1  0  0  0  0
 39 40  1  0  0  0  0
 39 34  1  0  0  0  0
 41 42  1  0  0  0  0
M  END
>  <minimizedAffinity>
-6.23570824

>  <minimizedRMSD>
0.257419527

$$$$
