
 OpenBabel03212520583D

 42 46  0  0  1  0  0  0  0  0999 V2000
   39.8960   77.5710   59.0980 C   0  0  0  0  0  0  0  0  0  0  0  0
   40.6520   76.5030   58.7540 C   0  0  0  0  0  0  0  0  0  0  0  0
   40.1310   75.8080   57.6550 C   0  0  0  0  0  0  0  0  0  0  0  0
   39.0040   76.1540   57.0040 N   0  0  0  0  0  0  0  0  0  0  0  0
   38.3140   77.2520   57.4310 C   0  0  0  0  0  0  0  0  0  0  0  0
   38.7610   77.9690   58.4890 N   0  0  0  0  0  0  0  0  0  0  0  0
   41.5500   76.1770   59.2270 H   0  0  0  0  0  0  0  0  0  0  0  0
   40.6190   74.9220   57.2500 H   0  0  0  0  0  0  0  0  0  0  0  0
   40.9930   80.4540   61.7660 C   0  0  0  0  0  0  0  0  0  0  0  0
   40.9770   79.2030   62.3310 C   0  0  0  0  0  0  0  0  0  0  0  0
   40.6300   78.1620   61.5520 C   0  0  0  0  0  0  0  0  0  0  0  0
   40.3060   78.3900   60.2180 C   0  0  0  0  0  0  0  0  0  0  0  0
   40.4990   80.2060   60.0350 S   0  0  0  0  0  0  0  0  0  0  0  0
   41.2310   79.0300   63.3760 H   0  0  0  0  0  0  0  0  0  0  0  0
   40.5560   77.1110   61.8020 H   0  0  0  0  0  0  0  0  0  0  0  0
   42.9950   83.2570   63.0320 C   0  0  0  0  0  0  0  0  0  0  0  0
   42.0640   83.9810   63.8210 C   0  0  0  0  0  0  0  0  0  0  0  0
   40.7430   83.5030   63.9150 C   0  0  0  0  0  0  0  0  0  0  0  0
   40.4290   82.3750   63.2450 N   0  0  0  0  0  0  0  0  0  0  0  0
   41.3510   81.7030   62.4930 C   0  0  0  0  0  0  0  0  0  0  0  0
   42.6040   82.1510   62.4010 N   0  0  0  0  0  0  0  0  0  0  0  0
   43.9920   83.6610   62.9900 H   0  0  0  0  0  0  0  0  0  0  0  0
   42.2860   84.8730   64.3590 H   0  0  0  0  0  0  0  0  0  0  0  0
   39.9910   84.0030   64.4950 H   0  0  0  0  0  0  0  0  0  0  0  0
   37.1070   77.6110   56.7080 C   0  0  0  0  0  0  0  0  0  0  0  0
   36.0330   77.1630   57.1330 O   0  0  0  0  0  0  0  0  0  0  0  0
   37.1450   78.4870   55.4760 C   0  0  1  0  0  0  0  0  0  0  0  0
   37.2920   79.9530   55.8070 C   0  0  0  0  0  0  0  0  0  0  0  0
   38.3510   79.2060   55.1270 C   0  0  2  0  0  0  0  0  0  0  0  0
   36.2480   78.3990   54.8100 H   0  0  0  0  0  0  0  0  0  0  0  0
   36.8010   80.7370   55.2050 H   0  0  0  0  0  0  0  0  0  0  0  0
   37.3840   80.2440   56.8730 H   0  0  0  0  0  0  0  0  0  0  0  0
   39.2550   78.9620   55.7550 H   0  0  0  0  0  0  0  0  0  0  0  0
   39.7750   78.5500   53.1770 C   0  0  2  0  0  3  0  0  0  0  0  0
   38.6990   79.4730   53.6770 C   0  0  1  0  0  3  0  0  0  0  0  0
   37.5160   79.0400   52.8070 C   0  0  0  0  0  3  0  0  0  0  0  0
   37.2020   78.0600   53.2210 H   0  0  0  0  0  0  0  0  0  0  0  0
   38.1060   78.8130   51.5790 O   0  0  0  0  0  0  0  0  0  0  0  0
   39.2350   78.0550   51.8710 C   0  0  0  0  0  3  0  0  0  0  0  0
   39.0070   76.9620   51.8840 H   0  0  0  0  0  0  0  0  0  0  0  0
   39.8800   77.5040   54.0900 O   0  0  0  0  0  0  0  0  0  0  0  0
   40.6950   77.6080   54.6420 H   0  0  0  0  0  0  0  0  0  0  0  0
  1 12  1  0  0  0  0
  2  1  1  0  0  0  0
  2  7  1  0  0  0  0
  3  2  2  0  0  0  0
  4  5  2  0  0  0  0
  4  3  1  0  0  0  0
  5  6  1  0  0  0  0
  6  1  2  0  0  0  0
  8  3  1  0  0  0  0
  9 10  2  0  0  0  0
  9 20  1  0  0  0  0
 10 14  1  0  0  0  0
 11 15  1  0  0  0  0
 11 10  1  0  0  0  0
 12 11  2  0  0  0  0
 13 12  1  0  0  0  0
 13  9  1  0  0  0  0
 16 17  1  0  0  0  0
 17 18  2  0  0  0  0
 17 23  1  0  0  0  0
 18 24  1  0  0  0  0
 19 18  1  0  0  0  0
 20 19  2  0  0  0  0
 21 20  1  0  0  0  0
 21 16  2  0  0  0  0
 22 16  1  0  0  0  0
 25 26  2  0  0  0  0
 25  5  1  0  0  0  0
 27 30  1  6  0  0  0
 27 28  1  0  0  0  0
 27 25  1  0  0  0  0
 28 32  1  0  0  0  0
 29 27  1  0  0  0  0
 29 33  1  1  0  0  0
 29 28  1  0  0  0  0
 31 28  1  0  0  0  0
 34 35  1  0  0  0  0
 34 41  1  1  0  0  0
 35 36  1  6  0  0  0
 35 29  1  0  0  0  0
 36 37  1  0  0  0  0
 38 39  1  0  0  0  0
 38 36  1  0  0  0  0
 39 40  1  0  0  0  0
 39 34  1  0  0  0  0
 41 42  1  0  0  0  0
M  END
>  <minimizedAffinity>
-6.40121126

>  <minimizedRMSD>
1.41547883

$$$$
