
 OpenBabel03212520383D

 26 28  0  0  1  0  0  0  0  0999 V2000
   43.8260   85.6890   60.9590 C   0  0  1  0  0  0  0  0  0  0  0  0
   45.0890   85.7020   60.1220 C   0  0  0  0  0  0  0  0  0  0  0  0
   43.8070   85.0560   59.6220 C   0  0  2  0  0  0  0  0  0  0  0  0
   43.3590   86.6630   61.1950 H   0  0  0  0  0  0  0  0  0  0  0  0
   45.9200   85.0530   60.4340 H   0  0  0  0  0  0  0  0  0  0  0  0
   45.3800   86.6870   59.7600 H   0  0  0  0  0  0  0  0  0  0  0  0
   43.8660   83.9530   59.5630 H   0  0  0  0  0  0  0  0  0  0  0  0
   41.5200   85.5960   58.8590 C   0  0  1  0  0  3  0  0  0  0  0  0
   43.0120   85.6770   58.5150 C   0  0  2  0  0  3  0  0  0  0  0  0
   42.9960   84.8920   57.2310 C   0  0  0  0  0  3  0  0  0  0  0  0
   43.9090   85.1490   56.6450 H   0  0  0  0  0  0  0  0  0  0  0  0
   41.8590   85.3130   56.5520 O   0  0  0  0  0  0  0  0  0  0  0  0
   40.9430   85.7820   57.4750 C   0  0  0  0  0  3  0  0  0  0  0  0
   40.7560   86.8450   57.2660 H   0  0  0  0  0  0  0  0  0  0  0  0
   41.2730   84.3320   59.3760 O   0  0  0  0  0  0  0  0  0  0  0  0
   40.9320   84.4520   60.3040 H   0  0  0  0  0  0  0  0  0  0  0  0
   43.9090   84.8310   62.0840 O   0  0  0  0  0  0  0  0  0  0  0  0
   41.0980   82.6710   62.8310 C   0  0  0  0  0  0  0  0  0  0  0  0
   40.4960   83.3320   63.9010 C   0  0  0  0  0  0  0  0  0  0  0  0
   41.0950   84.5340   64.3450 C   0  0  0  0  0  0  0  0  0  0  0  0
   42.2020   84.9380   63.6880 N   0  0  0  0  0  0  0  0  0  0  0  0
   42.7670   84.2840   62.6560 C   0  0  0  0  0  0  0  0  0  0  0  0
   42.2090   83.1290   62.2160 N   0  0  0  0  0  0  0  0  0  0  0  0
   40.6670   81.7360   62.4560 H   0  0  0  0  0  0  0  0  0  0  0  0
   39.6020   82.9520   64.3870 H   0  0  0  0  0  0  0  0  0  0  0  0
   40.6770   85.0930   65.1690 H   0  0  0  0  0  0  0  0  0  0  0  0
  1  4  1  1  0  0  0
  1 17  1  0  0  0  0
  2  5  1  0  0  0  0
  2  1  1  0  0  0  0
  3  7  1  1  0  0  0
  3  2  1  0  0  0  0
  3  1  1  0  0  0  0
  6  2  1  0  0  0  0
  8 15  1  6  0  0  0
  9 10  1  6  0  0  0
  9  8  1  0  0  0  0
  9  3  1  0  0  0  0
 11 10  1  0  0  0  0
 12 10  1  0  0  0  0
 12 13  1  0  0  0  0
 13  8  1  0  0  0  0
 14 13  1  0  0  0  0
 15 16  1  0  0  0  0
 17 22  1  0  0  0  0
 18 19  1  0  0  0  0
 19 20  2  0  0  0  0
 19 25  1  0  0  0  0
 20 26  1  0  0  0  0
 21 20  1  0  0  0  0
 22 21  2  0  0  0  0
 23 22  1  0  0  0  0
 23 18  2  0  0  0  0
 24 18  1  0  0  0  0
M  END
>  <minimizedAffinity>
-4.3378191

>  <minimizedRMSD>
1.74748909

$$$$
