
 OpenBabel03212520303D

 41 44  0  0  1  0  0  0  0  0999 V2000
   42.3390   82.2330   62.3170 C   0  0  0  0  0  0  0  0  0  0  0  0
   42.9030   81.0970   61.7890 C   0  0  0  0  0  0  0  0  0  0  0  0
   44.2210   80.7850   62.0470 C   0  0  0  0  0  0  0  0  0  0  0  0
   45.0470   81.5800   62.8390 C   0  0  0  0  0  0  0  0  0  0  0  0
   44.4960   82.7250   63.3790 C   0  0  0  0  0  0  0  0  0  0  0  0
   43.1830   83.0250   63.1150 C   0  0  0  0  0  0  0  0  0  0  0  0
   44.6910   79.8920   61.6400 H   0  0  0  0  0  0  0  0  0  0  0  0
   46.0640   81.3230   63.0280 H   0  0  0  0  0  0  0  0  0  0  0  0
   45.0940   83.3670   63.9950 H   0  0  0  0  0  0  0  0  0  0  0  0
   42.7550   83.9370   63.5480 H   0  0  0  0  0  0  0  0  0  0  0  0
   40.6480   78.3830   60.6840 C   0  0  0  0  0  0  0  0  0  0  0  0
   40.7270   78.4880   59.3090 C   0  0  0  0  0  0  0  0  0  0  0  0
   41.5670   79.5020   58.7770 C   0  0  0  0  0  0  0  0  0  0  0  0
   42.2250   80.2860   59.6690 N   0  0  0  0  0  0  0  0  0  0  0  0
   42.1350   80.1680   60.9730 C   0  0  0  0  0  0  0  0  0  0  0  0
   41.3400   79.2080   61.4780 N   0  0  0  0  0  0  0  0  0  0  0  0
   40.0300   77.6360   61.1620 H   0  0  0  0  0  0  0  0  0  0  0  0
   41.6590   79.6230   57.7140 H   0  0  0  0  0  0  0  0  0  0  0  0
   40.0000   77.6220   58.4560 N   0  0  0  0  0  0  0  0  0  0  0  0
   38.8650   78.1610   57.9870 C   0  0  0  0  0  0  0  0  0  0  0  0
   38.0710   77.3910   57.1340 C   0  0  0  0  0  0  0  0  0  0  0  0
   38.4880   76.0920   56.7990 C   0  0  0  0  0  0  0  0  0  0  0  0
   37.8230   75.3580   56.0420 O   0  0  0  0  0  0  0  0  0  0  0  0
   39.6500   75.6340   57.3220 N   0  0  0  0  0  0  0  0  0  0  0  0
   40.4210   76.3760   58.1480 C   0  0  0  0  0  0  0  0  0  0  0  0
   41.4870   75.9580   58.6280 O   0  0  0  0  0  0  0  0  0  0  0  0
   38.5140   79.1560   58.2240 H   0  0  0  0  0  0  0  0  0  0  0  0
   37.1440   77.7760   56.7250 H   0  0  0  0  0  0  0  0  0  0  0  0
   39.9480   74.6610   57.0610 H   0  0  0  0  0  0  0  0  0  0  0  0
   40.7020   82.6760   62.0080 S   0  0  0  0  0  0  0  0  0  0  0  0
   40.0590   83.1840   63.2770 O   0  0  0  0  0  0  0  0  0  0  0  0
   39.9210   81.3660   61.8300 O   0  0  0  0  0  0  0  0  0  0  0  0
   39.9980   83.2350   59.5170 C   0  0  1  0  0  3  0  0  0  0  0  0
   40.3130   83.8750   60.8660 C   0  0  2  0  0  3  0  0  0  0  0  0
   41.6430   84.5680   60.4960 C   0  0  0  0  0  3  0  0  0  0  0  0
   42.4840   83.8760   60.6300 H   0  0  0  0  0  0  0  0  0  0  0  0
   41.5570   84.7900   59.1160 O   0  0  0  0  0  0  0  0  0  0  0  0
   41.2430   83.4750   58.6990 C   0  0  0  0  0  3  0  0  0  0  0  0
   41.0540   83.4270   57.6120 H   0  0  0  0  0  0  0  0  0  0  0  0
   39.6700   81.8900   59.6250 O   0  0  0  0  0  0  0  0  0  0  0  0
   38.8550   81.7010   59.0640 H   0  0  0  0  0  0  0  0  0  0  0  0
  1  6  1  0  0  0  0
  2  3  1  0  0  0  0
  2  1  2  0  0  0  0
  3  4  2  0  0  0  0
  4  8  1  0  0  0  0
  4  5  1  0  0  0  0
  5  9  1  0  0  0  0
  6  5  2  0  0  0  0
  6 10  1  0  0  0  0
  7  3  1  0  0  0  0
 11 17  1  0  0  0  0
 11 16  1  0  0  0  0
 12 11  2  0  0  0  0
 13 12  1  0  0  0  0
 13 14  2  0  0  0  0
 14 15  1  0  0  0  0
 15 16  2  0  0  0  0
 15  2  1  0  0  0  0
 18 13  1  0  0  0  0
 19 12  1  0  0  0  0
 20 27  1  0  0  0  0
 20 19  1  0  0  0  0
 21 20  2  0  0  0  0
 22 21  1  0  0  0  0
 22 24  1  0  0  0  0
 23 22  2  0  0  0  0
 24 25  1  0  0  0  0
 25 19  1  0  0  0  0
 25 26  2  0  0  0  0
 28 21  1  0  0  0  0
 29 24  1  0  0  0  0
 30  1  1  0  0  0  0
 30 31  2  0  0  0  0
 32 30  2  0  0  0  0
 33 40  1  1  0  0  0
 33 34  1  0  0  0  0
 34 30  1  1  0  0  0
 35 36  1  0  0  0  0
 35 34  1  0  0  0  0
 37 35  1  0  0  0  0
 38 37  1  0  0  0  0
 38 33  1  0  0  0  0
 39 38  1  0  0  0  0
 41 40  1  0  0  0  0
M  END
>  <minimizedAffinity>
-6.49366999

>  <minimizedRMSD>
2.68068361

$$$$
