
 OpenBabel03212520303D

 41 44  0  0  1  0  0  0  0  0999 V2000
   42.5690   82.3480   62.0470 C   0  0  0  0  0  0  0  0  0  0  0  0
   42.9180   81.2560   61.2890 C   0  0  0  0  0  0  0  0  0  0  0  0
   44.1380   80.6390   61.4710 C   0  0  0  0  0  0  0  0  0  0  0  0
   45.0730   81.0700   62.4110 C   0  0  0  0  0  0  0  0  0  0  0  0
   44.7380   82.1650   63.1820 C   0  0  0  0  0  0  0  0  0  0  0  0
   43.5220   82.7710   62.9910 C   0  0  0  0  0  0  0  0  0  0  0  0
   44.4380   79.7730   60.8840 H   0  0  0  0  0  0  0  0  0  0  0  0
   46.0110   80.5790   62.5380 H   0  0  0  0  0  0  0  0  0  0  0  0
   45.4260   82.5310   63.9170 H   0  0  0  0  0  0  0  0  0  0  0  0
   43.2650   83.6400   63.6080 H   0  0  0  0  0  0  0  0  0  0  0  0
   40.3040   79.2420   59.6220 C   0  0  0  0  0  0  0  0  0  0  0  0
   40.3560   79.7220   58.3280 C   0  0  0  0  0  0  0  0  0  0  0  0
   41.3020   80.7430   58.0450 C   0  0  0  0  0  0  0  0  0  0  0  0
   42.0800   81.1610   59.0760 N   0  0  0  0  0  0  0  0  0  0  0  0
   42.0150   80.6900   60.2990 C   0  0  0  0  0  0  0  0  0  0  0  0
   41.1190   79.7240   60.5680 N   0  0  0  0  0  0  0  0  0  0  0  0
   39.6110   78.4660   59.9120 H   0  0  0  0  0  0  0  0  0  0  0  0
   41.3780   81.1490   57.0540 H   0  0  0  0  0  0  0  0  0  0  0  0
   39.5000   79.2220   57.3160 N   0  0  0  0  0  0  0  0  0  0  0  0
   38.6010   80.1200   56.8840 C   0  0  0  0  0  0  0  0  0  0  0  0
   37.7070   79.7290   55.8840 C   0  0  0  0  0  0  0  0  0  0  0  0
   37.7830   78.4240   55.3710 C   0  0  0  0  0  0  0  0  0  0  0  0
   37.0130   78.0190   54.4770 O   0  0  0  0  0  0  0  0  0  0  0  0
   38.7240   77.5890   55.8700 N   0  0  0  0  0  0  0  0  0  0  0  0
   39.5910   77.9630   56.8380 C   0  0  0  0  0  0  0  0  0  0  0  0
   40.4550   77.1980   57.2970 O   0  0  0  0  0  0  0  0  0  0  0  0
   38.5150   81.1310   57.2570 H   0  0  0  0  0  0  0  0  0  0  0  0
   36.9600   80.4130   55.4970 H   0  0  0  0  0  0  0  0  0  0  0  0
   38.7680   76.6160   55.4750 H   0  0  0  0  0  0  0  0  0  0  0  0
   41.0660   83.1650   61.8440 S   0  0  0  0  0  0  0  0  0  0  0  0
   40.5040   83.5510   63.1920 O   0  0  0  0  0  0  0  0  0  0  0  0
   40.0400   82.0990   61.4340 O   0  0  0  0  0  0  0  0  0  0  0  0
   39.5050   84.9010   60.5940 C   0  0  1  0  0  3  0  0  0  0  0  0
   40.9590   84.6080   60.9500 C   0  0  2  0  0  3  0  0  0  0  0  0
   41.4910   84.2830   59.5370 C   0  0  0  0  0  3  0  0  0  0  0  0
   41.3360   83.2200   59.3070 H   0  0  0  0  0  0  0  0  0  0  0  0
   40.6450   84.9810   58.6680 O   0  0  0  0  0  0  0  0  0  0  0  0
   39.3990   84.5040   59.1410 C   0  0  0  0  0  3  0  0  0  0  0  0
   38.5530   84.9950   58.6270 H   0  0  0  0  0  0  0  0  0  0  0  0
   38.6060   84.2250   61.4070 O   0  0  0  0  0  0  0  0  0  0  0  0
   37.8820   84.8600   61.7020 H   0  0  0  0  0  0  0  0  0  0  0  0
  1  6  1  0  0  0  0
  2  3  1  0  0  0  0
  2  1  2  0  0  0  0
  3  4  2  0  0  0  0
  4  8  1  0  0  0  0
  4  5  1  0  0  0  0
  5  9  1  0  0  0  0
  6  5  2  0  0  0  0
  6 10  1  0  0  0  0
  7  3  1  0  0  0  0
 11 17  1  0  0  0  0
 11 16  1  0  0  0  0
 12 11  2  0  0  0  0
 13 12  1  0  0  0  0
 13 14  2  0  0  0  0
 14 15  1  0  0  0  0
 15 16  2  0  0  0  0
 15  2  1  0  0  0  0
 18 13  1  0  0  0  0
 19 12  1  0  0  0  0
 20 27  1  0  0  0  0
 20 19  1  0  0  0  0
 21 20  2  0  0  0  0
 22 24  1  0  0  0  0
 22 21  1  0  0  0  0
 23 22  2  0  0  0  0
 24 25  1  0  0  0  0
 25 26  2  0  0  0  0
 25 19  1  0  0  0  0
 28 21  1  0  0  0  0
 29 24  1  0  0  0  0
 30  1  1  0  0  0  0
 30 31  2  0  0  0  0
 32 30  2  0  0  0  0
 33 34  1  0  0  0  0
 33 40  1  1  0  0  0
 34 30  1  1  0  0  0
 35 34  1  0  0  0  0
 36 35  1  0  0  0  0
 37 38  1  0  0  0  0
 37 35  1  0  0  0  0
 38 33  1  0  0  0  0
 39 38  1  0  0  0  0
 40 41  1  0  0  0  0
M  END
>  <minimizedAffinity>
-6.52046394

>  <minimizedRMSD>
1.78149688

$$$$
