
 OpenBabel03212520303D

 41 44  0  0  1  0  0  0  0  0999 V2000
   43.0180   82.2950   62.5210 C   0  0  0  0  0  0  0  0  0  0  0  0
   43.3040   81.0710   61.9650 C   0  0  0  0  0  0  0  0  0  0  0  0
   44.5490   80.5020   62.1280 C   0  0  0  0  0  0  0  0  0  0  0  0
   45.5740   81.1140   62.8470 C   0  0  0  0  0  0  0  0  0  0  0  0
   45.3040   82.3450   63.4130 C   0  0  0  0  0  0  0  0  0  0  0  0
   44.0610   82.9000   63.2440 C   0  0  0  0  0  0  0  0  0  0  0  0
   44.8000   79.5350   61.6970 H   0  0  0  0  0  0  0  0  0  0  0  0
   46.5310   80.6590   62.9630 H   0  0  0  0  0  0  0  0  0  0  0  0
   46.0620   82.8520   63.9760 H   0  0  0  0  0  0  0  0  0  0  0  0
   43.8560   83.8780   63.6970 H   0  0  0  0  0  0  0  0  0  0  0  0
   40.3470   79.0470   61.0520 C   0  0  0  0  0  0  0  0  0  0  0  0
   40.4920   78.9310   59.6840 C   0  0  0  0  0  0  0  0  0  0  0  0
   41.6200   79.5570   59.0890 C   0  0  0  0  0  0  0  0  0  0  0  0
   42.4640   80.2190   59.9200 N   0  0  0  0  0  0  0  0  0  0  0  0
   42.3070   80.3160   61.2200 C   0  0  0  0  0  0  0  0  0  0  0  0
   41.2390   79.7250   61.7830 N   0  0  0  0  0  0  0  0  0  0  0  0
   39.5150   78.5980   61.5750 H   0  0  0  0  0  0  0  0  0  0  0  0
   41.7740   79.4960   58.0280 H   0  0  0  0  0  0  0  0  0  0  0  0
   39.5550   78.2180   58.8960 N   0  0  0  0  0  0  0  0  0  0  0  0
   39.1990   78.8620   57.7740 C   0  0  0  0  0  0  0  0  0  0  0  0
   38.2790   78.2450   56.9230 C   0  0  0  0  0  0  0  0  0  0  0  0
   37.7670   76.9840   57.2680 C   0  0  0  0  0  0  0  0  0  0  0  0
   36.9440   76.3850   56.5480 O   0  0  0  0  0  0  0  0  0  0  0  0
   38.1860   76.4120   58.4210 N   0  0  0  0  0  0  0  0  0  0  0  0
   39.0760   77.0060   59.2480 C   0  0  0  0  0  0  0  0  0  0  0  0
   39.4620   76.4830   60.3060 O   0  0  0  0  0  0  0  0  0  0  0  0
   39.5730   79.8330   57.4790 H   0  0  0  0  0  0  0  0  0  0  0  0
   37.9550   78.7200   56.0030 H   0  0  0  0  0  0  0  0  0  0  0  0
   37.7940   75.4680   58.6650 H   0  0  0  0  0  0  0  0  0  0  0  0
   41.4830   83.0560   62.3290 S   0  0  0  0  0  0  0  0  0  0  0  0
   41.6090   84.5390   62.5900 O   0  0  0  0  0  0  0  0  0  0  0  0
   40.6400   82.6510   63.5470 O   0  0  0  0  0  0  0  0  0  0  0  0
   41.3840   83.7940   59.7880 C   0  0  1  0  0  3  0  0  0  0  0  0
   40.6430   82.9890   60.8520 C   0  0  2  0  0  3  0  0  0  0  0  0
   39.4040   83.8950   61.0170 C   0  0  0  0  0  3  0  0  0  0  0  0
   39.6020   84.6820   61.7550 H   0  0  0  0  0  0  0  0  0  0  0  0
   39.2780   84.5560   59.7890 O   0  0  0  0  0  0  0  0  0  0  0  0
   40.5900   85.0740   59.6810 C   0  0  0  0  0  3  0  0  0  0  0  0
   40.7460   85.5920   58.7190 H   0  0  0  0  0  0  0  0  0  0  0  0
   42.7180   84.0080   60.1090 O   0  0  0  0  0  0  0  0  0  0  0  0
   43.2870   83.8230   59.2990 H   0  0  0  0  0  0  0  0  0  0  0  0
  1  6  1  0  0  0  0
  2  3  1  0  0  0  0
  2  1  2  0  0  0  0
  3  4  2  0  0  0  0
  4  8  1  0  0  0  0
  4  5  1  0  0  0  0
  5  9  1  0  0  0  0
  6  5  2  0  0  0  0
  6 10  1  0  0  0  0
  7  3  1  0  0  0  0
 11 17  1  0  0  0  0
 11 16  1  0  0  0  0
 12 11  2  0  0  0  0
 13 12  1  0  0  0  0
 13 14  2  0  0  0  0
 14 15  1  0  0  0  0
 15 16  2  0  0  0  0
 15  2  1  0  0  0  0
 18 13  1  0  0  0  0
 19 25  1  0  0  0  0
 19 12  1  0  0  0  0
 20 19  1  0  0  0  0
 21 22  1  0  0  0  0
 21 20  2  0  0  0  0
 22 24  1  0  0  0  0
 23 22  2  0  0  0  0
 24 29  1  0  0  0  0
 24 25  1  0  0  0  0
 25 26  2  0  0  0  0
 27 20  1  0  0  0  0
 28 21  1  0  0  0  0
 30  1  1  0  0  0  0
 30 31  2  0  0  0  0
 30 32  2  0  0  0  0
 33 40  1  1  0  0  0
 33 34  1  0  0  0  0
 34 35  1  0  0  0  0
 34 30  1  1  0  0  0
 35 36  1  0  0  0  0
 37 35  1  0  0  0  0
 38 33  1  0  0  0  0
 38 37  1  0  0  0  0
 39 38  1  0  0  0  0
 41 40  1  0  0  0  0
M  END
>  <minimizedAffinity>
-7.05853176

>  <minimizedRMSD>
2.98321676

$$$$
