
 OpenBabel03212520303D

 41 44  0  0  1  0  0  0  0  0999 V2000
   42.1910   82.3220   62.2690 C   0  0  0  0  0  0  0  0  0  0  0  0
   42.7400   81.1700   61.7590 C   0  0  0  0  0  0  0  0  0  0  0  0
   44.0490   80.8370   62.0340 C   0  0  0  0  0  0  0  0  0  0  0  0
   44.8820   81.6250   62.8260 C   0  0  0  0  0  0  0  0  0  0  0  0
   44.3460   82.7870   63.3480 C   0  0  0  0  0  0  0  0  0  0  0  0
   43.0420   83.1070   63.0670 C   0  0  0  0  0  0  0  0  0  0  0  0
   44.5070   79.9310   61.6410 H   0  0  0  0  0  0  0  0  0  0  0  0
   45.8920   81.3520   63.0280 H   0  0  0  0  0  0  0  0  0  0  0  0
   44.9490   83.4230   63.9640 H   0  0  0  0  0  0  0  0  0  0  0  0
   42.6260   84.0310   63.4860 H   0  0  0  0  0  0  0  0  0  0  0  0
   40.3510   78.5750   60.6490 C   0  0  0  0  0  0  0  0  0  0  0  0
   40.5560   78.5630   59.2840 C   0  0  0  0  0  0  0  0  0  0  0  0
   41.5270   79.4580   58.7590 C   0  0  0  0  0  0  0  0  0  0  0  0
   42.1740   80.2520   59.6490 N   0  0  0  0  0  0  0  0  0  0  0  0
   41.9630   80.2470   60.9450 C   0  0  0  0  0  0  0  0  0  0  0  0
   41.0440   79.4000   61.4420 N   0  0  0  0  0  0  0  0  0  0  0  0
   39.6300   77.9230   61.1210 H   0  0  0  0  0  0  0  0  0  0  0  0
   41.7200   79.4850   57.7030 H   0  0  0  0  0  0  0  0  0  0  0  0
   39.8290   77.6960   58.4320 N   0  0  0  0  0  0  0  0  0  0  0  0
   38.8340   78.3060   57.7690 C   0  0  0  0  0  0  0  0  0  0  0  0
   38.0540   77.5400   56.9000 C   0  0  0  0  0  0  0  0  0  0  0  0
   38.3380   76.1730   56.7500 C   0  0  0  0  0  0  0  0  0  0  0  0
   37.6780   75.4400   55.9880 O   0  0  0  0  0  0  0  0  0  0  0  0
   39.3630   75.6460   57.4610 N   0  0  0  0  0  0  0  0  0  0  0  0
   40.1200   76.3830   58.3040 C   0  0  0  0  0  0  0  0  0  0  0  0
   41.0610   75.9020   58.9570 O   0  0  0  0  0  0  0  0  0  0  0  0
   38.5890   79.3540   57.8610 H   0  0  0  0  0  0  0  0  0  0  0  0
   37.2380   77.9810   56.3390 H   0  0  0  0  0  0  0  0  0  0  0  0
   39.5620   74.6220   57.3380 H   0  0  0  0  0  0  0  0  0  0  0  0
   40.5660   82.7920   61.9380 S   0  0  0  0  0  0  0  0  0  0  0  0
   39.9400   83.3850   63.1780 O   0  0  0  0  0  0  0  0  0  0  0  0
   39.7490   81.4950   61.8320 O   0  0  0  0  0  0  0  0  0  0  0  0
   39.9770   83.2390   59.3960 C   0  0  1  0  0  3  0  0  0  0  0  0
   40.2060   83.9370   60.7330 C   0  0  2  0  0  3  0  0  0  0  0  0
   41.5350   84.6520   60.4050 C   0  0  0  0  0  3  0  0  0  0  0  0
   42.3860   83.9890   60.6100 H   0  0  0  0  0  0  0  0  0  0  0  0
   41.5160   84.8210   59.0150 O   0  0  0  0  0  0  0  0  0  0  0  0
   41.2580   83.4840   58.6330 C   0  0  0  0  0  3  0  0  0  0  0  0
   41.1260   83.3910   57.5410 H   0  0  0  0  0  0  0  0  0  0  0  0
   39.6800   81.8910   59.5370 O   0  0  0  0  0  0  0  0  0  0  0  0
   38.8990   81.6600   58.9430 H   0  0  0  0  0  0  0  0  0  0  0  0
  1  6  1  0  0  0  0
  2  3  1  0  0  0  0
  2  1  2  0  0  0  0
  3  4  2  0  0  0  0
  4  8  1  0  0  0  0
  4  5  1  0  0  0  0
  5  9  1  0  0  0  0
  6  5  2  0  0  0  0
  6 10  1  0  0  0  0
  7  3  1  0  0  0  0
 11 17  1  0  0  0  0
 11 16  1  0  0  0  0
 12 11  2  0  0  0  0
 13 12  1  0  0  0  0
 13 14  2  0  0  0  0
 14 15  1  0  0  0  0
 15 16  2  0  0  0  0
 15  2  1  0  0  0  0
 18 13  1  0  0  0  0
 19 12  1  0  0  0  0
 20 27  1  0  0  0  0
 20 19  1  0  0  0  0
 21 20  2  0  0  0  0
 22 21  1  0  0  0  0
 22 24  1  0  0  0  0
 23 22  2  0  0  0  0
 24 25  1  0  0  0  0
 25 19  1  0  0  0  0
 25 26  2  0  0  0  0
 28 21  1  0  0  0  0
 29 24  1  0  0  0  0
 30  1  1  0  0  0  0
 30 31  2  0  0  0  0
 32 30  2  0  0  0  0
 33 40  1  1  0  0  0
 33 34  1  0  0  0  0
 34 30  1  1  0  0  0
 35 36  1  0  0  0  0
 35 34  1  0  0  0  0
 37 35  1  0  0  0  0
 38 37  1  0  0  0  0
 38 33  1  0  0  0  0
 39 38  1  0  0  0  0
 41 40  1  0  0  0  0
M  END
>  <minimizedAffinity>
-6.60529375

>  <minimizedRMSD>
2.63427353

$$$$
