
 OpenBabel03212520313D

 41 44  0  0  1  0  0  0  0  0999 V2000
   42.6920   82.4810   62.5080 C   0  0  0  0  0  0  0  0  0  0  0  0
   43.0560   81.2850   61.9380 C   0  0  0  0  0  0  0  0  0  0  0  0
   44.3310   80.7880   62.1070 C   0  0  0  0  0  0  0  0  0  0  0  0
   45.3100   81.4480   62.8470 C   0  0  0  0  0  0  0  0  0  0  0  0
   44.9610   82.6520   63.4280 C   0  0  0  0  0  0  0  0  0  0  0  0
   43.6890   83.1360   63.2520 C   0  0  0  0  0  0  0  0  0  0  0  0
   44.6440   79.8430   61.6660 H   0  0  0  0  0  0  0  0  0  0  0  0
   46.2910   81.0480   62.9680 H   0  0  0  0  0  0  0  0  0  0  0  0
   45.6820   83.1940   64.0070 H   0  0  0  0  0  0  0  0  0  0  0  0
   43.4220   84.0920   63.7170 H   0  0  0  0  0  0  0  0  0  0  0  0
   40.2960   79.0220   60.9710 C   0  0  0  0  0  0  0  0  0  0  0  0
   40.3910   79.0290   59.5930 C   0  0  0  0  0  0  0  0  0  0  0  0
   41.4170   79.8200   59.0110 C   0  0  0  0  0  0  0  0  0  0  0  0
   42.2220   80.5050   59.8620 N   0  0  0  0  0  0  0  0  0  0  0  0
   42.1140   80.4840   61.1700 C   0  0  0  0  0  0  0  0  0  0  0  0
   41.1430   79.7350   61.7220 N   0  0  0  0  0  0  0  0  0  0  0  0
   39.5420   78.4440   61.4850 H   0  0  0  0  0  0  0  0  0  0  0  0
   41.5290   79.8570   57.9440 H   0  0  0  0  0  0  0  0  0  0  0  0
   39.5020   78.2790   58.7840 N   0  0  0  0  0  0  0  0  0  0  0  0
   39.1480   78.9080   57.6530 C   0  0  0  0  0  0  0  0  0  0  0  0
   38.2740   78.2540   56.7810 C   0  0  0  0  0  0  0  0  0  0  0  0
   37.8030   76.9740   57.1160 C   0  0  0  0  0  0  0  0  0  0  0  0
   37.0230   76.3430   56.3770 O   0  0  0  0  0  0  0  0  0  0  0  0
   38.2170   76.4200   58.2800 N   0  0  0  0  0  0  0  0  0  0  0  0
   39.0630   77.0490   59.1260 C   0  0  0  0  0  0  0  0  0  0  0  0
   39.4430   76.5420   60.1950 O   0  0  0  0  0  0  0  0  0  0  0  0
   39.4910   79.8920   57.3650 H   0  0  0  0  0  0  0  0  0  0  0  0
   37.9550   78.7160   55.8530 H   0  0  0  0  0  0  0  0  0  0  0  0
   37.8560   75.4620   58.5160 H   0  0  0  0  0  0  0  0  0  0  0  0
   41.1180   83.1530   62.3090 S   0  0  0  0  0  0  0  0  0  0  0  0
   40.7050   83.8750   63.5700 O   0  0  0  0  0  0  0  0  0  0  0  0
   40.1320   81.9770   62.3520 O   0  0  0  0  0  0  0  0  0  0  0  0
   40.1780   83.5900   59.8730 C   0  0  1  0  0  3  0  0  0  0  0  0
   40.7900   84.2870   61.0850 C   0  0  2  0  0  3  0  0  0  0  0  0
   42.1550   84.6720   60.4750 C   0  0  0  0  0  3  0  0  0  0  0  0
   42.8710   83.8470   60.5910 H   0  0  0  0  0  0  0  0  0  0  0  0
   41.9170   84.7700   59.0990 O   0  0  0  0  0  0  0  0  0  0  0  0
   41.3180   83.5060   58.8860 C   0  0  0  0  0  3  0  0  0  0  0  0
   40.9720   83.3880   57.8440 H   0  0  0  0  0  0  0  0  0  0  0  0
   39.6360   82.3510   60.1830 O   0  0  0  0  0  0  0  0  0  0  0  0
   38.7280   82.2680   59.7520 H   0  0  0  0  0  0  0  0  0  0  0  0
  1  6  1  0  0  0  0
  2  3  1  0  0  0  0
  2  1  2  0  0  0  0
  3  4  2  0  0  0  0
  4  8  1  0  0  0  0
  4  5  1  0  0  0  0
  5  9  1  0  0  0  0
  6  5  2  0  0  0  0
  6 10  1  0  0  0  0
  7  3  1  0  0  0  0
 11 17  1  0  0  0  0
 11 16  1  0  0  0  0
 12 11  2  0  0  0  0
 13 12  1  0  0  0  0
 13 14  2  0  0  0  0
 14 15  1  0  0  0  0
 15 16  2  0  0  0  0
 15  2  1  0  0  0  0
 18 13  1  0  0  0  0
 19 25  1  0  0  0  0
 19 12  1  0  0  0  0
 20 19  1  0  0  0  0
 21 22  1  0  0  0  0
 21 20  2  0  0  0  0
 22 24  1  0  0  0  0
 23 22  2  0  0  0  0
 24 29  1  0  0  0  0
 24 25  1  0  0  0  0
 25 26  2  0  0  0  0
 27 20  1  0  0  0  0
 28 21  1  0  0  0  0
 30 32  2  0  0  0  0
 30  1  1  0  0  0  0
 30 31  2  0  0  0  0
 33 40  1  1  0  0  0
 33 34  1  0  0  0  0
 34 30  1  1  0  0  0
 35 36  1  0  0  0  0
 35 34  1  0  0  0  0
 37 35  1  0  0  0  0
 38 37  1  0  0  0  0
 38 33  1  0  0  0  0
 39 38  1  0  0  0  0
 41 40  1  0  0  0  0
M  END
>  <minimizedAffinity>
-6.94403982

>  <minimizedRMSD>
2.66281438

$$$$
