
 OpenBabel03212520303D

 41 44  0  0  1  0  0  0  0  0999 V2000
   42.5640   82.3400   62.0350 C   0  0  0  0  0  0  0  0  0  0  0  0
   42.9200   81.2530   61.2720 C   0  0  0  0  0  0  0  0  0  0  0  0
   44.1410   80.6390   61.4550 C   0  0  0  0  0  0  0  0  0  0  0  0
   45.0710   81.0680   62.4000 C   0  0  0  0  0  0  0  0  0  0  0  0
   44.7300   82.1580   63.1760 C   0  0  0  0  0  0  0  0  0  0  0  0
   43.5120   82.7610   62.9840 C   0  0  0  0  0  0  0  0  0  0  0  0
   44.4460   79.7780   60.8640 H   0  0  0  0  0  0  0  0  0  0  0  0
   46.0100   80.5800   62.5280 H   0  0  0  0  0  0  0  0  0  0  0  0
   45.4140   82.5230   63.9160 H   0  0  0  0  0  0  0  0  0  0  0  0
   43.2500   83.6260   63.6050 H   0  0  0  0  0  0  0  0  0  0  0  0
   40.3180   79.2390   59.5840 C   0  0  0  0  0  0  0  0  0  0  0  0
   40.3730   79.7270   58.2940 C   0  0  0  0  0  0  0  0  0  0  0  0
   41.3170   80.7520   58.0200 C   0  0  0  0  0  0  0  0  0  0  0  0
   42.0900   81.1680   59.0550 N   0  0  0  0  0  0  0  0  0  0  0  0
   42.0220   80.6900   60.2760 C   0  0  0  0  0  0  0  0  0  0  0  0
   41.1280   79.7190   60.5360 N   0  0  0  0  0  0  0  0  0  0  0  0
   39.6260   78.4600   59.8680 H   0  0  0  0  0  0  0  0  0  0  0  0
   41.3950   81.1640   57.0310 H   0  0  0  0  0  0  0  0  0  0  0  0
   39.5220   79.2300   57.2760 N   0  0  0  0  0  0  0  0  0  0  0  0
   38.5560   80.0890   56.9190 C   0  0  0  0  0  0  0  0  0  0  0  0
   37.6610   79.6970   55.9200 C   0  0  0  0  0  0  0  0  0  0  0  0
   37.8050   78.4310   55.3300 C   0  0  0  0  0  0  0  0  0  0  0  0
   37.0380   78.0270   54.4350 O   0  0  0  0  0  0  0  0  0  0  0  0
   38.8120   77.6330   55.7570 N   0  0  0  0  0  0  0  0  0  0  0  0
   39.6800   78.0080   56.7230 C   0  0  0  0  0  0  0  0  0  0  0  0
   40.6050   77.2770   57.1160 O   0  0  0  0  0  0  0  0  0  0  0  0
   38.4160   81.0700   57.3520 H   0  0  0  0  0  0  0  0  0  0  0  0
   36.8610   80.3520   55.5920 H   0  0  0  0  0  0  0  0  0  0  0  0
   38.9060   76.6890   55.3060 H   0  0  0  0  0  0  0  0  0  0  0  0
   41.0590   83.1530   61.8310 S   0  0  0  0  0  0  0  0  0  0  0  0
   40.4880   83.5250   63.1790 O   0  0  0  0  0  0  0  0  0  0  0  0
   40.0400   82.0870   61.4050 O   0  0  0  0  0  0  0  0  0  0  0  0
   39.4980   84.8990   60.5960 C   0  0  1  0  0  3  0  0  0  0  0  0
   40.9520   84.6040   60.9490 C   0  0  2  0  0  3  0  0  0  0  0  0
   41.4820   84.2910   59.5330 C   0  0  0  0  0  3  0  0  0  0  0  0
   41.3280   83.2290   59.2940 H   0  0  0  0  0  0  0  0  0  0  0  0
   40.6360   84.9950   58.6700 O   0  0  0  0  0  0  0  0  0  0  0  0
   39.3910   84.5150   59.1390 C   0  0  0  0  0  3  0  0  0  0  0  0
   38.5440   85.0100   58.6300 H   0  0  0  0  0  0  0  0  0  0  0  0
   38.5980   84.2160   61.4040 O   0  0  0  0  0  0  0  0  0  0  0  0
   37.8750   84.8500   61.7040 H   0  0  0  0  0  0  0  0  0  0  0  0
  1  6  1  0  0  0  0
  2  3  1  0  0  0  0
  2  1  2  0  0  0  0
  3  4  2  0  0  0  0
  4  8  1  0  0  0  0
  4  5  1  0  0  0  0
  5  9  1  0  0  0  0
  6  5  2  0  0  0  0
  6 10  1  0  0  0  0
  7  3  1  0  0  0  0
 11 17  1  0  0  0  0
 11 16  1  0  0  0  0
 12 11  2  0  0  0  0
 13 12  1  0  0  0  0
 13 14  2  0  0  0  0
 14 15  1  0  0  0  0
 15 16  2  0  0  0  0
 15  2  1  0  0  0  0
 18 13  1  0  0  0  0
 19 12  1  0  0  0  0
 20 19  1  0  0  0  0
 20 27  1  0  0  0  0
 21 20  2  0  0  0  0
 22 24  1  0  0  0  0
 22 21  1  0  0  0  0
 23 22  2  0  0  0  0
 24 25  1  0  0  0  0
 25 26  2  0  0  0  0
 25 19  1  0  0  0  0
 28 21  1  0  0  0  0
 29 24  1  0  0  0  0
 30  1  1  0  0  0  0
 30 31  2  0  0  0  0
 32 30  2  0  0  0  0
 33 34  1  0  0  0  0
 33 40  1  1  0  0  0
 34 30  1  1  0  0  0
 35 34  1  0  0  0  0
 36 35  1  0  0  0  0
 37 38  1  0  0  0  0
 37 35  1  0  0  0  0
 38 33  1  0  0  0  0
 39 38  1  0  0  0  0
 40 41  1  0  0  0  0
M  END
>  <minimizedAffinity>
-6.47318411

>  <minimizedRMSD>
1.56852591

$$$$
