
 OpenBabel03212520303D

 41 44  0  0  1  0  0  0  0  0999 V2000
   42.3670   82.6330   61.8590 C   0  0  0  0  0  0  0  0  0  0  0  0
   42.7180   81.5310   61.1180 C   0  0  0  0  0  0  0  0  0  0  0  0
   43.8990   80.8650   61.3690 C   0  0  0  0  0  0  0  0  0  0  0  0
   44.7920   81.2550   62.3650 C   0  0  0  0  0  0  0  0  0  0  0  0
   44.4550   82.3610   63.1210 C   0  0  0  0  0  0  0  0  0  0  0  0
   43.2770   83.0150   62.8610 C   0  0  0  0  0  0  0  0  0  0  0  0
   44.1990   79.9900   60.7950 H   0  0  0  0  0  0  0  0  0  0  0  0
   45.7000   80.7280   62.5450 H   0  0  0  0  0  0  0  0  0  0  0  0
   45.1110   82.6960   63.8990 H   0  0  0  0  0  0  0  0  0  0  0  0
   43.0180   83.8920   63.4670 H   0  0  0  0  0  0  0  0  0  0  0  0
   40.1480   79.6100   59.2790 C   0  0  0  0  0  0  0  0  0  0  0  0
   40.2770   80.1130   58.0000 C   0  0  0  0  0  0  0  0  0  0  0  0
   41.2600   81.1160   57.7850 C   0  0  0  0  0  0  0  0  0  0  0  0
   41.9930   81.4970   58.8620 N   0  0  0  0  0  0  0  0  0  0  0  0
   41.8540   81.0050   60.0710 C   0  0  0  0  0  0  0  0  0  0  0  0
   40.9240   80.0550   60.2740 N   0  0  0  0  0  0  0  0  0  0  0  0
   39.4240   78.8450   59.5180 H   0  0  0  0  0  0  0  0  0  0  0  0
   41.3960   81.5390   56.8080 H   0  0  0  0  0  0  0  0  0  0  0  0
   39.4640   79.6520   56.9350 N   0  0  0  0  0  0  0  0  0  0  0  0
   38.4080   80.4430   56.6870 C   0  0  0  0  0  0  0  0  0  0  0  0
   37.5400   80.0790   55.6550 C   0  0  0  0  0  0  0  0  0  0  0  0
   37.8020   78.9120   54.9200 C   0  0  0  0  0  0  0  0  0  0  0  0
   37.0640   78.5380   53.9870 O   0  0  0  0  0  0  0  0  0  0  0  0
   38.8930   78.1780   55.2440 N   0  0  0  0  0  0  0  0  0  0  0  0
   39.7350   78.5260   56.2420 C   0  0  0  0  0  0  0  0  0  0  0  0
   40.7360   77.8530   56.5410 O   0  0  0  0  0  0  0  0  0  0  0  0
   38.1780   81.3470   57.2330 H   0  0  0  0  0  0  0  0  0  0  0  0
   36.6720   80.6810   55.4110 H   0  0  0  0  0  0  0  0  0  0  0  0
   39.0750   77.3070   54.6840 H   0  0  0  0  0  0  0  0  0  0  0  0
   40.9120   83.5100   61.5710 S   0  0  0  0  0  0  0  0  0  0  0  0
   40.2920   83.9240   62.8850 O   0  0  0  0  0  0  0  0  0  0  0  0
   39.8680   82.4850   61.1050 O   0  0  0  0  0  0  0  0  0  0  0  0
   40.0300   84.8060   59.4360 C   0  0  1  0  0  3  0  0  0  0  0  0
   40.9150   84.9530   60.6700 C   0  0  2  0  0  3  0  0  0  0  0  0
   42.2900   85.0240   59.9710 C   0  0  0  0  0  3  0  0  0  0  0  0
   42.6890   84.0140   59.8090 H   0  0  0  0  0  0  0  0  0  0  0  0
   42.0150   85.5270   58.6940 O   0  0  0  0  0  0  0  0  0  0  0  0
   41.0110   84.6090   58.3050 C   0  0  0  0  0  3  0  0  0  0  0  0
   40.5820   84.8660   57.3210 H   0  0  0  0  0  0  0  0  0  0  0  0
   39.1180   83.7640   59.5500 O   0  0  0  0  0  0  0  0  0  0  0  0
   38.2130   84.0820   59.2430 H   0  0  0  0  0  0  0  0  0  0  0  0
  1  6  1  0  0  0  0
  2  3  1  0  0  0  0
  2  1  2  0  0  0  0
  3  4  2  0  0  0  0
  4  8  1  0  0  0  0
  4  5  1  0  0  0  0
  5  9  1  0  0  0  0
  6  5  2  0  0  0  0
  6 10  1  0  0  0  0
  7  3  1  0  0  0  0
 11 17  1  0  0  0  0
 11 16  1  0  0  0  0
 12 11  2  0  0  0  0
 13 12  1  0  0  0  0
 13 14  2  0  0  0  0
 14 15  1  0  0  0  0
 15 16  2  0  0  0  0
 15  2  1  0  0  0  0
 18 13  1  0  0  0  0
 19 12  1  0  0  0  0
 20 19  1  0  0  0  0
 20 27  1  0  0  0  0
 21 20  2  0  0  0  0
 22 24  1  0  0  0  0
 22 21  1  0  0  0  0
 23 22  2  0  0  0  0
 24 25  1  0  0  0  0
 25 26  2  0  0  0  0
 25 19  1  0  0  0  0
 28 21  1  0  0  0  0
 29 24  1  0  0  0  0
 30  1  1  0  0  0  0
 30 31  2  0  0  0  0
 32 30  2  0  0  0  0
 33 40  1  1  0  0  0
 33 34  1  0  0  0  0
 34 30  1  1  0  0  0
 35 34  1  0  0  0  0
 36 35  1  0  0  0  0
 37 35  1  0  0  0  0
 38 37  1  0  0  0  0
 38 33  1  0  0  0  0
 39 38  1  0  0  0  0
 41 40  1  0  0  0  0
M  END
>  <minimizedAffinity>
-5.82125807

>  <minimizedRMSD>
1.446486

$$$$
