
 OpenBabel03212520303D

 41 44  0  0  1  0  0  0  0  0999 V2000
   42.5060   82.0670   61.9170 C   0  0  0  0  0  0  0  0  0  0  0  0
   42.8570   81.0450   61.0680 C   0  0  0  0  0  0  0  0  0  0  0  0
   44.0820   80.4250   61.1880 C   0  0  0  0  0  0  0  0  0  0  0  0
   45.0220   80.7830   62.1530 C   0  0  0  0  0  0  0  0  0  0  0  0
   44.6860   81.8070   63.0160 C   0  0  0  0  0  0  0  0  0  0  0  0
   43.4640   82.4170   62.8860 C   0  0  0  0  0  0  0  0  0  0  0  0
   44.3830   79.6140   60.5270 H   0  0  0  0  0  0  0  0  0  0  0  0
   45.9650   80.2910   62.2310 H   0  0  0  0  0  0  0  0  0  0  0  0
   45.3770   82.1160   63.7740 H   0  0  0  0  0  0  0  0  0  0  0  0
   43.2060   83.2300   63.5750 H   0  0  0  0  0  0  0  0  0  0  0  0
   40.2630   79.1390   59.2490 C   0  0  0  0  0  0  0  0  0  0  0  0
   40.2770   79.7480   58.0100 C   0  0  0  0  0  0  0  0  0  0  0  0
   41.1920   80.8170   57.8160 C   0  0  0  0  0  0  0  0  0  0  0  0
   41.9790   81.1510   58.8700 N   0  0  0  0  0  0  0  0  0  0  0  0
   41.9490   80.5580   60.0410 C   0  0  0  0  0  0  0  0  0  0  0  0
   41.0830   79.5460   60.2250 N   0  0  0  0  0  0  0  0  0  0  0  0
   39.5950   78.3190   59.4710 H   0  0  0  0  0  0  0  0  0  0  0  0
   41.2380   81.3220   56.8690 H   0  0  0  0  0  0  0  0  0  0  0  0
   39.4150   79.3290   56.9670 N   0  0  0  0  0  0  0  0  0  0  0  0
   38.3720   80.1500   56.7730 C   0  0  0  0  0  0  0  0  0  0  0  0
   37.4590   79.8290   55.7650 C   0  0  0  0  0  0  0  0  0  0  0  0
   37.6650   78.6710   54.9990 C   0  0  0  0  0  0  0  0  0  0  0  0
   36.8850   78.3340   54.0860 O   0  0  0  0  0  0  0  0  0  0  0  0
   38.7470   77.9040   55.2690 N   0  0  0  0  0  0  0  0  0  0  0  0
   39.6330   78.2100   56.2420 C   0  0  0  0  0  0  0  0  0  0  0  0
   40.6270   77.5080   56.4920 O   0  0  0  0  0  0  0  0  0  0  0  0
   38.1830   81.0480   57.3440 H   0  0  0  0  0  0  0  0  0  0  0  0
   36.5980   80.4570   55.5650 H   0  0  0  0  0  0  0  0  0  0  0  0
   38.8870   77.0410   54.6860 H   0  0  0  0  0  0  0  0  0  0  0  0
   40.9950   82.8870   61.7950 S   0  0  0  0  0  0  0  0  0  0  0  0
   40.3850   83.0470   63.1680 O   0  0  0  0  0  0  0  0  0  0  0  0
   40.0030   81.8860   61.1870 O   0  0  0  0  0  0  0  0  0  0  0  0
   39.4390   84.7940   60.8180 C   0  0  1  0  0  3  0  0  0  0  0  0
   40.8910   84.4520   61.1370 C   0  0  2  0  0  3  0  0  0  0  0  0
   41.4350   84.3530   59.6950 C   0  0  0  0  0  3  0  0  0  0  0  0
   41.2860   83.3400   59.3000 H   0  0  0  0  0  0  0  0  0  0  0  0
   40.5930   85.1770   58.9390 O   0  0  0  0  0  0  0  0  0  0  0  0
   39.3450   84.6310   59.3200 C   0  0  0  0  0  3  0  0  0  0  0  0
   38.5020   85.1930   58.8830 H   0  0  0  0  0  0  0  0  0  0  0  0
   38.5360   83.9970   61.5090 O   0  0  0  0  0  0  0  0  0  0  0  0
   37.8070   84.5770   61.8930 H   0  0  0  0  0  0  0  0  0  0  0  0
  1  6  1  0  0  0  0
  2  3  1  0  0  0  0
  2  1  2  0  0  0  0
  3  4  2  0  0  0  0
  4  8  1  0  0  0  0
  4  5  1  0  0  0  0
  5  9  1  0  0  0  0
  6  5  2  0  0  0  0
  6 10  1  0  0  0  0
  7  3  1  0  0  0  0
 11 17  1  0  0  0  0
 11 16  1  0  0  0  0
 12 11  2  0  0  0  0
 13 12  1  0  0  0  0
 13 14  2  0  0  0  0
 14 15  1  0  0  0  0
 15 16  2  0  0  0  0
 15  2  1  0  0  0  0
 18 13  1  0  0  0  0
 19 12  1  0  0  0  0
 20 19  1  0  0  0  0
 20 27  1  0  0  0  0
 21 20  2  0  0  0  0
 22 24  1  0  0  0  0
 22 21  1  0  0  0  0
 23 22  2  0  0  0  0
 24 25  1  0  0  0  0
 25 26  2  0  0  0  0
 25 19  1  0  0  0  0
 28 21  1  0  0  0  0
 29 24  1  0  0  0  0
 30  1  1  0  0  0  0
 30 31  2  0  0  0  0
 32 30  2  0  0  0  0
 33 34  1  0  0  0  0
 33 40  1  1  0  0  0
 34 30  1  6  0  0  0
 35 34  1  0  0  0  0
 36 35  1  0  0  0  0
 37 38  1  0  0  0  0
 37 35  1  0  0  0  0
 38 33  1  0  0  0  0
 39 38  1  0  0  0  0
 40 41  1  0  0  0  0
M  END
>  <minimizedAffinity>
-6.52034998

>  <minimizedRMSD>
1.52366316

$$$$
