
 OpenBabel03212520303D

 41 44  0  0  1  0  0  0  0  0999 V2000
   42.9910   82.1260   62.3820 C   0  0  0  0  0  0  0  0  0  0  0  0
   43.2390   80.8820   61.8540 C   0  0  0  0  0  0  0  0  0  0  0  0
   44.4590   80.2700   62.0470 C   0  0  0  0  0  0  0  0  0  0  0  0
   45.4960   80.8570   62.7710 C   0  0  0  0  0  0  0  0  0  0  0  0
   45.2630   82.1080   63.3090 C   0  0  0  0  0  0  0  0  0  0  0  0
   44.0450   82.7060   63.1090 C   0  0  0  0  0  0  0  0  0  0  0  0
   44.6800   79.2860   61.6390 H   0  0  0  0  0  0  0  0  0  0  0  0
   46.4330   80.3690   62.9100 H   0  0  0  0  0  0  0  0  0  0  0  0
   46.0310   82.5970   63.8740 H   0  0  0  0  0  0  0  0  0  0  0  0
   43.8700   83.6990   63.5410 H   0  0  0  0  0  0  0  0  0  0  0  0
   40.2360   78.9280   60.9370 C   0  0  0  0  0  0  0  0  0  0  0  0
   40.3810   78.8080   59.5700 C   0  0  0  0  0  0  0  0  0  0  0  0
   41.5240   79.4060   58.9760 C   0  0  0  0  0  0  0  0  0  0  0  0
   42.3830   80.0480   59.8080 N   0  0  0  0  0  0  0  0  0  0  0  0
   42.2260   80.1500   61.1080 C   0  0  0  0  0  0  0  0  0  0  0  0
   41.1430   79.5850   61.6700 N   0  0  0  0  0  0  0  0  0  0  0  0
   39.3930   78.4990   61.4590 H   0  0  0  0  0  0  0  0  0  0  0  0
   41.6790   79.3400   57.9150 H   0  0  0  0  0  0  0  0  0  0  0  0
   39.4290   78.1160   58.7810 N   0  0  0  0  0  0  0  0  0  0  0  0
   39.0940   78.7650   57.6550 C   0  0  0  0  0  0  0  0  0  0  0  0
   38.1620   78.1690   56.8020 C   0  0  0  0  0  0  0  0  0  0  0  0
   37.6150   76.9230   57.1510 C   0  0  0  0  0  0  0  0  0  0  0  0
   36.7800   76.3430   56.4300 O   0  0  0  0  0  0  0  0  0  0  0  0
   38.0140   76.3460   58.3080 N   0  0  0  0  0  0  0  0  0  0  0  0
   38.9160   76.9190   59.1360 C   0  0  0  0  0  0  0  0  0  0  0  0
   39.2840   76.3900   60.1980 O   0  0  0  0  0  0  0  0  0  0  0  0
   39.4950   79.7240   57.3570 H   0  0  0  0  0  0  0  0  0  0  0  0
   37.8550   78.6490   55.8790 H   0  0  0  0  0  0  0  0  0  0  0  0
   37.5960   75.4130   58.5540 H   0  0  0  0  0  0  0  0  0  0  0  0
   41.4890   82.9400   62.1520 S   0  0  0  0  0  0  0  0  0  0  0  0
   41.6490   84.4100   62.4590 O   0  0  0  0  0  0  0  0  0  0  0  0
   40.5860   82.5290   63.3230 O   0  0  0  0  0  0  0  0  0  0  0  0
   41.5030   83.7700   59.6380 C   0  0  1  0  0  3  0  0  0  0  0  0
   40.7070   82.9400   60.6410 C   0  0  2  0  0  3  0  0  0  0  0  0
   39.4760   83.8610   60.7900 C   0  0  0  0  0  3  0  0  0  0  0  0
   39.6590   84.6170   61.5640 H   0  0  0  0  0  0  0  0  0  0  0  0
   39.4110   84.5670   59.5830 O   0  0  0  0  0  0  0  0  0  0  0  0
   40.7350   85.0660   59.5460 C   0  0  0  0  0  3  0  0  0  0  0  0
   40.9370   85.6160   58.6100 H   0  0  0  0  0  0  0  0  0  0  0  0
   42.8260   83.9490   60.0170 O   0  0  0  0  0  0  0  0  0  0  0  0
   43.4240   83.7820   59.2240 H   0  0  0  0  0  0  0  0  0  0  0  0
  1  6  1  0  0  0  0
  2  3  1  0  0  0  0
  2  1  2  0  0  0  0
  3  4  2  0  0  0  0
  4  8  1  0  0  0  0
  4  5  1  0  0  0  0
  5  9  1  0  0  0  0
  6  5  2  0  0  0  0
  6 10  1  0  0  0  0
  7  3  1  0  0  0  0
 11 17  1  0  0  0  0
 11 16  1  0  0  0  0
 12 11  2  0  0  0  0
 13 12  1  0  0  0  0
 13 14  2  0  0  0  0
 14 15  1  0  0  0  0
 15 16  2  0  0  0  0
 15  2  1  0  0  0  0
 18 13  1  0  0  0  0
 19 25  1  0  0  0  0
 19 12  1  0  0  0  0
 20 19  1  0  0  0  0
 21 22  1  0  0  0  0
 21 20  2  0  0  0  0
 22 24  1  0  0  0  0
 23 22  2  0  0  0  0
 24 29  1  0  0  0  0
 24 25  1  0  0  0  0
 25 26  2  0  0  0  0
 27 20  1  0  0  0  0
 28 21  1  0  0  0  0
 30  1  1  0  0  0  0
 30 31  2  0  0  0  0
 30 32  2  0  0  0  0
 33 40  1  1  0  0  0
 33 34  1  0  0  0  0
 34 35  1  0  0  0  0
 34 30  1  1  0  0  0
 35 36  1  0  0  0  0
 37 35  1  0  0  0  0
 38 37  1  0  0  0  0
 38 33  1  0  0  0  0
 39 38  1  0  0  0  0
 41 40  1  0  0  0  0
M  END
>  <minimizedAffinity>
-7.00506353

>  <minimizedRMSD>
2.88416362

$$$$
