
 OpenBabel03212520413D

 23 25  0  0  1  0  0  0  0  0999 V2000
   42.1450   85.3680   59.6910 C   0  0  1  0  0  0  0  0  0  0  0  0
   43.1590   86.1900   58.9070 C   0  0  0  0  0  0  0  0  0  0  0  0
   42.5530   84.9140   58.3510 C   0  0  1  0  0  0  0  0  0  0  0  0
   41.2170   85.9550   59.8870 H   0  0  0  0  0  0  0  0  0  0  0  0
   42.8380   87.1280   58.4080 H   0  0  0  0  0  0  0  0  0  0  0  0
   44.2240   86.0920   59.1240 H   0  0  0  0  0  0  0  0  0  0  0  0
   41.7890   85.0330   57.5480 H   0  0  0  0  0  0  0  0  0  0  0  0
   42.7300   84.7560   60.8330 O   0  0  0  0  0  0  0  0  0  0  0  0
   40.0540   83.5100   62.9240 C   0  0  0  0  0  0  0  0  0  0  0  0
   40.5790   83.7060   64.2040 C   0  0  0  0  0  0  0  0  0  0  0  0
   41.8700   84.2750   64.3140 C   0  0  0  0  0  0  0  0  0  0  0  0
   42.4880   84.5820   63.1450 N   0  0  0  0  0  0  0  0  0  0  0  0
   41.9740   84.3900   61.9190 C   0  0  0  0  0  0  0  0  0  0  0  0
   40.7650   83.8570   61.7930 N   0  0  0  0  0  0  0  0  0  0  0  0
   39.0660   83.0760   62.8090 H   0  0  0  0  0  0  0  0  0  0  0  0
   40.0440   83.4440   65.0870 H   0  0  0  0  0  0  0  0  0  0  0  0
   42.3440   84.4580   65.2680 H   0  0  0  0  0  0  0  0  0  0  0  0
   43.3490   83.7620   58.2960 O   0  0  0  0  0  0  0  0  0  0  0  0
   43.3810   83.3530   56.9450 C   0  0  0  0  0  3  0  0  0  0  0  0
   44.5820   83.9550   56.2170 C   0  0  0  0  0  2  0  0  0  0  0  0
   44.0950   84.2900   54.8410 C   0  0  0  0  0  2  0  0  0  0  0  0
   42.6470   83.8950   54.7420 C   0  0  0  0  0  2  0  0  0  0  0  0
   42.2050   83.8950   56.1840 C   0  0  0  0  0  2  0  0  0  0  0  0
  1  4  1  1  0  0  0
  1  8  1  0  0  0  0
  2  6  1  0  0  0  0
  2  1  1  0  0  0  0
  3  7  1  6  0  0  0
  3  2  1  0  0  0  0
  3  1  1  0  0  0  0
  5  2  1  0  0  0  0
  8 13  1  0  0  0  0
  9 10  1  0  0  0  0
 10 11  2  0  0  0  0
 10 16  1  0  0  0  0
 11 17  1  0  0  0  0
 12 11  1  0  0  0  0
 13 12  2  0  0  0  0
 14 13  1  0  0  0  0
 14  9  2  0  0  0  0
 15  9  1  0  0  0  0
 18  3  1  0  0  0  0
 19 18  1  0  0  0  0
 20 19  1  0  0  0  0
 21 20  1  0  0  0  0
 22 21  1  0  0  0  0
 22 23  1  0  0  0  0
 23 19  1  0  0  0  0
M  END
>  <minimizedAffinity>
-3.69373798

>  <minimizedRMSD>
0.532565713

$$$$
