
 OpenBabel03212520313D

 37 40  0  0  0  0  0  0  0  0999 V2000
   40.0510   78.5750   59.4320 C   0  0  0  0  0  0  0  0  0  0  0  0
   40.0850   78.9640   58.1080 C   0  0  0  0  0  0  0  0  0  0  0  0
   40.9800   80.0130   57.7630 C   0  0  0  0  0  0  0  0  0  0  0  0
   41.7300   80.5460   58.7610 N   0  0  0  0  0  0  0  0  0  0  0  0
   41.6790   80.1560   60.0130 C   0  0  0  0  0  0  0  0  0  0  0  0
   40.8310   79.1640   60.3450 N   0  0  0  0  0  0  0  0  0  0  0  0
   39.3730   77.7720   59.7220 H   0  0  0  0  0  0  0  0  0  0  0  0
   41.0150   80.3250   56.7380 H   0  0  0  0  0  0  0  0  0  0  0  0
   39.2610   78.3460   57.1350 N   0  0  0  0  0  0  0  0  0  0  0  0
   38.1280   79.0060   56.8960 C   0  0  0  0  0  0  0  0  0  0  0  0
   37.2570   78.4620   55.9420 C   0  0  0  0  0  0  0  0  0  0  0  0
   37.5950   77.2760   55.2890 C   0  0  0  0  0  0  0  0  0  0  0  0
   36.8460   76.7600   54.4320 O   0  0  0  0  0  0  0  0  0  0  0  0
   38.7700   76.6690   55.5950 N   0  0  0  0  0  0  0  0  0  0  0  0
   39.6220   77.1920   56.5200 C   0  0  0  0  0  0  0  0  0  0  0  0
   40.6980   76.6430   56.8050 O   0  0  0  0  0  0  0  0  0  0  0  0
   37.8310   79.9110   57.3680 H   0  0  0  0  0  0  0  0  0  0  0  0
   36.3280   78.9620   55.7170 H   0  0  0  0  0  0  0  0  0  0  0  0
   39.0320   75.7880   55.1170 H   0  0  0  0  0  0  0  0  0  0  0  0
   42.1010   81.9230   61.6920 C   0  0  0  0  0  0  0  0  0  0  0  0
   42.5390   80.8380   60.9680 C   0  0  0  0  0  0  0  0  0  0  0  0
   43.8090   80.3390   61.1600 C   0  0  0  0  0  0  0  0  0  0  0  0
   44.7070   80.8880   62.0780 C   0  0  0  0  0  0  0  0  0  0  0  0
   44.2800   81.9800   62.8130 C   0  0  0  0  0  0  0  0  0  0  0  0
   43.0140   82.4680   62.6120 C   0  0  0  0  0  0  0  0  0  0  0  0
   44.1400   79.4810   60.5800 H   0  0  0  0  0  0  0  0  0  0  0  0
   45.6850   80.4440   62.1740 H   0  0  0  0  0  0  0  0  0  0  0  0
   44.9510   82.4240   63.5280 H   0  0  0  0  0  0  0  0  0  0  0  0
   42.6670   83.3230   63.1830 H   0  0  0  0  0  0  0  0  0  0  0  0
   40.5290   82.6000   61.4710 S   0  0  0  0  0  0  0  0  0  0  0  0
   40.2750   83.6570   62.5220 O   0  0  0  0  0  0  0  0  0  0  0  0
   39.5240   81.5340   61.9300 O   0  0  0  0  0  0  0  0  0  0  0  0
   40.0990   83.3700   60.0200 C   0  0  0  0  0  3  0  0  0  0  0  0
   41.3380   84.0460   59.3970 C   0  0  0  0  0  2  0  0  0  0  0  0
   40.8370   85.3300   58.7710 C   0  0  0  0  0  2  0  0  0  0  0  0
   39.3480   85.3870   59.1110 C   0  0  0  0  0  2  0  0  0  0  0  0
   39.3400   84.6530   60.4230 C   0  0  0  0  0  2  0  0  0  0  0  0
  1  7  1  0  0  0  0
  1  6  1  0  0  0  0
  2  1  2  0  0  0  0
  3  2  1  0  0  0  0
  3  4  2  0  0  0  0
  4  5  1  0  0  0  0
  5  6  2  0  0  0  0
  5 21  1  0  0  0  0
  8  3  1  0  0  0  0
  9  2  1  0  0  0  0
 10  9  1  0  0  0  0
 10 17  1  0  0  0  0
 11 10  2  0  0  0  0
 12 14  1  0  0  0  0
 12 11  1  0  0  0  0
 13 12  2  0  0  0  0
 14 15  1  0  0  0  0
 15 16  2  0  0  0  0
 15  9  1  0  0  0  0
 18 11  1  0  0  0  0
 19 14  1  0  0  0  0
 20 25  1  0  0  0  0
 21 22  1  0  0  0  0
 21 20  2  0  0  0  0
 22 23  2  0  0  0  0
 23 27  1  0  0  0  0
 23 24  1  0  0  0  0
 24 28  1  0  0  0  0
 25 24  2  0  0  0  0
 25 29  1  0  0  0  0
 26 22  1  0  0  0  0
 30 20  1  0  0  0  0
 30 32  2  0  0  0  0
 30 31  2  0  0  0  0
 33 37  1  0  0  0  0
 33 30  1  0  0  0  0
 34 33  1  0  0  0  0
 35 36  1  0  0  0  0
 35 34  1  0  0  0  0
 36 37  1  0  0  0  0
M  END
>  <minimizedAffinity>
-6.11653471

>  <minimizedRMSD>
1.98531079

$$$$
