
 OpenBabel03212520553D

 31 34  0  0  0  0  0  0  0  0999 V2000
   40.9080   80.2560   61.7320 C   0  0  0  0  0  0  0  0  0  0  0  0
   40.8430   79.0430   62.3890 C   0  0  0  0  0  0  0  0  0  0  0  0
   40.4820   77.9540   61.6840 C   0  0  0  0  0  0  0  0  0  0  0  0
   40.1900   78.0840   60.3340 C   0  0  0  0  0  0  0  0  0  0  0  0
   40.4410   79.8920   60.0210 S   0  0  0  0  0  0  0  0  0  0  0  0
   41.0740   78.9420   63.4550 H   0  0  0  0  0  0  0  0  0  0  0  0
   40.3750   76.9300   62.0170 H   0  0  0  0  0  0  0  0  0  0  0  0
   42.9570   83.0900   62.8360 C   0  0  0  0  0  0  0  0  0  0  0  0
   42.0500   83.8820   63.5690 C   0  0  0  0  0  0  0  0  0  0  0  0
   40.7460   83.4370   63.6770 C   0  0  0  0  0  0  0  0  0  0  0  0
   40.4070   82.2720   63.0790 N   0  0  0  0  0  0  0  0  0  0  0  0
   41.2940   81.5370   62.3860 C   0  0  0  0  0  0  0  0  0  0  0  0
   42.5510   81.9400   62.2660 N   0  0  0  0  0  0  0  0  0  0  0  0
   43.9810   83.4340   62.7480 H   0  0  0  0  0  0  0  0  0  0  0  0
   42.3220   84.8030   64.0410 H   0  0  0  0  0  0  0  0  0  0  0  0
   39.9640   83.9570   64.2110 H   0  0  0  0  0  0  0  0  0  0  0  0
   39.7810   77.2020   59.2730 C   0  0  0  0  0  0  0  0  0  0  0  0
   40.4130   76.0110   59.1090 C   0  0  0  0  0  0  0  0  0  0  0  0
   39.8970   75.2690   58.0350 C   0  0  0  0  0  0  0  0  0  0  0  0
   38.8850   75.6740   57.2410 N   0  0  0  0  0  0  0  0  0  0  0  0
   38.3210   76.8760   57.4850 C   0  0  0  0  0  0  0  0  0  0  0  0
   38.7670   77.6540   58.5090 N   0  0  0  0  0  0  0  0  0  0  0  0
   41.2170   75.6370   59.7040 H   0  0  0  0  0  0  0  0  0  0  0  0
   40.3100   74.2840   57.7810 H   0  0  0  0  0  0  0  0  0  0  0  0
   37.2320   77.3060   56.6270 C   0  0  0  0  0  0  0  0  0  0  0  0
   36.0500   77.0710   57.0200 O   0  0  0  0  0  0  0  0  0  0  0  0
   37.5700   77.9880   55.3540 C   0  0  0  0  0  3  0  0  0  0  0  0
   37.3310   79.4690   55.4130 C   0  0  0  0  0  2  0  0  0  0  0  0
   37.4750   79.8330   53.9340 C   0  0  0  0  0  2  0  0  0  0  0  0
   36.8440   78.6490   53.2130 C   0  0  0  0  0  2  0  0  0  0  0  0
   36.6300   77.5660   54.2320 C   0  0  0  0  0  2  0  0  0  0  0  0
  1 12  1  0  0  0  0
  1  2  2  0  0  0  0
  2  6  1  0  0  0  0
  3  7  1  0  0  0  0
  3  2  1  0  0  0  0
  4  3  2  0  0  0  0
  5  4  1  0  0  0  0
  5  1  1  0  0  0  0
  8  9  1  0  0  0  0
  9 10  2  0  0  0  0
  9 15  1  0  0  0  0
 10 16  1  0  0  0  0
 11 10  1  0  0  0  0
 12 11  2  0  0  0  0
 13 12  1  0  0  0  0
 13  8  2  0  0  0  0
 14  8  1  0  0  0  0
 17  4  1  0  0  0  0
 18 17  1  0  0  0  0
 18 23  1  0  0  0  0
 19 18  2  0  0  0  0
 20 21  2  0  0  0  0
 20 19  1  0  0  0  0
 21 22  1  0  0  0  0
 22 17  2  0  0  0  0
 24 19  1  0  0  0  0
 25 26  2  0  0  0  0
 25 21  1  0  0  0  0
 27 28  1  0  0  0  0
 27 25  1  0  0  0  0
 29 28  1  0  0  0  0
 30 29  1  0  0  0  0
 30 31  1  0  0  0  0
 31 27  1  0  0  0  0
M  END
>  <minimizedAffinity>
-6.55076361

>  <minimizedRMSD>
0.402736425

$$$$
