
 OpenBabel03212520563D

 31 34  0  0  0  0  0  0  0  0999 V2000
   40.9320   80.2390   61.7430 C   0  0  0  0  0  0  0  0  0  0  0  0
   40.8470   79.0290   62.4030 C   0  0  0  0  0  0  0  0  0  0  0  0
   40.4740   77.9440   61.6980 C   0  0  0  0  0  0  0  0  0  0  0  0
   40.1890   78.0750   60.3470 C   0  0  0  0  0  0  0  0  0  0  0  0
   40.4670   79.8780   60.0310 S   0  0  0  0  0  0  0  0  0  0  0  0
   41.0730   78.9270   63.4690 H   0  0  0  0  0  0  0  0  0  0  0  0
   40.3520   76.9220   62.0330 H   0  0  0  0  0  0  0  0  0  0  0  0
   42.9970   83.0850   62.7880 C   0  0  0  0  0  0  0  0  0  0  0  0
   42.1160   83.8550   63.5740 C   0  0  0  0  0  0  0  0  0  0  0  0
   40.8240   83.3920   63.7380 C   0  0  0  0  0  0  0  0  0  0  0  0
   40.4710   82.2310   63.1400 N   0  0  0  0  0  0  0  0  0  0  0  0
   41.3330   81.5170   62.3960 C   0  0  0  0  0  0  0  0  0  0  0  0
   42.5780   81.9370   62.2210 N   0  0  0  0  0  0  0  0  0  0  0  0
   44.0110   83.4430   62.6560 H   0  0  0  0  0  0  0  0  0  0  0  0
   42.4000   84.7730   64.0460 H   0  0  0  0  0  0  0  0  0  0  0  0
   40.0630   83.8940   64.3170 H   0  0  0  0  0  0  0  0  0  0  0  0
   39.7710   77.1970   59.2860 C   0  0  0  0  0  0  0  0  0  0  0  0
   40.3940   76.0010   59.1220 C   0  0  0  0  0  0  0  0  0  0  0  0
   39.8710   75.2620   58.0480 C   0  0  0  0  0  0  0  0  0  0  0  0
   38.8620   75.6760   57.2540 N   0  0  0  0  0  0  0  0  0  0  0  0
   38.3070   76.8830   57.4990 C   0  0  0  0  0  0  0  0  0  0  0  0
   38.7610   77.6570   58.5230 N   0  0  0  0  0  0  0  0  0  0  0  0
   41.1950   75.6190   59.7150 H   0  0  0  0  0  0  0  0  0  0  0  0
   40.2750   74.2740   57.7940 H   0  0  0  0  0  0  0  0  0  0  0  0
   37.2210   77.3220   56.6420 C   0  0  0  0  0  0  0  0  0  0  0  0
   36.0370   77.1010   57.0380 O   0  0  0  0  0  0  0  0  0  0  0  0
   37.5640   77.9970   55.3670 C   0  0  0  0  0  0  0  0  0  0  0  0
   37.3220   79.4770   55.4160 C   0  0  0  0  0  0  0  0  0  0  0  0
   37.4730   79.8320   53.9350 C   0  0  0  0  0  0  0  0  0  0  0  0
   36.8470   78.6430   53.2170 C   0  0  0  0  0  0  0  0  0  0  0  0
   36.6310   77.5650   54.2420 C   0  0  0  0  0  0  0  0  0  0  0  0
  1 12  1  0  0  0  0
  1  2  2  0  0  0  0
  2  6  1  0  0  0  0
  3  7  1  0  0  0  0
  3  2  1  0  0  0  0
  4  3  2  0  0  0  0
  5  4  1  0  0  0  0
  5  1  1  0  0  0  0
  8  9  1  0  0  0  0
  9 10  2  0  0  0  0
  9 15  1  0  0  0  0
 10 16  1  0  0  0  0
 11 10  1  0  0  0  0
 12 11  2  0  0  0  0
 13 12  1  0  0  0  0
 13  8  2  0  0  0  0
 14  8  1  0  0  0  0
 17  4  1  0  0  0  0
 18 17  1  0  0  0  0
 18 23  1  0  0  0  0
 19 18  2  0  0  0  0
 20 21  2  0  0  0  0
 20 19  1  0  0  0  0
 21 22  1  0  0  0  0
 22 17  2  0  0  0  0
 24 19  1  0  0  0  0
 25 26  2  0  0  0  0
 25 21  1  0  0  0  0
 27 28  1  0  0  0  0
 27 25  1  0  0  0  0
 29 28  1  0  0  0  0
 30 29  1  0  0  0  0
 30 31  1  0  0  0  0
 31 27  1  0  0  0  0
M  END
>  <minimizedAffinity>
-6.56764889

>  <minimizedRMSD>
0.332767546

$$$$
