
 OpenBabel03212520563D

 31 34  0  0  0  0  0  0  0  0999 V2000
   40.9750   80.2370   61.7400 C   0  0  0  0  0  0  0  0  0  0  0  0
   40.9810   79.0060   62.3650 C   0  0  0  0  0  0  0  0  0  0  0  0
   40.5980   77.9280   61.6550 C   0  0  0  0  0  0  0  0  0  0  0  0
   40.2130   78.0870   60.3320 C   0  0  0  0  0  0  0  0  0  0  0  0
   40.4030   79.9080   60.0540 S   0  0  0  0  0  0  0  0  0  0  0  0
   41.2850   78.8830   63.4100 H   0  0  0  0  0  0  0  0  0  0  0  0
   40.5370   76.8940   61.9660 H   0  0  0  0  0  0  0  0  0  0  0  0
   43.0390   83.0750   62.8080 C   0  0  0  0  0  0  0  0  0  0  0  0
   42.1570   83.8400   63.5980 C   0  0  0  0  0  0  0  0  0  0  0  0
   40.8650   83.3760   63.7560 C   0  0  0  0  0  0  0  0  0  0  0  0
   40.5120   82.2190   63.1500 N   0  0  0  0  0  0  0  0  0  0  0  0
   41.3750   81.5100   62.4020 C   0  0  0  0  0  0  0  0  0  0  0  0
   42.6210   81.9310   62.2330 N   0  0  0  0  0  0  0  0  0  0  0  0
   44.0540   83.4330   62.6810 H   0  0  0  0  0  0  0  0  0  0  0  0
   42.4400   84.7550   64.0770 H   0  0  0  0  0  0  0  0  0  0  0  0
   40.1020   83.8750   64.3370 H   0  0  0  0  0  0  0  0  0  0  0  0
   39.7530   77.2240   59.2760 C   0  0  0  0  0  0  0  0  0  0  0  0
   40.4230   76.0720   59.0120 C   0  0  0  0  0  0  0  0  0  0  0  0
   39.8490   75.3430   57.9580 C   0  0  0  0  0  0  0  0  0  0  0  0
   38.7540   75.7260   57.2690 N   0  0  0  0  0  0  0  0  0  0  0  0
   38.1590   76.8900   57.6080 C   0  0  0  0  0  0  0  0  0  0  0  0
   38.6570   77.6520   58.6200 N   0  0  0  0  0  0  0  0  0  0  0  0
   41.2920   75.7160   59.5200 H   0  0  0  0  0  0  0  0  0  0  0  0
   40.2830   74.3890   57.6310 H   0  0  0  0  0  0  0  0  0  0  0  0
   36.9810   77.2960   56.8640 C   0  0  0  0  0  0  0  0  0  0  0  0
   35.8680   76.7970   57.2120 O   0  0  0  0  0  0  0  0  0  0  0  0
   37.1520   78.2620   55.7520 C   0  0  0  0  0  3  0  0  0  0  0  0
   38.5050   78.1660   55.1100 C   0  0  0  0  0  2  0  0  0  0  0  0
   38.4920   79.4260   54.2440 C   0  0  0  0  0  2  0  0  0  0  0  0
   37.7570   80.4450   55.1060 C   0  0  0  0  0  2  0  0  0  0  0  0
   37.1470   79.6980   56.2590 C   0  0  0  0  0  2  0  0  0  0  0  0
  1  2  2  0  0  0  0
  1 12  1  0  0  0  0
  2  6  1  0  0  0  0
  3  7  1  0  0  0  0
  3  2  1  0  0  0  0
  4  3  2  0  0  0  0
  5  4  1  0  0  0  0
  5  1  1  0  0  0  0
  8  9  1  0  0  0  0
  9 10  2  0  0  0  0
  9 15  1  0  0  0  0
 10 16  1  0  0  0  0
 11 10  1  0  0  0  0
 12 11  2  0  0  0  0
 13 12  1  0  0  0  0
 13  8  2  0  0  0  0
 14  8  1  0  0  0  0
 17  4  1  0  0  0  0
 18 17  1  0  0  0  0
 18 23  1  0  0  0  0
 19 18  2  0  0  0  0
 20 21  2  0  0  0  0
 20 19  1  0  0  0  0
 21 22  1  0  0  0  0
 22 17  2  0  0  0  0
 24 19  1  0  0  0  0
 25 26  2  0  0  0  0
 25 21  1  0  0  0  0
 27 31  1  0  0  0  0
 27 25  1  0  0  0  0
 28 27  1  0  0  0  0
 29 30  1  0  0  0  0
 29 28  1  0  0  0  0
 30 31  1  0  0  0  0
M  END
>  <minimizedAffinity>
-6.24749231

>  <minimizedRMSD>
0.701304495

$$$$
