
 OpenBabel03212520353D

 32 35  0  0  0  0  0  0  0  0999 V2000
   40.7710   82.8910   60.4010 C   0  0  0  0  0  0  0  0  0  0  0  0
   39.6620   82.8290   61.2780 C   0  0  0  0  0  0  0  0  0  0  0  0
   39.6270   83.4370   62.5030 C   0  0  0  0  0  0  0  0  0  0  0  0
   40.7230   84.1560   62.9260 C   0  0  0  0  0  0  0  0  0  0  0  0
   41.8190   84.2310   62.0850 C   0  0  0  0  0  0  0  0  0  0  0  0
   42.9610   84.9380   62.4020 C   0  0  0  0  0  0  0  0  0  0  0  0
   44.0420   85.0030   61.5310 C   0  0  0  0  0  0  0  0  0  0  0  0
   44.0290   84.3600   60.3020 C   0  0  0  0  0  0  0  0  0  0  0  0
   42.8860   83.6490   59.9800 C   0  0  0  0  0  0  0  0  0  0  0  0
   41.8490   83.6120   60.8500 C   0  0  0  0  0  0  0  0  0  0  0  0
   38.7220   82.3250   61.1100 H   0  0  0  0  0  0  0  0  0  0  0  0
   38.8130   83.4220   63.2050 H   0  0  0  0  0  0  0  0  0  0  0  0
   40.8090   84.6780   63.8670 H   0  0  0  0  0  0  0  0  0  0  0  0
   42.9660   85.4420   63.3740 H   0  0  0  0  0  0  0  0  0  0  0  0
   44.8680   85.5980   61.9170 H   0  0  0  0  0  0  0  0  0  0  0  0
   44.9150   84.4750   59.7110 H   0  0  0  0  0  0  0  0  0  0  0  0
   43.0410   83.1590   59.0530 H   0  0  0  0  0  0  0  0  0  0  0  0
   40.7580   82.6810   57.8360 C   0  0  0  0  0  0  0  0  0  0  0  0
   40.5580   82.2170   59.1340 C   0  0  0  0  0  0  0  0  0  0  0  0
   40.0380   80.8780   59.3270 C   0  0  0  0  0  0  0  0  0  0  0  0
   39.7710   80.1380   58.2120 N   0  0  0  0  0  0  0  0  0  0  0  0
   39.9970   80.6680   56.9490 C   0  0  0  0  0  0  0  0  0  0  0  0
   40.4870   81.9240   56.7760 N   0  0  0  0  0  0  0  0  0  0  0  0
   41.0620   83.6700   57.6290 H   0  0  0  0  0  0  0  0  0  0  0  0
   39.8230   80.3250   60.2060 H   0  0  0  0  0  0  0  0  0  0  0  0
   39.6890   79.8910   55.7440 C   0  0  0  0  0  0  0  0  0  0  0  0
   40.5530   79.6310   54.8880 O   0  0  0  0  0  0  0  0  0  0  0  0
   38.2770   79.4300   55.6030 C   0  0  0  0  0  3  0  0  0  0  0  0
   37.8570   79.7380   54.1770 C   0  0  0  0  0  2  0  0  0  0  0  0
   36.9590   78.6120   53.7250 C   0  0  0  0  0  2  0  0  0  0  0  0
   36.8730   77.6500   54.8930 C   0  0  0  0  0  2  0  0  0  0  0  0
   38.1630   77.9280   55.6600 C   0  0  0  0  0  2  0  0  0  0  0  0
  1 10  2  0  0  0  0
  1  2  1  0  0  0  0
  2  3  2  0  0  0  0
  3  4  1  0  0  0  0
  3 12  1  0  0  0  0
  4 13  1  0  0  0  0
  5  6  1  0  0  0  0
  5  4  2  0  0  0  0
  6 14  1  0  0  0  0
  7 15  1  0  0  0  0
  7  6  2  0  0  0  0
  8  7  1  0  0  0  0
  9  8  2  0  0  0  0
  9 10  1  0  0  0  0
 10  5  1  0  0  0  0
 11  2  1  0  0  0  0
 16  8  1  0  0  0  0
 17  9  1  0  0  0  0
 18 19  1  0  0  0  0
 19 20  2  0  0  0  0
 19  1  1  0  0  0  0
 20 25  1  0  0  0  0
 21 20  1  0  0  0  0
 22 21  2  0  0  0  0
 23 22  1  0  0  0  0
 23 18  2  0  0  0  0
 24 18  1  0  0  0  0
 26 22  1  0  0  0  0
 27 26  2  0  0  0  0
 28 32  1  0  0  0  0
 28 26  1  0  0  0  0
 29 28  1  0  0  0  0
 30 29  1  0  0  0  0
 30 31  1  0  0  0  0
 31 32  1  0  0  0  0
M  END
>  <minimizedAffinity>
-5.50294781

>  <minimizedRMSD>
8.38670349

$$$$
