
 OpenBabel03212520573D

 31 34  0  0  0  0  0  0  0  0999 V2000
   41.8740   69.7400   62.1290 C   0  0  0  0  0  0  0  0  0  0  0  0
   41.8800   70.7240   63.0990 C   0  0  0  0  0  0  0  0  0  0  0  0
   42.0430   72.0020   62.7090 C   0  0  0  0  0  0  0  0  0  0  0  0
   42.1970   72.2880   61.3600 C   0  0  0  0  0  0  0  0  0  0  0  0
   42.1080   70.6190   60.5630 S   0  0  0  0  0  0  0  0  0  0  0  0
   41.7580   70.4960   64.1630 H   0  0  0  0  0  0  0  0  0  0  0  0
   42.0750   72.9000   63.3120 H   0  0  0  0  0  0  0  0  0  0  0  0
   40.4850   66.6280   63.4870 C   0  0  0  0  0  0  0  0  0  0  0  0
   41.3440   65.6370   62.9710 C   0  0  0  0  0  0  0  0  0  0  0  0
   42.3890   66.0440   62.1640 C   0  0  0  0  0  0  0  0  0  0  0  0
   42.5360   67.3650   61.9100 N   0  0  0  0  0  0  0  0  0  0  0  0
   41.7010   68.2890   62.4160 C   0  0  0  0  0  0  0  0  0  0  0  0
   40.6900   67.9270   63.1930 N   0  0  0  0  0  0  0  0  0  0  0  0
   39.6630   66.3150   64.1200 H   0  0  0  0  0  0  0  0  0  0  0  0
   41.2240   64.5920   63.1750 H   0  0  0  0  0  0  0  0  0  0  0  0
   43.1100   65.3770   61.7140 H   0  0  0  0  0  0  0  0  0  0  0  0
   42.3900   73.4740   60.5690 C   0  0  0  0  0  0  0  0  0  0  0  0
   43.6260   73.7630   60.0850 C   0  0  0  0  0  0  0  0  0  0  0  0
   43.6480   74.9490   59.3330 C   0  0  0  0  0  0  0  0  0  0  0  0
   42.5720   75.7290   59.1030 N   0  0  0  0  0  0  0  0  0  0  0  0
   41.3850   75.3550   59.6280 C   0  0  0  0  0  0  0  0  0  0  0  0
   41.2850   74.2180   60.3690 N   0  0  0  0  0  0  0  0  0  0  0  0
   44.5130   73.1870   60.2330 H   0  0  0  0  0  0  0  0  0  0  0  0
   44.5790   75.3100   58.8790 H   0  0  0  0  0  0  0  0  0  0  0  0
   40.2310   76.1990   59.3760 C   0  0  0  0  0  0  0  0  0  0  0  0
   39.9530   77.0820   60.2410 O   0  0  0  0  0  0  0  0  0  0  0  0
   39.4590   75.9770   58.1290 C   0  0  0  0  0  3  0  0  0  0  0  0
   38.7600   77.2170   57.6560 C   0  0  0  0  0  2  0  0  0  0  0  0
   37.8490   76.6280   56.5770 C   0  0  0  0  0  2  0  0  0  0  0  0
   37.4250   75.2860   57.1610 C   0  0  0  0  0  2  0  0  0  0  0  0
   38.2900   75.0280   58.3630 C   0  0  0  0  0  2  0  0  0  0  0  0
  1 12  1  0  0  0  0
  1  2  2  0  0  0  0
  2  6  1  0  0  0  0
  3  2  1  0  0  0  0
  3  7  1  0  0  0  0
  4  3  2  0  0  0  0
  5  4  1  0  0  0  0
  5  1  1  0  0  0  0
  8 14  1  0  0  0  0
  9 15  1  0  0  0  0
  9  8  2  0  0  0  0
 10  9  1  0  0  0  0
 11 10  2  0  0  0  0
 11 12  1  0  0  0  0
 12 13  2  0  0  0  0
 13  8  1  0  0  0  0
 16 10  1  0  0  0  0
 17  4  1  0  0  0  0
 18 23  1  0  0  0  0
 18 17  2  0  0  0  0
 19 18  1  0  0  0  0
 20 19  2  0  0  0  0
 20 21  1  0  0  0  0
 21 22  2  0  0  0  0
 22 17  1  0  0  0  0
 24 19  1  0  0  0  0
 25 21  1  0  0  0  0
 25 26  2  0  0  0  0
 27 31  1  0  0  0  0
 27 25  1  0  0  0  0
 28 27  1  0  0  0  0
 29 30  1  0  0  0  0
 29 28  1  0  0  0  0
 30 31  1  0  0  0  0
M  END
>  <minimizedAffinity>
-6.30145836

$$$$

 OpenBabel03212520573D

 31 34  0  0  0  0  0  0  0  0999 V2000
   38.9250   75.7570   57.1540 C   0  0  0  0  0  0  0  0  0  0  0  0
   38.7260   76.1480   58.4640 C   0  0  0  0  0  0  0  0  0  0  0  0
   39.6050   75.7310   59.3940 C   0  0  0  0  0  0  0  0  0  0  0  0
   40.6730   74.9320   59.0130 C   0  0  0  0  0  0  0  0  0  0  0  0
   40.4250   74.7430   57.1870 S   0  0  0  0  0  0  0  0  0  0  0  0
   37.8830   76.7790   58.7630 H   0  0  0  0  0  0  0  0  0  0  0  0
   39.6180   75.9300   60.4580 H   0  0  0  0  0  0  0  0  0  0  0  0
   36.4020   77.5790   55.2120 C   0  0  0  0  0  0  0  0  0  0  0  0
   36.3830   76.8930   53.9800 C   0  0  0  0  0  0  0  0  0  0  0  0
   37.2330   75.8140   53.8280 C   0  0  0  0  0  0  0  0  0  0  0  0
   38.0380   75.4720   54.8610 N   0  0  0  0  0  0  0  0  0  0  0  0
   38.0350   76.1440   56.0250 C   0  0  0  0  0  0  0  0  0  0  0  0
   37.2300   77.1830   56.1990 N   0  0  0  0  0  0  0  0  0  0  0  0
   35.7380   78.4250   55.3370 H   0  0  0  0  0  0  0  0  0  0  0  0
   35.7440   77.1670   53.1660 H   0  0  0  0  0  0  0  0  0  0  0  0
   37.3060   75.2140   52.9330 H   0  0  0  0  0  0  0  0  0  0  0  0
   41.7850   74.3030   59.6750 C   0  0  0  0  0  0  0  0  0  0  0  0
   43.0500   74.7080   59.3920 C   0  0  0  0  0  0  0  0  0  0  0  0
   44.0190   74.0000   60.1200 C   0  0  0  0  0  0  0  0  0  0  0  0
   43.7460   73.0210   61.0070 N   0  0  0  0  0  0  0  0  0  0  0  0
   42.4540   72.6900   61.2180 C   0  0  0  0  0  0  0  0  0  0  0  0
   41.4580   73.3320   60.5500 N   0  0  0  0  0  0  0  0  0  0  0  0
   43.3280   75.4750   58.7020 H   0  0  0  0  0  0  0  0  0  0  0  0
   45.0880   74.2180   59.9960 H   0  0  0  0  0  0  0  0  0  0  0  0
   42.1680   71.6360   62.1750 C   0  0  0  0  0  0  0  0  0  0  0  0
   41.2860   71.8690   63.0550 O   0  0  0  0  0  0  0  0  0  0  0  0
   42.9200   70.3620   62.0600 C   0  0  0  0  0  3  0  0  0  0  0  0
   42.3520   69.4510   61.0120 C   0  0  0  0  0  2  0  0  0  0  0  0
   43.1140   68.1610   61.3230 C   0  0  0  0  0  2  0  0  0  0  0  0
   43.2060   68.1590   62.8440 C   0  0  0  0  0  2  0  0  0  0  0  0
   42.7760   69.5180   63.3200 C   0  0  0  0  0  2  0  0  0  0  0  0
  1  5  1  0  0  0  0
  1  2  2  0  0  0  0
  2  6  1  0  0  0  0
  2  3  1  0  0  0  0
  3  7  1  0  0  0  0
  4  3  2  0  0  0  0
  4 17  1  0  0  0  0
  5  4  1  0  0  0  0
  8 14  1  0  0  0  0
  8 13  1  0  0  0  0
  9  8  2  0  0  0  0
 10  9  1  0  0  0  0
 10 11  2  0  0  0  0
 11 12  1  0  0  0  0
 12 13  2  0  0  0  0
 12  1  1  0  0  0  0
 15  9  1  0  0  0  0
 16 10  1  0  0  0  0
 17 22  1  0  0  0  0
 18 17  2  0  0  0  0
 18 19  1  0  0  0  0
 19 20  2  0  0  0  0
 20 21  1  0  0  0  0
 21 25  1  0  0  0  0
 22 21  2  0  0  0  0
 23 18  1  0  0  0  0
 24 19  1  0  0  0  0
 25 26  2  0  0  0  0
 27 25  1  0  0  0  0
 27 31  1  0  0  0  0
 28 29  1  0  0  0  0
 28 27  1  0  0  0  0
 29 30  1  0  0  0  0
 30 31  1  0  0  0  0
M  END
>  <minimizedAffinity>
-6.09695911

$$$$

 OpenBabel03212520573D

 31 34  0  0  0  0  0  0  0  0999 V2000
   39.0820   75.2270   58.6760 C   0  0  0  0  0  0  0  0  0  0  0  0
   39.2030   75.6510   59.9850 C   0  0  0  0  0  0  0  0  0  0  0  0
   39.8730   74.8670   60.8500 C   0  0  0  0  0  0  0  0  0  0  0  0
   40.4150   73.6710   60.4050 C   0  0  0  0  0  0  0  0  0  0  0  0
   39.9460   73.6370   58.6130 S   0  0  0  0  0  0  0  0  0  0  0  0
   38.7740   76.5960   60.3350 H   0  0  0  0  0  0  0  0  0  0  0  0
   40.0700   75.0260   61.9020 H   0  0  0  0  0  0  0  0  0  0  0  0
   38.0870   78.0100   56.5030 C   0  0  0  0  0  0  0  0  0  0  0  0
   37.0950   77.4400   55.6790 C   0  0  0  0  0  0  0  0  0  0  0  0
   36.7780   76.1100   55.8760 C   0  0  0  0  0  0  0  0  0  0  0  0
   37.4300   75.4240   56.8430 N   0  0  0  0  0  0  0  0  0  0  0  0
   38.3720   75.9940   57.6140 C   0  0  0  0  0  0  0  0  0  0  0  0
   38.6970   77.2680   57.4470 N   0  0  0  0  0  0  0  0  0  0  0  0
   38.3410   79.0530   56.3530 H   0  0  0  0  0  0  0  0  0  0  0  0
   36.5820   77.9870   54.9150 H   0  0  0  0  0  0  0  0  0  0  0  0
   36.0360   75.5670   55.3080 H   0  0  0  0  0  0  0  0  0  0  0  0
   41.1690   72.5930   60.9890 C   0  0  0  0  0  0  0  0  0  0  0  0
   41.6780   72.7330   62.2400 C   0  0  0  0  0  0  0  0  0  0  0  0
   42.3840   71.5970   62.6670 C   0  0  0  0  0  0  0  0  0  0  0  0
   42.5500   70.4780   61.9310 N   0  0  0  0  0  0  0  0  0  0  0  0
   42.0040   70.4370   60.6960 C   0  0  0  0  0  0  0  0  0  0  0  0
   41.3050   71.5000   60.2130 N   0  0  0  0  0  0  0  0  0  0  0  0
   41.5810   73.5910   62.8690 H   0  0  0  0  0  0  0  0  0  0  0  0
   42.8530   71.5640   63.6580 H   0  0  0  0  0  0  0  0  0  0  0  0
   42.1850   69.2300   59.9100 C   0  0  0  0  0  0  0  0  0  0  0  0
   42.1540   69.3440   58.6480 O   0  0  0  0  0  0  0  0  0  0  0  0
   42.3960   67.9500   60.6300 C   0  0  0  0  0  3  0  0  0  0  0  0
   42.9390   66.8710   59.7390 C   0  0  0  0  0  2  0  0  0  0  0  0
   42.7720   65.6510   60.6470 C   0  0  0  0  0  2  0  0  0  0  0  0
   41.4560   65.9190   61.3660 C   0  0  0  0  0  2  0  0  0  0  0  0
   41.0730   67.3450   61.0830 C   0  0  0  0  0  2  0  0  0  0  0  0
  1  2  2  0  0  0  0
  2  6  1  0  0  0  0
  2  3  1  0  0  0  0
  3  7  1  0  0  0  0
  4  3  2  0  0  0  0
  4 17  1  0  0  0  0
  5  1  1  0  0  0  0
  5  4  1  0  0  0  0
  8 13  1  0  0  0  0
  9 10  1  0  0  0  0
  9  8  2  0  0  0  0
 10 11  2  0  0  0  0
 11 12  1  0  0  0  0
 12  1  1  0  0  0  0
 13 12  2  0  0  0  0
 14  8  1  0  0  0  0
 15  9  1  0  0  0  0
 16 10  1  0  0  0  0
 17 18  1  0  0  0  0
 18 19  2  0  0  0  0
 18 23  1  0  0  0  0
 19 24  1  0  0  0  0
 20 19  1  0  0  0  0
 21 20  2  0  0  0  0
 22 21  1  0  0  0  0
 22 17  2  0  0  0  0
 25 27  1  0  0  0  0
 25 21  1  0  0  0  0
 26 25  2  0  0  0  0
 27 31  1  0  0  0  0
 28 27  1  0  0  0  0
 28 29  1  0  0  0  0
 29 30  1  0  0  0  0
 31 30  1  0  0  0  0
M  END
>  <minimizedAffinity>
-6.0047245

$$$$

 OpenBabel03212520573D

 31 34  0  0  0  0  0  0  0  0999 V2000
   41.2930   72.2720   60.9190 C   0  0  0  0  0  0  0  0  0  0  0  0
   40.2990   72.8090   61.7140 C   0  0  0  0  0  0  0  0  0  0  0  0
   39.6810   73.9290   61.2930 C   0  0  0  0  0  0  0  0  0  0  0  0
   40.0580   74.5020   60.0870 C   0  0  0  0  0  0  0  0  0  0  0  0
   41.3980   73.3730   59.4860 S   0  0  0  0  0  0  0  0  0  0  0  0
   40.0030   72.3550   62.6650 H   0  0  0  0  0  0  0  0  0  0  0  0
   38.8890   74.4910   61.7700 H   0  0  0  0  0  0  0  0  0  0  0  0
   43.0030   69.7050   62.9040 C   0  0  0  0  0  0  0  0  0  0  0  0
   43.4530   68.7890   61.9320 C   0  0  0  0  0  0  0  0  0  0  0  0
   43.1660   69.0590   60.6070 C   0  0  0  0  0  0  0  0  0  0  0  0
   42.4720   70.1820   60.3110 N   0  0  0  0  0  0  0  0  0  0  0  0
   42.0560   71.0390   61.2590 C   0  0  0  0  0  0  0  0  0  0  0  0
   42.3170   70.8050   62.5370 N   0  0  0  0  0  0  0  0  0  0  0  0
   43.2260   69.4990   63.9440 H   0  0  0  0  0  0  0  0  0  0  0  0
   44.0030   67.9010   62.1710 H   0  0  0  0  0  0  0  0  0  0  0  0
   43.4580   68.4320   59.7770 H   0  0  0  0  0  0  0  0  0  0  0  0
   39.6620   75.6510   59.3180 C   0  0  0  0  0  0  0  0  0  0  0  0
   40.0450   76.8910   59.7190 C   0  0  0  0  0  0  0  0  0  0  0  0
   39.5820   77.9030   58.8630 C   0  0  0  0  0  0  0  0  0  0  0  0
   38.8360   77.6900   57.7590 N   0  0  0  0  0  0  0  0  0  0  0  0
   38.5060   76.4190   57.4440 C   0  0  0  0  0  0  0  0  0  0  0  0
   38.9190   75.3840   58.2250 N   0  0  0  0  0  0  0  0  0  0  0  0
   40.6330   77.1220   60.5800 H   0  0  0  0  0  0  0  0  0  0  0  0
   39.8130   78.9570   59.0610 H   0  0  0  0  0  0  0  0  0  0  0  0
   37.7050   76.1970   56.2540 C   0  0  0  0  0  0  0  0  0  0  0  0
   36.5420   76.7020   56.2300 O   0  0  0  0  0  0  0  0  0  0  0  0
   38.2940   75.4010   55.1500 C   0  0  0  0  0  3  0  0  0  0  0  0
   39.5400   76.0250   54.5920 C   0  0  0  0  0  2  0  0  0  0  0  0
   39.7360   75.1770   53.3340 C   0  0  0  0  0  2  0  0  0  0  0  0
   38.3150   74.9370   52.8410 C   0  0  0  0  0  2  0  0  0  0  0  0
   37.3810   75.3820   53.9320 C   0  0  0  0  0  2  0  0  0  0  0  0
  1 12  1  0  0  0  0
  1  2  2  0  0  0  0
  2  6  1  0  0  0  0
  3  2  1  0  0  0  0
  3  7  1  0  0  0  0
  4  3  2  0  0  0  0
  5  4  1  0  0  0  0
  5  1  1  0  0  0  0
  8 14  1  0  0  0  0
  9 15  1  0  0  0  0
  9  8  2  0  0  0  0
 10  9  1  0  0  0  0
 11 10  2  0  0  0  0
 11 12  1  0  0  0  0
 12 13  2  0  0  0  0
 13  8  1  0  0  0  0
 16 10  1  0  0  0  0
 17 18  1  0  0  0  0
 17  4  1  0  0  0  0
 18 23  1  0  0  0  0
 19 24  1  0  0  0  0
 19 18  2  0  0  0  0
 20 19  1  0  0  0  0
 21 20  2  0  0  0  0
 21 22  1  0  0  0  0
 22 17  2  0  0  0  0
 25 21  1  0  0  0  0
 26 25  2  0  0  0  0
 27 25  1  0  0  0  0
 28 27  1  0  0  0  0
 29 28  1  0  0  0  0
 30 29  1  0  0  0  0
 30 31  1  0  0  0  0
 31 27  1  0  0  0  0
M  END
>  <minimizedAffinity>
-5.84085083

$$$$

 OpenBabel03212520573D

 31 34  0  0  0  0  0  0  0  0999 V2000
   39.1590   75.2250   58.7360 C   0  0  0  0  0  0  0  0  0  0  0  0
   39.0840   75.5050   60.0860 C   0  0  0  0  0  0  0  0  0  0  0  0
   39.7620   74.7150   60.9400 C   0  0  0  0  0  0  0  0  0  0  0  0
   40.5080   73.6560   60.4420 C   0  0  0  0  0  0  0  0  0  0  0  0
   40.2360   73.7740   58.6130 S   0  0  0  0  0  0  0  0  0  0  0  0
   38.4960   76.3410   60.4780 H   0  0  0  0  0  0  0  0  0  0  0  0
   39.8260   74.7730   62.0180 H   0  0  0  0  0  0  0  0  0  0  0  0
   36.8150   76.0940   56.0520 C   0  0  0  0  0  0  0  0  0  0  0  0
   37.1590   77.4250   55.7380 C   0  0  0  0  0  0  0  0  0  0  0  0
   38.1900   78.0100   56.4480 C   0  0  0  0  0  0  0  0  0  0  0  0
   38.8130   77.2830   57.4040 N   0  0  0  0  0  0  0  0  0  0  0  0
   38.4640   76.0150   57.6820 C   0  0  0  0  0  0  0  0  0  0  0  0
   37.4800   75.4280   57.0160 N   0  0  0  0  0  0  0  0  0  0  0  0
   36.0080   75.6300   55.4980 H   0  0  0  0  0  0  0  0  0  0  0  0
   36.6630   77.9960   54.9810 H   0  0  0  0  0  0  0  0  0  0  0  0
   38.5410   79.0210   56.2970 H   0  0  0  0  0  0  0  0  0  0  0  0
   41.3380   72.6210   60.9980 C   0  0  0  0  0  0  0  0  0  0  0  0
   41.3470   72.4190   62.3410 C   0  0  0  0  0  0  0  0  0  0  0  0
   42.2040   71.3750   62.7240 C   0  0  0  0  0  0  0  0  0  0  0  0
   42.9450   70.6400   61.8690 N   0  0  0  0  0  0  0  0  0  0  0  0
   42.8660   70.9190   60.5500 C   0  0  0  0  0  0  0  0  0  0  0  0
   42.0570   71.9170   60.1020 N   0  0  0  0  0  0  0  0  0  0  0  0
   40.7850   72.9650   63.0660 H   0  0  0  0  0  0  0  0  0  0  0  0
   42.3160   71.0960   63.7800 H   0  0  0  0  0  0  0  0  0  0  0  0
   43.6660   70.1240   59.6360 C   0  0  0  0  0  0  0  0  0  0  0  0
   44.8940   70.4180   59.5260 O   0  0  0  0  0  0  0  0  0  0  0  0
   42.9990   69.0260   58.8950 C   0  0  0  0  0  3  0  0  0  0  0  0
   42.4810   69.4660   57.5570 C   0  0  0  0  0  2  0  0  0  0  0  0
   41.6230   68.2560   57.1800 C   0  0  0  0  0  2  0  0  0  0  0  0
   41.0080   67.8270   58.5060 C   0  0  0  0  0  2  0  0  0  0  0  0
   41.7210   68.5810   59.5940 C   0  0  0  0  0  2  0  0  0  0  0  0
  1  2  2  0  0  0  0
  2  6  1  0  0  0  0
  2  3  1  0  0  0  0
  3  7  1  0  0  0  0
  4  3  2  0  0  0  0
  4 17  1  0  0  0  0
  5  1  1  0  0  0  0
  5  4  1  0  0  0  0
  8 13  1  0  0  0  0
  9  8  2  0  0  0  0
  9 10  1  0  0  0  0
 10 11  2  0  0  0  0
 11 12  1  0  0  0  0
 12  1  1  0  0  0  0
 13 12  2  0  0  0  0
 14  8  1  0  0  0  0
 15  9  1  0  0  0  0
 16 10  1  0  0  0  0
 17 18  1  0  0  0  0
 18 19  2  0  0  0  0
 18 23  1  0  0  0  0
 19 24  1  0  0  0  0
 20 19  1  0  0  0  0
 21 20  2  0  0  0  0
 22 21  1  0  0  0  0
 22 17  2  0  0  0  0
 25 21  1  0  0  0  0
 26 25  2  0  0  0  0
 27 31  1  0  0  0  0
 27 25  1  0  0  0  0
 28 27  1  0  0  0  0
 29 28  1  0  0  0  0
 29 30  1  0  0  0  0
 30 31  1  0  0  0  0
M  END
>  <minimizedAffinity>
-5.81828213

$$$$

 OpenBabel03212520573D

 31 34  0  0  0  0  0  0  0  0999 V2000
   41.8000   70.5090   61.2580 C   0  0  0  0  0  0  0  0  0  0  0  0
   41.7480   70.6380   59.8840 C   0  0  0  0  0  0  0  0  0  0  0  0
   41.2560   71.7810   59.3690 C   0  0  0  0  0  0  0  0  0  0  0  0
   40.8230   72.7820   60.2260 C   0  0  0  0  0  0  0  0  0  0  0  0
   41.1290   72.0610   61.9040 S   0  0  0  0  0  0  0  0  0  0  0  0
   42.0900   69.8470   59.2090 H   0  0  0  0  0  0  0  0  0  0  0  0
   41.1360   72.0650   58.3320 H   0  0  0  0  0  0  0  0  0  0  0  0
   42.1820   67.0130   62.3020 C   0  0  0  0  0  0  0  0  0  0  0  0
   43.2430   67.0650   63.2290 C   0  0  0  0  0  0  0  0  0  0  0  0
   43.8170   68.2950   63.4860 C   0  0  0  0  0  0  0  0  0  0  0  0
   43.3350   69.3830   62.8400 N   0  0  0  0  0  0  0  0  0  0  0  0
   42.3210   69.3040   61.9610 C   0  0  0  0  0  0  0  0  0  0  0  0
   41.7520   68.1370   61.6950 N   0  0  0  0  0  0  0  0  0  0  0  0
   41.7280   66.0510   62.0960 H   0  0  0  0  0  0  0  0  0  0  0  0
   43.6200   66.2020   63.7380 H   0  0  0  0  0  0  0  0  0  0  0  0
   44.6330   68.4580   64.1750 H   0  0  0  0  0  0  0  0  0  0  0  0
   40.2540   74.0960   60.0800 C   0  0  0  0  0  0  0  0  0  0  0  0
   39.8980   74.7990   61.1860 C   0  0  0  0  0  0  0  0  0  0  0  0
   39.3620   76.0590   60.8770 C   0  0  0  0  0  0  0  0  0  0  0  0
   39.2100   76.5390   59.6250 N   0  0  0  0  0  0  0  0  0  0  0  0
   39.5950   75.7630   58.5900 C   0  0  0  0  0  0  0  0  0  0  0  0
   40.1230   74.5280   58.8100 N   0  0  0  0  0  0  0  0  0  0  0  0
   39.9940   74.4730   62.1990 H   0  0  0  0  0  0  0  0  0  0  0  0
   39.0290   76.7400   61.6700 H   0  0  0  0  0  0  0  0  0  0  0  0
   39.4280   76.2860   57.2460 C   0  0  0  0  0  0  0  0  0  0  0  0
   40.4570   76.7470   56.6660 O   0  0  0  0  0  0  0  0  0  0  0  0
   38.0740   76.2460   56.6410 C   0  0  0  0  0  3  0  0  0  0  0  0
   37.9740   75.2550   55.5190 C   0  0  0  0  0  2  0  0  0  0  0  0
   36.6160   75.6410   54.9280 C   0  0  0  0  0  2  0  0  0  0  0  0
   36.5910   77.1590   55.0550 C   0  0  0  0  0  2  0  0  0  0  0  0
   37.7450   77.5540   55.9340 C   0  0  0  0  0  2  0  0  0  0  0  0
  1  5  1  0  0  0  0
  1 12  1  0  0  0  0
  2  1  2  0  0  0  0
  3  2  1  0  0  0  0
  3  4  2  0  0  0  0
  4  5  1  0  0  0  0
  6  2  1  0  0  0  0
  7  3  1  0  0  0  0
  8  9  1  0  0  0  0
  9 10  2  0  0  0  0
  9 15  1  0  0  0  0
 10 16  1  0  0  0  0
 11 10  1  0  0  0  0
 12 11  2  0  0  0  0
 13 12  1  0  0  0  0
 13  8  2  0  0  0  0
 14  8  1  0  0  0  0
 17  4  1  0  0  0  0
 17 18  1  0  0  0  0
 18 23  1  0  0  0  0
 19 18  2  0  0  0  0
 19 24  1  0  0  0  0
 20 19  1  0  0  0  0
 21 22  1  0  0  0  0
 21 20  2  0  0  0  0
 22 17  2  0  0  0  0
 25 21  1  0  0  0  0
 26 25  2  0  0  0  0
 27 25  1  0  0  0  0
 28 27  1  0  0  0  0
 29 30  1  0  0  0  0
 29 28  1  0  0  0  0
 30 31  1  0  0  0  0
 31 27  1  0  0  0  0
M  END
>  <minimizedAffinity>
-5.73878098

$$$$

 OpenBabel03212520573D

 31 34  0  0  0  0  0  0  0  0999 V2000
   41.5420   68.8650   56.5990 C   0  0  0  0  0  0  0  0  0  0  0  0
   41.4440   68.0940   57.7410 C   0  0  0  0  0  0  0  0  0  0  0  0
   41.4190   68.7210   58.9330 C   0  0  0  0  0  0  0  0  0  0  0  0
   41.4930   70.1050   58.9760 C   0  0  0  0  0  0  0  0  0  0  0  0
   41.6080   70.5760   57.1880 S   0  0  0  0  0  0  0  0  0  0  0  0
   41.3850   67.0020   57.7060 H   0  0  0  0  0  0  0  0  0  0  0  0
   41.3470   68.2960   59.9250 H   0  0  0  0  0  0  0  0  0  0  0  0
   42.7800   67.1840   53.5830 C   0  0  0  0  0  0  0  0  0  0  0  0
   41.6890   67.2670   52.6940 C   0  0  0  0  0  0  0  0  0  0  0  0
   40.5410   67.8970   53.1360 C   0  0  0  0  0  0  0  0  0  0  0  0
   40.5220   68.4000   54.3920 N   0  0  0  0  0  0  0  0  0  0  0  0
   41.5780   68.3070   55.2190 C   0  0  0  0  0  0  0  0  0  0  0  0
   42.6910   67.7070   54.8210 N   0  0  0  0  0  0  0  0  0  0  0  0
   43.6820   66.6910   53.2410 H   0  0  0  0  0  0  0  0  0  0  0  0
   41.7090   66.8680   51.7000 H   0  0  0  0  0  0  0  0  0  0  0  0
   39.6450   68.0210   52.5470 H   0  0  0  0  0  0  0  0  0  0  0  0
   41.4990   71.1110   60.0040 C   0  0  0  0  0  0  0  0  0  0  0  0
   42.3950   71.0250   61.0220 C   0  0  0  0  0  0  0  0  0  0  0  0
   42.2740   72.0800   61.9400 C   0  0  0  0  0  0  0  0  0  0  0  0
   41.3740   73.0800   61.8410 N   0  0  0  0  0  0  0  0  0  0  0  0
   40.5250   73.0780   60.7910 C   0  0  0  0  0  0  0  0  0  0  0  0
   40.5810   72.0870   59.8590 N   0  0  0  0  0  0  0  0  0  0  0  0
   43.1290   70.2600   61.1530 H   0  0  0  0  0  0  0  0  0  0  0  0
   42.9320   72.1430   62.8160 H   0  0  0  0  0  0  0  0  0  0  0  0
   39.5600   74.1570   60.6920 C   0  0  0  0  0  0  0  0  0  0  0  0
   38.4680   74.0250   61.3210 O   0  0  0  0  0  0  0  0  0  0  0  0
   39.9130   75.3380   59.8670 C   0  0  0  0  0  3  0  0  0  0  0  0
   39.9040   76.6150   60.6560 C   0  0  0  0  0  2  0  0  0  0  0  0
   40.0040   77.6410   59.5250 C   0  0  0  0  0  2  0  0  0  0  0  0
   39.1550   77.0330   58.4150 C   0  0  0  0  0  2  0  0  0  0  0  0
   38.8490   75.6150   58.8120 C   0  0  0  0  0  2  0  0  0  0  0  0
  1  5  1  0  0  0  0
  1  2  2  0  0  0  0
  2  3  1  0  0  0  0
  3  4  2  0  0  0  0
  3  7  1  0  0  0  0
  4 17  1  0  0  0  0
  5  4  1  0  0  0  0
  6  2  1  0  0  0  0
  8 13  1  0  0  0  0
  9 10  1  0  0  0  0
  9  8  2  0  0  0  0
 10 11  2  0  0  0  0
 11 12  1  0  0  0  0
 12  1  1  0  0  0  0
 13 12  2  0  0  0  0
 14  8  1  0  0  0  0
 15  9  1  0  0  0  0
 16 10  1  0  0  0  0
 17 18  1  0  0  0  0
 18 23  1  0  0  0  0
 18 19  2  0  0  0  0
 19 24  1  0  0  0  0
 20 19  1  0  0  0  0
 21 20  2  0  0  0  0
 22 17  2  0  0  0  0
 22 21  1  0  0  0  0
 25 21  1  0  0  0  0
 25 26  2  0  0  0  0
 27 28  1  0  0  0  0
 27 25  1  0  0  0  0
 29 28  1  0  0  0  0
 30 31  1  0  0  0  0
 30 29  1  0  0  0  0
 31 27  1  0  0  0  0
M  END
>  <minimizedAffinity>
-5.71549129

$$$$

 OpenBabel03212520573D

 31 34  0  0  0  0  0  0  0  0999 V2000
   38.6810   74.1080   57.2420 C   0  0  0  0  0  0  0  0  0  0  0  0
   38.5530   72.7330   57.2460 C   0  0  0  0  0  0  0  0  0  0  0  0
   39.2030   72.0350   58.1960 C   0  0  0  0  0  0  0  0  0  0  0  0
   39.9730   72.7110   59.1310 C   0  0  0  0  0  0  0  0  0  0  0  0
   39.7710   74.4850   58.6380 S   0  0  0  0  0  0  0  0  0  0  0  0
   37.9450   72.2000   56.5070 H   0  0  0  0  0  0  0  0  0  0  0  0
   39.2250   70.9650   58.3610 H   0  0  0  0  0  0  0  0  0  0  0  0
   37.5250   75.4540   54.0310 C   0  0  0  0  0  0  0  0  0  0  0  0
   36.8170   76.6160   54.4020 C   0  0  0  0  0  0  0  0  0  0  0  0
   36.7430   76.9260   55.7470 C   0  0  0  0  0  0  0  0  0  0  0  0
   37.3490   76.1050   56.6350 N   0  0  0  0  0  0  0  0  0  0  0  0
   38.0180   75.0030   56.2530 C   0  0  0  0  0  0  0  0  0  0  0  0
   38.1050   74.6820   54.9700 N   0  0  0  0  0  0  0  0  0  0  0  0
   37.5870   75.2070   52.9780 H   0  0  0  0  0  0  0  0  0  0  0  0
   36.3390   77.2630   53.6950 H   0  0  0  0  0  0  0  0  0  0  0  0
   36.2300   77.7870   56.1490 H   0  0  0  0  0  0  0  0  0  0  0  0
   40.7900   72.3480   60.2580 C   0  0  0  0  0  0  0  0  0  0  0  0
   40.9290   73.2150   61.2930 C   0  0  0  0  0  0  0  0  0  0  0  0
   41.7550   72.7140   62.3120 C   0  0  0  0  0  0  0  0  0  0  0  0
   42.3540   71.5050   62.2860 N   0  0  0  0  0  0  0  0  0  0  0  0
   42.1530   70.7130   61.2100 C   0  0  0  0  0  0  0  0  0  0  0  0
   41.3650   71.1310   60.1820 N   0  0  0  0  0  0  0  0  0  0  0  0
   40.4820   74.1820   61.3710 H   0  0  0  0  0  0  0  0  0  0  0  0
   41.9600   73.3050   63.2130 H   0  0  0  0  0  0  0  0  0  0  0  0
   42.8000   69.4140   61.1890 C   0  0  0  0  0  0  0  0  0  0  0  0
   44.0330   69.3800   60.8980 O   0  0  0  0  0  0  0  0  0  0  0  0
   41.9820   68.2190   61.5090 C   0  0  0  0  0  3  0  0  0  0  0  0
   42.5610   67.4090   62.6320 C   0  0  0  0  0  2  0  0  0  0  0  0
   41.7040   66.1450   62.5330 C   0  0  0  0  0  2  0  0  0  0  0  0
   41.5140   65.9590   61.0330 C   0  0  0  0  0  2  0  0  0  0  0  0
   41.9930   67.2160   60.3620 C   0  0  0  0  0  2  0  0  0  0  0  0
  1  2  2  0  0  0  0
  1  5  1  0  0  0  0
  2  3  1  0  0  0  0
  3  7  1  0  0  0  0
  3  4  2  0  0  0  0
  4 17  1  0  0  0  0
  5  4  1  0  0  0  0
  6  2  1  0  0  0  0
  8  9  2  0  0  0  0
  8 13  1  0  0  0  0
  9 10  1  0  0  0  0
 10 16  1  0  0  0  0
 10 11  2  0  0  0  0
 12 11  1  0  0  0  0
 12  1  1  0  0  0  0
 13 12  2  0  0  0  0
 14  8  1  0  0  0  0
 15  9  1  0  0  0  0
 17 18  1  0  0  0  0
 18 23  1  0  0  0  0
 18 19  2  0  0  0  0
 19 24  1  0  0  0  0
 20 19  1  0  0  0  0
 21 20  2  0  0  0  0
 22 17  2  0  0  0  0
 22 21  1  0  0  0  0
 25 21  1  0  0  0  0
 25 27  1  0  0  0  0
 26 25  2  0  0  0  0
 27 28  1  0  0  0  0
 29 28  1  0  0  0  0
 30 29  1  0  0  0  0
 31 30  1  0  0  0  0
 31 27  1  0  0  0  0
M  END
>  <minimizedAffinity>
-5.68785048

$$$$

 OpenBabel03212520573D

 31 34  0  0  0  0  0  0  0  0999 V2000
   42.4000   70.8690   61.6590 C   0  0  0  0  0  0  0  0  0  0  0  0
   41.9690   71.7290   62.6500 C   0  0  0  0  0  0  0  0  0  0  0  0
   41.2320   72.7970   62.2920 C   0  0  0  0  0  0  0  0  0  0  0  0
   40.9310   72.9990   60.9520 C   0  0  0  0  0  0  0  0  0  0  0  0
   41.7550   71.5650   60.1170 S   0  0  0  0  0  0  0  0  0  0  0  0
   42.2070   71.5690   63.7070 H   0  0  0  0  0  0  0  0  0  0  0  0
   40.8080   73.5740   62.9150 H   0  0  0  0  0  0  0  0  0  0  0  0
   44.5630   67.9720   61.0430 C   0  0  0  0  0  0  0  0  0  0  0  0
   44.7300   67.4120   62.3260 C   0  0  0  0  0  0  0  0  0  0  0  0
   44.0990   68.0320   63.3880 C   0  0  0  0  0  0  0  0  0  0  0  0
   43.3590   69.1380   63.1460 N   0  0  0  0  0  0  0  0  0  0  0  0
   43.2180   69.6500   61.9120 C   0  0  0  0  0  0  0  0  0  0  0  0
   43.8110   69.0770   60.8750 N   0  0  0  0  0  0  0  0  0  0  0  0
   45.0550   67.4900   60.2070 H   0  0  0  0  0  0  0  0  0  0  0  0
   45.3160   66.5360   62.5130 H   0  0  0  0  0  0  0  0  0  0  0  0
   44.1530   67.6950   64.4130 H   0  0  0  0  0  0  0  0  0  0  0  0
   40.2030   73.9770   60.1900 C   0  0  0  0  0  0  0  0  0  0  0  0
   40.0250   75.2250   60.6960 C   0  0  0  0  0  0  0  0  0  0  0  0
   39.2980   76.0600   59.8320 C   0  0  0  0  0  0  0  0  0  0  0  0
   38.8200   75.6850   58.6280 N   0  0  0  0  0  0  0  0  0  0  0  0
   39.0510   74.4200   58.2120 C   0  0  0  0  0  0  0  0  0  0  0  0
   39.7480   73.5520   58.9950 N   0  0  0  0  0  0  0  0  0  0  0  0
   40.3780   75.5800   61.6390 H   0  0  0  0  0  0  0  0  0  0  0  0
   39.0750   77.0990   60.1080 H   0  0  0  0  0  0  0  0  0  0  0  0
   38.5340   74.0240   56.9150 C   0  0  0  0  0  0  0  0  0  0  0  0
   37.3520   74.3760   56.6240 O   0  0  0  0  0  0  0  0  0  0  0  0
   39.4180   73.2390   56.0190 C   0  0  0  0  0  3  0  0  0  0  0  0
   39.2260   73.5870   54.5720 C   0  0  0  0  0  2  0  0  0  0  0  0
   40.0160   72.4570   53.9080 C   0  0  0  0  0  2  0  0  0  0  0  0
   39.7260   71.2510   54.7930 C   0  0  0  0  0  2  0  0  0  0  0  0
   39.0520   71.7600   56.0370 C   0  0  0  0  0  2  0  0  0  0  0  0
  1 12  1  0  0  0  0
  1  2  2  0  0  0  0
  2  6  1  0  0  0  0
  3  2  1  0  0  0  0
  3  7  1  0  0  0  0
  4  3  2  0  0  0  0
  5  4  1  0  0  0  0
  5  1  1  0  0  0  0
  8  9  1  0  0  0  0
  9 15  1  0  0  0  0
  9 10  2  0  0  0  0
 10 16  1  0  0  0  0
 11 10  1  0  0  0  0
 12 11  2  0  0  0  0
 13  8  2  0  0  0  0
 13 12  1  0  0  0  0
 14  8  1  0  0  0  0
 17 18  1  0  0  0  0
 17  4  1  0  0  0  0
 18 23  1  0  0  0  0
 19 24  1  0  0  0  0
 19 18  2  0  0  0  0
 20 19  1  0  0  0  0
 21 20  2  0  0  0  0
 21 22  1  0  0  0  0
 22 17  2  0  0  0  0
 25 21  1  0  0  0  0
 26 25  2  0  0  0  0
 27 31  1  0  0  0  0
 27 25  1  0  0  0  0
 28 27  1  0  0  0  0
 29 28  1  0  0  0  0
 29 30  1  0  0  0  0
 30 31  1  0  0  0  0
M  END
>  <minimizedAffinity>
-5.52739096

$$$$
