
 OpenBabel03212520363D

 32 35  0  0  0  0  0  0  0  0999 V2000
   40.7080   73.4460   60.7950 C   0  0  0  0  0  0  0  0  0  0  0  0
   39.3750   73.6200   61.2370 C   0  0  0  0  0  0  0  0  0  0  0  0
   38.6650   74.7770   61.0710 C   0  0  0  0  0  0  0  0  0  0  0  0
   39.2620   75.8460   60.4390 C   0  0  0  0  0  0  0  0  0  0  0  0
   40.5640   75.6990   59.9990 C   0  0  0  0  0  0  0  0  0  0  0  0
   41.2500   76.6980   59.3400 C   0  0  0  0  0  0  0  0  0  0  0  0
   42.5560   76.5170   58.8980 C   0  0  0  0  0  0  0  0  0  0  0  0
   43.2350   75.3240   59.1000 C   0  0  0  0  0  0  0  0  0  0  0  0
   42.5510   74.3190   59.7620 C   0  0  0  0  0  0  0  0  0  0  0  0
   41.2780   74.5280   60.1720 C   0  0  0  0  0  0  0  0  0  0  0  0
   38.7520   72.8940   61.7370 H   0  0  0  0  0  0  0  0  0  0  0  0
   37.6530   74.9600   61.3860 H   0  0  0  0  0  0  0  0  0  0  0  0
   38.8000   76.8040   60.2510 H   0  0  0  0  0  0  0  0  0  0  0  0
   40.7090   77.6370   59.1850 H   0  0  0  0  0  0  0  0  0  0  0  0
   42.9640   77.3920   58.3940 H   0  0  0  0  0  0  0  0  0  0  0  0
   44.2360   75.2930   58.7210 H   0  0  0  0  0  0  0  0  0  0  0  0
   43.2070   73.4990   59.9030 H   0  0  0  0  0  0  0  0  0  0  0  0
   41.5980   71.1290   60.1170 C   0  0  0  0  0  0  0  0  0  0  0  0
   41.2390   72.1160   61.0300 C   0  0  0  0  0  0  0  0  0  0  0  0
   41.3600   71.8380   62.4470 C   0  0  0  0  0  0  0  0  0  0  0  0
   41.8280   70.6080   62.8110 N   0  0  0  0  0  0  0  0  0  0  0  0
   42.1690   69.6740   61.8420 C   0  0  0  0  0  0  0  0  0  0  0  0
   42.0530   69.9430   60.5150 N   0  0  0  0  0  0  0  0  0  0  0  0
   41.4610   71.2430   59.0770 H   0  0  0  0  0  0  0  0  0  0  0  0
   41.1600   72.4320   63.3030 H   0  0  0  0  0  0  0  0  0  0  0  0
   42.6470   68.3410   62.2220 C   0  0  0  0  0  0  0  0  0  0  0  0
   43.7460   68.1680   62.7780 O   0  0  0  0  0  0  0  0  0  0  0  0
   41.7380   67.2010   61.9030 C   0  0  0  0  0  3  0  0  0  0  0  0
   42.1890   66.0300   62.7560 C   0  0  0  0  0  2  0  0  0  0  0  0
   40.9490   65.2780   63.1720 C   0  0  0  0  0  2  0  0  0  0  0  0
   39.7810   66.0290   62.5650 C   0  0  0  0  0  2  0  0  0  0  0  0
   40.3340   67.4420   62.3950 C   0  0  0  0  0  2  0  0  0  0  0  0
  1 19  1  0  0  0  0
  1  2  1  0  0  0  0
  2 11  1  0  0  0  0
  3  2  2  0  0  0  0
  3 12  1  0  0  0  0
  4  3  1  0  0  0  0
  5 10  1  0  0  0  0
  5  4  2  0  0  0  0
  6  5  1  0  0  0  0
  7  8  1  0  0  0  0
  7  6  2  0  0  0  0
  8  9  2  0  0  0  0
  9 17  1  0  0  0  0
  9 10  1  0  0  0  0
 10  1  2  0  0  0  0
 13  4  1  0  0  0  0
 14  6  1  0  0  0  0
 15  7  1  0  0  0  0
 16  8  1  0  0  0  0
 18 23  2  0  0  0  0
 18 19  1  0  0  0  0
 19 20  2  0  0  0  0
 20 21  1  0  0  0  0
 20 25  1  0  0  0  0
 22 26  1  0  0  0  0
 22 21  2  0  0  0  0
 23 22  1  0  0  0  0
 24 18  1  0  0  0  0
 26 27  2  0  0  0  0
 28 26  1  0  0  0  0
 28 32  1  0  0  0  0
 28 29  1  0  0  0  0
 29 30  1  0  0  0  0
 31 30  1  0  0  0  0
 32 31  1  0  0  0  0
M  END
>  <minimizedAffinity>
-6.7830658

$$$$

 OpenBabel03212520363D

 32 35  0  0  0  0  0  0  0  0999 V2000
   42.1580   73.3990   59.7740 C   0  0  0  0  0  0  0  0  0  0  0  0
   43.2670   73.8520   59.0200 C   0  0  0  0  0  0  0  0  0  0  0  0
   43.4410   75.1510   58.6300 C   0  0  0  0  0  0  0  0  0  0  0  0
   42.4950   76.0890   58.9800 C   0  0  0  0  0  0  0  0  0  0  0  0
   41.4020   75.6700   59.7170 C   0  0  0  0  0  0  0  0  0  0  0  0
   40.4050   76.5270   60.1350 C   0  0  0  0  0  0  0  0  0  0  0  0
   39.3240   76.0780   60.8850 C   0  0  0  0  0  0  0  0  0  0  0  0
   39.1920   74.7460   61.2470 C   0  0  0  0  0  0  0  0  0  0  0  0
   40.1890   73.8820   60.8290 C   0  0  0  0  0  0  0  0  0  0  0  0
   41.2310   74.3550   60.1060 C   0  0  0  0  0  0  0  0  0  0  0  0
   44.1030   73.2650   58.6700 H   0  0  0  0  0  0  0  0  0  0  0  0
   44.2620   75.5460   58.0590 H   0  0  0  0  0  0  0  0  0  0  0  0
   42.5260   77.1390   58.7310 H   0  0  0  0  0  0  0  0  0  0  0  0
   40.5150   77.5770   59.8440 H   0  0  0  0  0  0  0  0  0  0  0  0
   38.6220   76.8700   61.1410 H   0  0  0  0  0  0  0  0  0  0  0  0
   38.3200   74.5090   61.8230 H   0  0  0  0  0  0  0  0  0  0  0  0
   39.9260   72.8960   61.1170 H   0  0  0  0  0  0  0  0  0  0  0  0
   41.7330   70.8850   59.4260 C   0  0  0  0  0  0  0  0  0  0  0  0
   42.2150   71.9910   60.1200 C   0  0  0  0  0  0  0  0  0  0  0  0
   42.8630   71.7880   61.4000 C   0  0  0  0  0  0  0  0  0  0  0  0
   42.9650   70.5070   61.8600 N   0  0  0  0  0  0  0  0  0  0  0  0
   42.4610   69.4520   61.1100 C   0  0  0  0  0  0  0  0  0  0  0  0
   41.8560   69.6520   59.9090 N   0  0  0  0  0  0  0  0  0  0  0  0
   41.1860   70.9750   58.5280 H   0  0  0  0  0  0  0  0  0  0  0  0
   43.3070   72.4670   62.0830 H   0  0  0  0  0  0  0  0  0  0  0  0
   42.5420   68.0740   61.6050 C   0  0  0  0  0  0  0  0  0  0  0  0
   43.6300   67.5130   61.8180 O   0  0  0  0  0  0  0  0  0  0  0  0
   41.2400   67.3830   61.8390 C   0  0  0  0  0  3  0  0  0  0  0  0
   41.5660   65.9390   62.1750 C   0  0  0  0  0  2  0  0  0  0  0  0
   40.5700   65.4890   63.2160 C   0  0  0  0  0  2  0  0  0  0  0  0
   39.6770   66.6820   63.4860 C   0  0  0  0  0  2  0  0  0  0  0  0
   40.5600   67.8650   63.0950 C   0  0  0  0  0  2  0  0  0  0  0  0
  1 10  1  0  0  0  0
  1 19  1  0  0  0  0
  2  1  2  0  0  0  0
  3  4  2  0  0  0  0
  3  2  1  0  0  0  0
  4  5  1  0  0  0  0
  5 10  2  0  0  0  0
  5  6  1  0  0  0  0
  6  7  2  0  0  0  0
  7 15  1  0  0  0  0
  7  8  1  0  0  0  0
  8 16  1  0  0  0  0
  9 17  1  0  0  0  0
  9  8  2  0  0  0  0
 10  9  1  0  0  0  0
 11  2  1  0  0  0  0
 12  3  1  0  0  0  0
 13  4  1  0  0  0  0
 14  6  1  0  0  0  0
 18 23  2  0  0  0  0
 18 19  1  0  0  0  0
 19 20  2  0  0  0  0
 20 21  1  0  0  0  0
 20 25  1  0  0  0  0
 22 26  1  0  0  0  0
 22 21  2  0  0  0  0
 23 22  1  0  0  0  0
 24 18  1  0  0  0  0
 26 27  2  0  0  0  0
 26 28  1  0  0  0  0
 28 29  1  0  0  0  0
 28 32  1  0  0  0  0
 29 30  1  0  0  0  0
 30 31  1  0  0  0  0
 32 31  1  0  0  0  0
M  END
>  <minimizedAffinity>
-6.58699656

$$$$

 OpenBabel03212520363D

 32 35  0  0  0  0  0  0  0  0999 V2000
   40.2530   73.8890   59.8470 C   0  0  0  0  0  0  0  0  0  0  0  0
   40.6560   75.0850   60.4870 C   0  0  0  0  0  0  0  0  0  0  0  0
   40.1540   76.3190   60.1760 C   0  0  0  0  0  0  0  0  0  0  0  0
   39.1990   76.4250   59.1880 C   0  0  0  0  0  0  0  0  0  0  0  0
   38.7900   75.2690   58.5490 C   0  0  0  0  0  0  0  0  0  0  0  0
   37.8290   75.2590   57.5590 C   0  0  0  0  0  0  0  0  0  0  0  0
   37.4290   74.0780   56.9430 C   0  0  0  0  0  0  0  0  0  0  0  0
   37.9780   72.8530   57.2910 C   0  0  0  0  0  0  0  0  0  0  0  0
   38.9430   72.8580   58.2830 C   0  0  0  0  0  0  0  0  0  0  0  0
   39.3030   74.0260   58.8660 C   0  0  0  0  0  0  0  0  0  0  0  0
   41.3780   75.1910   61.2820 H   0  0  0  0  0  0  0  0  0  0  0  0
   40.4240   77.2560   60.6290 H   0  0  0  0  0  0  0  0  0  0  0  0
   38.7310   77.3420   58.8600 H   0  0  0  0  0  0  0  0  0  0  0  0
   37.4010   76.2300   57.2890 H   0  0  0  0  0  0  0  0  0  0  0  0
   36.6630   74.2290   56.1850 H   0  0  0  0  0  0  0  0  0  0  0  0
   37.5990   72.0080   56.7520 H   0  0  0  0  0  0  0  0  0  0  0  0
   39.3180   71.8730   58.3970 H   0  0  0  0  0  0  0  0  0  0  0  0
   41.6140   71.7080   59.7280 C   0  0  0  0  0  0  0  0  0  0  0  0
   40.8810   72.6950   60.3810 C   0  0  0  0  0  0  0  0  0  0  0  0
   40.6450   72.5660   61.8050 C   0  0  0  0  0  0  0  0  0  0  0  0
   41.1640   71.4710   62.4340 N   0  0  0  0  0  0  0  0  0  0  0  0
   41.8880   70.5280   61.7160 C   0  0  0  0  0  0  0  0  0  0  0  0
   42.1050   70.6570   60.3800 N   0  0  0  0  0  0  0  0  0  0  0  0
   41.7540   71.7060   58.6820 H   0  0  0  0  0  0  0  0  0  0  0  0
   40.1360   73.1880   62.4960 H   0  0  0  0  0  0  0  0  0  0  0  0
   42.4270   69.3350   62.3750 C   0  0  0  0  0  0  0  0  0  0  0  0
   43.3650   69.3980   63.1890 O   0  0  0  0  0  0  0  0  0  0  0  0
   41.7840   68.0370   62.0130 C   0  0  0  0  0  3  0  0  0  0  0  0
   42.9080   67.0670   61.6960 C   0  0  0  0  0  2  0  0  0  0  0  0
   42.4800   65.7110   62.2010 C   0  0  0  0  0  2  0  0  0  0  0  0
   41.1120   65.9070   62.8210 C   0  0  0  0  0  2  0  0  0  0  0  0
   41.1150   67.3870   63.1970 C   0  0  0  0  0  2  0  0  0  0  0  0
  1 19  1  0  0  0  0
  1  2  1  0  0  0  0
  2 11  1  0  0  0  0
  3  2  2  0  0  0  0
  3 12  1  0  0  0  0
  4  3  1  0  0  0  0
  5 10  1  0  0  0  0
  5  4  2  0  0  0  0
  6  5  1  0  0  0  0
  7  8  1  0  0  0  0
  7  6  2  0  0  0  0
  8  9  2  0  0  0  0
  9 17  1  0  0  0  0
  9 10  1  0  0  0  0
 10  1  2  0  0  0  0
 13  4  1  0  0  0  0
 14  6  1  0  0  0  0
 15  7  1  0  0  0  0
 16  8  1  0  0  0  0
 18 23  2  0  0  0  0
 18 19  1  0  0  0  0
 19 20  2  0  0  0  0
 20 21  1  0  0  0  0
 20 25  1  0  0  0  0
 22 26  1  0  0  0  0
 22 21  2  0  0  0  0
 23 22  1  0  0  0  0
 24 18  1  0  0  0  0
 26 27  2  0  0  0  0
 28 26  1  0  0  0  0
 28 32  1  0  0  0  0
 29 28  1  0  0  0  0
 29 30  1  0  0  0  0
 30 31  1  0  0  0  0
 31 32  1  0  0  0  0
M  END
>  <minimizedAffinity>
-6.28791189

$$$$

 OpenBabel03212520363D

 32 35  0  0  0  0  0  0  0  0999 V2000
   41.7920   73.7050   59.0870 C   0  0  0  0  0  0  0  0  0  0  0  0
   42.9180   74.1730   58.3680 C   0  0  0  0  0  0  0  0  0  0  0  0
   43.2560   75.4940   58.2640 C   0  0  0  0  0  0  0  0  0  0  0  0
   42.4710   76.4390   58.8870 C   0  0  0  0  0  0  0  0  0  0  0  0
   41.3660   76.0050   59.5950 C   0  0  0  0  0  0  0  0  0  0  0  0
   40.5220   76.8630   60.2710 C   0  0  0  0  0  0  0  0  0  0  0  0
   39.4250   76.3950   60.9840 C   0  0  0  0  0  0  0  0  0  0  0  0
   39.1210   75.0420   61.0510 C   0  0  0  0  0  0  0  0  0  0  0  0
   39.9640   74.1780   60.3750 C   0  0  0  0  0  0  0  0  0  0  0  0
   41.0280   74.6690   59.6950 C   0  0  0  0  0  0  0  0  0  0  0  0
   43.6450   73.5820   57.8320 H   0  0  0  0  0  0  0  0  0  0  0  0
   44.0970   75.9020   57.7330 H   0  0  0  0  0  0  0  0  0  0  0  0
   42.6400   77.5060   58.8750 H   0  0  0  0  0  0  0  0  0  0  0  0
   40.7670   77.9280   60.2130 H   0  0  0  0  0  0  0  0  0  0  0  0
   38.8560   77.1890   61.4650 H   0  0  0  0  0  0  0  0  0  0  0  0
   38.2530   74.7930   61.6260 H   0  0  0  0  0  0  0  0  0  0  0  0
   39.5770   73.1940   60.4560 H   0  0  0  0  0  0  0  0  0  0  0  0
   40.8670   71.4270   58.3270 C   0  0  0  0  0  0  0  0  0  0  0  0
   41.6650   72.2590   59.1060 C   0  0  0  0  0  0  0  0  0  0  0  0
   42.5050   71.6690   60.1290 C   0  0  0  0  0  0  0  0  0  0  0  0
   42.4650   70.3120   60.2720 N   0  0  0  0  0  0  0  0  0  0  0  0
   41.6440   69.5450   59.4550 C   0  0  0  0  0  0  0  0  0  0  0  0
   40.8610   70.1080   58.4970 N   0  0  0  0  0  0  0  0  0  0  0  0
   40.1800   71.8020   57.6200 H   0  0  0  0  0  0  0  0  0  0  0  0
   43.1880   72.0980   60.8170 H   0  0  0  0  0  0  0  0  0  0  0  0
   41.5740   68.0900   59.6160 C   0  0  0  0  0  0  0  0  0  0  0  0
   41.1710   67.3440   58.7070 O   0  0  0  0  0  0  0  0  0  0  0  0
   42.0160   67.5530   60.9370 C   0  0  0  0  0  3  0  0  0  0  0  0
   40.7980   66.9100   61.5770 C   0  0  0  0  0  2  0  0  0  0  0  0
   41.2790   65.6890   62.3210 C   0  0  0  0  0  2  0  0  0  0  0  0
   42.7770   65.6250   62.0980 C   0  0  0  0  0  2  0  0  0  0  0  0
   42.9600   66.3880   60.7880 C   0  0  0  0  0  2  0  0  0  0  0  0
  1 19  1  0  0  0  0
  1 10  1  0  0  0  0
  2  1  2  0  0  0  0
  3  2  1  0  0  0  0
  3  4  2  0  0  0  0
  4  5  1  0  0  0  0
  5 10  2  0  0  0  0
  5  6  1  0  0  0  0
  6  7  2  0  0  0  0
  7  8  1  0  0  0  0
  7 15  1  0  0  0  0
  8 16  1  0  0  0  0
  9 17  1  0  0  0  0
  9  8  2  0  0  0  0
 10  9  1  0  0  0  0
 11  2  1  0  0  0  0
 12  3  1  0  0  0  0
 13  4  1  0  0  0  0
 14  6  1  0  0  0  0
 18 23  2  0  0  0  0
 18 19  1  0  0  0  0
 19 20  2  0  0  0  0
 20 21  1  0  0  0  0
 20 25  1  0  0  0  0
 22 26  1  0  0  0  0
 22 21  2  0  0  0  0
 23 22  1  0  0  0  0
 24 18  1  0  0  0  0
 26 28  1  0  0  0  0
 27 26  2  0  0  0  0
 28 29  1  0  0  0  0
 29 30  1  0  0  0  0
 31 30  1  0  0  0  0
 32 28  1  0  0  0  0
 32 31  1  0  0  0  0
M  END
>  <minimizedAffinity>
-6.11550713

$$$$

 OpenBabel03212520363D

 32 35  0  0  0  0  0  0  0  0999 V2000
   42.2660   73.6180   60.2760 C   0  0  0  0  0  0  0  0  0  0  0  0
   43.4840   73.8810   59.6030 C   0  0  0  0  0  0  0  0  0  0  0  0
   43.7400   75.0380   58.9220 C   0  0  0  0  0  0  0  0  0  0  0  0
   42.7730   76.0180   58.8760 C   0  0  0  0  0  0  0  0  0  0  0  0
   41.5760   75.7840   59.5270 C   0  0  0  0  0  0  0  0  0  0  0  0
   40.5470   76.7030   59.5590 C   0  0  0  0  0  0  0  0  0  0  0  0
   39.3580   76.4430   60.2310 C   0  0  0  0  0  0  0  0  0  0  0  0
   39.1460   75.2470   60.9010 C   0  0  0  0  0  0  0  0  0  0  0  0
   40.1750   74.3220   60.8700 C   0  0  0  0  0  0  0  0  0  0  0  0
   41.3210   74.6110   60.2110 C   0  0  0  0  0  0  0  0  0  0  0  0
   44.3490   73.2380   59.5430 H   0  0  0  0  0  0  0  0  0  0  0  0
   44.6450   75.2880   58.3960 H   0  0  0  0  0  0  0  0  0  0  0  0
   42.8640   76.9690   58.3720 H   0  0  0  0  0  0  0  0  0  0  0  0
   40.7210   77.6440   59.0270 H   0  0  0  0  0  0  0  0  0  0  0  0
   38.6430   77.2620   60.1700 H   0  0  0  0  0  0  0  0  0  0  0  0
   38.1950   75.1510   61.3830 H   0  0  0  0  0  0  0  0  0  0  0  0
   39.8510   73.4390   61.3600 H   0  0  0  0  0  0  0  0  0  0  0  0
   42.2190   72.0880   62.3450 C   0  0  0  0  0  0  0  0  0  0  0  0
   42.2430   72.3480   60.9770 C   0  0  0  0  0  0  0  0  0  0  0  0
   42.2740   71.2330   60.0520 C   0  0  0  0  0  0  0  0  0  0  0  0
   42.2780   69.9740   60.5810 N   0  0  0  0  0  0  0  0  0  0  0  0
   42.2520   69.7930   61.9570 C   0  0  0  0  0  0  0  0  0  0  0  0
   42.2220   70.8450   62.8180 N   0  0  0  0  0  0  0  0  0  0  0  0
   42.2720   72.8550   63.0670 H   0  0  0  0  0  0  0  0  0  0  0  0
   42.2830   71.1940   58.9930 H   0  0  0  0  0  0  0  0  0  0  0  0
   42.2830   68.4470   62.5370 C   0  0  0  0  0  0  0  0  0  0  0  0
   41.5490   68.1200   63.4860 O   0  0  0  0  0  0  0  0  0  0  0  0
   43.2470   67.4880   61.9210 C   0  0  0  0  0  3  0  0  0  0  0  0
   44.4860   67.4900   62.7970 C   0  0  0  0  0  2  0  0  0  0  0  0
   45.0170   66.0780   62.8210 C   0  0  0  0  0  2  0  0  0  0  0  0
   44.0720   65.2610   61.9640 C   0  0  0  0  0  2  0  0  0  0  0  0
   42.7730   66.0610   62.0280 C   0  0  0  0  0  2  0  0  0  0  0  0
  1 19  1  0  0  0  0
  2  1  2  0  0  0  0
  3  2  1  0  0  0  0
  4  3  2  0  0  0  0
  4  5  1  0  0  0  0
  5  6  2  0  0  0  0
  5 10  1  0  0  0  0
  6  7  1  0  0  0  0
  7  8  2  0  0  0  0
  8 16  1  0  0  0  0
  9  8  1  0  0  0  0
  9 17  1  0  0  0  0
 10  1  1  0  0  0  0
 10  9  2  0  0  0  0
 11  2  1  0  0  0  0
 12  3  1  0  0  0  0
 13  4  1  0  0  0  0
 14  6  1  0  0  0  0
 15  7  1  0  0  0  0
 18 23  1  0  0  0  0
 18 24  1  0  0  0  0
 19 18  2  0  0  0  0
 20 21  2  0  0  0  0
 20 19  1  0  0  0  0
 21 22  1  0  0  0  0
 22 26  1  0  0  0  0
 22 23  2  0  0  0  0
 25 20  1  0  0  0  0
 26 27  2  0  0  0  0
 28 32  1  0  0  0  0
 28 26  1  0  0  0  0
 28 29  1  0  0  0  0
 29 30  1  0  0  0  0
 31 32  1  0  0  0  0
 31 30  1  0  0  0  0
M  END
>  <minimizedAffinity>
-6.09579849

$$$$

 OpenBabel03212520363D

 32 35  0  0  0  0  0  0  0  0999 V2000
   42.3490   69.4950   61.8000 C   0  0  0  0  0  0  0  0  0  0  0  0
   43.1450   69.6120   62.9650 C   0  0  0  0  0  0  0  0  0  0  0  0
   43.8830   68.5860   63.4860 C   0  0  0  0  0  0  0  0  0  0  0  0
   43.8670   67.3600   62.8570 C   0  0  0  0  0  0  0  0  0  0  0  0
   43.0960   67.2230   61.7170 C   0  0  0  0  0  0  0  0  0  0  0  0
   43.0210   66.0470   60.9990 C   0  0  0  0  0  0  0  0  0  0  0  0
   42.2460   65.9420   59.8500 C   0  0  0  0  0  0  0  0  0  0  0  0
   41.5080   67.0140   59.3680 C   0  0  0  0  0  0  0  0  0  0  0  0
   41.5810   68.1950   60.0850 C   0  0  0  0  0  0  0  0  0  0  0  0
   42.3500   68.2630   61.1960 C   0  0  0  0  0  0  0  0  0  0  0  0
   43.2860   70.4910   63.5760 H   0  0  0  0  0  0  0  0  0  0  0  0
   44.5030   68.6210   64.3640 H   0  0  0  0  0  0  0  0  0  0  0  0
   44.4080   66.4820   63.1740 H   0  0  0  0  0  0  0  0  0  0  0  0
   43.6040   65.2050   61.3860 H   0  0  0  0  0  0  0  0  0  0  0  0
   42.2880   64.9550   59.3930 H   0  0  0  0  0  0  0  0  0  0  0  0
   40.9460   66.8230   58.4770 H   0  0  0  0  0  0  0  0  0  0  0  0
   40.9220   68.9000   59.6440 H   0  0  0  0  0  0  0  0  0  0  0  0
   41.6000   71.3180   60.1450 C   0  0  0  0  0  0  0  0  0  0  0  0
   41.7000   70.7310   61.4040 C   0  0  0  0  0  0  0  0  0  0  0  0
   41.1150   71.4100   62.5430 C   0  0  0  0  0  0  0  0  0  0  0  0
   40.4890   72.6010   62.3140 N   0  0  0  0  0  0  0  0  0  0  0  0
   40.4270   73.1250   61.0290 C   0  0  0  0  0  0  0  0  0  0  0  0
   40.9780   72.4810   59.9660 N   0  0  0  0  0  0  0  0  0  0  0  0
   42.0700   70.9130   59.2930 H   0  0  0  0  0  0  0  0  0  0  0  0
   41.0610   71.1490   63.5690 H   0  0  0  0  0  0  0  0  0  0  0  0
   39.7800   74.4150   60.7760 C   0  0  0  0  0  0  0  0  0  0  0  0
   38.8750   74.8550   61.5070 O   0  0  0  0  0  0  0  0  0  0  0  0
   40.2720   75.1750   59.5890 C   0  0  0  0  0  3  0  0  0  0  0  0
   39.0650   75.4350   58.7060 C   0  0  0  0  0  2  0  0  0  0  0  0
   39.2460   76.8040   58.0970 C   0  0  0  0  0  2  0  0  0  0  0  0
   40.5560   77.3350   58.6410 C   0  0  0  0  0  2  0  0  0  0  0  0
   40.7180   76.5680   59.9520 C   0  0  0  0  0  2  0  0  0  0  0  0
  1  2  1  0  0  0  0
  2  3  2  0  0  0  0
  2 11  1  0  0  0  0
  3 12  1  0  0  0  0
  4 13  1  0  0  0  0
  4  3  1  0  0  0  0
  5  4  2  0  0  0  0
  6 14  1  0  0  0  0
  6  5  1  0  0  0  0
  7  6  2  0  0  0  0
  8  7  1  0  0  0  0
  8  9  2  0  0  0  0
  9 10  1  0  0  0  0
 10  5  1  0  0  0  0
 10  1  2  0  0  0  0
 15  7  1  0  0  0  0
 16  8  1  0  0  0  0
 17  9  1  0  0  0  0
 18 19  1  0  0  0  0
 19  1  1  0  0  0  0
 19 20  2  0  0  0  0
 20 25  1  0  0  0  0
 21 20  1  0  0  0  0
 22 21  2  0  0  0  0
 23 18  2  0  0  0  0
 23 22  1  0  0  0  0
 24 18  1  0  0  0  0
 26 22  1  0  0  0  0
 26 27  2  0  0  0  0
 28 32  1  0  0  0  0
 28 26  1  0  0  0  0
 29 28  1  0  0  0  0
 30 31  1  0  0  0  0
 30 29  1  0  0  0  0
 31 32  1  0  0  0  0
M  END
>  <minimizedAffinity>
-6.00967503

$$$$

 OpenBabel03212520363D

 32 35  0  0  0  0  0  0  0  0999 V2000
   41.9760   70.8490   61.2080 C   0  0  0  0  0  0  0  0  0  0  0  0
   42.4750   70.7940   62.5320 C   0  0  0  0  0  0  0  0  0  0  0  0
   42.8500   69.6350   63.1540 C   0  0  0  0  0  0  0  0  0  0  0  0
   42.7450   68.4430   62.4720 C   0  0  0  0  0  0  0  0  0  0  0  0
   42.2610   68.4720   61.1770 C   0  0  0  0  0  0  0  0  0  0  0  0
   42.1310   67.3410   60.3980 C   0  0  0  0  0  0  0  0  0  0  0  0
   41.6520   67.4040   59.0950 C   0  0  0  0  0  0  0  0  0  0  0  0
   41.2760   68.6060   58.5140 C   0  0  0  0  0  0  0  0  0  0  0  0
   41.4040   69.7440   59.2910 C   0  0  0  0  0  0  0  0  0  0  0  0
   41.8810   69.6460   60.5550 C   0  0  0  0  0  0  0  0  0  0  0  0
   42.6330   71.6220   63.2060 H   0  0  0  0  0  0  0  0  0  0  0  0
   43.2340   69.5380   64.1540 H   0  0  0  0  0  0  0  0  0  0  0  0
   43.0120   67.4700   62.8590 H   0  0  0  0  0  0  0  0  0  0  0  0
   42.4280   66.3950   60.8640 H   0  0  0  0  0  0  0  0  0  0  0  0
   41.6080   66.4320   58.6070 H   0  0  0  0  0  0  0  0  0  0  0  0
   40.9190   68.5390   57.5060 H   0  0  0  0  0  0  0  0  0  0  0  0
   41.0210   70.5700   58.7480 H   0  0  0  0  0  0  0  0  0  0  0  0
   42.3700   72.9630   59.7950 C   0  0  0  0  0  0  0  0  0  0  0  0
   41.6960   72.1930   60.7400 C   0  0  0  0  0  0  0  0  0  0  0  0
   40.5480   72.7620   61.4170 C   0  0  0  0  0  0  0  0  0  0  0  0
   40.1870   74.0360   61.0870 N   0  0  0  0  0  0  0  0  0  0  0  0
   40.9070   74.7420   60.1320 C   0  0  0  0  0  0  0  0  0  0  0  0
   41.9820   74.2010   59.5010 N   0  0  0  0  0  0  0  0  0  0  0  0
   43.2550   72.6350   59.3250 H   0  0  0  0  0  0  0  0  0  0  0  0
   39.8910   72.3630   62.1470 H   0  0  0  0  0  0  0  0  0  0  0  0
   40.5440   76.1200   59.7880 C   0  0  0  0  0  0  0  0  0  0  0  0
   41.3100   77.0770   59.9990 O   0  0  0  0  0  0  0  0  0  0  0  0
   39.2010   76.3100   59.1660 C   0  0  0  0  0  3  0  0  0  0  0  0
   39.2800   77.5760   58.3310 C   0  0  0  0  0  2  0  0  0  0  0  0
   38.4410   77.3490   57.0980 C   0  0  0  0  0  2  0  0  0  0  0  0
   37.8870   75.9430   57.2200 C   0  0  0  0  0  2  0  0  0  0  0  0
   38.9010   75.2550   58.1320 C   0  0  0  0  0  2  0  0  0  0  0  0
  1  2  1  0  0  0  0
  2  3  2  0  0  0  0
  2 11  1  0  0  0  0
  3 12  1  0  0  0  0
  4 13  1  0  0  0  0
  4  3  1  0  0  0  0
  5  4  2  0  0  0  0
  6 14  1  0  0  0  0
  6  5  1  0  0  0  0
  7  6  2  0  0  0  0
  8  7  1  0  0  0  0
  8  9  2  0  0  0  0
  9 10  1  0  0  0  0
 10  5  1  0  0  0  0
 10  1  2  0  0  0  0
 15  7  1  0  0  0  0
 16  8  1  0  0  0  0
 17  9  1  0  0  0  0
 18 19  1  0  0  0  0
 19  1  1  0  0  0  0
 19 20  2  0  0  0  0
 20 25  1  0  0  0  0
 21 20  1  0  0  0  0
 22 21  2  0  0  0  0
 23 18  2  0  0  0  0
 23 22  1  0  0  0  0
 24 18  1  0  0  0  0
 26 27  2  0  0  0  0
 26 22  1  0  0  0  0
 28 26  1  0  0  0  0
 29 28  1  0  0  0  0
 30 31  1  0  0  0  0
 30 29  1  0  0  0  0
 31 32  1  0  0  0  0
 32 28  1  0  0  0  0
M  END
>  <minimizedAffinity>
-5.9215107

$$$$

 OpenBabel03212520363D

 32 35  0  0  0  0  0  0  0  0999 V2000
   42.6120   68.5960   59.8820 C   0  0  0  0  0  0  0  0  0  0  0  0
   43.5290   68.2620   58.8560 C   0  0  0  0  0  0  0  0  0  0  0  0
   44.1180   67.0340   58.7360 C   0  0  0  0  0  0  0  0  0  0  0  0
   43.8160   66.0520   59.6540 C   0  0  0  0  0  0  0  0  0  0  0  0
   42.9230   66.3560   60.6650 C   0  0  0  0  0  0  0  0  0  0  0  0
   42.5380   65.4430   61.6250 C   0  0  0  0  0  0  0  0  0  0  0  0
   41.6280   65.7750   62.6230 C   0  0  0  0  0  0  0  0  0  0  0  0
   41.0650   67.0410   62.7040 C   0  0  0  0  0  0  0  0  0  0  0  0
   41.4490   67.9590   61.7440 C   0  0  0  0  0  0  0  0  0  0  0  0
   42.3320   67.5990   60.7830 C   0  0  0  0  0  0  0  0  0  0  0  0
   43.8710   68.8960   58.0520 H   0  0  0  0  0  0  0  0  0  0  0  0
   44.8180   66.7280   57.9790 H   0  0  0  0  0  0  0  0  0  0  0  0
   44.2170   65.0490   59.6590 H   0  0  0  0  0  0  0  0  0  0  0  0
   42.9870   64.4470   61.5560 H   0  0  0  0  0  0  0  0  0  0  0  0
   41.4210   64.9520   63.3050 H   0  0  0  0  0  0  0  0  0  0  0  0
   40.3780   67.1880   63.5130 H   0  0  0  0  0  0  0  0  0  0  0  0
   40.9970   68.8920   61.9660 H   0  0  0  0  0  0  0  0  0  0  0  0
   42.3320   71.0660   60.5510 C   0  0  0  0  0  0  0  0  0  0  0  0
   42.0730   69.9390   59.7750 C   0  0  0  0  0  0  0  0  0  0  0  0
   41.1120   70.0390   58.6950 C   0  0  0  0  0  0  0  0  0  0  0  0
   40.5090   71.2470   58.4960 N   0  0  0  0  0  0  0  0  0  0  0  0
   40.8200   72.3280   59.3110 C   0  0  0  0  0  0  0  0  0  0  0  0
   41.7230   72.2260   60.3210 N   0  0  0  0  0  0  0  0  0  0  0  0
   42.9620   71.0370   61.3970 H   0  0  0  0  0  0  0  0  0  0  0  0
   40.7740   69.3290   57.9830 H   0  0  0  0  0  0  0  0  0  0  0  0
   40.1590   73.6230   59.1230 C   0  0  0  0  0  0  0  0  0  0  0  0
   39.4520   73.8650   58.1300 O   0  0  0  0  0  0  0  0  0  0  0  0
   40.3830   74.6360   60.1960 C   0  0  0  0  0  3  0  0  0  0  0  0
   40.7420   75.9370   59.5010 C   0  0  0  0  0  2  0  0  0  0  0  0
   40.1200   77.0550   60.3000 C   0  0  0  0  0  2  0  0  0  0  0  0
   39.3920   76.3920   61.4520 C   0  0  0  0  0  2  0  0  0  0  0  0
   39.1080   74.9910   60.9160 C   0  0  0  0  0  2  0  0  0  0  0  0
  1 10  1  0  0  0  0
  2  1  2  0  0  0  0
  3  2  1  0  0  0  0
  3  4  2  0  0  0  0
  4 13  1  0  0  0  0
  4  5  1  0  0  0  0
  5 10  2  0  0  0  0
  5  6  1  0  0  0  0
  6  7  2  0  0  0  0
  7  8  1  0  0  0  0
  7 15  1  0  0  0  0
  8 16  1  0  0  0  0
  9 17  1  0  0  0  0
  9  8  2  0  0  0  0
 10  9  1  0  0  0  0
 11  2  1  0  0  0  0
 12  3  1  0  0  0  0
 14  6  1  0  0  0  0
 18 24  1  0  0  0  0
 19  1  1  0  0  0  0
 19 18  2  0  0  0  0
 20 19  1  0  0  0  0
 21 20  2  0  0  0  0
 21 22  1  0  0  0  0
 22 23  2  0  0  0  0
 23 18  1  0  0  0  0
 25 20  1  0  0  0  0
 26 22  1  0  0  0  0
 26 28  1  0  0  0  0
 27 26  2  0  0  0  0
 28 32  1  0  0  0  0
 29 28  1  0  0  0  0
 29 30  1  0  0  0  0
 30 31  1  0  0  0  0
 32 31  1  0  0  0  0
M  END
>  <minimizedAffinity>
-5.6030345

$$$$

 OpenBabel03212520363D

 32 35  0  0  0  0  0  0  0  0999 V2000
   40.5380   70.8550   55.7090 C   0  0  0  0  0  0  0  0  0  0  0  0
   41.0960   70.0290   56.7140 C   0  0  0  0  0  0  0  0  0  0  0  0
   41.4810   68.7340   56.5060 C   0  0  0  0  0  0  0  0  0  0  0  0
   41.3280   68.1820   55.2530 C   0  0  0  0  0  0  0  0  0  0  0  0
   40.7850   68.9700   54.2550 C   0  0  0  0  0  0  0  0  0  0  0  0
   40.6020   68.5230   52.9620 C   0  0  0  0  0  0  0  0  0  0  0  0
   40.0650   69.3430   51.9770 C   0  0  0  0  0  0  0  0  0  0  0  0
   39.6810   70.6490   52.2440 C   0  0  0  0  0  0  0  0  0  0  0  0
   39.8620   71.1010   53.5400 C   0  0  0  0  0  0  0  0  0  0  0  0
   40.3950   70.2770   54.4730 C   0  0  0  0  0  0  0  0  0  0  0  0
   41.2980   70.2950   57.7410 H   0  0  0  0  0  0  0  0  0  0  0  0
   41.9090   68.0660   57.2320 H   0  0  0  0  0  0  0  0  0  0  0  0
   41.5960   67.1740   54.9710 H   0  0  0  0  0  0  0  0  0  0  0  0
   40.9050   67.4910   52.7580 H   0  0  0  0  0  0  0  0  0  0  0  0
   39.9840   68.8530   51.0080 H   0  0  0  0  0  0  0  0  0  0  0  0
   39.2780   71.1910   51.4130 H   0  0  0  0  0  0  0  0  0  0  0  0
   39.4680   72.0830   53.6140 H   0  0  0  0  0  0  0  0  0  0  0  0
   39.1820   73.0380   55.8420 C   0  0  0  0  0  0  0  0  0  0  0  0
   40.2580   72.2100   56.1470 C   0  0  0  0  0  0  0  0  0  0  0  0
   41.3110   72.7150   57.0060 C   0  0  0  0  0  0  0  0  0  0  0  0
   41.1840   73.9920   57.4740 N   0  0  0  0  0  0  0  0  0  0  0  0
   40.0800   74.7590   57.1270 C   0  0  0  0  0  0  0  0  0  0  0  0
   39.0970   74.2750   56.3220 N   0  0  0  0  0  0  0  0  0  0  0  0
   38.4250   72.7550   55.1630 H   0  0  0  0  0  0  0  0  0  0  0  0
   42.1990   72.2680   57.3730 H   0  0  0  0  0  0  0  0  0  0  0  0
   39.9460   76.1390   57.6020 C   0  0  0  0  0  0  0  0  0  0  0  0
   40.3940   77.1040   56.9590 O   0  0  0  0  0  0  0  0  0  0  0  0
   39.2400   76.3200   58.9050 C   0  0  0  0  0  3  0  0  0  0  0  0
   38.7340   74.9510   59.3210 C   0  0  0  0  0  2  0  0  0  0  0  0
   38.8600   74.8680   60.8230 C   0  0  0  0  0  2  0  0  0  0  0  0
   39.4520   76.1900   61.2670 C   0  0  0  0  0  2  0  0  0  0  0  0
   40.1910   76.6710   60.0210 C   0  0  0  0  0  2  0  0  0  0  0  0
  1 19  1  0  0  0  0
  1  2  1  0  0  0  0
  2 11  1  0  0  0  0
  3  2  2  0  0  0  0
  3 12  1  0  0  0  0
  4  3  1  0  0  0  0
  5 10  1  0  0  0  0
  5  4  2  0  0  0  0
  6  5  1  0  0  0  0
  7  8  1  0  0  0  0
  7  6  2  0  0  0  0
  8  9  2  0  0  0  0
  9 17  1  0  0  0  0
  9 10  1  0  0  0  0
 10  1  2  0  0  0  0
 13  4  1  0  0  0  0
 14  6  1  0  0  0  0
 15  7  1  0  0  0  0
 16  8  1  0  0  0  0
 18 19  2  0  0  0  0
 18 23  1  0  0  0  0
 19 20  1  0  0  0  0
 20 25  1  0  0  0  0
 20 21  2  0  0  0  0
 22 21  1  0  0  0  0
 22 26  1  0  0  0  0
 23 22  2  0  0  0  0
 24 18  1  0  0  0  0
 26 28  1  0  0  0  0
 27 26  2  0  0  0  0
 28 29  1  0  0  0  0
 28 32  1  0  0  0  0
 29 30  1  0  0  0  0
 30 31  1  0  0  0  0
 32 31  1  0  0  0  0
M  END
>  <minimizedAffinity>
-5.57266045

$$$$
