
 OpenBabel03212520153D

 28 30  0  0  0  0  0  0  0  0999 V2000
   43.4620   83.5470   58.7740 Cl  0  0  0  0  0  0  0  0  0  0  0  0
   42.0760   82.5920   58.2880 C   0  0  0  0  0  0  0  0  0  0  0  0
   41.0520   82.2460   59.1510 C   0  0  0  0  0  0  0  0  0  0  0  0
   40.0370   81.4930   58.6020 C   0  0  0  0  0  0  0  0  0  0  0  0
   39.9460   81.0580   57.3070 C   0  0  0  0  0  0  0  0  0  0  0  0
   40.9730   81.4170   56.4890 C   0  0  0  0  0  0  0  0  0  0  0  0
   41.0140   80.8910   54.8080 Cl  0  0  0  0  0  0  0  0  0  0  0  0
   42.0240   82.1740   56.9690 C   0  0  0  0  0  0  0  0  0  0  0  0
   39.2340   81.2300   59.3010 H   0  0  0  0  0  0  0  0  0  0  0  0
   39.1210   80.4710   56.9470 H   0  0  0  0  0  0  0  0  0  0  0  0
   41.7940   82.0040   61.5700 C   0  0  0  0  0  0  0  0  0  0  0  0
   41.1250   82.6690   60.5110 C   0  0  0  0  0  0  0  0  0  0  0  0
   40.4710   83.8500   60.7980 C   0  0  0  0  0  0  0  0  0  0  0  0
   40.5240   84.2820   62.0920 N   0  0  0  0  0  0  0  0  0  0  0  0
   41.1590   83.6400   63.0730 C   0  0  0  0  0  0  0  0  0  0  0  0
   41.8030   82.4870   62.8130 N   0  0  0  0  0  0  0  0  0  0  0  0
   42.2870   81.0850   61.2850 H   0  0  0  0  0  0  0  0  0  0  0  0
   39.9210   84.4660   60.0990 H   0  0  0  0  0  0  0  0  0  0  0  0
   41.0940   84.2800   64.4150 C   0  0  0  0  0  0  0  0  0  0  0  0
   40.7570   85.6050   64.3460 F   0  0  0  0  0  0  0  0  0  0  0  0
   40.1520   83.6320   65.2010 F   0  0  0  0  0  0  0  0  0  0  0  0
   42.3350   84.2510   65.0440 F   0  0  0  0  0  0  0  0  0  0  0  0
   43.0650   82.5240   56.0900 O   0  0  0  0  0  0  0  0  0  0  0  0
   43.2410   83.7720   55.5090 C   0  0  0  0  0  3  0  0  0  0  0  0
   44.7040   84.1730   55.4080 C   0  0  0  0  0  2  0  0  0  0  0  0
   44.7590   84.8660   54.0380 C   0  0  0  0  0  2  0  0  0  0  0  0
   43.9090   83.9110   53.2370 C   0  0  0  0  0  2  0  0  0  0  0  0
   42.6880   83.7560   54.1110 C   0  0  0  0  0  2  0  0  0  0  0  0
  2  1  1  0  0  0  0
  2  3  1  0  0  0  0
  3 12  1  0  0  0  0
  4  3  2  0  0  0  0
  4  9  1  0  0  0  0
  5  4  1  0  0  0  0
  6  8  1  0  0  0  0
  6  5  2  0  0  0  0
  7  6  1  0  0  0  0
  8  2  2  0  0  0  0
 10  5  1  0  0  0  0
 11 16  1  0  0  0  0
 12 13  1  0  0  0  0
 12 11  2  0  0  0  0
 13 14  2  0  0  0  0
 14 15  1  0  0  0  0
 15 19  1  0  0  0  0
 16 15  2  0  0  0  0
 17 11  1  0  0  0  0
 18 13  1  0  0  0  0
 19 22  1  0  0  0  0
 19 21  1  0  0  0  0
 20 19  1  0  0  0  0
 23  8  1  0  0  0  0
 24 23  1  0  0  0  0
 25 24  1  0  0  0  0
 26 25  1  0  0  0  0
 27 26  1  0  0  0  0
 27 28  1  0  0  0  0
 28 24  1  0  0  0  0
M  END
>  <minimizedAffinity>
-4.90752125

>  <minimizedRMSD>
1.34224367

$$$$
