
 OpenBabel03212520413D

 23 25  0  0  1  0  0  0  0  0999 V2000
   42.2070   85.3490   59.6920 C   0  0  1  0  0  0  0  0  0  0  0  0
   43.2040   85.4510   58.5460 C   0  0  0  0  0  0  0  0  0  0  0  0
   41.9530   84.5970   58.4530 C   0  0  1  0  0  0  0  0  0  0  0  0
   41.7490   86.3410   59.9150 H   0  0  0  0  0  0  0  0  0  0  0  0
   43.2120   86.3570   57.9040 H   0  0  0  0  0  0  0  0  0  0  0  0
   44.1200   84.8590   58.5660 H   0  0  0  0  0  0  0  0  0  0  0  0
   41.1290   84.9850   57.8120 H   0  0  0  0  0  0  0  0  0  0  0  0
   42.7560   84.6670   60.8120 O   0  0  0  0  0  0  0  0  0  0  0  0
   40.0460   83.5230   62.9170 C   0  0  0  0  0  0  0  0  0  0  0  0
   40.5710   83.7340   64.1950 C   0  0  0  0  0  0  0  0  0  0  0  0
   41.8740   84.2760   64.2990 C   0  0  0  0  0  0  0  0  0  0  0  0
   42.5020   84.5460   63.1260 N   0  0  0  0  0  0  0  0  0  0  0  0
   41.9890   84.3400   61.9020 C   0  0  0  0  0  0  0  0  0  0  0  0
   40.7680   83.8320   61.7820 N   0  0  0  0  0  0  0  0  0  0  0  0
   39.0490   83.1090   62.8070 H   0  0  0  0  0  0  0  0  0  0  0  0
   40.0270   83.5010   65.0810 H   0  0  0  0  0  0  0  0  0  0  0  0
   42.3490   84.4670   65.2500 H   0  0  0  0  0  0  0  0  0  0  0  0
   42.0860   83.2030   58.5280 O   0  0  0  0  0  0  0  0  0  0  0  0
   40.8890   82.6510   58.0230 C   0  0  0  0  0  3  0  0  0  0  0  0
   40.3710   81.5350   58.9300 C   0  0  0  0  0  2  0  0  0  0  0  0
   39.8150   80.4920   58.0110 C   0  0  0  0  0  2  0  0  0  0  0  0
   39.9860   80.9680   56.5950 C   0  0  0  0  0  2  0  0  0  0  0  0
   41.1210   81.9550   56.7120 C   0  0  0  0  0  2  0  0  0  0  0  0
  1  4  1  1  0  0  0
  1  8  1  0  0  0  0
  2  6  1  0  0  0  0
  2  1  1  0  0  0  0
  3  7  1  6  0  0  0
  3 18  1  0  0  0  0
  3  2  1  0  0  0  0
  3  1  1  0  0  0  0
  5  2  1  0  0  0  0
  8 13  1  0  0  0  0
  9 10  1  0  0  0  0
 10 11  2  0  0  0  0
 10 16  1  0  0  0  0
 11 17  1  0  0  0  0
 12 11  1  0  0  0  0
 13 12  2  0  0  0  0
 14 13  1  0  0  0  0
 14  9  2  0  0  0  0
 15  9  1  0  0  0  0
 19 18  1  0  0  0  0
 19 20  1  0  0  0  0
 21 20  1  0  0  0  0
 22 23  1  0  0  0  0
 22 21  1  0  0  0  0
 23 19  1  0  0  0  0
M  END
>  <minimizedAffinity>
-4.25016642

>  <minimizedRMSD>
2.47717118

$$$$
