
 OpenBabel03212520563D

 31 34  0  0  0  0  0  0  0  0999 V2000
   40.9290   80.2450   61.7440 C   0  0  0  0  0  0  0  0  0  0  0  0
   40.8490   79.0330   62.4020 C   0  0  0  0  0  0  0  0  0  0  0  0
   40.4780   77.9480   61.6970 C   0  0  0  0  0  0  0  0  0  0  0  0
   40.1910   78.0790   60.3460 C   0  0  0  0  0  0  0  0  0  0  0  0
   40.4630   79.8840   60.0320 S   0  0  0  0  0  0  0  0  0  0  0  0
   41.0770   78.9310   63.4680 H   0  0  0  0  0  0  0  0  0  0  0  0
   40.3600   76.9250   62.0310 H   0  0  0  0  0  0  0  0  0  0  0  0
   42.9900   83.0910   62.7970 C   0  0  0  0  0  0  0  0  0  0  0  0
   42.1050   83.8620   63.5780 C   0  0  0  0  0  0  0  0  0  0  0  0
   40.8120   83.4000   63.7350 C   0  0  0  0  0  0  0  0  0  0  0  0
   40.4620   82.2380   63.1360 N   0  0  0  0  0  0  0  0  0  0  0  0
   41.3270   81.5220   62.3980 C   0  0  0  0  0  0  0  0  0  0  0  0
   42.5730   81.9420   62.2290 N   0  0  0  0  0  0  0  0  0  0  0  0
   44.0050   83.4480   62.6700 H   0  0  0  0  0  0  0  0  0  0  0  0
   42.3860   84.7810   64.0500 H   0  0  0  0  0  0  0  0  0  0  0  0
   40.0470   83.9030   64.3090 H   0  0  0  0  0  0  0  0  0  0  0  0
   39.7760   77.2010   59.2850 C   0  0  0  0  0  0  0  0  0  0  0  0
   40.4000   76.0060   59.1190 C   0  0  0  0  0  0  0  0  0  0  0  0
   39.8790   75.2680   58.0450 C   0  0  0  0  0  0  0  0  0  0  0  0
   38.8690   75.6800   57.2520 N   0  0  0  0  0  0  0  0  0  0  0  0
   38.3120   76.8860   57.4980 C   0  0  0  0  0  0  0  0  0  0  0  0
   38.7640   77.6600   58.5220 N   0  0  0  0  0  0  0  0  0  0  0  0
   41.2030   75.6260   59.7130 H   0  0  0  0  0  0  0  0  0  0  0  0
   40.2850   74.2810   57.7900 H   0  0  0  0  0  0  0  0  0  0  0  0
   37.2250   77.3230   56.6410 C   0  0  0  0  0  0  0  0  0  0  0  0
   36.0410   77.1010   57.0380 O   0  0  0  0  0  0  0  0  0  0  0  0
   37.5660   77.9970   55.3650 C   0  0  0  0  0  3  0  0  0  0  0  0
   37.3250   79.4780   55.4140 C   0  0  0  0  0  2  0  0  0  0  0  0
   37.4720   79.8320   53.9340 C   0  0  0  0  0  2  0  0  0  0  0  0
   36.8460   78.6420   53.2170 C   0  0  0  0  0  2  0  0  0  0  0  0
   36.6320   77.5640   54.2430 C   0  0  0  0  0  2  0  0  0  0  0  0
  1 12  1  0  0  0  0
  1  2  2  0  0  0  0
  2  6  1  0  0  0  0
  3  7  1  0  0  0  0
  3  2  1  0  0  0  0
  4  3  2  0  0  0  0
  5  4  1  0  0  0  0
  5  1  1  0  0  0  0
  8  9  1  0  0  0  0
  9 10  2  0  0  0  0
  9 15  1  0  0  0  0
 10 16  1  0  0  0  0
 11 10  1  0  0  0  0
 12 11  2  0  0  0  0
 13 12  1  0  0  0  0
 13  8  2  0  0  0  0
 14  8  1  0  0  0  0
 17  4  1  0  0  0  0
 18 17  1  0  0  0  0
 18 23  1  0  0  0  0
 19 18  2  0  0  0  0
 20 21  2  0  0  0  0
 20 19  1  0  0  0  0
 21 22  1  0  0  0  0
 22 17  2  0  0  0  0
 24 19  1  0  0  0  0
 25 26  2  0  0  0  0
 25 21  1  0  0  0  0
 27 28  1  0  0  0  0
 27 25  1  0  0  0  0
 29 28  1  0  0  0  0
 30 29  1  0  0  0  0
 30 31  1  0  0  0  0
 31 27  1  0  0  0  0
M  END
>  <minimizedAffinity>
-6.56305075

>  <minimizedRMSD>
0.510038853

$$$$
