
 OpenBabel03212520413D

 23 25  0  0  1  0  0  0  0  0999 V2000
   42.2950   85.4120   59.7770 C   0  0  1  0  0  0  0  0  0  0  0  0
   43.3850   86.1510   59.0110 C   0  0  0  0  0  0  0  0  0  0  0  0
   42.6670   84.9460   58.4310 C   0  0  1  0  0  0  0  0  0  0  0  0
   41.4250   86.0790   59.9800 H   0  0  0  0  0  0  0  0  0  0  0  0
   43.1540   87.1230   58.5270 H   0  0  0  0  0  0  0  0  0  0  0  0
   44.4350   85.9520   59.2290 H   0  0  0  0  0  0  0  0  0  0  0  0
   41.9220   85.1480   57.6270 H   0  0  0  0  0  0  0  0  0  0  0  0
   42.8160   84.7290   60.9100 O   0  0  0  0  0  0  0  0  0  0  0  0
   40.0440   83.5260   62.8990 C   0  0  0  0  0  0  0  0  0  0  0  0
   40.5240   83.7160   64.1980 C   0  0  0  0  0  0  0  0  0  0  0  0
   41.8180   84.2650   64.3570 C   0  0  0  0  0  0  0  0  0  0  0  0
   42.4840   84.5620   63.2110 N   0  0  0  0  0  0  0  0  0  0  0  0
   42.0140   84.3760   61.9670 C   0  0  0  0  0  0  0  0  0  0  0  0
   40.8020   83.8610   61.7950 N   0  0  0  0  0  0  0  0  0  0  0  0
   39.0550   83.1070   62.7480 H   0  0  0  0  0  0  0  0  0  0  0  0
   39.9520   83.4630   65.0610 H   0  0  0  0  0  0  0  0  0  0  0  0
   42.2590   84.4420   65.3270 H   0  0  0  0  0  0  0  0  0  0  0  0
   43.3540   83.7260   58.3580 O   0  0  0  0  0  0  0  0  0  0  0  0
   43.3510   83.3370   57.0010 C   0  0  0  0  0  3  0  0  0  0  0  0
   44.5740   83.8880   56.2690 C   0  0  0  0  0  2  0  0  0  0  0  0
   44.0920   84.2690   54.9040 C   0  0  0  0  0  2  0  0  0  0  0  0
   42.6250   83.9520   54.8140 C   0  0  0  0  0  2  0  0  0  0  0  0
   42.1970   83.9510   56.2610 C   0  0  0  0  0  2  0  0  0  0  0  0
  1  4  1  1  0  0  0
  1  8  1  0  0  0  0
  2  6  1  0  0  0  0
  2  1  1  0  0  0  0
  3  7  1  6  0  0  0
  3  2  1  0  0  0  0
  3  1  1  0  0  0  0
  5  2  1  0  0  0  0
  8 13  1  0  0  0  0
  9 10  1  0  0  0  0
 10 11  2  0  0  0  0
 10 16  1  0  0  0  0
 11 17  1  0  0  0  0
 12 11  1  0  0  0  0
 13 12  2  0  0  0  0
 14 13  1  0  0  0  0
 14  9  2  0  0  0  0
 15  9  1  0  0  0  0
 18  3  1  0  0  0  0
 19 18  1  0  0  0  0
 20 19  1  0  0  0  0
 21 20  1  0  0  0  0
 22 21  1  0  0  0  0
 22 23  1  0  0  0  0
 23 19  1  0  0  0  0
M  END
>  <minimizedAffinity>
-3.68111181

>  <minimizedRMSD>
0.683945894

$$$$
