
 OpenBabel03212520313D

 37 40  0  0  0  0  0  0  0  0999 V2000
   40.2070   79.2120   58.8560 C   0  0  0  0  0  0  0  0  0  0  0  0
   40.2180   79.9350   57.6810 C   0  0  0  0  0  0  0  0  0  0  0  0
   41.1510   81.0030   57.5860 C   0  0  0  0  0  0  0  0  0  0  0  0
   41.9550   81.2260   58.6560 N   0  0  0  0  0  0  0  0  0  0  0  0
   41.9250   80.5220   59.7630 C   0  0  0  0  0  0  0  0  0  0  0  0
   41.0420   79.5100   59.8580 N   0  0  0  0  0  0  0  0  0  0  0  0
   39.5000   78.3870   58.9530 H   0  0  0  0  0  0  0  0  0  0  0  0
   41.1700   81.5730   56.6780 H   0  0  0  0  0  0  0  0  0  0  0  0
   39.3370   79.6270   56.6150 N   0  0  0  0  0  0  0  0  0  0  0  0
   38.2790   80.4350   56.5440 C   0  0  0  0  0  0  0  0  0  0  0  0
   37.3590   80.2000   55.5140 C   0  0  0  0  0  0  0  0  0  0  0  0
   37.5730   79.1530   54.6170 C   0  0  0  0  0  0  0  0  0  0  0  0
   36.7770   78.9110   53.6850 O   0  0  0  0  0  0  0  0  0  0  0  0
   38.6780   78.3780   54.7640 N   0  0  0  0  0  0  0  0  0  0  0  0
   39.5770   78.6000   55.7610 C   0  0  0  0  0  0  0  0  0  0  0  0
   40.5890   77.8960   55.9010 O   0  0  0  0  0  0  0  0  0  0  0  0
   38.0770   81.2430   57.2050 H   0  0  0  0  0  0  0  0  0  0  0  0
   36.4880   80.8290   55.4190 H   0  0  0  0  0  0  0  0  0  0  0  0
   38.8470   77.5970   54.1040 H   0  0  0  0  0  0  0  0  0  0  0  0
   42.4770   81.7570   61.8330 C   0  0  0  0  0  0  0  0  0  0  0  0
   42.8450   80.8940   60.8270 C   0  0  0  0  0  0  0  0  0  0  0  0
   44.0990   80.3240   60.8210 C   0  0  0  0  0  0  0  0  0  0  0  0
   45.0500   80.5780   61.8110 C   0  0  0  0  0  0  0  0  0  0  0  0
   44.6940   81.4440   62.8310 C   0  0  0  0  0  0  0  0  0  0  0  0
   43.4440   82.0060   62.8240 C   0  0  0  0  0  0  0  0  0  0  0  0
   44.3740   79.6440   60.0180 H   0  0  0  0  0  0  0  0  0  0  0  0
   46.0120   80.0940   61.7410 H   0  0  0  0  0  0  0  0  0  0  0  0
   45.4070   81.6590   63.6080 H   0  0  0  0  0  0  0  0  0  0  0  0
   43.1520   82.6860   63.6180 H   0  0  0  0  0  0  0  0  0  0  0  0
   40.9280   82.5160   61.8720 S   0  0  0  0  0  0  0  0  0  0  0  0
   40.5630   82.8600   63.2980 O   0  0  0  0  0  0  0  0  0  0  0  0
   39.8930   81.4150   61.5990 O   0  0  0  0  0  0  0  0  0  0  0  0
   40.6350   83.9590   61.0270 C   0  0  0  0  0  3  0  0  0  0  0  0
   39.8020   83.6670   59.7610 C   0  0  0  0  0  2  0  0  0  0  0  0
   40.3190   84.6130   58.6990 C   0  0  0  0  0  2  0  0  0  0  0  0
   41.4720   85.3680   59.3600 C   0  0  0  0  0  2  0  0  0  0  0  0
   41.9620   84.3230   60.3250 C   0  0  0  0  0  2  0  0  0  0  0  0
  1  7  1  0  0  0  0
  1  6  1  0  0  0  0
  2  1  2  0  0  0  0
  3  2  1  0  0  0  0
  3  4  2  0  0  0  0
  4  5  1  0  0  0  0
  5  6  2  0  0  0  0
  5 21  1  0  0  0  0
  8  3  1  0  0  0  0
  9  2  1  0  0  0  0
 10  9  1  0  0  0  0
 10 17  1  0  0  0  0
 11 10  2  0  0  0  0
 12 14  1  0  0  0  0
 12 11  1  0  0  0  0
 13 12  2  0  0  0  0
 14 15  1  0  0  0  0
 15 16  2  0  0  0  0
 15  9  1  0  0  0  0
 18 11  1  0  0  0  0
 19 14  1  0  0  0  0
 20 30  1  0  0  0  0
 20 25  1  0  0  0  0
 21 20  2  0  0  0  0
 22 21  1  0  0  0  0
 22 23  2  0  0  0  0
 23 24  1  0  0  0  0
 24 28  1  0  0  0  0
 25 24  2  0  0  0  0
 25 29  1  0  0  0  0
 26 22  1  0  0  0  0
 27 23  1  0  0  0  0
 30 31  2  0  0  0  0
 32 30  2  0  0  0  0
 33 30  1  0  0  0  0
 34 33  1  0  0  0  0
 35 36  1  0  0  0  0
 35 34  1  0  0  0  0
 36 37  1  0  0  0  0
 37 33  1  0  0  0  0
M  END
>  <minimizedAffinity>
-5.58055115

>  <minimizedRMSD>
1.38877559

$$$$
