
 OpenBabel03212520553D

 31 34  0  0  0  0  0  0  0  0999 V2000
   40.9340   80.2230   61.5600 C   0  0  0  0  0  0  0  0  0  0  0  0
   40.8830   78.9690   62.1370 C   0  0  0  0  0  0  0  0  0  0  0  0
   40.5000   77.9300   61.3720 C   0  0  0  0  0  0  0  0  0  0  0  0
   40.1730   78.1470   60.0420 C   0  0  0  0  0  0  0  0  0  0  0  0
   40.4220   79.9720   59.8410 S   0  0  0  0  0  0  0  0  0  0  0  0
   41.1410   78.7990   63.1880 H   0  0  0  0  0  0  0  0  0  0  0  0
   40.4000   76.8860   61.6410 H   0  0  0  0  0  0  0  0  0  0  0  0
   43.0220   82.9710   62.8010 C   0  0  0  0  0  0  0  0  0  0  0  0
   42.1330   83.7200   63.5990 C   0  0  0  0  0  0  0  0  0  0  0  0
   40.8290   83.2770   63.7030 C   0  0  0  0  0  0  0  0  0  0  0  0
   40.4710   82.1530   63.0390 N   0  0  0  0  0  0  0  0  0  0  0  0
   41.3410   81.4580   62.2850 C   0  0  0  0  0  0  0  0  0  0  0  0
   42.5980   81.8600   62.1670 N   0  0  0  0  0  0  0  0  0  0  0  0
   44.0470   83.3130   62.7160 H   0  0  0  0  0  0  0  0  0  0  0  0
   42.4210   84.6080   64.1220 H   0  0  0  0  0  0  0  0  0  0  0  0
   40.0600   83.7660   64.2830 H   0  0  0  0  0  0  0  0  0  0  0  0
   39.7340   77.3370   58.9370 C   0  0  0  0  0  0  0  0  0  0  0  0
   40.4930   76.2860   58.5330 C   0  0  0  0  0  0  0  0  0  0  0  0
   39.9280   75.5970   57.4480 C   0  0  0  0  0  0  0  0  0  0  0  0
   38.7620   75.9260   56.8560 N   0  0  0  0  0  0  0  0  0  0  0  0
   38.0800   76.9910   57.3320 C   0  0  0  0  0  0  0  0  0  0  0  0
   38.5640   77.7080   58.3820 N   0  0  0  0  0  0  0  0  0  0  0  0
   41.4220   75.9770   58.9600 H   0  0  0  0  0  0  0  0  0  0  0  0
   40.4300   74.7230   57.0120 H   0  0  0  0  0  0  0  0  0  0  0  0
   36.8250   77.3380   56.6910 C   0  0  0  0  0  0  0  0  0  0  0  0
   35.7540   76.9780   57.2660 O   0  0  0  0  0  0  0  0  0  0  0  0
   36.8750   78.0890   55.4130 C   0  0  0  0  0  3  0  0  0  0  0  0
   37.2050   77.2100   54.2410 C   0  0  0  0  0  2  0  0  0  0  0  0
   37.4700   78.2670   53.1680 C   0  0  0  0  0  2  0  0  0  0  0  0
   38.1700   79.3840   53.9310 C   0  0  0  0  0  2  0  0  0  0  0  0
   38.0320   79.0800   55.3960 C   0  0  0  0  0  2  0  0  0  0  0  0
  1  2  2  0  0  0  0
  1 12  1  0  0  0  0
  2  6  1  0  0  0  0
  3  7  1  0  0  0  0
  3  2  1  0  0  0  0
  4  3  2  0  0  0  0
  5  4  1  0  0  0  0
  5  1  1  0  0  0  0
  8  9  1  0  0  0  0
  9 10  2  0  0  0  0
  9 15  1  0  0  0  0
 10 16  1  0  0  0  0
 11 10  1  0  0  0  0
 12 11  2  0  0  0  0
 13 12  1  0  0  0  0
 13  8  2  0  0  0  0
 14  8  1  0  0  0  0
 17  4  1  0  0  0  0
 18 17  1  0  0  0  0
 18 23  1  0  0  0  0
 19 18  2  0  0  0  0
 20 21  2  0  0  0  0
 20 19  1  0  0  0  0
 21 22  1  0  0  0  0
 22 17  2  0  0  0  0
 24 19  1  0  0  0  0
 25 26  2  0  0  0  0
 25 21  1  0  0  0  0
 27 25  1  0  0  0  0
 28 27  1  0  0  0  0
 29 30  1  0  0  0  0
 29 28  1  0  0  0  0
 30 31  1  0  0  0  0
 31 27  1  0  0  0  0
M  END
>  <minimizedAffinity>
-6.1062541

>  <minimizedRMSD>
0.574165225

$$$$
