
 OpenBabel03212520413D

 23 25  0  0  1  0  0  0  0  0999 V2000
   42.3750   85.4480   59.7970 C   0  0  1  0  0  0  0  0  0  0  0  0
   43.4530   86.4620   59.4330 C   0  0  0  0  0  0  0  0  0  0  0  0
   43.0100   85.3750   58.4710 C   0  0  1  0  0  0  0  0  0  0  0  0
   41.3980   85.9520   59.9850 H   0  0  0  0  0  0  0  0  0  0  0  0
   43.1630   87.4960   59.1520 H   0  0  0  0  0  0  0  0  0  0  0  0
   44.4750   86.3210   59.7880 H   0  0  0  0  0  0  0  0  0  0  0  0
   42.3750   85.6960   57.6130 H   0  0  0  0  0  0  0  0  0  0  0  0
   42.8090   84.5590   60.8180 O   0  0  0  0  0  0  0  0  0  0  0  0
   40.0470   83.5160   62.9080 C   0  0  0  0  0  0  0  0  0  0  0  0
   40.5570   83.7470   64.1890 C   0  0  0  0  0  0  0  0  0  0  0  0
   41.8680   84.2680   64.2990 C   0  0  0  0  0  0  0  0  0  0  0  0
   42.5180   84.4980   63.1300 N   0  0  0  0  0  0  0  0  0  0  0  0
   42.0190   84.2720   61.9040 C   0  0  0  0  0  0  0  0  0  0  0  0
   40.7910   83.7830   61.7770 N   0  0  0  0  0  0  0  0  0  0  0  0
   39.0440   83.1170   62.7930 H   0  0  0  0  0  0  0  0  0  0  0  0
   39.9950   83.5460   65.0720 H   0  0  0  0  0  0  0  0  0  0  0  0
   42.3320   84.4740   65.2530 H   0  0  0  0  0  0  0  0  0  0  0  0
   43.8670   84.2880   58.2460 O   0  0  0  0  0  0  0  0  0  0  0  0
   44.0050   84.1600   56.8470 C   0  0  0  0  0  3  0  0  0  0  0  0
   44.4660   82.7540   56.4660 C   0  0  0  0  0  2  0  0  0  0  0  0
   45.4190   82.9350   55.3250 C   0  0  0  0  0  2  0  0  0  0  0  0
   45.5220   84.4050   55.0230 C   0  0  0  0  0  2  0  0  0  0  0  0
   45.1070   85.0400   56.3270 C   0  0  0  0  0  2  0  0  0  0  0  0
  1  4  1  1  0  0  0
  1  8  1  0  0  0  0
  2  6  1  0  0  0  0
  2  1  1  0  0  0  0
  3  7  1  6  0  0  0
  3  2  1  0  0  0  0
  3  1  1  0  0  0  0
  5  2  1  0  0  0  0
  8 13  1  0  0  0  0
  9 10  1  0  0  0  0
 10 11  2  0  0  0  0
 10 16  1  0  0  0  0
 11 17  1  0  0  0  0
 12 11  1  0  0  0  0
 13 12  2  0  0  0  0
 14 13  1  0  0  0  0
 14  9  2  0  0  0  0
 15  9  1  0  0  0  0
 18  3  1  0  0  0  0
 19 18  1  0  0  0  0
 20 19  1  0  0  0  0
 21 20  1  0  0  0  0
 22 21  1  0  0  0  0
 22 23  1  0  0  0  0
 23 19  1  0  0  0  0
M  END
>  <minimizedAffinity>
-3.42307401

>  <minimizedRMSD>
0.482741833

$$$$
