
 OpenBabel03212520313D

 37 40  0  0  0  0  0  0  0  0999 V2000
   40.1700   79.0860   58.9170 C   0  0  0  0  0  0  0  0  0  0  0  0
   40.1610   79.7890   57.7290 C   0  0  0  0  0  0  0  0  0  0  0  0
   41.0840   80.8630   57.6040 C   0  0  0  0  0  0  0  0  0  0  0  0
   41.8990   81.1110   58.6590 N   0  0  0  0  0  0  0  0  0  0  0  0
   41.8880   80.4260   59.7790 C   0  0  0  0  0  0  0  0  0  0  0  0
   41.0150   79.4090   59.9030 N   0  0  0  0  0  0  0  0  0  0  0  0
   39.4720   78.2580   59.0380 H   0  0  0  0  0  0  0  0  0  0  0  0
   41.0860   81.4170   56.6860 H   0  0  0  0  0  0  0  0  0  0  0  0
   39.2690   79.4550   56.6800 N   0  0  0  0  0  0  0  0  0  0  0  0
   38.3060   80.3570   56.4890 C   0  0  0  0  0  0  0  0  0  0  0  0
   37.3830   80.1030   55.4660 C   0  0  0  0  0  0  0  0  0  0  0  0
   37.4970   78.9430   54.6980 C   0  0  0  0  0  0  0  0  0  0  0  0
   36.6950   78.6810   53.7780 O   0  0  0  0  0  0  0  0  0  0  0  0
   38.5100   78.0780   54.9630 N   0  0  0  0  0  0  0  0  0  0  0  0
   39.4110   78.3170   55.9550 C   0  0  0  0  0  0  0  0  0  0  0  0
   40.3390   77.5310   56.2010 O   0  0  0  0  0  0  0  0  0  0  0  0
   38.1820   81.2520   57.0480 H   0  0  0  0  0  0  0  0  0  0  0  0
   36.5860   80.8050   55.2760 H   0  0  0  0  0  0  0  0  0  0  0  0
   38.6040   77.2130   54.4000 H   0  0  0  0  0  0  0  0  0  0  0  0
   42.4600   81.7120   61.8130 C   0  0  0  0  0  0  0  0  0  0  0  0
   42.8180   80.8250   60.8250 C   0  0  0  0  0  0  0  0  0  0  0  0
   44.0730   80.2550   60.8210 C   0  0  0  0  0  0  0  0  0  0  0  0
   45.0330   80.5330   61.7950 C   0  0  0  0  0  0  0  0  0  0  0  0
   44.6870   81.4240   62.7960 C   0  0  0  0  0  0  0  0  0  0  0  0
   43.4360   81.9850   62.7890 C   0  0  0  0  0  0  0  0  0  0  0  0
   44.3410   79.5560   60.0320 H   0  0  0  0  0  0  0  0  0  0  0  0
   45.9950   80.0490   61.7270 H   0  0  0  0  0  0  0  0  0  0  0  0
   45.4070   81.6580   63.5610 H   0  0  0  0  0  0  0  0  0  0  0  0
   43.1510   82.6840   63.5680 H   0  0  0  0  0  0  0  0  0  0  0  0
   40.9110   82.4710   61.8480 S   0  0  0  0  0  0  0  0  0  0  0  0
   40.5410   82.8110   63.2740 O   0  0  0  0  0  0  0  0  0  0  0  0
   39.8770   81.3700   61.5700 O   0  0  0  0  0  0  0  0  0  0  0  0
   40.6200   83.9160   61.0050 C   0  0  0  0  0  3  0  0  0  0  0  0
   39.8180   83.6230   59.7210 C   0  0  0  0  0  2  0  0  0  0  0  0
   40.3480   84.5820   58.6760 C   0  0  0  0  0  2  0  0  0  0  0  0
   41.4790   85.3440   59.3660 C   0  0  0  0  0  2  0  0  0  0  0  0
   41.9580   84.2980   60.3360 C   0  0  0  0  0  2  0  0  0  0  0  0
  1  7  1  0  0  0  0
  1  6  1  0  0  0  0
  2  1  2  0  0  0  0
  3  2  1  0  0  0  0
  3  4  2  0  0  0  0
  4  5  1  0  0  0  0
  5  6  2  0  0  0  0
  5 21  1  0  0  0  0
  8  3  1  0  0  0  0
  9  2  1  0  0  0  0
 10  9  1  0  0  0  0
 10 17  1  0  0  0  0
 11 10  2  0  0  0  0
 12 14  1  0  0  0  0
 12 11  1  0  0  0  0
 13 12  2  0  0  0  0
 14 15  1  0  0  0  0
 15 16  2  0  0  0  0
 15  9  1  0  0  0  0
 18 11  1  0  0  0  0
 19 14  1  0  0  0  0
 20 30  1  0  0  0  0
 20 25  1  0  0  0  0
 21 20  2  0  0  0  0
 22 21  1  0  0  0  0
 22 23  2  0  0  0  0
 23 24  1  0  0  0  0
 24 28  1  0  0  0  0
 25 24  2  0  0  0  0
 25 29  1  0  0  0  0
 26 22  1  0  0  0  0
 27 23  1  0  0  0  0
 30 31  2  0  0  0  0
 32 30  2  0  0  0  0
 33 30  1  0  0  0  0
 34 33  1  0  0  0  0
 35 36  1  0  0  0  0
 35 34  1  0  0  0  0
 36 37  1  0  0  0  0
 37 33  1  0  0  0  0
M  END
>  <minimizedAffinity>
-5.67053318

>  <minimizedRMSD>
1.75521362

$$$$
