
 OpenBabel03212520553D

 31 34  0  0  0  0  0  0  0  0999 V2000
   40.9740   80.2360   61.7390 C   0  0  0  0  0  0  0  0  0  0  0  0
   40.9800   79.0050   62.3650 C   0  0  0  0  0  0  0  0  0  0  0  0
   40.5960   77.9270   61.6550 C   0  0  0  0  0  0  0  0  0  0  0  0
   40.2120   78.0850   60.3320 C   0  0  0  0  0  0  0  0  0  0  0  0
   40.4030   79.9070   60.0530 S   0  0  0  0  0  0  0  0  0  0  0  0
   41.2840   78.8820   63.4100 H   0  0  0  0  0  0  0  0  0  0  0  0
   40.5340   76.8930   61.9660 H   0  0  0  0  0  0  0  0  0  0  0  0
   43.0390   83.0740   62.8060 C   0  0  0  0  0  0  0  0  0  0  0  0
   42.1570   83.8390   63.5970 C   0  0  0  0  0  0  0  0  0  0  0  0
   40.8650   83.3750   63.7570 C   0  0  0  0  0  0  0  0  0  0  0  0
   40.5130   82.2180   63.1500 N   0  0  0  0  0  0  0  0  0  0  0  0
   41.3750   81.5090   62.4010 C   0  0  0  0  0  0  0  0  0  0  0  0
   42.6200   81.9300   62.2310 N   0  0  0  0  0  0  0  0  0  0  0  0
   44.0530   83.4330   62.6780 H   0  0  0  0  0  0  0  0  0  0  0  0
   42.4410   84.7540   64.0760 H   0  0  0  0  0  0  0  0  0  0  0  0
   40.1030   83.8730   64.3380 H   0  0  0  0  0  0  0  0  0  0  0  0
   39.7520   77.2230   59.2760 C   0  0  0  0  0  0  0  0  0  0  0  0
   40.4210   76.0710   59.0120 C   0  0  0  0  0  0  0  0  0  0  0  0
   39.8480   75.3420   57.9580 C   0  0  0  0  0  0  0  0  0  0  0  0
   38.7530   75.7250   57.2700 N   0  0  0  0  0  0  0  0  0  0  0  0
   38.1580   76.8890   57.6080 C   0  0  0  0  0  0  0  0  0  0  0  0
   38.6560   77.6510   58.6200 N   0  0  0  0  0  0  0  0  0  0  0  0
   41.2900   75.7150   59.5210 H   0  0  0  0  0  0  0  0  0  0  0  0
   40.2810   74.3880   57.6320 H   0  0  0  0  0  0  0  0  0  0  0  0
   36.9800   77.2950   56.8630 C   0  0  0  0  0  0  0  0  0  0  0  0
   35.8670   76.7970   57.2110 O   0  0  0  0  0  0  0  0  0  0  0  0
   37.1520   78.2610   55.7510 C   0  0  0  0  0  3  0  0  0  0  0  0
   38.5050   78.1660   55.1100 C   0  0  0  0  0  2  0  0  0  0  0  0
   38.4920   79.4270   54.2440 C   0  0  0  0  0  2  0  0  0  0  0  0
   37.7580   80.4450   55.1060 C   0  0  0  0  0  2  0  0  0  0  0  0
   37.1470   79.6970   56.2590 C   0  0  0  0  0  2  0  0  0  0  0  0
  1  2  2  0  0  0  0
  1 12  1  0  0  0  0
  2  6  1  0  0  0  0
  3  7  1  0  0  0  0
  3  2  1  0  0  0  0
  4  3  2  0  0  0  0
  5  4  1  0  0  0  0
  5  1  1  0  0  0  0
  8  9  1  0  0  0  0
  9 10  2  0  0  0  0
  9 15  1  0  0  0  0
 10 16  1  0  0  0  0
 11 10  1  0  0  0  0
 12 11  2  0  0  0  0
 13 12  1  0  0  0  0
 13  8  2  0  0  0  0
 14  8  1  0  0  0  0
 17  4  1  0  0  0  0
 18 17  1  0  0  0  0
 18 23  1  0  0  0  0
 19 18  2  0  0  0  0
 20 21  2  0  0  0  0
 20 19  1  0  0  0  0
 21 22  1  0  0  0  0
 22 17  2  0  0  0  0
 24 19  1  0  0  0  0
 25 26  2  0  0  0  0
 25 21  1  0  0  0  0
 27 31  1  0  0  0  0
 27 25  1  0  0  0  0
 28 27  1  0  0  0  0
 29 30  1  0  0  0  0
 29 28  1  0  0  0  0
 30 31  1  0  0  0  0
M  END
>  <minimizedAffinity>
-6.24931812

>  <minimizedRMSD>
0.648872852

$$$$
