
 OpenBabel03212520333D

 37 40  0  0  0  0  0  0  0  0999 V2000
   43.3430   71.5850   60.3900 C   0  0  0  0  0  0  0  0  0  0  0  0
   42.0100   71.7230   60.0610 C   0  0  0  0  0  0  0  0  0  0  0  0
   41.3740   70.6080   59.4510 C   0  0  0  0  0  0  0  0  0  0  0  0
   42.1260   69.4980   59.2430 N   0  0  0  0  0  0  0  0  0  0  0  0
   43.3940   69.3920   59.5660 C   0  0  0  0  0  0  0  0  0  0  0  0
   44.0010   70.4460   60.1430 N   0  0  0  0  0  0  0  0  0  0  0  0
   43.8540   72.4260   60.8590 H   0  0  0  0  0  0  0  0  0  0  0  0
   40.3380   70.7020   59.1910 H   0  0  0  0  0  0  0  0  0  0  0  0
   41.3060   72.9250   60.3190 N   0  0  0  0  0  0  0  0  0  0  0  0
   41.3420   73.7940   59.3080 C   0  0  0  0  0  0  0  0  0  0  0  0
   40.6670   75.0090   59.4810 C   0  0  0  0  0  0  0  0  0  0  0  0
   39.9930   75.2660   60.6760 C   0  0  0  0  0  0  0  0  0  0  0  0
   39.3790   76.3360   60.8690 O   0  0  0  0  0  0  0  0  0  0  0  0
   40.0090   74.3240   61.6540 N   0  0  0  0  0  0  0  0  0  0  0  0
   40.6620   73.1400   61.4930 C   0  0  0  0  0  0  0  0  0  0  0  0
   40.6800   72.2750   62.3830 O   0  0  0  0  0  0  0  0  0  0  0  0
   41.8410   73.6400   58.3820 H   0  0  0  0  0  0  0  0  0  0  0  0
   40.6700   75.7420   58.6890 H   0  0  0  0  0  0  0  0  0  0  0  0
   39.5130   74.5030   62.5460 H   0  0  0  0  0  0  0  0  0  0  0  0
   44.0400   67.0740   60.1370 C   0  0  0  0  0  0  0  0  0  0  0  0
   44.0660   68.1380   59.2650 C   0  0  0  0  0  0  0  0  0  0  0  0
   44.7070   68.0270   58.0500 C   0  0  0  0  0  0  0  0  0  0  0  0
   45.3520   66.8600   57.6380 C   0  0  0  0  0  0  0  0  0  0  0  0
   45.3350   65.7810   58.5050 C   0  0  0  0  0  0  0  0  0  0  0  0
   44.6940   65.9040   59.7120 C   0  0  0  0  0  0  0  0  0  0  0  0
   44.7190   68.8780   57.3720 H   0  0  0  0  0  0  0  0  0  0  0  0
   45.8340   66.8470   56.6730 H   0  0  0  0  0  0  0  0  0  0  0  0
   45.8240   64.8680   58.2150 H   0  0  0  0  0  0  0  0  0  0  0  0
   44.6720   65.0660   60.4000 H   0  0  0  0  0  0  0  0  0  0  0  0
   43.2720   67.1700   61.6790 S   0  0  0  0  0  0  0  0  0  0  0  0
   43.8380   68.3350   62.4600 O   0  0  0  0  0  0  0  0  0  0  0  0
   43.8230   66.0070   62.5170 O   0  0  0  0  0  0  0  0  0  0  0  0
   41.5920   67.3780   61.8140 C   0  0  0  0  0  3  0  0  0  0  0  0
   41.2530   68.0750   63.1480 C   0  0  0  0  0  2  0  0  0  0  0  0
   39.9580   67.4540   63.6220 C   0  0  0  0  0  2  0  0  0  0  0  0
   39.6280   66.3750   62.5890 C   0  0  0  0  0  2  0  0  0  0  0  0
   41.0140   65.9860   62.1520 C   0  0  0  0  0  2  0  0  0  0  0  0
  1  7  1  0  0  0  0
  2  9  1  0  0  0  0
  2  1  2  0  0  0  0
  3  2  1  0  0  0  0
  4  3  2  0  0  0  0
  4  5  1  0  0  0  0
  5  6  2  0  0  0  0
  6  1  1  0  0  0  0
  8  3  1  0  0  0  0
  9 15  1  0  0  0  0
 10 11  2  0  0  0  0
 10  9  1  0  0  0  0
 11 12  1  0  0  0  0
 12 13  2  0  0  0  0
 12 14  1  0  0  0  0
 14 19  1  0  0  0  0
 15 14  1  0  0  0  0
 15 16  2  0  0  0  0
 17 10  1  0  0  0  0
 18 11  1  0  0  0  0
 20 30  1  0  0  0  0
 21  5  1  0  0  0  0
 21 20  2  0  0  0  0
 22 21  1  0  0  0  0
 23 22  2  0  0  0  0
 23 24  1  0  0  0  0
 24 25  2  0  0  0  0
 25 20  1  0  0  0  0
 25 29  1  0  0  0  0
 26 22  1  0  0  0  0
 27 23  1  0  0  0  0
 28 24  1  0  0  0  0
 30 33  1  0  0  0  0
 30 31  2  0  0  0  0
 30 32  2  0  0  0  0
 33 37  1  0  0  0  0
 33 34  1  0  0  0  0
 34 35  1  0  0  0  0
 36 35  1  0  0  0  0
 37 36  1  0  0  0  0
M  END
>  <minimizedAffinity>
-6.47991467

$$$$

 OpenBabel03212520333D

 37 40  0  0  0  0  0  0  0  0999 V2000
   41.5940   73.2620   58.3580 C   0  0  0  0  0  0  0  0  0  0  0  0
   40.7710   72.4560   59.1190 C   0  0  0  0  0  0  0  0  0  0  0  0
   39.4620   72.2120   58.6210 C   0  0  0  0  0  0  0  0  0  0  0  0
   39.1260   72.7880   57.4400 N   0  0  0  0  0  0  0  0  0  0  0  0
   39.9290   73.5510   56.7350 C   0  0  0  0  0  0  0  0  0  0  0  0
   41.1700   73.7860   57.2030 N   0  0  0  0  0  0  0  0  0  0  0  0
   42.6030   73.4630   58.7180 H   0  0  0  0  0  0  0  0  0  0  0  0
   38.8130   71.5880   59.2030 H   0  0  0  0  0  0  0  0  0  0  0  0
   41.2120   71.8970   60.3440 N   0  0  0  0  0  0  0  0  0  0  0  0
   41.8820   70.7540   60.2000 C   0  0  0  0  0  0  0  0  0  0  0  0
   42.3570   70.1360   61.3650 C   0  0  0  0  0  0  0  0  0  0  0  0
   42.1200   70.7230   62.6090 C   0  0  0  0  0  0  0  0  0  0  0  0
   42.5270   70.2050   63.6700 O   0  0  0  0  0  0  0  0  0  0  0  0
   41.4260   71.8900   62.6620 N   0  0  0  0  0  0  0  0  0  0  0  0
   40.9620   72.4960   61.5350 C   0  0  0  0  0  0  0  0  0  0  0  0
   40.3290   73.5620   61.5770 O   0  0  0  0  0  0  0  0  0  0  0  0
   42.0860   70.2720   59.2740 H   0  0  0  0  0  0  0  0  0  0  0  0
   42.9040   69.2090   61.2960 H   0  0  0  0  0  0  0  0  0  0  0  0
   41.2440   72.3350   63.5800 H   0  0  0  0  0  0  0  0  0  0  0  0
   38.7770   75.3250   55.4530 C   0  0  0  0  0  0  0  0  0  0  0  0
   39.4150   74.1070   55.4920 C   0  0  0  0  0  0  0  0  0  0  0  0
   39.6200   73.3900   54.3340 C   0  0  0  0  0  0  0  0  0  0  0  0
   39.2050   73.8420   53.0800 C   0  0  0  0  0  0  0  0  0  0  0  0
   38.5610   75.0660   53.0250 C   0  0  0  0  0  0  0  0  0  0  0  0
   38.3630   75.7700   54.1850 C   0  0  0  0  0  0  0  0  0  0  0  0
   40.1260   72.4280   54.3820 H   0  0  0  0  0  0  0  0  0  0  0  0
   39.4000   73.2260   52.2160 H   0  0  0  0  0  0  0  0  0  0  0  0
   38.2300   75.4410   52.0720 H   0  0  0  0  0  0  0  0  0  0  0  0
   37.8600   76.7310   54.1550 H   0  0  0  0  0  0  0  0  0  0  0  0
   38.4740   76.2500   56.8780 S   0  0  0  0  0  0  0  0  0  0  0  0
   37.4340   75.5550   57.7260 O   0  0  0  0  0  0  0  0  0  0  0  0
   37.6690   77.4810   56.4390 O   0  0  0  0  0  0  0  0  0  0  0  0
   39.7180   76.5990   57.9800 C   0  0  0  0  0  3  0  0  0  0  0  0
   39.3430   76.0740   59.3810 C   0  0  0  0  0  2  0  0  0  0  0  0
   39.8860   77.0890   60.3630 C   0  0  0  0  0  2  0  0  0  0  0  0
   40.4910   78.1980   59.5000 C   0  0  0  0  0  2  0  0  0  0  0  0
   39.6080   78.1090   58.2860 C   0  0  0  0  0  2  0  0  0  0  0  0
  1  7  1  0  0  0  0
  1  2  1  0  0  0  0
  2  9  1  0  0  0  0
  3  2  2  0  0  0  0
  3  8  1  0  0  0  0
  4  3  1  0  0  0  0
  5  6  1  0  0  0  0
  5  4  2  0  0  0  0
  6  1  2  0  0  0  0
  9 15  1  0  0  0  0
 10  9  1  0  0  0  0
 10 11  2  0  0  0  0
 11 12  1  0  0  0  0
 12 14  1  0  0  0  0
 12 13  2  0  0  0  0
 14 19  1  0  0  0  0
 15 16  2  0  0  0  0
 15 14  1  0  0  0  0
 17 10  1  0  0  0  0
 18 11  1  0  0  0  0
 20 21  1  0  0  0  0
 20 30  1  0  0  0  0
 21  5  1  0  0  0  0
 22 26  1  0  0  0  0
 22 21  2  0  0  0  0
 23 22  1  0  0  0  0
 24 23  2  0  0  0  0
 24 25  1  0  0  0  0
 25 20  2  0  0  0  0
 27 23  1  0  0  0  0
 28 24  1  0  0  0  0
 29 25  1  0  0  0  0
 30 31  2  0  0  0  0
 30 33  1  0  0  0  0
 32 30  2  0  0  0  0
 33 37  1  0  0  0  0
 33 34  1  0  0  0  0
 34 35  1  0  0  0  0
 36 35  1  0  0  0  0
 37 36  1  0  0  0  0
M  END
>  <minimizedAffinity>
-6.38994646

$$$$

 OpenBabel03212520333D

 37 40  0  0  0  0  0  0  0  0999 V2000
   41.9880   69.6180   59.2250 C   0  0  0  0  0  0  0  0  0  0  0  0
   42.7310   69.0470   60.2380 C   0  0  0  0  0  0  0  0  0  0  0  0
   44.0560   69.5280   60.4210 C   0  0  0  0  0  0  0  0  0  0  0  0
   44.4840   70.5090   59.5870 N   0  0  0  0  0  0  0  0  0  0  0  0
   43.7560   71.0360   58.6300 C   0  0  0  0  0  0  0  0  0  0  0  0
   42.5010   70.5830   58.4520 N   0  0  0  0  0  0  0  0  0  0  0  0
   40.9680   69.2670   59.0650 H   0  0  0  0  0  0  0  0  0  0  0  0
   44.6430   69.0920   61.2050 H   0  0  0  0  0  0  0  0  0  0  0  0
   42.1960   68.0250   61.0600 N   0  0  0  0  0  0  0  0  0  0  0  0
   42.3030   66.8050   60.5340 C   0  0  0  0  0  0  0  0  0  0  0  0
   41.8000   65.7350   61.2870 C   0  0  0  0  0  0  0  0  0  0  0  0
   41.2180   65.9740   62.5330 C   0  0  0  0  0  0  0  0  0  0  0  0
   40.7590   65.0480   63.2340 O   0  0  0  0  0  0  0  0  0  0  0  0
   41.1500   67.2500   62.9910 N   0  0  0  0  0  0  0  0  0  0  0  0
   41.6370   68.2950   62.2670 C   0  0  0  0  0  0  0  0  0  0  0  0
   41.5790   69.4630   62.6800 O   0  0  0  0  0  0  0  0  0  0  0  0
   42.7380   66.5770   59.5920 H   0  0  0  0  0  0  0  0  0  0  0  0
   41.8640   64.7300   60.9000 H   0  0  0  0  0  0  0  0  0  0  0  0
   40.7200   67.4400   63.9140 H   0  0  0  0  0  0  0  0  0  0  0  0
   44.3120   73.4010   58.1660 C   0  0  0  0  0  0  0  0  0  0  0  0
   44.3650   72.0730   57.8110 C   0  0  0  0  0  0  0  0  0  0  0  0
   45.0370   71.6820   56.6740 C   0  0  0  0  0  0  0  0  0  0  0  0
   45.6910   72.5840   55.8330 C   0  0  0  0  0  0  0  0  0  0  0  0
   45.6460   73.9240   56.1770 C   0  0  0  0  0  0  0  0  0  0  0  0
   44.9730   74.3010   57.3110 C   0  0  0  0  0  0  0  0  0  0  0  0
   45.0690   70.6280   56.4070 H   0  0  0  0  0  0  0  0  0  0  0  0
   46.1970   72.2050   54.9590 H   0  0  0  0  0  0  0  0  0  0  0  0
   46.1410   74.6430   55.5480 H   0  0  0  0  0  0  0  0  0  0  0  0
   44.9310   75.3480   57.5930 H   0  0  0  0  0  0  0  0  0  0  0  0
   43.4620   73.9440   59.5660 S   0  0  0  0  0  0  0  0  0  0  0  0
   43.4500   75.4550   59.6020 O   0  0  0  0  0  0  0  0  0  0  0  0
   44.3750   73.6650   60.7690 O   0  0  0  0  0  0  0  0  0  0  0  0
   41.8370   73.5260   59.8260 C   0  0  0  0  0  3  0  0  0  0  0  0
   41.0020   74.7960   60.0880 C   0  0  0  0  0  2  0  0  0  0  0  0
   39.9680   74.4060   61.1210 C   0  0  0  0  0  2  0  0  0  0  0  0
   40.2820   72.9510   61.4740 C   0  0  0  0  0  2  0  0  0  0  0  0
   41.7690   72.9330   61.2500 C   0  0  0  0  0  2  0  0  0  0  0  0
  1  2  1  0  0  0  0
  2  3  2  0  0  0  0
  2  9  1  0  0  0  0
  3  8  1  0  0  0  0
  4  3  1  0  0  0  0
  5  4  2  0  0  0  0
  6  5  1  0  0  0  0
  6  1  2  0  0  0  0
  7  1  1  0  0  0  0
  9 15  1  0  0  0  0
 10  9  1  0  0  0  0
 10 11  2  0  0  0  0
 11 12  1  0  0  0  0
 12 14  1  0  0  0  0
 12 13  2  0  0  0  0
 14 19  1  0  0  0  0
 15 16  2  0  0  0  0
 15 14  1  0  0  0  0
 17 10  1  0  0  0  0
 18 11  1  0  0  0  0
 20 30  1  0  0  0  0
 21 20  1  0  0  0  0
 21  5  1  0  0  0  0
 22 21  2  0  0  0  0
 23 24  2  0  0  0  0
 23 22  1  0  0  0  0
 24 25  1  0  0  0  0
 25 29  1  0  0  0  0
 25 20  2  0  0  0  0
 26 22  1  0  0  0  0
 27 23  1  0  0  0  0
 28 24  1  0  0  0  0
 30 31  2  0  0  0  0
 30 33  1  0  0  0  0
 30 32  2  0  0  0  0
 33 34  1  0  0  0  0
 33 37  1  0  0  0  0
 34 35  1  0  0  0  0
 35 36  1  0  0  0  0
 37 36  1  0  0  0  0
M  END
>  <minimizedAffinity>
-6.36146641

$$$$

 OpenBabel03212520333D

 37 40  0  0  0  0  0  0  0  0999 V2000
   38.1910   73.5300   57.3860 C   0  0  0  0  0  0  0  0  0  0  0  0
   38.8070   74.1940   56.3440 C   0  0  0  0  0  0  0  0  0  0  0  0
   40.1570   73.8480   56.0630 C   0  0  0  0  0  0  0  0  0  0  0  0
   40.7310   72.8950   56.8400 N   0  0  0  0  0  0  0  0  0  0  0  0
   40.1220   72.2780   57.8250 C   0  0  0  0  0  0  0  0  0  0  0  0
   38.8440   72.6030   58.0950 N   0  0  0  0  0  0  0  0  0  0  0  0
   37.1550   73.7770   57.6200 H   0  0  0  0  0  0  0  0  0  0  0  0
   40.6470   74.3570   55.2570 H   0  0  0  0  0  0  0  0  0  0  0  0
   38.1240   75.1770   55.5870 N   0  0  0  0  0  0  0  0  0  0  0  0
   37.5910   76.1480   56.3290 C   0  0  0  0  0  0  0  0  0  0  0  0
   36.8990   77.1640   55.6560 C   0  0  0  0  0  0  0  0  0  0  0  0
   36.7920   77.1300   54.2650 C   0  0  0  0  0  0  0  0  0  0  0  0
   36.1850   78.0160   53.6290 O   0  0  0  0  0  0  0  0  0  0  0  0
   37.3660   76.1010   53.5890 N   0  0  0  0  0  0  0  0  0  0  0  0
   38.0400   75.1110   54.2350 C   0  0  0  0  0  0  0  0  0  0  0  0
   38.5670   74.1690   53.6230 O   0  0  0  0  0  0  0  0  0  0  0  0
   37.6470   76.2150   57.3890 H   0  0  0  0  0  0  0  0  0  0  0  0
   36.4510   77.9700   56.2170 H   0  0  0  0  0  0  0  0  0  0  0  0
   37.2930   76.0640   52.5560 H   0  0  0  0  0  0  0  0  0  0  0  0
   41.6860   71.6400   59.6320 C   0  0  0  0  0  0  0  0  0  0  0  0
   40.8800   71.2880   58.5740 C   0  0  0  0  0  0  0  0  0  0  0  0
   40.7390   69.9650   58.2160 C   0  0  0  0  0  0  0  0  0  0  0  0
   41.3870   68.9260   58.8860 C   0  0  0  0  0  0  0  0  0  0  0  0
   42.2010   69.2650   59.9530 C   0  0  0  0  0  0  0  0  0  0  0  0
   42.3340   70.5850   60.2990 C   0  0  0  0  0  0  0  0  0  0  0  0
   40.0980   69.7030   57.3770 H   0  0  0  0  0  0  0  0  0  0  0  0
   41.2280   67.9130   58.5490 H   0  0  0  0  0  0  0  0  0  0  0  0
   42.7140   68.4850   60.4890 H   0  0  0  0  0  0  0  0  0  0  0  0
   42.9690   70.8640   61.1330 H   0  0  0  0  0  0  0  0  0  0  0  0
   41.9150   73.2840   60.1040 S   0  0  0  0  0  0  0  0  0  0  0  0
   42.0280   74.1570   58.8750 O   0  0  0  0  0  0  0  0  0  0  0  0
   43.3540   73.3930   60.6290 O   0  0  0  0  0  0  0  0  0  0  0  0
   40.7710   74.0910   61.0630 C   0  0  0  0  0  3  0  0  0  0  0  0
   39.5100   73.2160   61.2270 C   0  0  0  0  0  2  0  0  0  0  0  0
   38.3390   74.1740   61.2240 C   0  0  0  0  0  2  0  0  0  0  0  0
   38.9500   75.5560   60.9900 C   0  0  0  0  0  2  0  0  0  0  0  0
   40.1520   75.1840   60.1640 C   0  0  0  0  0  2  0  0  0  0  0  0
  1  7  1  0  0  0  0
  1  6  1  0  0  0  0
  2  1  2  0  0  0  0
  3  2  1  0  0  0  0
  3  4  2  0  0  0  0
  4  5  1  0  0  0  0
  5  6  2  0  0  0  0
  5 21  1  0  0  0  0
  8  3  1  0  0  0  0
  9 10  1  0  0  0  0
  9  2  1  0  0  0  0
 10 17  1  0  0  0  0
 11 18  1  0  0  0  0
 11 10  2  0  0  0  0
 12 11  1  0  0  0  0
 13 12  2  0  0  0  0
 14 15  1  0  0  0  0
 14 12  1  0  0  0  0
 15  9  1  0  0  0  0
 16 15  2  0  0  0  0
 19 14  1  0  0  0  0
 20 30  1  0  0  0  0
 20 25  1  0  0  0  0
 21 20  2  0  0  0  0
 22 21  1  0  0  0  0
 22 23  2  0  0  0  0
 23 24  1  0  0  0  0
 24 25  2  0  0  0  0
 24 28  1  0  0  0  0
 25 29  1  0  0  0  0
 26 22  1  0  0  0  0
 27 23  1  0  0  0  0
 30 32  2  0  0  0  0
 30 33  1  0  0  0  0
 31 30  2  0  0  0  0
 33 34  1  0  0  0  0
 35 34  1  0  0  0  0
 36 35  1  0  0  0  0
 37 36  1  0  0  0  0
 37 33  1  0  0  0  0
M  END
>  <minimizedAffinity>
-6.26113605

$$$$

 OpenBabel03212520333D

 37 40  0  0  0  0  0  0  0  0999 V2000
   42.0190   69.8430   60.3660 C   0  0  0  0  0  0  0  0  0  0  0  0
   42.6040   69.5870   61.5900 C   0  0  0  0  0  0  0  0  0  0  0  0
   42.5300   70.6130   62.5710 C   0  0  0  0  0  0  0  0  0  0  0  0
   41.8920   71.7600   62.2270 N   0  0  0  0  0  0  0  0  0  0  0  0
   41.3440   71.9780   61.0550 C   0  0  0  0  0  0  0  0  0  0  0  0
   41.4120   71.0100   60.1220 N   0  0  0  0  0  0  0  0  0  0  0  0
   42.0620   69.0720   59.5970 H   0  0  0  0  0  0  0  0  0  0  0  0
   42.9800   70.4270   63.5260 H   0  0  0  0  0  0  0  0  0  0  0  0
   43.2500   68.3550   61.8570 N   0  0  0  0  0  0  0  0  0  0  0  0
   44.4710   68.2660   61.3300 C   0  0  0  0  0  0  0  0  0  0  0  0
   45.1800   67.0780   61.5500 C   0  0  0  0  0  0  0  0  0  0  0  0
   44.6020   66.0500   62.2970 C   0  0  0  0  0  0  0  0  0  0  0  0
   45.2020   64.9780   62.5170 O   0  0  0  0  0  0  0  0  0  0  0  0
   43.3510   66.2270   62.7960 N   0  0  0  0  0  0  0  0  0  0  0  0
   42.6550   67.3780   62.5870 C   0  0  0  0  0  0  0  0  0  0  0  0
   41.5130   67.5450   63.0410 O   0  0  0  0  0  0  0  0  0  0  0  0
   44.9500   69.0210   60.7560 H   0  0  0  0  0  0  0  0  0  0  0  0
   46.1720   66.9620   61.1420 H   0  0  0  0  0  0  0  0  0  0  0  0
   42.9110   65.4710   63.3520 H   0  0  0  0  0  0  0  0  0  0  0  0
   41.3410   74.2840   60.1600 C   0  0  0  0  0  0  0  0  0  0  0  0
   40.7060   73.2680   60.8360 C   0  0  0  0  0  0  0  0  0  0  0  0
   39.4190   73.4350   61.2970 C   0  0  0  0  0  0  0  0  0  0  0  0
   38.6950   74.6150   61.1110 C   0  0  0  0  0  0  0  0  0  0  0  0
   39.3210   75.6460   60.4320 C   0  0  0  0  0  0  0  0  0  0  0  0
   40.6030   75.4680   59.9790 C   0  0  0  0  0  0  0  0  0  0  0  0
   38.9320   72.6220   61.8300 H   0  0  0  0  0  0  0  0  0  0  0  0
   37.6910   74.6730   61.5000 H   0  0  0  0  0  0  0  0  0  0  0  0
   38.7880   76.5680   60.2740 H   0  0  0  0  0  0  0  0  0  0  0  0
   41.1040   76.2680   59.4450 H   0  0  0  0  0  0  0  0  0  0  0  0
   42.9610   74.1330   59.5850 S   0  0  0  0  0  0  0  0  0  0  0  0
   43.8590   73.6590   60.7050 O   0  0  0  0  0  0  0  0  0  0  0  0
   43.4990   75.5600   59.4100 O   0  0  0  0  0  0  0  0  0  0  0  0
   43.3440   73.0920   58.3000 C   0  0  0  0  0  3  0  0  0  0  0  0
   44.5210   72.1760   58.6970 C   0  0  0  0  0  2  0  0  0  0  0  0
   45.3500   72.0010   57.4440 C   0  0  0  0  0  2  0  0  0  0  0  0
   44.6700   72.8720   56.3870 C   0  0  0  0  0  2  0  0  0  0  0  0
   44.0910   73.9530   57.2580 C   0  0  0  0  0  2  0  0  0  0  0  0
  1  2  1  0  0  0  0
  2  9  1  0  0  0  0
  2  3  2  0  0  0  0
  3  8  1  0  0  0  0
  4  3  1  0  0  0  0
  5  4  2  0  0  0  0
  6  1  2  0  0  0  0
  6  5  1  0  0  0  0
  7  1  1  0  0  0  0
  9 15  1  0  0  0  0
 10 11  2  0  0  0  0
 10  9  1  0  0  0  0
 11 12  1  0  0  0  0
 12 13  2  0  0  0  0
 12 14  1  0  0  0  0
 14 19  1  0  0  0  0
 15 14  1  0  0  0  0
 15 16  2  0  0  0  0
 17 10  1  0  0  0  0
 18 11  1  0  0  0  0
 20 21  1  0  0  0  0
 21  5  1  0  0  0  0
 21 22  2  0  0  0  0
 22 26  1  0  0  0  0
 23 22  1  0  0  0  0
 23 27  1  0  0  0  0
 24 23  2  0  0  0  0
 25 20  2  0  0  0  0
 25 24  1  0  0  0  0
 28 24  1  0  0  0  0
 29 25  1  0  0  0  0
 30 20  1  0  0  0  0
 30 31  2  0  0  0  0
 32 30  2  0  0  0  0
 33 34  1  0  0  0  0
 33 30  1  0  0  0  0
 35 34  1  0  0  0  0
 36 37  1  0  0  0  0
 36 35  1  0  0  0  0
 37 33  1  0  0  0  0
M  END
>  <minimizedAffinity>
-6.16033888

$$$$

 OpenBabel03212520333D

 37 40  0  0  0  0  0  0  0  0999 V2000
   40.2880   72.5710   61.3930 C   0  0  0  0  0  0  0  0  0  0  0  0
   41.4960   72.0220   61.0110 C   0  0  0  0  0  0  0  0  0  0  0  0
   42.2700   72.7510   60.0670 C   0  0  0  0  0  0  0  0  0  0  0  0
   41.7610   73.9260   59.6190 N   0  0  0  0  0  0  0  0  0  0  0  0
   40.6090   74.4270   60.0000 C   0  0  0  0  0  0  0  0  0  0  0  0
   39.8720   73.7390   60.8920 N   0  0  0  0  0  0  0  0  0  0  0  0
   39.6760   72.0310   62.1160 H   0  0  0  0  0  0  0  0  0  0  0  0
   43.2090   72.3350   59.7620 H   0  0  0  0  0  0  0  0  0  0  0  0
   41.9440   70.7850   61.5350 N   0  0  0  0  0  0  0  0  0  0  0  0
   42.3240   70.8510   62.8120 C   0  0  0  0  0  0  0  0  0  0  0  0
   42.7780   69.6670   63.4080 C   0  0  0  0  0  0  0  0  0  0  0  0
   42.8170   68.4850   62.6670 C   0  0  0  0  0  0  0  0  0  0  0  0
   43.2140   67.4100   63.1630 O   0  0  0  0  0  0  0  0  0  0  0  0
   42.4110   68.5090   61.3710 N   0  0  0  0  0  0  0  0  0  0  0  0
   41.9680   69.6550   60.7840 C   0  0  0  0  0  0  0  0  0  0  0  0
   41.5950   69.6840   59.6010 O   0  0  0  0  0  0  0  0  0  0  0  0
   42.3100   71.7270   63.4130 H   0  0  0  0  0  0  0  0  0  0  0  0
   43.0960   69.6740   64.4390 H   0  0  0  0  0  0  0  0  0  0  0  0
   42.4360   67.6380   60.8110 H   0  0  0  0  0  0  0  0  0  0  0  0
   39.3800   75.7500   58.3100 C   0  0  0  0  0  0  0  0  0  0  0  0
   40.1970   75.6940   59.4160 C   0  0  0  0  0  0  0  0  0  0  0  0
   40.6200   76.8520   60.0300 C   0  0  0  0  0  0  0  0  0  0  0  0
   40.2560   78.1240   59.5810 C   0  0  0  0  0  0  0  0  0  0  0  0
   39.4350   78.1960   58.4690 C   0  0  0  0  0  0  0  0  0  0  0  0
   39.0200   77.0360   57.8670 C   0  0  0  0  0  0  0  0  0  0  0  0
   41.2660   76.7910   60.9020 H   0  0  0  0  0  0  0  0  0  0  0  0
   40.6260   78.9860   60.1120 H   0  0  0  0  0  0  0  0  0  0  0  0
   39.1370   79.1630   58.1000 H   0  0  0  0  0  0  0  0  0  0  0  0
   38.3760   77.0790   56.9950 H   0  0  0  0  0  0  0  0  0  0  0  0
   38.8430   74.3300   57.4920 S   0  0  0  0  0  0  0  0  0  0  0  0
   37.9790   74.7150   56.3120 O   0  0  0  0  0  0  0  0  0  0  0  0
   37.7790   73.6820   58.3890 O   0  0  0  0  0  0  0  0  0  0  0  0
   39.9490   73.2240   56.8310 C   0  0  0  0  0  3  0  0  0  0  0  0
   39.6150   72.9670   55.3470 C   0  0  0  0  0  2  0  0  0  0  0  0
   39.9160   71.5050   55.1020 C   0  0  0  0  0  2  0  0  0  0  0  0
   40.3450   70.9500   56.4610 C   0  0  0  0  0  2  0  0  0  0  0  0
   39.5490   71.8370   57.3790 C   0  0  0  0  0  2  0  0  0  0  0  0
  1  7  1  0  0  0  0
  2  1  1  0  0  0  0
  2  9  1  0  0  0  0
  3  2  2  0  0  0  0
  4  5  2  0  0  0  0
  4  3  1  0  0  0  0
  5  6  1  0  0  0  0
  6  1  2  0  0  0  0
  8  3  1  0  0  0  0
  9 10  1  0  0  0  0
 10 11  2  0  0  0  0
 10 17  1  0  0  0  0
 11 18  1  0  0  0  0
 12 13  2  0  0  0  0
 12 11  1  0  0  0  0
 14 12  1  0  0  0  0
 15 14  1  0  0  0  0
 15  9  1  0  0  0  0
 16 15  2  0  0  0  0
 19 14  1  0  0  0  0
 20 21  1  0  0  0  0
 21  5  1  0  0  0  0
 21 22  2  0  0  0  0
 22 26  1  0  0  0  0
 23 22  1  0  0  0  0
 23 27  1  0  0  0  0
 24 23  2  0  0  0  0
 25 20  2  0  0  0  0
 25 24  1  0  0  0  0
 28 24  1  0  0  0  0
 29 25  1  0  0  0  0
 30 20  1  0  0  0  0
 30 32  2  0  0  0  0
 31 30  2  0  0  0  0
 33 37  1  0  0  0  0
 33 30  1  0  0  0  0
 34 33  1  0  0  0  0
 35 34  1  0  0  0  0
 35 36  1  0  0  0  0
 36 37  1  0  0  0  0
M  END
>  <minimizedAffinity>
-6.13234425

$$$$

 OpenBabel03212520333D

 37 40  0  0  0  0  0  0  0  0999 V2000
   42.3280   69.1500   59.4940 C   0  0  0  0  0  0  0  0  0  0  0  0
   42.4740   69.1040   60.8660 C   0  0  0  0  0  0  0  0  0  0  0  0
   43.1420   70.1950   61.4840 C   0  0  0  0  0  0  0  0  0  0  0  0
   43.5830   71.1940   60.6790 N   0  0  0  0  0  0  0  0  0  0  0  0
   43.4310   71.2140   59.3750 C   0  0  0  0  0  0  0  0  0  0  0  0
   42.7990   70.1820   58.7850 N   0  0  0  0  0  0  0  0  0  0  0  0
   41.8180   68.3250   58.9970 H   0  0  0  0  0  0  0  0  0  0  0  0
   43.2620   70.1710   62.5490 H   0  0  0  0  0  0  0  0  0  0  0  0
   41.9790   68.0150   61.6250 N   0  0  0  0  0  0  0  0  0  0  0  0
   42.2290   66.8250   61.0800 C   0  0  0  0  0  0  0  0  0  0  0  0
   41.7750   65.6930   61.7700 C   0  0  0  0  0  0  0  0  0  0  0  0
   41.0930   65.8440   62.9790 C   0  0  0  0  0  0  0  0  0  0  0  0
   40.6730   64.8610   63.6250 O   0  0  0  0  0  0  0  0  0  0  0  0
   40.8810   67.0950   63.4610 N   0  0  0  0  0  0  0  0  0  0  0  0
   41.3190   68.1990   62.7970 C   0  0  0  0  0  0  0  0  0  0  0  0
   41.1300   69.3460   63.2330 O   0  0  0  0  0  0  0  0  0  0  0  0
   42.7440   66.6640   60.1640 H   0  0  0  0  0  0  0  0  0  0  0  0
   41.9550   64.7100   61.3660 H   0  0  0  0  0  0  0  0  0  0  0  0
   40.3750   67.2200   64.3570 H   0  0  0  0  0  0  0  0  0  0  0  0
   43.2090   73.4640   58.3710 C   0  0  0  0  0  0  0  0  0  0  0  0
   43.9710   72.3530   58.6480 C   0  0  0  0  0  0  0  0  0  0  0  0
   45.2960   72.3050   58.2730 C   0  0  0  0  0  0  0  0  0  0  0  0
   45.9320   73.3540   57.6060 C   0  0  0  0  0  0  0  0  0  0  0  0
   45.1770   74.4790   57.3190 C   0  0  0  0  0  0  0  0  0  0  0  0
   43.8590   74.5130   57.6980 C   0  0  0  0  0  0  0  0  0  0  0  0
   45.8850   71.4200   58.4990 H   0  0  0  0  0  0  0  0  0  0  0  0
   46.9720   73.2460   57.3430 H   0  0  0  0  0  0  0  0  0  0  0  0
   45.6400   75.3030   56.8060 H   0  0  0  0  0  0  0  0  0  0  0  0
   43.2570   75.3890   57.4800 H   0  0  0  0  0  0  0  0  0  0  0  0
   41.5400   73.5610   58.7980 S   0  0  0  0  0  0  0  0  0  0  0  0
   40.9740   74.8890   58.3480 O   0  0  0  0  0  0  0  0  0  0  0  0
   41.4870   73.7620   60.3190 O   0  0  0  0  0  0  0  0  0  0  0  0
   40.4150   72.4310   58.2150 C   0  0  0  0  0  3  0  0  0  0  0  0
   40.6340   72.2000   56.7060 C   0  0  0  0  0  2  0  0  0  0  0  0
   39.2560   72.0100   56.1120 C   0  0  0  0  0  2  0  0  0  0  0  0
   38.2860   72.2060   57.2770 C   0  0  0  0  0  2  0  0  0  0  0  0
   39.0670   73.1780   58.1200 C   0  0  0  0  0  2  0  0  0  0  0  0
  1  2  1  0  0  0  0
  2  3  2  0  0  0  0
  2  9  1  0  0  0  0
  3  8  1  0  0  0  0
  4  3  1  0  0  0  0
  5  4  2  0  0  0  0
  6  5  1  0  0  0  0
  6  1  2  0  0  0  0
  7  1  1  0  0  0  0
  9 15  1  0  0  0  0
 10  9  1  0  0  0  0
 10 11  2  0  0  0  0
 11 12  1  0  0  0  0
 12 14  1  0  0  0  0
 12 13  2  0  0  0  0
 14 19  1  0  0  0  0
 15 16  2  0  0  0  0
 15 14  1  0  0  0  0
 17 10  1  0  0  0  0
 18 11  1  0  0  0  0
 20 21  1  0  0  0  0
 20 30  1  0  0  0  0
 21  5  1  0  0  0  0
 22 26  1  0  0  0  0
 22 21  2  0  0  0  0
 23 22  1  0  0  0  0
 24 23  2  0  0  0  0
 24 25  1  0  0  0  0
 25 20  2  0  0  0  0
 27 23  1  0  0  0  0
 28 24  1  0  0  0  0
 29 25  1  0  0  0  0
 30 32  2  0  0  0  0
 31 30  2  0  0  0  0
 33 30  1  0  0  0  0
 34 33  1  0  0  0  0
 35 34  1  0  0  0  0
 35 36  1  0  0  0  0
 36 37  1  0  0  0  0
 37 33  1  0  0  0  0
M  END
>  <minimizedAffinity>
-6.13209581

$$$$

 OpenBabel03212520333D

 37 40  0  0  0  0  0  0  0  0999 V2000
   39.4760   71.6150   56.6190 C   0  0  0  0  0  0  0  0  0  0  0  0
   40.3240   72.2550   55.7370 C   0  0  0  0  0  0  0  0  0  0  0  0
   41.4850   72.8660   56.2820 C   0  0  0  0  0  0  0  0  0  0  0  0
   41.6690   72.7710   57.6230 N   0  0  0  0  0  0  0  0  0  0  0  0
   40.8470   72.1550   58.4400 C   0  0  0  0  0  0  0  0  0  0  0  0
   39.7440   71.5760   57.9280 N   0  0  0  0  0  0  0  0  0  0  0  0
   38.5780   71.1390   56.2240 H   0  0  0  0  0  0  0  0  0  0  0  0
   42.1520   73.3660   55.6080 H   0  0  0  0  0  0  0  0  0  0  0  0
   40.0470   72.3020   54.3480 N   0  0  0  0  0  0  0  0  0  0  0  0
   40.4710   71.2290   53.6810 C   0  0  0  0  0  0  0  0  0  0  0  0
   40.2330   71.1950   52.3010 C   0  0  0  0  0  0  0  0  0  0  0  0
   39.5750   72.2590   51.6820 C   0  0  0  0  0  0  0  0  0  0  0  0
   39.3430   72.2660   50.4550 O   0  0  0  0  0  0  0  0  0  0  0  0
   39.1780   73.3140   52.4390 N   0  0  0  0  0  0  0  0  0  0  0  0
   39.4050   73.3540   53.7810 C   0  0  0  0  0  0  0  0  0  0  0  0
   39.0440   74.3150   54.4790 O   0  0  0  0  0  0  0  0  0  0  0  0
   40.9750   70.3970   54.1100 H   0  0  0  0  0  0  0  0  0  0  0  0
   40.5590   70.3460   51.7210 H   0  0  0  0  0  0  0  0  0  0  0  0
   38.6890   74.1100   51.9920 H   0  0  0  0  0  0  0  0  0  0  0  0
   40.6980   73.1140   60.7150 C   0  0  0  0  0  0  0  0  0  0  0  0
   41.1780   72.1520   59.8570 C   0  0  0  0  0  0  0  0  0  0  0  0
   41.9640   71.1250   60.3310 C   0  0  0  0  0  0  0  0  0  0  0  0
   42.3140   70.9980   61.6770 C   0  0  0  0  0  0  0  0  0  0  0  0
   41.8390   71.9590   62.5520 C   0  0  0  0  0  0  0  0  0  0  0  0
   41.0580   72.9770   62.0680 C   0  0  0  0  0  0  0  0  0  0  0  0
   42.3360   70.3720   59.6390 H   0  0  0  0  0  0  0  0  0  0  0  0
   42.9340   70.1670   61.9750 H   0  0  0  0  0  0  0  0  0  0  0  0
   42.0920   71.8880   63.5960 H   0  0  0  0  0  0  0  0  0  0  0  0
   40.6780   73.7360   62.7440 H   0  0  0  0  0  0  0  0  0  0  0  0
   39.7310   74.4330   60.1670 S   0  0  0  0  0  0  0  0  0  0  0  0
   39.1180   75.1450   61.3520 O   0  0  0  0  0  0  0  0  0  0  0  0
   38.4640   73.8220   59.5510 O   0  0  0  0  0  0  0  0  0  0  0  0
   40.4010   75.6940   59.2480 C   0  0  0  0  0  3  0  0  0  0  0  0
   41.9250   75.7620   59.4810 C   0  0  0  0  0  2  0  0  0  0  0  0
   42.2810   77.2320   59.4610 C   0  0  0  0  0  2  0  0  0  0  0  0
   40.9500   77.9660   59.2880 C   0  0  0  0  0  2  0  0  0  0  0  0
   40.0190   77.0030   59.9730 C   0  0  0  0  0  2  0  0  0  0  0  0
  1  6  1  0  0  0  0
  2  3  1  0  0  0  0
  2  1  2  0  0  0  0
  3  4  2  0  0  0  0
  4  5  1  0  0  0  0
  5 21  1  0  0  0  0
  6  5  2  0  0  0  0
  7  1  1  0  0  0  0
  8  3  1  0  0  0  0
  9  2  1  0  0  0  0
 10 17  1  0  0  0  0
 10  9  1  0  0  0  0
 11 10  2  0  0  0  0
 12 11  1  0  0  0  0
 12 14  1  0  0  0  0
 13 12  2  0  0  0  0
 14 15  1  0  0  0  0
 15  9  1  0  0  0  0
 15 16  2  0  0  0  0
 18 11  1  0  0  0  0
 19 14  1  0  0  0  0
 20 25  1  0  0  0  0
 21 22  1  0  0  0  0
 21 20  2  0  0  0  0
 22 23  2  0  0  0  0
 23 27  1  0  0  0  0
 23 24  1  0  0  0  0
 24 28  1  0  0  0  0
 25 24  2  0  0  0  0
 25 29  1  0  0  0  0
 26 22  1  0  0  0  0
 30 20  1  0  0  0  0
 30 31  2  0  0  0  0
 32 30  2  0  0  0  0
 33 34  1  0  0  0  0
 33 37  1  0  0  0  0
 33 30  1  0  0  0  0
 35 34  1  0  0  0  0
 36 35  1  0  0  0  0
 36 37  1  0  0  0  0
M  END
>  <minimizedAffinity>
-6.12773371

$$$$

 OpenBabel03212520333D

 37 40  0  0  0  0  0  0  0  0999 V2000
   37.9540   73.5050   57.0080 C   0  0  0  0  0  0  0  0  0  0  0  0
   38.6030   74.4240   56.2080 C   0  0  0  0  0  0  0  0  0  0  0  0
   40.0140   74.3010   56.0910 C   0  0  0  0  0  0  0  0  0  0  0  0
   40.6100   73.2910   56.7740 N   0  0  0  0  0  0  0  0  0  0  0  0
   39.9690   72.4290   57.5290 C   0  0  0  0  0  0  0  0  0  0  0  0
   38.6320   72.5420   57.6430 N   0  0  0  0  0  0  0  0  0  0  0  0
   36.8710   73.5790   57.1130 H   0  0  0  0  0  0  0  0  0  0  0  0
   40.5300   75.0080   55.4730 H   0  0  0  0  0  0  0  0  0  0  0  0
   37.8930   75.4470   55.5330 N   0  0  0  0  0  0  0  0  0  0  0  0
   37.6410   75.1690   54.2530 C   0  0  0  0  0  0  0  0  0  0  0  0
   36.9390   76.1300   53.5140 C   0  0  0  0  0  0  0  0  0  0  0  0
   36.5330   77.3180   54.1240 C   0  0  0  0  0  0  0  0  0  0  0  0
   35.9040   78.1980   53.5000 O   0  0  0  0  0  0  0  0  0  0  0  0
   36.8330   77.5180   55.4330 N   0  0  0  0  0  0  0  0  0  0  0  0
   37.5150   76.5900   56.1590 C   0  0  0  0  0  0  0  0  0  0  0  0
   37.7910   76.7660   57.3560 O   0  0  0  0  0  0  0  0  0  0  0  0
   37.9300   74.2800   53.7480 H   0  0  0  0  0  0  0  0  0  0  0  0
   36.7130   75.9480   52.4740 H   0  0  0  0  0  0  0  0  0  0  0  0
   36.5380   78.3960   55.8970 H   0  0  0  0  0  0  0  0  0  0  0  0
   41.1450   71.5490   59.5190 C   0  0  0  0  0  0  0  0  0  0  0  0
   40.7540   71.4090   58.2070 C   0  0  0  0  0  0  0  0  0  0  0  0
   41.0680   70.2660   57.5040 C   0  0  0  0  0  0  0  0  0  0  0  0
   41.7840   69.2060   58.0650 C   0  0  0  0  0  0  0  0  0  0  0  0
   42.1840   69.3330   59.3830 C   0  0  0  0  0  0  0  0  0  0  0  0
   41.8660   70.4750   60.0720 C   0  0  0  0  0  0  0  0  0  0  0  0
   40.7520   70.1710   56.4680 H   0  0  0  0  0  0  0  0  0  0  0  0
   41.9930   68.3420   57.4530 H   0  0  0  0  0  0  0  0  0  0  0  0
   42.7370   68.5320   59.8420 H   0  0  0  0  0  0  0  0  0  0  0  0
   42.1730   70.5870   61.1060 H   0  0  0  0  0  0  0  0  0  0  0  0
   40.7980   72.9710   60.4330 S   0  0  0  0  0  0  0  0  0  0  0  0
   40.8550   72.6540   61.9110 O   0  0  0  0  0  0  0  0  0  0  0  0
   39.2920   73.2310   60.2840 O   0  0  0  0  0  0  0  0  0  0  0  0
   41.7550   74.3660   60.2880 C   0  0  0  0  0  3  0  0  0  0  0  0
   41.0230   75.4190   59.4300 C   0  0  0  0  0  2  0  0  0  0  0  0
   42.0970   76.1110   58.6200 C   0  0  0  0  0  2  0  0  0  0  0  0
   43.3980   75.3930   58.9800 C   0  0  0  0  0  2  0  0  0  0  0  0
   42.8730   74.0160   59.2810 C   0  0  0  0  0  2  0  0  0  0  0  0
  1  7  1  0  0  0  0
  1  6  1  0  0  0  0
  2  1  2  0  0  0  0
  3  2  1  0  0  0  0
  3  4  2  0  0  0  0
  4  5  1  0  0  0  0
  5  6  2  0  0  0  0
  5 21  1  0  0  0  0
  8  3  1  0  0  0  0
  9 15  1  0  0  0  0
  9  2  1  0  0  0  0
 10  9  1  0  0  0  0
 11 12  1  0  0  0  0
 11 10  2  0  0  0  0
 12 14  1  0  0  0  0
 13 12  2  0  0  0  0
 14 19  1  0  0  0  0
 14 15  1  0  0  0  0
 15 16  2  0  0  0  0
 17 10  1  0  0  0  0
 18 11  1  0  0  0  0
 20 25  1  0  0  0  0
 20 30  1  0  0  0  0
 21 20  2  0  0  0  0
 22 23  2  0  0  0  0
 22 21  1  0  0  0  0
 23 24  1  0  0  0  0
 24 28  1  0  0  0  0
 24 25  2  0  0  0  0
 25 29  1  0  0  0  0
 26 22  1  0  0  0  0
 27 23  1  0  0  0  0
 30 31  2  0  0  0  0
 32 30  2  0  0  0  0
 33 30  1  0  0  0  0
 34 33  1  0  0  0  0
 35 36  1  0  0  0  0
 35 34  1  0  0  0  0
 36 37  1  0  0  0  0
 37 33  1  0  0  0  0
M  END
>  <minimizedAffinity>
-6.02015162

$$$$
