
 OpenBabel03212520313D

 37 40  0  0  0  0  0  0  0  0999 V2000
   40.3790   78.9050   58.7940 C   0  0  0  0  0  0  0  0  0  0  0  0
   40.5160   79.5620   57.5870 C   0  0  0  0  0  0  0  0  0  0  0  0
   41.6680   80.3770   57.4200 C   0  0  0  0  0  0  0  0  0  0  0  0
   42.5400   80.4450   58.4580 N   0  0  0  0  0  0  0  0  0  0  0  0
   42.3870   79.8090   59.5960 C   0  0  0  0  0  0  0  0  0  0  0  0
   41.2970   79.0360   59.7590 N   0  0  0  0  0  0  0  0  0  0  0  0
   39.5040   78.2720   58.9460 H   0  0  0  0  0  0  0  0  0  0  0  0
   41.7860   80.8930   56.4880 H   0  0  0  0  0  0  0  0  0  0  0  0
   39.5500   79.4290   56.5600 N   0  0  0  0  0  0  0  0  0  0  0  0
   38.6250   80.3900   56.5690 C   0  0  0  0  0  0  0  0  0  0  0  0
   37.6320   80.3330   55.5820 C   0  0  0  0  0  0  0  0  0  0  0  0
   37.6420   79.3000   54.6430 C   0  0  0  0  0  0  0  0  0  0  0  0
   36.7760   79.2160   53.7480 O   0  0  0  0  0  0  0  0  0  0  0  0
   38.6220   78.3630   54.7100 N   0  0  0  0  0  0  0  0  0  0  0  0
   39.5910   78.4110   55.6650 C   0  0  0  0  0  0  0  0  0  0  0  0
   40.4890   77.5580   55.7310 O   0  0  0  0  0  0  0  0  0  0  0  0
   38.5790   81.1940   57.2630 H   0  0  0  0  0  0  0  0  0  0  0  0
   36.8630   81.0900   55.5510 H   0  0  0  0  0  0  0  0  0  0  0  0
   38.6400   77.5910   54.0190 H   0  0  0  0  0  0  0  0  0  0  0  0
   43.2240   80.8560   61.6740 C   0  0  0  0  0  0  0  0  0  0  0  0
   43.4060   79.9940   60.6170 C   0  0  0  0  0  0  0  0  0  0  0  0
   44.5590   79.2470   60.5180 C   0  0  0  0  0  0  0  0  0  0  0  0
   45.5880   79.3140   61.4600 C   0  0  0  0  0  0  0  0  0  0  0  0
   45.4190   80.1770   62.5280 C   0  0  0  0  0  0  0  0  0  0  0  0
   44.2670   80.9160   62.6150 C   0  0  0  0  0  0  0  0  0  0  0  0
   44.6880   78.5710   59.6760 H   0  0  0  0  0  0  0  0  0  0  0  0
   46.4620   78.6980   61.3160 H   0  0  0  0  0  0  0  0  0  0  0  0
   46.1950   80.2500   63.2700 H   0  0  0  0  0  0  0  0  0  0  0  0
   44.1220   81.5960   63.4480 H   0  0  0  0  0  0  0  0  0  0  0  0
   41.8090   81.8320   61.8300 S   0  0  0  0  0  0  0  0  0  0  0  0
   41.8900   82.6500   63.0990 O   0  0  0  0  0  0  0  0  0  0  0  0
   40.6620   80.8840   62.2070 O   0  0  0  0  0  0  0  0  0  0  0  0
   41.3950   82.9750   60.6450 C   0  0  0  0  0  3  0  0  0  0  0  0
   40.8570   84.2570   61.3150 C   0  0  0  0  0  2  0  0  0  0  0  0
   39.7570   84.7660   60.4100 C   0  0  0  0  0  2  0  0  0  0  0  0
   39.6480   83.7320   59.2900 C   0  0  0  0  0  2  0  0  0  0  0  0
   40.0660   82.4890   60.0260 C   0  0  0  0  0  2  0  0  0  0  0  0
  1  7  1  0  0  0  0
  1  6  1  0  0  0  0
  2  1  2  0  0  0  0
  3  2  1  0  0  0  0
  3  4  2  0  0  0  0
  4  5  1  0  0  0  0
  5  6  2  0  0  0  0
  5 21  1  0  0  0  0
  8  3  1  0  0  0  0
  9 10  1  0  0  0  0
  9  2  1  0  0  0  0
 10 17  1  0  0  0  0
 11 10  2  0  0  0  0
 12 14  1  0  0  0  0
 12 11  1  0  0  0  0
 13 12  2  0  0  0  0
 14 15  1  0  0  0  0
 15 16  2  0  0  0  0
 15  9  1  0  0  0  0
 18 11  1  0  0  0  0
 19 14  1  0  0  0  0
 20 30  1  0  0  0  0
 20 25  1  0  0  0  0
 21 20  2  0  0  0  0
 22 21  1  0  0  0  0
 22 23  2  0  0  0  0
 23 24  1  0  0  0  0
 24 25  2  0  0  0  0
 24 28  1  0  0  0  0
 25 29  1  0  0  0  0
 26 22  1  0  0  0  0
 27 23  1  0  0  0  0
 30 32  2  0  0  0  0
 30 31  2  0  0  0  0
 33 34  1  0  0  0  0
 33 30  1  0  0  0  0
 35 34  1  0  0  0  0
 36 37  1  0  0  0  0
 36 35  1  0  0  0  0
 37 33  1  0  0  0  0
M  END
>  <minimizedAffinity>
-5.21959114

>  <minimizedRMSD>
2.07957673

$$$$
