
 OpenBabel03212520563D

 31 34  0  0  0  0  0  0  0  0999 V2000
   40.9090   80.2570   61.7350 C   0  0  0  0  0  0  0  0  0  0  0  0
   40.8420   79.0440   62.3920 C   0  0  0  0  0  0  0  0  0  0  0  0
   40.4810   77.9560   61.6860 C   0  0  0  0  0  0  0  0  0  0  0  0
   40.1900   78.0850   60.3360 C   0  0  0  0  0  0  0  0  0  0  0  0
   40.4450   79.8930   60.0230 S   0  0  0  0  0  0  0  0  0  0  0  0
   41.0720   78.9430   63.4580 H   0  0  0  0  0  0  0  0  0  0  0  0
   40.3730   76.9320   62.0200 H   0  0  0  0  0  0  0  0  0  0  0  0
   42.9590   83.0920   62.8350 C   0  0  0  0  0  0  0  0  0  0  0  0
   42.0530   83.8820   63.5720 C   0  0  0  0  0  0  0  0  0  0  0  0
   40.7500   83.4360   63.6830 C   0  0  0  0  0  0  0  0  0  0  0  0
   40.4100   82.2710   63.0850 N   0  0  0  0  0  0  0  0  0  0  0  0
   41.2960   81.5380   62.3890 C   0  0  0  0  0  0  0  0  0  0  0  0
   42.5520   81.9420   62.2650 N   0  0  0  0  0  0  0  0  0  0  0  0
   43.9820   83.4370   62.7440 H   0  0  0  0  0  0  0  0  0  0  0  0
   42.3260   84.8040   64.0440 H   0  0  0  0  0  0  0  0  0  0  0  0
   39.9690   83.9540   64.2210 H   0  0  0  0  0  0  0  0  0  0  0  0
   39.7820   77.2040   59.2750 C   0  0  0  0  0  0  0  0  0  0  0  0
   40.4150   76.0140   59.1100 C   0  0  0  0  0  0  0  0  0  0  0  0
   39.8990   75.2710   58.0360 C   0  0  0  0  0  0  0  0  0  0  0  0
   38.8870   75.6760   57.2420 N   0  0  0  0  0  0  0  0  0  0  0  0
   38.3220   76.8780   57.4870 C   0  0  0  0  0  0  0  0  0  0  0  0
   38.7670   77.6560   58.5110 N   0  0  0  0  0  0  0  0  0  0  0  0
   41.2190   75.6390   59.7040 H   0  0  0  0  0  0  0  0  0  0  0  0
   40.3130   74.2870   57.7810 H   0  0  0  0  0  0  0  0  0  0  0  0
   37.2320   77.3070   56.6290 C   0  0  0  0  0  0  0  0  0  0  0  0
   36.0510   77.0730   57.0230 O   0  0  0  0  0  0  0  0  0  0  0  0
   37.5700   77.9890   55.3550 C   0  0  0  0  0  3  0  0  0  0  0  0
   37.3310   79.4690   55.4140 C   0  0  0  0  0  2  0  0  0  0  0  0
   37.4740   79.8310   53.9340 C   0  0  0  0  0  2  0  0  0  0  0  0
   36.8430   78.6470   53.2130 C   0  0  0  0  0  2  0  0  0  0  0  0
   36.6310   77.5640   54.2340 C   0  0  0  0  0  2  0  0  0  0  0  0
  1 12  1  0  0  0  0
  1  2  2  0  0  0  0
  2  6  1  0  0  0  0
  3  7  1  0  0  0  0
  3  2  1  0  0  0  0
  4  3  2  0  0  0  0
  5  4  1  0  0  0  0
  5  1  1  0  0  0  0
  8  9  1  0  0  0  0
  9 10  2  0  0  0  0
  9 15  1  0  0  0  0
 10 16  1  0  0  0  0
 11 10  1  0  0  0  0
 12 11  2  0  0  0  0
 13 12  1  0  0  0  0
 13  8  2  0  0  0  0
 14  8  1  0  0  0  0
 17  4  1  0  0  0  0
 18 17  1  0  0  0  0
 18 23  1  0  0  0  0
 19 18  2  0  0  0  0
 20 21  2  0  0  0  0
 20 19  1  0  0  0  0
 21 22  1  0  0  0  0
 22 17  2  0  0  0  0
 24 19  1  0  0  0  0
 25 26  2  0  0  0  0
 25 21  1  0  0  0  0
 27 28  1  0  0  0  0
 27 25  1  0  0  0  0
 29 28  1  0  0  0  0
 30 29  1  0  0  0  0
 30 31  1  0  0  0  0
 31 27  1  0  0  0  0
M  END
>  <minimizedAffinity>
-6.5514183

>  <minimizedRMSD>
0.289040804

$$$$
