
 OpenBabel03212520563D

 31 34  0  0  0  0  0  0  0  0999 V2000
   40.9740   80.2360   61.7400 C   0  0  0  0  0  0  0  0  0  0  0  0
   40.9800   79.0050   62.3660 C   0  0  0  0  0  0  0  0  0  0  0  0
   40.5960   77.9270   61.6570 C   0  0  0  0  0  0  0  0  0  0  0  0
   40.2110   78.0850   60.3340 C   0  0  0  0  0  0  0  0  0  0  0  0
   40.4020   79.9060   60.0540 S   0  0  0  0  0  0  0  0  0  0  0  0
   41.2840   78.8820   63.4110 H   0  0  0  0  0  0  0  0  0  0  0  0
   40.5340   76.8920   61.9690 H   0  0  0  0  0  0  0  0  0  0  0  0
   43.0390   83.0740   62.8050 C   0  0  0  0  0  0  0  0  0  0  0  0
   42.1580   83.8390   63.5960 C   0  0  0  0  0  0  0  0  0  0  0  0
   40.8660   83.3750   63.7560 C   0  0  0  0  0  0  0  0  0  0  0  0
   40.5130   82.2180   63.1500 N   0  0  0  0  0  0  0  0  0  0  0  0
   41.3750   81.5090   62.4020 C   0  0  0  0  0  0  0  0  0  0  0  0
   42.6200   81.9300   62.2310 N   0  0  0  0  0  0  0  0  0  0  0  0
   44.0530   83.4330   62.6760 H   0  0  0  0  0  0  0  0  0  0  0  0
   42.4410   84.7540   64.0740 H   0  0  0  0  0  0  0  0  0  0  0  0
   40.1040   83.8740   64.3380 H   0  0  0  0  0  0  0  0  0  0  0  0
   39.7510   77.2210   59.2790 C   0  0  0  0  0  0  0  0  0  0  0  0
   40.4190   76.0680   59.0160 C   0  0  0  0  0  0  0  0  0  0  0  0
   39.8450   75.3390   57.9620 C   0  0  0  0  0  0  0  0  0  0  0  0
   38.7510   75.7230   57.2730 N   0  0  0  0  0  0  0  0  0  0  0  0
   38.1570   76.8880   57.6100 C   0  0  0  0  0  0  0  0  0  0  0  0
   38.6550   77.6510   58.6210 N   0  0  0  0  0  0  0  0  0  0  0  0
   41.2870   75.7120   59.5260 H   0  0  0  0  0  0  0  0  0  0  0  0
   40.2770   74.3840   57.6370 H   0  0  0  0  0  0  0  0  0  0  0  0
   36.9800   77.2950   56.8650 C   0  0  0  0  0  0  0  0  0  0  0  0
   35.8670   76.7970   57.2120 O   0  0  0  0  0  0  0  0  0  0  0  0
   37.1540   78.2610   55.7530 C   0  0  0  0  0  3  0  0  0  0  0  0
   38.5080   78.1640   55.1130 C   0  0  0  0  0  2  0  0  0  0  0  0
   38.4960   79.4240   54.2460 C   0  0  0  0  0  2  0  0  0  0  0  0
   37.7600   80.4440   55.1070 C   0  0  0  0  0  2  0  0  0  0  0  0
   37.1480   79.6980   56.2590 C   0  0  0  0  0  2  0  0  0  0  0  0
  1  2  2  0  0  0  0
  1 12  1  0  0  0  0
  2  6  1  0  0  0  0
  3  7  1  0  0  0  0
  3  2  1  0  0  0  0
  4  3  2  0  0  0  0
  5  4  1  0  0  0  0
  5  1  1  0  0  0  0
  8  9  1  0  0  0  0
  9 10  2  0  0  0  0
  9 15  1  0  0  0  0
 10 16  1  0  0  0  0
 11 10  1  0  0  0  0
 12 11  2  0  0  0  0
 13 12  1  0  0  0  0
 13  8  2  0  0  0  0
 14  8  1  0  0  0  0
 17  4  1  0  0  0  0
 18 17  1  0  0  0  0
 18 23  1  0  0  0  0
 19 18  2  0  0  0  0
 20 21  2  0  0  0  0
 20 19  1  0  0  0  0
 21 22  1  0  0  0  0
 22 17  2  0  0  0  0
 24 19  1  0  0  0  0
 25 26  2  0  0  0  0
 25 21  1  0  0  0  0
 27 31  1  0  0  0  0
 27 25  1  0  0  0  0
 28 27  1  0  0  0  0
 29 30  1  0  0  0  0
 29 28  1  0  0  0  0
 30 31  1  0  0  0  0
M  END
>  <minimizedAffinity>
-6.2486372

>  <minimizedRMSD>
0.780429959

$$$$
