
 OpenBabel03212520413D

 23 25  0  0  1  0  0  0  0  0999 V2000
   42.0940   85.2990   59.6450 C   0  0  1  0  0  0  0  0  0  0  0  0
   43.0750   85.9960   58.7110 C   0  0  0  0  0  0  0  0  0  0  0  0
   42.5320   84.6080   58.4220 C   0  0  1  0  0  0  0  0  0  0  0  0
   41.1380   85.8690   59.7210 H   0  0  0  0  0  0  0  0  0  0  0  0
   42.7140   86.8000   58.0350 H   0  0  0  0  0  0  0  0  0  0  0  0
   44.1410   85.9930   58.9410 H   0  0  0  0  0  0  0  0  0  0  0  0
   41.7700   84.5280   57.6120 H   0  0  0  0  0  0  0  0  0  0  0  0
   42.6980   84.9550   60.8850 O   0  0  0  0  0  0  0  0  0  0  0  0
   40.0790   83.4820   62.8990 C   0  0  0  0  0  0  0  0  0  0  0  0
   40.5740   83.6740   64.1930 C   0  0  0  0  0  0  0  0  0  0  0  0
   41.8250   84.3190   64.3380 C   0  0  0  0  0  0  0  0  0  0  0  0
   42.4370   84.6990   63.1870 N   0  0  0  0  0  0  0  0  0  0  0  0
   41.9530   84.5100   61.9480 C   0  0  0  0  0  0  0  0  0  0  0  0
   40.7810   83.9060   61.7890 N   0  0  0  0  0  0  0  0  0  0  0  0
   39.1230   82.9900   62.7580 H   0  0  0  0  0  0  0  0  0  0  0  0
   40.0450   83.3520   65.0600 H   0  0  0  0  0  0  0  0  0  0  0  0
   42.2740   84.5040   65.3030 H   0  0  0  0  0  0  0  0  0  0  0  0
   43.3810   83.5060   58.5950 O   0  0  0  0  0  0  0  0  0  0  0  0
   43.0890   82.5980   57.5550 C   0  0  0  0  0  3  0  0  0  0  0  0
   41.8950   83.0730   56.7290 C   0  0  0  0  0  2  0  0  0  0  0  0
   41.1230   81.8360   56.3860 C   0  0  0  0  0  2  0  0  0  0  0  0
   41.8350   80.6530   56.9800 C   0  0  0  0  0  2  0  0  0  0  0  0
   42.6310   81.2750   58.1000 C   0  0  0  0  0  2  0  0  0  0  0  0
  1  4  1  1  0  0  0
  1  8  1  0  0  0  0
  2  6  1  0  0  0  0
  2  1  1  0  0  0  0
  3  7  1  6  0  0  0
  3 18  1  0  0  0  0
  3  2  1  0  0  0  0
  3  1  1  0  0  0  0
  5  2  1  0  0  0  0
  8 13  1  0  0  0  0
  9 10  1  0  0  0  0
 10 11  2  0  0  0  0
 10 16  1  0  0  0  0
 11 17  1  0  0  0  0
 12 11  1  0  0  0  0
 13 12  2  0  0  0  0
 14 13  1  0  0  0  0
 14  9  2  0  0  0  0
 15  9  1  0  0  0  0
 19 23  1  0  0  0  0
 19 18  1  0  0  0  0
 20 19  1  0  0  0  0
 21 20  1  0  0  0  0
 21 22  1  0  0  0  0
 22 23  1  0  0  0  0
M  END
>  <minimizedAffinity>
-3.70504928

>  <minimizedRMSD>
1.45696008

$$$$
