
 OpenBabel03212520563D

 31 34  0  0  0  0  0  0  0  0999 V2000
   40.9330   80.1430   61.8970 C   0  0  0  0  0  0  0  0  0  0  0  0
   40.8360   78.9930   62.6550 C   0  0  0  0  0  0  0  0  0  0  0  0
   40.4410   77.8590   62.0470 C   0  0  0  0  0  0  0  0  0  0  0  0
   40.1470   77.8810   60.6910 C   0  0  0  0  0  0  0  0  0  0  0  0
   40.4490   79.6480   60.2240 S   0  0  0  0  0  0  0  0  0  0  0  0
   41.0690   78.9770   63.7250 H   0  0  0  0  0  0  0  0  0  0  0  0
   40.3070   76.8710   62.4660 H   0  0  0  0  0  0  0  0  0  0  0  0
   43.0250   83.0670   62.6230 C   0  0  0  0  0  0  0  0  0  0  0  0
   42.1840   83.8820   63.4090 C   0  0  0  0  0  0  0  0  0  0  0  0
   40.9100   83.4220   63.6820 C   0  0  0  0  0  0  0  0  0  0  0  0
   40.5350   82.2200   63.1840 N   0  0  0  0  0  0  0  0  0  0  0  0
   41.3590   81.4640   62.4380 C   0  0  0  0  0  0  0  0  0  0  0  0
   42.5860   81.8810   62.1610 N   0  0  0  0  0  0  0  0  0  0  0  0
   44.0250   83.4230   62.4070 H   0  0  0  0  0  0  0  0  0  0  0  0
   42.4850   84.8320   63.8010 H   0  0  0  0  0  0  0  0  0  0  0  0
   40.1790   83.9560   64.2710 H   0  0  0  0  0  0  0  0  0  0  0  0
   39.7080   76.9240   59.7100 C   0  0  0  0  0  0  0  0  0  0  0  0
   40.1720   75.6490   59.7630 C   0  0  0  0  0  0  0  0  0  0  0  0
   39.6500   74.8410   58.7410 C   0  0  0  0  0  0  0  0  0  0  0  0
   38.7820   75.2640   57.7990 N   0  0  0  0  0  0  0  0  0  0  0  0
   38.3790   76.5530   57.8310 C   0  0  0  0  0  0  0  0  0  0  0  0
   38.8430   77.3980   58.7930 N   0  0  0  0  0  0  0  0  0  0  0  0
   40.8580   75.2560   60.4820 H   0  0  0  0  0  0  0  0  0  0  0  0
   39.9350   73.7840   58.6570 H   0  0  0  0  0  0  0  0  0  0  0  0
   37.4450   77.0010   56.8150 C   0  0  0  0  0  0  0  0  0  0  0  0
   36.2270   77.1120   57.1490 O   0  0  0  0  0  0  0  0  0  0  0  0
   37.9710   77.3010   55.4620 C   0  0  0  0  0  3  0  0  0  0  0  0
   37.1710   78.3550   54.7530 C   0  0  0  0  0  2  0  0  0  0  0  0
   37.7440   78.2350   53.3400 C   0  0  0  0  0  2  0  0  0  0  0  0
   37.9760   76.7380   53.1740 C   0  0  0  0  0  2  0  0  0  0  0  0
   37.8130   76.1080   54.5290 C   0  0  0  0  0  2  0  0  0  0  0  0
  1 12  1  0  0  0  0
  1  2  2  0  0  0  0
  2  6  1  0  0  0  0
  3  7  1  0  0  0  0
  3  2  1  0  0  0  0
  4  3  2  0  0  0  0
  5  4  1  0  0  0  0
  5  1  1  0  0  0  0
  8  9  1  0  0  0  0
  9 10  2  0  0  0  0
  9 15  1  0  0  0  0
 10 16  1  0  0  0  0
 11 10  1  0  0  0  0
 12 11  2  0  0  0  0
 13 12  1  0  0  0  0
 13  8  2  0  0  0  0
 14  8  1  0  0  0  0
 17 18  1  0  0  0  0
 17  4  1  0  0  0  0
 18 23  1  0  0  0  0
 19 18  2  0  0  0  0
 20 21  2  0  0  0  0
 20 19  1  0  0  0  0
 21 22  1  0  0  0  0
 22 17  2  0  0  0  0
 24 19  1  0  0  0  0
 25 26  2  0  0  0  0
 25 21  1  0  0  0  0
 27 25  1  0  0  0  0
 28 27  1  0  0  0  0
 29 28  1  0  0  0  0
 30 29  1  0  0  0  0
 30 31  1  0  0  0  0
 31 27  1  0  0  0  0
M  END
>  <minimizedAffinity>
-5.9370079

>  <minimizedRMSD>
0.532077074

$$$$
