
 OpenBabel03212520563D

 31 34  0  0  0  0  0  0  0  0999 V2000
   40.9610   80.1210   61.6310 C   0  0  0  0  0  0  0  0  0  0  0  0
   40.9510   78.8890   62.2530 C   0  0  0  0  0  0  0  0  0  0  0  0
   40.5330   77.8210   61.5480 C   0  0  0  0  0  0  0  0  0  0  0  0
   40.1290   77.9910   60.2310 C   0  0  0  0  0  0  0  0  0  0  0  0
   40.3530   79.8080   59.9540 S   0  0  0  0  0  0  0  0  0  0  0  0
   41.2710   78.7570   63.2920 H   0  0  0  0  0  0  0  0  0  0  0  0
   40.4550   76.7870   61.8570 H   0  0  0  0  0  0  0  0  0  0  0  0
   43.1130   82.8920   62.7010 C   0  0  0  0  0  0  0  0  0  0  0  0
   42.2510   83.6930   63.4780 C   0  0  0  0  0  0  0  0  0  0  0  0
   40.9420   83.2760   63.6260 C   0  0  0  0  0  0  0  0  0  0  0  0
   40.5550   82.1280   63.0230 N   0  0  0  0  0  0  0  0  0  0  0  0
   41.3990   81.3840   62.2890 C   0  0  0  0  0  0  0  0  0  0  0  0
   42.6600   81.7590   62.1290 N   0  0  0  0  0  0  0  0  0  0  0  0
   44.1410   83.2140   62.5820 H   0  0  0  0  0  0  0  0  0  0  0  0
   42.5620   84.6000   63.9530 H   0  0  0  0  0  0  0  0  0  0  0  0
   40.1910   83.8050   64.1960 H   0  0  0  0  0  0  0  0  0  0  0  0
   39.6340   77.1410   59.1820 C   0  0  0  0  0  0  0  0  0  0  0  0
   40.2410   75.9500   58.9400 C   0  0  0  0  0  0  0  0  0  0  0  0
   39.6390   75.2400   57.8890 C   0  0  0  0  0  0  0  0  0  0  0  0
   38.5740   75.6740   57.1840 N   0  0  0  0  0  0  0  0  0  0  0  0
   38.0410   76.8730   57.5010 C   0  0  0  0  0  0  0  0  0  0  0  0
   38.5700   77.6200   58.5080 N   0  0  0  0  0  0  0  0  0  0  0  0
   41.0840   75.5540   59.4630 H   0  0  0  0  0  0  0  0  0  0  0  0
   40.0220   74.2590   57.5800 H   0  0  0  0  0  0  0  0  0  0  0  0
   36.8950   77.3330   56.7380 C   0  0  0  0  0  0  0  0  0  0  0  0
   35.7430   77.0780   57.2010 O   0  0  0  0  0  0  0  0  0  0  0  0
   37.1440   78.0690   55.4740 C   0  0  0  0  0  3  0  0  0  0  0  0
   36.6370   77.3310   54.2700 C   0  0  0  0  0  2  0  0  0  0  0  0
   37.2770   78.1540   53.1510 C   0  0  0  0  0  2  0  0  0  0  0  0
   38.6440   78.5250   53.7160 C   0  0  0  0  0  2  0  0  0  0  0  0
   38.6330   78.1710   55.1760 C   0  0  0  0  0  2  0  0  0  0  0  0
  1  2  2  0  0  0  0
  1 12  1  0  0  0  0
  2  6  1  0  0  0  0
  3  7  1  0  0  0  0
  3  2  1  0  0  0  0
  4  3  2  0  0  0  0
  5  4  1  0  0  0  0
  5  1  1  0  0  0  0
  8  9  1  0  0  0  0
  9 10  2  0  0  0  0
  9 15  1  0  0  0  0
 10 16  1  0  0  0  0
 11 10  1  0  0  0  0
 12 11  2  0  0  0  0
 13 12  1  0  0  0  0
 13  8  2  0  0  0  0
 14  8  1  0  0  0  0
 17  4  1  0  0  0  0
 18 17  1  0  0  0  0
 18 23  1  0  0  0  0
 19 18  2  0  0  0  0
 20 21  2  0  0  0  0
 20 19  1  0  0  0  0
 21 22  1  0  0  0  0
 22 17  2  0  0  0  0
 24 19  1  0  0  0  0
 25 26  2  0  0  0  0
 25 21  1  0  0  0  0
 27 25  1  0  0  0  0
 28 27  1  0  0  0  0
 29 30  1  0  0  0  0
 29 28  1  0  0  0  0
 30 31  1  0  0  0  0
 31 27  1  0  0  0  0
M  END
>  <minimizedAffinity>
-6.21246576

>  <minimizedRMSD>
0.626214027

$$$$
