
 OpenBabel03212520563D

 31 34  0  0  0  0  0  0  0  0999 V2000
   40.9070   80.2560   61.7320 C   0  0  0  0  0  0  0  0  0  0  0  0
   40.8430   79.0430   62.3880 C   0  0  0  0  0  0  0  0  0  0  0  0
   40.4830   77.9540   61.6830 C   0  0  0  0  0  0  0  0  0  0  0  0
   40.1900   78.0840   60.3330 C   0  0  0  0  0  0  0  0  0  0  0  0
   40.4400   79.8920   60.0210 S   0  0  0  0  0  0  0  0  0  0  0  0
   41.0750   78.9420   63.4540 H   0  0  0  0  0  0  0  0  0  0  0  0
   40.3770   76.9300   62.0160 H   0  0  0  0  0  0  0  0  0  0  0  0
   42.9570   83.0900   62.8380 C   0  0  0  0  0  0  0  0  0  0  0  0
   42.0480   83.8830   63.5690 C   0  0  0  0  0  0  0  0  0  0  0  0
   40.7440   83.4380   63.6750 C   0  0  0  0  0  0  0  0  0  0  0  0
   40.4050   82.2730   63.0770 N   0  0  0  0  0  0  0  0  0  0  0  0
   41.2930   81.5370   62.3860 C   0  0  0  0  0  0  0  0  0  0  0  0
   42.5510   81.9390   62.2670 N   0  0  0  0  0  0  0  0  0  0  0  0
   43.9810   83.4330   62.7510 H   0  0  0  0  0  0  0  0  0  0  0  0
   42.3210   84.8040   64.0410 H   0  0  0  0  0  0  0  0  0  0  0  0
   39.9610   83.9580   64.2080 H   0  0  0  0  0  0  0  0  0  0  0  0
   39.7810   77.2020   59.2730 C   0  0  0  0  0  0  0  0  0  0  0  0
   40.4130   76.0120   59.1080 C   0  0  0  0  0  0  0  0  0  0  0  0
   39.8970   75.2690   58.0340 C   0  0  0  0  0  0  0  0  0  0  0  0
   38.8850   75.6740   57.2400 N   0  0  0  0  0  0  0  0  0  0  0  0
   38.3200   76.8770   57.4850 C   0  0  0  0  0  0  0  0  0  0  0  0
   38.7660   77.6540   58.5090 N   0  0  0  0  0  0  0  0  0  0  0  0
   41.2180   75.6370   59.7030 H   0  0  0  0  0  0  0  0  0  0  0  0
   40.3100   74.2840   57.7810 H   0  0  0  0  0  0  0  0  0  0  0  0
   37.2310   77.3060   56.6260 C   0  0  0  0  0  0  0  0  0  0  0  0
   36.0490   77.0710   57.0200 O   0  0  0  0  0  0  0  0  0  0  0  0
   37.5690   77.9880   55.3540 C   0  0  0  0  0  3  0  0  0  0  0  0
   37.3320   79.4690   55.4140 C   0  0  0  0  0  2  0  0  0  0  0  0
   37.4750   79.8320   53.9350 C   0  0  0  0  0  2  0  0  0  0  0  0
   36.8430   78.6500   53.2120 C   0  0  0  0  0  2  0  0  0  0  0  0
   36.6300   77.5650   54.2310 C   0  0  0  0  0  2  0  0  0  0  0  0
  1 12  1  0  0  0  0
  1  2  2  0  0  0  0
  2  6  1  0  0  0  0
  3  7  1  0  0  0  0
  3  2  1  0  0  0  0
  4  3  2  0  0  0  0
  5  4  1  0  0  0  0
  5  1  1  0  0  0  0
  8  9  1  0  0  0  0
  9 10  2  0  0  0  0
  9 15  1  0  0  0  0
 10 16  1  0  0  0  0
 11 10  1  0  0  0  0
 12 11  2  0  0  0  0
 13 12  1  0  0  0  0
 13  8  2  0  0  0  0
 14  8  1  0  0  0  0
 17  4  1  0  0  0  0
 18 17  1  0  0  0  0
 18 23  1  0  0  0  0
 19 18  2  0  0  0  0
 20 21  2  0  0  0  0
 20 19  1  0  0  0  0
 21 22  1  0  0  0  0
 22 17  2  0  0  0  0
 24 19  1  0  0  0  0
 25 26  2  0  0  0  0
 25 21  1  0  0  0  0
 27 28  1  0  0  0  0
 27 25  1  0  0  0  0
 29 28  1  0  0  0  0
 30 29  1  0  0  0  0
 30 31  1  0  0  0  0
 31 27  1  0  0  0  0
M  END
>  <minimizedAffinity>
-6.55350828

>  <minimizedRMSD>
0.63120538

$$$$
