
 OpenBabel03212520313D

 37 40  0  0  0  0  0  0  0  0999 V2000
   40.3120   79.5290   58.3940 C   0  0  0  0  0  0  0  0  0  0  0  0
   40.2860   80.4260   57.3450 C   0  0  0  0  0  0  0  0  0  0  0  0
   41.1550   81.5470   57.4300 C   0  0  0  0  0  0  0  0  0  0  0  0
   41.9400   81.6460   58.5320 N   0  0  0  0  0  0  0  0  0  0  0  0
   41.9460   80.7770   59.5160 C   0  0  0  0  0  0  0  0  0  0  0  0
   41.1230   79.7140   59.4410 N   0  0  0  0  0  0  0  0  0  0  0  0
   39.6540   78.6600   58.3520 H   0  0  0  0  0  0  0  0  0  0  0  0
   41.1450   82.2520   56.6220 H   0  0  0  0  0  0  0  0  0  0  0  0
   39.4290   80.2380   56.2330 N   0  0  0  0  0  0  0  0  0  0  0  0
   38.1340   80.3230   56.5350 C   0  0  0  0  0  0  0  0  0  0  0  0
   37.2180   80.1520   55.4880 C   0  0  0  0  0  0  0  0  0  0  0  0
   37.6780   79.9040   54.1940 C   0  0  0  0  0  0  0  0  0  0  0  0
   36.8950   79.7470   53.2350 O   0  0  0  0  0  0  0  0  0  0  0  0
   39.0170   79.8330   53.9770 N   0  0  0  0  0  0  0  0  0  0  0  0
   39.9130   79.9990   54.9880 C   0  0  0  0  0  0  0  0  0  0  0  0
   41.1380   79.9360   54.7960 O   0  0  0  0  0  0  0  0  0  0  0  0
   37.7380   80.5100   57.5040 H   0  0  0  0  0  0  0  0  0  0  0  0
   36.1590   80.2120   55.6870 H   0  0  0  0  0  0  0  0  0  0  0  0
   39.3710   79.6500   53.0210 H   0  0  0  0  0  0  0  0  0  0  0  0
   42.4410   81.7760   61.7240 C   0  0  0  0  0  0  0  0  0  0  0  0
   42.8380   81.0310   60.6370 C   0  0  0  0  0  0  0  0  0  0  0  0
   44.0940   80.4680   60.6000 C   0  0  0  0  0  0  0  0  0  0  0  0
   45.0200   80.6120   61.6350 C   0  0  0  0  0  0  0  0  0  0  0  0
   44.6350   81.3590   62.7350 C   0  0  0  0  0  0  0  0  0  0  0  0
   43.3820   81.9150   62.7600 C   0  0  0  0  0  0  0  0  0  0  0  0
   44.3920   79.8830   59.7330 H   0  0  0  0  0  0  0  0  0  0  0  0
   45.9860   80.1420   61.5360 H   0  0  0  0  0  0  0  0  0  0  0  0
   45.3280   81.4880   63.5490 H   0  0  0  0  0  0  0  0  0  0  0  0
   43.0670   82.5020   63.6170 H   0  0  0  0  0  0  0  0  0  0  0  0
   40.8880   82.5230   61.8080 S   0  0  0  0  0  0  0  0  0  0  0  0
   40.5050   82.7450   63.2540 O   0  0  0  0  0  0  0  0  0  0  0  0
   39.8620   81.4440   61.4330 O   0  0  0  0  0  0  0  0  0  0  0  0
   40.5960   84.0300   61.0830 C   0  0  0  0  0  3  0  0  0  0  0  0
   39.6550   83.8580   59.8730 C   0  0  0  0  0  2  0  0  0  0  0  0
   40.1310   84.8510   58.8350 C   0  0  0  0  0  2  0  0  0  0  0  0
   41.3660   85.5110   59.4470 C   0  0  0  0  0  2  0  0  0  0  0  0
   41.8790   84.3850   60.3010 C   0  0  0  0  0  2  0  0  0  0  0  0
  1  6  1  0  0  0  0
  2  3  1  0  0  0  0
  2  1  2  0  0  0  0
  3  4  2  0  0  0  0
  4  5  1  0  0  0  0
  5 21  1  0  0  0  0
  6  5  2  0  0  0  0
  7  1  1  0  0  0  0
  8  3  1  0  0  0  0
  9 10  1  0  0  0  0
  9  2  1  0  0  0  0
 10 17  1  0  0  0  0
 11 18  1  0  0  0  0
 11 10  2  0  0  0  0
 12 11  1  0  0  0  0
 13 12  2  0  0  0  0
 14 12  1  0  0  0  0
 14 15  1  0  0  0  0
 15  9  1  0  0  0  0
 16 15  2  0  0  0  0
 19 14  1  0  0  0  0
 20 30  1  0  0  0  0
 20 25  1  0  0  0  0
 21 20  2  0  0  0  0
 22 21  1  0  0  0  0
 22 23  2  0  0  0  0
 23 24  1  0  0  0  0
 24 25  2  0  0  0  0
 24 28  1  0  0  0  0
 25 29  1  0  0  0  0
 26 22  1  0  0  0  0
 27 23  1  0  0  0  0
 30 31  2  0  0  0  0
 32 30  2  0  0  0  0
 33 30  1  0  0  0  0
 34 33  1  0  0  0  0
 35 36  1  0  0  0  0
 35 34  1  0  0  0  0
 36 37  1  0  0  0  0
 37 33  1  0  0  0  0
M  END
>  <minimizedAffinity>
-5.53736734

>  <minimizedRMSD>
1.03578055

$$$$
