
 OpenBabel03212520563D

 31 34  0  0  0  0  0  0  0  0999 V2000
   40.9270   80.2470   61.7440 C   0  0  0  0  0  0  0  0  0  0  0  0
   40.8500   79.0350   62.4010 C   0  0  0  0  0  0  0  0  0  0  0  0
   40.4800   77.9490   61.6960 C   0  0  0  0  0  0  0  0  0  0  0  0
   40.1920   78.0810   60.3450 C   0  0  0  0  0  0  0  0  0  0  0  0
   40.4610   79.8860   60.0320 S   0  0  0  0  0  0  0  0  0  0  0  0
   41.0780   78.9330   63.4670 H   0  0  0  0  0  0  0  0  0  0  0  0
   40.3640   76.9260   62.0290 H   0  0  0  0  0  0  0  0  0  0  0  0
   42.9850   83.0930   62.8020 C   0  0  0  0  0  0  0  0  0  0  0  0
   42.0970   83.8650   63.5790 C   0  0  0  0  0  0  0  0  0  0  0  0
   40.8040   83.4040   63.7310 C   0  0  0  0  0  0  0  0  0  0  0  0
   40.4550   82.2410   63.1320 N   0  0  0  0  0  0  0  0  0  0  0  0
   41.3240   81.5250   62.3980 C   0  0  0  0  0  0  0  0  0  0  0  0
   42.5700   81.9440   62.2340 N   0  0  0  0  0  0  0  0  0  0  0  0
   44.0010   83.4500   62.6790 H   0  0  0  0  0  0  0  0  0  0  0  0
   42.3770   84.7840   64.0510 H   0  0  0  0  0  0  0  0  0  0  0  0
   40.0370   83.9080   64.3020 H   0  0  0  0  0  0  0  0  0  0  0  0
   39.7770   77.2020   59.2840 C   0  0  0  0  0  0  0  0  0  0  0  0
   40.4030   76.0080   59.1180 C   0  0  0  0  0  0  0  0  0  0  0  0
   39.8820   75.2690   58.0440 C   0  0  0  0  0  0  0  0  0  0  0  0
   38.8720   75.6810   57.2510 N   0  0  0  0  0  0  0  0  0  0  0  0
   38.3140   76.8860   57.4970 C   0  0  0  0  0  0  0  0  0  0  0  0
   38.7650   77.6600   58.5210 N   0  0  0  0  0  0  0  0  0  0  0  0
   41.2060   75.6290   59.7120 H   0  0  0  0  0  0  0  0  0  0  0  0
   40.2890   74.2830   57.7890 H   0  0  0  0  0  0  0  0  0  0  0  0
   37.2270   77.3220   56.6400 C   0  0  0  0  0  0  0  0  0  0  0  0
   36.0430   77.0990   57.0370 O   0  0  0  0  0  0  0  0  0  0  0  0
   37.5670   77.9970   55.3640 C   0  0  0  0  0  3  0  0  0  0  0  0
   37.3280   79.4780   55.4140 C   0  0  0  0  0  2  0  0  0  0  0  0
   37.4740   79.8330   53.9330 C   0  0  0  0  0  2  0  0  0  0  0  0
   36.8450   78.6430   53.2160 C   0  0  0  0  0  2  0  0  0  0  0  0
   36.6310   77.5660   54.2430 C   0  0  0  0  0  2  0  0  0  0  0  0
  1 12  1  0  0  0  0
  1  2  2  0  0  0  0
  2  6  1  0  0  0  0
  3  7  1  0  0  0  0
  3  2  1  0  0  0  0
  4  3  2  0  0  0  0
  5  4  1  0  0  0  0
  5  1  1  0  0  0  0
  8  9  1  0  0  0  0
  9 10  2  0  0  0  0
  9 15  1  0  0  0  0
 10 16  1  0  0  0  0
 11 10  1  0  0  0  0
 12 11  2  0  0  0  0
 13 12  1  0  0  0  0
 13  8  2  0  0  0  0
 14  8  1  0  0  0  0
 17  4  1  0  0  0  0
 18 17  1  0  0  0  0
 18 23  1  0  0  0  0
 19 18  2  0  0  0  0
 20 21  2  0  0  0  0
 20 19  1  0  0  0  0
 21 22  1  0  0  0  0
 22 17  2  0  0  0  0
 24 19  1  0  0  0  0
 25 26  2  0  0  0  0
 25 21  1  0  0  0  0
 27 28  1  0  0  0  0
 27 25  1  0  0  0  0
 29 28  1  0  0  0  0
 30 29  1  0  0  0  0
 30 31  1  0  0  0  0
 31 27  1  0  0  0  0
M  END
>  <minimizedAffinity>
-6.56327724

>  <minimizedRMSD>
0.323542714

$$$$
