
 OpenBabel03212520413D

 23 25  0  0  1  0  0  0  0  0999 V2000
   42.3050   85.3860   59.7650 C   0  0  1  0  0  0  0  0  0  0  0  0
   43.3090   86.3290   59.1140 C   0  0  0  0  0  0  0  0  0  0  0  0
   42.8770   85.0310   58.4550 C   0  0  1  0  0  0  0  0  0  0  0  0
   41.3130   85.8800   59.8900 H   0  0  0  0  0  0  0  0  0  0  0  0
   42.9520   87.2570   58.6210 H   0  0  0  0  0  0  0  0  0  0  0  0
   44.3530   86.3140   59.4300 H   0  0  0  0  0  0  0  0  0  0  0  0
   42.1850   85.1190   57.5860 H   0  0  0  0  0  0  0  0  0  0  0  0
   42.8340   84.7750   60.9350 O   0  0  0  0  0  0  0  0  0  0  0  0
   40.0520   83.5310   62.8830 C   0  0  0  0  0  0  0  0  0  0  0  0
   40.5180   83.7070   64.1890 C   0  0  0  0  0  0  0  0  0  0  0  0
   41.8080   84.2610   64.3660 C   0  0  0  0  0  0  0  0  0  0  0  0
   42.4830   84.5760   63.2310 N   0  0  0  0  0  0  0  0  0  0  0  0
   42.0250   84.4040   61.9800 C   0  0  0  0  0  0  0  0  0  0  0  0
   40.8170   83.8850   61.7910 N   0  0  0  0  0  0  0  0  0  0  0  0
   39.0660   83.1090   62.7180 H   0  0  0  0  0  0  0  0  0  0  0  0
   39.9400   83.4390   65.0430 H   0  0  0  0  0  0  0  0  0  0  0  0
   42.2390   84.4280   65.3430 H   0  0  0  0  0  0  0  0  0  0  0  0
   43.7760   83.9570   58.4350 O   0  0  0  0  0  0  0  0  0  0  0  0
   43.5510   83.2580   57.2290 C   0  0  0  0  0  3  0  0  0  0  0  0
   43.6390   84.1970   56.0260 C   0  0  0  0  0  2  0  0  0  0  0  0
   42.5760   83.7370   55.0760 C   0  0  0  0  0  2  0  0  0  0  0  0
   41.8750   82.5540   55.6840 C   0  0  0  0  0  2  0  0  0  0  0  0
   42.1450   82.7320   57.1580 C   0  0  0  0  0  2  0  0  0  0  0  0
  1  4  1  1  0  0  0
  1  8  1  0  0  0  0
  2  6  1  0  0  0  0
  2  1  1  0  0  0  0
  3  7  1  6  0  0  0
  3  2  1  0  0  0  0
  3  1  1  0  0  0  0
  5  2  1  0  0  0  0
  8 13  1  0  0  0  0
  9 10  1  0  0  0  0
 10 11  2  0  0  0  0
 10 16  1  0  0  0  0
 11 17  1  0  0  0  0
 12 11  1  0  0  0  0
 13 12  2  0  0  0  0
 14 13  1  0  0  0  0
 14  9  2  0  0  0  0
 15  9  1  0  0  0  0
 18  3  1  0  0  0  0
 19 18  1  0  0  0  0
 20 19  1  0  0  0  0
 21 22  1  0  0  0  0
 21 20  1  0  0  0  0
 22 23  1  0  0  0  0
 23 19  1  0  0  0  0
M  END
>  <minimizedAffinity>
-3.74205995

>  <minimizedRMSD>
0.560592115

$$$$
