
 OpenBabel03212520413D

 23 25  0  0  1  0  0  0  0  0999 V2000
   42.0060   85.1610   59.6210 C   0  0  1  0  0  0  0  0  0  0  0  0
   43.0270   85.5270   58.5510 C   0  0  0  0  0  0  0  0  0  0  0  0
   42.3160   84.1860   58.5630 C   0  0  1  0  0  0  0  0  0  0  0  0
   41.1280   85.8470   59.5890 H   0  0  0  0  0  0  0  0  0  0  0  0
   42.7380   86.2130   57.7280 H   0  0  0  0  0  0  0  0  0  0  0  0
   44.0930   85.4410   58.7640 H   0  0  0  0  0  0  0  0  0  0  0  0
   41.5210   84.0350   57.7970 H   0  0  0  0  0  0  0  0  0  0  0  0
   42.6110   85.0060   60.8990 O   0  0  0  0  0  0  0  0  0  0  0  0
   40.0320   83.5670   62.9870 C   0  0  0  0  0  0  0  0  0  0  0  0
   40.5930   83.6980   64.2610 C   0  0  0  0  0  0  0  0  0  0  0  0
   41.8730   84.2920   64.3670 C   0  0  0  0  0  0  0  0  0  0  0  0
   42.4460   84.6860   63.2010 N   0  0  0  0  0  0  0  0  0  0  0  0
   41.8990   84.5560   61.9810 C   0  0  0  0  0  0  0  0  0  0  0  0
   40.6990   84.0010   61.8590 N   0  0  0  0  0  0  0  0  0  0  0  0
   39.0520   83.1160   62.8750 H   0  0  0  0  0  0  0  0  0  0  0  0
   40.0910   83.3690   65.1410 H   0  0  0  0  0  0  0  0  0  0  0  0
   42.3720   84.4290   65.3160 H   0  0  0  0  0  0  0  0  0  0  0  0
   43.0360   83.0480   58.9510 O   0  0  0  0  0  0  0  0  0  0  0  0
   42.3090   81.9280   58.4940 C   0  0  0  0  0  3  0  0  0  0  0  0
   41.3990   82.3040   57.3250 C   0  0  0  0  0  2  0  0  0  0  0  0
   40.1400   81.5180   57.5220 C   0  0  0  0  0  2  0  0  0  0  0  0
   40.2900   80.6880   58.7670 C   0  0  0  0  0  2  0  0  0  0  0  0
   41.3470   81.4390   59.5400 C   0  0  0  0  0  2  0  0  0  0  0  0
  1  4  1  6  0  0  0
  1  8  1  0  0  0  0
  2  3  1  0  0  0  0
  2  6  1  0  0  0  0
  2  1  1  0  0  0  0
  3  7  1  6  0  0  0
  3 18  1  0  0  0  0
  3  1  1  0  0  0  0
  5  2  1  0  0  0  0
  8 13  1  0  0  0  0
  9 10  1  0  0  0  0
 10 11  2  0  0  0  0
 10 16  1  0  0  0  0
 11 17  1  0  0  0  0
 12 11  1  0  0  0  0
 13 12  2  0  0  0  0
 14 13  1  0  0  0  0
 14  9  2  0  0  0  0
 15  9  1  0  0  0  0
 19 18  1  0  0  0  0
 19 23  1  0  0  0  0
 20 21  1  0  0  0  0
 20 19  1  0  0  0  0
 21 22  1  0  0  0  0
 22 23  1  0  0  0  0
M  END
>  <minimizedAffinity>
-3.93094206

>  <minimizedRMSD>
2.19411802

$$$$
