
 OpenBabel03212520313D

 37 40  0  0  0  0  0  0  0  0999 V2000
   40.1540   79.2780   58.6940 C   0  0  0  0  0  0  0  0  0  0  0  0
   40.1670   80.0540   57.5520 C   0  0  0  0  0  0  0  0  0  0  0  0
   41.1080   81.1180   57.5030 C   0  0  0  0  0  0  0  0  0  0  0  0
   41.9170   81.2860   58.5790 N   0  0  0  0  0  0  0  0  0  0  0  0
   41.8850   80.5320   59.6530 C   0  0  0  0  0  0  0  0  0  0  0  0
   40.9950   79.5230   59.7050 N   0  0  0  0  0  0  0  0  0  0  0  0
   39.4420   78.4540   58.7550 H   0  0  0  0  0  0  0  0  0  0  0  0
   41.1280   81.7290   56.6220 H   0  0  0  0  0  0  0  0  0  0  0  0
   39.2800   79.8010   56.4770 N   0  0  0  0  0  0  0  0  0  0  0  0
   38.1990   80.5810   56.4810 C   0  0  0  0  0  0  0  0  0  0  0  0
   37.2710   80.3970   55.4470 C   0  0  0  0  0  0  0  0  0  0  0  0
   37.5020   79.4280   54.4690 C   0  0  0  0  0  0  0  0  0  0  0  0
   36.7000   79.2340   53.5320 O   0  0  0  0  0  0  0  0  0  0  0  0
   38.6310   78.6770   54.5440 N   0  0  0  0  0  0  0  0  0  0  0  0
   39.5380   78.8500   55.5440 C   0  0  0  0  0  0  0  0  0  0  0  0
   40.5710   78.1680   55.6170 O   0  0  0  0  0  0  0  0  0  0  0  0
   37.9820   81.3300   57.2030 H   0  0  0  0  0  0  0  0  0  0  0  0
   36.3800   81.0050   55.4110 H   0  0  0  0  0  0  0  0  0  0  0  0
   38.8130   77.9550   53.8240 H   0  0  0  0  0  0  0  0  0  0  0  0
   42.4580   81.6790   61.7680 C   0  0  0  0  0  0  0  0  0  0  0  0
   42.8110   80.8480   60.7290 C   0  0  0  0  0  0  0  0  0  0  0  0
   44.0550   80.2570   60.7020 C   0  0  0  0  0  0  0  0  0  0  0  0
   45.0100   80.4570   61.7000 C   0  0  0  0  0  0  0  0  0  0  0  0
   44.6700   81.2910   62.7510 C   0  0  0  0  0  0  0  0  0  0  0  0
   43.4290   81.8740   62.7660 C   0  0  0  0  0  0  0  0  0  0  0  0
   44.3180   79.6030   59.8740 H   0  0  0  0  0  0  0  0  0  0  0  0
   45.9640   79.9600   61.6110 H   0  0  0  0  0  0  0  0  0  0  0  0
   45.3870   81.4640   63.5350 H   0  0  0  0  0  0  0  0  0  0  0  0
   43.1490   82.5290   63.5850 H   0  0  0  0  0  0  0  0  0  0  0  0
   40.9230   82.4640   61.8350 S   0  0  0  0  0  0  0  0  0  0  0  0
   40.5650   82.7630   63.2730 O   0  0  0  0  0  0  0  0  0  0  0  0
   39.8690   81.3910   61.5260 O   0  0  0  0  0  0  0  0  0  0  0  0
   40.6540   83.9400   61.0420 C   0  0  0  0  0  3  0  0  0  0  0  0
   39.7920   83.7110   59.7820 C   0  0  0  0  0  2  0  0  0  0  0  0
   40.3160   84.6780   58.7420 C   0  0  0  0  0  2  0  0  0  0  0  0
   41.5020   85.3790   59.4070 C   0  0  0  0  0  2  0  0  0  0  0  0
   41.9780   84.2920   60.3300 C   0  0  0  0  0  2  0  0  0  0  0  0
  1  7  1  0  0  0  0
  1  6  1  0  0  0  0
  2  1  2  0  0  0  0
  3  2  1  0  0  0  0
  3  4  2  0  0  0  0
  4  5  1  0  0  0  0
  5  6  2  0  0  0  0
  5 21  1  0  0  0  0
  8  3  1  0  0  0  0
  9 10  1  0  0  0  0
  9  2  1  0  0  0  0
 10 17  1  0  0  0  0
 11 10  2  0  0  0  0
 12 14  1  0  0  0  0
 12 11  1  0  0  0  0
 13 12  2  0  0  0  0
 14 15  1  0  0  0  0
 15 16  2  0  0  0  0
 15  9  1  0  0  0  0
 18 11  1  0  0  0  0
 19 14  1  0  0  0  0
 20 30  1  0  0  0  0
 20 25  1  0  0  0  0
 21 20  2  0  0  0  0
 22 21  1  0  0  0  0
 22 23  2  0  0  0  0
 23 24  1  0  0  0  0
 24 25  2  0  0  0  0
 24 28  1  0  0  0  0
 25 29  1  0  0  0  0
 26 22  1  0  0  0  0
 27 23  1  0  0  0  0
 30 31  2  0  0  0  0
 32 30  2  0  0  0  0
 33 30  1  0  0  0  0
 34 33  1  0  0  0  0
 35 36  1  0  0  0  0
 35 34  1  0  0  0  0
 36 37  1  0  0  0  0
 37 33  1  0  0  0  0
M  END
>  <minimizedAffinity>
-5.55212021

>  <minimizedRMSD>
1.56034458

$$$$
