
 OpenBabel03212520403D

 23 25  0  0  1  0  0  0  0  0999 V2000
   42.3610   85.3940   59.7720 C   0  0  1  0  0  0  0  0  0  0  0  0
   43.3620   86.4100   59.2370 C   0  0  0  0  0  0  0  0  0  0  0  0
   42.9960   85.1550   58.4660 C   0  0  1  0  0  0  0  0  0  0  0  0
   41.3510   85.8510   59.8920 H   0  0  0  0  0  0  0  0  0  0  0  0
   42.9980   87.3630   58.7990 H   0  0  0  0  0  0  0  0  0  0  0  0
   44.3930   86.4000   59.5950 H   0  0  0  0  0  0  0  0  0  0  0  0
   42.3370   85.2890   57.5770 H   0  0  0  0  0  0  0  0  0  0  0  0
   42.8600   84.7110   60.9150 O   0  0  0  0  0  0  0  0  0  0  0  0
   40.0500   83.5370   62.8660 C   0  0  0  0  0  0  0  0  0  0  0  0
   40.5130   83.7240   64.1720 C   0  0  0  0  0  0  0  0  0  0  0  0
   41.8100   84.2610   64.3480 C   0  0  0  0  0  0  0  0  0  0  0  0
   42.4950   84.5500   63.2120 N   0  0  0  0  0  0  0  0  0  0  0  0
   42.0410   84.3670   61.9610 C   0  0  0  0  0  0  0  0  0  0  0  0
   40.8260   83.8640   61.7730 N   0  0  0  0  0  0  0  0  0  0  0  0
   39.0590   83.1270   62.7010 H   0  0  0  0  0  0  0  0  0  0  0  0
   39.9270   83.4770   65.0260 H   0  0  0  0  0  0  0  0  0  0  0  0
   42.2390   84.4340   65.3240 H   0  0  0  0  0  0  0  0  0  0  0  0
   43.9280   84.1090   58.4040 O   0  0  0  0  0  0  0  0  0  0  0  0
   43.9310   83.6430   57.0710 C   0  0  0  0  0  3  0  0  0  0  0  0
   44.8050   82.3980   56.9260 C   0  0  0  0  0  2  0  0  0  0  0  0
   45.4870   82.5350   55.6010 C   0  0  0  0  0  2  0  0  0  0  0  0
   45.0320   83.8190   54.9630 C   0  0  0  0  0  2  0  0  0  0  0  0
   44.5810   84.6350   56.1490 C   0  0  0  0  0  2  0  0  0  0  0  0
  1  4  1  1  0  0  0
  1  8  1  0  0  0  0
  2  6  1  0  0  0  0
  2  1  1  0  0  0  0
  3  7  1  6  0  0  0
  3  2  1  0  0  0  0
  3  1  1  0  0  0  0
  5  2  1  0  0  0  0
  8 13  1  0  0  0  0
  9 10  1  0  0  0  0
 10 11  2  0  0  0  0
 10 16  1  0  0  0  0
 11 17  1  0  0  0  0
 12 11  1  0  0  0  0
 13 12  2  0  0  0  0
 14 13  1  0  0  0  0
 14  9  2  0  0  0  0
 15  9  1  0  0  0  0
 18  3  1  0  0  0  0
 19 18  1  0  0  0  0
 20 19  1  0  0  0  0
 21 20  1  0  0  0  0
 22 21  1  0  0  0  0
 22 23  1  0  0  0  0
 23 19  1  0  0  0  0
M  END
>  <minimizedAffinity>
-3.37463546

>  <minimizedRMSD>
0.341766566

$$$$
