
 OpenBabel03212520403D

 23 25  0  0  1  0  0  0  0  0999 V2000
   42.2060   85.3490   59.6930 C   0  0  1  0  0  0  0  0  0  0  0  0
   43.2030   85.4510   58.5460 C   0  0  0  0  0  0  0  0  0  0  0  0
   41.9520   84.5960   58.4540 C   0  0  1  0  0  0  0  0  0  0  0  0
   41.7480   86.3410   59.9160 H   0  0  0  0  0  0  0  0  0  0  0  0
   43.2120   86.3560   57.9040 H   0  0  0  0  0  0  0  0  0  0  0  0
   44.1190   84.8590   58.5670 H   0  0  0  0  0  0  0  0  0  0  0  0
   41.1280   84.9850   57.8120 H   0  0  0  0  0  0  0  0  0  0  0  0
   42.7560   84.6660   60.8130 O   0  0  0  0  0  0  0  0  0  0  0  0
   40.0460   83.5220   62.9180 C   0  0  0  0  0  0  0  0  0  0  0  0
   40.5700   83.7340   64.1960 C   0  0  0  0  0  0  0  0  0  0  0  0
   41.8730   84.2770   64.2990 C   0  0  0  0  0  0  0  0  0  0  0  0
   42.5010   84.5470   63.1270 N   0  0  0  0  0  0  0  0  0  0  0  0
   41.9880   84.3400   61.9030 C   0  0  0  0  0  0  0  0  0  0  0  0
   40.7680   83.8300   61.7830 N   0  0  0  0  0  0  0  0  0  0  0  0
   39.0490   83.1070   62.8080 H   0  0  0  0  0  0  0  0  0  0  0  0
   40.0260   83.5020   65.0820 H   0  0  0  0  0  0  0  0  0  0  0  0
   42.3470   84.4700   65.2510 H   0  0  0  0  0  0  0  0  0  0  0  0
   42.0850   83.2030   58.5290 O   0  0  0  0  0  0  0  0  0  0  0  0
   40.8880   82.6510   58.0240 C   0  0  0  0  0  3  0  0  0  0  0  0
   40.3700   81.5340   58.9300 C   0  0  0  0  0  2  0  0  0  0  0  0
   39.8150   80.4910   58.0110 C   0  0  0  0  0  2  0  0  0  0  0  0
   39.9860   80.9680   56.5950 C   0  0  0  0  0  2  0  0  0  0  0  0
   41.1210   81.9550   56.7120 C   0  0  0  0  0  2  0  0  0  0  0  0
  1  4  1  1  0  0  0
  1  8  1  0  0  0  0
  2  6  1  0  0  0  0
  2  1  1  0  0  0  0
  3  7  1  6  0  0  0
  3 18  1  0  0  0  0
  3  2  1  0  0  0  0
  3  1  1  0  0  0  0
  5  2  1  0  0  0  0
  8 13  1  0  0  0  0
  9 10  1  0  0  0  0
 10 11  2  0  0  0  0
 10 16  1  0  0  0  0
 11 17  1  0  0  0  0
 12 11  1  0  0  0  0
 13 12  2  0  0  0  0
 14 13  1  0  0  0  0
 14  9  2  0  0  0  0
 15  9  1  0  0  0  0
 19 18  1  0  0  0  0
 19 20  1  0  0  0  0
 21 20  1  0  0  0  0
 22 23  1  0  0  0  0
 22 21  1  0  0  0  0
 23 19  1  0  0  0  0
M  END
>  <minimizedAffinity>
-4.25022221

>  <minimizedRMSD>
2.70685124

$$$$
