
 OpenBabel03212520453D

 14 15  0  0  0  0  0  0  0  0999 V2000
   39.8350   81.8820   61.1160 C   0  0  0  0  0  0  0  0  0  0  0  0
   40.1060   82.5520   59.9050 C   0  0  0  0  0  0  0  0  0  0  0  0
   39.6970   83.8810   59.7960 C   0  0  0  0  0  0  0  0  0  0  0  0
   39.0620   84.4570   60.8560 N   0  0  0  0  0  0  0  0  0  0  0  0
   38.8200   83.7850   62.0030 C   0  0  0  0  0  0  0  0  0  0  0  0
   39.2100   82.4960   62.1230 N   0  0  0  0  0  0  0  0  0  0  0  0
   40.6190   82.0180   59.1020 H   0  0  0  0  0  0  0  0  0  0  0  0
   39.8850   84.4140   58.8960 H   0  0  0  0  0  0  0  0  0  0  0  0
   38.3100   84.3340   62.7840 H   0  0  0  0  0  0  0  0  0  0  0  0
   40.2420   80.4770   61.2960 C   0  0  0  0  0  3  0  0  0  0  0  0
   40.4590   79.7410   59.9940 C   0  0  0  0  0  2  0  0  0  0  0  0
   41.0140   78.4230   60.5540 C   0  0  0  0  0  2  0  0  0  0  0  0
   41.8090   78.8150   61.7780 C   0  0  0  0  0  2  0  0  0  0  0  0
   41.5570   80.2960   61.9790 C   0  0  0  0  0  2  0  0  0  0  0  0
  1 10  1  0  0  0  0
  1  6  1  0  0  0  0
  2  1  2  0  0  0  0
  3  2  1  0  0  0  0
  3  4  2  0  0  0  0
  4  5  1  0  0  0  0
  5  6  2  0  0  0  0
  5  9  1  0  0  0  0
  7  2  1  0  0  0  0
  8  3  1  0  0  0  0
 10 14  1  0  0  0  0
 11 12  1  0  0  0  0
 11 10  1  0  0  0  0
 12 13  1  0  0  0  0
 13 14  1  0  0  0  0
M  END
>  <minimizedAffinity>
-4.26685429

>  <minimizedRMSD>
0.774906456

$$$$
