
 OpenBabel03212521073D

 32 35  0  0  0  0  0  0  0  0999 V2000
   41.8180   84.2360   61.5780 C   0  0  0  0  0  0  0  0  0  0  0  0
   41.4730   83.9540   62.8890 C   0  0  0  0  0  0  0  0  0  0  0  0
   40.2030   83.5320   63.2360 C   0  0  0  0  0  0  0  0  0  0  0  0
   39.2410   83.3850   62.2390 C   0  0  0  0  0  0  0  0  0  0  0  0
   39.5790   83.6670   60.9140 C   0  0  0  0  0  0  0  0  0  0  0  0
   40.8470   84.0850   60.5900 C   0  0  0  0  0  0  0  0  0  0  0  0
   42.2420   84.0780   63.6460 H   0  0  0  0  0  0  0  0  0  0  0  0
   39.9690   83.3220   64.2680 H   0  0  0  0  0  0  0  0  0  0  0  0
   38.2400   83.0600   62.4590 H   0  0  0  0  0  0  0  0  0  0  0  0
   38.8000   83.5390   60.1670 H   0  0  0  0  0  0  0  0  0  0  0  0
   45.3210   84.1400   60.5560 C   0  0  0  0  0  0  0  0  0  0  0  0
   45.7200   85.4690   60.6770 C   0  0  0  0  0  0  0  0  0  0  0  0
   44.7650   86.4190   61.1210 C   0  0  0  0  0  0  0  0  0  0  0  0
   43.5220   85.9680   61.3970 N   0  0  0  0  0  0  0  0  0  0  0  0
   43.1560   84.6730   61.2730 C   0  0  0  0  0  0  0  0  0  0  0  0
   44.0630   83.7800   60.8540 N   0  0  0  0  0  0  0  0  0  0  0  0
   46.0170   83.3710   60.2210 H   0  0  0  0  0  0  0  0  0  0  0  0
   46.7310   85.7420   60.4370 H   0  0  0  0  0  0  0  0  0  0  0  0
   45.0560   87.4530   61.2220 H   0  0  0  0  0  0  0  0  0  0  0  0
   41.1600   84.3680   59.1960 C   0  0  0  0  0  0  0  0  0  0  0  0
   40.8720   85.6970   58.8610 C   0  0  0  0  0  0  0  0  0  0  0  0
   41.1010   86.1690   57.5720 C   0  0  0  0  0  0  0  0  0  0  0  0
   41.6010   85.2990   56.6880 N   0  0  0  0  0  0  0  0  0  0  0  0
   41.8800   84.0090   57.0150 C   0  0  0  0  0  0  0  0  0  0  0  0
   41.6590   83.5450   58.2680 N   0  0  0  0  0  0  0  0  0  0  0  0
   40.4620   86.4470   59.5480 H   0  0  0  0  0  0  0  0  0  0  0  0
   40.8860   87.1900   57.2950 H   0  0  0  0  0  0  0  0  0  0  0  0
   42.4320   83.0610   56.0240 C   0  0  0  0  0  3  0  0  0  0  0  0
   41.4290   81.9450   55.8020 C   0  0  0  0  0  2  0  0  0  0  0  0
   41.8040   81.3030   54.5140 C   0  0  0  0  0  2  0  0  0  0  0  0
   42.3180   82.4440   53.6870 C   0  0  0  0  0  2  0  0  0  0  0  0
   42.5240   83.6290   54.6280 C   0  0  0  0  0  2  0  0  0  0  0  0
  1  2  1  0  0  0  0
  2  3  2  0  0  0  0
  2  7  1  0  0  0  0
  3  8  1  0  0  0  0
  4  9  1  0  0  0  0
  4  3  1  0  0  0  0
  5  4  2  0  0  0  0
  6  5  1  0  0  0  0
  6  1  2  0  0  0  0
 10  5  1  0  0  0  0
 11 12  2  0  0  0  0
 11 16  1  0  0  0  0
 12 13  1  0  0  0  0
 13 19  1  0  0  0  0
 13 14  2  0  0  0  0
 15 14  1  0  0  0  0
 15  1  1  0  0  0  0
 16 15  2  0  0  0  0
 17 11  1  0  0  0  0
 18 12  1  0  0  0  0
 20  6  1  0  0  0  0
 21 20  1  0  0  0  0
 21 26  1  0  0  0  0
 22 21  2  0  0  0  0
 23 24  2  0  0  0  0
 23 22  1  0  0  0  0
 24 25  1  0  0  0  0
 25 20  2  0  0  0  0
 27 22  1  0  0  0  0
 28 24  1  0  0  0  0
 29 28  1  0  0  0  0
 30 29  1  0  0  0  0
 31 30  1  0  0  0  0
 31 32  1  0  0  0  0
 32 28  1  0  0  0  0
M  END
>  <minimizedAffinity>
-5.71021366

>  <minimizedRMSD>
0.771748662

$$$$
