
 OpenBabel03212520543D

 29 32  0  0  0  0  0  0  0  0999 V2000
   42.3840   78.4190   62.0440 C   0  0  0  0  0  0  0  0  0  0  0  0
   40.9920   78.4760   62.0800 C   0  0  0  0  0  0  0  0  0  0  0  0
   40.3940   79.6570   61.8040 C   0  0  0  0  0  0  0  0  0  0  0  0
   41.1810   80.7700   61.4950 C   0  0  0  0  0  0  0  0  0  0  0  0
   42.8920   80.0990   61.6020 S   0  0  0  0  0  0  0  0  0  0  0  0
   40.3810   77.6150   62.3210 H   0  0  0  0  0  0  0  0  0  0  0  0
   39.3420   79.8980   61.7820 H   0  0  0  0  0  0  0  0  0  0  0  0
   43.7110   75.0350   61.6060 C   0  0  0  0  0  0  0  0  0  0  0  0
   44.5580   74.8810   62.7590 C   0  0  0  0  0  0  0  0  0  0  0  0
   44.6530   75.9410   63.6560 C   0  0  0  0  0  0  0  0  0  0  0  0
   43.9440   77.0600   63.3970 N   0  0  0  0  0  0  0  0  0  0  0  0
   43.1620   77.1900   62.3230 C   0  0  0  0  0  0  0  0  0  0  0  0
   43.0480   76.1930   61.4430 N   0  0  0  0  0  0  0  0  0  0  0  0
   43.6110   74.2360   60.8860 H   0  0  0  0  0  0  0  0  0  0  0  0
   45.0950   73.9570   62.9000 H   0  0  0  0  0  0  0  0  0  0  0  0
   45.2810   75.8600   64.5340 H   0  0  0  0  0  0  0  0  0  0  0  0
   40.9360   82.1400   61.1600 C   0  0  0  0  0  0  0  0  0  0  0  0
   39.6470   82.6280   61.2850 C   0  0  0  0  0  0  0  0  0  0  0  0
   39.5260   83.9760   60.9310 C   0  0  0  0  0  0  0  0  0  0  0  0
   40.5600   84.7270   60.5090 N   0  0  0  0  0  0  0  0  0  0  0  0
   41.7960   84.1520   60.4190 C   0  0  0  0  0  0  0  0  0  0  0  0
   41.9780   82.8450   60.7490 N   0  0  0  0  0  0  0  0  0  0  0  0
   38.7880   82.0730   61.6150 H   0  0  0  0  0  0  0  0  0  0  0  0
   38.5660   84.4660   60.9880 H   0  0  0  0  0  0  0  0  0  0  0  0
   42.9900   84.9380   59.9550 C   0  0  0  0  0  0  0  0  0  0  0  0
   44.0430   83.9200   59.5620 C   0  0  0  0  0  0  0  0  0  0  0  0
   45.3220   84.3310   60.2510 C   0  0  0  0  0  0  0  0  0  0  0  0
   44.8380   84.9440   61.5270 C   0  0  0  0  0  0  0  0  0  0  0  0
   43.5510   85.6300   61.1790 C   0  0  0  0  0  0  0  0  0  0  0  0
  1  2  2  0  0  0  0
  1 12  1  0  0  0  0
  2  6  1  0  0  0  0
  3  2  1  0  0  0  0
  4  5  1  0  0  0  0
  4  3  2  0  0  0  0
  5  1  1  0  0  0  0
  7  3  1  0  0  0  0
  8  9  1  0  0  0  0
  9 15  1  0  0  0  0
  9 10  2  0  0  0  0
 10 16  1  0  0  0  0
 11 10  1  0  0  0  0
 12 11  2  0  0  0  0
 13  8  2  0  0  0  0
 13 12  1  0  0  0  0
 14  8  1  0  0  0  0
 17 18  1  0  0  0  0
 17  4  1  0  0  0  0
 18 23  1  0  0  0  0
 19 24  1  0  0  0  0
 19 18  2  0  0  0  0
 20 19  1  0  0  0  0
 21 20  2  0  0  0  0
 21 22  1  0  0  0  0
 22 17  2  0  0  0  0
 25 21  1  0  0  0  0
 25 29  1  0  0  0  0
 26 25  1  0  0  0  0
 26 27  1  0  0  0  0
 27 28  1  0  0  0  0
 29 28  1  0  0  0  0
M  END
>  <minimizedAffinity>
-5.02946043

>  <minimizedRMSD>
3.84839582

$$$$
