
 OpenBabel03212520443D

 14 15  0  0  0  0  0  0  0  0999 V2000
   40.2710   82.0750   61.4960 C   0  0  0  0  0  0  0  0  0  0  0  0
   40.4680   82.6090   60.2060 C   0  0  0  0  0  0  0  0  0  0  0  0
   39.7840   83.7790   59.8800 C   0  0  0  0  0  0  0  0  0  0  0  0
   38.9670   84.3400   60.8170 N   0  0  0  0  0  0  0  0  0  0  0  0
   38.8020   83.8010   62.0440 C   0  0  0  0  0  0  0  0  0  0  0  0
   39.4590   82.6660   62.3740 N   0  0  0  0  0  0  0  0  0  0  0  0
   41.1400   82.0980   59.5120 H   0  0  0  0  0  0  0  0  0  0  0  0
   39.9100   84.2080   58.9150 H   0  0  0  0  0  0  0  0  0  0  0  0
   38.1330   84.3240   62.7140 H   0  0  0  0  0  0  0  0  0  0  0  0
   40.9660   80.8400   61.9030 C   0  0  0  0  0  3  0  0  0  0  0  0
   40.3750   79.5870   61.2970 C   0  0  0  0  0  2  0  0  0  0  0  0
   41.4150   78.5710   61.7870 C   0  0  0  0  0  2  0  0  0  0  0  0
   42.7290   79.3170   61.7880 C   0  0  0  0  0  2  0  0  0  0  0  0
   42.3900   80.7570   61.4630 C   0  0  0  0  0  2  0  0  0  0  0  0
  1 10  1  0  0  0  0
  1  6  1  0  0  0  0
  2  1  2  0  0  0  0
  3  2  1  0  0  0  0
  3  4  2  0  0  0  0
  4  5  1  0  0  0  0
  5  6  2  0  0  0  0
  5  9  1  0  0  0  0
  7  2  1  0  0  0  0
  8  3  1  0  0  0  0
 11 12  1  0  0  0  0
 11 10  1  0  0  0  0
 12 13  1  0  0  0  0
 14 13  1  0  0  0  0
 14 10  1  0  0  0  0
M  END
>  <minimizedAffinity>
-4.14332867

>  <minimizedRMSD>
1.11521482

$$$$
