
 OpenBabel03212521013D

 38 42  0  0  1  0  0  0  0  0999 V2000
   41.7700   74.2400   59.7640 C   0  0  0  0  0  0  0  0  0  0  0  0
   43.0820   74.4450   59.4520 C   0  0  0  0  0  0  0  0  0  0  0  0
   43.9270   73.5460   60.1300 C   0  0  0  0  0  0  0  0  0  0  0  0
   43.5020   72.5960   60.9840 N   0  0  0  0  0  0  0  0  0  0  0  0
   42.1620   72.4830   61.2200 C   0  0  0  0  0  0  0  0  0  0  0  0
   41.2900   73.3150   60.6030 N   0  0  0  0  0  0  0  0  0  0  0  0
   43.4680   75.1830   58.7830 H   0  0  0  0  0  0  0  0  0  0  0  0
   45.0070   73.5880   59.9810 H   0  0  0  0  0  0  0  0  0  0  0  0
   39.2580   76.3660   57.3550 C   0  0  0  0  0  0  0  0  0  0  0  0
   38.9950   76.5830   58.6900 C   0  0  0  0  0  0  0  0  0  0  0  0
   39.7710   75.9270   59.5820 C   0  0  0  0  0  0  0  0  0  0  0  0
   40.7700   75.0870   59.1430 C   0  0  0  0  0  0  0  0  0  0  0  0
   40.6420   75.2000   57.3100 S   0  0  0  0  0  0  0  0  0  0  0  0
   38.2080   77.2470   59.0350 H   0  0  0  0  0  0  0  0  0  0  0  0
   39.7270   75.9600   60.6630 H   0  0  0  0  0  0  0  0  0  0  0  0
   38.5640   78.1030   54.1960 C   0  0  0  0  0  0  0  0  0  0  0  0
   37.1460   78.1980   54.1930 C   0  0  0  0  0  0  0  0  0  0  0  0
   36.4350   77.6600   55.2770 C   0  0  0  0  0  0  0  0  0  0  0  0
   37.1360   77.0790   56.2710 N   0  0  0  0  0  0  0  0  0  0  0  0
   38.4990   77.0040   56.2460 C   0  0  0  0  0  0  0  0  0  0  0  0
   39.1800   77.5090   55.2240 N   0  0  0  0  0  0  0  0  0  0  0  0
   39.1350   78.5090   53.3720 H   0  0  0  0  0  0  0  0  0  0  0  0
   36.6230   78.6670   53.3860 H   0  0  0  0  0  0  0  0  0  0  0  0
   35.3650   77.6960   55.3410 H   0  0  0  0  0  0  0  0  0  0  0  0
   41.7260   71.4500   62.1360 C   0  0  0  0  0  0  0  0  0  0  0  0
   41.0580   71.8020   63.1220 O   0  0  0  0  0  0  0  0  0  0  0  0
   42.0620   69.9930   61.9360 C   0  0  1  0  0  0  0  0  0  0  0  0
   43.1930   69.5200   62.8160 C   0  0  0  0  0  0  0  0  0  0  0  0
   41.8210   69.0470   63.0100 C   0  0  2  0  0  0  0  0  0  0  0  0
   42.3840   69.7780   60.8690 H   0  0  0  0  0  0  0  0  0  0  0  0
   43.9750   68.8450   62.4510 H   0  0  0  0  0  0  0  0  0  0  0  0
   43.5650   70.2060   63.6270 H   0  0  0  0  0  0  0  0  0  0  0  0
   41.1600   69.4150   63.8370 H   0  0  0  0  0  0  0  0  0  0  0  0
   41.5920   67.5750   62.7470 C   0  0  0  0  0  3  0  0  0  0  0  0
   40.2140   67.1300   63.1590 C   0  0  0  0  0  2  0  0  0  0  0  0
   40.1910   65.7120   62.5810 C   0  0  0  0  0  2  0  0  0  0  0  0
   41.0090   65.8110   61.3100 C   0  0  0  0  0  2  0  0  0  0  0  0
   41.6270   67.1990   61.3030 C   0  0  0  0  0  2  0  0  0  0  0  0
  1  6  1  0  0  0  0
  2  1  2  0  0  0  0
  2  3  1  0  0  0  0
  3  4  2  0  0  0  0
  4  5  1  0  0  0  0
  5 25  1  0  0  0  0
  6  5  2  0  0  0  0
  7  2  1  0  0  0  0
  8  3  1  0  0  0  0
  9 10  2  0  0  0  0
 10 14  1  0  0  0  0
 10 11  1  0  0  0  0
 11 15  1  0  0  0  0
 12 11  2  0  0  0  0
 12  1  1  0  0  0  0
 13  9  1  0  0  0  0
 13 12  1  0  0  0  0
 16 21  1  0  0  0  0
 17 16  2  0  0  0  0
 17 18  1  0  0  0  0
 18 24  1  0  0  0  0
 18 19  2  0  0  0  0
 20 19  1  0  0  0  0
 20  9  1  0  0  0  0
 21 20  2  0  0  0  0
 22 16  1  0  0  0  0
 23 17  1  0  0  0  0
 25 26  2  0  0  0  0
 27 30  1  6  0  0  0
 27 25  1  0  0  0  0
 27 28  1  0  0  0  0
 27 29  1  0  0  0  0
 28 29  1  0  0  0  0
 28 32  1  0  0  0  0
 29 33  1  1  0  0  0
 31 28  1  0  0  0  0
 34 29  1  0  0  0  0
 34 35  1  0  0  0  0
 36 35  1  0  0  0  0
 37 36  1  0  0  0  0
 38 37  1  0  0  0  0
 38 34  1  0  0  0  0
M  END
>  <minimizedAffinity>
-6.88475084

$$$$

 OpenBabel03212521013D

 38 42  0  0  1  0  0  0  0  0999 V2000
   42.3010   73.7050   60.4170 C   0  0  0  0  0  0  0  0  0  0  0  0
   43.4360   73.8750   59.6790 C   0  0  0  0  0  0  0  0  0  0  0  0
   43.4350   75.1080   58.9980 C   0  0  0  0  0  0  0  0  0  0  0  0
   42.4410   76.0140   59.0600 N   0  0  0  0  0  0  0  0  0  0  0  0
   41.3520   75.7330   59.8320 C   0  0  0  0  0  0  0  0  0  0  0  0
   41.2830   74.5670   60.5160 N   0  0  0  0  0  0  0  0  0  0  0  0
   44.2500   73.1890   59.5980 H   0  0  0  0  0  0  0  0  0  0  0  0
   44.2800   75.3870   58.3650 H   0  0  0  0  0  0  0  0  0  0  0  0
   41.9560   69.9160   61.8850 C   0  0  0  0  0  0  0  0  0  0  0  0
   41.8630   70.8630   62.8820 C   0  0  0  0  0  0  0  0  0  0  0  0
   41.9640   72.1580   62.5080 C   0  0  0  0  0  0  0  0  0  0  0  0
   42.1500   72.4820   61.1820 C   0  0  0  0  0  0  0  0  0  0  0  0
   42.1950   70.8420   60.3490 S   0  0  0  0  0  0  0  0  0  0  0  0
   41.7150   70.6070   63.9260 H   0  0  0  0  0  0  0  0  0  0  0  0
   41.9170   73.0430   63.1290 H   0  0  0  0  0  0  0  0  0  0  0  0
   41.0500   66.7170   63.4420 C   0  0  0  0  0  0  0  0  0  0  0  0
   41.7010   65.7660   62.6100 C   0  0  0  0  0  0  0  0  0  0  0  0
   42.4460   66.2300   61.5160 C   0  0  0  0  0  0  0  0  0  0  0  0
   42.5070   67.5600   61.3080 N   0  0  0  0  0  0  0  0  0  0  0  0
   41.8710   68.4490   62.1240 C   0  0  0  0  0  0  0  0  0  0  0  0
   41.1630   68.0190   63.1620 N   0  0  0  0  0  0  0  0  0  0  0  0
   40.4690   66.3850   64.2910 H   0  0  0  0  0  0  0  0  0  0  0  0
   41.6300   64.7160   62.8070 H   0  0  0  0  0  0  0  0  0  0  0  0
   42.9630   65.5700   60.8470 H   0  0  0  0  0  0  0  0  0  0  0  0
   40.2970   76.7250   59.8910 C   0  0  0  0  0  0  0  0  0  0  0  0
   40.3030   77.5110   60.8520 O   0  0  0  0  0  0  0  0  0  0  0  0
   39.2130   76.8200   58.8470 C   0  0  1  0  0  0  0  0  0  0  0  0
   39.3000   78.0760   58.0160 C   0  0  0  0  0  0  0  0  0  0  0  0
   39.5630   76.7560   57.4400 C   0  0  2  0  0  0  0  0  0  0  0  0
   38.1790   76.8230   59.3140 H   0  0  0  0  0  0  0  0  0  0  0  0
   38.4110   78.6490   57.7270 H   0  0  0  0  0  0  0  0  0  0  0  0
   40.2120   78.7260   58.1200 H   0  0  0  0  0  0  0  0  0  0  0  0
   40.5970   76.3830   57.2180 H   0  0  0  0  0  0  0  0  0  0  0  0
   38.5820   76.2920   56.3880 C   0  0  0  0  0  3  0  0  0  0  0  0
   37.5910   75.2960   56.9300 C   0  0  0  0  0  2  0  0  0  0  0  0
   36.6210   75.1910   55.7500 C   0  0  0  0  0  2  0  0  0  0  0  0
   36.6060   76.5810   55.1510 C   0  0  0  0  0  2  0  0  0  0  0  0
   37.6910   77.3700   55.8640 C   0  0  0  0  0  2  0  0  0  0  0  0
  1  6  1  0  0  0  0
  1 12  1  0  0  0  0
  2  1  2  0  0  0  0
  3  4  2  0  0  0  0
  3  2  1  0  0  0  0
  4  5  1  0  0  0  0
  5 25  1  0  0  0  0
  5  6  2  0  0  0  0
  7  2  1  0  0  0  0
  8  3  1  0  0  0  0
  9 20  1  0  0  0  0
  9 10  2  0  0  0  0
 10 14  1  0  0  0  0
 11 10  1  0  0  0  0
 11 15  1  0  0  0  0
 12 11  2  0  0  0  0
 13 12  1  0  0  0  0
 13  9  1  0  0  0  0
 16 22  1  0  0  0  0
 17 23  1  0  0  0  0
 17 16  2  0  0  0  0
 18 17  1  0  0  0  0
 19 18  2  0  0  0  0
 19 20  1  0  0  0  0
 20 21  2  0  0  0  0
 21 16  1  0  0  0  0
 24 18  1  0  0  0  0
 25 26  2  0  0  0  0
 27 30  1  1  0  0  0
 27 25  1  0  0  0  0
 28 32  1  0  0  0  0
 28 27  1  0  0  0  0
 29 33  1  6  0  0  0
 29 28  1  0  0  0  0
 29 27  1  0  0  0  0
 31 28  1  0  0  0  0
 34 35  1  0  0  0  0
 34 29  1  0  0  0  0
 36 35  1  0  0  0  0
 37 36  1  0  0  0  0
 37 38  1  0  0  0  0
 38 34  1  0  0  0  0
M  END
>  <minimizedAffinity>
-6.56267643

$$$$

 OpenBabel03212521013D

 38 42  0  0  1  0  0  0  0  0999 V2000
   40.4340   72.9340   59.7850 C   0  0  0  0  0  0  0  0  0  0  0  0
   40.0560   73.5170   60.9590 C   0  0  0  0  0  0  0  0  0  0  0  0
   40.7630   72.9870   62.0560 C   0  0  0  0  0  0  0  0  0  0  0  0
   41.7000   72.0240   61.9660 N   0  0  0  0  0  0  0  0  0  0  0  0
   41.9960   71.5140   60.7350 C   0  0  0  0  0  0  0  0  0  0  0  0
   41.3550   71.9760   59.6350 N   0  0  0  0  0  0  0  0  0  0  0  0
   39.3210   74.2820   61.0820 H   0  0  0  0  0  0  0  0  0  0  0  0
   40.5690   73.3550   63.0640 H   0  0  0  0  0  0  0  0  0  0  0  0
   38.4490   74.7940   56.7460 C   0  0  0  0  0  0  0  0  0  0  0  0
   38.9680   73.5800   56.3530 C   0  0  0  0  0  0  0  0  0  0  0  0
   39.6480   72.8740   57.2830 C   0  0  0  0  0  0  0  0  0  0  0  0
   39.7970   73.3740   58.5580 C   0  0  0  0  0  0  0  0  0  0  0  0
   38.9140   74.9870   58.4850 S   0  0  0  0  0  0  0  0  0  0  0  0
   38.8490   73.1860   55.3480 H   0  0  0  0  0  0  0  0  0  0  0  0
   40.1280   71.9090   57.1770 H   0  0  0  0  0  0  0  0  0  0  0  0
   36.7130   76.0350   53.7590 C   0  0  0  0  0  0  0  0  0  0  0  0
   36.2840   77.3300   54.1590 C   0  0  0  0  0  0  0  0  0  0  0  0
   36.5920   77.7680   55.4560 C   0  0  0  0  0  0  0  0  0  0  0  0
   37.2810   76.9360   56.2600 N   0  0  0  0  0  0  0  0  0  0  0  0
   37.6800   75.6980   55.8480 C   0  0  0  0  0  0  0  0  0  0  0  0
   37.3930   75.2740   54.6230 N   0  0  0  0  0  0  0  0  0  0  0  0
   36.4880   75.6740   52.7650 H   0  0  0  0  0  0  0  0  0  0  0  0
   35.7370   77.9640   53.4910 H   0  0  0  0  0  0  0  0  0  0  0  0
   36.3000   78.7320   55.8240 H   0  0  0  0  0  0  0  0  0  0  0  0
   43.0120   70.4840   60.6610 C   0  0  0  0  0  0  0  0  0  0  0  0
   44.1180   70.8040   60.1980 O   0  0  0  0  0  0  0  0  0  0  0  0
   42.7640   69.0660   61.1110 C   0  0  1  0  0  0  0  0  0  0  0  0
   43.7100   68.6170   62.1970 C   0  0  0  0  0  0  0  0  0  0  0  0
   42.2830   68.8140   62.4570 C   0  0  2  0  0  0  0  0  0  0  0  0
   42.8890   68.3270   60.2600 H   0  0  0  0  0  0  0  0  0  0  0  0
   44.1520   67.6130   62.2100 H   0  0  0  0  0  0  0  0  0  0  0  0
   44.3790   69.3830   62.6780 H   0  0  0  0  0  0  0  0  0  0  0  0
   41.8800   69.7090   63.0010 H   0  0  0  0  0  0  0  0  0  0  0  0
   41.5030   67.5680   62.8110 C   0  0  0  0  0  3  0  0  0  0  0  0
   40.3060   67.8700   63.6740 C   0  0  0  0  0  2  0  0  0  0  0  0
   39.6070   66.5080   63.6740 C   0  0  0  0  0  2  0  0  0  0  0  0
   39.8880   65.9400   62.2980 C   0  0  0  0  0  2  0  0  0  0  0  0
   40.8820   66.8820   61.6390 C   0  0  0  0  0  2  0  0  0  0  0  0
  1  2  1  0  0  0  0
  2  7  1  0  0  0  0
  2  3  2  0  0  0  0
  3  8  1  0  0  0  0
  4  3  1  0  0  0  0
  5  4  2  0  0  0  0
  6  1  2  0  0  0  0
  6  5  1  0  0  0  0
  9 13  1  0  0  0  0
 10  9  2  0  0  0  0
 10 11  1  0  0  0  0
 11 12  2  0  0  0  0
 12  1  1  0  0  0  0
 13 12  1  0  0  0  0
 14 10  1  0  0  0  0
 15 11  1  0  0  0  0
 16 17  2  0  0  0  0
 16 21  1  0  0  0  0
 17 18  1  0  0  0  0
 18 24  1  0  0  0  0
 18 19  2  0  0  0  0
 20 19  1  0  0  0  0
 20  9  1  0  0  0  0
 21 20  2  0  0  0  0
 22 16  1  0  0  0  0
 23 17  1  0  0  0  0
 25  5  1  0  0  0  0
 25 27  1  0  0  0  0
 26 25  2  0  0  0  0
 27 30  1  6  0  0  0
 27 28  1  0  0  0  0
 27 29  1  0  0  0  0
 28 31  1  0  0  0  0
 28 29  1  0  0  0  0
 28 32  1  0  0  0  0
 29 34  1  0  0  0  0
 29 33  1  1  0  0  0
 34 35  1  0  0  0  0
 35 36  1  0  0  0  0
 37 36  1  0  0  0  0
 38 37  1  0  0  0  0
 38 34  1  0  0  0  0
M  END
>  <minimizedAffinity>
-6.46082354

$$$$

 OpenBabel03212521013D

 38 42  0  0  1  0  0  0  0  0999 V2000
   39.7500   75.3560   59.4290 C   0  0  0  0  0  0  0  0  0  0  0  0
   40.1460   76.6050   59.8090 C   0  0  0  0  0  0  0  0  0  0  0  0
   39.6580   77.5960   58.9370 C   0  0  0  0  0  0  0  0  0  0  0  0
   38.8920   77.3520   57.8560 N   0  0  0  0  0  0  0  0  0  0  0  0
   38.5580   76.0590   57.5730 C   0  0  0  0  0  0  0  0  0  0  0  0
   38.9920   75.0540   58.3690 N   0  0  0  0  0  0  0  0  0  0  0  0
   40.7510   76.8500   60.6550 H   0  0  0  0  0  0  0  0  0  0  0  0
   39.8920   78.6470   59.1120 H   0  0  0  0  0  0  0  0  0  0  0  0
   41.4710   72.0760   61.1350 C   0  0  0  0  0  0  0  0  0  0  0  0
   40.4130   72.5480   61.8820 C   0  0  0  0  0  0  0  0  0  0  0  0
   39.7650   73.6350   61.4080 C   0  0  0  0  0  0  0  0  0  0  0  0
   40.1700   74.2230   60.2300 C   0  0  0  0  0  0  0  0  0  0  0  0
   41.5920   73.1790   59.7050 S   0  0  0  0  0  0  0  0  0  0  0  0
   40.0940   72.0840   62.8100 H   0  0  0  0  0  0  0  0  0  0  0  0
   38.9190   74.1550   61.8400 H   0  0  0  0  0  0  0  0  0  0  0  0
   43.7700   69.2300   60.8380 C   0  0  0  0  0  0  0  0  0  0  0  0
   43.8040   68.7130   62.1610 C   0  0  0  0  0  0  0  0  0  0  0  0
   43.0380   69.3480   63.1500 C   0  0  0  0  0  0  0  0  0  0  0  0
   42.3060   70.4210   62.7940 N   0  0  0  0  0  0  0  0  0  0  0  0
   42.2930   70.8950   61.5140 C   0  0  0  0  0  0  0  0  0  0  0  0
   43.0150   70.3000   60.5720 N   0  0  0  0  0  0  0  0  0  0  0  0
   44.3520   68.7590   60.0570 H   0  0  0  0  0  0  0  0  0  0  0  0
   44.3990   67.8570   62.4070 H   0  0  0  0  0  0  0  0  0  0  0  0
   43.0160   69.0120   64.1680 H   0  0  0  0  0  0  0  0  0  0  0  0
   37.7270   75.8200   56.4110 C   0  0  0  0  0  0  0  0  0  0  0  0
   36.6580   76.4460   56.3320 O   0  0  0  0  0  0  0  0  0  0  0  0
   38.1110   74.8450   55.3250 C   0  0  1  0  0  0  0  0  0  0  0  0
   38.7600   75.5100   54.1370 C   0  0  0  0  0  0  0  0  0  0  0  0
   39.5130   74.6230   55.0240 C   0  0  2  0  0  0  0  0  0  0  0  0
   37.2090   74.2900   54.9200 H   0  0  0  0  0  0  0  0  0  0  0  0
   38.5340   75.2160   53.1050 H   0  0  0  0  0  0  0  0  0  0  0  0
   39.0440   76.5960   54.2180 H   0  0  0  0  0  0  0  0  0  0  0  0
   40.2380   75.0010   55.7930 H   0  0  0  0  0  0  0  0  0  0  0  0
   40.0070   73.3370   54.4010 C   0  0  0  0  0  3  0  0  0  0  0  0
   39.5140   72.1190   55.1370 C   0  0  0  0  0  2  0  0  0  0  0  0
   39.9590   71.0110   54.1800 C   0  0  0  0  0  2  0  0  0  0  0  0
   39.8230   71.6250   52.8020 C   0  0  0  0  0  2  0  0  0  0  0  0
   39.5030   73.0950   53.0170 C   0  0  0  0  0  2  0  0  0  0  0  0
  1  2  1  0  0  0  0
  1 12  1  0  0  0  0
  2  7  1  0  0  0  0
  3  8  1  0  0  0  0
  3  2  2  0  0  0  0
  4  3  1  0  0  0  0
  5  4  2  0  0  0  0
  5  6  1  0  0  0  0
  6  1  2  0  0  0  0
  9 20  1  0  0  0  0
  9 10  2  0  0  0  0
 10 14  1  0  0  0  0
 11 15  1  0  0  0  0
 11 10  1  0  0  0  0
 12 11  2  0  0  0  0
 13 12  1  0  0  0  0
 13  9  1  0  0  0  0
 16 17  1  0  0  0  0
 17 23  1  0  0  0  0
 17 18  2  0  0  0  0
 18 24  1  0  0  0  0
 19 18  1  0  0  0  0
 20 19  2  0  0  0  0
 21 16  2  0  0  0  0
 21 20  1  0  0  0  0
 22 16  1  0  0  0  0
 25  5  1  0  0  0  0
 26 25  2  0  0  0  0
 27 30  1  6  0  0  0
 27 25  1  0  0  0  0
 28 32  1  0  0  0  0
 28 29  1  0  0  0  0
 28 27  1  0  0  0  0
 29 27  1  0  0  0  0
 29 33  1  1  0  0  0
 31 28  1  0  0  0  0
 34 29  1  0  0  0  0
 34 35  1  0  0  0  0
 36 35  1  0  0  0  0
 37 38  1  0  0  0  0
 37 36  1  0  0  0  0
 38 34  1  0  0  0  0
M  END
>  <minimizedAffinity>
-6.2104125

$$$$

 OpenBabel03212521013D

 38 42  0  0  1  0  0  0  0  0999 V2000
   42.3110   73.5530   60.1230 C   0  0  0  0  0  0  0  0  0  0  0  0
   43.5220   74.0690   59.7660 C   0  0  0  0  0  0  0  0  0  0  0  0
   43.3830   75.2480   59.0080 C   0  0  0  0  0  0  0  0  0  0  0  0
   42.2050   75.8060   58.6720 N   0  0  0  0  0  0  0  0  0  0  0  0
   41.0550   75.1980   59.0860 C   0  0  0  0  0  0  0  0  0  0  0  0
   41.1110   74.0600   59.8180 N   0  0  0  0  0  0  0  0  0  0  0  0
   44.4810   73.6660   60.0070 H   0  0  0  0  0  0  0  0  0  0  0  0
   44.2670   75.7790   58.6500 H   0  0  0  0  0  0  0  0  0  0  0  0
   42.2360   69.7740   61.6540 C   0  0  0  0  0  0  0  0  0  0  0  0
   42.2410   70.7300   62.6460 C   0  0  0  0  0  0  0  0  0  0  0  0
   42.2650   72.0220   62.2520 C   0  0  0  0  0  0  0  0  0  0  0  0
   42.2830   72.3360   60.9110 C   0  0  0  0  0  0  0  0  0  0  0  0
   42.2660   70.6870   60.0920 S   0  0  0  0  0  0  0  0  0  0  0  0
   42.2260   70.4820   63.7030 H   0  0  0  0  0  0  0  0  0  0  0  0
   42.2720   72.9120   62.8670 H   0  0  0  0  0  0  0  0  0  0  0  0
   40.9750   66.3420   61.9870 C   0  0  0  0  0  0  0  0  0  0  0  0
   42.1290   65.6200   62.3940 C   0  0  0  0  0  0  0  0  0  0  0  0
   43.3370   66.3170   62.5490 C   0  0  0  0  0  0  0  0  0  0  0  0
   43.3420   67.6420   62.3020 N   0  0  0  0  0  0  0  0  0  0  0  0
   42.2160   68.3080   61.9130 C   0  0  0  0  0  0  0  0  0  0  0  0
   41.0690   67.6570   61.7640 N   0  0  0  0  0  0  0  0  0  0  0  0
   40.0320   65.8280   61.8600 H   0  0  0  0  0  0  0  0  0  0  0  0
   42.0880   64.5670   62.5810 H   0  0  0  0  0  0  0  0  0  0  0  0
   44.2470   65.8370   62.8520 H   0  0  0  0  0  0  0  0  0  0  0  0
   39.7980   75.8190   58.7200 C   0  0  0  0  0  0  0  0  0  0  0  0
   39.2370   76.5240   59.5740 O   0  0  0  0  0  0  0  0  0  0  0  0
   39.1630   75.6270   57.3650 C   0  0  1  0  0  0  0  0  0  0  0  0
   37.6820   75.3520   57.4400 C   0  0  0  0  0  0  0  0  0  0  0  0
   38.2020   76.6000   56.8790 C   0  0  2  0  0  0  0  0  0  0  0  0
   39.6170   74.7500   56.8080 H   0  0  0  0  0  0  0  0  0  0  0  0
   37.1910   74.6090   56.8010 H   0  0  0  0  0  0  0  0  0  0  0  0
   37.1630   75.4710   58.4320 H   0  0  0  0  0  0  0  0  0  0  0  0
   38.1800   77.5750   57.4350 H   0  0  0  0  0  0  0  0  0  0  0  0
   37.9490   76.8130   55.4040 C   0  0  0  0  0  3  0  0  0  0  0  0
   36.4980   77.0830   55.1060 C   0  0  0  0  0  2  0  0  0  0  0  0
   36.5810   77.4760   53.6290 C   0  0  0  0  0  2  0  0  0  0  0  0
   37.9090   78.1940   53.5040 C   0  0  0  0  0  2  0  0  0  0  0  0
   38.6190   78.0210   54.8370 C   0  0  0  0  0  2  0  0  0  0  0  0
  1 12  1  0  0  0  0
  2  7  1  0  0  0  0
  2  1  2  0  0  0  0
  3  2  1  0  0  0  0
  4  3  2  0  0  0  0
  4  5  1  0  0  0  0
  5  6  2  0  0  0  0
  6  1  1  0  0  0  0
  8  3  1  0  0  0  0
  9 20  1  0  0  0  0
  9 10  2  0  0  0  0
 10 14  1  0  0  0  0
 11 10  1  0  0  0  0
 11 15  1  0  0  0  0
 12 11  2  0  0  0  0
 13 12  1  0  0  0  0
 13  9  1  0  0  0  0
 16 17  1  0  0  0  0
 17 18  2  0  0  0  0
 17 23  1  0  0  0  0
 18 24  1  0  0  0  0
 19 18  1  0  0  0  0
 20 19  2  0  0  0  0
 21 20  1  0  0  0  0
 21 16  2  0  0  0  0
 22 16  1  0  0  0  0
 25  5  1  0  0  0  0
 25 26  2  0  0  0  0
 27 30  1  6  0  0  0
 27 28  1  0  0  0  0
 27 25  1  0  0  0  0
 28 32  1  0  0  0  0
 29 27  1  0  0  0  0
 29 33  1  1  0  0  0
 29 28  1  0  0  0  0
 31 28  1  0  0  0  0
 34 29  1  0  0  0  0
 35 34  1  0  0  0  0
 36 35  1  0  0  0  0
 37 36  1  0  0  0  0
 37 38  1  0  0  0  0
 38 34  1  0  0  0  0
M  END
>  <minimizedAffinity>
-6.09201479

$$$$

 OpenBabel03212521013D

 38 42  0  0  1  0  0  0  0  0999 V2000
   38.5180   74.6370   55.5980 C   0  0  0  0  0  0  0  0  0  0  0  0
   37.3930   75.2180   55.0890 C   0  0  0  0  0  0  0  0  0  0  0  0
   36.9450   76.2820   55.8940 C   0  0  0  0  0  0  0  0  0  0  0  0
   37.5450   76.6850   57.0300 N   0  0  0  0  0  0  0  0  0  0  0  0
   38.6660   76.0260   57.4440 C   0  0  0  0  0  0  0  0  0  0  0  0
   39.1550   74.9920   56.7190 N   0  0  0  0  0  0  0  0  0  0  0  0
   36.8820   74.9360   54.1940 H   0  0  0  0  0  0  0  0  0  0  0  0
   36.0540   76.8460   55.6140 H   0  0  0  0  0  0  0  0  0  0  0  0
   40.1980   71.1660   54.2730 C   0  0  0  0  0  0  0  0  0  0  0  0
   39.9960   72.0630   53.2470 C   0  0  0  0  0  0  0  0  0  0  0  0
   39.4420   73.2520   53.5720 C   0  0  0  0  0  0  0  0  0  0  0  0
   39.1080   73.5240   54.8810 C   0  0  0  0  0  0  0  0  0  0  0  0
   39.6000   71.9890   55.7690 S   0  0  0  0  0  0  0  0  0  0  0  0
   40.2610   71.8480   52.2160 H   0  0  0  0  0  0  0  0  0  0  0  0
   39.2040   74.0830   52.9210 H   0  0  0  0  0  0  0  0  0  0  0  0
   42.4260   68.2810   54.7130 C   0  0  0  0  0  0  0  0  0  0  0  0
   41.9210   67.3460   53.7710 C   0  0  0  0  0  0  0  0  0  0  0  0
   40.8140   67.7100   52.9900 C   0  0  0  0  0  0  0  0  0  0  0  0
   40.2830   68.9360   53.1750 N   0  0  0  0  0  0  0  0  0  0  0  0
   40.7910   69.8130   54.0880 C   0  0  0  0  0  0  0  0  0  0  0  0
   41.8380   69.4760   54.8310 N   0  0  0  0  0  0  0  0  0  0  0  0
   43.2780   68.0240   55.3280 H   0  0  0  0  0  0  0  0  0  0  0  0
   42.3690   66.3810   53.6520 H   0  0  0  0  0  0  0  0  0  0  0  0
   40.3800   67.0550   52.2600 H   0  0  0  0  0  0  0  0  0  0  0  0
   39.3000   76.4810   58.6650 C   0  0  0  0  0  0  0  0  0  0  0  0
   39.3510   77.7050   58.8620 O   0  0  0  0  0  0  0  0  0  0  0  0
   39.8940   75.5300   59.6740 C   0  0  1  0  0  0  0  0  0  0  0  0
   39.1090   75.4660   60.9600 C   0  0  0  0  0  0  0  0  0  0  0  0
   39.1690   74.3280   60.0410 C   0  0  2  0  0  0  0  0  0  0  0  0
   40.9490   75.8300   59.9650 H   0  0  0  0  0  0  0  0  0  0  0  0
   39.5950   75.4230   61.9420 H   0  0  0  0  0  0  0  0  0  0  0  0
   38.1060   75.9740   61.0030 H   0  0  0  0  0  0  0  0  0  0  0  0
   38.3220   74.0490   59.3600 H   0  0  0  0  0  0  0  0  0  0  0  0
   39.8690   73.0960   60.5670 C   0  0  0  0  0  3  0  0  0  0  0  0
   40.8040   72.4920   59.5520 C   0  0  0  0  0  2  0  0  0  0  0  0
   41.5170   71.4450   60.4120 C   0  0  0  0  0  2  0  0  0  0  0  0
   41.6040   72.0800   61.7840 C   0  0  0  0  0  2  0  0  0  0  0  0
   40.7810   73.3570   61.7210 C   0  0  0  0  0  2  0  0  0  0  0  0
  1  6  1  0  0  0  0
  2  1  2  0  0  0  0
  2  3  1  0  0  0  0
  3  4  2  0  0  0  0
  4  5  1  0  0  0  0
  5 25  1  0  0  0  0
  6  5  2  0  0  0  0
  7  2  1  0  0  0  0
  8  3  1  0  0  0  0
  9 13  1  0  0  0  0
 10 11  1  0  0  0  0
 10  9  2  0  0  0  0
 11 12  2  0  0  0  0
 12  1  1  0  0  0  0
 12 13  1  0  0  0  0
 14 10  1  0  0  0  0
 15 11  1  0  0  0  0
 16 21  1  0  0  0  0
 16 22  1  0  0  0  0
 17 16  2  0  0  0  0
 18 19  2  0  0  0  0
 18 17  1  0  0  0  0
 19 20  1  0  0  0  0
 20  9  1  0  0  0  0
 20 21  2  0  0  0  0
 23 17  1  0  0  0  0
 24 18  1  0  0  0  0
 25 26  2  0  0  0  0
 25 27  1  0  0  0  0
 27 30  1  1  0  0  0
 27 29  1  0  0  0  0
 27 28  1  0  0  0  0
 28 32  1  0  0  0  0
 28 31  1  0  0  0  0
 29 33  1  6  0  0  0
 29 34  1  0  0  0  0
 29 28  1  0  0  0  0
 34 38  1  0  0  0  0
 35 36  1  0  0  0  0
 35 34  1  0  0  0  0
 36 37  1  0  0  0  0
 38 37  1  0  0  0  0
M  END
>  <minimizedAffinity>
-5.98864222

$$$$

 OpenBabel03212521013D

 38 42  0  0  1  0  0  0  0  0999 V2000
   39.5150   75.8970   59.2300 C   0  0  0  0  0  0  0  0  0  0  0  0
   40.0100   77.1140   59.5970 C   0  0  0  0  0  0  0  0  0  0  0  0
   39.6440   78.1220   58.6850 C   0  0  0  0  0  0  0  0  0  0  0  0
   38.8980   77.9200   57.5820 N   0  0  0  0  0  0  0  0  0  0  0  0
   38.4590   76.6550   57.3160 C   0  0  0  0  0  0  0  0  0  0  0  0
   38.7720   75.6360   58.1490 N   0  0  0  0  0  0  0  0  0  0  0  0
   40.6040   77.3250   60.4590 H   0  0  0  0  0  0  0  0  0  0  0  0
   39.9660   79.1520   58.8450 H   0  0  0  0  0  0  0  0  0  0  0  0
   40.9730   72.6240   61.1790 C   0  0  0  0  0  0  0  0  0  0  0  0
   39.7570   73.0250   61.6880 C   0  0  0  0  0  0  0  0  0  0  0  0
   39.1790   74.1040   61.1150 C   0  0  0  0  0  0  0  0  0  0  0  0
   39.8030   74.7510   60.0710 C   0  0  0  0  0  0  0  0  0  0  0  0
   41.3520   73.7830   59.8420 S   0  0  0  0  0  0  0  0  0  0  0  0
   39.2650   72.5150   62.5100 H   0  0  0  0  0  0  0  0  0  0  0  0
   38.2360   74.5730   61.3650 H   0  0  0  0  0  0  0  0  0  0  0  0
   43.3590   69.8360   61.2870 C   0  0  0  0  0  0  0  0  0  0  0  0
   43.1760   69.3150   62.5960 C   0  0  0  0  0  0  0  0  0  0  0  0
   42.2350   69.9270   63.4370 C   0  0  0  0  0  0  0  0  0  0  0  0
   41.5480   70.9840   62.9580 N   0  0  0  0  0  0  0  0  0  0  0  0
   41.7460   71.4620   61.6960 C   0  0  0  0  0  0  0  0  0  0  0  0
   42.6350   70.8890   60.8930 N   0  0  0  0  0  0  0  0  0  0  0  0
   44.0790   69.3830   60.6200 H   0  0  0  0  0  0  0  0  0  0  0  0
   43.7400   68.4730   62.9420 H   0  0  0  0  0  0  0  0  0  0  0  0
   42.0450   69.5870   64.4360 H   0  0  0  0  0  0  0  0  0  0  0  0
   37.6510   76.4610   56.1290 C   0  0  0  0  0  0  0  0  0  0  0  0
   36.5790   77.0820   56.0580 O   0  0  0  0  0  0  0  0  0  0  0  0
   38.0640   75.5400   55.0080 C   0  0  1  0  0  0  0  0  0  0  0  0
   38.7630   76.2570   53.8800 C   0  0  0  0  0  0  0  0  0  0  0  0
   39.4740   75.3150   54.7460 C   0  0  2  0  0  0  0  0  0  0  0  0
   37.1710   75.0180   54.5420 H   0  0  0  0  0  0  0  0  0  0  0  0
   38.5710   76.0190   52.8270 H   0  0  0  0  0  0  0  0  0  0  0  0
   39.0560   77.3340   54.0270 H   0  0  0  0  0  0  0  0  0  0  0  0
   40.1730   75.6430   55.5590 H   0  0  0  0  0  0  0  0  0  0  0  0
   39.9760   74.0560   54.0740 C   0  0  0  0  0  3  0  0  0  0  0  0
   39.1950   73.7220   52.8310 C   0  0  0  0  0  2  0  0  0  0  0  0
   40.0450   72.5830   52.2620 C   0  0  0  0  0  2  0  0  0  0  0  0
   41.4660   72.9510   52.6340 C   0  0  0  0  0  2  0  0  0  0  0  0
   41.3720   74.1570   53.5540 C   0  0  0  0  0  2  0  0  0  0  0  0
  1  2  1  0  0  0  0
  1 12  1  0  0  0  0
  2  7  1  0  0  0  0
  3  8  1  0  0  0  0
  3  2  2  0  0  0  0
  4  3  1  0  0  0  0
  5  4  2  0  0  0  0
  5  6  1  0  0  0  0
  6  1  2  0  0  0  0
  9 10  2  0  0  0  0
  9 20  1  0  0  0  0
 10 14  1  0  0  0  0
 11 15  1  0  0  0  0
 11 10  1  0  0  0  0
 12 11  2  0  0  0  0
 13 12  1  0  0  0  0
 13  9  1  0  0  0  0
 16 17  1  0  0  0  0
 17 23  1  0  0  0  0
 17 18  2  0  0  0  0
 18 24  1  0  0  0  0
 19 18  1  0  0  0  0
 20 19  2  0  0  0  0
 21 16  2  0  0  0  0
 21 20  1  0  0  0  0
 22 16  1  0  0  0  0
 25  5  1  0  0  0  0
 26 25  2  0  0  0  0
 27 30  1  6  0  0  0
 27 25  1  0  0  0  0
 28 32  1  0  0  0  0
 28 29  1  0  0  0  0
 28 27  1  0  0  0  0
 29 27  1  0  0  0  0
 29 33  1  1  0  0  0
 31 28  1  0  0  0  0
 34 29  1  0  0  0  0
 35 34  1  0  0  0  0
 36 37  1  0  0  0  0
 36 35  1  0  0  0  0
 37 38  1  0  0  0  0
 38 34  1  0  0  0  0
M  END
>  <minimizedAffinity>
-5.92319441

$$$$

 OpenBabel03212521013D

 38 42  0  0  1  0  0  0  0  0999 V2000
   41.2810   72.2320   61.1200 C   0  0  0  0  0  0  0  0  0  0  0  0
   41.2500   72.0100   62.4650 C   0  0  0  0  0  0  0  0  0  0  0  0
   42.1350   70.9830   62.8450 C   0  0  0  0  0  0  0  0  0  0  0  0
   42.9200   70.2980   61.9920 N   0  0  0  0  0  0  0  0  0  0  0  0
   42.8660   70.6080   60.6640 C   0  0  0  0  0  0  0  0  0  0  0  0
   42.0370   71.5850   60.2260 N   0  0  0  0  0  0  0  0  0  0  0  0
   40.6470   72.5250   63.1800 H   0  0  0  0  0  0  0  0  0  0  0  0
   42.2220   70.6910   63.8930 H   0  0  0  0  0  0  0  0  0  0  0  0
   39.0720   74.8350   58.8880 C   0  0  0  0  0  0  0  0  0  0  0  0
   38.9450   75.0800   60.2380 C   0  0  0  0  0  0  0  0  0  0  0  0
   39.6370   74.2760   61.0750 C   0  0  0  0  0  0  0  0  0  0  0  0
   40.4240   73.2640   60.5690 C   0  0  0  0  0  0  0  0  0  0  0  0
   40.1990   73.4250   58.7490 S   0  0  0  0  0  0  0  0  0  0  0  0
   38.3260   75.8780   60.6360 H   0  0  0  0  0  0  0  0  0  0  0  0
   39.6720   74.3020   62.1560 H   0  0  0  0  0  0  0  0  0  0  0  0
   36.7580   75.6710   56.1630 C   0  0  0  0  0  0  0  0  0  0  0  0
   37.0860   77.0230   55.8750 C   0  0  0  0  0  0  0  0  0  0  0  0
   38.1000   77.6420   56.6210 C   0  0  0  0  0  0  0  0  0  0  0  0
   38.7150   76.9190   57.5790 N   0  0  0  0  0  0  0  0  0  0  0  0
   38.3780   75.6220   57.8330 C   0  0  0  0  0  0  0  0  0  0  0  0
   37.4190   75.0280   57.1320 N   0  0  0  0  0  0  0  0  0  0  0  0
   35.9800   75.1710   55.6030 H   0  0  0  0  0  0  0  0  0  0  0  0
   36.5760   77.5660   55.1060 H   0  0  0  0  0  0  0  0  0  0  0  0
   38.4000   78.6590   56.4580 H   0  0  0  0  0  0  0  0  0  0  0  0
   43.7250   69.8640   59.7650 C   0  0  0  0  0  0  0  0  0  0  0  0
   44.8760   69.6100   60.1530 O   0  0  0  0  0  0  0  0  0  0  0  0
   43.2720   69.4100   58.4000 C   0  0  1  0  0  0  0  0  0  0  0  0
   43.0420   67.9220   58.3180 C   0  0  0  0  0  0  0  0  0  0  0  0
   41.9340   68.8750   58.2290 C   0  0  2  0  0  0  0  0  0  0  0  0
   44.0390   69.6540   57.6000 H   0  0  0  0  0  0  0  0  0  0  0  0
   43.3460   67.3300   57.4470 H   0  0  0  0  0  0  0  0  0  0  0  0
   43.0610   67.3220   59.2700 H   0  0  0  0  0  0  0  0  0  0  0  0
   41.2260   69.0670   59.0770 H   0  0  0  0  0  0  0  0  0  0  0  0
   41.2140   68.9210   56.9000 C   0  0  0  0  0  3  0  0  0  0  0  0
   41.3510   70.2590   56.2230 C   0  0  0  0  0  2  0  0  0  0  0  0
   40.7460   69.9450   54.8520 C   0  0  0  0  0  2  0  0  0  0  0  0
   41.1360   68.5050   54.5890 C   0  0  0  0  0  2  0  0  0  0  0  0
   41.7660   67.9880   55.8730 C   0  0  0  0  0  2  0  0  0  0  0  0
  1  2  1  0  0  0  0
  2  3  2  0  0  0  0
  2  7  1  0  0  0  0
  3  8  1  0  0  0  0
  4  3  1  0  0  0  0
  5  4  2  0  0  0  0
  6  5  1  0  0  0  0
  6  1  2  0  0  0  0
  9 10  2  0  0  0  0
 10 14  1  0  0  0  0
 10 11  1  0  0  0  0
 11 15  1  0  0  0  0
 12 11  2  0  0  0  0
 12  1  1  0  0  0  0
 13  9  1  0  0  0  0
 13 12  1  0  0  0  0
 16 21  1  0  0  0  0
 17 16  2  0  0  0  0
 17 18  1  0  0  0  0
 18 19  2  0  0  0  0
 19 20  1  0  0  0  0
 20  9  1  0  0  0  0
 21 20  2  0  0  0  0
 22 16  1  0  0  0  0
 23 17  1  0  0  0  0
 24 18  1  0  0  0  0
 25 26  2  0  0  0  0
 25  5  1  0  0  0  0
 27 30  1  6  0  0  0
 27 25  1  0  0  0  0
 28 27  1  0  0  0  0
 28 32  1  0  0  0  0
 29 28  1  0  0  0  0
 29 27  1  0  0  0  0
 29 33  1  1  0  0  0
 31 28  1  0  0  0  0
 34 29  1  0  0  0  0
 35 34  1  0  0  0  0
 36 35  1  0  0  0  0
 37 36  1  0  0  0  0
 37 38  1  0  0  0  0
 38 34  1  0  0  0  0
M  END
>  <minimizedAffinity>
-5.89055824

$$$$

 OpenBabel03212521013D

 38 42  0  0  1  0  0  0  0  0999 V2000
   40.3180   73.5070   60.0830 C   0  0  0  0  0  0  0  0  0  0  0  0
   40.4280   73.7570   61.4200 C   0  0  0  0  0  0  0  0  0  0  0  0
   41.0940   72.7140   62.0920 C   0  0  0  0  0  0  0  0  0  0  0  0
   41.5680   71.6030   61.4980 N   0  0  0  0  0  0  0  0  0  0  0  0
   41.3990   71.4610   60.1510 C   0  0  0  0  0  0  0  0  0  0  0  0
   40.7670   72.4240   59.4390 N   0  0  0  0  0  0  0  0  0  0  0  0
   40.0700   74.6200   61.9360 H   0  0  0  0  0  0  0  0  0  0  0  0
   41.2590   72.7720   63.1690 H   0  0  0  0  0  0  0  0  0  0  0  0
   38.3260   75.6760   57.2620 C   0  0  0  0  0  0  0  0  0  0  0  0
   38.7310   76.4590   58.3200 C   0  0  0  0  0  0  0  0  0  0  0  0
   39.4030   75.8430   59.3170 C   0  0  0  0  0  0  0  0  0  0  0  0
   39.6560   74.4910   59.2480 C   0  0  0  0  0  0  0  0  0  0  0  0
   38.8940   74.0010   57.6460 S   0  0  0  0  0  0  0  0  0  0  0  0
   38.5320   77.5250   58.3740 H   0  0  0  0  0  0  0  0  0  0  0  0
   39.8030   76.2750   60.2260 H   0  0  0  0  0  0  0  0  0  0  0  0
   36.7160   75.7780   53.9640 C   0  0  0  0  0  0  0  0  0  0  0  0
   36.2100   77.1040   53.9010 C   0  0  0  0  0  0  0  0  0  0  0  0
   36.4220   77.9570   54.9960 C   0  0  0  0  0  0  0  0  0  0  0  0
   37.0990   77.4720   56.0550 N   0  0  0  0  0  0  0  0  0  0  0  0
   37.5730   76.1930   56.0870 C   0  0  0  0  0  0  0  0  0  0  0  0
   37.3760   75.3790   55.0560 N   0  0  0  0  0  0  0  0  0  0  0  0
   36.5650   75.1010   53.1340 H   0  0  0  0  0  0  0  0  0  0  0  0
   35.6760   77.4550   53.0420 H   0  0  0  0  0  0  0  0  0  0  0  0
   36.0690   78.9690   55.0170 H   0  0  0  0  0  0  0  0  0  0  0  0
   41.9230   70.2620   59.5310 C   0  0  0  0  0  0  0  0  0  0  0  0
   41.9180   70.2090   58.2910 O   0  0  0  0  0  0  0  0  0  0  0  0
   42.4540   69.0990   60.3330 C   0  0  1  0  0  0  0  0  0  0  0  0
   41.4930   67.9390   60.3990 C   0  0  0  0  0  0  0  0  0  0  0  0
   42.7570   67.8460   59.6660 C   0  0  2  0  0  0  0  0  0  0  0  0
   42.6670   69.3920   61.4080 H   0  0  0  0  0  0  0  0  0  0  0  0
   41.3320   67.3630   61.3180 H   0  0  0  0  0  0  0  0  0  0  0  0
   40.5780   67.9610   59.7430 H   0  0  0  0  0  0  0  0  0  0  0  0
   42.8190   67.8990   58.5470 H   0  0  0  0  0  0  0  0  0  0  0  0
   43.7660   66.8650   60.2180 C   0  0  0  0  0  3  0  0  0  0  0  0
   43.8280   66.8950   61.7220 C   0  0  0  0  0  2  0  0  0  0  0  0
   44.7230   65.6840   61.9930 C   0  0  0  0  0  2  0  0  0  0  0  0
   44.3630   64.6980   60.9010 C   0  0  0  0  0  2  0  0  0  0  0  0
   43.4400   65.4340   59.9440 C   0  0  0  0  0  2  0  0  0  0  0  0
  1  2  1  0  0  0  0
  2  7  1  0  0  0  0
  2  3  2  0  0  0  0
  3  8  1  0  0  0  0
  4  3  1  0  0  0  0
  5  4  2  0  0  0  0
  6  1  2  0  0  0  0
  6  5  1  0  0  0  0
  9 13  1  0  0  0  0
  9 10  2  0  0  0  0
 10 14  1  0  0  0  0
 10 11  1  0  0  0  0
 11 15  1  0  0  0  0
 12 11  2  0  0  0  0
 12  1  1  0  0  0  0
 13 12  1  0  0  0  0
 16 21  1  0  0  0  0
 17 16  2  0  0  0  0
 17 18  1  0  0  0  0
 18 24  1  0  0  0  0
 18 19  2  0  0  0  0
 19 20  1  0  0  0  0
 20  9  1  0  0  0  0
 21 20  2  0  0  0  0
 22 16  1  0  0  0  0
 23 17  1  0  0  0  0
 25  5  1  0  0  0  0
 25 27  1  0  0  0  0
 26 25  2  0  0  0  0
 27 28  1  0  0  0  0
 27 30  1  1  0  0  0
 28 31  1  0  0  0  0
 29 33  1  6  0  0  0
 29 34  1  0  0  0  0
 29 27  1  0  0  0  0
 29 28  1  0  0  0  0
 32 28  1  0  0  0  0
 34 35  1  0  0  0  0
 35 36  1  0  0  0  0
 37 36  1  0  0  0  0
 38 34  1  0  0  0  0
 38 37  1  0  0  0  0
M  END
>  <minimizedAffinity>
-5.86544132

$$$$
