
 OpenBabel03212521073D

 32 35  0  0  0  0  0  0  0  0999 V2000
   41.8160   84.2510   61.5680 C   0  0  0  0  0  0  0  0  0  0  0  0
   41.4550   83.9740   62.8750 C   0  0  0  0  0  0  0  0  0  0  0  0
   40.1800   83.5530   63.2080 C   0  0  0  0  0  0  0  0  0  0  0  0
   39.2310   83.4020   62.1990 C   0  0  0  0  0  0  0  0  0  0  0  0
   39.5860   83.6790   60.8780 C   0  0  0  0  0  0  0  0  0  0  0  0
   40.8580   84.0960   60.5680 C   0  0  0  0  0  0  0  0  0  0  0  0
   42.2140   84.1010   63.6410 H   0  0  0  0  0  0  0  0  0  0  0  0
   39.9350   83.3470   64.2380 H   0  0  0  0  0  0  0  0  0  0  0  0
   38.2270   83.0770   62.4080 H   0  0  0  0  0  0  0  0  0  0  0  0
   38.8160   83.5480   60.1220 H   0  0  0  0  0  0  0  0  0  0  0  0
   45.3430   84.1450   60.6340 C   0  0  0  0  0  0  0  0  0  0  0  0
   45.7300   85.4810   60.7120 C   0  0  0  0  0  0  0  0  0  0  0  0
   44.7570   86.4390   61.0940 C   0  0  0  0  0  0  0  0  0  0  0  0
   43.5100   85.9880   61.3590 N   0  0  0  0  0  0  0  0  0  0  0  0
   43.1580   84.6860   61.2770 C   0  0  0  0  0  0  0  0  0  0  0  0
   44.0810   83.7860   60.9160 N   0  0  0  0  0  0  0  0  0  0  0  0
   46.0530   83.3690   60.3460 H   0  0  0  0  0  0  0  0  0  0  0  0
   46.7430   85.7520   60.4850 H   0  0  0  0  0  0  0  0  0  0  0  0
   45.0370   87.4790   61.1610 H   0  0  0  0  0  0  0  0  0  0  0  0
   41.1870   84.3740   59.1770 C   0  0  0  0  0  0  0  0  0  0  0  0
   40.7800   85.6580   58.7950 C   0  0  0  0  0  0  0  0  0  0  0  0
   41.0040   86.1180   57.5010 C   0  0  0  0  0  0  0  0  0  0  0  0
   41.6180   85.2810   56.6580 N   0  0  0  0  0  0  0  0  0  0  0  0
   42.0130   84.0340   57.0310 C   0  0  0  0  0  0  0  0  0  0  0  0
   41.7970   83.5820   58.2890 N   0  0  0  0  0  0  0  0  0  0  0  0
   40.2740   86.3790   59.4480 H   0  0  0  0  0  0  0  0  0  0  0  0
   40.6980   87.1050   57.1880 H   0  0  0  0  0  0  0  0  0  0  0  0
   42.6910   83.1220   56.0850 C   0  0  0  0  0  3  0  0  0  0  0  0
   43.6410   82.2290   56.8630 C   0  0  0  0  0  2  0  0  0  0  0  0
   43.9340   81.0690   55.9800 C   0  0  0  0  0  2  0  0  0  0  0  0
   42.6450   80.8550   55.2400 C   0  0  0  0  0  2  0  0  0  0  0  0
   41.7740   82.0850   55.4800 C   0  0  0  0  0  2  0  0  0  0  0  0
  1  2  1  0  0  0  0
  2  3  2  0  0  0  0
  2  7  1  0  0  0  0
  3  8  1  0  0  0  0
  4  9  1  0  0  0  0
  4  3  1  0  0  0  0
  5  4  2  0  0  0  0
  6  5  1  0  0  0  0
  6  1  2  0  0  0  0
 10  5  1  0  0  0  0
 11 12  2  0  0  0  0
 11 16  1  0  0  0  0
 12 13  1  0  0  0  0
 13 19  1  0  0  0  0
 13 14  2  0  0  0  0
 15 14  1  0  0  0  0
 15  1  1  0  0  0  0
 16 15  2  0  0  0  0
 17 11  1  0  0  0  0
 18 12  1  0  0  0  0
 20  6  1  0  0  0  0
 21 20  1  0  0  0  0
 21 26  1  0  0  0  0
 22 21  2  0  0  0  0
 23 24  2  0  0  0  0
 23 22  1  0  0  0  0
 24 25  1  0  0  0  0
 25 20  2  0  0  0  0
 27 22  1  0  0  0  0
 28 29  1  0  0  0  0
 28 24  1  0  0  0  0
 30 29  1  0  0  0  0
 31 32  1  0  0  0  0
 31 30  1  0  0  0  0
 32 28  1  0  0  0  0
M  END
>  <minimizedAffinity>
-5.40274382

>  <minimizedRMSD>
0.409000725

$$$$
