
 OpenBabel03212520453D

 14 15  0  0  0  0  0  0  0  0999 V2000
   40.1240   81.9740   60.7390 C   0  0  0  0  0  0  0  0  0  0  0  0
   40.2000   82.8640   59.6480 C   0  0  0  0  0  0  0  0  0  0  0  0
   39.5930   84.1120   59.7890 C   0  0  0  0  0  0  0  0  0  0  0  0
   38.9630   84.4020   60.9630 N   0  0  0  0  0  0  0  0  0  0  0  0
   38.9100   83.5240   61.9890 C   0  0  0  0  0  0  0  0  0  0  0  0
   39.4940   82.3110   61.8660 N   0  0  0  0  0  0  0  0  0  0  0  0
   40.7230   82.5550   58.7410 H   0  0  0  0  0  0  0  0  0  0  0  0
   39.6310   84.8070   58.9850 H   0  0  0  0  0  0  0  0  0  0  0  0
   38.3870   83.8530   62.8770 H   0  0  0  0  0  0  0  0  0  0  0  0
   40.7450   80.6400   60.6550 C   0  0  0  0  0  3  0  0  0  0  0  0
   40.3890   79.7340   61.8120 C   0  0  0  0  0  2  0  0  0  0  0  0
   41.0460   78.4400   61.3150 C   0  0  0  0  0  2  0  0  0  0  0  0
   40.8920   78.4680   59.8120 C   0  0  0  0  0  2  0  0  0  0  0  0
   40.3100   79.8280   59.4800 C   0  0  0  0  0  2  0  0  0  0  0  0
  1  6  1  0  0  0  0
  2  3  1  0  0  0  0
  2  1  2  0  0  0  0
  3  4  2  0  0  0  0
  4  5  1  0  0  0  0
  5  9  1  0  0  0  0
  6  5  2  0  0  0  0
  7  2  1  0  0  0  0
  8  3  1  0  0  0  0
 10  1  1  0  0  0  0
 10 11  1  0  0  0  0
 12 11  1  0  0  0  0
 13 12  1  0  0  0  0
 14 13  1  0  0  0  0
 14 10  1  0  0  0  0
M  END
>  <minimizedAffinity>
-4.19855118

>  <minimizedRMSD>
0.406499833

$$$$
