
 OpenBabel03212520243D

 14 15  0  0  0  0  0  0  0  0999 V2000
   42.5550   84.3430   64.0780 C   0  0  0  0  0  0  0  0  0  0  0  0
   42.3170   84.3510   62.6850 C   0  0  0  0  0  0  0  0  0  0  0  0
   41.0110   84.0770   62.2440 C   0  0  0  0  0  0  0  0  0  0  0  0
   40.0520   83.8190   63.1670 N   0  0  0  0  0  0  0  0  0  0  0  0
   40.3120   83.8190   64.4990 C   0  0  0  0  0  0  0  0  0  0  0  0
   41.5630   84.0810   64.9370 N   0  0  0  0  0  0  0  0  0  0  0  0
   43.5550   84.5530   64.4350 H   0  0  0  0  0  0  0  0  0  0  0  0
   43.0760   84.5550   61.9690 H   0  0  0  0  0  0  0  0  0  0  0  0
   39.5640   83.6170   65.2520 H   0  0  0  0  0  0  0  0  0  0  0  0
   40.6990   84.0700   60.8060 C   0  0  0  0  0  0  0  0  0  0  0  0
   41.6290   84.9080   59.9610 C   0  0  0  0  0  0  0  0  0  0  0  0
   40.9280   84.8080   58.6150 C   0  0  0  0  0  0  0  0  0  0  0  0
   39.4590   84.8040   58.9600 C   0  0  0  0  0  0  0  0  0  0  0  0
   39.3630   84.6970   60.4770 C   0  0  0  0  0  0  0  0  0  0  0  0
  1  7  1  0  0  0  0
  1  6  1  0  0  0  0
  2  1  2  0  0  0  0
  3  2  1  0  0  0  0
  3  4  2  0  0  0  0
  4  5  1  0  0  0  0
  5  6  2  0  0  0  0
  5  9  1  0  0  0  0
  8  2  1  0  0  0  0
 10  3  1  0  0  0  0
 11 10  1  0  0  0  0
 12 13  1  0  0  0  0
 12 11  1  0  0  0  0
 13 14  1  0  0  0  0
 14 10  1  0  0  0  0
M  END
>  <minimizedAffinity>
-3.98285985

>  <minimizedRMSD>
3.34542966

$$$$
