
 OpenBabel03212520453D

 14 15  0  0  0  0  0  0  0  0999 V2000
   39.9720   81.8840   60.8750 C   0  0  0  0  0  0  0  0  0  0  0  0
   40.1440   82.6940   59.7330 C   0  0  0  0  0  0  0  0  0  0  0  0
   39.6440   83.9950   59.7840 C   0  0  0  0  0  0  0  0  0  0  0  0
   39.0220   84.4120   60.9230 N   0  0  0  0  0  0  0  0  0  0  0  0
   38.8750   83.6080   61.9990 C   0  0  0  0  0  0  0  0  0  0  0  0
   39.3540   82.3440   61.9650 N   0  0  0  0  0  0  0  0  0  0  0  0
   40.6540   82.2840   58.8590 H   0  0  0  0  0  0  0  0  0  0  0  0
   39.7570   84.6320   58.9400 H   0  0  0  0  0  0  0  0  0  0  0  0
   38.3670   84.0350   62.8530 H   0  0  0  0  0  0  0  0  0  0  0  0
   40.4770   80.4990   60.8870 C   0  0  0  0  0  3  0  0  0  0  0  0
   41.7190   80.3020   60.0470 C   0  0  0  0  0  2  0  0  0  0  0  0
   42.0360   78.8490   60.4250 C   0  0  0  0  0  2  0  0  0  0  0  0
   41.6160   78.7150   61.8720 C   0  0  0  0  0  2  0  0  0  0  0  0
   40.9300   80.0190   62.2260 C   0  0  0  0  0  2  0  0  0  0  0  0
  1 10  1  0  0  0  0
  1  6  1  0  0  0  0
  2  3  1  0  0  0  0
  2  1  2  0  0  0  0
  3  4  2  0  0  0  0
  4  5  1  0  0  0  0
  5  9  1  0  0  0  0
  6  5  2  0  0  0  0
  7  2  1  0  0  0  0
  8  3  1  0  0  0  0
 10 14  1  0  0  0  0
 11 12  1  0  0  0  0
 11 10  1  0  0  0  0
 12 13  1  0  0  0  0
 13 14  1  0  0  0  0
M  END
>  <minimizedAffinity>
-4.17107344

>  <minimizedRMSD>
0.25200507

$$$$
