
 OpenBabel03212520443D

 14 15  0  0  0  0  0  0  0  0999 V2000
   40.1630   81.9870   60.8390 C   0  0  0  0  0  0  0  0  0  0  0  0
   40.2440   82.8340   59.7140 C   0  0  0  0  0  0  0  0  0  0  0  0
   39.6080   84.0720   59.7900 C   0  0  0  0  0  0  0  0  0  0  0  0
   38.9470   84.3970   60.9380 N   0  0  0  0  0  0  0  0  0  0  0  0
   38.8900   83.5600   61.9980 C   0  0  0  0  0  0  0  0  0  0  0  0
   39.5020   82.3560   61.9380 N   0  0  0  0  0  0  0  0  0  0  0  0
   40.7930   82.4990   58.8310 H   0  0  0  0  0  0  0  0  0  0  0  0
   39.6490   84.7340   58.9590 H   0  0  0  0  0  0  0  0  0  0  0  0
   38.3410   83.9130   62.8600 H   0  0  0  0  0  0  0  0  0  0  0  0
   40.8140   80.6650   60.8230 C   0  0  0  0  0  3  0  0  0  0  0  0
   40.6840   79.9130   62.1290 C   0  0  0  0  0  2  0  0  0  0  0  0
   41.3020   78.5760   61.6970 C   0  0  0  0  0  2  0  0  0  0  0  0
   40.9070   78.4050   60.2480 C   0  0  0  0  0  2  0  0  0  0  0  0
   40.2270   79.6980   59.8480 C   0  0  0  0  0  2  0  0  0  0  0  0
  1  6  1  0  0  0  0
  2  3  1  0  0  0  0
  2  1  2  0  0  0  0
  3  4  2  0  0  0  0
  4  5  1  0  0  0  0
  5  9  1  0  0  0  0
  6  5  2  0  0  0  0
  7  2  1  0  0  0  0
  8  3  1  0  0  0  0
 10  1  1  0  0  0  0
 10 11  1  0  0  0  0
 12 11  1  0  0  0  0
 13 12  1  0  0  0  0
 14 13  1  0  0  0  0
 14 10  1  0  0  0  0
M  END
>  <minimizedAffinity>
-4.21321535

>  <minimizedRMSD>
0.146662235

$$$$
