
 OpenBabel03212521073D

 32 35  0  0  0  0  0  0  0  0999 V2000
   41.7970   84.1790   61.5710 C   0  0  0  0  0  0  0  0  0  0  0  0
   41.4350   83.9040   62.8790 C   0  0  0  0  0  0  0  0  0  0  0  0
   40.1440   83.5440   63.2190 C   0  0  0  0  0  0  0  0  0  0  0  0
   39.1780   83.4560   62.2190 C   0  0  0  0  0  0  0  0  0  0  0  0
   39.5340   83.7310   60.8980 C   0  0  0  0  0  0  0  0  0  0  0  0
   40.8220   84.0870   60.5790 C   0  0  0  0  0  0  0  0  0  0  0  0
   42.2080   83.9810   63.6380 H   0  0  0  0  0  0  0  0  0  0  0  0
   39.8980   83.3380   64.2490 H   0  0  0  0  0  0  0  0  0  0  0  0
   38.1620   83.1800   62.4350 H   0  0  0  0  0  0  0  0  0  0  0  0
   38.7510   83.6500   60.1480 H   0  0  0  0  0  0  0  0  0  0  0  0
   45.2970   83.9100   60.5690 C   0  0  0  0  0  0  0  0  0  0  0  0
   45.7600   85.2180   60.6880 C   0  0  0  0  0  0  0  0  0  0  0  0
   44.8500   86.2140   61.1230 C   0  0  0  0  0  0  0  0  0  0  0  0
   43.5840   85.8250   61.3940 N   0  0  0  0  0  0  0  0  0  0  0  0
   43.1570   84.5490   61.2710 C   0  0  0  0  0  0  0  0  0  0  0  0
   44.0210   83.6120   60.8600 N   0  0  0  0  0  0  0  0  0  0  0  0
   45.9560   83.1060   60.2390 H   0  0  0  0  0  0  0  0  0  0  0  0
   46.7840   85.4400   60.4520 H   0  0  0  0  0  0  0  0  0  0  0  0
   45.1900   87.2330   61.2230 H   0  0  0  0  0  0  0  0  0  0  0  0
   41.1520   84.3650   59.1890 C   0  0  0  0  0  0  0  0  0  0  0  0
   40.8930   85.7000   58.8530 C   0  0  0  0  0  0  0  0  0  0  0  0
   41.1410   86.1690   57.5660 C   0  0  0  0  0  0  0  0  0  0  0  0
   41.6320   85.2910   56.6860 N   0  0  0  0  0  0  0  0  0  0  0  0
   41.8840   83.9950   57.0130 C   0  0  0  0  0  0  0  0  0  0  0  0
   41.6430   83.5340   58.2640 N   0  0  0  0  0  0  0  0  0  0  0  0
   40.4910   86.4560   59.5380 H   0  0  0  0  0  0  0  0  0  0  0  0
   40.9480   87.1940   57.2890 H   0  0  0  0  0  0  0  0  0  0  0  0
   42.4270   83.0380   56.0260 C   0  0  0  0  0  3  0  0  0  0  0  0
   41.4130   81.9290   55.8100 C   0  0  0  0  0  2  0  0  0  0  0  0
   41.7790   81.2780   54.5250 C   0  0  0  0  0  2  0  0  0  0  0  0
   42.3030   82.4120   53.6920 C   0  0  0  0  0  2  0  0  0  0  0  0
   42.5220   83.5980   54.6270 C   0  0  0  0  0  2  0  0  0  0  0  0
  1  2  1  0  0  0  0
  2  3  2  0  0  0  0
  2  7  1  0  0  0  0
  3  8  1  0  0  0  0
  4  9  1  0  0  0  0
  4  3  1  0  0  0  0
  5  4  2  0  0  0  0
  6  5  1  0  0  0  0
  6  1  2  0  0  0  0
 10  5  1  0  0  0  0
 11 12  2  0  0  0  0
 11 16  1  0  0  0  0
 12 13  1  0  0  0  0
 13 19  1  0  0  0  0
 13 14  2  0  0  0  0
 15 14  1  0  0  0  0
 15  1  1  0  0  0  0
 16 15  2  0  0  0  0
 17 11  1  0  0  0  0
 18 12  1  0  0  0  0
 20  6  1  0  0  0  0
 21 20  1  0  0  0  0
 21 26  1  0  0  0  0
 22 21  2  0  0  0  0
 23 24  2  0  0  0  0
 23 22  1  0  0  0  0
 24 25  1  0  0  0  0
 25 20  2  0  0  0  0
 27 22  1  0  0  0  0
 28 24  1  0  0  0  0
 29 28  1  0  0  0  0
 30 29  1  0  0  0  0
 31 30  1  0  0  0  0
 31 32  1  0  0  0  0
 32 28  1  0  0  0  0
M  END
>  <minimizedAffinity>
-5.68762398

>  <minimizedRMSD>
0.533459008

$$$$
