
 OpenBabel03212520443D

 14 15  0  0  0  0  0  0  0  0999 V2000
   40.1970   82.0080   60.8440 C   0  0  0  0  0  0  0  0  0  0  0  0
   40.2630   82.8570   59.7190 C   0  0  0  0  0  0  0  0  0  0  0  0
   39.6020   84.0820   59.7950 C   0  0  0  0  0  0  0  0  0  0  0  0
   38.9330   84.3930   60.9420 N   0  0  0  0  0  0  0  0  0  0  0  0
   38.8910   83.5550   62.0020 C   0  0  0  0  0  0  0  0  0  0  0  0
   39.5280   82.3640   61.9420 N   0  0  0  0  0  0  0  0  0  0  0  0
   40.8200   82.5330   58.8380 H   0  0  0  0  0  0  0  0  0  0  0  0
   39.6310   84.7450   58.9650 H   0  0  0  0  0  0  0  0  0  0  0  0
   38.3340   83.8970   62.8630 H   0  0  0  0  0  0  0  0  0  0  0  0
   40.8750   80.6990   60.8290 C   0  0  0  0  0  3  0  0  0  0  0  0
   40.8920   80.0140   62.1760 C   0  0  0  0  0  2  0  0  0  0  0  0
   41.4970   78.6680   61.7520 C   0  0  0  0  0  2  0  0  0  0  0  0
   40.9650   78.4150   60.3600 C   0  0  0  0  0  2  0  0  0  0  0  0
   40.2180   79.6730   59.9660 C   0  0  0  0  0  2  0  0  0  0  0  0
  1  6  1  0  0  0  0
  2  3  1  0  0  0  0
  2  1  2  0  0  0  0
  3  4  2  0  0  0  0
  4  5  1  0  0  0  0
  5  9  1  0  0  0  0
  6  5  2  0  0  0  0
  7  2  1  0  0  0  0
  8  3  1  0  0  0  0
 10  1  1  0  0  0  0
 10 11  1  0  0  0  0
 12 11  1  0  0  0  0
 13 12  1  0  0  0  0
 14 13  1  0  0  0  0
 14 10  1  0  0  0  0
M  END
>  <minimizedAffinity>
-4.20518017

>  <minimizedRMSD>
0.843945265

$$$$
