
 OpenBabel03212521003D

 38 42  0  0  1  0  0  0  0  0999 V2000
   39.6980   77.2070   59.0860 C   0  0  0  0  0  0  0  0  0  0  0  0
   40.3840   76.0630   58.8010 C   0  0  0  0  0  0  0  0  0  0  0  0
   39.8030   75.3590   57.7290 C   0  0  0  0  0  0  0  0  0  0  0  0
   38.7040   75.7580   57.0600 N   0  0  0  0  0  0  0  0  0  0  0  0
   38.1000   76.9230   57.4350 C   0  0  0  0  0  0  0  0  0  0  0  0
   38.6030   77.6520   58.4590 N   0  0  0  0  0  0  0  0  0  0  0  0
   41.2580   75.7050   59.3000 H   0  0  0  0  0  0  0  0  0  0  0  0
   40.2420   74.4220   57.3840 H   0  0  0  0  0  0  0  0  0  0  0  0
   40.9760   80.1420   61.6120 C   0  0  0  0  0  0  0  0  0  0  0  0
   40.9450   78.9110   62.2300 C   0  0  0  0  0  0  0  0  0  0  0  0
   40.5350   77.8610   61.4840 C   0  0  0  0  0  0  0  0  0  0  0  0
   40.1730   78.0480   60.1680 C   0  0  0  0  0  0  0  0  0  0  0  0
   40.4150   79.8550   59.9150 S   0  0  0  0  0  0  0  0  0  0  0  0
   41.2310   78.7650   63.2670 H   0  0  0  0  0  0  0  0  0  0  0  0
   40.4410   76.8240   61.7780 H   0  0  0  0  0  0  0  0  0  0  0  0
   43.1040   82.9140   62.7390 C   0  0  0  0  0  0  0  0  0  0  0  0
   42.2150   83.6940   63.5260 C   0  0  0  0  0  0  0  0  0  0  0  0
   40.8860   83.2650   63.6630 C   0  0  0  0  0  0  0  0  0  0  0  0
   40.5190   82.1280   63.0380 N   0  0  0  0  0  0  0  0  0  0  0  0
   41.3960   81.4000   62.2890 C   0  0  0  0  0  0  0  0  0  0  0  0
   42.6550   81.7990   62.1530 N   0  0  0  0  0  0  0  0  0  0  0  0
   44.1330   83.2240   62.6170 H   0  0  0  0  0  0  0  0  0  0  0  0
   42.5430   84.5920   64.0080 H   0  0  0  0  0  0  0  0  0  0  0  0
   40.1610   83.8030   64.2410 H   0  0  0  0  0  0  0  0  0  0  0  0
   36.9240   77.3370   56.6980 C   0  0  0  0  0  0  0  0  0  0  0  0
   35.8170   77.1090   57.2100 O   0  0  0  0  0  0  0  0  0  0  0  0
   37.0060   78.0120   55.3510 C   0  0  1  0  0  0  0  0  0  0  0  0
   37.3850   79.4690   55.4420 C   0  0  0  0  0  0  0  0  0  0  0  0
   38.2890   78.4770   54.8590 C   0  0  2  0  0  0  0  0  0  0  0  0
   36.0130   77.9790   54.8030 H   0  0  0  0  0  0  0  0  0  0  0  0
   36.9130   80.2370   54.8180 H   0  0  0  0  0  0  0  0  0  0  0  0
   37.7220   79.8760   56.4360 H   0  0  0  0  0  0  0  0  0  0  0  0
   39.1870   78.0770   55.4000 H   0  0  0  0  0  0  0  0  0  0  0  0
   38.5740   78.6370   53.3820 C   0  0  0  0  0  3  0  0  0  0  0  0
   39.6500   79.6560   53.1140 C   0  0  0  0  0  2  0  0  0  0  0  0
   39.8780   79.4380   51.6160 C   0  0  0  0  0  2  0  0  0  0  0  0
   39.6590   77.9530   51.4130 C   0  0  0  0  0  2  0  0  0  0  0  0
   39.1300   77.4120   52.7320 C   0  0  0  0  0  2  0  0  0  0  0  0
  1 12  1  0  0  0  0
  2  1  1  0  0  0  0
  2  7  1  0  0  0  0
  3  2  2  0  0  0  0
  4  5  2  0  0  0  0
  4  3  1  0  0  0  0
  5  6  1  0  0  0  0
  6  1  2  0  0  0  0
  8  3  1  0  0  0  0
  9 10  2  0  0  0  0
  9 20  1  0  0  0  0
 10 14  1  0  0  0  0
 11 15  1  0  0  0  0
 11 10  1  0  0  0  0
 12 11  2  0  0  0  0
 13 12  1  0  0  0  0
 13  9  1  0  0  0  0
 16 17  1  0  0  0  0
 17 18  2  0  0  0  0
 17 23  1  0  0  0  0
 18 24  1  0  0  0  0
 19 18  1  0  0  0  0
 20 19  2  0  0  0  0
 21 20  1  0  0  0  0
 21 16  2  0  0  0  0
 22 16  1  0  0  0  0
 25 26  2  0  0  0  0
 25  5  1  0  0  0  0
 27 30  1  6  0  0  0
 27 28  1  0  0  0  0
 27 25  1  0  0  0  0
 28 32  1  0  0  0  0
 29 27  1  0  0  0  0
 29 33  1  1  0  0  0
 29 28  1  0  0  0  0
 31 28  1  0  0  0  0
 34 29  1  0  0  0  0
 35 34  1  0  0  0  0
 36 35  1  0  0  0  0
 37 36  1  0  0  0  0
 37 38  1  0  0  0  0
 38 34  1  0  0  0  0
M  END
>  <minimizedAffinity>
-6.10124683

>  <minimizedRMSD>
0.86779809

$$$$
