
 OpenBabel03212520513D

 31 34  0  0  1  0  0  0  0  0999 V2000
   41.6070   83.8590   61.1760 C   0  0  0  0  0  0  0  0  0  0  0  0
   40.2880   84.1910   61.4030 C   0  0  0  0  0  0  0  0  0  0  0  0
   39.3670   83.2340   61.8380 C   0  0  0  0  0  0  0  0  0  0  0  0
   39.7640   81.9600   62.0420 N   0  0  0  0  0  0  0  0  0  0  0  0
   41.0520   81.6680   61.8120 C   0  0  0  0  0  0  0  0  0  0  0  0
   41.9820   82.5670   61.3890 N   0  0  0  0  0  0  0  0  0  0  0  0
   40.0400   85.2180   61.2220 H   0  0  0  0  0  0  0  0  0  0  0  0
   38.3810   83.6230   61.9770 H   0  0  0  0  0  0  0  0  0  0  0  0
   43.9270   86.6810   61.1030 C   0  0  0  0  0  0  0  0  0  0  0  0
   44.4040   86.6270   59.7810 C   0  0  0  0  0  0  0  0  0  0  0  0
   43.9330   85.6270   58.9180 C   0  0  0  0  0  0  0  0  0  0  0  0
   43.0270   84.7670   59.4470 N   0  0  0  0  0  0  0  0  0  0  0  0
   42.5830   84.8370   60.7160 C   0  0  0  0  0  0  0  0  0  0  0  0
   43.0250   85.7790   61.5340 N   0  0  0  0  0  0  0  0  0  0  0  0
   44.4920   87.7390   61.8500 N   0  0  0  0  0  0  0  0  0  0  0  0
   45.1190   87.3090   59.3680 H   0  0  0  0  0  0  0  0  0  0  0  0
   44.2800   85.5600   57.8980 H   0  0  0  0  0  0  0  0  0  0  0  0
   45.3110   87.3350   62.3930 H   0  0  0  0  0  0  0  0  0  0  0  0
   44.2680   88.7480   61.9530 H   0  0  0  0  0  0  0  0  0  0  0  0
   41.4160   80.2360   62.0360 C   0  0  1  0  0  0  0  0  0  0  0  0
   40.4720   79.1590   61.8260 C   0  0  0  0  0  0  0  0  0  0  0  0
   41.4350   79.4040   60.7530 C   0  0  1  0  0  0  0  0  0  0  0  0
   42.3160   80.0560   62.7000 H   0  0  0  0  0  0  0  0  0  0  0  0
   40.5560   78.2540   62.4670 H   0  0  0  0  0  0  0  0  0  0  0  0
   39.4120   79.4270   61.6370 H   0  0  0  0  0  0  0  0  0  0  0  0
   42.2530   78.6110   60.6990 H   0  0  0  0  0  0  0  0  0  0  0  0
   41.1710   80.0150   59.4320 C   0  0  0  0  0  3  0  0  0  0  0  0
   40.0480   79.5100   58.6310 C   0  0  0  0  0  2  0  0  0  0  0  0
   40.5190   79.5970   57.1870 C   0  0  0  0  0  2  0  0  0  0  0  0
   41.8680   80.2740   57.2140 C   0  0  0  0  0  2  0  0  0  0  0  0
   42.4280   80.0180   58.5760 C   0  0  0  0  0  2  0  0  0  0  0  0
  1  6  2  0  0  0  0
  1  2  1  0  0  0  0
  2  3  2  0  0  0  0
  3  8  1  0  0  0  0
  3  4  1  0  0  0  0
  5 20  1  0  0  0  0
  5  4  2  0  0  0  0
  6  5  1  0  0  0  0
  7  2  1  0  0  0  0
  9 14  1  0  0  0  0
  9 15  1  0  0  0  0
 10  9  2  0  0  0  0
 11 12  2  0  0  0  0
 11 10  1  0  0  0  0
 12 13  1  0  0  0  0
 13  1  1  0  0  0  0
 13 14  2  0  0  0  0
 15 19  1  0  0  0  0
 15 18  1  0  0  0  0
 16 10  1  0  0  0  0
 17 11  1  0  0  0  0
 20 23  1  1  0  0  0
 21 20  1  0  0  0  0
 21 24  1  0  0  0  0
 22 26  1  6  0  0  0
 22 21  1  0  0  0  0
 22 20  1  0  0  0  0
 25 21  1  0  0  0  0
 27 22  1  0  0  0  0
 28 27  1  0  0  0  0
 29 30  1  0  0  0  0
 29 28  1  0  0  0  0
 30 31  1  0  0  0  0
 31 27  1  0  0  0  0
M  END
>  <minimizedAffinity>
-4.77585316

>  <minimizedRMSD>
1.93557274

$$$$
