
 OpenBabel03212520093D

 14 15  0  0  0  0  0  0  0  0999 V2000
   40.0660   81.8990   60.9750 C   0  0  0  0  0  0  0  0  0  0  0  0
   40.2400   82.7000   59.8200 C   0  0  0  0  0  0  0  0  0  0  0  0
   39.6610   83.9860   59.8380 C   0  0  0  0  0  0  0  0  0  0  0  0
   38.9780   84.3700   60.9580 N   0  0  0  0  0  0  0  0  0  0  0  0
   38.8400   83.5680   62.0340 C   0  0  0  0  0  0  0  0  0  0  0  0
   39.3860   82.3330   62.0390 N   0  0  0  0  0  0  0  0  0  0  0  0
   40.5230   80.9030   60.9420 H   0  0  0  0  0  0  0  0  0  0  0  0
   39.7520   84.6580   58.9930 H   0  0  0  0  0  0  0  0  0  0  0  0
   38.2780   83.9730   62.8690 H   0  0  0  0  0  0  0  0  0  0  0  0
   40.9750   82.2860   58.6160 C   0  0  0  0  0  0  0  0  0  0  0  0
   41.3670   83.3820   57.6810 C   0  0  0  0  0  0  0  0  0  0  0  0
   41.6670   82.6170   56.4000 C   0  0  0  0  0  0  0  0  0  0  0  0
   41.0360   81.2520   56.5450 C   0  0  0  0  0  0  0  0  0  0  0  0
   40.0490   81.4770   57.6970 C   0  0  0  0  0  0  0  0  0  0  0  0
  1  6  1  0  0  0  0
  2  3  1  0  0  0  0
  2  1  2  0  0  0  0
  3  4  2  0  0  0  0
  4  5  1  0  0  0  0
  5  6  2  0  0  0  0
  5  9  1  0  0  0  0
  7  1  1  0  0  0  0
  8  3  1  0  0  0  0
 10  2  1  0  0  0  0
 11 10  1  0  0  0  0
 12 13  1  0  0  0  0
 12 11  1  0  0  0  0
 13 14  1  0  0  0  0
 14 10  1  0  0  0  0
M  END
>  <minimizedAffinity>
-4.17664909

>  <minimizedRMSD>
0.401223421

$$$$
