
 OpenBabel03212521003D

 38 42  0  0  1  0  0  0  0  0999 V2000
   39.7960   77.3770   59.1820 C   0  0  0  0  0  0  0  0  0  0  0  0
   40.5240   76.2630   58.8790 C   0  0  0  0  0  0  0  0  0  0  0  0
   39.9650   75.5520   57.8000 C   0  0  0  0  0  0  0  0  0  0  0  0
   38.8490   75.9180   57.1410 N   0  0  0  0  0  0  0  0  0  0  0  0
   38.2020   77.0540   57.5350 C   0  0  0  0  0  0  0  0  0  0  0  0
   38.6830   77.7880   58.5660 N   0  0  0  0  0  0  0  0  0  0  0  0
   41.4130   75.9320   59.3690 H   0  0  0  0  0  0  0  0  0  0  0  0
   40.4370   74.6370   57.4410 H   0  0  0  0  0  0  0  0  0  0  0  0
   40.9860   80.3240   61.7380 C   0  0  0  0  0  0  0  0  0  0  0  0
   40.9850   79.0870   62.3450 C   0  0  0  0  0  0  0  0  0  0  0  0
   40.6060   78.0330   61.5890 C   0  0  0  0  0  0  0  0  0  0  0  0
   40.2450   78.2210   60.2730 C   0  0  0  0  0  0  0  0  0  0  0  0
   40.4400   80.0360   60.0370 S   0  0  0  0  0  0  0  0  0  0  0  0
   41.2710   78.9390   63.3820 H   0  0  0  0  0  0  0  0  0  0  0  0
   40.5380   76.9910   61.8740 H   0  0  0  0  0  0  0  0  0  0  0  0
   43.0360   83.1390   62.9000 C   0  0  0  0  0  0  0  0  0  0  0  0
   42.1220   83.8900   63.6870 C   0  0  0  0  0  0  0  0  0  0  0  0
   40.8040   83.4260   63.8120 C   0  0  0  0  0  0  0  0  0  0  0  0
   40.4690   82.2860   63.1760 N   0  0  0  0  0  0  0  0  0  0  0  0
   41.3690   81.5860   62.4270 C   0  0  0  0  0  0  0  0  0  0  0  0
   42.6190   82.0180   62.3030 N   0  0  0  0  0  0  0  0  0  0  0  0
   44.0570   83.4760   62.7870 H   0  0  0  0  0  0  0  0  0  0  0  0
   42.4240   84.7930   64.1780 H   0  0  0  0  0  0  0  0  0  0  0  0
   40.0620   83.9420   64.3900 H   0  0  0  0  0  0  0  0  0  0  0  0
   37.0080   77.4330   56.8080 C   0  0  0  0  0  0  0  0  0  0  0  0
   35.9200   77.0210   57.2400 O   0  0  0  0  0  0  0  0  0  0  0  0
   37.0510   78.2860   55.5640 C   0  0  1  0  0  0  0  0  0  0  0  0
   37.3310   79.7400   55.8530 C   0  0  0  0  0  0  0  0  0  0  0  0
   38.3030   78.8960   55.1550 C   0  0  2  0  0  0  0  0  0  0  0  0
   36.0650   78.2620   55.0030 H   0  0  0  0  0  0  0  0  0  0  0  0
   36.8120   80.5510   55.3300 H   0  0  0  0  0  0  0  0  0  0  0  0
   37.6360   80.0310   56.8970 H   0  0  0  0  0  0  0  0  0  0  0  0
   39.2230   78.4880   55.6500 H   0  0  0  0  0  0  0  0  0  0  0  0
   38.5830   79.2700   53.7170 C   0  0  0  0  0  3  0  0  0  0  0  0
   38.9050   78.0690   52.8660 C   0  0  0  0  0  2  0  0  0  0  0  0
   38.9090   78.7030   51.4740 C   0  0  0  0  0  2  0  0  0  0  0  0
   37.8450   79.7780   51.5450 C   0  0  0  0  0  2  0  0  0  0  0  0
   37.4130   79.8610   52.9990 C   0  0  0  0  0  2  0  0  0  0  0  0
  1 12  1  0  0  0  0
  2  1  1  0  0  0  0
  2  7  1  0  0  0  0
  3  2  2  0  0  0  0
  4  5  2  0  0  0  0
  4  3  1  0  0  0  0
  5  6  1  0  0  0  0
  6  1  2  0  0  0  0
  8  3  1  0  0  0  0
  9 10  2  0  0  0  0
  9 20  1  0  0  0  0
 10 14  1  0  0  0  0
 11 15  1  0  0  0  0
 11 10  1  0  0  0  0
 12 11  2  0  0  0  0
 13 12  1  0  0  0  0
 13  9  1  0  0  0  0
 16 17  1  0  0  0  0
 17 18  2  0  0  0  0
 17 23  1  0  0  0  0
 18 24  1  0  0  0  0
 19 18  1  0  0  0  0
 20 19  2  0  0  0  0
 21 20  1  0  0  0  0
 21 16  2  0  0  0  0
 22 16  1  0  0  0  0
 25 26  2  0  0  0  0
 25  5  1  0  0  0  0
 27 30  1  6  0  0  0
 27 28  1  0  0  0  0
 27 25  1  0  0  0  0
 28 32  1  0  0  0  0
 29 27  1  0  0  0  0
 29 33  1  1  0  0  0
 29 28  1  0  0  0  0
 31 28  1  0  0  0  0
 34 29  1  0  0  0  0
 35 34  1  0  0  0  0
 36 37  1  0  0  0  0
 36 35  1  0  0  0  0
 37 38  1  0  0  0  0
 38 34  1  0  0  0  0
M  END
>  <minimizedAffinity>
-6.40500689

>  <minimizedRMSD>
0.633335233

$$$$
