
 OpenBabel03212520593D

 38 42  0  0  1  0  0  0  0  0999 V2000
   39.7300   77.2500   59.2110 C   0  0  0  0  0  0  0  0  0  0  0  0
   40.4050   76.0910   58.9620 C   0  0  0  0  0  0  0  0  0  0  0  0
   39.8360   75.3740   57.8930 C   0  0  0  0  0  0  0  0  0  0  0  0
   38.7570   75.7750   57.1940 N   0  0  0  0  0  0  0  0  0  0  0  0
   38.1620   76.9550   57.5330 C   0  0  0  0  0  0  0  0  0  0  0  0
   38.6550   77.6980   58.5530 N   0  0  0  0  0  0  0  0  0  0  0  0
   41.2630   75.7310   59.4860 H   0  0  0  0  0  0  0  0  0  0  0  0
   40.2690   74.4240   57.5750 H   0  0  0  0  0  0  0  0  0  0  0  0
   40.9760   80.2210   61.7110 C   0  0  0  0  0  0  0  0  0  0  0  0
   40.9550   78.9950   62.3400 C   0  0  0  0  0  0  0  0  0  0  0  0
   40.5570   77.9350   61.6030 C   0  0  0  0  0  0  0  0  0  0  0  0
   40.1950   78.1050   60.2850 C   0  0  0  0  0  0  0  0  0  0  0  0
   40.4210   79.9120   60.0160 S   0  0  0  0  0  0  0  0  0  0  0  0
   41.2420   78.8620   63.3790 H   0  0  0  0  0  0  0  0  0  0  0  0
   40.4720   76.8990   61.9070 H   0  0  0  0  0  0  0  0  0  0  0  0
   43.0690   83.0360   62.7950 C   0  0  0  0  0  0  0  0  0  0  0  0
   42.1780   83.8030   63.5920 C   0  0  0  0  0  0  0  0  0  0  0  0
   40.8590   83.3500   63.7500 C   0  0  0  0  0  0  0  0  0  0  0  0
   40.5030   82.2050   63.1350 N   0  0  0  0  0  0  0  0  0  0  0  0
   41.3820   81.4890   62.3760 C   0  0  0  0  0  0  0  0  0  0  0  0
   42.6320   81.9100   62.2200 N   0  0  0  0  0  0  0  0  0  0  0  0
   44.0900   83.3640   62.6560 H   0  0  0  0  0  0  0  0  0  0  0  0
   42.4960   84.7090   64.0650 H   0  0  0  0  0  0  0  0  0  0  0  0
   40.1330   83.8780   64.3370 H   0  0  0  0  0  0  0  0  0  0  0  0
   37.0080   77.3710   56.7640 C   0  0  0  0  0  0  0  0  0  0  0  0
   35.8870   77.0770   57.2090 O   0  0  0  0  0  0  0  0  0  0  0  0
   37.1280   78.1240   55.4620 C   0  0  1  0  0  0  0  0  0  0  0  0
   37.4050   79.5940   55.6530 C   0  0  0  0  0  0  0  0  0  0  0  0
   38.4060   78.6940   55.0780 C   0  0  2  0  0  0  0  0  0  0  0  0
   36.1750   78.0610   54.8500 H   0  0  0  0  0  0  0  0  0  0  0  0
   36.9230   80.3650   55.0400 H   0  0  0  0  0  0  0  0  0  0  0  0
   37.6530   79.9640   56.6860 H   0  0  0  0  0  0  0  0  0  0  0  0
   39.2930   78.3210   55.6550 H   0  0  0  0  0  0  0  0  0  0  0  0
   38.7690   78.9530   53.6330 C   0  0  0  0  0  3  0  0  0  0  0  0
   37.7050   79.7320   52.9070 C   0  0  0  0  0  2  0  0  0  0  0  0
   38.4260   80.0350   51.5920 C   0  0  0  0  0  2  0  0  0  0  0  0
   39.8760   80.2120   51.9870 C   0  0  0  0  0  2  0  0  0  0  0  0
   39.9740   79.8180   53.4520 C   0  0  0  0  0  2  0  0  0  0  0  0
  1 12  1  0  0  0  0
  2  1  1  0  0  0  0
  2  7  1  0  0  0  0
  3  2  2  0  0  0  0
  4  5  2  0  0  0  0
  4  3  1  0  0  0  0
  5  6  1  0  0  0  0
  6  1  2  0  0  0  0
  8  3  1  0  0  0  0
  9 10  2  0  0  0  0
  9 20  1  0  0  0  0
 10 14  1  0  0  0  0
 11 15  1  0  0  0  0
 11 10  1  0  0  0  0
 12 11  2  0  0  0  0
 13 12  1  0  0  0  0
 13  9  1  0  0  0  0
 16 17  1  0  0  0  0
 17 18  2  0  0  0  0
 17 23  1  0  0  0  0
 18 24  1  0  0  0  0
 19 18  1  0  0  0  0
 20 19  2  0  0  0  0
 21 20  1  0  0  0  0
 21 16  2  0  0  0  0
 22 16  1  0  0  0  0
 25 26  2  0  0  0  0
 25  5  1  0  0  0  0
 27 30  1  6  0  0  0
 27 28  1  0  0  0  0
 27 25  1  0  0  0  0
 28 32  1  0  0  0  0
 29 27  1  0  0  0  0
 29 28  1  0  0  0  0
 29 33  1  1  0  0  0
 31 28  1  0  0  0  0
 34 29  1  0  0  0  0
 35 34  1  0  0  0  0
 36 37  1  0  0  0  0
 36 35  1  0  0  0  0
 37 38  1  0  0  0  0
 38 34  1  0  0  0  0
M  END
>  <minimizedAffinity>
-6.28656101

>  <minimizedRMSD>
0.487350821

$$$$
