
 OpenBabel03212520593D

 38 42  0  0  1  0  0  0  0  0999 V2000
   39.7990   77.4020   59.1810 C   0  0  0  0  0  0  0  0  0  0  0  0
   40.5030   76.2650   58.9080 C   0  0  0  0  0  0  0  0  0  0  0  0
   39.9530   75.5600   57.8210 C   0  0  0  0  0  0  0  0  0  0  0  0
   38.8670   75.9510   57.1280 N   0  0  0  0  0  0  0  0  0  0  0  0
   38.2430   77.1090   57.4930 C   0  0  0  0  0  0  0  0  0  0  0  0
   38.7160   77.8390   58.5300 N   0  0  0  0  0  0  0  0  0  0  0  0
   41.3680   75.9140   59.4270 H   0  0  0  0  0  0  0  0  0  0  0  0
   40.4090   74.6280   57.4830 H   0  0  0  0  0  0  0  0  0  0  0  0
   40.9810   80.3420   61.7490 C   0  0  0  0  0  0  0  0  0  0  0  0
   40.9640   79.1050   62.3570 C   0  0  0  0  0  0  0  0  0  0  0  0
   40.5870   78.0540   61.5970 C   0  0  0  0  0  0  0  0  0  0  0  0
   40.2410   78.2430   60.2770 C   0  0  0  0  0  0  0  0  0  0  0  0
   40.4520   80.0570   60.0420 S   0  0  0  0  0  0  0  0  0  0  0  0
   41.2380   78.9560   63.3970 H   0  0  0  0  0  0  0  0  0  0  0  0
   40.5080   77.0120   61.8810 H   0  0  0  0  0  0  0  0  0  0  0  0
   43.0340   83.1520   62.9180 C   0  0  0  0  0  0  0  0  0  0  0  0
   42.1210   83.9020   63.7080 C   0  0  0  0  0  0  0  0  0  0  0  0
   40.8030   83.4380   63.8330 C   0  0  0  0  0  0  0  0  0  0  0  0
   40.4670   82.3000   63.1940 N   0  0  0  0  0  0  0  0  0  0  0  0
   41.3660   81.6010   62.4410 C   0  0  0  0  0  0  0  0  0  0  0  0
   42.6150   82.0330   62.3170 N   0  0  0  0  0  0  0  0  0  0  0  0
   44.0550   83.4890   62.8050 H   0  0  0  0  0  0  0  0  0  0  0  0
   42.4240   84.8020   64.2020 H   0  0  0  0  0  0  0  0  0  0  0  0
   40.0620   83.9520   64.4130 H   0  0  0  0  0  0  0  0  0  0  0  0
   37.0810   77.5150   56.7290 C   0  0  0  0  0  0  0  0  0  0  0  0
   35.9790   77.0650   57.0810 O   0  0  0  0  0  0  0  0  0  0  0  0
   37.1730   78.4400   55.5410 C   0  0  1  0  0  0  0  0  0  0  0  0
   37.2820   79.8930   55.9300 C   0  0  0  0  0  0  0  0  0  0  0  0
   38.3970   79.1820   55.3020 C   0  0  2  0  0  0  0  0  0  0  0  0
   36.2580   78.3610   54.8750 H   0  0  0  0  0  0  0  0  0  0  0  0
   36.7450   80.6850   55.3940 H   0  0  0  0  0  0  0  0  0  0  0  0
   37.4470   80.1490   57.0140 H   0  0  0  0  0  0  0  0  0  0  0  0
   39.2940   78.8290   55.8750 H   0  0  0  0  0  0  0  0  0  0  0  0
   38.7890   79.6630   53.9230 C   0  0  0  0  0  3  0  0  0  0  0  0
   40.2720   79.8920   53.7980 C   0  0  0  0  0  2  0  0  0  0  0  0
   40.3940   80.1340   52.2920 C   0  0  0  0  0  2  0  0  0  0  0  0
   39.3380   79.2390   51.6790 C   0  0  0  0  0  2  0  0  0  0  0  0
   38.5290   78.6740   52.8340 C   0  0  0  0  0  2  0  0  0  0  0  0
  1 12  1  0  0  0  0
  2  1  1  0  0  0  0
  2  7  1  0  0  0  0
  3  2  2  0  0  0  0
  4  5  2  0  0  0  0
  4  3  1  0  0  0  0
  5  6  1  0  0  0  0
  6  1  2  0  0  0  0
  8  3  1  0  0  0  0
  9 10  2  0  0  0  0
  9 20  1  0  0  0  0
 10 14  1  0  0  0  0
 11 15  1  0  0  0  0
 11 10  1  0  0  0  0
 12 11  2  0  0  0  0
 13 12  1  0  0  0  0
 13  9  1  0  0  0  0
 16 17  1  0  0  0  0
 17 18  2  0  0  0  0
 17 23  1  0  0  0  0
 18 24  1  0  0  0  0
 19 18  1  0  0  0  0
 20 19  2  0  0  0  0
 21 20  1  0  0  0  0
 21 16  2  0  0  0  0
 22 16  1  0  0  0  0
 25 26  2  0  0  0  0
 25  5  1  0  0  0  0
 27 30  1  6  0  0  0
 27 28  1  0  0  0  0
 27 25  1  0  0  0  0
 28 32  1  0  0  0  0
 29 27  1  0  0  0  0
 29 33  1  1  0  0  0
 29 28  1  0  0  0  0
 31 28  1  0  0  0  0
 34 29  1  0  0  0  0
 35 34  1  0  0  0  0
 36 35  1  0  0  0  0
 37 36  1  0  0  0  0
 37 38  1  0  0  0  0
 38 34  1  0  0  0  0
M  END
>  <minimizedAffinity>
-6.24799252

>  <minimizedRMSD>
0.281131953

$$$$
