
 OpenBabel03212520543D

 29 32  0  0  0  0  0  0  0  0999 V2000
   42.6150   79.0420   61.9350 C   0  0  0  0  0  0  0  0  0  0  0  0
   41.2570   78.7540   61.8130 C   0  0  0  0  0  0  0  0  0  0  0  0
   40.4140   79.7680   61.5160 C   0  0  0  0  0  0  0  0  0  0  0  0
   40.9230   81.0580   61.3420 C   0  0  0  0  0  0  0  0  0  0  0  0
   42.7280   80.8200   61.6190 S   0  0  0  0  0  0  0  0  0  0  0  0
   40.8600   77.7550   61.9490 H   0  0  0  0  0  0  0  0  0  0  0  0
   39.3430   79.7450   61.3830 H   0  0  0  0  0  0  0  0  0  0  0  0
   45.8500   77.6370   62.9190 C   0  0  0  0  0  0  0  0  0  0  0  0
   45.6070   76.2210   62.8540 C   0  0  0  0  0  0  0  0  0  0  0  0
   44.3410   75.7840   62.4750 C   0  0  0  0  0  0  0  0  0  0  0  0
   43.4060   76.7140   62.1880 N   0  0  0  0  0  0  0  0  0  0  0  0
   43.6440   78.0260   62.2530 C   0  0  0  0  0  0  0  0  0  0  0  0
   44.8470   78.4790   62.6130 N   0  0  0  0  0  0  0  0  0  0  0  0
   46.8190   78.0180   63.2090 H   0  0  0  0  0  0  0  0  0  0  0  0
   46.4040   75.5370   63.0980 H   0  0  0  0  0  0  0  0  0  0  0  0
   44.1230   74.7250   62.4150 H   0  0  0  0  0  0  0  0  0  0  0  0
   40.3780   82.3450   61.0350 C   0  0  0  0  0  0  0  0  0  0  0  0
   39.4340   82.8820   61.8920 C   0  0  0  0  0  0  0  0  0  0  0  0
   38.9720   84.1400   61.4940 C   0  0  0  0  0  0  0  0  0  0  0  0
   39.4020   84.7700   60.3840 N   0  0  0  0  0  0  0  0  0  0  0  0
   40.3370   84.1550   59.6000 C   0  0  0  0  0  0  0  0  0  0  0  0
   40.8250   82.9300   59.9360 N   0  0  0  0  0  0  0  0  0  0  0  0
   39.0570   82.4240   62.7890 H   0  0  0  0  0  0  0  0  0  0  0  0
   38.2330   84.6580   62.0850 H   0  0  0  0  0  0  0  0  0  0  0  0
   40.8560   84.8060   58.3490 C   0  0  0  0  0  3  0  0  0  0  0  0
   41.5470   83.7140   57.5560 C   0  0  0  0  0  2  0  0  0  0  0  0
   42.9060   84.2480   57.1750 C   0  0  0  0  0  2  0  0  0  0  0  0
   43.2600   85.1310   58.3300 C   0  0  0  0  0  2  0  0  0  0  0  0
   41.9660   85.7400   58.7790 C   0  0  0  0  0  2  0  0  0  0  0  0
  1 12  1  0  0  0  0
  2  1  2  0  0  0  0
  2  6  1  0  0  0  0
  3  2  1  0  0  0  0
  4  3  2  0  0  0  0
  4  5  1  0  0  0  0
  5  1  1  0  0  0  0
  7  3  1  0  0  0  0
  8 14  1  0  0  0  0
  9  8  1  0  0  0  0
  9 15  1  0  0  0  0
 10  9  2  0  0  0  0
 11 12  2  0  0  0  0
 11 10  1  0  0  0  0
 12 13  1  0  0  0  0
 13  8  2  0  0  0  0
 16 10  1  0  0  0  0
 17  4  1  0  0  0  0
 17 18  1  0  0  0  0
 18 23  1  0  0  0  0
 19 18  2  0  0  0  0
 19 24  1  0  0  0  0
 20 19  1  0  0  0  0
 21 22  1  0  0  0  0
 21 20  2  0  0  0  0
 22 17  2  0  0  0  0
 25 29  1  0  0  0  0
 25 21  1  0  0  0  0
 26 25  1  0  0  0  0
 27 26  1  0  0  0  0
 27 28  1  0  0  0  0
 28 29  1  0  0  0  0
M  END
>  <minimizedAffinity>
-4.97595739

>  <minimizedRMSD>
2.9274714

$$$$
