
 OpenBabel03212520343D

 30 33  0  0  0  0  0  0  0  0999 V2000
   42.2700   73.1270   60.7020 C   0  0  0  0  0  0  0  0  0  0  0  0
   43.5400   73.3520   60.1660 C   0  0  0  0  0  0  0  0  0  0  0  0
   43.8830   74.4980   59.4730 C   0  0  0  0  0  0  0  0  0  0  0  0
   42.9290   75.4890   59.2890 C   0  0  0  0  0  0  0  0  0  0  0  0
   41.6760   75.2800   59.8130 C   0  0  0  0  0  0  0  0  0  0  0  0
   40.6470   76.2030   59.6880 C   0  0  0  0  0  0  0  0  0  0  0  0
   39.3890   75.9770   60.2220 C   0  0  0  0  0  0  0  0  0  0  0  0
   39.1020   74.8090   60.9080 C   0  0  0  0  0  0  0  0  0  0  0  0
   40.1080   73.8740   61.0450 C   0  0  0  0  0  0  0  0  0  0  0  0
   41.3390   74.1360   60.5020 C   0  0  0  0  0  0  0  0  0  0  0  0
   44.3440   72.6280   60.2650 H   0  0  0  0  0  0  0  0  0  0  0  0
   44.8570   74.6600   59.0670 H   0  0  0  0  0  0  0  0  0  0  0  0
   43.1490   76.3940   58.7580 H   0  0  0  0  0  0  0  0  0  0  0  0
   40.8900   77.1200   59.1440 H   0  0  0  0  0  0  0  0  0  0  0  0
   38.6920   76.7840   60.0460 H   0  0  0  0  0  0  0  0  0  0  0  0
   38.1110   74.6920   61.2970 H   0  0  0  0  0  0  0  0  0  0  0  0
   39.8630   72.9720   61.5880 H   0  0  0  0  0  0  0  0  0  0  0  0
   41.9420   71.5660   62.7380 C   0  0  0  0  0  0  0  0  0  0  0  0
   42.1150   71.8650   61.3880 C   0  0  0  0  0  0  0  0  0  0  0  0
   42.1550   70.7610   60.5000 C   0  0  0  0  0  0  0  0  0  0  0  0
   42.0270   69.4980   60.9880 N   0  0  0  0  0  0  0  0  0  0  0  0
   41.8610   69.2780   62.3210 C   0  0  0  0  0  0  0  0  0  0  0  0
   41.8220   70.3070   63.1630 N   0  0  0  0  0  0  0  0  0  0  0  0
   41.9180   72.4440   63.3380 H   0  0  0  0  0  0  0  0  0  0  0  0
   42.2820   70.8370   59.4270 H   0  0  0  0  0  0  0  0  0  0  0  0
   41.7260   67.9190   62.8420 C   0  0  0  0  0  3  0  0  0  0  0  0
   41.9970   66.8510   61.7750 C   0  0  0  0  0  2  0  0  0  0  0  0
   41.6950   65.6090   62.6170 C   0  0  0  0  0  2  0  0  0  0  0  0
   40.5090   66.0280   63.4850 C   0  0  0  0  0  2  0  0  0  0  0  0
   40.3360   67.5240   63.2580 C   0  0  0  0  0  2  0  0  0  0  0  0
  1 19  1  0  0  0  0
  2 11  1  0  0  0  0
  2  1  2  0  0  0  0
  3  2  1  0  0  0  0
  4  3  2  0  0  0  0
  4  5  1  0  0  0  0
  5 10  1  0  0  0  0
  6  5  2  0  0  0  0
  6  7  1  0  0  0  0
  7  8  2  0  0  0  0
  8  9  1  0  0  0  0
  8 16  1  0  0  0  0
  9 17  1  0  0  0  0
 10  1  1  0  0  0  0
 10  9  2  0  0  0  0
 12  3  1  0  0  0  0
 13  4  1  0  0  0  0
 14  6  1  0  0  0  0
 15  7  1  0  0  0  0
 18 23  1  0  0  0  0
 18 24  1  0  0  0  0
 19 18  2  0  0  0  0
 20 21  2  0  0  0  0
 20 19  1  0  0  0  0
 21 22  1  0  0  0  0
 22 26  1  0  0  0  0
 22 23  2  0  0  0  0
 25 20  1  0  0  0  0
 26 30  1  0  0  0  0
 27 28  1  0  0  0  0
 27 26  1  0  0  0  0
 28 29  1  0  0  0  0
 30 29  1  0  0  0  0
M  END
>  <minimizedAffinity>
-6.47157907

$$$$

 OpenBabel03212520343D

 30 33  0  0  0  0  0  0  0  0999 V2000
   42.5090   68.7780   62.0510 C   0  0  0  0  0  0  0  0  0  0  0  0
   43.8500   68.6160   61.7000 C   0  0  0  0  0  0  0  0  0  0  0  0
   44.4910   67.3920   61.6800 C   0  0  0  0  0  0  0  0  0  0  0  0
   43.7800   66.2500   62.0240 C   0  0  0  0  0  0  0  0  0  0  0  0
   42.4590   66.3970   62.3700 C   0  0  0  0  0  0  0  0  0  0  0  0
   41.6550   65.3240   62.7300 C   0  0  0  0  0  0  0  0  0  0  0  0
   40.3240   65.4880   63.0770 C   0  0  0  0  0  0  0  0  0  0  0  0
   39.7340   66.7410   63.0790 C   0  0  0  0  0  0  0  0  0  0  0  0
   40.5120   67.8240   62.7250 C   0  0  0  0  0  0  0  0  0  0  0  0
   41.8250   67.6190   62.3890 C   0  0  0  0  0  0  0  0  0  0  0  0
   44.4780   69.4580   61.4180 H   0  0  0  0  0  0  0  0  0  0  0  0
   45.5170   67.2790   61.4100 H   0  0  0  0  0  0  0  0  0  0  0  0
   44.2340   65.2790   62.0230 H   0  0  0  0  0  0  0  0  0  0  0  0
   42.1350   64.3410   62.7230 H   0  0  0  0  0  0  0  0  0  0  0  0
   39.8250   64.5640   63.3340 H   0  0  0  0  0  0  0  0  0  0  0  0
   38.7010   66.8030   63.3570 H   0  0  0  0  0  0  0  0  0  0  0  0
   40.0300   68.7920   62.7290 H   0  0  0  0  0  0  0  0  0  0  0  0
   41.6930   71.0290   63.0300 C   0  0  0  0  0  0  0  0  0  0  0  0
   42.0300   70.1410   62.0110 C   0  0  0  0  0  0  0  0  0  0  0  0
   41.8860   70.6220   60.6850 C   0  0  0  0  0  0  0  0  0  0  0  0
   41.4390   71.8890   60.4730 N   0  0  0  0  0  0  0  0  0  0  0  0
   41.1270   72.7040   61.5180 C   0  0  0  0  0  0  0  0  0  0  0  0
   41.2580   72.2620   62.7650 N   0  0  0  0  0  0  0  0  0  0  0  0
   41.8320   70.5980   63.9930 H   0  0  0  0  0  0  0  0  0  0  0  0
   42.1080   70.0480   59.7940 H   0  0  0  0  0  0  0  0  0  0  0  0
   40.6450   74.0640   61.2850 C   0  0  0  0  0  3  0  0  0  0  0  0
   39.1180   74.1350   61.1650 C   0  0  0  0  0  2  0  0  0  0  0  0
   38.9850   75.6280   60.8540 C   0  0  0  0  0  2  0  0  0  0  0  0
   40.1800   75.9270   59.9490 C   0  0  0  0  0  2  0  0  0  0  0  0
   41.0380   74.6690   59.9660 C   0  0  0  0  0  2  0  0  0  0  0  0
  1 10  1  0  0  0  0
  2  1  2  0  0  0  0
  3  2  1  0  0  0  0
  3  4  2  0  0  0  0
  4  5  1  0  0  0  0
  5 10  2  0  0  0  0
  5  6  1  0  0  0  0
  6  7  2  0  0  0  0
  7  8  1  0  0  0  0
  7 15  1  0  0  0  0
  8 16  1  0  0  0  0
  9 17  1  0  0  0  0
  9  8  2  0  0  0  0
 10  9  1  0  0  0  0
 11  2  1  0  0  0  0
 12  3  1  0  0  0  0
 13  4  1  0  0  0  0
 14  6  1  0  0  0  0
 18 24  1  0  0  0  0
 19  1  1  0  0  0  0
 19 18  2  0  0  0  0
 20 19  1  0  0  0  0
 21 20  2  0  0  0  0
 21 22  1  0  0  0  0
 22 23  2  0  0  0  0
 23 18  1  0  0  0  0
 25 20  1  0  0  0  0
 26 22  1  0  0  0  0
 27 26  1  0  0  0  0
 28 27  1  0  0  0  0
 29 30  1  0  0  0  0
 29 28  1  0  0  0  0
 30 26  1  0  0  0  0
M  END
>  <minimizedAffinity>
-6.36453295

$$$$

 OpenBabel03212520343D

 30 33  0  0  0  0  0  0  0  0999 V2000
   40.0350   75.1870   59.6800 C   0  0  0  0  0  0  0  0  0  0  0  0
   40.5510   76.4400   60.0170 C   0  0  0  0  0  0  0  0  0  0  0  0
   40.1670   77.6150   59.3990 C   0  0  0  0  0  0  0  0  0  0  0  0
   39.2190   77.5670   58.3860 C   0  0  0  0  0  0  0  0  0  0  0  0
   38.7030   76.3400   58.0450 C   0  0  0  0  0  0  0  0  0  0  0  0
   37.7510   76.1780   57.0490 C   0  0  0  0  0  0  0  0  0  0  0  0
   37.2400   74.9330   56.7170 C   0  0  0  0  0  0  0  0  0  0  0  0
   37.6620   73.7890   57.3720 C   0  0  0  0  0  0  0  0  0  0  0  0
   38.6090   73.9230   58.3670 C   0  0  0  0  0  0  0  0  0  0  0  0
   39.0890   75.1730   58.6650 C   0  0  0  0  0  0  0  0  0  0  0  0
   41.2960   76.5650   60.7980 H   0  0  0  0  0  0  0  0  0  0  0  0
   40.5680   78.5670   59.6640 H   0  0  0  0  0  0  0  0  0  0  0  0
   38.8900   78.4520   57.8770 H   0  0  0  0  0  0  0  0  0  0  0  0
   37.4270   77.0910   56.5410 H   0  0  0  0  0  0  0  0  0  0  0  0
   36.5070   74.9620   55.9230 H   0  0  0  0  0  0  0  0  0  0  0  0
   37.2310   72.8570   57.0700 H   0  0  0  0  0  0  0  0  0  0  0  0
   38.9210   73.0180   58.8680 H   0  0  0  0  0  0  0  0  0  0  0  0
   40.0620   73.3930   61.5420 C   0  0  0  0  0  0  0  0  0  0  0  0
   40.5690   74.0830   60.4440 C   0  0  0  0  0  0  0  0  0  0  0  0
   41.8350   73.6590   59.9650 C   0  0  0  0  0  0  0  0  0  0  0  0
   42.4780   72.6300   60.5780 N   0  0  0  0  0  0  0  0  0  0  0  0
   41.9230   72.0000   61.6500 C   0  0  0  0  0  0  0  0  0  0  0  0
   40.7370   72.3890   62.1070 N   0  0  0  0  0  0  0  0  0  0  0  0
   39.1110   73.7640   61.8390 H   0  0  0  0  0  0  0  0  0  0  0  0
   42.3530   74.0990   59.1220 H   0  0  0  0  0  0  0  0  0  0  0  0
   42.6180   70.8950   62.3080 C   0  0  0  0  0  3  0  0  0  0  0  0
   43.1180   69.8390   61.3130 C   0  0  0  0  0  2  0  0  0  0  0  0
   43.6950   68.8380   62.3160 C   0  0  0  0  0  2  0  0  0  0  0  0
   42.7120   68.8770   63.4870 C   0  0  0  0  0  2  0  0  0  0  0  0
   41.7640   70.0330   63.1950 C   0  0  0  0  0  2  0  0  0  0  0  0
  1  2  1  0  0  0  0
  1 19  1  0  0  0  0
  2 11  1  0  0  0  0
  3 12  1  0  0  0  0
  3  2  2  0  0  0  0
  4  3  1  0  0  0  0
  5  4  2  0  0  0  0
  5 10  1  0  0  0  0
  6  5  1  0  0  0  0
  7  6  2  0  0  0  0
  7  8  1  0  0  0  0
  8  9  2  0  0  0  0
  9 10  1  0  0  0  0
  9 17  1  0  0  0  0
 10  1  2  0  0  0  0
 13  4  1  0  0  0  0
 14  6  1  0  0  0  0
 15  7  1  0  0  0  0
 16  8  1  0  0  0  0
 18 24  1  0  0  0  0
 18 23  1  0  0  0  0
 19 18  2  0  0  0  0
 20 19  1  0  0  0  0
 20 21  2  0  0  0  0
 21 22  1  0  0  0  0
 22 23  2  0  0  0  0
 22 26  1  0  0  0  0
 25 20  1  0  0  0  0
 26 30  1  0  0  0  0
 27 26  1  0  0  0  0
 27 28  1  0  0  0  0
 28 29  1  0  0  0  0
 30 29  1  0  0  0  0
M  END
>  <minimizedAffinity>
-6.31798553

$$$$

 OpenBabel03212520343D

 30 33  0  0  0  0  0  0  0  0999 V2000
   40.7450   73.4920   60.7420 C   0  0  0  0  0  0  0  0  0  0  0  0
   39.4380   73.5220   61.2340 C   0  0  0  0  0  0  0  0  0  0  0  0
   38.6260   74.6390   61.1750 C   0  0  0  0  0  0  0  0  0  0  0  0
   39.1170   75.8030   60.6000 C   0  0  0  0  0  0  0  0  0  0  0  0
   40.4010   75.7860   60.1120 C   0  0  0  0  0  0  0  0  0  0  0  0
   40.9910   76.8930   59.5170 C   0  0  0  0  0  0  0  0  0  0  0  0
   42.2870   76.8600   59.0300 C   0  0  0  0  0  0  0  0  0  0  0  0
   43.0550   75.7110   59.1150 C   0  0  0  0  0  0  0  0  0  0  0  0
   42.4920   74.5960   59.7030 C   0  0  0  0  0  0  0  0  0  0  0  0
   41.2060   74.6710   60.1730 C   0  0  0  0  0  0  0  0  0  0  0  0
   38.9780   72.6540   61.6990 H   0  0  0  0  0  0  0  0  0  0  0  0
   37.6290   74.6500   61.5550 H   0  0  0  0  0  0  0  0  0  0  0  0
   38.5240   76.6940   60.5320 H   0  0  0  0  0  0  0  0  0  0  0  0
   40.3710   77.7920   59.4570 H   0  0  0  0  0  0  0  0  0  0  0  0
   42.6110   77.7950   58.5940 H   0  0  0  0  0  0  0  0  0  0  0  0
   44.0500   75.7480   58.7200 H   0  0  0  0  0  0  0  0  0  0  0  0
   43.1070   73.7100   59.7560 H   0  0  0  0  0  0  0  0  0  0  0  0
   41.7690   71.2430   59.9800 C   0  0  0  0  0  0  0  0  0  0  0  0
   41.4270   72.2290   60.9030 C   0  0  0  0  0  0  0  0  0  0  0  0
   41.7920   71.9820   62.2500 C   0  0  0  0  0  0  0  0  0  0  0  0
   42.4400   70.8310   62.5730 N   0  0  0  0  0  0  0  0  0  0  0  0
   42.7430   69.9090   61.6180 C   0  0  0  0  0  0  0  0  0  0  0  0
   42.4050   70.1310   60.3510 N   0  0  0  0  0  0  0  0  0  0  0  0
   41.4670   71.5020   58.9930 H   0  0  0  0  0  0  0  0  0  0  0  0
   41.5940   72.6540   63.0750 H   0  0  0  0  0  0  0  0  0  0  0  0
   43.4380   68.6720   61.9690 C   0  0  0  0  0  3  0  0  0  0  0  0
   42.5380   67.4350   61.8430 C   0  0  0  0  0  2  0  0  0  0  0  0
   43.5290   66.3830   62.3480 C   0  0  0  0  0  2  0  0  0  0  0  0
   44.2830   67.0910   63.4730 C   0  0  0  0  0  2  0  0  0  0  0  0
   43.8470   68.5500   63.4110 C   0  0  0  0  0  2  0  0  0  0  0  0
  1 19  1  0  0  0  0
  1  2  1  0  0  0  0
  2 11  1  0  0  0  0
  3  2  2  0  0  0  0
  3 12  1  0  0  0  0
  4  3  1  0  0  0  0
  5 10  1  0  0  0  0
  5  4  2  0  0  0  0
  6  5  1  0  0  0  0
  7  8  1  0  0  0  0
  7  6  2  0  0  0  0
  8  9  2  0  0  0  0
  9 17  1  0  0  0  0
  9 10  1  0  0  0  0
 10  1  2  0  0  0  0
 13  4  1  0  0  0  0
 14  6  1  0  0  0  0
 15  7  1  0  0  0  0
 16  8  1  0  0  0  0
 18 23  2  0  0  0  0
 18 19  1  0  0  0  0
 19 20  2  0  0  0  0
 20 21  1  0  0  0  0
 20 25  1  0  0  0  0
 22 26  1  0  0  0  0
 22 21  2  0  0  0  0
 23 22  1  0  0  0  0
 24 18  1  0  0  0  0
 26 30  1  0  0  0  0
 27 26  1  0  0  0  0
 27 28  1  0  0  0  0
 28 29  1  0  0  0  0
 30 29  1  0  0  0  0
M  END
>  <minimizedAffinity>
-6.31060505

$$$$

 OpenBabel03212520343D

 30 33  0  0  0  0  0  0  0  0999 V2000
   40.7890   73.5410   60.8560 C   0  0  0  0  0  0  0  0  0  0  0  0
   39.4520   73.6280   61.2510 C   0  0  0  0  0  0  0  0  0  0  0  0
   38.6250   74.6840   60.9190 C   0  0  0  0  0  0  0  0  0  0  0  0
   39.1320   75.7240   60.1520 C   0  0  0  0  0  0  0  0  0  0  0  0
   40.4450   75.6510   59.7570 C   0  0  0  0  0  0  0  0  0  0  0  0
   41.0540   76.6340   58.9890 C   0  0  0  0  0  0  0  0  0  0  0  0
   42.3790   76.5440   58.5980 C   0  0  0  0  0  0  0  0  0  0  0  0
   43.1610   75.4610   58.9600 C   0  0  0  0  0  0  0  0  0  0  0  0
   42.5800   74.4690   59.7240 C   0  0  0  0  0  0  0  0  0  0  0  0
   41.2650   74.5960   60.0900 C   0  0  0  0  0  0  0  0  0  0  0  0
   38.9780   72.8570   61.8530 H   0  0  0  0  0  0  0  0  0  0  0  0
   37.6050   74.7400   61.2270 H   0  0  0  0  0  0  0  0  0  0  0  0
   38.5290   76.5650   59.8700 H   0  0  0  0  0  0  0  0  0  0  0  0
   40.4230   77.4830   58.7100 H   0  0  0  0  0  0  0  0  0  0  0  0
   42.7140   77.3830   58.0040 H   0  0  0  0  0  0  0  0  0  0  0  0
   44.1790   75.4490   58.6270 H   0  0  0  0  0  0  0  0  0  0  0  0
   43.2070   73.6310   59.9920 H   0  0  0  0  0  0  0  0  0  0  0  0
   42.0830   72.0520   62.5280 C   0  0  0  0  0  0  0  0  0  0  0  0
   41.4820   72.3570   61.3100 C   0  0  0  0  0  0  0  0  0  0  0  0
   41.5450   71.3550   60.3090 C   0  0  0  0  0  0  0  0  0  0  0  0
   42.1700   70.1760   60.5730 N   0  0  0  0  0  0  0  0  0  0  0  0
   42.7370   69.9450   61.7890 C   0  0  0  0  0  0  0  0  0  0  0  0
   42.6840   70.8780   62.7350 N   0  0  0  0  0  0  0  0  0  0  0  0
   41.9900   72.8480   63.2270 H   0  0  0  0  0  0  0  0  0  0  0  0
   41.1240   71.4480   59.3150 H   0  0  0  0  0  0  0  0  0  0  0  0
   43.4090   68.6770   62.0690 C   0  0  0  0  0  3  0  0  0  0  0  0
   42.4670   67.4720   61.9430 C   0  0  0  0  0  2  0  0  0  0  0  0
   43.4460   66.3750   62.3690 C   0  0  0  0  0  2  0  0  0  0  0  0
   44.2690   67.0230   63.4820 C   0  0  0  0  0  2  0  0  0  0  0  0
   43.8760   68.4940   63.4870 C   0  0  0  0  0  2  0  0  0  0  0  0
  1  2  1  0  0  0  0
  1 19  1  0  0  0  0
  2 11  1  0  0  0  0
  3 12  1  0  0  0  0
  3  2  2  0  0  0  0
  4  3  1  0  0  0  0
  5 10  1  0  0  0  0
  5  4  2  0  0  0  0
  6  5  1  0  0  0  0
  7  8  1  0  0  0  0
  7  6  2  0  0  0  0
  8  9  2  0  0  0  0
  9 17  1  0  0  0  0
  9 10  1  0  0  0  0
 10  1  2  0  0  0  0
 13  4  1  0  0  0  0
 14  6  1  0  0  0  0
 15  7  1  0  0  0  0
 16  8  1  0  0  0  0
 18 23  1  0  0  0  0
 18 24  1  0  0  0  0
 19 18  2  0  0  0  0
 20 21  2  0  0  0  0
 20 19  1  0  0  0  0
 21 22  1  0  0  0  0
 22 26  1  0  0  0  0
 22 23  2  0  0  0  0
 25 20  1  0  0  0  0
 26 30  1  0  0  0  0
 27 26  1  0  0  0  0
 27 28  1  0  0  0  0
 28 29  1  0  0  0  0
 29 30  1  0  0  0  0
M  END
>  <minimizedAffinity>
-6.21320438

$$$$

 OpenBabel03212520343D

 30 33  0  0  0  0  0  0  0  0999 V2000
   42.2710   73.2650   59.9020 C   0  0  0  0  0  0  0  0  0  0  0  0
   43.4390   73.7000   59.2730 C   0  0  0  0  0  0  0  0  0  0  0  0
   43.6620   75.0120   58.8990 C   0  0  0  0  0  0  0  0  0  0  0  0
   42.6840   75.9630   59.1540 C   0  0  0  0  0  0  0  0  0  0  0  0
   41.5290   75.5480   59.7730 C   0  0  0  0  0  0  0  0  0  0  0  0
   40.4880   76.4140   60.0740 C   0  0  0  0  0  0  0  0  0  0  0  0
   39.3300   75.9800   60.6990 C   0  0  0  0  0  0  0  0  0  0  0  0
   39.1620   74.6520   61.0510 C   0  0  0  0  0  0  0  0  0  0  0  0
   40.1830   73.7700   60.7620 C   0  0  0  0  0  0  0  0  0  0  0  0
   41.3120   74.2400   60.1430 C   0  0  0  0  0  0  0  0  0  0  0  0
   44.2540   73.0200   59.0380 H   0  0  0  0  0  0  0  0  0  0  0  0
   44.5590   75.3330   58.4190 H   0  0  0  0  0  0  0  0  0  0  0  0
   42.8120   76.9930   58.8820 H   0  0  0  0  0  0  0  0  0  0  0  0
   40.6360   77.4600   59.7900 H   0  0  0  0  0  0  0  0  0  0  0  0
   38.6080   76.7660   60.8690 H   0  0  0  0  0  0  0  0  0  0  0  0
   38.2440   74.3780   61.5310 H   0  0  0  0  0  0  0  0  0  0  0  0
   40.0320   72.7390   61.0490 H   0  0  0  0  0  0  0  0  0  0  0  0
   41.7380   70.7690   59.4890 C   0  0  0  0  0  0  0  0  0  0  0  0
   42.2330   71.8540   60.2080 C   0  0  0  0  0  0  0  0  0  0  0  0
   42.8050   71.5630   61.4730 C   0  0  0  0  0  0  0  0  0  0  0  0
   42.8440   70.2770   61.9150 N   0  0  0  0  0  0  0  0  0  0  0  0
   42.3400   69.2630   61.1580 C   0  0  0  0  0  0  0  0  0  0  0  0
   41.8020   69.5260   59.9710 N   0  0  0  0  0  0  0  0  0  0  0  0
   41.3310   71.0660   58.5530 H   0  0  0  0  0  0  0  0  0  0  0  0
   43.2290   72.3010   62.1420 H   0  0  0  0  0  0  0  0  0  0  0  0
   42.3830   67.8830   61.6370 C   0  0  0  0  0  3  0  0  0  0  0  0
   42.4550   66.8650   60.4920 C   0  0  0  0  0  2  0  0  0  0  0  0
   42.4030   65.5820   61.3260 C   0  0  0  0  0  2  0  0  0  0  0  0
   41.4240   65.9110   62.4530 C   0  0  0  0  0  2  0  0  0  0  0  0
   41.1400   67.4030   62.3340 C   0  0  0  0  0  2  0  0  0  0  0  0
  1 10  1  0  0  0  0
  1 19  1  0  0  0  0
  2  1  2  0  0  0  0
  3  4  2  0  0  0  0
  3  2  1  0  0  0  0
  4  5  1  0  0  0  0
  5  6  2  0  0  0  0
  5 10  1  0  0  0  0
  6  7  1  0  0  0  0
  7 15  1  0  0  0  0
  7  8  2  0  0  0  0
  8 16  1  0  0  0  0
  9 17  1  0  0  0  0
  9  8  1  0  0  0  0
 10  9  2  0  0  0  0
 11  2  1  0  0  0  0
 12  3  1  0  0  0  0
 13  4  1  0  0  0  0
 14  6  1  0  0  0  0
 18 23  2  0  0  0  0
 18 19  1  0  0  0  0
 19 20  2  0  0  0  0
 20 21  1  0  0  0  0
 20 25  1  0  0  0  0
 22 26  1  0  0  0  0
 22 21  2  0  0  0  0
 23 22  1  0  0  0  0
 24 18  1  0  0  0  0
 26 30  1  0  0  0  0
 27 28  1  0  0  0  0
 27 26  1  0  0  0  0
 28 29  1  0  0  0  0
 30 29  1  0  0  0  0
M  END
>  <minimizedAffinity>
-6.07239389

$$$$

 OpenBabel03212520343D

 30 33  0  0  0  0  0  0  0  0999 V2000
   39.3760   73.5830   58.9770 C   0  0  0  0  0  0  0  0  0  0  0  0
   38.4620   72.8510   58.2170 C   0  0  0  0  0  0  0  0  0  0  0  0
   37.5940   73.4230   57.3060 C   0  0  0  0  0  0  0  0  0  0  0  0
   37.6170   74.7990   57.1230 C   0  0  0  0  0  0  0  0  0  0  0  0
   38.5120   75.5310   57.8650 C   0  0  0  0  0  0  0  0  0  0  0  0
   38.6200   76.9110   57.7620 C   0  0  0  0  0  0  0  0  0  0  0  0
   39.5280   77.6350   58.5170 C   0  0  0  0  0  0  0  0  0  0  0  0
   40.3740   77.0070   59.4150 C   0  0  0  0  0  0  0  0  0  0  0  0
   40.2870   75.6350   59.5370 C   0  0  0  0  0  0  0  0  0  0  0  0
   39.3750   74.9560   58.7710 C   0  0  0  0  0  0  0  0  0  0  0  0
   38.3800   71.7700   58.2990 H   0  0  0  0  0  0  0  0  0  0  0  0
   36.9000   72.8530   56.7300 H   0  0  0  0  0  0  0  0  0  0  0  0
   36.9630   75.2880   56.4280 H   0  0  0  0  0  0  0  0  0  0  0  0
   37.9450   77.3920   57.0480 H   0  0  0  0  0  0  0  0  0  0  0  0
   39.4970   78.6990   58.3300 H   0  0  0  0  0  0  0  0  0  0  0  0
   41.0530   77.6210   59.9700 H   0  0  0  0  0  0  0  0  0  0  0  0
   40.9590   75.1650   60.2400 H   0  0  0  0  0  0  0  0  0  0  0  0
   40.3020   72.8020   61.2620 C   0  0  0  0  0  0  0  0  0  0  0  0
   40.1910   72.7960   59.8740 C   0  0  0  0  0  0  0  0  0  0  0  0
   41.0130   71.8710   59.1810 C   0  0  0  0  0  0  0  0  0  0  0  0
   41.8470   71.0560   59.8800 N   0  0  0  0  0  0  0  0  0  0  0  0
   41.9040   71.1150   61.2390 C   0  0  0  0  0  0  0  0  0  0  0  0
   41.1370   71.9780   61.8980 N   0  0  0  0  0  0  0  0  0  0  0  0
   39.6530   73.5160   61.7080 H   0  0  0  0  0  0  0  0  0  0  0  0
   41.0360   71.7530   58.1050 H   0  0  0  0  0  0  0  0  0  0  0  0
   42.8020   70.2370   61.9870 C   0  0  0  0  0  3  0  0  0  0  0  0
   43.3190   69.0660   61.1400 C   0  0  0  0  0  2  0  0  0  0  0  0
   44.1260   68.3440   62.2220 C   0  0  0  0  0  2  0  0  0  0  0  0
   43.2810   68.5060   63.4860 C   0  0  0  0  0  2  0  0  0  0  0  0
   42.1680   69.4780   63.1190 C   0  0  0  0  0  2  0  0  0  0  0  0
  1 19  1  0  0  0  0
  2 11  1  0  0  0  0
  2  1  2  0  0  0  0
  3  2  1  0  0  0  0
  4  3  2  0  0  0  0
  4  5  1  0  0  0  0
  5 10  1  0  0  0  0
  6  5  2  0  0  0  0
  6  7  1  0  0  0  0
  7  8  2  0  0  0  0
  8  9  1  0  0  0  0
  8 16  1  0  0  0  0
  9 17  1  0  0  0  0
 10  1  1  0  0  0  0
 10  9  2  0  0  0  0
 12  3  1  0  0  0  0
 13  4  1  0  0  0  0
 14  6  1  0  0  0  0
 15  7  1  0  0  0  0
 18 24  1  0  0  0  0
 18 23  1  0  0  0  0
 19 18  2  0  0  0  0
 20 19  1  0  0  0  0
 20 21  2  0  0  0  0
 21 22  1  0  0  0  0
 22 23  2  0  0  0  0
 22 26  1  0  0  0  0
 25 20  1  0  0  0  0
 26 30  1  0  0  0  0
 27 26  1  0  0  0  0
 27 28  1  0  0  0  0
 28 29  1  0  0  0  0
 30 29  1  0  0  0  0
M  END
>  <minimizedAffinity>
-5.67186451

$$$$

 OpenBabel03212520343D

 30 33  0  0  0  0  0  0  0  0999 V2000
   40.8250   70.5640   56.1210 C   0  0  0  0  0  0  0  0  0  0  0  0
   41.3430   69.4880   56.8430 C   0  0  0  0  0  0  0  0  0  0  0  0
   41.5710   68.2400   56.2940 C   0  0  0  0  0  0  0  0  0  0  0  0
   41.2750   68.0260   54.9550 C   0  0  0  0  0  0  0  0  0  0  0  0
   40.7650   69.0780   54.2340 C   0  0  0  0  0  0  0  0  0  0  0  0
   40.4340   68.9750   52.8900 C   0  0  0  0  0  0  0  0  0  0  0  0
   39.9210   70.0460   52.1760 C   0  0  0  0  0  0  0  0  0  0  0  0
   39.7140   71.2740   52.7790 C   0  0  0  0  0  0  0  0  0  0  0  0
   40.0340   71.4030   54.1160 C   0  0  0  0  0  0  0  0  0  0  0  0
   40.5400   70.3190   54.7850 C   0  0  0  0  0  0  0  0  0  0  0  0
   41.6020   69.5710   57.8960 H   0  0  0  0  0  0  0  0  0  0  0  0
   41.9680   67.4240   56.8550 H   0  0  0  0  0  0  0  0  0  0  0  0
   41.4350   67.0750   54.4850 H   0  0  0  0  0  0  0  0  0  0  0  0
   40.6040   67.9980   52.4280 H   0  0  0  0  0  0  0  0  0  0  0  0
   39.7110   69.8160   51.1410 H   0  0  0  0  0  0  0  0  0  0  0  0
   39.3140   72.0630   52.1750 H   0  0  0  0  0  0  0  0  0  0  0  0
   39.8680   72.3720   54.5650 H   0  0  0  0  0  0  0  0  0  0  0  0
   41.4610   72.9170   56.9880 C   0  0  0  0  0  0  0  0  0  0  0  0
   40.6590   71.7830   56.8800 C   0  0  0  0  0  0  0  0  0  0  0  0
   39.4620   71.7850   57.6400 C   0  0  0  0  0  0  0  0  0  0  0  0
   39.1580   72.8600   58.4160 N   0  0  0  0  0  0  0  0  0  0  0  0
   39.9900   73.9360   58.4740 C   0  0  0  0  0  0  0  0  0  0  0  0
   41.1140   73.9440   57.7650 N   0  0  0  0  0  0  0  0  0  0  0  0
   42.3350   72.8420   56.3870 H   0  0  0  0  0  0  0  0  0  0  0  0
   38.7420   70.9770   57.6570 H   0  0  0  0  0  0  0  0  0  0  0  0
   39.6600   75.0890   59.3100 C   0  0  0  0  0  3  0  0  0  0  0  0
   40.8230   76.0830   59.4270 C   0  0  0  0  0  2  0  0  0  0  0  0
   40.1760   77.0740   60.3980 C   0  0  0  0  0  2  0  0  0  0  0  0
   39.3780   76.1890   61.3550 C   0  0  0  0  0  2  0  0  0  0  0  0
   39.4300   74.7860   60.7640 C   0  0  0  0  0  2  0  0  0  0  0  0
  1  2  1  0  0  0  0
  1 19  1  0  0  0  0
  2 11  1  0  0  0  0
  3  2  2  0  0  0  0
  3 12  1  0  0  0  0
  4  3  1  0  0  0  0
  5 10  1  0  0  0  0
  5  4  2  0  0  0  0
  6  5  1  0  0  0  0
  7  8  1  0  0  0  0
  7  6  2  0  0  0  0
  8  9  2  0  0  0  0
  9 17  1  0  0  0  0
  9 10  1  0  0  0  0
 10  1  2  0  0  0  0
 13  4  1  0  0  0  0
 14  6  1  0  0  0  0
 15  7  1  0  0  0  0
 16  8  1  0  0  0  0
 18 23  1  0  0  0  0
 19 18  2  0  0  0  0
 19 20  1  0  0  0  0
 20 25  1  0  0  0  0
 20 21  2  0  0  0  0
 21 22  1  0  0  0  0
 22 26  1  0  0  0  0
 23 22  2  0  0  0  0
 24 18  1  0  0  0  0
 26 27  1  0  0  0  0
 26 30  1  0  0  0  0
 27 28  1  0  0  0  0
 28 29  1  0  0  0  0
 30 29  1  0  0  0  0
M  END
>  <minimizedAffinity>
-5.47417402

$$$$

 OpenBabel03212520343D

 30 33  0  0  0  0  0  0  0  0999 V2000
   40.1250   73.8670   59.3670 C   0  0  0  0  0  0  0  0  0  0  0  0
   39.0270   73.6250   60.1940 C   0  0  0  0  0  0  0  0  0  0  0  0
   38.5160   74.5590   61.0770 C   0  0  0  0  0  0  0  0  0  0  0  0
   39.1140   75.8090   61.1590 C   0  0  0  0  0  0  0  0  0  0  0  0
   40.1950   76.0590   60.3490 C   0  0  0  0  0  0  0  0  0  0  0  0
   40.8670   77.2730   60.3490 C   0  0  0  0  0  0  0  0  0  0  0  0
   41.9560   77.5100   59.5260 C   0  0  0  0  0  0  0  0  0  0  0  0
   42.4230   76.5360   58.6600 C   0  0  0  0  0  0  0  0  0  0  0  0
   41.7730   75.3190   58.6410 C   0  0  0  0  0  0  0  0  0  0  0  0
   40.6990   75.1260   59.4710 C   0  0  0  0  0  0  0  0  0  0  0  0
   38.5020   72.6740   60.1920 H   0  0  0  0  0  0  0  0  0  0  0  0
   37.6770   74.3640   61.7050 H   0  0  0  0  0  0  0  0  0  0  0  0
   38.7540   76.5650   61.8290 H   0  0  0  0  0  0  0  0  0  0  0  0
   40.4860   78.0320   61.0380 H   0  0  0  0  0  0  0  0  0  0  0  0
   42.3770   78.5000   59.6360 H   0  0  0  0  0  0  0  0  0  0  0  0
   43.2690   76.7790   58.0500 H   0  0  0  0  0  0  0  0  0  0  0  0
   42.1520   74.5750   57.9550 H   0  0  0  0  0  0  0  0  0  0  0  0
   40.3280   72.5440   57.1540 C   0  0  0  0  0  0  0  0  0  0  0  0
   40.5030   72.7590   58.5180 C   0  0  0  0  0  0  0  0  0  0  0  0
   41.1590   71.7290   59.2390 C   0  0  0  0  0  0  0  0  0  0  0  0
   41.5770   70.6120   58.5870 N   0  0  0  0  0  0  0  0  0  0  0  0
   41.3720   70.4670   57.2490 C   0  0  0  0  0  0  0  0  0  0  0  0
   40.7580   71.4260   56.5640 N   0  0  0  0  0  0  0  0  0  0  0  0
   39.8340   73.3600   56.6830 H   0  0  0  0  0  0  0  0  0  0  0  0
   41.3650   71.7560   60.3020 H   0  0  0  0  0  0  0  0  0  0  0  0
   41.8220   69.2630   56.5520 C   0  0  0  0  0  3  0  0  0  0  0  0
   43.2800   69.3630   56.0860 C   0  0  0  0  0  2  0  0  0  0  0  0
   43.3770   68.0200   55.3570 C   0  0  0  0  0  2  0  0  0  0  0  0
   42.0110   67.8620   54.6880 C   0  0  0  0  0  2  0  0  0  0  0  0
   41.1470   68.9900   55.2360 C   0  0  0  0  0  2  0  0  0  0  0  0
  1 10  2  0  0  0  0
  1  2  1  0  0  0  0
  2  3  2  0  0  0  0
  3  4  1  0  0  0  0
  3 12  1  0  0  0  0
  4 13  1  0  0  0  0
  5  4  2  0  0  0  0
  6  5  1  0  0  0  0
  6 14  1  0  0  0  0
  7 15  1  0  0  0  0
  7  6  2  0  0  0  0
  8  7  1  0  0  0  0
  9  8  2  0  0  0  0
  9 10  1  0  0  0  0
 10  5  1  0  0  0  0
 11  2  1  0  0  0  0
 16  8  1  0  0  0  0
 17  9  1  0  0  0  0
 18 19  1  0  0  0  0
 19 20  2  0  0  0  0
 19  1  1  0  0  0  0
 20 25  1  0  0  0  0
 21 20  1  0  0  0  0
 22 21  2  0  0  0  0
 23 18  2  0  0  0  0
 23 22  1  0  0  0  0
 24 18  1  0  0  0  0
 26 22  1  0  0  0  0
 27 26  1  0  0  0  0
 28 27  1  0  0  0  0
 29 30  1  0  0  0  0
 29 28  1  0  0  0  0
 30 26  1  0  0  0  0
M  END
>  <minimizedAffinity>
-5.47206593

$$$$
