
 OpenBabel03212520443D

 14 15  0  0  0  0  0  0  0  0999 V2000
   40.1360   81.9540   60.7940 C   0  0  0  0  0  0  0  0  0  0  0  0
   40.2220   82.8200   59.6840 C   0  0  0  0  0  0  0  0  0  0  0  0
   39.6090   84.0680   59.7890 C   0  0  0  0  0  0  0  0  0  0  0  0
   38.9650   84.3830   60.9480 N   0  0  0  0  0  0  0  0  0  0  0  0
   38.9030   83.5290   61.9930 C   0  0  0  0  0  0  0  0  0  0  0  0
   39.4920   82.3150   61.9060 N   0  0  0  0  0  0  0  0  0  0  0  0
   40.7570   82.4910   58.7900 H   0  0  0  0  0  0  0  0  0  0  0  0
   39.6540   84.7440   58.9700 H   0  0  0  0  0  0  0  0  0  0  0  0
   38.3680   83.8760   62.8670 H   0  0  0  0  0  0  0  0  0  0  0  0
   40.7630   80.6210   60.7480 C   0  0  0  0  0  3  0  0  0  0  0  0
   40.4380   79.7600   61.9480 C   0  0  0  0  0  2  0  0  0  0  0  0
   41.0920   78.4510   61.4860 C   0  0  0  0  0  2  0  0  0  0  0  0
   40.9030   78.4190   59.9880 C   0  0  0  0  0  2  0  0  0  0  0  0
   40.3060   79.7610   59.6160 C   0  0  0  0  0  2  0  0  0  0  0  0
  1  6  1  0  0  0  0
  2  3  1  0  0  0  0
  2  1  2  0  0  0  0
  3  4  2  0  0  0  0
  4  5  1  0  0  0  0
  5  9  1  0  0  0  0
  6  5  2  0  0  0  0
  7  2  1  0  0  0  0
  8  3  1  0  0  0  0
 10  1  1  0  0  0  0
 10 11  1  0  0  0  0
 12 11  1  0  0  0  0
 13 12  1  0  0  0  0
 14 13  1  0  0  0  0
 14 10  1  0  0  0  0
M  END
>  <minimizedAffinity>
-4.21125889

>  <minimizedRMSD>
0.791105092

$$$$
