
 OpenBabel03212520453D

 14 15  0  0  0  0  0  0  0  0999 V2000
   40.2690   82.0990   60.9100 C   0  0  0  0  0  0  0  0  0  0  0  0
   40.3220   82.9310   59.7720 C   0  0  0  0  0  0  0  0  0  0  0  0
   39.6010   84.1250   59.8120 C   0  0  0  0  0  0  0  0  0  0  0  0
   38.8900   84.4210   60.9370 N   0  0  0  0  0  0  0  0  0  0  0  0
   38.8630   83.5990   62.0090 C   0  0  0  0  0  0  0  0  0  0  0  0
   39.5570   82.4390   61.9850 N   0  0  0  0  0  0  0  0  0  0  0  0
   40.9150   82.6210   58.9100 H   0  0  0  0  0  0  0  0  0  0  0  0
   39.6190   84.7750   58.9710 H   0  0  0  0  0  0  0  0  0  0  0  0
   38.2690   83.9270   62.8520 H   0  0  0  0  0  0  0  0  0  0  0  0
   41.0080   80.8240   60.9320 C   0  0  0  0  0  3  0  0  0  0  0  0
   42.2430   80.8580   61.8050 C   0  0  0  0  0  2  0  0  0  0  0  0
   42.6360   79.3770   61.7230 C   0  0  0  0  0  2  0  0  0  0  0  0
   41.3280   78.6240   61.6430 C   0  0  0  0  0  2  0  0  0  0  0  0
   40.2490   79.6790   61.5160 C   0  0  0  0  0  2  0  0  0  0  0  0
  1 10  1  0  0  0  0
  1  6  1  0  0  0  0
  2  3  1  0  0  0  0
  2  1  2  0  0  0  0
  3  4  2  0  0  0  0
  4  5  1  0  0  0  0
  5  9  1  0  0  0  0
  6  5  2  0  0  0  0
  7  2  1  0  0  0  0
  8  3  1  0  0  0  0
 10 14  1  0  0  0  0
 10 11  1  0  0  0  0
 12 11  1  0  0  0  0
 13 12  1  0  0  0  0
 14 13  1  0  0  0  0
M  END
>  <minimizedAffinity>
-4.2945528

>  <minimizedRMSD>
0.643936396

$$$$
