
 OpenBabel03212521073D

 32 35  0  0  0  0  0  0  0  0999 V2000
   41.8180   84.2510   61.5750 C   0  0  0  0  0  0  0  0  0  0  0  0
   41.4650   83.9340   62.8760 C   0  0  0  0  0  0  0  0  0  0  0  0
   40.1910   83.5100   63.2040 C   0  0  0  0  0  0  0  0  0  0  0  0
   39.2330   83.3970   62.1980 C   0  0  0  0  0  0  0  0  0  0  0  0
   39.5800   83.7140   60.8840 C   0  0  0  0  0  0  0  0  0  0  0  0
   40.8520   84.1340   60.5780 C   0  0  0  0  0  0  0  0  0  0  0  0
   42.2310   84.0310   63.6400 H   0  0  0  0  0  0  0  0  0  0  0  0
   39.9510   83.2720   64.2290 H   0  0  0  0  0  0  0  0  0  0  0  0
   38.2290   83.0710   62.4040 H   0  0  0  0  0  0  0  0  0  0  0  0
   38.8040   83.6130   60.1300 H   0  0  0  0  0  0  0  0  0  0  0  0
   45.3540   84.1470   60.6730 C   0  0  0  0  0  0  0  0  0  0  0  0
   45.7330   85.4860   60.7320 C   0  0  0  0  0  0  0  0  0  0  0  0
   44.7530   86.4450   61.0910 C   0  0  0  0  0  0  0  0  0  0  0  0
   43.5070   85.9930   61.3530 N   0  0  0  0  0  0  0  0  0  0  0  0
   43.1610   84.6880   61.2890 C   0  0  0  0  0  0  0  0  0  0  0  0
   44.0910   83.7860   60.9490 N   0  0  0  0  0  0  0  0  0  0  0  0
   46.0690   83.3700   60.4030 H   0  0  0  0  0  0  0  0  0  0  0  0
   46.7480   85.7580   60.5090 H   0  0  0  0  0  0  0  0  0  0  0  0
   45.0280   87.4870   61.1430 H   0  0  0  0  0  0  0  0  0  0  0  0
   41.1730   84.4550   59.1940 C   0  0  0  0  0  0  0  0  0  0  0  0
   40.6480   85.6970   58.8160 C   0  0  0  0  0  0  0  0  0  0  0  0
   40.8450   86.1880   57.5290 C   0  0  0  0  0  0  0  0  0  0  0  0
   41.5500   85.4220   56.6900 N   0  0  0  0  0  0  0  0  0  0  0  0
   42.0590   84.2160   57.0580 C   0  0  0  0  0  0  0  0  0  0  0  0
   41.8700   83.7340   58.3100 N   0  0  0  0  0  0  0  0  0  0  0  0
   40.0650   86.3600   59.4660 H   0  0  0  0  0  0  0  0  0  0  0  0
   40.4490   87.1430   57.2180 H   0  0  0  0  0  0  0  0  0  0  0  0
   42.8360   83.3830   56.1170 C   0  0  0  0  0  3  0  0  0  0  0  0
   42.6950   83.9600   54.7210 C   0  0  0  0  0  2  0  0  0  0  0  0
   43.8170   83.3960   53.9250 C   0  0  0  0  0  2  0  0  0  0  0  0
   44.9370   83.2910   54.9190 C   0  0  0  0  0  2  0  0  0  0  0  0
   44.3310   83.4870   56.3060 C   0  0  0  0  0  2  0  0  0  0  0  0
  1  2  1  0  0  0  0
  2  3  2  0  0  0  0
  2  7  1  0  0  0  0
  3  8  1  0  0  0  0
  4  9  1  0  0  0  0
  4  3  1  0  0  0  0
  5  4  2  0  0  0  0
  6  5  1  0  0  0  0
  6  1  2  0  0  0  0
 10  5  1  0  0  0  0
 11 12  2  0  0  0  0
 11 16  1  0  0  0  0
 12 13  1  0  0  0  0
 13 19  1  0  0  0  0
 13 14  2  0  0  0  0
 15 14  1  0  0  0  0
 15  1  1  0  0  0  0
 16 15  2  0  0  0  0
 17 11  1  0  0  0  0
 18 12  1  0  0  0  0
 20  6  1  0  0  0  0
 21 20  1  0  0  0  0
 21 26  1  0  0  0  0
 22 21  2  0  0  0  0
 23 24  2  0  0  0  0
 23 22  1  0  0  0  0
 24 25  1  0  0  0  0
 25 20  2  0  0  0  0
 27 22  1  0  0  0  0
 28 32  1  0  0  0  0
 28 24  1  0  0  0  0
 29 28  1  0  0  0  0
 30 29  1  0  0  0  0
 30 31  1  0  0  0  0
 31 32  1  0  0  0  0
M  END
>  <minimizedAffinity>
-5.39204502

>  <minimizedRMSD>
0.231846228

$$$$
