
 OpenBabel03212520593D

 38 42  0  0  1  0  0  0  0  0999 V2000
   39.8030   77.3970   59.1800 C   0  0  0  0  0  0  0  0  0  0  0  0
   40.5060   76.2600   58.9100 C   0  0  0  0  0  0  0  0  0  0  0  0
   39.9580   75.5540   57.8220 C   0  0  0  0  0  0  0  0  0  0  0  0
   38.8740   75.9460   57.1260 N   0  0  0  0  0  0  0  0  0  0  0  0
   38.2500   77.1040   57.4890 C   0  0  0  0  0  0  0  0  0  0  0  0
   38.7210   77.8350   58.5270 N   0  0  0  0  0  0  0  0  0  0  0  0
   41.3700   75.9090   59.4300 H   0  0  0  0  0  0  0  0  0  0  0  0
   40.4150   74.6220   57.4860 H   0  0  0  0  0  0  0  0  0  0  0  0
   40.9820   80.3390   61.7480 C   0  0  0  0  0  0  0  0  0  0  0  0
   40.9630   79.1030   62.3570 C   0  0  0  0  0  0  0  0  0  0  0  0
   40.5860   78.0510   61.5970 C   0  0  0  0  0  0  0  0  0  0  0  0
   40.2430   78.2400   60.2760 C   0  0  0  0  0  0  0  0  0  0  0  0
   40.4570   80.0520   60.0400 S   0  0  0  0  0  0  0  0  0  0  0  0
   41.2340   78.9550   63.3980 H   0  0  0  0  0  0  0  0  0  0  0  0
   40.5050   77.0100   61.8820 H   0  0  0  0  0  0  0  0  0  0  0  0
   43.0340   83.1500   62.9160 C   0  0  0  0  0  0  0  0  0  0  0  0
   42.1210   83.9000   63.7050 C   0  0  0  0  0  0  0  0  0  0  0  0
   40.8030   83.4360   63.8300 C   0  0  0  0  0  0  0  0  0  0  0  0
   40.4670   82.2980   63.1910 N   0  0  0  0  0  0  0  0  0  0  0  0
   41.3660   81.5990   62.4400 C   0  0  0  0  0  0  0  0  0  0  0  0
   42.6160   82.0310   62.3160 N   0  0  0  0  0  0  0  0  0  0  0  0
   44.0550   83.4870   62.8030 H   0  0  0  0  0  0  0  0  0  0  0  0
   42.4240   84.8010   64.1990 H   0  0  0  0  0  0  0  0  0  0  0  0
   40.0610   83.9500   64.4100 H   0  0  0  0  0  0  0  0  0  0  0  0
   37.0890   77.5100   56.7230 C   0  0  0  0  0  0  0  0  0  0  0  0
   35.9880   77.0490   57.0650 O   0  0  0  0  0  0  0  0  0  0  0  0
   37.1820   78.4460   55.5440 C   0  0  1  0  0  0  0  0  0  0  0  0
   37.2740   79.8960   55.9470 C   0  0  0  0  0  0  0  0  0  0  0  0
   38.4000   79.2020   55.3210 C   0  0  2  0  0  0  0  0  0  0  0  0
   36.2720   78.3650   54.8700 H   0  0  0  0  0  0  0  0  0  0  0  0
   36.7350   80.6880   55.4130 H   0  0  0  0  0  0  0  0  0  0  0  0
   37.4280   80.1440   57.0340 H   0  0  0  0  0  0  0  0  0  0  0  0
   39.2970   78.8510   55.8980 H   0  0  0  0  0  0  0  0  0  0  0  0
   38.7990   79.6980   53.9500 C   0  0  0  0  0  3  0  0  0  0  0  0
   40.1720   79.2280   53.5480 C   0  0  0  0  0  2  0  0  0  0  0  0
   40.2040   79.6690   52.0830 C   0  0  0  0  0  2  0  0  0  0  0  0
   38.7750   79.5070   51.6080 C   0  0  0  0  0  2  0  0  0  0  0  0
   37.9480   79.1750   52.8390 C   0  0  0  0  0  2  0  0  0  0  0  0
  1 12  1  0  0  0  0
  2  1  1  0  0  0  0
  2  7  1  0  0  0  0
  3  2  2  0  0  0  0
  4  5  2  0  0  0  0
  4  3  1  0  0  0  0
  5  6  1  0  0  0  0
  6  1  2  0  0  0  0
  8  3  1  0  0  0  0
  9 10  2  0  0  0  0
  9 20  1  0  0  0  0
 10 14  1  0  0  0  0
 11 15  1  0  0  0  0
 11 10  1  0  0  0  0
 12 11  2  0  0  0  0
 13 12  1  0  0  0  0
 13  9  1  0  0  0  0
 16 17  1  0  0  0  0
 17 18  2  0  0  0  0
 17 23  1  0  0  0  0
 18 24  1  0  0  0  0
 19 18  1  0  0  0  0
 20 19  2  0  0  0  0
 21 20  1  0  0  0  0
 21 16  2  0  0  0  0
 22 16  1  0  0  0  0
 25 26  2  0  0  0  0
 25  5  1  0  0  0  0
 27 30  1  6  0  0  0
 27 28  1  0  0  0  0
 27 25  1  0  0  0  0
 28 32  1  0  0  0  0
 29 27  1  0  0  0  0
 29 33  1  1  0  0  0
 29 28  1  0  0  0  0
 31 28  1  0  0  0  0
 34 29  1  0  0  0  0
 35 34  1  0  0  0  0
 36 35  1  0  0  0  0
 37 36  1  0  0  0  0
 37 38  1  0  0  0  0
 38 34  1  0  0  0  0
M  END
>  <minimizedAffinity>
-6.26433945

>  <minimizedRMSD>
0.616099536

$$$$
