
 OpenBabel03212520543D

 29 32  0  0  0  0  0  0  0  0999 V2000
   42.6310   79.0510   61.9560 C   0  0  0  0  0  0  0  0  0  0  0  0
   41.2750   78.7560   61.8290 C   0  0  0  0  0  0  0  0  0  0  0  0
   40.4280   79.7660   61.5270 C   0  0  0  0  0  0  0  0  0  0  0  0
   40.9330   81.0580   61.3550 C   0  0  0  0  0  0  0  0  0  0  0  0
   42.7370   80.8290   61.6400 S   0  0  0  0  0  0  0  0  0  0  0  0
   40.8820   77.7560   61.9630 H   0  0  0  0  0  0  0  0  0  0  0  0
   39.3580   79.7380   61.3880 H   0  0  0  0  0  0  0  0  0  0  0  0
   45.7910   77.2090   61.7870 C   0  0  0  0  0  0  0  0  0  0  0  0
   45.6220   76.2070   62.8050 C   0  0  0  0  0  0  0  0  0  0  0  0
   44.4300   76.1890   63.5240 C   0  0  0  0  0  0  0  0  0  0  0  0
   43.4940   77.1140   63.2270 N   0  0  0  0  0  0  0  0  0  0  0  0
   43.6630   78.0390   62.2800 C   0  0  0  0  0  0  0  0  0  0  0  0
   44.7930   78.0850   61.5720 N   0  0  0  0  0  0  0  0  0  0  0  0
   46.7010   77.2570   61.2070 H   0  0  0  0  0  0  0  0  0  0  0  0
   46.4150   75.5000   62.9870 H   0  0  0  0  0  0  0  0  0  0  0  0
   44.2690   75.4480   64.2970 H   0  0  0  0  0  0  0  0  0  0  0  0
   40.3830   82.3430   61.0440 C   0  0  0  0  0  0  0  0  0  0  0  0
   39.4350   82.8780   61.8980 C   0  0  0  0  0  0  0  0  0  0  0  0
   38.9690   84.1330   61.4960 C   0  0  0  0  0  0  0  0  0  0  0  0
   39.3990   84.7630   60.3870 N   0  0  0  0  0  0  0  0  0  0  0  0
   40.3390   84.1510   59.6060 C   0  0  0  0  0  0  0  0  0  0  0  0
   40.8310   82.9280   59.9450 N   0  0  0  0  0  0  0  0  0  0  0  0
   39.0580   82.4190   62.7950 H   0  0  0  0  0  0  0  0  0  0  0  0
   38.2270   84.6500   62.0850 H   0  0  0  0  0  0  0  0  0  0  0  0
   40.8580   84.8020   58.3550 C   0  0  0  0  0  3  0  0  0  0  0  0
   41.5430   83.7090   57.5590 C   0  0  0  0  0  2  0  0  0  0  0  0
   42.9040   84.2380   57.1770 C   0  0  0  0  0  2  0  0  0  0  0  0
   43.2640   85.1160   58.3330 C   0  0  0  0  0  2  0  0  0  0  0  0
   41.9740   85.7300   58.7850 C   0  0  0  0  0  2  0  0  0  0  0  0
  1 12  1  0  0  0  0
  2  1  2  0  0  0  0
  2  6  1  0  0  0  0
  3  2  1  0  0  0  0
  4  3  2  0  0  0  0
  4  5  1  0  0  0  0
  5  1  1  0  0  0  0
  7  3  1  0  0  0  0
  8  9  1  0  0  0  0
  9 15  1  0  0  0  0
  9 10  2  0  0  0  0
 10 16  1  0  0  0  0
 11 10  1  0  0  0  0
 12 11  2  0  0  0  0
 13  8  2  0  0  0  0
 13 12  1  0  0  0  0
 14  8  1  0  0  0  0
 17  4  1  0  0  0  0
 17 18  1  0  0  0  0
 18 23  1  0  0  0  0
 19 18  2  0  0  0  0
 19 24  1  0  0  0  0
 20 19  1  0  0  0  0
 21 22  1  0  0  0  0
 21 20  2  0  0  0  0
 22 17  2  0  0  0  0
 25 29  1  0  0  0  0
 25 21  1  0  0  0  0
 26 25  1  0  0  0  0
 27 26  1  0  0  0  0
 27 28  1  0  0  0  0
 28 29  1  0  0  0  0
M  END
>  <minimizedAffinity>
-4.95528126

>  <minimizedRMSD>
2.90431786

$$$$
