
 OpenBabel03212520593D

 38 42  0  0  1  0  0  0  0  0999 V2000
   39.6810   77.1770   59.1150 C   0  0  0  0  0  0  0  0  0  0  0  0
   40.3560   76.0230   58.8420 C   0  0  0  0  0  0  0  0  0  0  0  0
   39.7680   75.3150   57.7760 C   0  0  0  0  0  0  0  0  0  0  0  0
   38.6750   75.7190   57.1020 N   0  0  0  0  0  0  0  0  0  0  0  0
   38.0820   76.8940   57.4650 C   0  0  0  0  0  0  0  0  0  0  0  0
   38.5930   77.6280   58.4820 N   0  0  0  0  0  0  0  0  0  0  0  0
   41.2250   75.6610   59.3460 H   0  0  0  0  0  0  0  0  0  0  0  0
   40.1970   74.3700   57.4410 H   0  0  0  0  0  0  0  0  0  0  0  0
   40.9770   80.1260   61.6170 C   0  0  0  0  0  0  0  0  0  0  0  0
   40.9530   78.8970   62.2400 C   0  0  0  0  0  0  0  0  0  0  0  0
   40.5400   77.8430   61.5020 C   0  0  0  0  0  0  0  0  0  0  0  0
   40.1650   78.0230   60.1890 C   0  0  0  0  0  0  0  0  0  0  0  0
   40.4010   79.8300   59.9270 S   0  0  0  0  0  0  0  0  0  0  0  0
   41.2500   78.7560   63.2750 H   0  0  0  0  0  0  0  0  0  0  0  0
   40.4500   76.8070   61.8020 H   0  0  0  0  0  0  0  0  0  0  0  0
   43.1110   82.9020   62.7190 C   0  0  0  0  0  0  0  0  0  0  0  0
   42.2260   83.6880   63.5050 C   0  0  0  0  0  0  0  0  0  0  0  0
   40.8970   83.2600   63.6500 C   0  0  0  0  0  0  0  0  0  0  0  0
   40.5260   82.1210   63.0330 N   0  0  0  0  0  0  0  0  0  0  0  0
   41.4000   81.3870   62.2850 C   0  0  0  0  0  0  0  0  0  0  0  0
   42.6590   81.7840   62.1420 N   0  0  0  0  0  0  0  0  0  0  0  0
   44.1400   83.2100   62.5920 H   0  0  0  0  0  0  0  0  0  0  0  0
   42.5560   84.5880   63.9810 H   0  0  0  0  0  0  0  0  0  0  0  0
   40.1750   83.8030   64.2270 H   0  0  0  0  0  0  0  0  0  0  0  0
   36.9120   77.3140   56.7220 C   0  0  0  0  0  0  0  0  0  0  0  0
   35.8010   77.0700   57.2190 O   0  0  0  0  0  0  0  0  0  0  0  0
   37.0040   78.0130   55.3890 C   0  0  1  0  0  0  0  0  0  0  0  0
   37.4160   79.4590   55.5060 C   0  0  0  0  0  0  0  0  0  0  0  0
   38.2960   78.4580   54.9000 C   0  0  2  0  0  0  0  0  0  0  0  0
   36.0090   78.0140   54.8440 H   0  0  0  0  0  0  0  0  0  0  0  0
   36.9600   80.2490   54.8990 H   0  0  0  0  0  0  0  0  0  0  0  0
   37.7670   79.8380   56.5070 H   0  0  0  0  0  0  0  0  0  0  0  0
   39.1860   78.0270   55.4290 H   0  0  0  0  0  0  0  0  0  0  0  0
   38.5780   78.6400   53.4260 C   0  0  0  0  0  3  0  0  0  0  0  0
   37.3450   79.0240   52.6500 C   0  0  0  0  0  2  0  0  0  0  0  0
   37.9610   79.3560   51.2890 C   0  0  0  0  0  2  0  0  0  0  0  0
   39.3110   79.9530   51.6210 C   0  0  0  0  0  2  0  0  0  0  0  0
   39.5090   79.7660   53.1160 C   0  0  0  0  0  2  0  0  0  0  0  0
  1 12  1  0  0  0  0
  2  1  1  0  0  0  0
  2  7  1  0  0  0  0
  3  2  2  0  0  0  0
  4  5  2  0  0  0  0
  4  3  1  0  0  0  0
  5  6  1  0  0  0  0
  6  1  2  0  0  0  0
  8  3  1  0  0  0  0
  9 10  2  0  0  0  0
  9 20  1  0  0  0  0
 10 14  1  0  0  0  0
 11 15  1  0  0  0  0
 11 10  1  0  0  0  0
 12 11  2  0  0  0  0
 13 12  1  0  0  0  0
 13  9  1  0  0  0  0
 16 17  1  0  0  0  0
 17 18  2  0  0  0  0
 17 23  1  0  0  0  0
 18 24  1  0  0  0  0
 19 18  1  0  0  0  0
 20 19  2  0  0  0  0
 21 20  1  0  0  0  0
 21 16  2  0  0  0  0
 22 16  1  0  0  0  0
 25 26  2  0  0  0  0
 25  5  1  0  0  0  0
 27 30  1  6  0  0  0
 27 28  1  0  0  0  0
 27 25  1  0  0  0  0
 28 32  1  0  0  0  0
 29 27  1  0  0  0  0
 29 33  1  1  0  0  0
 29 28  1  0  0  0  0
 31 28  1  0  0  0  0
 34 29  1  0  0  0  0
 35 34  1  0  0  0  0
 36 37  1  0  0  0  0
 36 35  1  0  0  0  0
 37 38  1  0  0  0  0
 38 34  1  0  0  0  0
M  END
>  <minimizedAffinity>
-6.33455372

>  <minimizedRMSD>
0.636117876

$$$$
