
 OpenBabel03212520593D

 38 42  0  0  1  0  0  0  0  0999 V2000
   39.6830   77.1780   59.1130 C   0  0  0  0  0  0  0  0  0  0  0  0
   40.3580   76.0240   58.8400 C   0  0  0  0  0  0  0  0  0  0  0  0
   39.7700   75.3160   57.7730 C   0  0  0  0  0  0  0  0  0  0  0  0
   38.6770   75.7200   57.1000 N   0  0  0  0  0  0  0  0  0  0  0  0
   38.0840   76.8950   57.4630 C   0  0  0  0  0  0  0  0  0  0  0  0
   38.5940   77.6280   58.4810 N   0  0  0  0  0  0  0  0  0  0  0  0
   41.2270   75.6620   59.3430 H   0  0  0  0  0  0  0  0  0  0  0  0
   40.2000   74.3710   57.4380 H   0  0  0  0  0  0  0  0  0  0  0  0
   40.9770   80.1260   61.6160 C   0  0  0  0  0  0  0  0  0  0  0  0
   40.9540   78.8970   62.2390 C   0  0  0  0  0  0  0  0  0  0  0  0
   40.5410   77.8430   61.5010 C   0  0  0  0  0  0  0  0  0  0  0  0
   40.1660   78.0240   60.1870 C   0  0  0  0  0  0  0  0  0  0  0  0
   40.4020   79.8310   59.9260 S   0  0  0  0  0  0  0  0  0  0  0  0
   41.2510   78.7550   63.2740 H   0  0  0  0  0  0  0  0  0  0  0  0
   40.4510   76.8070   61.7990 H   0  0  0  0  0  0  0  0  0  0  0  0
   43.1110   82.9020   62.7200 C   0  0  0  0  0  0  0  0  0  0  0  0
   42.2250   83.6880   63.5050 C   0  0  0  0  0  0  0  0  0  0  0  0
   40.8960   83.2600   63.6490 C   0  0  0  0  0  0  0  0  0  0  0  0
   40.5260   82.1200   63.0320 N   0  0  0  0  0  0  0  0  0  0  0  0
   41.4000   81.3870   62.2840 C   0  0  0  0  0  0  0  0  0  0  0  0
   42.6590   81.7840   62.1420 N   0  0  0  0  0  0  0  0  0  0  0  0
   44.1400   83.2110   62.5930 H   0  0  0  0  0  0  0  0  0  0  0  0
   42.5550   84.5880   63.9810 H   0  0  0  0  0  0  0  0  0  0  0  0
   40.1740   83.8020   64.2270 H   0  0  0  0  0  0  0  0  0  0  0  0
   36.9130   77.3140   56.7210 C   0  0  0  0  0  0  0  0  0  0  0  0
   35.8020   77.0720   57.2180 O   0  0  0  0  0  0  0  0  0  0  0  0
   37.0050   78.0120   55.3860 C   0  0  1  0  0  0  0  0  0  0  0  0
   37.4130   79.4590   55.5030 C   0  0  0  0  0  0  0  0  0  0  0  0
   38.2960   78.4600   54.8980 C   0  0  2  0  0  0  0  0  0  0  0  0
   36.0100   78.0090   54.8410 H   0  0  0  0  0  0  0  0  0  0  0  0
   36.9560   80.2480   54.8940 H   0  0  0  0  0  0  0  0  0  0  0  0
   37.7620   79.8400   56.5030 H   0  0  0  0  0  0  0  0  0  0  0  0
   39.1870   78.0320   55.4290 H   0  0  0  0  0  0  0  0  0  0  0  0
   38.5790   78.6400   53.4240 C   0  0  0  0  0  3  0  0  0  0  0  0
   37.3470   79.0240   52.6480 C   0  0  0  0  0  2  0  0  0  0  0  0
   37.9630   79.3560   51.2860 C   0  0  0  0  0  2  0  0  0  0  0  0
   39.3140   79.9520   51.6190 C   0  0  0  0  0  2  0  0  0  0  0  0
   39.5110   79.7660   53.1140 C   0  0  0  0  0  2  0  0  0  0  0  0
  1 12  1  0  0  0  0
  2  1  1  0  0  0  0
  2  7  1  0  0  0  0
  3  2  2  0  0  0  0
  4  5  2  0  0  0  0
  4  3  1  0  0  0  0
  5  6  1  0  0  0  0
  6  1  2  0  0  0  0
  8  3  1  0  0  0  0
  9 10  2  0  0  0  0
  9 20  1  0  0  0  0
 10 14  1  0  0  0  0
 11 15  1  0  0  0  0
 11 10  1  0  0  0  0
 12 11  2  0  0  0  0
 13 12  1  0  0  0  0
 13  9  1  0  0  0  0
 16 17  1  0  0  0  0
 17 18  2  0  0  0  0
 17 23  1  0  0  0  0
 18 24  1  0  0  0  0
 19 18  1  0  0  0  0
 20 19  2  0  0  0  0
 21 20  1  0  0  0  0
 21 16  2  0  0  0  0
 22 16  1  0  0  0  0
 25 26  2  0  0  0  0
 25  5  1  0  0  0  0
 27 30  1  6  0  0  0
 27 28  1  0  0  0  0
 27 25  1  0  0  0  0
 28 32  1  0  0  0  0
 29 27  1  0  0  0  0
 29 33  1  1  0  0  0
 29 28  1  0  0  0  0
 31 28  1  0  0  0  0
 34 29  1  0  0  0  0
 35 34  1  0  0  0  0
 36 37  1  0  0  0  0
 36 35  1  0  0  0  0
 37 38  1  0  0  0  0
 38 34  1  0  0  0  0
M  END
>  <minimizedAffinity>
-6.33192968

>  <minimizedRMSD>
0.951295674

$$$$
