
 OpenBabel03212520103D

 14 15  0  0  0  0  0  0  0  0999 V2000
   38.5340   77.1080   57.3080 C   0  0  0  0  0  0  0  0  0  0  0  0
   38.2690   75.7940   57.7660 C   0  0  0  0  0  0  0  0  0  0  0  0
   37.2880   75.0590   57.0690 C   0  0  0  0  0  0  0  0  0  0  0  0
   36.6660   75.6550   56.0080 N   0  0  0  0  0  0  0  0  0  0  0  0
   36.9550   76.9110   55.6120 C   0  0  0  0  0  0  0  0  0  0  0  0
   37.8910   77.6350   56.2640 N   0  0  0  0  0  0  0  0  0  0  0  0
   39.3000   77.6640   57.8620 H   0  0  0  0  0  0  0  0  0  0  0  0
   37.0290   74.0470   57.3590 H   0  0  0  0  0  0  0  0  0  0  0  0
   36.4020   77.2880   54.7580 H   0  0  0  0  0  0  0  0  0  0  0  0
   38.9380   75.1530   58.9070 C   0  0  0  0  0  3  0  0  0  0  0  0
   38.0830   74.2700   59.7540 C   0  0  0  0  0  2  0  0  0  0  0  0
   38.9060   74.1550   61.0280 C   0  0  0  0  0  2  0  0  0  0  0  0
   39.9180   75.2770   61.0010 C   0  0  0  0  0  2  0  0  0  0  0  0
   39.3240   76.2160   59.9450 C   0  0  0  0  0  2  0  0  0  0  0  0
  1  2  1  0  0  0  0
  1  7  1  0  0  0  0
  2 10  1  0  0  0  0
  3  8  1  0  0  0  0
  3  2  2  0  0  0  0
  4  3  1  0  0  0  0
  5  4  2  0  0  0  0
  5  6  1  0  0  0  0
  6  1  2  0  0  0  0
  9  5  1  0  0  0  0
 10 11  1  0  0  0  0
 10 14  1  0  0  0  0
 11 12  1  0  0  0  0
 13 12  1  0  0  0  0
 14 13  1  0  0  0  0
M  END
>  <minimizedAffinity>
-4.03786469

$$$$

 OpenBabel03212520103D

 14 15  0  0  0  0  0  0  0  0999 V2000
   37.2330   74.9030   57.0190 C   0  0  0  0  0  0  0  0  0  0  0  0
   38.1950   75.6070   57.7830 C   0  0  0  0  0  0  0  0  0  0  0  0
   38.4860   76.9300   57.3870 C   0  0  0  0  0  0  0  0  0  0  0  0
   37.8250   77.4390   56.3040 N   0  0  0  0  0  0  0  0  0  0  0  0
   36.9170   76.7250   55.6080 C   0  0  0  0  0  0  0  0  0  0  0  0
   36.6220   75.4570   55.9690 N   0  0  0  0  0  0  0  0  0  0  0  0
   37.0200   73.8770   57.3430 H   0  0  0  0  0  0  0  0  0  0  0  0
   39.2090   77.5330   57.9210 H   0  0  0  0  0  0  0  0  0  0  0  0
   36.4520   77.2250   54.7650 H   0  0  0  0  0  0  0  0  0  0  0  0
   38.9050   75.0600   58.9480 C   0  0  0  0  0  3  0  0  0  0  0  0
   38.0890   74.2210   59.8750 C   0  0  0  0  0  2  0  0  0  0  0  0
   38.9430   74.2100   61.1330 C   0  0  0  0  0  2  0  0  0  0  0  0
   39.9300   75.3470   61.0040 C   0  0  0  0  0  2  0  0  0  0  0  0
   39.2920   76.1990   59.9010 C   0  0  0  0  0  2  0  0  0  0  0  0
  1  7  1  0  0  0  0
  1  2  1  0  0  0  0
  2 10  1  0  0  0  0
  3  2  2  0  0  0  0
  3  8  1  0  0  0  0
  4  3  1  0  0  0  0
  5  6  1  0  0  0  0
  5  4  2  0  0  0  0
  6  1  2  0  0  0  0
  9  5  1  0  0  0  0
 10 11  1  0  0  0  0
 10 14  1  0  0  0  0
 11 12  1  0  0  0  0
 13 12  1  0  0  0  0
 14 13  1  0  0  0  0
M  END
>  <minimizedAffinity>
-3.98945379

$$$$

 OpenBabel03212520103D

 14 15  0  0  0  0  0  0  0  0999 V2000
   42.9590   70.2860   61.2490 C   0  0  0  0  0  0  0  0  0  0  0  0
   42.2110   69.5210   62.1780 C   0  0  0  0  0  0  0  0  0  0  0  0
   41.5420   70.2290   63.1990 C   0  0  0  0  0  0  0  0  0  0  0  0
   41.6580   71.5910   63.2230 N   0  0  0  0  0  0  0  0  0  0  0  0
   42.3840   72.2720   62.3140 C   0  0  0  0  0  0  0  0  0  0  0  0
   43.0320   71.6160   61.3270 N   0  0  0  0  0  0  0  0  0  0  0  0
   43.4710   69.7180   60.4630 H   0  0  0  0  0  0  0  0  0  0  0  0
   40.9490   69.7150   63.9460 H   0  0  0  0  0  0  0  0  0  0  0  0
   42.4090   73.3510   62.4260 H   0  0  0  0  0  0  0  0  0  0  0  0
   42.0870   68.0570   62.1510 C   0  0  0  0  0  3  0  0  0  0  0  0
   41.4380   67.4790   60.9380 C   0  0  0  0  0  2  0  0  0  0  0  0
   41.0610   66.0830   61.4110 C   0  0  0  0  0  2  0  0  0  0  0  0
   41.1180   66.1000   62.9210 C   0  0  0  0  0  2  0  0  0  0  0  0
   41.0870   67.6030   63.2240 C   0  0  0  0  0  2  0  0  0  0  0  0
  1  6  2  0  0  0  0
  1  2  1  0  0  0  0
  2  3  2  0  0  0  0
  3  4  1  0  0  0  0
  3  8  1  0  0  0  0
  5  9  1  0  0  0  0
  5  4  2  0  0  0  0
  6  5  1  0  0  0  0
  7  1  1  0  0  0  0
 10  2  1  0  0  0  0
 10 14  1  0  0  0  0
 11 12  1  0  0  0  0
 11 10  1  0  0  0  0
 12 13  1  0  0  0  0
 13 14  1  0  0  0  0
M  END
>  <minimizedAffinity>
-3.74360156

$$$$

 OpenBabel03212520103D

 14 15  0  0  0  0  0  0  0  0999 V2000
   39.6740   73.1290   59.0170 C   0  0  0  0  0  0  0  0  0  0  0  0
   38.8790   74.2840   58.8140 C   0  0  0  0  0  0  0  0  0  0  0  0
   37.8580   74.1970   57.8440 C   0  0  0  0  0  0  0  0  0  0  0  0
   37.7040   73.0160   57.1730 N   0  0  0  0  0  0  0  0  0  0  0  0
   38.4890   71.9440   57.4030 C   0  0  0  0  0  0  0  0  0  0  0  0
   39.4730   72.0040   58.3270 N   0  0  0  0  0  0  0  0  0  0  0  0
   40.4610   73.2160   59.7740 H   0  0  0  0  0  0  0  0  0  0  0  0
   37.2080   75.0370   57.6330 H   0  0  0  0  0  0  0  0  0  0  0  0
   38.2810   71.0570   56.8140 H   0  0  0  0  0  0  0  0  0  0  0  0
   39.0450   75.5530   59.5360 C   0  0  0  0  0  3  0  0  0  0  0  0
   40.1980   76.4000   59.1130 C   0  0  0  0  0  2  0  0  0  0  0  0
   40.3540   77.3440   60.2960 C   0  0  0  0  0  2  0  0  0  0  0  0
   39.6040   76.7250   61.4530 C   0  0  0  0  0  2  0  0  0  0  0  0
   39.4470   75.2720   60.9910 C   0  0  0  0  0  2  0  0  0  0  0  0
  1  7  1  0  0  0  0
  2  1  1  0  0  0  0
  2 10  1  0  0  0  0
  3  2  2  0  0  0  0
  4  5  2  0  0  0  0
  4  3  1  0  0  0  0
  5  6  1  0  0  0  0
  6  1  2  0  0  0  0
  8  3  1  0  0  0  0
  9  5  1  0  0  0  0
 10 14  1  0  0  0  0
 11 10  1  0  0  0  0
 11 12  1  0  0  0  0
 12 13  1  0  0  0  0
 14 13  1  0  0  0  0
M  END
>  <minimizedAffinity>
-3.73211789

$$$$

 OpenBabel03212520103D

 14 15  0  0  0  0  0  0  0  0999 V2000
   39.1040   77.0000   58.2650 C   0  0  0  0  0  0  0  0  0  0  0  0
   38.8220   75.6880   58.7170 C   0  0  0  0  0  0  0  0  0  0  0  0
   37.9020   74.9330   57.9590 C   0  0  0  0  0  0  0  0  0  0  0  0
   37.3510   75.5110   56.8500 N   0  0  0  0  0  0  0  0  0  0  0  0
   37.6530   76.7660   56.4620 C   0  0  0  0  0  0  0  0  0  0  0  0
   38.5310   77.5080   57.1710 N   0  0  0  0  0  0  0  0  0  0  0  0
   39.8210   77.5710   58.8660 H   0  0  0  0  0  0  0  0  0  0  0  0
   37.6360   73.9210   58.2410 H   0  0  0  0  0  0  0  0  0  0  0  0
   37.1570   77.1280   55.5670 H   0  0  0  0  0  0  0  0  0  0  0  0
   39.4160   75.0670   59.9090 C   0  0  0  0  0  3  0  0  0  0  0  0
   40.8730   74.7540   59.8260 C   0  0  0  0  0  2  0  0  0  0  0  0
   41.0510   73.7550   60.9600 C   0  0  0  0  0  2  0  0  0  0  0  0
   39.6740   73.2500   61.3210 C   0  0  0  0  0  2  0  0  0  0  0  0
   38.8540   73.6490   60.0890 C   0  0  0  0  0  2  0  0  0  0  0  0
  1  2  1  0  0  0  0
  1  7  1  0  0  0  0
  2 10  1  0  0  0  0
  3  8  1  0  0  0  0
  3  2  2  0  0  0  0
  4  3  1  0  0  0  0
  5  4  2  0  0  0  0
  5  6  1  0  0  0  0
  6  1  2  0  0  0  0
  9  5  1  0  0  0  0
 10 14  1  0  0  0  0
 11 10  1  0  0  0  0
 11 12  1  0  0  0  0
 12 13  1  0  0  0  0
 14 13  1  0  0  0  0
M  END
>  <minimizedAffinity>
-3.68684125

$$$$

 OpenBabel03212520103D

 14 15  0  0  0  0  0  0  0  0999 V2000
   41.3180   71.7410   59.8170 C   0  0  0  0  0  0  0  0  0  0  0  0
   41.6370   72.8930   60.5780 C   0  0  0  0  0  0  0  0  0  0  0  0
   43.0020   73.1240   60.8500 C   0  0  0  0  0  0  0  0  0  0  0  0
   43.9170   72.2320   60.3640 N   0  0  0  0  0  0  0  0  0  0  0  0
   43.5610   71.1490   59.6440 C   0  0  0  0  0  0  0  0  0  0  0  0
   42.2600   70.9070   59.3710 N   0  0  0  0  0  0  0  0  0  0  0  0
   40.2530   71.5790   59.6150 H   0  0  0  0  0  0  0  0  0  0  0  0
   43.3250   73.9830   61.4250 H   0  0  0  0  0  0  0  0  0  0  0  0
   44.3670   70.5060   59.3080 H   0  0  0  0  0  0  0  0  0  0  0  0
   40.6530   73.8520   61.0990 C   0  0  0  0  0  3  0  0  0  0  0  0
   39.2300   73.3990   61.0880 C   0  0  0  0  0  2  0  0  0  0  0  0
   38.4750   74.7120   61.2350 C   0  0  0  0  0  2  0  0  0  0  0  0
   39.4470   75.8180   60.8940 C   0  0  0  0  0  2  0  0  0  0  0  0
   40.5510   75.0550   60.1520 C   0  0  0  0  0  2  0  0  0  0  0  0
  1  2  1  0  0  0  0
  2  3  2  0  0  0  0
  2 10  1  0  0  0  0
  3  8  1  0  0  0  0
  4  3  1  0  0  0  0
  5  4  2  0  0  0  0
  6  5  1  0  0  0  0
  6  1  2  0  0  0  0
  7  1  1  0  0  0  0
  9  5  1  0  0  0  0
 11 10  1  0  0  0  0
 11 12  1  0  0  0  0
 13 12  1  0  0  0  0
 14 13  1  0  0  0  0
 14 10  1  0  0  0  0
M  END
>  <minimizedAffinity>
-3.68616509

$$$$

 OpenBabel03212520103D

 14 15  0  0  0  0  0  0  0  0999 V2000
   41.9410   67.4820   61.3520 C   0  0  0  0  0  0  0  0  0  0  0  0
   41.7360   68.4540   62.3620 C   0  0  0  0  0  0  0  0  0  0  0  0
   40.8810   68.1010   63.4270 C   0  0  0  0  0  0  0  0  0  0  0  0
   40.3160   66.8570   63.4160 N   0  0  0  0  0  0  0  0  0  0  0  0
   40.5440   65.9660   62.4300 C   0  0  0  0  0  0  0  0  0  0  0  0
   41.3590   66.2820   61.4000 N   0  0  0  0  0  0  0  0  0  0  0  0
   42.6090   67.7740   60.5330 H   0  0  0  0  0  0  0  0  0  0  0  0
   40.6750   68.7900   64.2370 H   0  0  0  0  0  0  0  0  0  0  0  0
   40.0450   65.0070   62.5190 H   0  0  0  0  0  0  0  0  0  0  0  0
   42.3440   69.7920   62.3730 C   0  0  0  0  0  3  0  0  0  0  0  0
   41.5730   70.8550   63.0830 C   0  0  0  0  0  2  0  0  0  0  0  0
   42.2010   72.1270   62.5350 C   0  0  0  0  0  2  0  0  0  0  0  0
   42.9530   71.7410   61.2820 C   0  0  0  0  0  2  0  0  0  0  0  0
   42.3430   70.3740   60.9520 C   0  0  0  0  0  2  0  0  0  0  0  0
  1  6  2  0  0  0  0
  1  2  1  0  0  0  0
  2 10  1  0  0  0  0
  2  3  2  0  0  0  0
  3  8  1  0  0  0  0
  4  3  1  0  0  0  0
  5  9  1  0  0  0  0
  5  4  2  0  0  0  0
  6  5  1  0  0  0  0
  7  1  1  0  0  0  0
 10 11  1  0  0  0  0
 12 11  1  0  0  0  0
 13 12  1  0  0  0  0
 14 13  1  0  0  0  0
 14 10  1  0  0  0  0
M  END
>  <minimizedAffinity>
-3.65863156

$$$$

 OpenBabel03212520103D

 14 15  0  0  0  0  0  0  0  0999 V2000
   40.6340   72.9430   61.9700 C   0  0  0  0  0  0  0  0  0  0  0  0
   41.2780   73.4710   60.8240 C   0  0  0  0  0  0  0  0  0  0  0  0
   42.5420   72.9360   60.4970 C   0  0  0  0  0  0  0  0  0  0  0  0
   43.0540   71.9540   61.2970 N   0  0  0  0  0  0  0  0  0  0  0  0
   42.4000   71.4860   62.3790 C   0  0  0  0  0  0  0  0  0  0  0  0
   41.1880   71.9820   62.7120 N   0  0  0  0  0  0  0  0  0  0  0  0
   39.6530   73.3710   62.2080 H   0  0  0  0  0  0  0  0  0  0  0  0
   43.0970   73.2870   59.6350 H   0  0  0  0  0  0  0  0  0  0  0  0
   42.8980   70.7060   62.9460 H   0  0  0  0  0  0  0  0  0  0  0  0
   40.7260   74.5260   59.9630 C   0  0  0  0  0  3  0  0  0  0  0  0
   41.7010   75.5460   59.4730 C   0  0  0  0  0  2  0  0  0  0  0  0
   40.7850   76.6790   59.0360 C   0  0  0  0  0  2  0  0  0  0  0  0
   39.4400   76.4300   59.6780 C   0  0  0  0  0  2  0  0  0  0  0  0
   39.7950   75.4290   60.7840 C   0  0  0  0  0  2  0  0  0  0  0  0
  1  7  1  0  0  0  0
  1  6  1  0  0  0  0
  2  1  2  0  0  0  0
  3  2  1  0  0  0  0
  3  4  2  0  0  0  0
  4  5  1  0  0  0  0
  5  6  2  0  0  0  0
  5  9  1  0  0  0  0
  8  3  1  0  0  0  0
 10 14  1  0  0  0  0
 10  2  1  0  0  0  0
 11 10  1  0  0  0  0
 12 11  1  0  0  0  0
 12 13  1  0  0  0  0
 13 14  1  0  0  0  0
M  END
>  <minimizedAffinity>
-3.6533711

$$$$

 OpenBabel03212520103D

 14 15  0  0  0  0  0  0  0  0999 V2000
   41.4630   74.9970   59.7150 C   0  0  0  0  0  0  0  0  0  0  0  0
   40.8300   74.0740   60.5850 C   0  0  0  0  0  0  0  0  0  0  0  0
   39.6070   74.4740   61.1630 C   0  0  0  0  0  0  0  0  0  0  0  0
   39.1180   75.7110   60.8500 N   0  0  0  0  0  0  0  0  0  0  0  0
   39.7610   76.5540   60.0160 C   0  0  0  0  0  0  0  0  0  0  0  0
   40.9330   76.1930   59.4490 N   0  0  0  0  0  0  0  0  0  0  0  0
   42.4110   74.6680   59.2750 H   0  0  0  0  0  0  0  0  0  0  0  0
   39.0630   73.8240   61.8380 H   0  0  0  0  0  0  0  0  0  0  0  0
   39.2850   77.5120   59.8360 H   0  0  0  0  0  0  0  0  0  0  0  0
   41.3550   72.7440   60.9210 C   0  0  0  0  0  3  0  0  0  0  0  0
   41.3890   72.4020   62.3740 C   0  0  0  0  0  2  0  0  0  0  0  0
   42.3610   71.2330   62.4050 C   0  0  0  0  0  2  0  0  0  0  0  0
   43.1230   71.2590   61.1010 C   0  0  0  0  0  2  0  0  0  0  0  0
   42.8560   72.6840   60.6040 C   0  0  0  0  0  2  0  0  0  0  0  0
  1  2  1  0  0  0  0
  2 10  1  0  0  0  0
  2  3  2  0  0  0  0
  3  8  1  0  0  0  0
  4  3  1  0  0  0  0
  5  4  2  0  0  0  0
  6  1  2  0  0  0  0
  6  5  1  0  0  0  0
  7  1  1  0  0  0  0
  9  5  1  0  0  0  0
 10 11  1  0  0  0  0
 11 12  1  0  0  0  0
 13 12  1  0  0  0  0
 14 10  1  0  0  0  0
 14 13  1  0  0  0  0
M  END
>  <minimizedAffinity>
-3.58155656

$$$$
