
 OpenBabel03212520443D

 14 15  0  0  0  0  0  0  0  0999 V2000
   40.1480   81.9600   60.8580 C   0  0  0  0  0  0  0  0  0  0  0  0
   40.2390   82.7990   59.7290 C   0  0  0  0  0  0  0  0  0  0  0  0
   39.6120   84.0430   59.7970 C   0  0  0  0  0  0  0  0  0  0  0  0
   38.9490   84.3780   60.9400 N   0  0  0  0  0  0  0  0  0  0  0  0
   38.8820   83.5480   62.0040 C   0  0  0  0  0  0  0  0  0  0  0  0
   39.4860   82.3390   61.9530 N   0  0  0  0  0  0  0  0  0  0  0  0
   40.7890   82.4560   58.8500 H   0  0  0  0  0  0  0  0  0  0  0  0
   39.6610   84.7000   58.9620 H   0  0  0  0  0  0  0  0  0  0  0  0
   38.3330   83.9100   62.8620 H   0  0  0  0  0  0  0  0  0  0  0  0
   40.7890   80.6320   60.8520 C   0  0  0  0  0  3  0  0  0  0  0  0
   42.2950   80.6890   60.9890 C   0  0  0  0  0  2  0  0  0  0  0  0
   42.5800   79.1850   61.1120 C   0  0  0  0  0  2  0  0  0  0  0  0
   41.3960   78.6180   61.8600 C   0  0  0  0  0  2  0  0  0  0  0  0
   40.4060   79.7560   61.9990 C   0  0  0  0  0  2  0  0  0  0  0  0
  1  6  1  0  0  0  0
  2  3  1  0  0  0  0
  2  1  2  0  0  0  0
  3  4  2  0  0  0  0
  4  5  1  0  0  0  0
  5  9  1  0  0  0  0
  6  5  2  0  0  0  0
  7  2  1  0  0  0  0
  8  3  1  0  0  0  0
 10  1  1  0  0  0  0
 10 11  1  0  0  0  0
 10 14  1  0  0  0  0
 11 12  1  0  0  0  0
 12 13  1  0  0  0  0
 13 14  1  0  0  0  0
M  END
>  <minimizedAffinity>
-4.20505285

>  <minimizedRMSD>
0.117752679

$$$$
