
 OpenBabel03212520513D

 31 34  0  0  1  0  0  0  0  0999 V2000
   42.2140   83.9670   61.4190 C   0  0  0  0  0  0  0  0  0  0  0  0
   40.9300   84.0880   61.9070 C   0  0  0  0  0  0  0  0  0  0  0  0
   40.2500   82.9860   62.4340 C   0  0  0  0  0  0  0  0  0  0  0  0
   40.8510   81.7770   62.4710 N   0  0  0  0  0  0  0  0  0  0  0  0
   42.0990   81.6920   61.9890 C   0  0  0  0  0  0  0  0  0  0  0  0
   42.7980   82.7370   61.4680 N   0  0  0  0  0  0  0  0  0  0  0  0
   40.5120   85.0730   61.8490 H   0  0  0  0  0  0  0  0  0  0  0  0
   39.2660   83.2170   62.7780 H   0  0  0  0  0  0  0  0  0  0  0  0
   44.0610   87.1060   61.1250 C   0  0  0  0  0  0  0  0  0  0  0  0
   44.2830   87.1800   59.7380 C   0  0  0  0  0  0  0  0  0  0  0  0
   43.8020   86.1590   58.9070 C   0  0  0  0  0  0  0  0  0  0  0  0
   43.1410   85.1500   59.5310 N   0  0  0  0  0  0  0  0  0  0  0  0
   42.9400   85.0990   60.8600 C   0  0  0  0  0  0  0  0  0  0  0  0
   43.3920   86.0610   61.6480 N   0  0  0  0  0  0  0  0  0  0  0  0
   44.6040   88.2050   61.8300 N   0  0  0  0  0  0  0  0  0  0  0  0
   44.8040   87.9780   59.2520 H   0  0  0  0  0  0  0  0  0  0  0  0
   43.9560   86.1870   57.8400 H   0  0  0  0  0  0  0  0  0  0  0  0
   45.5580   87.9050   62.1860 H   0  0  0  0  0  0  0  0  0  0  0  0
   44.2640   89.1630   62.0410 H   0  0  0  0  0  0  0  0  0  0  0  0
   42.6940   80.3220   62.0390 C   0  0  1  0  0  0  0  0  0  0  0  0
   41.8780   79.1260   62.0170 C   0  0  0  0  0  0  0  0  0  0  0  0
   42.4940   79.5220   60.7500 C   0  0  1  0  0  0  0  0  0  0  0  0
   43.7500   80.2590   62.4460 H   0  0  0  0  0  0  0  0  0  0  0  0
   42.2420   78.2310   62.5680 H   0  0  0  0  0  0  0  0  0  0  0  0
   40.7790   79.2450   62.1140 H   0  0  0  0  0  0  0  0  0  0  0  0
   43.3680   78.8530   60.4520 H   0  0  0  0  0  0  0  0  0  0  0  0
   41.8230   80.1120   59.5720 C   0  0  0  0  0  3  0  0  0  0  0  0
   42.4010   81.3140   58.9560 C   0  0  0  0  0  2  0  0  0  0  0  0
   41.2090   82.1340   58.4890 C   0  0  0  0  0  2  0  0  0  0  0  0
   39.9800   81.2980   58.7530 C   0  0  0  0  0  2  0  0  0  0  0  0
   40.3500   80.3620   59.8590 C   0  0  0  0  0  2  0  0  0  0  0  0
  1  6  2  0  0  0  0
  1  2  1  0  0  0  0
  2  3  2  0  0  0  0
  3  4  1  0  0  0  0
  3  8  1  0  0  0  0
  5 20  1  0  0  0  0
  5  4  2  0  0  0  0
  6  5  1  0  0  0  0
  7  2  1  0  0  0  0
  9 14  1  0  0  0  0
  9 15  1  0  0  0  0
 10  9  2  0  0  0  0
 11 12  2  0  0  0  0
 11 10  1  0  0  0  0
 12 13  1  0  0  0  0
 13  1  1  0  0  0  0
 13 14  2  0  0  0  0
 15 19  1  0  0  0  0
 15 18  1  0  0  0  0
 16 10  1  0  0  0  0
 17 11  1  0  0  0  0
 20 23  1  1  0  0  0
 21 20  1  0  0  0  0
 21 25  1  0  0  0  0
 21 24  1  0  0  0  0
 22 26  1  6  0  0  0
 22 21  1  0  0  0  0
 22 20  1  0  0  0  0
 27 31  1  0  0  0  0
 27 22  1  0  0  0  0
 28 27  1  0  0  0  0
 29 30  1  0  0  0  0
 29 28  1  0  0  0  0
 30 31  1  0  0  0  0
M  END
>  <minimizedAffinity>
-4.877913

>  <minimizedRMSD>
1.81444311

$$$$
