
 OpenBabel03212520593D

 38 42  0  0  1  0  0  0  0  0999 V2000
   39.6840   77.1790   59.1130 C   0  0  0  0  0  0  0  0  0  0  0  0
   40.3600   76.0260   58.8400 C   0  0  0  0  0  0  0  0  0  0  0  0
   39.7730   75.3180   57.7730 C   0  0  0  0  0  0  0  0  0  0  0  0
   38.6790   75.7210   57.1000 N   0  0  0  0  0  0  0  0  0  0  0  0
   38.0850   76.8950   57.4640 C   0  0  0  0  0  0  0  0  0  0  0  0
   38.5950   77.6290   58.4810 N   0  0  0  0  0  0  0  0  0  0  0  0
   41.2300   75.6640   59.3430 H   0  0  0  0  0  0  0  0  0  0  0  0
   40.2040   74.3730   57.4370 H   0  0  0  0  0  0  0  0  0  0  0  0
   40.9770   80.1270   61.6170 C   0  0  0  0  0  0  0  0  0  0  0  0
   40.9540   78.8980   62.2400 C   0  0  0  0  0  0  0  0  0  0  0  0
   40.5410   77.8450   61.5010 C   0  0  0  0  0  0  0  0  0  0  0  0
   40.1670   78.0250   60.1880 C   0  0  0  0  0  0  0  0  0  0  0  0
   40.4030   79.8320   59.9260 S   0  0  0  0  0  0  0  0  0  0  0  0
   41.2500   78.7570   63.2750 H   0  0  0  0  0  0  0  0  0  0  0  0
   40.4510   76.8080   61.8000 H   0  0  0  0  0  0  0  0  0  0  0  0
   43.1110   82.9040   62.7210 C   0  0  0  0  0  0  0  0  0  0  0  0
   42.2240   83.6890   63.5070 C   0  0  0  0  0  0  0  0  0  0  0  0
   40.8960   83.2610   63.6500 C   0  0  0  0  0  0  0  0  0  0  0  0
   40.5260   82.1210   63.0330 N   0  0  0  0  0  0  0  0  0  0  0  0
   41.4000   81.3880   62.2850 C   0  0  0  0  0  0  0  0  0  0  0  0
   42.6590   81.7860   62.1430 N   0  0  0  0  0  0  0  0  0  0  0  0
   44.1390   83.2120   62.5940 H   0  0  0  0  0  0  0  0  0  0  0  0
   42.5540   84.5890   63.9830 H   0  0  0  0  0  0  0  0  0  0  0  0
   40.1730   83.8030   64.2280 H   0  0  0  0  0  0  0  0  0  0  0  0
   36.9140   77.3140   56.7210 C   0  0  0  0  0  0  0  0  0  0  0  0
   35.8030   77.0700   57.2190 O   0  0  0  0  0  0  0  0  0  0  0  0
   37.0050   78.0120   55.3870 C   0  0  1  0  0  0  0  0  0  0  0  0
   37.4150   79.4590   55.5040 C   0  0  0  0  0  0  0  0  0  0  0  0
   38.2960   78.4600   54.8980 C   0  0  2  0  0  0  0  0  0  0  0  0
   36.0100   78.0100   54.8430 H   0  0  0  0  0  0  0  0  0  0  0  0
   36.9570   80.2480   54.8960 H   0  0  0  0  0  0  0  0  0  0  0  0
   37.7640   79.8400   56.5040 H   0  0  0  0  0  0  0  0  0  0  0  0
   39.1880   78.0310   55.4280 H   0  0  0  0  0  0  0  0  0  0  0  0
   38.5780   78.6410   53.4240 C   0  0  0  0  0  3  0  0  0  0  0  0
   37.3450   79.0250   52.6490 C   0  0  0  0  0  2  0  0  0  0  0  0
   37.9600   79.3560   51.2870 C   0  0  0  0  0  2  0  0  0  0  0  0
   39.3120   79.9520   51.6190 C   0  0  0  0  0  2  0  0  0  0  0  0
   39.5100   79.7670   53.1130 C   0  0  0  0  0  2  0  0  0  0  0  0
  1 12  1  0  0  0  0
  2  1  1  0  0  0  0
  2  7  1  0  0  0  0
  3  2  2  0  0  0  0
  4  5  2  0  0  0  0
  4  3  1  0  0  0  0
  5  6  1  0  0  0  0
  6  1  2  0  0  0  0
  8  3  1  0  0  0  0
  9 10  2  0  0  0  0
  9 20  1  0  0  0  0
 10 14  1  0  0  0  0
 11 15  1  0  0  0  0
 11 10  1  0  0  0  0
 12 11  2  0  0  0  0
 13 12  1  0  0  0  0
 13  9  1  0  0  0  0
 16 17  1  0  0  0  0
 17 18  2  0  0  0  0
 17 23  1  0  0  0  0
 18 24  1  0  0  0  0
 19 18  1  0  0  0  0
 20 19  2  0  0  0  0
 21 20  1  0  0  0  0
 21 16  2  0  0  0  0
 22 16  1  0  0  0  0
 25 26  2  0  0  0  0
 25  5  1  0  0  0  0
 27 30  1  6  0  0  0
 27 28  1  0  0  0  0
 27 25  1  0  0  0  0
 28 32  1  0  0  0  0
 29 27  1  0  0  0  0
 29 33  1  1  0  0  0
 29 28  1  0  0  0  0
 31 28  1  0  0  0  0
 34 29  1  0  0  0  0
 35 34  1  0  0  0  0
 36 37  1  0  0  0  0
 36 35  1  0  0  0  0
 37 38  1  0  0  0  0
 38 34  1  0  0  0  0
M  END
>  <minimizedAffinity>
-6.33253098

>  <minimizedRMSD>
0.694290638

$$$$
