
 OpenBabel03212521073D

 32 35  0  0  0  0  0  0  0  0999 V2000
   41.8210   84.2510   61.5670 C   0  0  0  0  0  0  0  0  0  0  0  0
   41.4580   83.9680   62.8730 C   0  0  0  0  0  0  0  0  0  0  0  0
   40.1840   83.5440   63.2020 C   0  0  0  0  0  0  0  0  0  0  0  0
   39.2360   83.3970   62.1920 C   0  0  0  0  0  0  0  0  0  0  0  0
   39.5920   83.6800   60.8730 C   0  0  0  0  0  0  0  0  0  0  0  0
   40.8630   84.1000   60.5660 C   0  0  0  0  0  0  0  0  0  0  0  0
   42.2170   84.0910   63.6410 H   0  0  0  0  0  0  0  0  0  0  0  0
   39.9370   83.3330   64.2310 H   0  0  0  0  0  0  0  0  0  0  0  0
   38.2320   83.0710   62.3990 H   0  0  0  0  0  0  0  0  0  0  0  0
   38.8220   83.5530   60.1150 H   0  0  0  0  0  0  0  0  0  0  0  0
   45.3540   84.1490   60.6560 C   0  0  0  0  0  0  0  0  0  0  0  0
   45.7340   85.4870   60.7210 C   0  0  0  0  0  0  0  0  0  0  0  0
   44.7550   86.4460   61.0870 C   0  0  0  0  0  0  0  0  0  0  0  0
   43.5090   85.9930   61.3490 N   0  0  0  0  0  0  0  0  0  0  0  0
   43.1630   84.6880   61.2800 C   0  0  0  0  0  0  0  0  0  0  0  0
   44.0920   83.7870   60.9340 N   0  0  0  0  0  0  0  0  0  0  0  0
   46.0690   83.3730   60.3810 H   0  0  0  0  0  0  0  0  0  0  0  0
   46.7480   85.7600   60.4980 H   0  0  0  0  0  0  0  0  0  0  0  0
   45.0310   87.4870   61.1430 H   0  0  0  0  0  0  0  0  0  0  0  0
   41.1940   84.3850   59.1760 C   0  0  0  0  0  0  0  0  0  0  0  0
   40.7590   85.6590   58.7920 C   0  0  0  0  0  0  0  0  0  0  0  0
   40.9790   86.1230   57.4980 C   0  0  0  0  0  0  0  0  0  0  0  0
   41.6170   85.3000   56.6600 N   0  0  0  0  0  0  0  0  0  0  0  0
   42.0400   84.0630   57.0350 C   0  0  0  0  0  0  0  0  0  0  0  0
   41.8270   83.6070   58.2920 N   0  0  0  0  0  0  0  0  0  0  0  0
   40.2320   86.3680   59.4410 H   0  0  0  0  0  0  0  0  0  0  0  0
   40.6520   87.1020   57.1830 H   0  0  0  0  0  0  0  0  0  0  0  0
   42.7440   83.1660   56.0940 C   0  0  0  0  0  3  0  0  0  0  0  0
   43.7950   83.9680   55.3490 C   0  0  0  0  0  2  0  0  0  0  0  0
   44.7480   82.9760   54.7850 C   0  0  0  0  0  2  0  0  0  0  0  0
   44.7810   81.8900   55.8220 C   0  0  0  0  0  2  0  0  0  0  0  0
   43.6140   82.1380   56.7740 C   0  0  0  0  0  2  0  0  0  0  0  0
  1  2  1  0  0  0  0
  2  3  2  0  0  0  0
  2  7  1  0  0  0  0
  3  8  1  0  0  0  0
  4  9  1  0  0  0  0
  4  3  1  0  0  0  0
  5  4  2  0  0  0  0
  6  5  1  0  0  0  0
  6  1  2  0  0  0  0
 10  5  1  0  0  0  0
 11 12  2  0  0  0  0
 11 16  1  0  0  0  0
 12 13  1  0  0  0  0
 13 19  1  0  0  0  0
 13 14  2  0  0  0  0
 15 14  1  0  0  0  0
 15  1  1  0  0  0  0
 16 15  2  0  0  0  0
 17 11  1  0  0  0  0
 18 12  1  0  0  0  0
 20  6  1  0  0  0  0
 21 20  1  0  0  0  0
 21 26  1  0  0  0  0
 22 21  2  0  0  0  0
 23 24  2  0  0  0  0
 23 22  1  0  0  0  0
 24 25  1  0  0  0  0
 25 20  2  0  0  0  0
 27 22  1  0  0  0  0
 28 32  1  0  0  0  0
 28 24  1  0  0  0  0
 29 28  1  0  0  0  0
 30 29  1  0  0  0  0
 30 31  1  0  0  0  0
 31 32  1  0  0  0  0
M  END
>  <minimizedAffinity>
-5.28444338

>  <minimizedRMSD>
0.149058387

$$$$
