
 OpenBabel03212521073D

 32 35  0  0  0  0  0  0  0  0999 V2000
   41.8150   84.2400   61.5950 C   0  0  0  0  0  0  0  0  0  0  0  0
   41.4600   83.9560   62.9030 C   0  0  0  0  0  0  0  0  0  0  0  0
   40.1840   83.5440   63.2400 C   0  0  0  0  0  0  0  0  0  0  0  0
   39.2260   83.4110   62.2370 C   0  0  0  0  0  0  0  0  0  0  0  0
   39.5750   83.6950   60.9160 C   0  0  0  0  0  0  0  0  0  0  0  0
   40.8490   84.1030   60.6000 C   0  0  0  0  0  0  0  0  0  0  0  0
   42.2250   84.0690   63.6650 H   0  0  0  0  0  0  0  0  0  0  0  0
   39.9430   83.3320   64.2700 H   0  0  0  0  0  0  0  0  0  0  0  0
   38.2210   83.0940   62.4500 H   0  0  0  0  0  0  0  0  0  0  0  0
   38.7990   83.5780   60.1640 H   0  0  0  0  0  0  0  0  0  0  0  0
   45.3540   84.1000   60.7100 C   0  0  0  0  0  0  0  0  0  0  0  0
   45.7350   85.4400   60.7260 C   0  0  0  0  0  0  0  0  0  0  0  0
   44.7550   86.4130   61.0480 C   0  0  0  0  0  0  0  0  0  0  0  0
   43.5070   85.9710   61.3200 N   0  0  0  0  0  0  0  0  0  0  0  0
   43.1600   84.6660   61.2990 C   0  0  0  0  0  0  0  0  0  0  0  0
   44.0900   83.7510   60.9940 N   0  0  0  0  0  0  0  0  0  0  0  0
   46.0690   83.3140   60.4700 H   0  0  0  0  0  0  0  0  0  0  0  0
   46.7510   85.7030   60.4980 H   0  0  0  0  0  0  0  0  0  0  0  0
   45.0310   87.4560   61.0660 H   0  0  0  0  0  0  0  0  0  0  0  0
   41.1720   84.3890   59.2100 C   0  0  0  0  0  0  0  0  0  0  0  0
   40.7010   85.6480   58.8180 C   0  0  0  0  0  0  0  0  0  0  0  0
   40.9080   86.1110   57.5220 C   0  0  0  0  0  0  0  0  0  0  0  0
   41.5700   85.3020   56.6880 N   0  0  0  0  0  0  0  0  0  0  0  0
   42.0270   84.0790   57.0700 C   0  0  0  0  0  0  0  0  0  0  0  0
   41.8280   83.6250   58.3300 N   0  0  0  0  0  0  0  0  0  0  0  0
   40.1540   86.3460   59.4630 H   0  0  0  0  0  0  0  0  0  0  0  0
   40.5530   87.0790   57.2010 H   0  0  0  0  0  0  0  0  0  0  0  0
   42.7570   83.1980   56.1340 C   0  0  0  0  0  3  0  0  0  0  0  0
   41.9600   81.9220   55.9420 C   0  0  0  0  0  2  0  0  0  0  0  0
   42.4720   81.3000   54.6920 C   0  0  0  0  0  2  0  0  0  0  0  0
   42.8120   82.4770   53.8260 C   0  0  0  0  0  2  0  0  0  0  0  0
   42.7920   83.7160   54.7160 C   0  0  0  0  0  2  0  0  0  0  0  0
  1  2  1  0  0  0  0
  2  3  2  0  0  0  0
  2  7  1  0  0  0  0
  3  8  1  0  0  0  0
  4  9  1  0  0  0  0
  4  3  1  0  0  0  0
  5  4  2  0  0  0  0
  6  5  1  0  0  0  0
  6  1  2  0  0  0  0
 10  5  1  0  0  0  0
 11 12  2  0  0  0  0
 11 16  1  0  0  0  0
 12 13  1  0  0  0  0
 13 19  1  0  0  0  0
 13 14  2  0  0  0  0
 15 14  1  0  0  0  0
 15  1  1  0  0  0  0
 16 15  2  0  0  0  0
 17 11  1  0  0  0  0
 18 12  1  0  0  0  0
 20  6  1  0  0  0  0
 21 20  1  0  0  0  0
 21 26  1  0  0  0  0
 22 21  2  0  0  0  0
 23 24  2  0  0  0  0
 23 22  1  0  0  0  0
 24 25  1  0  0  0  0
 25 20  2  0  0  0  0
 27 22  1  0  0  0  0
 28 24  1  0  0  0  0
 29 28  1  0  0  0  0
 30 29  1  0  0  0  0
 31 30  1  0  0  0  0
 31 32  1  0  0  0  0
 32 28  1  0  0  0  0
M  END
>  <minimizedAffinity>
-5.50317621

>  <minimizedRMSD>
0.140595138

$$$$
