
 OpenBabel03212520593D

 38 42  0  0  1  0  0  0  0  0999 V2000
   39.7970   77.3760   59.1820 C   0  0  0  0  0  0  0  0  0  0  0  0
   40.5260   76.2630   58.8790 C   0  0  0  0  0  0  0  0  0  0  0  0
   39.9680   75.5520   57.7990 C   0  0  0  0  0  0  0  0  0  0  0  0
   38.8520   75.9170   57.1410 N   0  0  0  0  0  0  0  0  0  0  0  0
   38.2040   77.0510   57.5340 C   0  0  0  0  0  0  0  0  0  0  0  0
   38.6830   77.7860   58.5660 N   0  0  0  0  0  0  0  0  0  0  0  0
   41.4150   75.9340   59.3700 H   0  0  0  0  0  0  0  0  0  0  0  0
   40.4420   74.6370   57.4400 H   0  0  0  0  0  0  0  0  0  0  0  0
   40.9850   80.3230   61.7380 C   0  0  0  0  0  0  0  0  0  0  0  0
   40.9790   79.0870   62.3470 C   0  0  0  0  0  0  0  0  0  0  0  0
   40.6010   78.0330   61.5910 C   0  0  0  0  0  0  0  0  0  0  0  0
   40.2440   78.2200   60.2730 C   0  0  0  0  0  0  0  0  0  0  0  0
   40.4440   80.0340   60.0350 S   0  0  0  0  0  0  0  0  0  0  0  0
   41.2610   78.9400   63.3850 H   0  0  0  0  0  0  0  0  0  0  0  0
   40.5290   76.9920   61.8770 H   0  0  0  0  0  0  0  0  0  0  0  0
   43.0370   83.1390   62.8970 C   0  0  0  0  0  0  0  0  0  0  0  0
   42.1240   83.8900   63.6860 C   0  0  0  0  0  0  0  0  0  0  0  0
   40.8060   83.4260   63.8130 C   0  0  0  0  0  0  0  0  0  0  0  0
   40.4710   82.2860   63.1770 N   0  0  0  0  0  0  0  0  0  0  0  0
   41.3700   81.5850   62.4260 C   0  0  0  0  0  0  0  0  0  0  0  0
   42.6190   82.0170   62.3000 N   0  0  0  0  0  0  0  0  0  0  0  0
   44.0580   83.4750   62.7830 H   0  0  0  0  0  0  0  0  0  0  0  0
   42.4270   84.7920   64.1760 H   0  0  0  0  0  0  0  0  0  0  0  0
   40.0650   83.9410   64.3910 H   0  0  0  0  0  0  0  0  0  0  0  0
   37.0100   77.4290   56.8070 C   0  0  0  0  0  0  0  0  0  0  0  0
   35.9220   77.0150   57.2380 O   0  0  0  0  0  0  0  0  0  0  0  0
   37.0520   78.2820   55.5630 C   0  0  1  0  0  0  0  0  0  0  0  0
   37.3280   79.7360   55.8530 C   0  0  0  0  0  0  0  0  0  0  0  0
   38.3020   78.8950   55.1560 C   0  0  2  0  0  0  0  0  0  0  0  0
   36.0660   78.2560   55.0020 H   0  0  0  0  0  0  0  0  0  0  0  0
   36.8080   80.5470   55.3300 H   0  0  0  0  0  0  0  0  0  0  0  0
   37.6320   80.0280   56.8970 H   0  0  0  0  0  0  0  0  0  0  0  0
   39.2230   78.4880   55.6510 H   0  0  0  0  0  0  0  0  0  0  0  0
   38.5820   79.2700   53.7180 C   0  0  0  0  0  3  0  0  0  0  0  0
   38.9060   78.0700   52.8680 C   0  0  0  0  0  2  0  0  0  0  0  0
   38.9100   78.7040   51.4740 C   0  0  0  0  0  2  0  0  0  0  0  0
   37.8450   79.7770   51.5460 C   0  0  0  0  0  2  0  0  0  0  0  0
   37.4120   79.8590   53.0010 C   0  0  0  0  0  2  0  0  0  0  0  0
  1 12  1  0  0  0  0
  2  1  1  0  0  0  0
  2  7  1  0  0  0  0
  3  2  2  0  0  0  0
  4  5  2  0  0  0  0
  4  3  1  0  0  0  0
  5  6  1  0  0  0  0
  6  1  2  0  0  0  0
  8  3  1  0  0  0  0
  9 10  2  0  0  0  0
  9 20  1  0  0  0  0
 10 14  1  0  0  0  0
 11 15  1  0  0  0  0
 11 10  1  0  0  0  0
 12 11  2  0  0  0  0
 13 12  1  0  0  0  0
 13  9  1  0  0  0  0
 16 17  1  0  0  0  0
 17 18  2  0  0  0  0
 17 23  1  0  0  0  0
 18 24  1  0  0  0  0
 19 18  1  0  0  0  0
 20 19  2  0  0  0  0
 21 20  1  0  0  0  0
 21 16  2  0  0  0  0
 22 16  1  0  0  0  0
 25 26  2  0  0  0  0
 25  5  1  0  0  0  0
 27 30  1  6  0  0  0
 27 28  1  0  0  0  0
 27 25  1  0  0  0  0
 28 32  1  0  0  0  0
 29 27  1  0  0  0  0
 29 33  1  1  0  0  0
 29 28  1  0  0  0  0
 31 28  1  0  0  0  0
 34 29  1  0  0  0  0
 35 34  1  0  0  0  0
 36 37  1  0  0  0  0
 36 35  1  0  0  0  0
 37 38  1  0  0  0  0
 38 34  1  0  0  0  0
M  END
>  <minimizedAffinity>
-6.40797043

>  <minimizedRMSD>
0.519688487

$$$$
