
 OpenBabel03212521073D

 32 35  0  0  0  0  0  0  0  0999 V2000
   41.8150   84.2490   61.5670 C   0  0  0  0  0  0  0  0  0  0  0  0
   41.4530   83.9720   62.8750 C   0  0  0  0  0  0  0  0  0  0  0  0
   40.1790   83.5510   63.2070 C   0  0  0  0  0  0  0  0  0  0  0  0
   39.2290   83.4010   62.1980 C   0  0  0  0  0  0  0  0  0  0  0  0
   39.5850   83.6780   60.8770 C   0  0  0  0  0  0  0  0  0  0  0  0
   40.8570   84.0950   60.5670 C   0  0  0  0  0  0  0  0  0  0  0  0
   42.2120   84.0980   63.6410 H   0  0  0  0  0  0  0  0  0  0  0  0
   39.9330   83.3450   64.2370 H   0  0  0  0  0  0  0  0  0  0  0  0
   38.2260   83.0760   62.4070 H   0  0  0  0  0  0  0  0  0  0  0  0
   38.8150   83.5480   60.1210 H   0  0  0  0  0  0  0  0  0  0  0  0
   45.3420   84.1430   60.6340 C   0  0  0  0  0  0  0  0  0  0  0  0
   45.7290   85.4790   60.7130 C   0  0  0  0  0  0  0  0  0  0  0  0
   44.7560   86.4370   61.0950 C   0  0  0  0  0  0  0  0  0  0  0  0
   43.5100   85.9860   61.3590 N   0  0  0  0  0  0  0  0  0  0  0  0
   43.1570   84.6840   61.2770 C   0  0  0  0  0  0  0  0  0  0  0  0
   44.0800   83.7840   60.9150 N   0  0  0  0  0  0  0  0  0  0  0  0
   46.0520   83.3670   60.3460 H   0  0  0  0  0  0  0  0  0  0  0  0
   46.7430   85.7500   60.4860 H   0  0  0  0  0  0  0  0  0  0  0  0
   45.0370   87.4760   61.1620 H   0  0  0  0  0  0  0  0  0  0  0  0
   41.1860   84.3730   59.1760 C   0  0  0  0  0  0  0  0  0  0  0  0
   40.7800   85.6580   58.7950 C   0  0  0  0  0  0  0  0  0  0  0  0
   41.0040   86.1180   57.5010 C   0  0  0  0  0  0  0  0  0  0  0  0
   41.6180   85.2810   56.6580 N   0  0  0  0  0  0  0  0  0  0  0  0
   42.0120   84.0340   57.0300 C   0  0  0  0  0  0  0  0  0  0  0  0
   41.7960   83.5820   58.2880 N   0  0  0  0  0  0  0  0  0  0  0  0
   40.2740   86.3790   59.4480 H   0  0  0  0  0  0  0  0  0  0  0  0
   40.6990   87.1050   57.1890 H   0  0  0  0  0  0  0  0  0  0  0  0
   42.6900   83.1220   56.0840 C   0  0  0  0  0  3  0  0  0  0  0  0
   43.6410   82.2300   56.8620 C   0  0  0  0  0  2  0  0  0  0  0  0
   43.9340   81.0690   55.9780 C   0  0  0  0  0  2  0  0  0  0  0  0
   42.6450   80.8550   55.2400 C   0  0  0  0  0  2  0  0  0  0  0  0
   41.7730   82.0840   55.4800 C   0  0  0  0  0  2  0  0  0  0  0  0
  1  2  1  0  0  0  0
  2  3  2  0  0  0  0
  2  7  1  0  0  0  0
  3  8  1  0  0  0  0
  4  9  1  0  0  0  0
  4  3  1  0  0  0  0
  5  4  2  0  0  0  0
  6  5  1  0  0  0  0
  6  1  2  0  0  0  0
 10  5  1  0  0  0  0
 11 12  2  0  0  0  0
 11 16  1  0  0  0  0
 12 13  1  0  0  0  0
 13 19  1  0  0  0  0
 13 14  2  0  0  0  0
 15 14  1  0  0  0  0
 15  1  1  0  0  0  0
 16 15  2  0  0  0  0
 17 11  1  0  0  0  0
 18 12  1  0  0  0  0
 20  6  1  0  0  0  0
 21 20  1  0  0  0  0
 21 26  1  0  0  0  0
 22 21  2  0  0  0  0
 23 24  2  0  0  0  0
 23 22  1  0  0  0  0
 24 25  1  0  0  0  0
 25 20  2  0  0  0  0
 27 22  1  0  0  0  0
 28 29  1  0  0  0  0
 28 24  1  0  0  0  0
 30 29  1  0  0  0  0
 31 32  1  0  0  0  0
 31 30  1  0  0  0  0
 32 28  1  0  0  0  0
M  END
>  <minimizedAffinity>
-5.40305996

>  <minimizedRMSD>
0.163962692

$$$$
