
 OpenBabel03212520453D

 14 15  0  0  0  0  0  0  0  0999 V2000
   40.1240   81.9750   60.7390 C   0  0  0  0  0  0  0  0  0  0  0  0
   40.2000   82.8650   59.6480 C   0  0  0  0  0  0  0  0  0  0  0  0
   39.5920   84.1130   59.7880 C   0  0  0  0  0  0  0  0  0  0  0  0
   38.9620   84.4030   60.9620 N   0  0  0  0  0  0  0  0  0  0  0  0
   38.9100   83.5250   61.9880 C   0  0  0  0  0  0  0  0  0  0  0  0
   39.4940   82.3120   61.8660 N   0  0  0  0  0  0  0  0  0  0  0  0
   40.7230   82.5560   58.7400 H   0  0  0  0  0  0  0  0  0  0  0  0
   39.6300   84.8070   58.9850 H   0  0  0  0  0  0  0  0  0  0  0  0
   38.3870   83.8540   62.8760 H   0  0  0  0  0  0  0  0  0  0  0  0
   40.7460   80.6420   60.6550 C   0  0  0  0  0  3  0  0  0  0  0  0
   40.3900   79.7360   61.8120 C   0  0  0  0  0  2  0  0  0  0  0  0
   41.0480   78.4420   61.3150 C   0  0  0  0  0  2  0  0  0  0  0  0
   40.8930   78.4700   59.8130 C   0  0  0  0  0  2  0  0  0  0  0  0
   40.3110   79.8290   59.4810 C   0  0  0  0  0  2  0  0  0  0  0  0
  1  6  1  0  0  0  0
  2  3  1  0  0  0  0
  2  1  2  0  0  0  0
  3  4  2  0  0  0  0
  4  5  1  0  0  0  0
  5  9  1  0  0  0  0
  6  5  2  0  0  0  0
  7  2  1  0  0  0  0
  8  3  1  0  0  0  0
 10  1  1  0  0  0  0
 10 11  1  0  0  0  0
 12 11  1  0  0  0  0
 13 12  1  0  0  0  0
 14 13  1  0  0  0  0
 14 10  1  0  0  0  0
M  END
>  <minimizedAffinity>
-4.20155048

>  <minimizedRMSD>
0.245251372

$$$$
