
 OpenBabel03212520453D

 14 15  0  0  0  0  0  0  0  0999 V2000
   38.2630   75.8030   57.7540 C   0  0  0  0  0  0  0  0  0  0  0  0
   37.3230   75.0470   57.0240 C   0  0  0  0  0  0  0  0  0  0  0  0
   36.7190   75.6560   55.9250 C   0  0  0  0  0  0  0  0  0  0  0  0
   37.0650   76.9390   55.6170 N   0  0  0  0  0  0  0  0  0  0  0  0
   37.9710   77.6340   56.3390 C   0  0  0  0  0  0  0  0  0  0  0  0
   38.5650   77.0560   57.4080 N   0  0  0  0  0  0  0  0  0  0  0  0
   37.1000   74.0250   57.3360 H   0  0  0  0  0  0  0  0  0  0  0  0
   36.0050   75.1150   55.3530 H   0  0  0  0  0  0  0  0  0  0  0  0
   38.1750   78.6440   56.0110 H   0  0  0  0  0  0  0  0  0  0  0  0
   38.9380   75.2180   58.9260 C   0  0  0  0  0  3  0  0  0  0  0  0
   39.3400   76.2420   59.9650 C   0  0  0  0  0  2  0  0  0  0  0  0
   39.8320   75.2880   61.0630 C   0  0  0  0  0  2  0  0  0  0  0  0
   38.9430   74.0700   60.9590 C   0  0  0  0  0  2  0  0  0  0  0  0
   38.0910   74.2820   59.7240 C   0  0  0  0  0  2  0  0  0  0  0  0
  1 10  1  0  0  0  0
  2  7  1  0  0  0  0
  2  1  2  0  0  0  0
  3  2  1  0  0  0  0
  4  3  2  0  0  0  0
  4  5  1  0  0  0  0
  5  6  2  0  0  0  0
  6  1  1  0  0  0  0
  8  3  1  0  0  0  0
  9  5  1  0  0  0  0
 10 14  1  0  0  0  0
 10 11  1  0  0  0  0
 11 12  1  0  0  0  0
 13 12  1  0  0  0  0
 14 13  1  0  0  0  0
M  END
>  <minimizedAffinity>
-3.98171997

$$$$

 OpenBabel03212520453D

 14 15  0  0  0  0  0  0  0  0999 V2000
   38.3280   75.7770   57.8650 C   0  0  0  0  0  0  0  0  0  0  0  0
   38.6750   77.0900   57.4830 C   0  0  0  0  0  0  0  0  0  0  0  0
   38.0200   77.6350   56.3790 C   0  0  0  0  0  0  0  0  0  0  0  0
   37.0880   76.8780   55.7330 N   0  0  0  0  0  0  0  0  0  0  0  0
   36.7810   75.6220   56.1270 C   0  0  0  0  0  0  0  0  0  0  0  0
   37.4080   75.0800   57.1950 N   0  0  0  0  0  0  0  0  0  0  0  0
   39.4330   77.6300   58.0540 H   0  0  0  0  0  0  0  0  0  0  0  0
   38.2570   78.6220   56.0640 H   0  0  0  0  0  0  0  0  0  0  0  0
   36.0280   75.1070   55.5470 H   0  0  0  0  0  0  0  0  0  0  0  0
   38.9830   75.1430   59.0230 C   0  0  0  0  0  3  0  0  0  0  0  0
   39.4530   76.1320   60.0670 C   0  0  0  0  0  2  0  0  0  0  0  0
   39.9040   75.1410   61.1490 C   0  0  0  0  0  2  0  0  0  0  0  0
   38.9470   73.9760   61.0440 C   0  0  0  0  0  2  0  0  0  0  0  0
   38.0940   74.2480   59.8220 C   0  0  0  0  0  2  0  0  0  0  0  0
  1 10  1  0  0  0  0
  2  1  1  0  0  0  0
  2  7  1  0  0  0  0
  3  2  2  0  0  0  0
  4  5  2  0  0  0  0
  4  3  1  0  0  0  0
  5  6  1  0  0  0  0
  6  1  2  0  0  0  0
  8  3  1  0  0  0  0
  9  5  1  0  0  0  0
 10 14  1  0  0  0  0
 10 11  1  0  0  0  0
 11 12  1  0  0  0  0
 13 12  1  0  0  0  0
 14 13  1  0  0  0  0
M  END
>  <minimizedAffinity>
-3.96013784

$$$$

 OpenBabel03212520453D

 14 15  0  0  0  0  0  0  0  0999 V2000
   41.4090   72.4740   61.7540 C   0  0  0  0  0  0  0  0  0  0  0  0
   42.3900   72.0570   60.8300 C   0  0  0  0  0  0  0  0  0  0  0  0
   43.1090   70.9010   61.1300 C   0  0  0  0  0  0  0  0  0  0  0  0
   42.8300   70.2400   62.2890 N   0  0  0  0  0  0  0  0  0  0  0  0
   41.8830   70.6690   63.1520 C   0  0  0  0  0  0  0  0  0  0  0  0
   41.1780   71.7880   62.8750 N   0  0  0  0  0  0  0  0  0  0  0  0
   42.5530   72.6430   59.9230 H   0  0  0  0  0  0  0  0  0  0  0  0
   43.8560   70.5590   60.4540 H   0  0  0  0  0  0  0  0  0  0  0  0
   41.7390   70.0730   64.0430 H   0  0  0  0  0  0  0  0  0  0  0  0
   40.6140   73.6870   61.4970 C   0  0  0  0  0  3  0  0  0  0  0  0
   41.0310   74.4300   60.2460 C   0  0  0  0  0  2  0  0  0  0  0  0
   39.9190   75.4870   60.2130 C   0  0  0  0  0  2  0  0  0  0  0  0
   38.6940   74.7910   60.7590 C   0  0  0  0  0  2  0  0  0  0  0  0
   39.1650   73.4330   61.2360 C   0  0  0  0  0  2  0  0  0  0  0  0
  1  6  1  0  0  0  0
  2  3  1  0  0  0  0
  2  1  2  0  0  0  0
  3  4  2  0  0  0  0
  4  5  1  0  0  0  0
  5  9  1  0  0  0  0
  6  5  2  0  0  0  0
  7  2  1  0  0  0  0
  8  3  1  0  0  0  0
 10  1  1  0  0  0  0
 11 10  1  0  0  0  0
 12 11  1  0  0  0  0
 12 13  1  0  0  0  0
 13 14  1  0  0  0  0
 14 10  1  0  0  0  0
M  END
>  <minimizedAffinity>
-3.95732307

$$$$

 OpenBabel03212520453D

 14 15  0  0  0  0  0  0  0  0999 V2000
   42.1470   67.9430   62.5210 C   0  0  0  0  0  0  0  0  0  0  0  0
   40.8520   67.5970   62.9590 C   0  0  0  0  0  0  0  0  0  0  0  0
   40.5210   66.2430   62.9910 C   0  0  0  0  0  0  0  0  0  0  0  0
   41.4570   65.3330   62.6010 N   0  0  0  0  0  0  0  0  0  0  0  0
   42.6900   65.6990   62.1870 C   0  0  0  0  0  0  0  0  0  0  0  0
   43.0250   67.0090   62.1500 N   0  0  0  0  0  0  0  0  0  0  0  0
   40.1590   68.3880   63.2540 H   0  0  0  0  0  0  0  0  0  0  0  0
   39.5520   65.9490   63.3160 H   0  0  0  0  0  0  0  0  0  0  0  0
   43.3590   64.9000   61.9000 H   0  0  0  0  0  0  0  0  0  0  0  0
   42.5600   69.3560   62.4640 C   0  0  0  0  0  3  0  0  0  0  0  0
   42.5900   69.9200   61.0600 C   0  0  0  0  0  2  0  0  0  0  0  0
   42.8810   71.3890   61.3980 C   0  0  0  0  0  2  0  0  0  0  0  0
   42.1660   71.6440   62.7050 C   0  0  0  0  0  2  0  0  0  0  0  0
   41.6330   70.3000   63.1570 C   0  0  0  0  0  2  0  0  0  0  0  0
  1  2  1  0  0  0  0
  2  3  2  0  0  0  0
  2  7  1  0  0  0  0
  3  8  1  0  0  0  0
  4  3  1  0  0  0  0
  5  4  2  0  0  0  0
  6  5  1  0  0  0  0
  6  1  2  0  0  0  0
  9  5  1  0  0  0  0
 10  1  1  0  0  0  0
 10 14  1  0  0  0  0
 11 12  1  0  0  0  0
 11 10  1  0  0  0  0
 12 13  1  0  0  0  0
 13 14  1  0  0  0  0
M  END
>  <minimizedAffinity>
-3.80100513

$$$$

 OpenBabel03212520453D

 14 15  0  0  0  0  0  0  0  0999 V2000
   38.5320   75.5150   58.5140 C   0  0  0  0  0  0  0  0  0  0  0  0
   39.2960   76.4990   59.1760 C   0  0  0  0  0  0  0  0  0  0  0  0
   39.5780   76.2970   60.5270 C   0  0  0  0  0  0  0  0  0  0  0  0
   39.1050   75.1710   61.1310 N   0  0  0  0  0  0  0  0  0  0  0  0
   38.3750   74.2480   60.4660 C   0  0  0  0  0  0  0  0  0  0  0  0
   38.0940   74.4300   59.1560 N   0  0  0  0  0  0  0  0  0  0  0  0
   39.6380   77.3740   58.6200 H   0  0  0  0  0  0  0  0  0  0  0  0
   40.1510   77.0200   61.0550 H   0  0  0  0  0  0  0  0  0  0  0  0
   38.0480   73.3900   61.0370 H   0  0  0  0  0  0  0  0  0  0  0  0
   38.1990   75.6680   57.0870 C   0  0  0  0  0  3  0  0  0  0  0  0
   36.8850   75.0250   56.7010 C   0  0  0  0  0  2  0  0  0  0  0  0
   36.7950   75.5170   55.2500 C   0  0  0  0  0  2  0  0  0  0  0  0
   37.4230   76.8920   55.2570 C   0  0  0  0  0  2  0  0  0  0  0  0
   37.9940   77.0810   56.6480 C   0  0  0  0  0  2  0  0  0  0  0  0
  1  6  2  0  0  0  0
  1  2  1  0  0  0  0
  2  3  2  0  0  0  0
  3  8  1  0  0  0  0
  3  4  1  0  0  0  0
  5  9  1  0  0  0  0
  5  4  2  0  0  0  0
  6  5  1  0  0  0  0
  7  2  1  0  0  0  0
 10  1  1  0  0  0  0
 11 10  1  0  0  0  0
 12 13  1  0  0  0  0
 12 11  1  0  0  0  0
 13 14  1  0  0  0  0
 14 10  1  0  0  0  0
M  END
>  <minimizedAffinity>
-3.77859712

$$$$

 OpenBabel03212520453D

 14 15  0  0  0  0  0  0  0  0999 V2000
   38.2420   76.5810   57.2380 C   0  0  0  0  0  0  0  0  0  0  0  0
   38.3110   77.2530   56.0000 C   0  0  0  0  0  0  0  0  0  0  0  0
   37.5170   76.7710   54.9600 C   0  0  0  0  0  0  0  0  0  0  0  0
   36.7240   75.6870   55.1920 N   0  0  0  0  0  0  0  0  0  0  0  0
   36.6830   75.0680   56.3920 C   0  0  0  0  0  0  0  0  0  0  0  0
   37.4470   75.5240   57.4100 N   0  0  0  0  0  0  0  0  0  0  0  0
   38.9730   78.1150   55.8950 H   0  0  0  0  0  0  0  0  0  0  0  0
   37.5450   77.2540   54.0130 H   0  0  0  0  0  0  0  0  0  0  0  0
   36.0200   74.2170   56.4720 H   0  0  0  0  0  0  0  0  0  0  0  0
   39.0560   77.0400   58.3790 C   0  0  0  0  0  3  0  0  0  0  0  0
   39.1560   76.0250   59.4960 C   0  0  0  0  0  2  0  0  0  0  0  0
   40.1730   76.7490   60.3870 C   0  0  0  0  0  2  0  0  0  0  0  0
   41.0930   77.4740   59.4320 C   0  0  0  0  0  2  0  0  0  0  0  0
   40.4930   77.2850   58.0540 C   0  0  0  0  0  2  0  0  0  0  0  0
  1  6  1  0  0  0  0
  1 10  1  0  0  0  0
  2  1  2  0  0  0  0
  3  4  2  0  0  0  0
  3  2  1  0  0  0  0
  4  5  1  0  0  0  0
  5  9  1  0  0  0  0
  5  6  2  0  0  0  0
  7  2  1  0  0  0  0
  8  3  1  0  0  0  0
 10 11  1  0  0  0  0
 11 12  1  0  0  0  0
 13 12  1  0  0  0  0
 14 10  1  0  0  0  0
 14 13  1  0  0  0  0
M  END
>  <minimizedAffinity>
-3.75854063

$$$$

 OpenBabel03212520453D

 14 15  0  0  0  0  0  0  0  0999 V2000
   38.4530   75.5830   58.2680 C   0  0  0  0  0  0  0  0  0  0  0  0
   38.0710   74.4110   58.9550 C   0  0  0  0  0  0  0  0  0  0  0  0
   38.4460   74.2970   60.2930 C   0  0  0  0  0  0  0  0  0  0  0  0
   39.1550   75.3120   60.8620 N   0  0  0  0  0  0  0  0  0  0  0  0
   39.5040   76.4210   60.1740 C   0  0  0  0  0  0  0  0  0  0  0  0
   39.1480   76.5470   58.8750 N   0  0  0  0  0  0  0  0  0  0  0  0
   37.5020   73.6430   58.4270 H   0  0  0  0  0  0  0  0  0  0  0  0
   38.1740   73.4260   60.8400 H   0  0  0  0  0  0  0  0  0  0  0  0
   40.0660   77.1680   60.7170 H   0  0  0  0  0  0  0  0  0  0  0  0
   38.0880   75.7670   56.8520 C   0  0  0  0  0  3  0  0  0  0  0  0
   36.7810   75.1030   56.4750 C   0  0  0  0  0  2  0  0  0  0  0  0
   36.6500   75.6330   55.0400 C   0  0  0  0  0  2  0  0  0  0  0  0
   37.2460   77.0220   55.0730 C   0  0  0  0  0  2  0  0  0  0  0  0
   37.8400   77.1850   56.4570 C   0  0  0  0  0  2  0  0  0  0  0  0
  1  6  2  0  0  0  0
  1  2  1  0  0  0  0
  2  3  2  0  0  0  0
  3  8  1  0  0  0  0
  3  4  1  0  0  0  0
  5  9  1  0  0  0  0
  5  4  2  0  0  0  0
  6  5  1  0  0  0  0
  7  2  1  0  0  0  0
 10  1  1  0  0  0  0
 11 10  1  0  0  0  0
 12 13  1  0  0  0  0
 12 11  1  0  0  0  0
 13 14  1  0  0  0  0
 14 10  1  0  0  0  0
M  END
>  <minimizedAffinity>
-3.72614694

$$$$

 OpenBabel03212520453D

 14 15  0  0  0  0  0  0  0  0999 V2000
   39.9770   74.6240   59.9860 C   0  0  0  0  0  0  0  0  0  0  0  0
   40.0480   75.9960   59.6660 C   0  0  0  0  0  0  0  0  0  0  0  0
   39.1280   76.4910   58.7430 C   0  0  0  0  0  0  0  0  0  0  0  0
   38.2170   75.6320   58.2030 N   0  0  0  0  0  0  0  0  0  0  0  0
   38.1780   74.3230   58.5340 C   0  0  0  0  0  0  0  0  0  0  0  0
   39.0640   73.8280   59.4280 N   0  0  0  0  0  0  0  0  0  0  0  0
   40.8090   76.6170   60.1420 H   0  0  0  0  0  0  0  0  0  0  0  0
   39.1540   77.5210   58.4790 H   0  0  0  0  0  0  0  0  0  0  0  0
   37.4160   73.7270   58.0500 H   0  0  0  0  0  0  0  0  0  0  0  0
   40.9200   74.0370   60.9550 C   0  0  0  0  0  3  0  0  0  0  0  0
   40.3910   72.7950   61.6370 C   0  0  0  0  0  2  0  0  0  0  0  0
   41.6540   72.3870   62.4060 C   0  0  0  0  0  2  0  0  0  0  0  0
   42.8080   72.7820   61.5130 C   0  0  0  0  0  2  0  0  0  0  0  0
   42.1940   73.5410   60.3540 C   0  0  0  0  0  2  0  0  0  0  0  0
  1 10  1  0  0  0  0
  2  1  1  0  0  0  0
  2  7  1  0  0  0  0
  3  2  2  0  0  0  0
  4  5  2  0  0  0  0
  4  3  1  0  0  0  0
  5  6  1  0  0  0  0
  6  1  2  0  0  0  0
  8  3  1  0  0  0  0
  9  5  1  0  0  0  0
 10 11  1  0  0  0  0
 11 12  1  0  0  0  0
 13 12  1  0  0  0  0
 14 10  1  0  0  0  0
 14 13  1  0  0  0  0
M  END
>  <minimizedAffinity>
-3.71922517

$$$$

 OpenBabel03212520453D

 14 15  0  0  0  0  0  0  0  0999 V2000
   38.9730   74.6200   58.6770 C   0  0  0  0  0  0  0  0  0  0  0  0
   37.9510   74.0660   57.8780 C   0  0  0  0  0  0  0  0  0  0  0  0
   37.2480   74.9300   57.0390 C   0  0  0  0  0  0  0  0  0  0  0  0
   37.5830   76.2520   57.0350 N   0  0  0  0  0  0  0  0  0  0  0  0
   38.5690   76.7480   57.8130 C   0  0  0  0  0  0  0  0  0  0  0  0
   39.2590   75.9220   58.6320 N   0  0  0  0  0  0  0  0  0  0  0  0
   37.7440   72.9960   57.9400 H   0  0  0  0  0  0  0  0  0  0  0  0
   36.4710   74.5450   56.4240 H   0  0  0  0  0  0  0  0  0  0  0  0
   38.7560   77.8100   57.7350 H   0  0  0  0  0  0  0  0  0  0  0  0
   39.7540   73.7610   59.5850 C   0  0  0  0  0  3  0  0  0  0  0  0
   41.1040   74.3390   59.9500 C   0  0  0  0  0  2  0  0  0  0  0  0
   41.5340   73.3000   60.9950 C   0  0  0  0  0  2  0  0  0  0  0  0
   40.2570   72.8830   61.6880 C   0  0  0  0  0  2  0  0  0  0  0  0
   39.1330   73.5550   60.9270 C   0  0  0  0  0  2  0  0  0  0  0  0
  1 10  1  0  0  0  0
  2  7  1  0  0  0  0
  2  1  2  0  0  0  0
  3  2  1  0  0  0  0
  4  3  2  0  0  0  0
  4  5  1  0  0  0  0
  5  6  2  0  0  0  0
  6  1  1  0  0  0  0
  8  3  1  0  0  0  0
  9  5  1  0  0  0  0
 10 11  1  0  0  0  0
 10 14  1  0  0  0  0
 11 12  1  0  0  0  0
 12 13  1  0  0  0  0
 14 13  1  0  0  0  0
M  END
>  <minimizedAffinity>
-3.71102428

$$$$
