
 OpenBabel03212521073D

 32 35  0  0  0  0  0  0  0  0999 V2000
   41.8160   84.2370   61.5770 C   0  0  0  0  0  0  0  0  0  0  0  0
   41.4700   83.9550   62.8880 C   0  0  0  0  0  0  0  0  0  0  0  0
   40.2000   83.5340   63.2340 C   0  0  0  0  0  0  0  0  0  0  0  0
   39.2380   83.3870   62.2360 C   0  0  0  0  0  0  0  0  0  0  0  0
   39.5770   83.6690   60.9120 C   0  0  0  0  0  0  0  0  0  0  0  0
   40.8460   84.0860   60.5880 C   0  0  0  0  0  0  0  0  0  0  0  0
   42.2390   84.0780   63.6450 H   0  0  0  0  0  0  0  0  0  0  0  0
   39.9660   83.3240   64.2660 H   0  0  0  0  0  0  0  0  0  0  0  0
   38.2370   83.0620   62.4560 H   0  0  0  0  0  0  0  0  0  0  0  0
   38.7980   83.5410   60.1650 H   0  0  0  0  0  0  0  0  0  0  0  0
   45.3190   84.1390   60.5560 C   0  0  0  0  0  0  0  0  0  0  0  0
   45.7190   85.4680   60.6780 C   0  0  0  0  0  0  0  0  0  0  0  0
   44.7640   86.4180   61.1200 C   0  0  0  0  0  0  0  0  0  0  0  0
   43.5210   85.9670   61.3970 N   0  0  0  0  0  0  0  0  0  0  0  0
   43.1550   84.6730   61.2720 C   0  0  0  0  0  0  0  0  0  0  0  0
   44.0610   83.7790   60.8530 N   0  0  0  0  0  0  0  0  0  0  0  0
   46.0150   83.3700   60.2210 H   0  0  0  0  0  0  0  0  0  0  0  0
   46.7300   85.7400   60.4370 H   0  0  0  0  0  0  0  0  0  0  0  0
   45.0560   87.4520   61.2220 H   0  0  0  0  0  0  0  0  0  0  0  0
   41.1590   84.3690   59.1940 C   0  0  0  0  0  0  0  0  0  0  0  0
   40.8720   85.6980   58.8590 C   0  0  0  0  0  0  0  0  0  0  0  0
   41.1010   86.1700   57.5700 C   0  0  0  0  0  0  0  0  0  0  0  0
   41.6010   85.3000   56.6870 N   0  0  0  0  0  0  0  0  0  0  0  0
   41.8800   84.0090   57.0140 C   0  0  0  0  0  0  0  0  0  0  0  0
   41.6580   83.5460   58.2670 N   0  0  0  0  0  0  0  0  0  0  0  0
   40.4620   86.4480   59.5460 H   0  0  0  0  0  0  0  0  0  0  0  0
   40.8870   87.1910   57.2930 H   0  0  0  0  0  0  0  0  0  0  0  0
   42.4320   83.0610   56.0230 C   0  0  0  0  0  3  0  0  0  0  0  0
   41.4290   81.9450   55.8030 C   0  0  0  0  0  2  0  0  0  0  0  0
   41.8030   81.3020   54.5140 C   0  0  0  0  0  2  0  0  0  0  0  0
   42.3180   82.4440   53.6870 C   0  0  0  0  0  2  0  0  0  0  0  0
   42.5240   83.6290   54.6270 C   0  0  0  0  0  2  0  0  0  0  0  0
  1  2  1  0  0  0  0
  2  3  2  0  0  0  0
  2  7  1  0  0  0  0
  3  8  1  0  0  0  0
  4  9  1  0  0  0  0
  4  3  1  0  0  0  0
  5  4  2  0  0  0  0
  6  5  1  0  0  0  0
  6  1  2  0  0  0  0
 10  5  1  0  0  0  0
 11 12  2  0  0  0  0
 11 16  1  0  0  0  0
 12 13  1  0  0  0  0
 13 19  1  0  0  0  0
 13 14  2  0  0  0  0
 15 14  1  0  0  0  0
 15  1  1  0  0  0  0
 16 15  2  0  0  0  0
 17 11  1  0  0  0  0
 18 12  1  0  0  0  0
 20  6  1  0  0  0  0
 21 20  1  0  0  0  0
 21 26  1  0  0  0  0
 22 21  2  0  0  0  0
 23 24  2  0  0  0  0
 23 22  1  0  0  0  0
 24 25  1  0  0  0  0
 25 20  2  0  0  0  0
 27 22  1  0  0  0  0
 28 24  1  0  0  0  0
 29 28  1  0  0  0  0
 30 29  1  0  0  0  0
 31 30  1  0  0  0  0
 31 32  1  0  0  0  0
 32 28  1  0  0  0  0
M  END
>  <minimizedAffinity>
-5.71048546

>  <minimizedRMSD>
0.499906629

$$$$
