
 OpenBabel03212520593D

 38 42  0  0  1  0  0  0  0  0999 V2000
   39.7300   77.2500   59.2100 C   0  0  0  0  0  0  0  0  0  0  0  0
   40.4050   76.0910   58.9620 C   0  0  0  0  0  0  0  0  0  0  0  0
   39.8360   75.3740   57.8920 C   0  0  0  0  0  0  0  0  0  0  0  0
   38.7580   75.7750   57.1930 N   0  0  0  0  0  0  0  0  0  0  0  0
   38.1630   76.9560   57.5320 C   0  0  0  0  0  0  0  0  0  0  0  0
   38.6560   77.6980   58.5520 N   0  0  0  0  0  0  0  0  0  0  0  0
   41.2630   75.7300   59.4870 H   0  0  0  0  0  0  0  0  0  0  0  0
   40.2680   74.4240   57.5760 H   0  0  0  0  0  0  0  0  0  0  0  0
   40.9760   80.2210   61.7110 C   0  0  0  0  0  0  0  0  0  0  0  0
   40.9560   78.9960   62.3400 C   0  0  0  0  0  0  0  0  0  0  0  0
   40.5580   77.9350   61.6030 C   0  0  0  0  0  0  0  0  0  0  0  0
   40.1960   78.1060   60.2850 C   0  0  0  0  0  0  0  0  0  0  0  0
   40.4210   79.9120   60.0160 S   0  0  0  0  0  0  0  0  0  0  0  0
   41.2420   78.8620   63.3780 H   0  0  0  0  0  0  0  0  0  0  0  0
   40.4730   76.9000   61.9070 H   0  0  0  0  0  0  0  0  0  0  0  0
   43.0690   83.0370   62.7930 C   0  0  0  0  0  0  0  0  0  0  0  0
   42.1780   83.8030   63.5920 C   0  0  0  0  0  0  0  0  0  0  0  0
   40.8600   83.3490   63.7510 C   0  0  0  0  0  0  0  0  0  0  0  0
   40.5040   82.2040   63.1360 N   0  0  0  0  0  0  0  0  0  0  0  0
   41.3830   81.4890   62.3760 C   0  0  0  0  0  0  0  0  0  0  0  0
   42.6320   81.9110   62.2190 N   0  0  0  0  0  0  0  0  0  0  0  0
   44.0900   83.3650   62.6540 H   0  0  0  0  0  0  0  0  0  0  0  0
   42.4960   84.7090   64.0650 H   0  0  0  0  0  0  0  0  0  0  0  0
   40.1340   83.8760   64.3390 H   0  0  0  0  0  0  0  0  0  0  0  0
   37.0090   77.3720   56.7620 C   0  0  0  0  0  0  0  0  0  0  0  0
   35.8880   77.0800   57.2070 O   0  0  0  0  0  0  0  0  0  0  0  0
   37.1300   78.1240   55.4600 C   0  0  1  0  0  0  0  0  0  0  0  0
   37.4050   79.5940   55.6490 C   0  0  0  0  0  0  0  0  0  0  0  0
   38.4080   78.6950   55.0770 C   0  0  2  0  0  0  0  0  0  0  0  0
   36.1770   78.0590   54.8470 H   0  0  0  0  0  0  0  0  0  0  0  0
   36.9230   80.3640   55.0350 H   0  0  0  0  0  0  0  0  0  0  0  0
   37.6520   79.9660   56.6830 H   0  0  0  0  0  0  0  0  0  0  0  0
   39.2950   78.3230   55.6550 H   0  0  0  0  0  0  0  0  0  0  0  0
   38.7730   78.9530   53.6320 C   0  0  0  0  0  3  0  0  0  0  0  0
   37.7080   79.7280   52.9040 C   0  0  0  0  0  2  0  0  0  0  0  0
   38.4290   80.0320   51.5890 C   0  0  0  0  0  2  0  0  0  0  0  0
   39.8790   80.2110   51.9860 C   0  0  0  0  0  2  0  0  0  0  0  0
   39.9760   79.8200   53.4510 C   0  0  0  0  0  2  0  0  0  0  0  0
  1 12  1  0  0  0  0
  2  1  1  0  0  0  0
  2  7  1  0  0  0  0
  3  2  2  0  0  0  0
  4  5  2  0  0  0  0
  4  3  1  0  0  0  0
  5  6  1  0  0  0  0
  6  1  2  0  0  0  0
  8  3  1  0  0  0  0
  9 10  2  0  0  0  0
  9 20  1  0  0  0  0
 10 14  1  0  0  0  0
 11 15  1  0  0  0  0
 11 10  1  0  0  0  0
 12 11  2  0  0  0  0
 13 12  1  0  0  0  0
 13  9  1  0  0  0  0
 16 17  1  0  0  0  0
 17 18  2  0  0  0  0
 17 23  1  0  0  0  0
 18 24  1  0  0  0  0
 19 18  1  0  0  0  0
 20 19  2  0  0  0  0
 21 20  1  0  0  0  0
 21 16  2  0  0  0  0
 22 16  1  0  0  0  0
 25 26  2  0  0  0  0
 25  5  1  0  0  0  0
 27 30  1  6  0  0  0
 27 28  1  0  0  0  0
 27 25  1  0  0  0  0
 28 32  1  0  0  0  0
 29 27  1  0  0  0  0
 29 28  1  0  0  0  0
 29 33  1  1  0  0  0
 31 28  1  0  0  0  0
 34 29  1  0  0  0  0
 35 34  1  0  0  0  0
 36 37  1  0  0  0  0
 36 35  1  0  0  0  0
 37 38  1  0  0  0  0
 38 34  1  0  0  0  0
M  END
>  <minimizedAffinity>
-6.28657961

>  <minimizedRMSD>
0.581428945

$$$$
