
 OpenBabel03212521073D

 32 35  0  0  0  0  0  0  0  0999 V2000
   41.8010   84.2510   61.5660 C   0  0  0  0  0  0  0  0  0  0  0  0
   41.4470   83.9640   62.8740 C   0  0  0  0  0  0  0  0  0  0  0  0
   40.1730   83.5460   63.2110 C   0  0  0  0  0  0  0  0  0  0  0  0
   39.2150   83.4100   62.2080 C   0  0  0  0  0  0  0  0  0  0  0  0
   39.5620   83.6980   60.8870 C   0  0  0  0  0  0  0  0  0  0  0  0
   40.8340   84.1110   60.5720 C   0  0  0  0  0  0  0  0  0  0  0  0
   42.2130   84.0790   63.6350 H   0  0  0  0  0  0  0  0  0  0  0  0
   39.9330   83.3320   64.2410 H   0  0  0  0  0  0  0  0  0  0  0  0
   38.2120   83.0890   62.4220 H   0  0  0  0  0  0  0  0  0  0  0  0
   38.7860   83.5790   60.1360 H   0  0  0  0  0  0  0  0  0  0  0  0
   45.3190   84.1360   60.5990 C   0  0  0  0  0  0  0  0  0  0  0  0
   45.7140   85.4680   60.6940 C   0  0  0  0  0  0  0  0  0  0  0  0
   44.7510   86.4270   61.0990 C   0  0  0  0  0  0  0  0  0  0  0  0
   43.5050   85.9810   61.3680 N   0  0  0  0  0  0  0  0  0  0  0  0
   43.1430   84.6820   61.2700 C   0  0  0  0  0  0  0  0  0  0  0  0
   44.0570   83.7810   60.8870 N   0  0  0  0  0  0  0  0  0  0  0  0
   46.0200   83.3600   60.2930 H   0  0  0  0  0  0  0  0  0  0  0  0
   46.7280   85.7360   60.4620 H   0  0  0  0  0  0  0  0  0  0  0  0
   45.0390   87.4640   61.1780 H   0  0  0  0  0  0  0  0  0  0  0  0
   41.1550   84.4010   59.1810 C   0  0  0  0  0  0  0  0  0  0  0  0
   40.7790   85.7010   58.8230 C   0  0  0  0  0  0  0  0  0  0  0  0
   41.0010   86.1740   57.5330 C   0  0  0  0  0  0  0  0  0  0  0  0
   41.5820   85.3330   56.6720 N   0  0  0  0  0  0  0  0  0  0  0  0
   41.9460   84.0700   57.0210 C   0  0  0  0  0  0  0  0  0  0  0  0
   41.7330   83.6060   58.2750 N   0  0  0  0  0  0  0  0  0  0  0  0
   40.3010   86.4260   59.4920 H   0  0  0  0  0  0  0  0  0  0  0  0
   40.7190   87.1730   57.2390 H   0  0  0  0  0  0  0  0  0  0  0  0
   42.5880   83.1540   56.0540 C   0  0  0  0  0  3  0  0  0  0  0  0
   43.6820   82.3800   56.7660 C   0  0  0  0  0  2  0  0  0  0  0  0
   43.9670   81.1930   55.9160 C   0  0  0  0  0  2  0  0  0  0  0  0
   42.6280   80.8440   55.3370 C   0  0  0  0  0  2  0  0  0  0  0  0
   41.6950   82.0200   55.6090 C   0  0  0  0  0  2  0  0  0  0  0  0
  1  2  1  0  0  0  0
  2  3  2  0  0  0  0
  2  7  1  0  0  0  0
  3  8  1  0  0  0  0
  4  9  1  0  0  0  0
  4  3  1  0  0  0  0
  5  4  2  0  0  0  0
  6  5  1  0  0  0  0
  6  1  2  0  0  0  0
 10  5  1  0  0  0  0
 11 12  2  0  0  0  0
 11 16  1  0  0  0  0
 12 13  1  0  0  0  0
 13 19  1  0  0  0  0
 13 14  2  0  0  0  0
 15 14  1  0  0  0  0
 15  1  1  0  0  0  0
 16 15  2  0  0  0  0
 17 11  1  0  0  0  0
 18 12  1  0  0  0  0
 20  6  1  0  0  0  0
 21 20  1  0  0  0  0
 21 26  1  0  0  0  0
 22 21  2  0  0  0  0
 23 24  2  0  0  0  0
 23 22  1  0  0  0  0
 24 25  1  0  0  0  0
 25 20  2  0  0  0  0
 27 22  1  0  0  0  0
 28 29  1  0  0  0  0
 28 24  1  0  0  0  0
 30 29  1  0  0  0  0
 31 32  1  0  0  0  0
 31 30  1  0  0  0  0
 32 28  1  0  0  0  0
M  END
>  <minimizedAffinity>
-5.39908838

>  <minimizedRMSD>
0.287965745

$$$$
