
 OpenBabel03212520523D

 31 34  0  0  1  0  0  0  0  0999 V2000
   37.9280   74.5470   56.6640 C   0  0  0  0  0  0  0  0  0  0  0  0
   38.3260   73.2760   56.3060 C   0  0  0  0  0  0  0  0  0  0  0  0
   38.7280   72.3460   57.2700 C   0  0  0  0  0  0  0  0  0  0  0  0
   38.7320   72.6890   58.5760 N   0  0  0  0  0  0  0  0  0  0  0  0
   38.3400   73.9310   58.8910 C   0  0  0  0  0  0  0  0  0  0  0  0
   37.9410   74.8670   57.9880 N   0  0  0  0  0  0  0  0  0  0  0  0
   38.2980   73.0690   55.2550 H   0  0  0  0  0  0  0  0  0  0  0  0
   39.0090   71.4010   56.8600 H   0  0  0  0  0  0  0  0  0  0  0  0
   37.3490   76.2450   53.4810 C   0  0  0  0  0  0  0  0  0  0  0  0
   36.7030   77.4230   53.8970 C   0  0  0  0  0  0  0  0  0  0  0  0
   36.4670   77.6350   55.2620 C   0  0  0  0  0  0  0  0  0  0  0  0
   36.8950   76.6530   56.0960 N   0  0  0  0  0  0  0  0  0  0  0  0
   37.5110   75.5340   55.6760 C   0  0  0  0  0  0  0  0  0  0  0  0
   37.7360   75.3290   54.3880 N   0  0  0  0  0  0  0  0  0  0  0  0
   37.5150   76.1720   52.0780 N   0  0  0  0  0  0  0  0  0  0  0  0
   36.3680   78.1940   53.2340 H   0  0  0  0  0  0  0  0  0  0  0  0
   35.9740   78.5290   55.6120 H   0  0  0  0  0  0  0  0  0  0  0  0
   36.7040   75.6040   51.6970 H   0  0  0  0  0  0  0  0  0  0  0  0
   38.2260   76.5430   51.4190 H   0  0  0  0  0  0  0  0  0  0  0  0
   38.3920   74.2500   60.3510 C   0  0  1  0  0  0  0  0  0  0  0  0
   39.4060   73.6990   61.2250 C   0  0  0  0  0  0  0  0  0  0  0  0
   39.6190   75.0670   60.7550 C   0  0  1  0  0  0  0  0  0  0  0  0
   37.4270   74.6360   60.8030 H   0  0  0  0  0  0  0  0  0  0  0  0
   39.1350   73.5000   62.2850 H   0  0  0  0  0  0  0  0  0  0  0  0
   40.0670   72.9050   60.8180 H   0  0  0  0  0  0  0  0  0  0  0  0
   39.4390   75.8490   61.5650 H   0  0  0  0  0  0  0  0  0  0  0  0
   40.6040   75.5280   59.7520 C   0  0  0  0  0  3  0  0  0  0  0  0
   41.8690   74.7950   59.6140 C   0  0  0  0  0  2  0  0  0  0  0  0
   42.9110   75.8570   59.2930 C   0  0  0  0  0  2  0  0  0  0  0  0
   42.1650   77.1590   59.1390 C   0  0  0  0  0  2  0  0  0  0  0  0
   40.9060   77.0080   59.9310 C   0  0  0  0  0  2  0  0  0  0  0  0
  1  6  1  0  0  0  0
  2  1  2  0  0  0  0
  2  3  1  0  0  0  0
  3  4  2  0  0  0  0
  4  5  1  0  0  0  0
  5 20  1  0  0  0  0
  6  5  2  0  0  0  0
  7  2  1  0  0  0  0
  8  3  1  0  0  0  0
  9 10  2  0  0  0  0
  9 14  1  0  0  0  0
 10 11  1  0  0  0  0
 11 17  1  0  0  0  0
 11 12  2  0  0  0  0
 13 12  1  0  0  0  0
 13  1  1  0  0  0  0
 14 13  2  0  0  0  0
 15  9  1  0  0  0  0
 16 10  1  0  0  0  0
 18 15  1  0  0  0  0
 19 15  1  0  0  0  0
 20 22  1  0  0  0  0
 20 23  1  1  0  0  0
 20 21  1  0  0  0  0
 21 24  1  0  0  0  0
 22 21  1  0  0  0  0
 22 26  1  1  0  0  0
 25 21  1  0  0  0  0
 27 31  1  0  0  0  0
 27 22  1  0  0  0  0
 28 27  1  0  0  0  0
 29 28  1  0  0  0  0
 30 29  1  0  0  0  0
 30 31  1  0  0  0  0
M  END
>  <minimizedAffinity>
-6.05695581

$$$$

 OpenBabel03212520523D

 31 34  0  0  1  0  0  0  0  0999 V2000
   39.0310   76.6950   57.7930 C   0  0  0  0  0  0  0  0  0  0  0  0
   40.1090   77.5480   57.9050 C   0  0  0  0  0  0  0  0  0  0  0  0
   40.8440   77.6320   59.0910 C   0  0  0  0  0  0  0  0  0  0  0  0
   40.5010   76.8710   60.1520 N   0  0  0  0  0  0  0  0  0  0  0  0
   39.4480   76.0540   60.0120 C   0  0  0  0  0  0  0  0  0  0  0  0
   38.7060   75.9390   58.8780 N   0  0  0  0  0  0  0  0  0  0  0  0
   40.3280   78.1220   57.0260 H   0  0  0  0  0  0  0  0  0  0  0  0
   41.6530   78.3290   59.0420 H   0  0  0  0  0  0  0  0  0  0  0  0
   37.7320   75.5200   54.5860 C   0  0  0  0  0  0  0  0  0  0  0  0
   36.7430   76.4800   54.3080 C   0  0  0  0  0  0  0  0  0  0  0  0
   36.5200   77.5260   55.2150 C   0  0  0  0  0  0  0  0  0  0  0  0
   37.3050   77.5240   56.3230 N   0  0  0  0  0  0  0  0  0  0  0  0
   38.2470   76.5960   56.5690 C   0  0  0  0  0  0  0  0  0  0  0  0
   38.4600   75.6070   55.7160 N   0  0  0  0  0  0  0  0  0  0  0  0
   37.8390   74.5310   53.5820 N   0  0  0  0  0  0  0  0  0  0  0  0
   36.1270   76.4770   53.4320 H   0  0  0  0  0  0  0  0  0  0  0  0
   35.7690   78.2760   55.0300 H   0  0  0  0  0  0  0  0  0  0  0  0
   37.2550   73.7020   53.8990 H   0  0  0  0  0  0  0  0  0  0  0  0
   38.3410   74.4770   52.6760 H   0  0  0  0  0  0  0  0  0  0  0  0
   39.1100   75.2590   61.2320 C   0  0  1  0  0  0  0  0  0  0  0  0
   38.3250   74.0450   61.1680 C   0  0  0  0  0  0  0  0  0  0  0  0
   39.7750   73.8820   61.2680 C   0  0  1  0  0  0  0  0  0  0  0  0
   39.1810   75.8170   62.2160 H   0  0  0  0  0  0  0  0  0  0  0  0
   37.6660   73.7980   62.0300 H   0  0  0  0  0  0  0  0  0  0  0  0
   37.8430   73.7880   60.2020 H   0  0  0  0  0  0  0  0  0  0  0  0
   40.1130   73.5320   62.2990 H   0  0  0  0  0  0  0  0  0  0  0  0
   40.7040   73.4460   60.2030 C   0  0  0  0  0  3  0  0  0  0  0  0
   40.2800   72.3770   59.2890 C   0  0  0  0  0  2  0  0  0  0  0  0
   41.5440   71.5840   58.9930 C   0  0  0  0  0  2  0  0  0  0  0  0
   42.6800   72.3150   59.6640 C   0  0  0  0  0  2  0  0  0  0  0  0
   42.0630   73.0900   60.7850 C   0  0  0  0  0  2  0  0  0  0  0  0
  1  2  2  0  0  0  0
  1  6  1  0  0  0  0
  2  3  1  0  0  0  0
  3  4  2  0  0  0  0
  5  4  1  0  0  0  0
  5 20  1  0  0  0  0
  6  5  2  0  0  0  0
  7  2  1  0  0  0  0
  8  3  1  0  0  0  0
  9 14  1  0  0  0  0
 10  9  2  0  0  0  0
 10 11  1  0  0  0  0
 11 12  2  0  0  0  0
 12 13  1  0  0  0  0
 13  1  1  0  0  0  0
 14 13  2  0  0  0  0
 15 18  1  0  0  0  0
 15  9  1  0  0  0  0
 16 10  1  0  0  0  0
 17 11  1  0  0  0  0
 19 15  1  0  0  0  0
 20 22  1  0  0  0  0
 20 23  1  1  0  0  0
 21 20  1  0  0  0  0
 21 22  1  0  0  0  0
 21 24  1  0  0  0  0
 22 26  1  1  0  0  0
 25 21  1  0  0  0  0
 27 31  1  0  0  0  0
 27 22  1  0  0  0  0
 28 27  1  0  0  0  0
 29 28  1  0  0  0  0
 29 30  1  0  0  0  0
 30 31  1  0  0  0  0
M  END
>  <minimizedAffinity>
-6.04876709

$$$$

 OpenBabel03212520523D

 31 34  0  0  1  0  0  0  0  0999 V2000
   41.2150   70.9570   59.3590 C   0  0  0  0  0  0  0  0  0  0  0  0
   40.8450   70.1510   58.3030 C   0  0  0  0  0  0  0  0  0  0  0  0
   41.3490   68.8530   58.1730 C   0  0  0  0  0  0  0  0  0  0  0  0
   42.2140   68.3710   59.0910 N   0  0  0  0  0  0  0  0  0  0  0  0
   42.5540   69.1790   60.1050 C   0  0  0  0  0  0  0  0  0  0  0  0
   42.0880   70.4470   60.2700 N   0  0  0  0  0  0  0  0  0  0  0  0
   40.1560   70.5930   57.6110 H   0  0  0  0  0  0  0  0  0  0  0  0
   40.9820   68.3370   57.3130 H   0  0  0  0  0  0  0  0  0  0  0  0
   38.9800   73.8470   59.3750 C   0  0  0  0  0  0  0  0  0  0  0  0
   39.8370   74.8700   59.8190 C   0  0  0  0  0  0  0  0  0  0  0  0
   41.1740   74.5710   60.1130 C   0  0  0  0  0  0  0  0  0  0  0  0
   41.5430   73.2770   59.9370 N   0  0  0  0  0  0  0  0  0  0  0  0
   40.7070   72.3140   59.5110 C   0  0  0  0  0  0  0  0  0  0  0  0
   39.4430   72.5910   59.2330 N   0  0  0  0  0  0  0  0  0  0  0  0
   37.6650   74.3000   59.1220 N   0  0  0  0  0  0  0  0  0  0  0  0
   39.5400   75.8900   59.9550 H   0  0  0  0  0  0  0  0  0  0  0  0
   41.8560   75.3340   60.4550 H   0  0  0  0  0  0  0  0  0  0  0  0
   37.0930   74.1020   59.9950 H   0  0  0  0  0  0  0  0  0  0  0  0
   37.2030   74.7500   58.3080 H   0  0  0  0  0  0  0  0  0  0  0  0
   43.5330   68.5900   61.0690 C   0  0  1  0  0  0  0  0  0  0  0  0
   43.5610   68.9690   62.4660 C   0  0  0  0  0  0  0  0  0  0  0  0
   42.8820   67.7150   62.1410 C   0  0  1  0  0  0  0  0  0  0  0  0
   44.4560   68.1220   60.6080 H   0  0  0  0  0  0  0  0  0  0  0  0
   44.5400   68.9630   62.9930 H   0  0  0  0  0  0  0  0  0  0  0  0
   42.9330   69.8280   62.7840 H   0  0  0  0  0  0  0  0  0  0  0  0
   43.4800   66.7930   62.4460 H   0  0  0  0  0  0  0  0  0  0  0  0
   41.4260   67.4560   62.1460 C   0  0  0  0  0  3  0  0  0  0  0  0
   40.6270   67.9270   63.2860 C   0  0  0  0  0  2  0  0  0  0  0  0
   39.5560   66.8650   63.4860 C   0  0  0  0  0  2  0  0  0  0  0  0
   39.7140   65.8750   62.3590 C   0  0  0  0  0  2  0  0  0  0  0  0
   41.1390   65.9800   61.9170 C   0  0  0  0  0  2  0  0  0  0  0  0
  1 13  1  0  0  0  0
  1  6  1  0  0  0  0
  2  1  2  0  0  0  0
  3  2  1  0  0  0  0
  3  4  2  0  0  0  0
  4  5  1  0  0  0  0
  5  6  2  0  0  0  0
  5 20  1  0  0  0  0
  7  2  1  0  0  0  0
  8  3  1  0  0  0  0
  9 10  1  0  0  0  0
 10 16  1  0  0  0  0
 10 11  2  0  0  0  0
 11 17  1  0  0  0  0
 12 11  1  0  0  0  0
 13 12  2  0  0  0  0
 14  9  2  0  0  0  0
 14 13  1  0  0  0  0
 15  9  1  0  0  0  0
 15 18  1  0  0  0  0
 19 15  1  0  0  0  0
 20 23  1  6  0  0  0
 20 22  1  0  0  0  0
 20 21  1  0  0  0  0
 21 25  1  0  0  0  0
 21 24  1  0  0  0  0
 22 27  1  0  0  0  0
 22 26  1  1  0  0  0
 22 21  1  0  0  0  0
 27 28  1  0  0  0  0
 28 29  1  0  0  0  0
 30 29  1  0  0  0  0
 31 27  1  0  0  0  0
 31 30  1  0  0  0  0
M  END
>  <minimizedAffinity>
-5.64358759

$$$$

 OpenBabel03212520523D

 31 34  0  0  1  0  0  0  0  0999 V2000
   40.5520   73.3430   61.1120 C   0  0  0  0  0  0  0  0  0  0  0  0
   39.1790   73.3830   61.2250 C   0  0  0  0  0  0  0  0  0  0  0  0
   38.4510   74.4990   60.8030 C   0  0  0  0  0  0  0  0  0  0  0  0
   39.0940   75.5620   60.2740 N   0  0  0  0  0  0  0  0  0  0  0  0
   40.4290   75.4930   60.1780 C   0  0  0  0  0  0  0  0  0  0  0  0
   41.1760   74.4270   60.5760 N   0  0  0  0  0  0  0  0  0  0  0  0
   38.7310   72.5080   61.6520 H   0  0  0  0  0  0  0  0  0  0  0  0
   37.3970   74.4000   60.9460 H   0  0  0  0  0  0  0  0  0  0  0  0
   42.9340   70.5720   61.1540 C   0  0  0  0  0  0  0  0  0  0  0  0
   42.7440   70.0500   62.4460 C   0  0  0  0  0  0  0  0  0  0  0  0
   41.8050   70.6440   63.3000 C   0  0  0  0  0  0  0  0  0  0  0  0
   41.1350   71.7090   62.7920 N   0  0  0  0  0  0  0  0  0  0  0  0
   41.3310   72.1930   61.5510 C   0  0  0  0  0  0  0  0  0  0  0  0
   42.2170   71.6340   60.7420 N   0  0  0  0  0  0  0  0  0  0  0  0
   43.9120   69.8690   60.4130 N   0  0  0  0  0  0  0  0  0  0  0  0
   43.2760   69.2090   62.8420 H   0  0  0  0  0  0  0  0  0  0  0  0
   41.6370   70.2670   64.2960 H   0  0  0  0  0  0  0  0  0  0  0  0
   44.8260   70.3980   60.5240 H   0  0  0  0  0  0  0  0  0  0  0  0
   43.8940   69.0080   59.8330 H   0  0  0  0  0  0  0  0  0  0  0  0
   41.0770   76.7120   59.6060 C   0  0  1  0  0  0  0  0  0  0  0  0
   42.4570   76.7180   59.1690 C   0  0  0  0  0  0  0  0  0  0  0  0
   41.4410   76.5740   58.1270 C   0  0  1  0  0  0  0  0  0  0  0  0
   40.5750   77.6970   59.8530 H   0  0  0  0  0  0  0  0  0  0  0  0
   43.0360   77.6630   59.2680 H   0  0  0  0  0  0  0  0  0  0  0  0
   43.0810   75.8310   59.4060 H   0  0  0  0  0  0  0  0  0  0  0  0
   41.3060   77.5180   57.5020 H   0  0  0  0  0  0  0  0  0  0  0  0
   41.1080   75.3520   57.3610 C   0  0  0  0  0  3  0  0  0  0  0  0
   42.2010   74.5670   56.7730 C   0  0  0  0  0  2  0  0  0  0  0  0
   41.6470   74.0380   55.4580 C   0  0  0  0  0  2  0  0  0  0  0  0
   40.1970   74.4500   55.4050 C   0  0  0  0  0  2  0  0  0  0  0  0
   40.0790   75.6540   56.2830 C   0  0  0  0  0  2  0  0  0  0  0  0
  1  2  1  0  0  0  0
  1 13  1  0  0  0  0
  2  7  1  0  0  0  0
  3  8  1  0  0  0  0
  3  2  2  0  0  0  0
  4  3  1  0  0  0  0
  5  4  2  0  0  0  0
  5  6  1  0  0  0  0
  6  1  2  0  0  0  0
  9 10  1  0  0  0  0
 10 16  1  0  0  0  0
 10 11  2  0  0  0  0
 11 17  1  0  0  0  0
 12 11  1  0  0  0  0
 13 12  2  0  0  0  0
 14  9  2  0  0  0  0
 14 13  1  0  0  0  0
 15 18  1  0  0  0  0
 15  9  1  0  0  0  0
 19 15  1  0  0  0  0
 20 23  1  1  0  0  0
 20  5  1  0  0  0  0
 21 24  1  0  0  0  0
 21 25  1  0  0  0  0
 21 20  1  0  0  0  0
 22 26  1  6  0  0  0
 22 21  1  0  0  0  0
 22 20  1  0  0  0  0
 27 22  1  0  0  0  0
 28 27  1  0  0  0  0
 29 28  1  0  0  0  0
 30 29  1  0  0  0  0
 30 31  1  0  0  0  0
 31 27  1  0  0  0  0
M  END
>  <minimizedAffinity>
-5.42887497

$$$$

 OpenBabel03212520523D

 31 34  0  0  1  0  0  0  0  0999 V2000
   41.4610   74.0960   59.6020 C   0  0  0  0  0  0  0  0  0  0  0  0
   42.7040   74.5050   59.1660 C   0  0  0  0  0  0  0  0  0  0  0  0
   43.8700   74.0930   59.8170 C   0  0  0  0  0  0  0  0  0  0  0  0
   43.7910   73.2820   60.8930 N   0  0  0  0  0  0  0  0  0  0  0  0
   42.5690   72.9020   61.2930 C   0  0  0  0  0  0  0  0  0  0  0  0
   41.4090   73.2780   60.6900 N   0  0  0  0  0  0  0  0  0  0  0  0
   42.6960   75.1470   58.3070 H   0  0  0  0  0  0  0  0  0  0  0  0
   44.7630   74.4800   59.3760 H   0  0  0  0  0  0  0  0  0  0  0  0
   38.2920   74.0200   57.7850 C   0  0  0  0  0  0  0  0  0  0  0  0
   37.9590   75.3860   57.7320 C   0  0  0  0  0  0  0  0  0  0  0  0
   38.8150   76.3290   58.3170 C   0  0  0  0  0  0  0  0  0  0  0  0
   39.9320   75.8290   58.9040 N   0  0  0  0  0  0  0  0  0  0  0  0
   40.2320   74.5180   58.9430 C   0  0  0  0  0  0  0  0  0  0  0  0
   39.4260   73.6240   58.3930 N   0  0  0  0  0  0  0  0  0  0  0  0
   37.3330   73.1930   57.1550 N   0  0  0  0  0  0  0  0  0  0  0  0
   37.0760   75.7740   57.2670 H   0  0  0  0  0  0  0  0  0  0  0  0
   38.5870   77.3820   58.2920 H   0  0  0  0  0  0  0  0  0  0  0  0
   36.6800   72.8400   57.9140 H   0  0  0  0  0  0  0  0  0  0  0  0
   37.1720   72.8980   56.1730 H   0  0  0  0  0  0  0  0  0  0  0  0
   42.5540   72.0250   62.5030 C   0  0  1  0  0  0  0  0  0  0  0  0
   41.4900   71.0760   62.7540 C   0  0  0  0  0  0  0  0  0  0  0  0
   42.7240   70.5390   62.1820 C   0  0  1  0  0  0  0  0  0  0  0  0
   43.1960   72.3720   63.3690 H   0  0  0  0  0  0  0  0  0  0  0  0
   41.2140   70.8620   63.8100 H   0  0  0  0  0  0  0  0  0  0  0  0
   40.5930   71.1160   62.1000 H   0  0  0  0  0  0  0  0  0  0  0  0
   43.3420   69.9460   62.9350 H   0  0  0  0  0  0  0  0  0  0  0  0
   42.9410   70.0690   60.7960 C   0  0  0  0  0  3  0  0  0  0  0  0
   41.8130   69.4720   60.0680 C   0  0  0  0  0  2  0  0  0  0  0  0
   42.4300   68.3760   59.2110 C   0  0  0  0  0  2  0  0  0  0  0  0
   43.9240   68.4730   59.3970 C   0  0  0  0  0  2  0  0  0  0  0  0
   44.1310   69.1250   60.7260 C   0  0  0  0  0  2  0  0  0  0  0  0
  1  6  1  0  0  0  0
  2  1  2  0  0  0  0
  2  3  1  0  0  0  0
  3  4  2  0  0  0  0
  4  5  1  0  0  0  0
  5 20  1  0  0  0  0
  6  5  2  0  0  0  0
  7  2  1  0  0  0  0
  8  3  1  0  0  0  0
  9 14  1  0  0  0  0
 10  9  2  0  0  0  0
 10 11  1  0  0  0  0
 11 12  2  0  0  0  0
 12 13  1  0  0  0  0
 13  1  1  0  0  0  0
 14 13  2  0  0  0  0
 15  9  1  0  0  0  0
 15 18  1  0  0  0  0
 16 10  1  0  0  0  0
 17 11  1  0  0  0  0
 19 15  1  0  0  0  0
 20 21  1  0  0  0  0
 20 23  1  1  0  0  0
 21 24  1  0  0  0  0
 22 20  1  0  0  0  0
 22 21  1  0  0  0  0
 22 26  1  1  0  0  0
 25 21  1  0  0  0  0
 27 22  1  0  0  0  0
 28 27  1  0  0  0  0
 29 30  1  0  0  0  0
 29 28  1  0  0  0  0
 30 31  1  0  0  0  0
 31 27  1  0  0  0  0
M  END
>  <minimizedAffinity>
-5.41834879

$$$$

 OpenBabel03212520523D

 31 34  0  0  1  0  0  0  0  0999 V2000
   38.8800   76.1720   57.7450 C   0  0  0  0  0  0  0  0  0  0  0  0
   39.2010   77.2910   58.4830 C   0  0  0  0  0  0  0  0  0  0  0  0
   39.9200   77.1860   59.6780 C   0  0  0  0  0  0  0  0  0  0  0  0
   40.3110   75.9740   60.1250 N   0  0  0  0  0  0  0  0  0  0  0  0
   39.9820   74.9060   59.3850 C   0  0  0  0  0  0  0  0  0  0  0  0
   39.2850   74.9610   58.2180 N   0  0  0  0  0  0  0  0  0  0  0  0
   38.8620   78.2210   58.0720 H   0  0  0  0  0  0  0  0  0  0  0  0
   40.1030   78.1270   60.1490 H   0  0  0  0  0  0  0  0  0  0  0  0
   37.6280   75.4590   54.3860 C   0  0  0  0  0  0  0  0  0  0  0  0
   36.6800   76.4830   54.2100 C   0  0  0  0  0  0  0  0  0  0  0  0
   36.4690   77.4130   55.2370 C   0  0  0  0  0  0  0  0  0  0  0  0
   37.2230   77.2430   56.3530 N   0  0  0  0  0  0  0  0  0  0  0  0
   38.1260   76.2560   56.5010 C   0  0  0  0  0  0  0  0  0  0  0  0
   38.3280   75.3760   55.5330 N   0  0  0  0  0  0  0  0  0  0  0  0
   37.7280   74.6010   53.2670 N   0  0  0  0  0  0  0  0  0  0  0  0
   36.0880   76.6120   53.3270 H   0  0  0  0  0  0  0  0  0  0  0  0
   35.7480   78.2080   55.1320 H   0  0  0  0  0  0  0  0  0  0  0  0
   37.1080   73.7620   53.4630 H   0  0  0  0  0  0  0  0  0  0  0  0
   38.2530   74.6430   52.3730 H   0  0  0  0  0  0  0  0  0  0  0  0
   40.4250   73.5950   59.9510 C   0  0  1  0  0  0  0  0  0  0  0  0
   40.4670   72.3870   59.1560 C   0  0  0  0  0  0  0  0  0  0  0  0
   41.7370   73.0840   59.3540 C   0  0  1  0  0  0  0  0  0  0  0  0
   40.3830   73.5080   61.0800 H   0  0  0  0  0  0  0  0  0  0  0  0
   40.2680   71.4160   59.6620 H   0  0  0  0  0  0  0  0  0  0  0  0
   40.0160   72.4160   58.1420 H   0  0  0  0  0  0  0  0  0  0  0  0
   42.4290   72.5490   60.0860 H   0  0  0  0  0  0  0  0  0  0  0  0
   42.4920   73.8750   58.3580 C   0  0  0  0  0  3  0  0  0  0  0  0
   42.6940   73.3140   57.0160 C   0  0  0  0  0  2  0  0  0  0  0  0
   44.0790   73.7840   56.5940 C   0  0  0  0  0  2  0  0  0  0  0  0
   44.5700   74.7090   57.6800 C   0  0  0  0  0  2  0  0  0  0  0  0
   43.8360   74.3120   58.9210 C   0  0  0  0  0  2  0  0  0  0  0  0
  1  6  2  0  0  0  0
  1  2  1  0  0  0  0
  2  3  2  0  0  0  0
  3  4  1  0  0  0  0
  3  8  1  0  0  0  0
  5 20  1  0  0  0  0
  5  4  2  0  0  0  0
  6  5  1  0  0  0  0
  7  2  1  0  0  0  0
  9 14  1  0  0  0  0
 10  9  2  0  0  0  0
 10 11  1  0  0  0  0
 11 12  2  0  0  0  0
 12 13  1  0  0  0  0
 13  1  1  0  0  0  0
 14 13  2  0  0  0  0
 15 18  1  0  0  0  0
 15  9  1  0  0  0  0
 16 10  1  0  0  0  0
 17 11  1  0  0  0  0
 19 15  1  0  0  0  0
 20 23  1  1  0  0  0
 21 22  1  0  0  0  0
 21 24  1  0  0  0  0
 21 20  1  0  0  0  0
 22 20  1  0  0  0  0
 22 26  1  1  0  0  0
 25 21  1  0  0  0  0
 27 31  1  0  0  0  0
 27 22  1  0  0  0  0
 28 27  1  0  0  0  0
 29 28  1  0  0  0  0
 29 30  1  0  0  0  0
 30 31  1  0  0  0  0
M  END
>  <minimizedAffinity>
-5.39890242

$$$$

 OpenBabel03212520523D

 31 34  0  0  1  0  0  0  0  0999 V2000
   41.7500   71.9760   59.1750 C   0  0  0  0  0  0  0  0  0  0  0  0
   42.7830   72.7520   58.6920 C   0  0  0  0  0  0  0  0  0  0  0  0
   42.8690   74.1130   59.0010 C   0  0  0  0  0  0  0  0  0  0  0  0
   41.9310   74.6870   59.7830 N   0  0  0  0  0  0  0  0  0  0  0  0
   40.9400   73.9060   60.2360 C   0  0  0  0  0  0  0  0  0  0  0  0
   40.8170   72.5790   59.9610 N   0  0  0  0  0  0  0  0  0  0  0  0
   43.4930   72.2340   58.0780 H   0  0  0  0  0  0  0  0  0  0  0  0
   43.7170   74.5960   58.5650 H   0  0  0  0  0  0  0  0  0  0  0  0
   41.3120   68.8500   57.3330 C   0  0  0  0  0  0  0  0  0  0  0  0
   41.4360   67.8940   58.3570 C   0  0  0  0  0  0  0  0  0  0  0  0
   41.6690   68.3170   59.6730 C   0  0  0  0  0  0  0  0  0  0  0  0
   41.7580   69.6600   59.8550 N   0  0  0  0  0  0  0  0  0  0  0  0
   41.6370   70.5580   58.8610 C   0  0  0  0  0  0  0  0  0  0  0  0
   41.4170   70.1620   57.6170 N   0  0  0  0  0  0  0  0  0  0  0  0
   41.0810   68.2720   56.0640 N   0  0  0  0  0  0  0  0  0  0  0  0
   41.3640   66.8360   58.2080 H   0  0  0  0  0  0  0  0  0  0  0  0
   41.7680   67.6080   60.4800 H   0  0  0  0  0  0  0  0  0  0  0  0
   42.0240   68.1950   55.5810 H   0  0  0  0  0  0  0  0  0  0  0  0
   40.2310   67.9420   55.5680 H   0  0  0  0  0  0  0  0  0  0  0  0
   39.9250   74.6120   61.0760 C   0  0  1  0  0  0  0  0  0  0  0  0
   39.7790   76.0520   61.0620 C   0  0  0  0  0  0  0  0  0  0  0  0
   38.8220   75.2890   60.2610 C   0  0  1  0  0  0  0  0  0  0  0  0
   39.5310   74.0290   61.9640 H   0  0  0  0  0  0  0  0  0  0  0  0
   39.4570   76.5580   61.9990 H   0  0  0  0  0  0  0  0  0  0  0  0
   40.5450   76.6470   60.5210 H   0  0  0  0  0  0  0  0  0  0  0  0
   37.7810   75.2530   60.7260 H   0  0  0  0  0  0  0  0  0  0  0  0
   38.7730   75.1770   58.7870 C   0  0  0  0  0  3  0  0  0  0  0  0
   38.6070   76.4010   57.9900 C   0  0  0  0  0  2  0  0  0  0  0  0
   37.7470   75.9880   56.8040 C   0  0  0  0  0  2  0  0  0  0  0  0
   37.5540   74.4960   56.9100 C   0  0  0  0  0  2  0  0  0  0  0  0
   37.7270   74.1600   58.3560 C   0  0  0  0  0  2  0  0  0  0  0  0
  1  6  1  0  0  0  0
  2  3  1  0  0  0  0
  2  1  2  0  0  0  0
  3  4  2  0  0  0  0
  4  5  1  0  0  0  0
  5 20  1  0  0  0  0
  6  5  2  0  0  0  0
  7  2  1  0  0  0  0
  8  3  1  0  0  0  0
  9 14  2  0  0  0  0
  9 10  1  0  0  0  0
 10 11  2  0  0  0  0
 11 12  1  0  0  0  0
 11 17  1  0  0  0  0
 13  1  1  0  0  0  0
 13 12  2  0  0  0  0
 14 13  1  0  0  0  0
 15  9  1  0  0  0  0
 16 10  1  0  0  0  0
 18 15  1  0  0  0  0
 19 15  1  0  0  0  0
 20 23  1  1  0  0  0
 21 20  1  0  0  0  0
 21 24  1  0  0  0  0
 22 26  1  1  0  0  0
 22 21  1  0  0  0  0
 22 20  1  0  0  0  0
 25 21  1  0  0  0  0
 27 22  1  0  0  0  0
 28 27  1  0  0  0  0
 29 30  1  0  0  0  0
 29 28  1  0  0  0  0
 30 31  1  0  0  0  0
 31 27  1  0  0  0  0
M  END
>  <minimizedAffinity>
-5.39526272

$$$$

 OpenBabel03212520523D

 31 34  0  0  1  0  0  0  0  0999 V2000
   38.8740   74.6290   55.4820 C   0  0  0  0  0  0  0  0  0  0  0  0
   37.5770   75.0960   55.5220 C   0  0  0  0  0  0  0  0  0  0  0  0
   37.2250   76.1850   56.3250 C   0  0  0  0  0  0  0  0  0  0  0  0
   38.1630   76.7980   57.0780 N   0  0  0  0  0  0  0  0  0  0  0  0
   39.4140   76.3210   57.0170 C   0  0  0  0  0  0  0  0  0  0  0  0
   39.8010   75.2650   56.2510 N   0  0  0  0  0  0  0  0  0  0  0  0
   36.8830   74.5650   54.9010 H   0  0  0  0  0  0  0  0  0  0  0  0
   36.1910   76.4440   56.2620 H   0  0  0  0  0  0  0  0  0  0  0  0
   39.8630   71.2680   54.4450 C   0  0  0  0  0  0  0  0  0  0  0  0
   39.9820   71.4200   53.0520 C   0  0  0  0  0  0  0  0  0  0  0  0
   39.7230   72.6690   52.4700 C   0  0  0  0  0  0  0  0  0  0  0  0
   39.3690   73.6590   53.3270 N   0  0  0  0  0  0  0  0  0  0  0  0
   39.2620   73.4920   54.6580 C   0  0  0  0  0  0  0  0  0  0  0  0
   39.5050   72.3150   55.2120 N   0  0  0  0  0  0  0  0  0  0  0  0
   40.1540   69.9560   54.8840 N   0  0  0  0  0  0  0  0  0  0  0  0
   40.2620   70.6350   52.3800 H   0  0  0  0  0  0  0  0  0  0  0  0
   39.8050   72.8170   51.4040 H   0  0  0  0  0  0  0  0  0  0  0  0
   39.2280   69.4440   54.9680 H   0  0  0  0  0  0  0  0  0  0  0  0
   41.0320   69.4530   55.1160 H   0  0  0  0  0  0  0  0  0  0  0  0
   40.3950   77.0310   57.8930 C   0  0  1  0  0  0  0  0  0  0  0  0
   40.0090   77.6350   59.1510 C   0  0  0  0  0  0  0  0  0  0  0  0
   40.6500   76.3220   59.2250 C   0  0  1  0  0  0  0  0  0  0  0  0
   41.3450   77.3820   57.3840 H   0  0  0  0  0  0  0  0  0  0  0  0
   40.5500   78.5490   59.4830 H   0  0  0  0  0  0  0  0  0  0  0  0
   38.9260   77.6940   59.3880 H   0  0  0  0  0  0  0  0  0  0  0  0
   41.7240   76.3720   59.6050 H   0  0  0  0  0  0  0  0  0  0  0  0
   40.0090   75.0280   59.5450 C   0  0  0  0  0  3  0  0  0  0  0  0
   38.9470   74.9970   60.5590 C   0  0  0  0  0  2  0  0  0  0  0  0
   39.1250   73.6680   61.2790 C   0  0  0  0  0  2  0  0  0  0  0  0
   40.2230   72.9290   60.5550 C   0  0  0  0  0  2  0  0  0  0  0  0
   41.0540   73.9790   59.8890 C   0  0  0  0  0  2  0  0  0  0  0  0
  1  2  2  0  0  0  0
  1  6  1  0  0  0  0
  2  3  1  0  0  0  0
  3  4  2  0  0  0  0
  5  4  1  0  0  0  0
  5 20  1  0  0  0  0
  6  5  2  0  0  0  0
  7  2  1  0  0  0  0
  8  3  1  0  0  0  0
  9 15  1  0  0  0  0
  9 14  1  0  0  0  0
 10  9  2  0  0  0  0
 11 10  1  0  0  0  0
 11 12  2  0  0  0  0
 12 13  1  0  0  0  0
 13 14  2  0  0  0  0
 13  1  1  0  0  0  0
 15 18  1  0  0  0  0
 15 19  1  0  0  0  0
 16 10  1  0  0  0  0
 17 11  1  0  0  0  0
 20 23  1  6  0  0  0
 20 21  1  0  0  0  0
 20 22  1  0  0  0  0
 21 22  1  0  0  0  0
 21 25  1  0  0  0  0
 21 24  1  0  0  0  0
 22 27  1  0  0  0  0
 22 26  1  1  0  0  0
 27 31  1  0  0  0  0
 27 28  1  0  0  0  0
 28 29  1  0  0  0  0
 30 29  1  0  0  0  0
 31 30  1  0  0  0  0
M  END
>  <minimizedAffinity>
-5.37654018

$$$$

 OpenBabel03212520523D

 31 34  0  0  1  0  0  0  0  0999 V2000
   41.4530   72.0710   59.7500 C   0  0  0  0  0  0  0  0  0  0  0  0
   42.5470   71.9680   58.9180 C   0  0  0  0  0  0  0  0  0  0  0  0
   43.7100   71.3100   59.3290 C   0  0  0  0  0  0  0  0  0  0  0  0
   43.7730   70.7620   60.5620 N   0  0  0  0  0  0  0  0  0  0  0  0
   42.6940   70.8790   61.3480 C   0  0  0  0  0  0  0  0  0  0  0  0
   41.5430   71.5100   60.9880 N   0  0  0  0  0  0  0  0  0  0  0  0
   42.4310   72.4240   57.9540 H   0  0  0  0  0  0  0  0  0  0  0  0
   44.4800   71.3010   58.5890 H   0  0  0  0  0  0  0  0  0  0  0  0
   38.4670   73.0320   57.8760 C   0  0  0  0  0  0  0  0  0  0  0  0
   37.9670   74.0900   58.6560 C   0  0  0  0  0  0  0  0  0  0  0  0
   38.6490   74.4720   59.8190 C   0  0  0  0  0  0  0  0  0  0  0  0
   39.7720   73.7670   60.1050 N   0  0  0  0  0  0  0  0  0  0  0  0
   40.2340   72.7580   59.3450 C   0  0  0  0  0  0  0  0  0  0  0  0
   39.5930   72.3930   58.2460 N   0  0  0  0  0  0  0  0  0  0  0  0
   37.6740   72.7620   56.7370 N   0  0  0  0  0  0  0  0  0  0  0  0
   37.0800   74.6430   58.4250 H   0  0  0  0  0  0  0  0  0  0  0  0
   38.2900   75.2800   60.4380 H   0  0  0  0  0  0  0  0  0  0  0  0
   37.0150   71.9710   56.9970 H   0  0  0  0  0  0  0  0  0  0  0  0
   37.6270   73.1640   55.7810 H   0  0  0  0  0  0  0  0  0  0  0  0
   42.8420   70.2710   62.7050 C   0  0  1  0  0  0  0  0  0  0  0  0
   41.7160   69.7230   63.4310 C   0  0  0  0  0  0  0  0  0  0  0  0
   42.5730   68.7660   62.7320 C   0  0  1  0  0  0  0  0  0  0  0  0
   43.7720   70.5700   63.2780 H   0  0  0  0  0  0  0  0  0  0  0  0
   41.7250   69.7870   64.5410 H   0  0  0  0  0  0  0  0  0  0  0  0
   40.6990   69.8990   63.0220 H   0  0  0  0  0  0  0  0  0  0  0  0
   43.2370   68.1650   63.4380 H   0  0  0  0  0  0  0  0  0  0  0  0
   42.2580   68.0150   61.4970 C   0  0  0  0  0  3  0  0  0  0  0  0
   41.0070   67.2480   61.4350 C   0  0  0  0  0  2  0  0  0  0  0  0
   41.3410   66.0100   60.6150 C   0  0  0  0  0  2  0  0  0  0  0  0
   42.7590   66.1820   60.1330 C   0  0  0  0  0  2  0  0  0  0  0  0
   43.4150   67.1080   61.1070 C   0  0  0  0  0  2  0  0  0  0  0  0
  1  6  1  0  0  0  0
  2  3  1  0  0  0  0
  2  1  2  0  0  0  0
  3  4  2  0  0  0  0
  4  5  1  0  0  0  0
  5 20  1  0  0  0  0
  6  5  2  0  0  0  0
  7  2  1  0  0  0  0
  8  3  1  0  0  0  0
  9 14  2  0  0  0  0
  9 10  1  0  0  0  0
 10 11  2  0  0  0  0
 11 12  1  0  0  0  0
 11 17  1  0  0  0  0
 13  1  1  0  0  0  0
 13 12  2  0  0  0  0
 14 13  1  0  0  0  0
 15 18  1  0  0  0  0
 15  9  1  0  0  0  0
 16 10  1  0  0  0  0
 19 15  1  0  0  0  0
 20 22  1  0  0  0  0
 20 23  1  1  0  0  0
 20 21  1  0  0  0  0
 21 24  1  0  0  0  0
 22 21  1  0  0  0  0
 22 26  1  1  0  0  0
 25 21  1  0  0  0  0
 27 22  1  0  0  0  0
 28 27  1  0  0  0  0
 29 28  1  0  0  0  0
 30 29  1  0  0  0  0
 30 31  1  0  0  0  0
 31 27  1  0  0  0  0
M  END
>  <minimizedAffinity>
-5.33843517

$$$$
