
 OpenBabel03212521073D

 32 35  0  0  0  0  0  0  0  0999 V2000
   41.8010   84.2500   61.5660 C   0  0  0  0  0  0  0  0  0  0  0  0
   41.4480   83.9630   62.8740 C   0  0  0  0  0  0  0  0  0  0  0  0
   40.1740   83.5450   63.2120 C   0  0  0  0  0  0  0  0  0  0  0  0
   39.2160   83.4090   62.2090 C   0  0  0  0  0  0  0  0  0  0  0  0
   39.5630   83.6970   60.8880 C   0  0  0  0  0  0  0  0  0  0  0  0
   40.8350   84.1100   60.5720 C   0  0  0  0  0  0  0  0  0  0  0  0
   42.2140   84.0780   63.6360 H   0  0  0  0  0  0  0  0  0  0  0  0
   39.9350   83.3310   64.2420 H   0  0  0  0  0  0  0  0  0  0  0  0
   38.2130   83.0880   62.4220 H   0  0  0  0  0  0  0  0  0  0  0  0
   38.7870   83.5780   60.1360 H   0  0  0  0  0  0  0  0  0  0  0  0
   45.3190   84.1360   60.5980 C   0  0  0  0  0  0  0  0  0  0  0  0
   45.7150   85.4680   60.6930 C   0  0  0  0  0  0  0  0  0  0  0  0
   44.7520   86.4260   61.0990 C   0  0  0  0  0  0  0  0  0  0  0  0
   43.5050   85.9800   61.3690 N   0  0  0  0  0  0  0  0  0  0  0  0
   43.1440   84.6820   61.2700 C   0  0  0  0  0  0  0  0  0  0  0  0
   44.0570   83.7810   60.8860 N   0  0  0  0  0  0  0  0  0  0  0  0
   46.0210   83.3600   60.2910 H   0  0  0  0  0  0  0  0  0  0  0  0
   46.7290   85.7360   60.4610 H   0  0  0  0  0  0  0  0  0  0  0  0
   45.0400   87.4630   61.1800 H   0  0  0  0  0  0  0  0  0  0  0  0
   41.1560   84.4000   59.1820 C   0  0  0  0  0  0  0  0  0  0  0  0
   40.7800   85.7000   58.8240 C   0  0  0  0  0  0  0  0  0  0  0  0
   41.0010   86.1730   57.5340 C   0  0  0  0  0  0  0  0  0  0  0  0
   41.5820   85.3320   56.6720 N   0  0  0  0  0  0  0  0  0  0  0  0
   41.9470   84.0690   57.0210 C   0  0  0  0  0  0  0  0  0  0  0  0
   41.7330   83.6050   58.2750 N   0  0  0  0  0  0  0  0  0  0  0  0
   40.3020   86.4260   59.4930 H   0  0  0  0  0  0  0  0  0  0  0  0
   40.7190   87.1720   57.2390 H   0  0  0  0  0  0  0  0  0  0  0  0
   42.5880   83.1530   56.0540 C   0  0  0  0  0  3  0  0  0  0  0  0
   43.6820   82.3790   56.7660 C   0  0  0  0  0  2  0  0  0  0  0  0
   43.9670   81.1920   55.9160 C   0  0  0  0  0  2  0  0  0  0  0  0
   42.6270   80.8430   55.3360 C   0  0  0  0  0  2  0  0  0  0  0  0
   41.6940   82.0200   55.6080 C   0  0  0  0  0  2  0  0  0  0  0  0
  1  2  1  0  0  0  0
  2  3  2  0  0  0  0
  2  7  1  0  0  0  0
  3  8  1  0  0  0  0
  4  9  1  0  0  0  0
  4  3  1  0  0  0  0
  5  4  2  0  0  0  0
  6  5  1  0  0  0  0
  6  1  2  0  0  0  0
 10  5  1  0  0  0  0
 11 12  2  0  0  0  0
 11 16  1  0  0  0  0
 12 13  1  0  0  0  0
 13 19  1  0  0  0  0
 13 14  2  0  0  0  0
 15 14  1  0  0  0  0
 15  1  1  0  0  0  0
 16 15  2  0  0  0  0
 17 11  1  0  0  0  0
 18 12  1  0  0  0  0
 20  6  1  0  0  0  0
 21 20  1  0  0  0  0
 21 26  1  0  0  0  0
 22 21  2  0  0  0  0
 23 24  2  0  0  0  0
 23 22  1  0  0  0  0
 24 25  1  0  0  0  0
 25 20  2  0  0  0  0
 27 22  1  0  0  0  0
 28 29  1  0  0  0  0
 28 24  1  0  0  0  0
 30 29  1  0  0  0  0
 31 32  1  0  0  0  0
 31 30  1  0  0  0  0
 32 28  1  0  0  0  0
M  END
>  <minimizedAffinity>
-5.39974594

>  <minimizedRMSD>
0.334315896

$$$$
