
 OpenBabel03212520593D

 38 42  0  0  1  0  0  0  0  0999 V2000
   39.9100   77.5160   59.2490 C   0  0  0  0  0  0  0  0  0  0  0  0
   40.6840   76.4400   58.9240 C   0  0  0  0  0  0  0  0  0  0  0  0
   40.1530   75.7250   57.8340 C   0  0  0  0  0  0  0  0  0  0  0  0
   39.0210   76.0540   57.1840 N   0  0  0  0  0  0  0  0  0  0  0  0
   38.3270   77.1540   57.5990 C   0  0  0  0  0  0  0  0  0  0  0  0
   38.7790   77.8900   58.6420 N   0  0  0  0  0  0  0  0  0  0  0  0
   41.5880   76.1390   59.4070 H   0  0  0  0  0  0  0  0  0  0  0  0
   40.6640   74.8370   57.4580 H   0  0  0  0  0  0  0  0  0  0  0  0
   41.0130   80.4610   61.8450 C   0  0  0  0  0  0  0  0  0  0  0  0
   41.0080   79.2220   62.4470 C   0  0  0  0  0  0  0  0  0  0  0  0
   40.6570   78.1680   61.6770 C   0  0  0  0  0  0  0  0  0  0  0  0
   40.3250   78.3590   60.3530 C   0  0  0  0  0  0  0  0  0  0  0  0
   40.5110   80.1760   60.1290 S   0  0  0  0  0  0  0  0  0  0  0  0
   41.2700   79.0730   63.4900 H   0  0  0  0  0  0  0  0  0  0  0  0
   40.5910   77.1240   61.9560 H   0  0  0  0  0  0  0  0  0  0  0  0
   43.0020   83.3070   63.0390 C   0  0  0  0  0  0  0  0  0  0  0  0
   42.0720   84.0300   63.8330 C   0  0  0  0  0  0  0  0  0  0  0  0
   40.7640   83.5370   63.9520 C   0  0  0  0  0  0  0  0  0  0  0  0
   40.4540   82.3970   63.3040 N   0  0  0  0  0  0  0  0  0  0  0  0
   41.3690   81.7240   62.5480 C   0  0  0  0  0  0  0  0  0  0  0  0
   42.6090   82.1840   62.4290 N   0  0  0  0  0  0  0  0  0  0  0  0
   44.0160   83.6660   62.9310 H   0  0  0  0  0  0  0  0  0  0  0  0
   42.3540   84.9330   64.3350 H   0  0  0  0  0  0  0  0  0  0  0  0
   40.0110   84.0300   64.5350 H   0  0  0  0  0  0  0  0  0  0  0  0
   37.1160   77.4940   56.8810 C   0  0  0  0  0  0  0  0  0  0  0  0
   36.0540   76.9910   57.2800 O   0  0  0  0  0  0  0  0  0  0  0  0
   37.1120   78.4130   55.6850 C   0  0  1  0  0  0  0  0  0  0  0  0
   37.2760   79.8660   56.0550 C   0  0  0  0  0  0  0  0  0  0  0  0
   38.3190   79.1370   55.3320 C   0  0  2  0  0  0  0  0  0  0  0  0
   36.1390   78.3450   55.1060 H   0  0  0  0  0  0  0  0  0  0  0  0
   36.7040   80.6630   55.5660 H   0  0  0  0  0  0  0  0  0  0  0  0
   37.5430   80.1230   57.1180 H   0  0  0  0  0  0  0  0  0  0  0  0
   39.2600   78.7720   55.8220 H   0  0  0  0  0  0  0  0  0  0  0  0
   38.5900   79.6070   53.9210 C   0  0  0  0  0  3  0  0  0  0  0  0
   39.2790   78.5560   53.0910 C   0  0  0  0  0  2  0  0  0  0  0  0
   39.2120   79.2020   51.7050 C   0  0  0  0  0  2  0  0  0  0  0  0
   37.8980   79.9560   51.7040 C   0  0  0  0  0  2  0  0  0  0  0  0
   37.3590   79.8850   53.1220 C   0  0  0  0  0  2  0  0  0  0  0  0
  1 12  1  0  0  0  0
  2  1  1  0  0  0  0
  2  7  1  0  0  0  0
  3  2  2  0  0  0  0
  4  5  2  0  0  0  0
  4  3  1  0  0  0  0
  5  6  1  0  0  0  0
  6  1  2  0  0  0  0
  8  3  1  0  0  0  0
  9 10  2  0  0  0  0
  9 20  1  0  0  0  0
 10 14  1  0  0  0  0
 11 15  1  0  0  0  0
 11 10  1  0  0  0  0
 12 11  2  0  0  0  0
 13 12  1  0  0  0  0
 13  9  1  0  0  0  0
 16 17  1  0  0  0  0
 17 18  2  0  0  0  0
 17 23  1  0  0  0  0
 18 24  1  0  0  0  0
 19 18  1  0  0  0  0
 20 19  2  0  0  0  0
 21 20  1  0  0  0  0
 21 16  2  0  0  0  0
 22 16  1  0  0  0  0
 25 26  2  0  0  0  0
 25  5  1  0  0  0  0
 27 30  1  6  0  0  0
 27 28  1  0  0  0  0
 27 25  1  0  0  0  0
 28 32  1  0  0  0  0
 29 27  1  0  0  0  0
 29 33  1  1  0  0  0
 29 28  1  0  0  0  0
 31 28  1  0  0  0  0
 34 29  1  0  0  0  0
 35 34  1  0  0  0  0
 36 35  1  0  0  0  0
 37 36  1  0  0  0  0
 37 38  1  0  0  0  0
 38 34  1  0  0  0  0
M  END
>  <minimizedAffinity>
-6.38111162

>  <minimizedRMSD>
0.631133437

$$$$
