
 OpenBabel03212520513D

 31 34  0  0  1  0  0  0  0  0999 V2000
   45.1760   83.4220   62.5040 C   0  0  0  0  0  0  0  0  0  0  0  0
   45.0610   84.4610   61.6050 C   0  0  0  0  0  0  0  0  0  0  0  0
   43.8830   85.2080   61.5130 C   0  0  0  0  0  0  0  0  0  0  0  0
   42.8340   84.9150   62.3110 N   0  0  0  0  0  0  0  0  0  0  0  0
   42.9770   83.8990   63.1730 C   0  0  0  0  0  0  0  0  0  0  0  0
   44.1040   83.1460   63.2970 N   0  0  0  0  0  0  0  0  0  0  0  0
   45.9290   84.6410   61.0030 H   0  0  0  0  0  0  0  0  0  0  0  0
   43.9260   85.9840   60.7790 H   0  0  0  0  0  0  0  0  0  0  0  0
   47.7590   81.1860   63.8020 C   0  0  0  0  0  0  0  0  0  0  0  0
   48.6820   81.1670   62.7410 C   0  0  0  0  0  0  0  0  0  0  0  0
   48.4210   81.9170   61.5850 C   0  0  0  0  0  0  0  0  0  0  0  0
   47.2610   82.6210   61.5870 N   0  0  0  0  0  0  0  0  0  0  0  0
   46.3920   82.6260   62.6130 C   0  0  0  0  0  0  0  0  0  0  0  0
   46.6340   81.9190   63.7060 N   0  0  0  0  0  0  0  0  0  0  0  0
   48.1580   80.3830   64.8950 N   0  0  0  0  0  0  0  0  0  0  0  0
   49.5960   80.6100   62.7450 H   0  0  0  0  0  0  0  0  0  0  0  0
   49.1100   81.9220   60.7550 H   0  0  0  0  0  0  0  0  0  0  0  0
   47.6780   79.4430   64.7820 H   0  0  0  0  0  0  0  0  0  0  0  0
   48.7790   80.5380   65.7120 H   0  0  0  0  0  0  0  0  0  0  0  0
   41.7710   83.6150   64.0080 C   0  0  1  0  0  0  0  0  0  0  0  0
   40.4470   84.0590   63.6250 C   0  0  0  0  0  0  0  0  0  0  0  0
   40.7770   82.6630   63.3410 C   0  0  1  0  0  0  0  0  0  0  0  0
   41.9730   83.3620   65.0930 H   0  0  0  0  0  0  0  0  0  0  0  0
   39.7260   84.3170   64.4310 H   0  0  0  0  0  0  0  0  0  0  0  0
   40.3610   84.7540   62.7640 H   0  0  0  0  0  0  0  0  0  0  0  0
   40.2580   81.9300   64.0440 H   0  0  0  0  0  0  0  0  0  0  0  0
   41.0550   82.0580   62.0200 C   0  0  0  0  0  3  0  0  0  0  0  0
   40.2510   82.4800   60.8650 C   0  0  0  0  0  2  0  0  0  0  0  0
   40.0920   81.2280   60.0140 C   0  0  0  0  0  2  0  0  0  0  0  0
   40.9260   80.1540   60.6660 C   0  0  0  0  0  2  0  0  0  0  0  0
   41.0400   80.5390   62.1070 C   0  0  0  0  0  2  0  0  0  0  0  0
  1 13  1  0  0  0  0
  1  6  1  0  0  0  0
  2  1  2  0  0  0  0
  3  2  1  0  0  0  0
  3  4  2  0  0  0  0
  4  5  1  0  0  0  0
  5  6  2  0  0  0  0
  5 20  1  0  0  0  0
  7  2  1  0  0  0  0
  8  3  1  0  0  0  0
  9 15  1  0  0  0  0
 10 16  1  0  0  0  0
 10  9  2  0  0  0  0
 11 12  2  0  0  0  0
 11 10  1  0  0  0  0
 12 13  1  0  0  0  0
 13 14  2  0  0  0  0
 14  9  1  0  0  0  0
 15 19  1  0  0  0  0
 17 11  1  0  0  0  0
 18 15  1  0  0  0  0
 20 23  1  1  0  0  0
 21 20  1  0  0  0  0
 21 24  1  0  0  0  0
 22 21  1  0  0  0  0
 22 20  1  0  0  0  0
 22 26  1  1  0  0  0
 25 21  1  0  0  0  0
 27 31  1  0  0  0  0
 27 22  1  0  0  0  0
 28 27  1  0  0  0  0
 29 30  1  0  0  0  0
 29 28  1  0  0  0  0
 30 31  1  0  0  0  0
M  END
>  <minimizedAffinity>
-5.5224762

>  <minimizedRMSD>
5.27569628

$$$$
