
 OpenBabel03212521073D

 32 35  0  0  0  0  0  0  0  0999 V2000
   41.7910   84.1820   61.5690 C   0  0  0  0  0  0  0  0  0  0  0  0
   41.4260   83.9110   62.8770 C   0  0  0  0  0  0  0  0  0  0  0  0
   40.1340   83.5540   63.2160 C   0  0  0  0  0  0  0  0  0  0  0  0
   39.1700   83.4640   62.2150 C   0  0  0  0  0  0  0  0  0  0  0  0
   39.5280   83.7350   60.8930 C   0  0  0  0  0  0  0  0  0  0  0  0
   40.8180   84.0880   60.5760 C   0  0  0  0  0  0  0  0  0  0  0  0
   42.1970   83.9890   63.6380 H   0  0  0  0  0  0  0  0  0  0  0  0
   39.8860   83.3510   64.2470 H   0  0  0  0  0  0  0  0  0  0  0  0
   38.1520   83.1900   62.4290 H   0  0  0  0  0  0  0  0  0  0  0  0
   38.7460   83.6540   60.1430 H   0  0  0  0  0  0  0  0  0  0  0  0
   45.2950   83.9040   60.5840 C   0  0  0  0  0  0  0  0  0  0  0  0
   45.7570   85.2130   60.6910 C   0  0  0  0  0  0  0  0  0  0  0  0
   44.8440   86.2140   61.1120 C   0  0  0  0  0  0  0  0  0  0  0  0
   43.5780   85.8270   61.3830 N   0  0  0  0  0  0  0  0  0  0  0  0
   43.1520   84.5490   61.2710 C   0  0  0  0  0  0  0  0  0  0  0  0
   44.0180   83.6080   60.8740 N   0  0  0  0  0  0  0  0  0  0  0  0
   45.9560   83.0970   60.2660 H   0  0  0  0  0  0  0  0  0  0  0  0
   46.7810   85.4330   60.4570 H   0  0  0  0  0  0  0  0  0  0  0  0
   45.1840   87.2340   61.2020 H   0  0  0  0  0  0  0  0  0  0  0  0
   41.1500   84.3630   59.1860 C   0  0  0  0  0  0  0  0  0  0  0  0
   40.8500   85.6850   58.8330 C   0  0  0  0  0  0  0  0  0  0  0  0
   41.0940   86.1480   57.5430 C   0  0  0  0  0  0  0  0  0  0  0  0
   41.6220   85.2770   56.6770 N   0  0  0  0  0  0  0  0  0  0  0  0
   41.9130   83.9940   57.0210 C   0  0  0  0  0  0  0  0  0  0  0  0
   41.6770   83.5390   58.2740 N   0  0  0  0  0  0  0  0  0  0  0  0
   40.4180   86.4350   59.5060 H   0  0  0  0  0  0  0  0  0  0  0  0
   40.8700   87.1630   57.2530 H   0  0  0  0  0  0  0  0  0  0  0  0
   42.4960   83.0450   56.0490 C   0  0  0  0  0  3  0  0  0  0  0  0
   43.6500   82.3150   56.7100 C   0  0  0  0  0  2  0  0  0  0  0  0
   43.8910   81.0960   55.8930 C   0  0  0  0  0  2  0  0  0  0  0  0
   42.5170   80.7060   55.4290 C   0  0  0  0  0  2  0  0  0  0  0  0
   41.5900   81.8830   55.7190 C   0  0  0  0  0  2  0  0  0  0  0  0
  1  2  1  0  0  0  0
  2  3  2  0  0  0  0
  2  7  1  0  0  0  0
  3  8  1  0  0  0  0
  4  9  1  0  0  0  0
  4  3  1  0  0  0  0
  5  4  2  0  0  0  0
  6  5  1  0  0  0  0
  6  1  2  0  0  0  0
 10  5  1  0  0  0  0
 11 12  2  0  0  0  0
 11 16  1  0  0  0  0
 12 13  1  0  0  0  0
 13 19  1  0  0  0  0
 13 14  2  0  0  0  0
 15 14  1  0  0  0  0
 15  1  1  0  0  0  0
 16 15  2  0  0  0  0
 17 11  1  0  0  0  0
 18 12  1  0  0  0  0
 20  6  1  0  0  0  0
 21 20  1  0  0  0  0
 21 26  1  0  0  0  0
 22 21  2  0  0  0  0
 23 24  2  0  0  0  0
 23 22  1  0  0  0  0
 24 25  1  0  0  0  0
 25 20  2  0  0  0  0
 27 22  1  0  0  0  0
 28 29  1  0  0  0  0
 28 24  1  0  0  0  0
 30 29  1  0  0  0  0
 31 32  1  0  0  0  0
 31 30  1  0  0  0  0
 32 28  1  0  0  0  0
M  END
>  <minimizedAffinity>
-5.3862772

>  <minimizedRMSD>
0.45055446

$$$$
