
 OpenBabel03212520443D

 14 15  0  0  0  0  0  0  0  0999 V2000
   39.9240   81.9640   60.8540 C   0  0  0  0  0  0  0  0  0  0  0  0
   40.1150   82.7600   59.7050 C   0  0  0  0  0  0  0  0  0  0  0  0
   39.6420   84.0710   59.7420 C   0  0  0  0  0  0  0  0  0  0  0  0
   39.0240   84.5100   60.8750 N   0  0  0  0  0  0  0  0  0  0  0  0
   38.8580   83.7200   61.9580 C   0  0  0  0  0  0  0  0  0  0  0  0
   39.3120   82.4460   61.9370 N   0  0  0  0  0  0  0  0  0  0  0  0
   40.6200   82.3320   58.8370 H   0  0  0  0  0  0  0  0  0  0  0  0
   39.7700   84.6970   58.8930 H   0  0  0  0  0  0  0  0  0  0  0  0
   38.3560   84.1640   62.8060 H   0  0  0  0  0  0  0  0  0  0  0  0
   40.4010   80.5700   60.8800 C   0  0  0  0  0  3  0  0  0  0  0  0
   41.4520   80.2710   59.8340 C   0  0  0  0  0  2  0  0  0  0  0  0
   41.8150   78.8420   60.2620 C   0  0  0  0  0  2  0  0  0  0  0  0
   41.6830   78.8320   61.7670 C   0  0  0  0  0  2  0  0  0  0  0  0
   41.1000   80.1800   62.1420 C   0  0  0  0  0  2  0  0  0  0  0  0
  1 10  1  0  0  0  0
  1  6  1  0  0  0  0
  2  3  1  0  0  0  0
  2  1  2  0  0  0  0
  3  4  2  0  0  0  0
  4  5  1  0  0  0  0
  5  9  1  0  0  0  0
  6  5  2  0  0  0  0
  7  2  1  0  0  0  0
  8  3  1  0  0  0  0
 10 14  1  0  0  0  0
 11 12  1  0  0  0  0
 11 10  1  0  0  0  0
 12 13  1  0  0  0  0
 13 14  1  0  0  0  0
M  END
>  <minimizedAffinity>
-4.18042564

>  <minimizedRMSD>
0.296739131

$$$$
