
 OpenBabel03212520593D

 38 42  0  0  1  0  0  0  0  0999 V2000
   39.7970   77.3770   59.1820 C   0  0  0  0  0  0  0  0  0  0  0  0
   40.5250   76.2640   58.8790 C   0  0  0  0  0  0  0  0  0  0  0  0
   39.9650   75.5530   57.8000 C   0  0  0  0  0  0  0  0  0  0  0  0
   38.8490   75.9190   57.1410 N   0  0  0  0  0  0  0  0  0  0  0  0
   38.2030   77.0550   57.5350 C   0  0  0  0  0  0  0  0  0  0  0  0
   38.6830   77.7890   58.5660 N   0  0  0  0  0  0  0  0  0  0  0  0
   41.4140   75.9330   59.3690 H   0  0  0  0  0  0  0  0  0  0  0  0
   40.4380   74.6380   57.4400 H   0  0  0  0  0  0  0  0  0  0  0  0
   40.9870   80.3240   61.7390 C   0  0  0  0  0  0  0  0  0  0  0  0
   40.9860   79.0870   62.3460 C   0  0  0  0  0  0  0  0  0  0  0  0
   40.6080   78.0330   61.5890 C   0  0  0  0  0  0  0  0  0  0  0  0
   40.2450   78.2210   60.2730 C   0  0  0  0  0  0  0  0  0  0  0  0
   40.4400   80.0360   60.0370 S   0  0  0  0  0  0  0  0  0  0  0  0
   41.2720   78.9400   63.3820 H   0  0  0  0  0  0  0  0  0  0  0  0
   40.5400   76.9910   61.8740 H   0  0  0  0  0  0  0  0  0  0  0  0
   43.0360   83.1400   62.9000 C   0  0  0  0  0  0  0  0  0  0  0  0
   42.1220   83.8910   63.6870 C   0  0  0  0  0  0  0  0  0  0  0  0
   40.8040   83.4270   63.8130 C   0  0  0  0  0  0  0  0  0  0  0  0
   40.4700   82.2870   63.1770 N   0  0  0  0  0  0  0  0  0  0  0  0
   41.3700   81.5860   62.4270 C   0  0  0  0  0  0  0  0  0  0  0  0
   42.6190   82.0190   62.3030 N   0  0  0  0  0  0  0  0  0  0  0  0
   44.0570   83.4770   62.7880 H   0  0  0  0  0  0  0  0  0  0  0  0
   42.4240   84.7930   64.1790 H   0  0  0  0  0  0  0  0  0  0  0  0
   40.0620   83.9420   64.3900 H   0  0  0  0  0  0  0  0  0  0  0  0
   37.0080   77.4340   56.8080 C   0  0  0  0  0  0  0  0  0  0  0  0
   35.9200   77.0220   57.2410 O   0  0  0  0  0  0  0  0  0  0  0  0
   37.0510   78.2870   55.5650 C   0  0  1  0  0  0  0  0  0  0  0  0
   37.3300   79.7400   55.8540 C   0  0  0  0  0  0  0  0  0  0  0  0
   38.3020   78.8970   55.1560 C   0  0  2  0  0  0  0  0  0  0  0  0
   36.0650   78.2620   55.0040 H   0  0  0  0  0  0  0  0  0  0  0  0
   36.8110   80.5520   55.3320 H   0  0  0  0  0  0  0  0  0  0  0  0
   37.6350   80.0320   56.8980 H   0  0  0  0  0  0  0  0  0  0  0  0
   39.2220   78.4890   55.6510 H   0  0  0  0  0  0  0  0  0  0  0  0
   38.5820   79.2710   53.7180 C   0  0  0  0  0  3  0  0  0  0  0  0
   38.9050   78.0710   52.8670 C   0  0  0  0  0  2  0  0  0  0  0  0
   38.9070   78.7040   51.4740 C   0  0  0  0  0  2  0  0  0  0  0  0
   37.8430   79.7780   51.5460 C   0  0  0  0  0  2  0  0  0  0  0  0
   37.4110   79.8600   53.0010 C   0  0  0  0  0  2  0  0  0  0  0  0
  1 12  1  0  0  0  0
  2  1  1  0  0  0  0
  2  7  1  0  0  0  0
  3  2  2  0  0  0  0
  4  5  2  0  0  0  0
  4  3  1  0  0  0  0
  5  6  1  0  0  0  0
  6  1  2  0  0  0  0
  8  3  1  0  0  0  0
  9 10  2  0  0  0  0
  9 20  1  0  0  0  0
 10 14  1  0  0  0  0
 11 15  1  0  0  0  0
 11 10  1  0  0  0  0
 12 11  2  0  0  0  0
 13 12  1  0  0  0  0
 13  9  1  0  0  0  0
 16 17  1  0  0  0  0
 17 18  2  0  0  0  0
 17 23  1  0  0  0  0
 18 24  1  0  0  0  0
 19 18  1  0  0  0  0
 20 19  2  0  0  0  0
 21 20  1  0  0  0  0
 21 16  2  0  0  0  0
 22 16  1  0  0  0  0
 25 26  2  0  0  0  0
 25  5  1  0  0  0  0
 27 30  1  6  0  0  0
 27 28  1  0  0  0  0
 27 25  1  0  0  0  0
 28 32  1  0  0  0  0
 29 27  1  0  0  0  0
 29 33  1  1  0  0  0
 29 28  1  0  0  0  0
 31 28  1  0  0  0  0
 34 29  1  0  0  0  0
 35 34  1  0  0  0  0
 36 37  1  0  0  0  0
 36 35  1  0  0  0  0
 37 38  1  0  0  0  0
 38 34  1  0  0  0  0
M  END
>  <minimizedAffinity>
-6.40505648

>  <minimizedRMSD>
1.14728749

$$$$
