
 OpenBabel03212521073D

 32 35  0  0  0  0  0  0  0  0999 V2000
   41.8000   84.2550   61.5710 C   0  0  0  0  0  0  0  0  0  0  0  0
   41.4460   83.9550   62.8750 C   0  0  0  0  0  0  0  0  0  0  0  0
   40.1700   83.5390   63.2080 C   0  0  0  0  0  0  0  0  0  0  0  0
   39.2120   83.4170   62.2040 C   0  0  0  0  0  0  0  0  0  0  0  0
   39.5600   83.7160   60.8860 C   0  0  0  0  0  0  0  0  0  0  0  0
   40.8340   84.1280   60.5750 C   0  0  0  0  0  0  0  0  0  0  0  0
   42.2110   84.0590   63.6380 H   0  0  0  0  0  0  0  0  0  0  0  0
   39.9290   83.3150   64.2360 H   0  0  0  0  0  0  0  0  0  0  0  0
   38.2070   83.0970   62.4140 H   0  0  0  0  0  0  0  0  0  0  0  0
   38.7840   83.6080   60.1330 H   0  0  0  0  0  0  0  0  0  0  0  0
   45.3260   84.1320   60.6340 C   0  0  0  0  0  0  0  0  0  0  0  0
   45.7190   85.4660   60.7120 C   0  0  0  0  0  0  0  0  0  0  0  0
   44.7510   86.4280   61.0960 C   0  0  0  0  0  0  0  0  0  0  0  0
   43.5030   85.9840   61.3620 N   0  0  0  0  0  0  0  0  0  0  0  0
   43.1440   84.6840   61.2790 C   0  0  0  0  0  0  0  0  0  0  0  0
   44.0630   83.7790   60.9160 N   0  0  0  0  0  0  0  0  0  0  0  0
   46.0320   83.3530   60.3450 H   0  0  0  0  0  0  0  0  0  0  0  0
   46.7340   85.7320   60.4850 H   0  0  0  0  0  0  0  0  0  0  0  0
   45.0370   87.4670   61.1630 H   0  0  0  0  0  0  0  0  0  0  0  0
   41.1560   84.4310   59.1870 C   0  0  0  0  0  0  0  0  0  0  0  0
   40.7050   85.7040   58.8170 C   0  0  0  0  0  0  0  0  0  0  0  0
   40.9160   86.1840   57.5280 C   0  0  0  0  0  0  0  0  0  0  0  0
   41.5600   85.3760   56.6790 N   0  0  0  0  0  0  0  0  0  0  0  0
   41.9970   84.1400   57.0400 C   0  0  0  0  0  0  0  0  0  0  0  0
   41.7950   83.6690   58.2930 N   0  0  0  0  0  0  0  0  0  0  0  0
   40.1730   86.4010   59.4750 H   0  0  0  0  0  0  0  0  0  0  0  0
   40.5760   87.1620   57.2240 H   0  0  0  0  0  0  0  0  0  0  0  0
   42.7080   83.2610   56.0870 C   0  0  0  0  0  3  0  0  0  0  0  0
   43.7190   82.4280   56.8520 C   0  0  0  0  0  2  0  0  0  0  0  0
   44.0600   81.2790   55.9700 C   0  0  0  0  0  2  0  0  0  0  0  0
   42.7730   80.9910   55.2540 C   0  0  0  0  0  2  0  0  0  0  0  0
   41.8390   82.1720   55.5040 C   0  0  0  0  0  2  0  0  0  0  0  0
  1  2  1  0  0  0  0
  2  3  2  0  0  0  0
  2  7  1  0  0  0  0
  3  8  1  0  0  0  0
  4  9  1  0  0  0  0
  4  3  1  0  0  0  0
  5  4  2  0  0  0  0
  6  5  1  0  0  0  0
  6  1  2  0  0  0  0
 10  5  1  0  0  0  0
 11 12  2  0  0  0  0
 11 16  1  0  0  0  0
 12 13  1  0  0  0  0
 13 19  1  0  0  0  0
 13 14  2  0  0  0  0
 15 14  1  0  0  0  0
 15  1  1  0  0  0  0
 16 15  2  0  0  0  0
 17 11  1  0  0  0  0
 18 12  1  0  0  0  0
 20  6  1  0  0  0  0
 21 20  1  0  0  0  0
 21 26  1  0  0  0  0
 22 21  2  0  0  0  0
 23 24  2  0  0  0  0
 23 22  1  0  0  0  0
 24 25  1  0  0  0  0
 25 20  2  0  0  0  0
 27 22  1  0  0  0  0
 28 29  1  0  0  0  0
 28 24  1  0  0  0  0
 30 29  1  0  0  0  0
 31 32  1  0  0  0  0
 31 30  1  0  0  0  0
 32 28  1  0  0  0  0
M  END
>  <minimizedAffinity>
-5.3822031

>  <minimizedRMSD>
0.642719865

$$$$
