
 OpenBabel03212520343D

 30 33  0  0  0  0  0  0  0  0999 V2000
   40.5860   80.8820   56.8620 C   0  0  0  0  0  0  0  0  0  0  0  0
   41.6570   81.2860   56.0630 C   0  0  0  0  0  0  0  0  0  0  0  0
   41.7000   81.1010   54.6930 C   0  0  0  0  0  0  0  0  0  0  0  0
   40.6300   80.4820   54.0610 C   0  0  0  0  0  0  0  0  0  0  0  0
   39.5700   80.0800   54.8370 C   0  0  0  0  0  0  0  0  0  0  0  0
   38.4500   79.4530   54.3100 C   0  0  0  0  0  0  0  0  0  0  0  0
   37.3890   79.0540   55.1060 C   0  0  0  0  0  0  0  0  0  0  0  0
   37.4010   79.2660   56.4740 C   0  0  0  0  0  0  0  0  0  0  0  0
   38.5040   79.8880   57.0240 C   0  0  0  0  0  0  0  0  0  0  0  0
   39.5320   80.2670   56.2010 C   0  0  0  0  0  0  0  0  0  0  0  0
   42.5330   81.7780   56.4780 H   0  0  0  0  0  0  0  0  0  0  0  0
   42.5230   81.4140   54.0920 H   0  0  0  0  0  0  0  0  0  0  0  0
   40.6180   80.3170   53.0020 H   0  0  0  0  0  0  0  0  0  0  0  0
   38.4560   79.2930   53.2280 H   0  0  0  0  0  0  0  0  0  0  0  0
   36.5880   78.5790   54.5560 H   0  0  0  0  0  0  0  0  0  0  0  0
   36.5510   78.9350   57.0350 H   0  0  0  0  0  0  0  0  0  0  0  0
   38.4900   80.0470   58.0920 H   0  0  0  0  0  0  0  0  0  0  0  0
   40.9830   80.3290   59.3570 C   0  0  0  0  0  0  0  0  0  0  0  0
   40.7380   81.1650   58.2710 C   0  0  0  0  0  0  0  0  0  0  0  0
   40.6020   82.5470   58.5600 C   0  0  0  0  0  0  0  0  0  0  0  0
   40.7130   82.9820   59.8430 N   0  0  0  0  0  0  0  0  0  0  0  0
   40.9530   82.1060   60.8580 C   0  0  0  0  0  0  0  0  0  0  0  0
   41.0830   80.8090   60.5990 N   0  0  0  0  0  0  0  0  0  0  0  0
   41.0770   79.3120   59.0610 H   0  0  0  0  0  0  0  0  0  0  0  0
   40.4110   83.3150   57.8200 H   0  0  0  0  0  0  0  0  0  0  0  0
   41.0710   82.5780   62.2370 C   0  0  0  0  0  0  0  0  0  0  0  0
   39.9040   83.4840   62.6500 C   0  0  0  0  0  0  0  0  0  0  0  0
   40.3830   83.8400   64.0600 C   0  0  0  0  0  0  0  0  0  0  0  0
   41.8970   83.9860   63.9120 C   0  0  0  0  0  0  0  0  0  0  0  0
   42.2260   83.5030   62.5060 C   0  0  0  0  0  0  0  0  0  0  0  0
  1 19  1  0  0  0  0
  2 11  1  0  0  0  0
  2  1  2  0  0  0  0
  3  2  1  0  0  0  0
  4  3  2  0  0  0  0
  4  5  1  0  0  0  0
  5 10  1  0  0  0  0
  6  5  2  0  0  0  0
  6  7  1  0  0  0  0
  7  8  2  0  0  0  0
  8  9  1  0  0  0  0
  8 16  1  0  0  0  0
  9 17  1  0  0  0  0
 10  1  1  0  0  0  0
 10  9  2  0  0  0  0
 12  3  1  0  0  0  0
 13  4  1  0  0  0  0
 14  6  1  0  0  0  0
 15  7  1  0  0  0  0
 18 23  1  0  0  0  0
 19 20  1  0  0  0  0
 19 18  2  0  0  0  0
 20 21  2  0  0  0  0
 21 22  1  0  0  0  0
 22 26  1  0  0  0  0
 23 22  2  0  0  0  0
 24 18  1  0  0  0  0
 25 20  1  0  0  0  0
 26 30  1  0  0  0  0
 26 27  1  0  0  0  0
 27 28  1  0  0  0  0
 29 28  1  0  0  0  0
 30 29  1  0  0  0  0
M  END
>  <minimizedAffinity>
-5.36531734

>  <minimizedRMSD>
2.92126274

$$$$
