
 OpenBabel03212521073D

 32 35  0  0  0  0  0  0  0  0999 V2000
   41.8130   84.2510   61.5650 C   0  0  0  0  0  0  0  0  0  0  0  0
   41.4630   83.9480   62.8700 C   0  0  0  0  0  0  0  0  0  0  0  0
   40.1900   83.5240   63.2060 C   0  0  0  0  0  0  0  0  0  0  0  0
   39.2310   83.3970   62.2040 C   0  0  0  0  0  0  0  0  0  0  0  0
   39.5740   83.7010   60.8850 C   0  0  0  0  0  0  0  0  0  0  0  0
   40.8450   84.1200   60.5710 C   0  0  0  0  0  0  0  0  0  0  0  0
   42.2300   84.0550   63.6310 H   0  0  0  0  0  0  0  0  0  0  0  0
   39.9540   83.2970   64.2340 H   0  0  0  0  0  0  0  0  0  0  0  0
   38.2280   83.0710   62.4150 H   0  0  0  0  0  0  0  0  0  0  0  0
   38.7970   83.5890   60.1340 H   0  0  0  0  0  0  0  0  0  0  0  0
   45.3370   84.1490   60.6190 C   0  0  0  0  0  0  0  0  0  0  0  0
   45.7230   85.4850   60.6990 C   0  0  0  0  0  0  0  0  0  0  0  0
   44.7510   86.4420   61.0870 C   0  0  0  0  0  0  0  0  0  0  0  0
   43.5060   85.9900   61.3550 N   0  0  0  0  0  0  0  0  0  0  0  0
   43.1540   84.6880   61.2710 C   0  0  0  0  0  0  0  0  0  0  0  0
   44.0760   83.7880   60.9040 N   0  0  0  0  0  0  0  0  0  0  0  0
   46.0460   83.3750   60.3260 H   0  0  0  0  0  0  0  0  0  0  0  0
   46.7350   85.7580   60.4690 H   0  0  0  0  0  0  0  0  0  0  0  0
   45.0310   87.4810   61.1560 H   0  0  0  0  0  0  0  0  0  0  0  0
   41.1620   84.4260   59.1840 C   0  0  0  0  0  0  0  0  0  0  0  0
   40.7070   85.6990   58.8170 C   0  0  0  0  0  0  0  0  0  0  0  0
   40.9120   86.1820   57.5280 C   0  0  0  0  0  0  0  0  0  0  0  0
   41.5560   85.3780   56.6760 N   0  0  0  0  0  0  0  0  0  0  0  0
   41.9970   84.1420   57.0330 C   0  0  0  0  0  0  0  0  0  0  0  0
   41.8000   83.6680   58.2860 N   0  0  0  0  0  0  0  0  0  0  0  0
   40.1760   86.3940   59.4790 H   0  0  0  0  0  0  0  0  0  0  0  0
   40.5700   87.1600   57.2280 H   0  0  0  0  0  0  0  0  0  0  0  0
   42.7070   83.2660   56.0760 C   0  0  0  0  0  3  0  0  0  0  0  0
   42.7600   83.9580   54.7270 C   0  0  0  0  0  2  0  0  0  0  0  0
   43.8400   83.2840   53.9590 C   0  0  0  0  0  2  0  0  0  0  0  0
   44.8530   82.9330   55.0100 C   0  0  0  0  0  2  0  0  0  0  0  0
   44.1820   83.1210   56.3680 C   0  0  0  0  0  2  0  0  0  0  0  0
  1  2  1  0  0  0  0
  2  3  2  0  0  0  0
  2  7  1  0  0  0  0
  3  8  1  0  0  0  0
  4  9  1  0  0  0  0
  4  3  1  0  0  0  0
  5  4  2  0  0  0  0
  6  5  1  0  0  0  0
  6  1  2  0  0  0  0
 10  5  1  0  0  0  0
 11 12  2  0  0  0  0
 11 16  1  0  0  0  0
 12 13  1  0  0  0  0
 13 19  1  0  0  0  0
 13 14  2  0  0  0  0
 15 14  1  0  0  0  0
 15  1  1  0  0  0  0
 16 15  2  0  0  0  0
 17 11  1  0  0  0  0
 18 12  1  0  0  0  0
 20  6  1  0  0  0  0
 21 20  1  0  0  0  0
 21 26  1  0  0  0  0
 22 21  2  0  0  0  0
 23 24  2  0  0  0  0
 23 22  1  0  0  0  0
 24 25  1  0  0  0  0
 25 20  2  0  0  0  0
 27 22  1  0  0  0  0
 28 32  1  0  0  0  0
 28 24  1  0  0  0  0
 29 28  1  0  0  0  0
 30 29  1  0  0  0  0
 30 31  1  0  0  0  0
 31 32  1  0  0  0  0
M  END
>  <minimizedAffinity>
-5.38578749

>  <minimizedRMSD>
0.224664539

$$$$
