
 OpenBabel03212520593D

 38 42  0  0  1  0  0  0  0  0999 V2000
   39.7250   77.2330   59.2190 C   0  0  0  0  0  0  0  0  0  0  0  0
   40.3930   76.0670   58.9830 C   0  0  0  0  0  0  0  0  0  0  0  0
   39.8250   75.3480   57.9140 C   0  0  0  0  0  0  0  0  0  0  0  0
   38.7550   75.7540   57.2050 N   0  0  0  0  0  0  0  0  0  0  0  0
   38.1670   76.9410   57.5320 C   0  0  0  0  0  0  0  0  0  0  0  0
   38.6590   77.6860   58.5500 N   0  0  0  0  0  0  0  0  0  0  0  0
   41.2440   75.7030   59.5160 H   0  0  0  0  0  0  0  0  0  0  0  0
   40.2520   74.3930   57.6060 H   0  0  0  0  0  0  0  0  0  0  0  0
   40.9730   80.2120   61.7110 C   0  0  0  0  0  0  0  0  0  0  0  0
   40.9460   78.9890   62.3450 C   0  0  0  0  0  0  0  0  0  0  0  0
   40.5470   77.9260   61.6120 C   0  0  0  0  0  0  0  0  0  0  0  0
   40.1900   78.0920   60.2910 C   0  0  0  0  0  0  0  0  0  0  0  0
   40.4220   79.8970   60.0150 S   0  0  0  0  0  0  0  0  0  0  0  0
   41.2290   78.8590   63.3850 H   0  0  0  0  0  0  0  0  0  0  0  0
   40.4580   76.8920   61.9190 H   0  0  0  0  0  0  0  0  0  0  0  0
   43.0700   83.0280   62.7830 C   0  0  0  0  0  0  0  0  0  0  0  0
   42.1800   83.7980   63.5800 C   0  0  0  0  0  0  0  0  0  0  0  0
   40.8620   83.3450   63.7420 C   0  0  0  0  0  0  0  0  0  0  0  0
   40.5040   82.1990   63.1310 N   0  0  0  0  0  0  0  0  0  0  0  0
   41.3810   81.4810   62.3720 C   0  0  0  0  0  0  0  0  0  0  0  0
   42.6310   81.9010   62.2120 N   0  0  0  0  0  0  0  0  0  0  0  0
   44.0910   83.3550   62.6410 H   0  0  0  0  0  0  0  0  0  0  0  0
   42.5000   84.7050   64.0500 H   0  0  0  0  0  0  0  0  0  0  0  0
   40.1370   83.8750   64.3290 H   0  0  0  0  0  0  0  0  0  0  0  0
   37.0220   77.3610   56.7510 C   0  0  0  0  0  0  0  0  0  0  0  0
   35.8950   77.1010   57.2020 O   0  0  0  0  0  0  0  0  0  0  0  0
   37.1580   78.0810   55.4330 C   0  0  1  0  0  0  0  0  0  0  0  0
   37.4100   79.5600   55.5890 C   0  0  0  0  0  0  0  0  0  0  0  0
   38.4360   78.6600   55.0590 C   0  0  2  0  0  0  0  0  0  0  0  0
   36.2190   77.9880   54.8040 H   0  0  0  0  0  0  0  0  0  0  0  0
   36.9310   80.3070   54.9470 H   0  0  0  0  0  0  0  0  0  0  0  0
   37.6330   79.9610   56.6170 H   0  0  0  0  0  0  0  0  0  0  0  0
   39.3160   78.3140   55.6640 H   0  0  0  0  0  0  0  0  0  0  0  0
   38.8250   78.8850   53.6160 C   0  0  0  0  0  3  0  0  0  0  0  0
   37.7240   79.5390   52.8230 C   0  0  0  0  0  2  0  0  0  0  0  0
   38.4610   79.8430   51.5160 C   0  0  0  0  0  2  0  0  0  0  0  0
   39.8770   80.1600   51.9460 C   0  0  0  0  0  2  0  0  0  0  0  0
   39.9580   79.8410   53.4310 C   0  0  0  0  0  2  0  0  0  0  0  0
  1 12  1  0  0  0  0
  2  1  1  0  0  0  0
  2  7  1  0  0  0  0
  3  2  2  0  0  0  0
  4  5  2  0  0  0  0
  4  3  1  0  0  0  0
  5  6  1  0  0  0  0
  6  1  2  0  0  0  0
  8  3  1  0  0  0  0
  9 10  2  0  0  0  0
  9 20  1  0  0  0  0
 10 14  1  0  0  0  0
 11 15  1  0  0  0  0
 11 10  1  0  0  0  0
 12 11  2  0  0  0  0
 13 12  1  0  0  0  0
 13  9  1  0  0  0  0
 16 17  1  0  0  0  0
 17 18  2  0  0  0  0
 17 23  1  0  0  0  0
 18 24  1  0  0  0  0
 19 18  1  0  0  0  0
 20 19  2  0  0  0  0
 21 20  1  0  0  0  0
 21 16  2  0  0  0  0
 22 16  1  0  0  0  0
 25 26  2  0  0  0  0
 25  5  1  0  0  0  0
 27 30  1  6  0  0  0
 27 28  1  0  0  0  0
 27 25  1  0  0  0  0
 28 32  1  0  0  0  0
 29 27  1  0  0  0  0
 29 28  1  0  0  0  0
 29 33  1  1  0  0  0
 31 28  1  0  0  0  0
 34 29  1  0  0  0  0
 35 34  1  0  0  0  0
 36 37  1  0  0  0  0
 36 35  1  0  0  0  0
 37 38  1  0  0  0  0
 38 34  1  0  0  0  0
M  END
>  <minimizedAffinity>
-6.26828289

>  <minimizedRMSD>
0.501833558

$$$$
