
 OpenBabel03212520443D

 14 15  0  0  0  0  0  0  0  0999 V2000
   40.1970   82.0070   60.8430 C   0  0  0  0  0  0  0  0  0  0  0  0
   40.2630   82.8560   59.7190 C   0  0  0  0  0  0  0  0  0  0  0  0
   39.6020   84.0810   59.7950 C   0  0  0  0  0  0  0  0  0  0  0  0
   38.9330   84.3920   60.9420 N   0  0  0  0  0  0  0  0  0  0  0  0
   38.8920   83.5550   62.0010 C   0  0  0  0  0  0  0  0  0  0  0  0
   39.5280   82.3630   61.9410 N   0  0  0  0  0  0  0  0  0  0  0  0
   40.8200   82.5320   58.8370 H   0  0  0  0  0  0  0  0  0  0  0  0
   39.6310   84.7440   58.9640 H   0  0  0  0  0  0  0  0  0  0  0  0
   38.3350   83.8960   62.8630 H   0  0  0  0  0  0  0  0  0  0  0  0
   40.8740   80.6980   60.8280 C   0  0  0  0  0  3  0  0  0  0  0  0
   40.8900   80.0110   62.1750 C   0  0  0  0  0  2  0  0  0  0  0  0
   41.4950   78.6660   61.7510 C   0  0  0  0  0  2  0  0  0  0  0  0
   40.9630   78.4140   60.3590 C   0  0  0  0  0  2  0  0  0  0  0  0
   40.2170   79.6730   59.9650 C   0  0  0  0  0  2  0  0  0  0  0  0
  1  6  1  0  0  0  0
  2  3  1  0  0  0  0
  2  1  2  0  0  0  0
  3  4  2  0  0  0  0
  4  5  1  0  0  0  0
  5  9  1  0  0  0  0
  6  5  2  0  0  0  0
  7  2  1  0  0  0  0
  8  3  1  0  0  0  0
 10  1  1  0  0  0  0
 10 11  1  0  0  0  0
 12 11  1  0  0  0  0
 13 12  1  0  0  0  0
 14 13  1  0  0  0  0
 14 10  1  0  0  0  0
M  END
>  <minimizedAffinity>
-4.20563221

>  <minimizedRMSD>
0.193424299

$$$$
