
 OpenBabel03212520443D

 14 15  0  0  0  0  0  0  0  0999 V2000
   40.1240   81.9790   60.7370 C   0  0  0  0  0  0  0  0  0  0  0  0
   40.1980   82.8680   59.6460 C   0  0  0  0  0  0  0  0  0  0  0  0
   39.5900   84.1150   59.7870 C   0  0  0  0  0  0  0  0  0  0  0  0
   38.9610   84.4060   60.9610 N   0  0  0  0  0  0  0  0  0  0  0  0
   38.9100   83.5290   61.9870 C   0  0  0  0  0  0  0  0  0  0  0  0
   39.4950   82.3160   61.8650 N   0  0  0  0  0  0  0  0  0  0  0  0
   40.7210   82.5590   58.7380 H   0  0  0  0  0  0  0  0  0  0  0  0
   39.6280   84.8100   58.9820 H   0  0  0  0  0  0  0  0  0  0  0  0
   38.3870   83.8570   62.8750 H   0  0  0  0  0  0  0  0  0  0  0  0
   40.7460   80.6450   60.6540 C   0  0  0  0  0  3  0  0  0  0  0  0
   40.3900   79.7400   61.8110 C   0  0  0  0  0  2  0  0  0  0  0  0
   41.0480   78.4450   61.3140 C   0  0  0  0  0  2  0  0  0  0  0  0
   40.8950   78.4740   59.8110 C   0  0  0  0  0  2  0  0  0  0  0  0
   40.3120   79.8320   59.4780 C   0  0  0  0  0  2  0  0  0  0  0  0
  1  6  1  0  0  0  0
  2  3  1  0  0  0  0
  2  1  2  0  0  0  0
  3  4  2  0  0  0  0
  4  5  1  0  0  0  0
  5  9  1  0  0  0  0
  6  5  2  0  0  0  0
  7  2  1  0  0  0  0
  8  3  1  0  0  0  0
 10  1  1  0  0  0  0
 10 11  1  0  0  0  0
 12 11  1  0  0  0  0
 13 12  1  0  0  0  0
 14 13  1  0  0  0  0
 14 10  1  0  0  0  0
M  END
>  <minimizedAffinity>
-4.20495129

>  <minimizedRMSD>
0.152220845

$$$$
