
 OpenBabel03212521003D

 38 42  0  0  1  0  0  0  0  0999 V2000
   39.7980   77.4060   59.1760 C   0  0  0  0  0  0  0  0  0  0  0  0
   40.5090   76.2760   58.8950 C   0  0  0  0  0  0  0  0  0  0  0  0
   39.9590   75.5710   57.8070 C   0  0  0  0  0  0  0  0  0  0  0  0
   38.8660   75.9570   57.1220 N   0  0  0  0  0  0  0  0  0  0  0  0
   38.2350   77.1080   57.4950 C   0  0  0  0  0  0  0  0  0  0  0  0
   38.7080   77.8380   58.5330 N   0  0  0  0  0  0  0  0  0  0  0  0
   41.3790   75.9290   59.4070 H   0  0  0  0  0  0  0  0  0  0  0  0
   40.4200   74.6440   57.4630 H   0  0  0  0  0  0  0  0  0  0  0  0
   40.9810   80.3420   61.7480 C   0  0  0  0  0  0  0  0  0  0  0  0
   40.9590   79.1060   62.3560 C   0  0  0  0  0  0  0  0  0  0  0  0
   40.5810   78.0560   61.5940 C   0  0  0  0  0  0  0  0  0  0  0  0
   40.2390   78.2460   60.2730 C   0  0  0  0  0  0  0  0  0  0  0  0
   40.4560   80.0590   60.0390 S   0  0  0  0  0  0  0  0  0  0  0  0
   41.2280   78.9570   63.3970 H   0  0  0  0  0  0  0  0  0  0  0  0
   40.4980   77.0150   61.8790 H   0  0  0  0  0  0  0  0  0  0  0  0
   43.0360   83.1520   62.9150 C   0  0  0  0  0  0  0  0  0  0  0  0
   42.1260   83.8990   63.7100 C   0  0  0  0  0  0  0  0  0  0  0  0
   40.8080   83.4350   63.8380 C   0  0  0  0  0  0  0  0  0  0  0  0
   40.4710   82.2980   63.1980 N   0  0  0  0  0  0  0  0  0  0  0  0
   41.3670   81.6010   62.4410 C   0  0  0  0  0  0  0  0  0  0  0  0
   42.6160   82.0340   62.3140 N   0  0  0  0  0  0  0  0  0  0  0  0
   44.0570   83.4890   62.8000 H   0  0  0  0  0  0  0  0  0  0  0  0
   42.4300   84.7990   64.2040 H   0  0  0  0  0  0  0  0  0  0  0  0
   40.0680   83.9480   64.4210 H   0  0  0  0  0  0  0  0  0  0  0  0
   37.0660   77.5090   56.7390 C   0  0  0  0  0  0  0  0  0  0  0  0
   35.9690   77.0500   57.0950 O   0  0  0  0  0  0  0  0  0  0  0  0
   37.1450   78.4380   55.5530 C   0  0  1  0  0  0  0  0  0  0  0  0
   37.2820   79.8870   55.9450 C   0  0  0  0  0  0  0  0  0  0  0  0
   38.3740   79.1640   55.2900 C   0  0  2  0  0  0  0  0  0  0  0  0
   36.2150   78.3740   54.9060 H   0  0  0  0  0  0  0  0  0  0  0  0
   36.7460   80.6880   55.4230 H   0  0  0  0  0  0  0  0  0  0  0  0
   37.4740   80.1360   57.0260 H   0  0  0  0  0  0  0  0  0  0  0  0
   39.2790   78.7960   55.8420 H   0  0  0  0  0  0  0  0  0  0  0  0
   38.7430   79.6460   53.9060 C   0  0  0  0  0  3  0  0  0  0  0  0
   40.2320   79.6420   53.6770 C   0  0  0  0  0  2  0  0  0  0  0  0
   40.2870   79.9380   52.1760 C   0  0  0  0  0  2  0  0  0  0  0  0
   39.0610   79.2530   51.6110 C   0  0  0  0  0  2  0  0  0  0  0  0
   38.2510   78.7670   52.8020 C   0  0  0  0  0  2  0  0  0  0  0  0
  1 12  1  0  0  0  0
  2  1  1  0  0  0  0
  2  7  1  0  0  0  0
  3  2  2  0  0  0  0
  4  5  2  0  0  0  0
  4  3  1  0  0  0  0
  5  6  1  0  0  0  0
  6  1  2  0  0  0  0
  8  3  1  0  0  0  0
  9 10  2  0  0  0  0
  9 20  1  0  0  0  0
 10 14  1  0  0  0  0
 11 15  1  0  0  0  0
 11 10  1  0  0  0  0
 12 11  2  0  0  0  0
 13 12  1  0  0  0  0
 13  9  1  0  0  0  0
 16 17  1  0  0  0  0
 17 18  2  0  0  0  0
 17 23  1  0  0  0  0
 18 24  1  0  0  0  0
 19 18  1  0  0  0  0
 20 19  2  0  0  0  0
 21 20  1  0  0  0  0
 21 16  2  0  0  0  0
 22 16  1  0  0  0  0
 25 26  2  0  0  0  0
 25  5  1  0  0  0  0
 27 30  1  6  0  0  0
 27 28  1  0  0  0  0
 27 25  1  0  0  0  0
 28 32  1  0  0  0  0
 29 27  1  0  0  0  0
 29 33  1  1  0  0  0
 29 28  1  0  0  0  0
 31 28  1  0  0  0  0
 34 29  1  0  0  0  0
 35 34  1  0  0  0  0
 36 35  1  0  0  0  0
 37 36  1  0  0  0  0
 37 38  1  0  0  0  0
 38 34  1  0  0  0  0
M  END
>  <minimizedAffinity>
-6.25467634

>  <minimizedRMSD>
0.193975031

$$$$
