
 OpenBabel03212520593D

 40 44  0  0  1  0  0  0  0  0999 V2000
   39.7830   77.4000   59.1750 C   0  0  0  0  0  0  0  0  0  0  0  0
   40.4920   76.2770   58.8790 C   0  0  0  0  0  0  0  0  0  0  0  0
   39.9470   75.5710   57.8020 C   0  0  0  0  0  0  0  0  0  0  0  0
   38.8460   75.9520   57.1260 N   0  0  0  0  0  0  0  0  0  0  0  0
   38.2080   77.0980   57.5060 C   0  0  0  0  0  0  0  0  0  0  0  0
   38.6790   77.8320   58.5390 N   0  0  0  0  0  0  0  0  0  0  0  0
   41.3660   75.9310   59.3800 H   0  0  0  0  0  0  0  0  0  0  0  0
   40.3930   74.6510   57.4380 H   0  0  0  0  0  0  0  0  0  0  0  0
   40.9760   80.3400   61.7440 C   0  0  0  0  0  0  0  0  0  0  0  0
   40.9680   79.1000   62.3380 C   0  0  0  0  0  0  0  0  0  0  0  0
   40.5890   78.0440   61.5910 C   0  0  0  0  0  0  0  0  0  0  0  0
   40.2300   78.2390   60.2700 C   0  0  0  0  0  0  0  0  0  0  0  0
   40.4290   80.0550   60.0330 S   0  0  0  0  0  0  0  0  0  0  0  0
   41.2520   78.9500   63.3790 H   0  0  0  0  0  0  0  0  0  0  0  0
   40.5170   77.0020   61.8680 H   0  0  0  0  0  0  0  0  0  0  0  0
   43.0530   83.1370   62.8950 C   0  0  0  0  0  0  0  0  0  0  0  0
   42.1530   83.8920   63.6910 C   0  0  0  0  0  0  0  0  0  0  0  0
   40.8330   83.4410   63.8250 C   0  0  0  0  0  0  0  0  0  0  0  0
   40.4740   82.3020   63.1880 N   0  0  0  0  0  0  0  0  0  0  0  0
   41.3650   81.5990   62.4290 C   0  0  0  0  0  0  0  0  0  0  0  0
   42.6230   82.0230   62.2970 N   0  0  0  0  0  0  0  0  0  0  0  0
   44.0790   83.4250   62.7490 H   0  0  0  0  0  0  0  0  0  0  0  0
   42.5130   84.7920   64.1690 H   0  0  0  0  0  0  0  0  0  0  0  0
   40.1350   83.9980   64.4250 H   0  0  0  0  0  0  0  0  0  0  0  0
   37.0280   77.4920   56.7600 C   0  0  0  0  0  0  0  0  0  0  0  0
   35.9270   77.1370   57.2090 O   0  0  0  0  0  0  0  0  0  0  0  0
   37.1120   78.2890   55.4850 C   0  0  1  0  0  0  0  0  0  0  0  0
   37.3490   79.7610   55.7320 C   0  0  0  0  0  0  0  0  0  0  0  0
   38.3570   78.9120   55.0920 C   0  0  2  0  0  0  0  0  0  0  0  0
   36.1810   78.1100   54.8770 H   0  0  0  0  0  0  0  0  0  0  0  0
   37.4710   80.1230   56.7710 H   0  0  0  0  0  0  0  0  0  0  0  0
   36.7380   80.4580   55.1270 H   0  0  0  0  0  0  0  0  0  0  0  0
   39.2430   78.6530   55.7240 H   0  0  0  0  0  0  0  0  0  0  0  0
   38.5910   79.1990   53.6290 C   0  0  0  0  0  0  0  0  0  0  0  0
   39.5140   78.4720   52.9090 C   0  0  0  0  0  0  0  0  0  0  0  0
   40.1700   77.6250   53.2960 H   0  0  0  0  0  0  0  0  0  0  0  0
   39.4300   79.1700   51.2500 S   0  0  0  0  0  0  0  0  0  0  0  0
   38.1010   80.3950   51.8010 C   0  0  0  0  0  0  0  0  0  0  0  0
   37.5220   81.2130   51.2650 H   0  0  0  0  0  0  0  0  0  0  0  0
   38.0090   80.1000   52.8770 N   0  0  0  0  0  0  0  0  0  0  0  0
  1 12  1  0  0  0  0
  2  1  1  0  0  0  0
  2  7  1  0  0  0  0
  3  2  2  0  0  0  0
  4  5  2  0  0  0  0
  4  3  1  0  0  0  0
  5  6  1  0  0  0  0
  6  1  2  0  0  0  0
  8  3  1  0  0  0  0
  9 10  2  0  0  0  0
  9 20  1  0  0  0  0
 10 14  1  0  0  0  0
 11 15  1  0  0  0  0
 11 10  1  0  0  0  0
 12 11  2  0  0  0  0
 13 12  1  0  0  0  0
 13  9  1  0  0  0  0
 16 17  1  0  0  0  0
 17 18  2  0  0  0  0
 17 23  1  0  0  0  0
 18 24  1  0  0  0  0
 19 18  1  0  0  0  0
 20 19  2  0  0  0  0
 21 20  1  0  0  0  0
 21 16  2  0  0  0  0
 22 16  1  0  0  0  0
 25 26  2  0  0  0  0
 25  5  1  0  0  0  0
 27 30  1  6  0  0  0
 27 28  1  0  0  0  0
 27 25  1  0  0  0  0
 28 31  1  0  0  0  0
 29 27  1  0  0  0  0
 29 33  1  1  0  0  0
 29 28  1  0  0  0  0
 32 28  1  0  0  0  0
 34 29  1  0  0  0  0
 35 36  1  0  0  0  0
 35 34  2  0  0  0  0
 37 38  1  0  0  0  0
 37 35  1  0  0  0  0
 38 40  2  0  0  0  0
 39 38  1  0  0  0  0
 40 34  1  0  0  0  0
M  END
>  <minimizedAffinity>
-6.32885313

>  <minimizedRMSD>
0.369894058

$$$$
