
 OpenBabel03212520593D

 40 44  0  0  1  0  0  0  0  0999 V2000
   39.7030   77.2330   59.1570 C   0  0  0  0  0  0  0  0  0  0  0  0
   40.3610   76.0660   58.9110 C   0  0  0  0  0  0  0  0  0  0  0  0
   39.8040   75.3570   57.8420 C   0  0  0  0  0  0  0  0  0  0  0  0
   38.7390   75.7730   57.1290 N   0  0  0  0  0  0  0  0  0  0  0  0
   38.1530   76.9610   57.4600 C   0  0  0  0  0  0  0  0  0  0  0  0
   38.6370   77.7010   58.4830 N   0  0  0  0  0  0  0  0  0  0  0  0
   41.2030   75.6930   59.4420 H   0  0  0  0  0  0  0  0  0  0  0  0
   40.2110   74.4050   57.5160 H   0  0  0  0  0  0  0  0  0  0  0  0
   40.9600   80.1900   61.6760 C   0  0  0  0  0  0  0  0  0  0  0  0
   40.9230   78.9610   62.2920 C   0  0  0  0  0  0  0  0  0  0  0  0
   40.5210   77.9010   61.5620 C   0  0  0  0  0  0  0  0  0  0  0  0
   40.1680   78.0810   60.2370 C   0  0  0  0  0  0  0  0  0  0  0  0
   40.4100   79.8870   59.9680 S   0  0  0  0  0  0  0  0  0  0  0  0
   41.2030   78.8230   63.3350 H   0  0  0  0  0  0  0  0  0  0  0  0
   40.4250   76.8660   61.8580 H   0  0  0  0  0  0  0  0  0  0  0  0
   43.0970   82.9640   62.7700 C   0  0  0  0  0  0  0  0  0  0  0  0
   42.2170   83.7480   63.5600 C   0  0  0  0  0  0  0  0  0  0  0  0
   40.8890   83.3240   63.7100 C   0  0  0  0  0  0  0  0  0  0  0  0
   40.5050   82.1820   63.0920 N   0  0  0  0  0  0  0  0  0  0  0  0
   41.3770   81.4510   62.3390 C   0  0  0  0  0  0  0  0  0  0  0  0
   42.6430   81.8500   62.1930 N   0  0  0  0  0  0  0  0  0  0  0  0
   44.1270   83.2310   62.6140 H   0  0  0  0  0  0  0  0  0  0  0  0
   42.5960   84.6480   64.0230 H   0  0  0  0  0  0  0  0  0  0  0  0
   40.2060   83.9040   64.3050 H   0  0  0  0  0  0  0  0  0  0  0  0
   37.0120   77.3910   56.6750 C   0  0  0  0  0  0  0  0  0  0  0  0
   35.8840   77.1370   57.1250 O   0  0  0  0  0  0  0  0  0  0  0  0
   37.1650   78.1090   55.3590 C   0  0  1  0  0  0  0  0  0  0  0  0
   37.3930   79.5940   55.5280 C   0  0  0  0  0  0  0  0  0  0  0  0
   38.4310   78.7080   54.9970 C   0  0  2  0  0  0  0  0  0  0  0  0
   36.2680   77.8920   54.7140 H   0  0  0  0  0  0  0  0  0  0  0  0
   37.4600   80.0180   56.5480 H   0  0  0  0  0  0  0  0  0  0  0  0
   36.8160   80.2510   54.8500 H   0  0  0  0  0  0  0  0  0  0  0  0
   39.2820   78.4890   55.6890 H   0  0  0  0  0  0  0  0  0  0  0  0
   38.7440   78.9050   53.5330 C   0  0  0  0  0  0  0  0  0  0  0  0
   39.0540   77.8300   52.7300 C   0  0  0  0  0  0  0  0  0  0  0  0
   39.1130   76.7370   53.0430 H   0  0  0  0  0  0  0  0  0  0  0  0
   39.3420   78.5580   51.1080 S   0  0  0  0  0  0  0  0  0  0  0  0
   38.9820   80.2840   51.7850 C   0  0  0  0  0  0  0  0  0  0  0  0
   38.9670   81.3200   51.3170 H   0  0  0  0  0  0  0  0  0  0  0  0
   38.7680   80.0250   52.8530 N   0  0  0  0  0  0  0  0  0  0  0  0
  1 12  1  0  0  0  0
  2  1  1  0  0  0  0
  2  7  1  0  0  0  0
  3  2  2  0  0  0  0
  4  5  2  0  0  0  0
  4  3  1  0  0  0  0
  5  6  1  0  0  0  0
  6  1  2  0  0  0  0
  8  3  1  0  0  0  0
  9 10  2  0  0  0  0
  9 20  1  0  0  0  0
 10 14  1  0  0  0  0
 11 15  1  0  0  0  0
 11 10  1  0  0  0  0
 12 11  2  0  0  0  0
 13 12  1  0  0  0  0
 13  9  1  0  0  0  0
 16 17  1  0  0  0  0
 17 18  2  0  0  0  0
 17 23  1  0  0  0  0
 18 24  1  0  0  0  0
 19 18  1  0  0  0  0
 20 19  2  0  0  0  0
 21 20  1  0  0  0  0
 21 16  2  0  0  0  0
 22 16  1  0  0  0  0
 25 26  2  0  0  0  0
 25  5  1  0  0  0  0
 27 30  1  6  0  0  0
 27 28  1  0  0  0  0
 27 25  1  0  0  0  0
 28 31  1  0  0  0  0
 29 27  1  0  0  0  0
 29 28  1  0  0  0  0
 29 33  1  1  0  0  0
 32 28  1  0  0  0  0
 34 29  1  0  0  0  0
 35 36  1  0  0  0  0
 35 34  2  0  0  0  0
 37 38  1  0  0  0  0
 37 35  1  0  0  0  0
 38 40  2  0  0  0  0
 39 38  1  0  0  0  0
 40 34  1  0  0  0  0
M  END
>  <minimizedAffinity>
-6.30308628

>  <minimizedRMSD>
0.513866484

$$$$
