
 OpenBabel03212520593D

 40 44  0  0  1  0  0  0  0  0999 V2000
   39.6370   77.1020   59.2410 C   0  0  0  0  0  0  0  0  0  0  0  0
   40.2280   75.8880   59.0680 C   0  0  0  0  0  0  0  0  0  0  0  0
   39.6590   75.1640   58.0150 C   0  0  0  0  0  0  0  0  0  0  0  0
   38.6410   75.6090   57.2530 N   0  0  0  0  0  0  0  0  0  0  0  0
   38.1200   76.8440   57.5130 C   0  0  0  0  0  0  0  0  0  0  0  0
   38.6200   77.6010   58.5150 N   0  0  0  0  0  0  0  0  0  0  0  0
   41.0320   75.4900   59.6400 H   0  0  0  0  0  0  0  0  0  0  0  0
   40.0140   74.1750   57.7450 H   0  0  0  0  0  0  0  0  0  0  0  0
   40.9490   80.1060   61.6760 C   0  0  0  0  0  0  0  0  0  0  0  0
   40.9160   78.8900   62.3180 C   0  0  0  0  0  0  0  0  0  0  0  0
   40.4980   77.8170   61.6180 C   0  0  0  0  0  0  0  0  0  0  0  0
   40.1230   77.9700   60.2950 C   0  0  0  0  0  0  0  0  0  0  0  0
   40.3680   79.7690   59.9850 S   0  0  0  0  0  0  0  0  0  0  0  0
   41.2130   78.7730   63.3590 H   0  0  0  0  0  0  0  0  0  0  0  0
   40.4020   76.7890   61.9370 H   0  0  0  0  0  0  0  0  0  0  0  0
   43.1180   82.8870   62.6840 C   0  0  0  0  0  0  0  0  0  0  0  0
   42.2510   83.6970   63.4640 C   0  0  0  0  0  0  0  0  0  0  0  0
   40.9220   83.2870   63.6370 C   0  0  0  0  0  0  0  0  0  0  0  0
   40.5230   82.1340   63.0500 N   0  0  0  0  0  0  0  0  0  0  0  0
   41.3820   81.3780   62.3050 C   0  0  0  0  0  0  0  0  0  0  0  0
   42.6490   81.7640   62.1370 N   0  0  0  0  0  0  0  0  0  0  0  0
   44.1480   83.1420   62.5110 H   0  0  0  0  0  0  0  0  0  0  0  0
   42.6420   84.6040   63.9020 H   0  0  0  0  0  0  0  0  0  0  0  0
   40.2490   83.8850   64.2250 H   0  0  0  0  0  0  0  0  0  0  0  0
   37.0280   77.3050   56.6750 C   0  0  0  0  0  0  0  0  0  0  0  0
   35.8770   77.1680   57.1150 O   0  0  0  0  0  0  0  0  0  0  0  0
   37.2600   77.9170   55.3180 C   0  0  1  0  0  0  0  0  0  0  0  0
   37.4430   79.4170   55.3790 C   0  0  0  0  0  0  0  0  0  0  0  0
   38.5350   78.5200   54.9950 C   0  0  2  0  0  0  0  0  0  0  0  0
   36.4150   77.6240   54.6330 H   0  0  0  0  0  0  0  0  0  0  0  0
   37.4280   79.9250   56.3620 H   0  0  0  0  0  0  0  0  0  0  0  0
   36.9020   80.0010   54.6100 H   0  0  0  0  0  0  0  0  0  0  0  0
   39.3390   78.3810   55.7610 H   0  0  0  0  0  0  0  0  0  0  0  0
   38.9470   78.6060   53.5450 C   0  0  0  0  0  0  0  0  0  0  0  0
   39.2310   79.8220   52.9650 C   0  0  0  0  0  0  0  0  0  0  0  0
   39.1960   80.8430   53.4660 H   0  0  0  0  0  0  0  0  0  0  0  0
   39.6620   79.4090   51.2650 S   0  0  0  0  0  0  0  0  0  0  0  0
   39.3800   77.5720   51.6060 C   0  0  0  0  0  0  0  0  0  0  0  0
   39.4630   76.6370   50.9670 H   0  0  0  0  0  0  0  0  0  0  0  0
   39.0860   77.6270   52.6850 N   0  0  0  0  0  0  0  0  0  0  0  0
  1 12  1  0  0  0  0
  2  1  1  0  0  0  0
  2  7  1  0  0  0  0
  3  2  2  0  0  0  0
  4  5  2  0  0  0  0
  4  3  1  0  0  0  0
  5  6  1  0  0  0  0
  6  1  2  0  0  0  0
  8  3  1  0  0  0  0
  9 20  1  0  0  0  0
  9 10  2  0  0  0  0
 10 14  1  0  0  0  0
 11 15  1  0  0  0  0
 11 10  1  0  0  0  0
 12 11  2  0  0  0  0
 13 12  1  0  0  0  0
 13  9  1  0  0  0  0
 16 17  1  0  0  0  0
 17 18  2  0  0  0  0
 17 23  1  0  0  0  0
 18 24  1  0  0  0  0
 19 18  1  0  0  0  0
 20 19  2  0  0  0  0
 21 20  1  0  0  0  0
 21 16  2  0  0  0  0
 22 16  1  0  0  0  0
 25 26  2  0  0  0  0
 25  5  1  0  0  0  0
 27 30  1  6  0  0  0
 27 28  1  0  0  0  0
 27 25  1  0  0  0  0
 28 31  1  0  0  0  0
 29 27  1  0  0  0  0
 29 28  1  0  0  0  0
 29 33  1  1  0  0  0
 32 28  1  0  0  0  0
 34 29  1  0  0  0  0
 35 36  1  0  0  0  0
 35 34  2  0  0  0  0
 37 38  1  0  0  0  0
 37 35  1  0  0  0  0
 38 40  2  0  0  0  0
 39 38  1  0  0  0  0
 40 34  1  0  0  0  0
M  END
>  <minimizedAffinity>
-6.06316662

>  <minimizedRMSD>
0.69223392

$$$$
