
 OpenBabel03212520593D

 40 44  0  0  1  0  0  0  0  0999 V2000
   39.7320   77.2800   59.2160 C   0  0  0  0  0  0  0  0  0  0  0  0
   40.3960   76.1160   58.9730 C   0  0  0  0  0  0  0  0  0  0  0  0
   39.8440   75.4010   57.9060 C   0  0  0  0  0  0  0  0  0  0  0  0
   38.7760   75.8080   57.1920 N   0  0  0  0  0  0  0  0  0  0  0  0
   38.1830   76.9940   57.5210 C   0  0  0  0  0  0  0  0  0  0  0  0
   38.6630   77.7400   58.5410 N   0  0  0  0  0  0  0  0  0  0  0  0
   41.2420   75.7490   59.5040 H   0  0  0  0  0  0  0  0  0  0  0  0
   40.2560   74.4500   57.5820 H   0  0  0  0  0  0  0  0  0  0  0  0
   40.9640   80.2520   61.7290 C   0  0  0  0  0  0  0  0  0  0  0  0
   40.9490   79.0220   62.3440 C   0  0  0  0  0  0  0  0  0  0  0  0
   40.5580   77.9570   61.6160 C   0  0  0  0  0  0  0  0  0  0  0  0
   40.1920   78.1330   60.2940 C   0  0  0  0  0  0  0  0  0  0  0  0
   40.4060   79.9430   60.0250 S   0  0  0  0  0  0  0  0  0  0  0  0
   41.2380   78.8870   63.3850 H   0  0  0  0  0  0  0  0  0  0  0  0
   40.4780   76.9210   61.9110 H   0  0  0  0  0  0  0  0  0  0  0  0
   43.0690   83.0540   62.8130 C   0  0  0  0  0  0  0  0  0  0  0  0
   42.1830   83.8260   63.6080 C   0  0  0  0  0  0  0  0  0  0  0  0
   40.8620   83.3840   63.7660 C   0  0  0  0  0  0  0  0  0  0  0  0
   40.4900   82.2370   63.1490 N   0  0  0  0  0  0  0  0  0  0  0  0
   41.3680   81.5180   62.3910 C   0  0  0  0  0  0  0  0  0  0  0  0
   42.6270   81.9350   62.2370 N   0  0  0  0  0  0  0  0  0  0  0  0
   44.0940   83.3360   62.6500 H   0  0  0  0  0  0  0  0  0  0  0  0
   42.5520   84.7310   64.0690 H   0  0  0  0  0  0  0  0  0  0  0  0
   40.1740   83.9530   64.3650 H   0  0  0  0  0  0  0  0  0  0  0  0
   37.0390   77.4160   56.7350 C   0  0  0  0  0  0  0  0  0  0  0  0
   35.9130   77.1330   57.1730 O   0  0  0  0  0  0  0  0  0  0  0  0
   37.1870   78.1570   55.4320 C   0  0  1  0  0  0  0  0  0  0  0  0
   37.3840   79.6430   55.6270 C   0  0  0  0  0  0  0  0  0  0  0  0
   38.4440   78.7880   55.0890 C   0  0  2  0  0  0  0  0  0  0  0  0
   36.2980   77.9330   54.7770 H   0  0  0  0  0  0  0  0  0  0  0  0
   37.4360   80.0530   56.6540 H   0  0  0  0  0  0  0  0  0  0  0  0
   36.7990   80.3010   54.9550 H   0  0  0  0  0  0  0  0  0  0  0  0
   39.2940   78.5740   55.7840 H   0  0  0  0  0  0  0  0  0  0  0  0
   38.7630   79.0140   53.6300 C   0  0  0  0  0  0  0  0  0  0  0  0
   38.4450   78.0630   52.6850 C   0  0  0  0  0  0  0  0  0  0  0  0
   37.9390   77.0600   52.8680 H   0  0  0  0  0  0  0  0  0  0  0  0
   39.0110   78.7790   51.1320 S   0  0  0  0  0  0  0  0  0  0  0  0
   39.6190   80.3250   52.0310 C   0  0  0  0  0  0  0  0  0  0  0  0
   40.1260   81.2810   51.6840 H   0  0  0  0  0  0  0  0  0  0  0  0
   39.3390   80.0540   53.0800 N   0  0  0  0  0  0  0  0  0  0  0  0
  1 12  1  0  0  0  0
  2  1  1  0  0  0  0
  2  7  1  0  0  0  0
  3  2  2  0  0  0  0
  4  5  2  0  0  0  0
  4  3  1  0  0  0  0
  5  6  1  0  0  0  0
  6  1  2  0  0  0  0
  8  3  1  0  0  0  0
  9 10  2  0  0  0  0
  9 20  1  0  0  0  0
 10 14  1  0  0  0  0
 11 15  1  0  0  0  0
 11 10  1  0  0  0  0
 12 11  2  0  0  0  0
 13 12  1  0  0  0  0
 13  9  1  0  0  0  0
 16 17  1  0  0  0  0
 17 18  2  0  0  0  0
 17 23  1  0  0  0  0
 18 24  1  0  0  0  0
 19 18  1  0  0  0  0
 20 19  2  0  0  0  0
 21 20  1  0  0  0  0
 21 16  2  0  0  0  0
 22 16  1  0  0  0  0
 25 26  2  0  0  0  0
 25  5  1  0  0  0  0
 27 30  1  6  0  0  0
 27 28  1  0  0  0  0
 27 25  1  0  0  0  0
 28 31  1  0  0  0  0
 29 27  1  0  0  0  0
 29 28  1  0  0  0  0
 29 33  1  1  0  0  0
 32 28  1  0  0  0  0
 34 29  1  0  0  0  0
 35 36  1  0  0  0  0
 35 34  2  0  0  0  0
 37 38  1  0  0  0  0
 37 35  1  0  0  0  0
 38 40  2  0  0  0  0
 39 38  1  0  0  0  0
 40 34  1  0  0  0  0
M  END
>  <minimizedAffinity>
-6.33396721

>  <minimizedRMSD>
0.428622514

$$$$
