
 OpenBabel03212520593D

 40 44  0  0  1  0  0  0  0  0999 V2000
   39.7850   77.3810   59.1670 C   0  0  0  0  0  0  0  0  0  0  0  0
   40.4900   76.2510   58.8850 C   0  0  0  0  0  0  0  0  0  0  0  0
   39.9530   75.5440   57.8060 C   0  0  0  0  0  0  0  0  0  0  0  0
   38.8620   75.9280   57.1150 N   0  0  0  0  0  0  0  0  0  0  0  0
   38.2280   77.0810   57.4820 C   0  0  0  0  0  0  0  0  0  0  0  0
   38.6910   77.8180   58.5160 N   0  0  0  0  0  0  0  0  0  0  0  0
   41.3550   75.9030   59.3980 H   0  0  0  0  0  0  0  0  0  0  0  0
   40.3970   74.6190   57.4520 H   0  0  0  0  0  0  0  0  0  0  0  0
   40.9700   80.3270   61.7340 C   0  0  0  0  0  0  0  0  0  0  0  0
   40.9440   79.0900   62.3350 C   0  0  0  0  0  0  0  0  0  0  0  0
   40.5670   78.0330   61.5890 C   0  0  0  0  0  0  0  0  0  0  0  0
   40.2250   78.2230   60.2620 C   0  0  0  0  0  0  0  0  0  0  0  0
   40.4420   80.0360   60.0180 S   0  0  0  0  0  0  0  0  0  0  0  0
   41.2150   78.9440   63.3800 H   0  0  0  0  0  0  0  0  0  0  0  0
   40.4830   76.9940   61.8710 H   0  0  0  0  0  0  0  0  0  0  0  0
   43.0500   83.1220   62.8810 C   0  0  0  0  0  0  0  0  0  0  0  0
   42.1510   83.8810   63.6740 C   0  0  0  0  0  0  0  0  0  0  0  0
   40.8290   83.4330   63.8090 C   0  0  0  0  0  0  0  0  0  0  0  0
   40.4700   82.2920   63.1730 N   0  0  0  0  0  0  0  0  0  0  0  0
   41.3600   81.5860   62.4170 C   0  0  0  0  0  0  0  0  0  0  0  0
   42.6190   82.0090   62.2850 N   0  0  0  0  0  0  0  0  0  0  0  0
   44.0760   83.4090   62.7350 H   0  0  0  0  0  0  0  0  0  0  0  0
   42.5110   84.7820   64.1510 H   0  0  0  0  0  0  0  0  0  0  0  0
   40.1320   83.9920   64.4060 H   0  0  0  0  0  0  0  0  0  0  0  0
   37.0590   77.4790   56.7200 C   0  0  0  0  0  0  0  0  0  0  0  0
   35.9520   77.1230   57.1510 O   0  0  0  0  0  0  0  0  0  0  0  0
   37.1620   78.2810   55.4500 C   0  0  1  0  0  0  0  0  0  0  0  0
   37.3510   79.7590   55.7070 C   0  0  0  0  0  0  0  0  0  0  0  0
   38.4020   78.9410   55.1000 C   0  0  2  0  0  0  0  0  0  0  0  0
   36.2570   78.0780   54.8110 H   0  0  0  0  0  0  0  0  0  0  0  0
   37.4280   80.1210   56.7500 H   0  0  0  0  0  0  0  0  0  0  0  0
   36.7400   80.4400   55.0840 H   0  0  0  0  0  0  0  0  0  0  0  0
   39.2740   78.7040   55.7590 H   0  0  0  0  0  0  0  0  0  0  0  0
   38.6760   79.2380   53.6450 C   0  0  0  0  0  0  0  0  0  0  0  0
   37.9400   78.6280   52.6530 C   0  0  0  0  0  0  0  0  0  0  0  0
   37.0960   77.8780   52.7900 H   0  0  0  0  0  0  0  0  0  0  0  0
   38.6270   79.2910   51.1240 S   0  0  0  0  0  0  0  0  0  0  0  0
   39.8610   80.3400   52.0970 C   0  0  0  0  0  0  0  0  0  0  0  0
   40.6760   81.0700   51.7930 H   0  0  0  0  0  0  0  0  0  0  0  0
   39.5730   80.0470   53.1390 N   0  0  0  0  0  0  0  0  0  0  0  0
  1 12  1  0  0  0  0
  2  1  1  0  0  0  0
  2  7  1  0  0  0  0
  3  2  2  0  0  0  0
  4  5  2  0  0  0  0
  4  3  1  0  0  0  0
  5  6  1  0  0  0  0
  6  1  2  0  0  0  0
  8  3  1  0  0  0  0
  9 10  2  0  0  0  0
  9 20  1  0  0  0  0
 10 14  1  0  0  0  0
 11 15  1  0  0  0  0
 11 10  1  0  0  0  0
 12 11  2  0  0  0  0
 13 12  1  0  0  0  0
 13  9  1  0  0  0  0
 16 17  1  0  0  0  0
 17 18  2  0  0  0  0
 17 23  1  0  0  0  0
 18 24  1  0  0  0  0
 19 18  1  0  0  0  0
 20 19  2  0  0  0  0
 21 20  1  0  0  0  0
 21 16  2  0  0  0  0
 22 16  1  0  0  0  0
 25 26  2  0  0  0  0
 25  5  1  0  0  0  0
 27 30  1  6  0  0  0
 27 28  1  0  0  0  0
 27 25  1  0  0  0  0
 28 31  1  0  0  0  0
 29 27  1  0  0  0  0
 29 28  1  0  0  0  0
 29 33  1  1  0  0  0
 32 28  1  0  0  0  0
 34 29  1  0  0  0  0
 35 36  1  0  0  0  0
 35 34  2  0  0  0  0
 37 38  1  0  0  0  0
 37 35  1  0  0  0  0
 38 40  2  0  0  0  0
 39 38  1  0  0  0  0
 40 34  1  0  0  0  0
M  END
>  <minimizedAffinity>
-6.36806774

>  <minimizedRMSD>
0.327910781

$$$$
