
 OpenBabel03212520593D

 40 44  0  0  1  0  0  0  0  0999 V2000
   39.7970   77.4100   59.1640 C   0  0  0  0  0  0  0  0  0  0  0  0
   40.5130   76.2920   58.8640 C   0  0  0  0  0  0  0  0  0  0  0  0
   39.9730   75.5880   57.7840 C   0  0  0  0  0  0  0  0  0  0  0  0
   38.8700   75.9660   57.1080 N   0  0  0  0  0  0  0  0  0  0  0  0
   38.2260   77.1070   57.4920 C   0  0  0  0  0  0  0  0  0  0  0  0
   38.6910   77.8390   58.5290 N   0  0  0  0  0  0  0  0  0  0  0  0
   41.3870   75.9490   59.3650 H   0  0  0  0  0  0  0  0  0  0  0  0
   40.4240   74.6710   57.4170 H   0  0  0  0  0  0  0  0  0  0  0  0
   40.9780   80.3450   61.7450 C   0  0  0  0  0  0  0  0  0  0  0  0
   40.9640   79.1040   62.3380 C   0  0  0  0  0  0  0  0  0  0  0  0
   40.5890   78.0490   61.5860 C   0  0  0  0  0  0  0  0  0  0  0  0
   40.2380   78.2470   60.2630 C   0  0  0  0  0  0  0  0  0  0  0  0
   40.4420   80.0630   60.0300 S   0  0  0  0  0  0  0  0  0  0  0  0
   41.2420   78.9520   63.3790 H   0  0  0  0  0  0  0  0  0  0  0  0
   40.5130   77.0080   61.8610 H   0  0  0  0  0  0  0  0  0  0  0  0
   43.0500   83.1410   62.9060 C   0  0  0  0  0  0  0  0  0  0  0  0
   42.1480   83.8930   63.7040 C   0  0  0  0  0  0  0  0  0  0  0  0
   40.8280   83.4390   63.8360 C   0  0  0  0  0  0  0  0  0  0  0  0
   40.4720   82.3010   63.1950 N   0  0  0  0  0  0  0  0  0  0  0  0
   41.3650   81.6020   62.4350 C   0  0  0  0  0  0  0  0  0  0  0  0
   42.6230   82.0290   62.3050 N   0  0  0  0  0  0  0  0  0  0  0  0
   44.0750   83.4310   62.7620 H   0  0  0  0  0  0  0  0  0  0  0  0
   42.5060   84.7910   64.1860 H   0  0  0  0  0  0  0  0  0  0  0  0
   40.1300   83.9940   64.4360 H   0  0  0  0  0  0  0  0  0  0  0  0
   37.0450   77.4980   56.7460 C   0  0  0  0  0  0  0  0  0  0  0  0
   35.9560   77.0410   57.1260 O   0  0  0  0  0  0  0  0  0  0  0  0
   37.1140   78.4110   55.5500 C   0  0  1  0  0  0  0  0  0  0  0  0
   37.3000   79.8610   55.9330 C   0  0  0  0  0  0  0  0  0  0  0  0
   38.3420   79.1080   55.2330 C   0  0  2  0  0  0  0  0  0  0  0  0
   36.1960   78.2580   54.9160 H   0  0  0  0  0  0  0  0  0  0  0  0
   37.3990   80.1300   57.0020 H   0  0  0  0  0  0  0  0  0  0  0  0
   36.6720   80.5900   55.3860 H   0  0  0  0  0  0  0  0  0  0  0  0
   39.2300   78.8210   55.8490 H   0  0  0  0  0  0  0  0  0  0  0  0
   38.5820   79.5350   53.8040 C   0  0  0  0  0  0  0  0  0  0  0  0
   39.8620   79.6890   53.3210 C   0  0  0  0  0  0  0  0  0  0  0  0
   40.8320   79.5270   53.8930 H   0  0  0  0  0  0  0  0  0  0  0  0
   39.6290   80.1970   51.6080 S   0  0  0  0  0  0  0  0  0  0  0  0
   37.7520   80.1210   51.8090 C   0  0  0  0  0  0  0  0  0  0  0  0
   36.8820   80.3220   51.1050 H   0  0  0  0  0  0  0  0  0  0  0  0
   37.6910   79.8020   52.8800 N   0  0  0  0  0  0  0  0  0  0  0  0
  1 12  1  0  0  0  0
  2  1  1  0  0  0  0
  2  7  1  0  0  0  0
  3  2  2  0  0  0  0
  4  5  2  0  0  0  0
  4  3  1  0  0  0  0
  5  6  1  0  0  0  0
  6  1  2  0  0  0  0
  8  3  1  0  0  0  0
  9 10  2  0  0  0  0
  9 20  1  0  0  0  0
 10 14  1  0  0  0  0
 11 15  1  0  0  0  0
 11 10  1  0  0  0  0
 12 11  2  0  0  0  0
 13 12  1  0  0  0  0
 13  9  1  0  0  0  0
 16 17  1  0  0  0  0
 17 18  2  0  0  0  0
 17 23  1  0  0  0  0
 18 24  1  0  0  0  0
 19 18  1  0  0  0  0
 20 19  2  0  0  0  0
 21 20  1  0  0  0  0
 21 16  2  0  0  0  0
 22 16  1  0  0  0  0
 25 26  2  0  0  0  0
 25  5  1  0  0  0  0
 27 30  1  6  0  0  0
 27 28  1  0  0  0  0
 27 25  1  0  0  0  0
 28 31  1  0  0  0  0
 29 27  1  0  0  0  0
 29 33  1  1  0  0  0
 29 28  1  0  0  0  0
 32 28  1  0  0  0  0
 34 29  1  0  0  0  0
 35 34  2  0  0  0  0
 35 36  1  0  0  0  0
 37 38  1  0  0  0  0
 37 35  1  0  0  0  0
 38 40  2  0  0  0  0
 39 38  1  0  0  0  0
 40 34  1  0  0  0  0
M  END
>  <minimizedAffinity>
-6.35331964

>  <minimizedRMSD>
0.462510198

$$$$
