
 OpenBabel03212520593D

 40 44  0  0  1  0  0  0  0  0999 V2000
   39.7820   77.4250   59.1580 C   0  0  0  0  0  0  0  0  0  0  0  0
   40.4860   76.2970   58.8640 C   0  0  0  0  0  0  0  0  0  0  0  0
   39.9430   75.5980   57.7820 C   0  0  0  0  0  0  0  0  0  0  0  0
   38.8480   75.9860   57.1010 N   0  0  0  0  0  0  0  0  0  0  0  0
   38.2160   77.1360   57.4790 C   0  0  0  0  0  0  0  0  0  0  0  0
   38.6840   77.8650   58.5160 N   0  0  0  0  0  0  0  0  0  0  0  0
   41.3540   75.9460   59.3690 H   0  0  0  0  0  0  0  0  0  0  0  0
   40.3860   74.6750   57.4190 H   0  0  0  0  0  0  0  0  0  0  0  0
   40.9730   80.3530   61.7420 C   0  0  0  0  0  0  0  0  0  0  0  0
   40.9610   79.1100   62.3310 C   0  0  0  0  0  0  0  0  0  0  0  0
   40.5830   78.0580   61.5780 C   0  0  0  0  0  0  0  0  0  0  0  0
   40.2270   78.2590   60.2570 C   0  0  0  0  0  0  0  0  0  0  0  0
   40.4310   80.0750   60.0280 S   0  0  0  0  0  0  0  0  0  0  0  0
   41.2430   78.9560   63.3720 H   0  0  0  0  0  0  0  0  0  0  0  0
   40.5080   77.0150   61.8520 H   0  0  0  0  0  0  0  0  0  0  0  0
   43.0520   83.1430   62.9050 C   0  0  0  0  0  0  0  0  0  0  0  0
   42.1520   83.8950   63.7050 C   0  0  0  0  0  0  0  0  0  0  0  0
   40.8310   83.4440   63.8380 C   0  0  0  0  0  0  0  0  0  0  0  0
   40.4720   82.3080   63.1950 N   0  0  0  0  0  0  0  0  0  0  0  0
   41.3630   81.6080   62.4330 C   0  0  0  0  0  0  0  0  0  0  0  0
   42.6210   82.0330   62.3030 N   0  0  0  0  0  0  0  0  0  0  0  0
   44.0770   83.4320   62.7610 H   0  0  0  0  0  0  0  0  0  0  0  0
   42.5120   84.7920   64.1880 H   0  0  0  0  0  0  0  0  0  0  0  0
   40.1340   83.9980   64.4400 H   0  0  0  0  0  0  0  0  0  0  0  0
   37.0420   77.5390   56.7260 C   0  0  0  0  0  0  0  0  0  0  0  0
   35.9410   77.1350   57.1310 O   0  0  0  0  0  0  0  0  0  0  0  0
   37.1340   78.4020   55.4950 C   0  0  1  0  0  0  0  0  0  0  0  0
   37.3430   79.8630   55.8220 C   0  0  0  0  0  0  0  0  0  0  0  0
   38.3750   79.0650   55.1570 C   0  0  2  0  0  0  0  0  0  0  0  0
   36.2160   78.2400   54.8630 H   0  0  0  0  0  0  0  0  0  0  0  0
   37.4420   80.1720   56.8800 H   0  0  0  0  0  0  0  0  0  0  0  0
   36.7300   80.5800   55.2430 H   0  0  0  0  0  0  0  0  0  0  0  0
   39.2550   78.7870   55.7900 H   0  0  0  0  0  0  0  0  0  0  0  0
   38.6290   79.4300   53.7150 C   0  0  0  0  0  0  0  0  0  0  0  0
   37.6980   79.1400   52.7420 C   0  0  0  0  0  0  0  0  0  0  0  0
   36.6930   78.6260   52.8890 H   0  0  0  0  0  0  0  0  0  0  0  0
   38.4420   79.7570   51.2220 S   0  0  0  0  0  0  0  0  0  0  0  0
   39.9690   80.3410   52.1690 C   0  0  0  0  0  0  0  0  0  0  0  0
   40.9300   80.8620   51.8580 H   0  0  0  0  0  0  0  0  0  0  0  0
   39.6770   80.0270   53.2030 N   0  0  0  0  0  0  0  0  0  0  0  0
  1 12  1  0  0  0  0
  2  1  1  0  0  0  0
  2  7  1  0  0  0  0
  3  2  2  0  0  0  0
  4  5  2  0  0  0  0
  4  3  1  0  0  0  0
  5  6  1  0  0  0  0
  6  1  2  0  0  0  0
  8  3  1  0  0  0  0
  9 10  2  0  0  0  0
  9 20  1  0  0  0  0
 10 14  1  0  0  0  0
 11 15  1  0  0  0  0
 11 10  1  0  0  0  0
 12 11  2  0  0  0  0
 13 12  1  0  0  0  0
 13  9  1  0  0  0  0
 16 17  1  0  0  0  0
 17 18  2  0  0  0  0
 17 23  1  0  0  0  0
 18 24  1  0  0  0  0
 19 18  1  0  0  0  0
 20 19  2  0  0  0  0
 21 20  1  0  0  0  0
 21 16  2  0  0  0  0
 22 16  1  0  0  0  0
 25 26  2  0  0  0  0
 25  5  1  0  0  0  0
 27 30  1  6  0  0  0
 27 28  1  0  0  0  0
 27 25  1  0  0  0  0
 28 31  1  0  0  0  0
 29 27  1  0  0  0  0
 29 33  1  1  0  0  0
 29 28  1  0  0  0  0
 32 28  1  0  0  0  0
 34 29  1  0  0  0  0
 35 36  1  0  0  0  0
 35 34  2  0  0  0  0
 37 38  1  0  0  0  0
 37 35  1  0  0  0  0
 38 40  2  0  0  0  0
 39 38  1  0  0  0  0
 40 34  1  0  0  0  0
M  END
>  <minimizedAffinity>
-6.37863779

>  <minimizedRMSD>
0.257287443

$$$$
