
 OpenBabel03212520593D

 40 44  0  0  1  0  0  0  0  0999 V2000
   39.7940   77.4260   59.1690 C   0  0  0  0  0  0  0  0  0  0  0  0
   40.4970   76.2960   58.8810 C   0  0  0  0  0  0  0  0  0  0  0  0
   39.9570   75.5950   57.7980 C   0  0  0  0  0  0  0  0  0  0  0  0
   38.8660   75.9840   57.1110 N   0  0  0  0  0  0  0  0  0  0  0  0
   38.2350   77.1370   57.4830 C   0  0  0  0  0  0  0  0  0  0  0  0
   38.7000   77.8670   58.5210 N   0  0  0  0  0  0  0  0  0  0  0  0
   41.3620   75.9430   59.3910 H   0  0  0  0  0  0  0  0  0  0  0  0
   40.3990   74.6700   57.4400 H   0  0  0  0  0  0  0  0  0  0  0  0
   40.9780   80.3580   61.7520 C   0  0  0  0  0  0  0  0  0  0  0  0
   40.9660   79.1160   62.3420 C   0  0  0  0  0  0  0  0  0  0  0  0
   40.5900   78.0620   61.5900 C   0  0  0  0  0  0  0  0  0  0  0  0
   40.2370   78.2610   60.2680 C   0  0  0  0  0  0  0  0  0  0  0  0
   40.4380   80.0780   60.0370 S   0  0  0  0  0  0  0  0  0  0  0  0
   41.2460   78.9630   63.3830 H   0  0  0  0  0  0  0  0  0  0  0  0
   40.5160   77.0200   61.8640 H   0  0  0  0  0  0  0  0  0  0  0  0
   43.0500   83.1520   62.9150 C   0  0  0  0  0  0  0  0  0  0  0  0
   42.1490   83.9040   63.7130 C   0  0  0  0  0  0  0  0  0  0  0  0
   40.8290   83.4500   63.8450 C   0  0  0  0  0  0  0  0  0  0  0  0
   40.4720   82.3130   63.2030 N   0  0  0  0  0  0  0  0  0  0  0  0
   41.3640   81.6140   62.4420 C   0  0  0  0  0  0  0  0  0  0  0  0
   42.6220   82.0410   62.3130 N   0  0  0  0  0  0  0  0  0  0  0  0
   44.0750   83.4430   62.7710 H   0  0  0  0  0  0  0  0  0  0  0  0
   42.5060   84.8020   64.1960 H   0  0  0  0  0  0  0  0  0  0  0  0
   40.1300   84.0040   64.4460 H   0  0  0  0  0  0  0  0  0  0  0  0
   37.0650   77.5400   56.7250 C   0  0  0  0  0  0  0  0  0  0  0  0
   35.9670   77.0990   57.0960 O   0  0  0  0  0  0  0  0  0  0  0  0
   37.1590   78.4470   55.5260 C   0  0  1  0  0  0  0  0  0  0  0  0
   37.2920   79.9040   55.9060 C   0  0  0  0  0  0  0  0  0  0  0  0
   38.3800   79.1740   55.2520 C   0  0  2  0  0  0  0  0  0  0  0  0
   36.2710   78.2670   54.8570 H   0  0  0  0  0  0  0  0  0  0  0  0
   37.3420   80.1820   56.9760 H   0  0  0  0  0  0  0  0  0  0  0  0
   36.6670   80.6130   55.3290 H   0  0  0  0  0  0  0  0  0  0  0  0
   39.2500   78.9140   55.9050 H   0  0  0  0  0  0  0  0  0  0  0  0
   38.6650   79.5980   53.8310 C   0  0  0  0  0  0  0  0  0  0  0  0
   39.9350   79.5010   53.3090 C   0  0  0  0  0  0  0  0  0  0  0  0
   40.8660   79.1180   53.8410 H   0  0  0  0  0  0  0  0  0  0  0  0
   39.7680   80.1130   51.6230 S   0  0  0  0  0  0  0  0  0  0  0  0
   37.9220   80.4230   51.8870 C   0  0  0  0  0  0  0  0  0  0  0  0
   37.0960   80.8280   51.2210 H   0  0  0  0  0  0  0  0  0  0  0  0
   37.8260   80.0810   52.9480 N   0  0  0  0  0  0  0  0  0  0  0  0
  1 12  1  0  0  0  0
  2  1  1  0  0  0  0
  2  7  1  0  0  0  0
  3  2  2  0  0  0  0
  4  5  2  0  0  0  0
  4  3  1  0  0  0  0
  5  6  1  0  0  0  0
  6  1  2  0  0  0  0
  8  3  1  0  0  0  0
  9 10  2  0  0  0  0
  9 20  1  0  0  0  0
 10 14  1  0  0  0  0
 11 15  1  0  0  0  0
 11 10  1  0  0  0  0
 12 11  2  0  0  0  0
 13 12  1  0  0  0  0
 13  9  1  0  0  0  0
 16 17  1  0  0  0  0
 17 18  2  0  0  0  0
 17 23  1  0  0  0  0
 18 24  1  0  0  0  0
 19 18  1  0  0  0  0
 20 19  2  0  0  0  0
 21 20  1  0  0  0  0
 21 16  2  0  0  0  0
 22 16  1  0  0  0  0
 25 26  2  0  0  0  0
 25  5  1  0  0  0  0
 27 30  1  6  0  0  0
 27 28  1  0  0  0  0
 27 25  1  0  0  0  0
 28 31  1  0  0  0  0
 29 27  1  0  0  0  0
 29 33  1  1  0  0  0
 29 28  1  0  0  0  0
 32 28  1  0  0  0  0
 34 29  1  0  0  0  0
 35 34  2  0  0  0  0
 35 36  1  0  0  0  0
 37 38  1  0  0  0  0
 37 35  1  0  0  0  0
 38 40  2  0  0  0  0
 39 38  1  0  0  0  0
 40 34  1  0  0  0  0
M  END
>  <minimizedAffinity>
-6.41038799

>  <minimizedRMSD>
0.192872435

$$$$
