
 OpenBabel03212520593D

 40 44  0  0  1  0  0  0  0  0999 V2000
   39.7960   77.3860   59.1900 C   0  0  0  0  0  0  0  0  0  0  0  0
   40.5090   76.2650   58.8960 C   0  0  0  0  0  0  0  0  0  0  0  0
   39.9670   75.5560   57.8200 C   0  0  0  0  0  0  0  0  0  0  0  0
   38.8640   75.9320   57.1440 N   0  0  0  0  0  0  0  0  0  0  0  0
   38.2220   77.0760   57.5210 C   0  0  0  0  0  0  0  0  0  0  0  0
   38.6900   77.8140   58.5530 N   0  0  0  0  0  0  0  0  0  0  0  0
   41.3830   75.9240   59.3970 H   0  0  0  0  0  0  0  0  0  0  0  0
   40.4160   74.6360   57.4580 H   0  0  0  0  0  0  0  0  0  0  0  0
   40.9820   80.3340   61.7540 C   0  0  0  0  0  0  0  0  0  0  0  0
   40.9720   79.0960   62.3520 C   0  0  0  0  0  0  0  0  0  0  0  0
   40.5960   78.0370   61.6060 C   0  0  0  0  0  0  0  0  0  0  0  0
   40.2390   78.2290   60.2830 C   0  0  0  0  0  0  0  0  0  0  0  0
   40.4400   80.0440   60.0420 S   0  0  0  0  0  0  0  0  0  0  0  0
   41.2540   78.9490   63.3930 H   0  0  0  0  0  0  0  0  0  0  0  0
   40.5230   76.9970   61.8860 H   0  0  0  0  0  0  0  0  0  0  0  0
   43.0550   83.1360   62.8980 C   0  0  0  0  0  0  0  0  0  0  0  0
   42.1540   83.8920   63.6930 C   0  0  0  0  0  0  0  0  0  0  0  0
   40.8340   83.4390   63.8290 C   0  0  0  0  0  0  0  0  0  0  0  0
   40.4770   82.2980   63.1940 N   0  0  0  0  0  0  0  0  0  0  0  0
   41.3690   81.5950   62.4360 C   0  0  0  0  0  0  0  0  0  0  0  0
   42.6260   82.0210   62.3030 N   0  0  0  0  0  0  0  0  0  0  0  0
   44.0790   83.4260   62.7510 H   0  0  0  0  0  0  0  0  0  0  0  0
   42.5120   84.7930   64.1700 H   0  0  0  0  0  0  0  0  0  0  0  0
   40.1360   83.9960   64.4280 H   0  0  0  0  0  0  0  0  0  0  0  0
   37.0410   77.4650   56.7750 C   0  0  0  0  0  0  0  0  0  0  0  0
   35.9510   77.0130   57.1590 O   0  0  0  0  0  0  0  0  0  0  0  0
   37.1110   78.3690   55.5720 C   0  0  1  0  0  0  0  0  0  0  0  0
   37.2990   79.8220   55.9460 C   0  0  0  0  0  0  0  0  0  0  0  0
   38.3390   79.0630   55.2490 C   0  0  2  0  0  0  0  0  0  0  0  0
   36.1920   78.2130   54.9390 H   0  0  0  0  0  0  0  0  0  0  0  0
   37.3980   80.0980   57.0130 H   0  0  0  0  0  0  0  0  0  0  0  0
   36.6710   80.5480   55.3940 H   0  0  0  0  0  0  0  0  0  0  0  0
   39.2280   78.7790   55.8680 H   0  0  0  0  0  0  0  0  0  0  0  0
   38.5790   79.4800   53.8180 C   0  0  0  0  0  0  0  0  0  0  0  0
   37.5230   79.6640   52.9530 C   0  0  0  0  0  0  0  0  0  0  0  0
   36.4160   79.5350   53.1880 H   0  0  0  0  0  0  0  0  0  0  0  0
   38.3020   80.1440   51.4010 S   0  0  0  0  0  0  0  0  0  0  0  0
   40.0160   80.0190   52.1870 C   0  0  0  0  0  0  0  0  0  0  0  0
   41.0680   80.1880   51.7960 H   0  0  0  0  0  0  0  0  0  0  0  0
   39.7220   79.7110   53.2230 N   0  0  0  0  0  0  0  0  0  0  0  0
  1 12  1  0  0  0  0
  2  1  1  0  0  0  0
  2  7  1  0  0  0  0
  3  2  2  0  0  0  0
  4  5  2  0  0  0  0
  4  3  1  0  0  0  0
  5  6  1  0  0  0  0
  6  1  2  0  0  0  0
  8  3  1  0  0  0  0
  9 10  2  0  0  0  0
  9 20  1  0  0  0  0
 10 14  1  0  0  0  0
 11 15  1  0  0  0  0
 11 10  1  0  0  0  0
 12 11  2  0  0  0  0
 13 12  1  0  0  0  0
 13  9  1  0  0  0  0
 16 17  1  0  0  0  0
 17 18  2  0  0  0  0
 17 23  1  0  0  0  0
 18 24  1  0  0  0  0
 19 18  1  0  0  0  0
 20 19  2  0  0  0  0
 21 20  1  0  0  0  0
 21 16  2  0  0  0  0
 22 16  1  0  0  0  0
 25 26  2  0  0  0  0
 25  5  1  0  0  0  0
 27 30  1  6  0  0  0
 27 28  1  0  0  0  0
 27 25  1  0  0  0  0
 28 31  1  0  0  0  0
 29 27  1  0  0  0  0
 29 33  1  1  0  0  0
 29 28  1  0  0  0  0
 32 28  1  0  0  0  0
 34 29  1  0  0  0  0
 35 36  1  0  0  0  0
 35 34  2  0  0  0  0
 37 38  1  0  0  0  0
 37 35  1  0  0  0  0
 38 40  2  0  0  0  0
 39 38  1  0  0  0  0
 40 34  1  0  0  0  0
M  END
>  <minimizedAffinity>
-6.31904793

>  <minimizedRMSD>
0.327379137

$$$$
