
 OpenBabel03212520593D

 40 44  0  0  1  0  0  0  0  0999 V2000
   39.8960   77.5630   59.1050 C   0  0  0  0  0  0  0  0  0  0  0  0
   40.6600   76.4880   58.7670 C   0  0  0  0  0  0  0  0  0  0  0  0
   40.1470   75.7960   57.6660 C   0  0  0  0  0  0  0  0  0  0  0  0
   39.0250   76.1440   57.0070 N   0  0  0  0  0  0  0  0  0  0  0  0
   38.3320   77.2420   57.4290 C   0  0  0  0  0  0  0  0  0  0  0  0
   38.7690   77.9610   58.4870 N   0  0  0  0  0  0  0  0  0  0  0  0
   41.5520   76.1700   59.2530 H   0  0  0  0  0  0  0  0  0  0  0  0
   40.6380   74.9130   57.2680 H   0  0  0  0  0  0  0  0  0  0  0  0
   40.9880   80.4610   61.7650 C   0  0  0  0  0  0  0  0  0  0  0  0
   40.9750   79.2090   62.3340 C   0  0  0  0  0  0  0  0  0  0  0  0
   40.6280   78.1650   61.5550 C   0  0  0  0  0  0  0  0  0  0  0  0
   40.3040   78.3840   60.2280 C   0  0  0  0  0  0  0  0  0  0  0  0
   40.4920   80.2060   60.0330 S   0  0  0  0  0  0  0  0  0  0  0  0
   41.2320   79.0410   63.3780 H   0  0  0  0  0  0  0  0  0  0  0  0
   40.5580   77.1170   61.8090 H   0  0  0  0  0  0  0  0  0  0  0  0
   43.0030   83.2570   63.0220 C   0  0  0  0  0  0  0  0  0  0  0  0
   42.0760   83.9830   63.8140 C   0  0  0  0  0  0  0  0  0  0  0  0
   40.7600   83.5130   63.9100 C   0  0  0  0  0  0  0  0  0  0  0  0
   40.4300   82.3830   63.2400 N   0  0  0  0  0  0  0  0  0  0  0  0
   41.3460   81.7090   62.4860 C   0  0  0  0  0  0  0  0  0  0  0  0
   42.6010   82.1520   62.3910 N   0  0  0  0  0  0  0  0  0  0  0  0
   44.0280   83.5620   62.9050 H   0  0  0  0  0  0  0  0  0  0  0  0
   42.4140   84.8770   64.3210 H   0  0  0  0  0  0  0  0  0  0  0  0
   40.0420   84.0480   64.5060 H   0  0  0  0  0  0  0  0  0  0  0  0
   37.1300   77.6020   56.7000 C   0  0  0  0  0  0  0  0  0  0  0  0
   36.0520   77.1620   57.1290 O   0  0  0  0  0  0  0  0  0  0  0  0
   37.1670   78.4630   55.4650 C   0  0  1  0  0  0  0  0  0  0  0  0
   37.3150   79.9340   55.7840 C   0  0  0  0  0  0  0  0  0  0  0  0
   38.3730   79.1800   55.1080 C   0  0  2  0  0  0  0  0  0  0  0  0
   36.2490   78.2580   54.8450 H   0  0  0  0  0  0  0  0  0  0  0  0
   37.4130   80.2510   56.8400 H   0  0  0  0  0  0  0  0  0  0  0  0
   36.6630   80.6200   55.2110 H   0  0  0  0  0  0  0  0  0  0  0  0
   39.2720   78.9440   55.7300 H   0  0  0  0  0  0  0  0  0  0  0  0
   38.5910   79.5510   53.6610 C   0  0  0  0  0  0  0  0  0  0  0  0
   37.5980   79.3510   52.7270 C   0  0  0  0  0  0  0  0  0  0  0  0
   36.5630   78.9150   52.9120 H   0  0  0  0  0  0  0  0  0  0  0  0
   38.3210   79.9360   51.1840 S   0  0  0  0  0  0  0  0  0  0  0  0
   39.9290   80.3820   52.0700 C   0  0  0  0  0  0  0  0  0  0  0  0
   40.9130   80.8300   51.7230 H   0  0  0  0  0  0  0  0  0  0  0  0
   39.6600   80.0710   53.1120 N   0  0  0  0  0  0  0  0  0  0  0  0
  1 12  1  0  0  0  0
  2  1  1  0  0  0  0
  2  7  1  0  0  0  0
  3  2  2  0  0  0  0
  4  5  2  0  0  0  0
  4  3  1  0  0  0  0
  5  6  1  0  0  0  0
  6  1  2  0  0  0  0
  8  3  1  0  0  0  0
  9 10  2  0  0  0  0
  9 20  1  0  0  0  0
 10 14  1  0  0  0  0
 11 15  1  0  0  0  0
 11 10  1  0  0  0  0
 12 11  2  0  0  0  0
 13 12  1  0  0  0  0
 13  9  1  0  0  0  0
 16 17  1  0  0  0  0
 17 18  2  0  0  0  0
 17 23  1  0  0  0  0
 18 24  1  0  0  0  0
 19 18  1  0  0  0  0
 20 19  2  0  0  0  0
 21 20  1  0  0  0  0
 21 16  2  0  0  0  0
 22 16  1  0  0  0  0
 25 26  2  0  0  0  0
 25  5  1  0  0  0  0
 27 30  1  6  0  0  0
 27 28  1  0  0  0  0
 27 25  1  0  0  0  0
 28 31  1  0  0  0  0
 29 27  1  0  0  0  0
 29 33  1  1  0  0  0
 29 28  1  0  0  0  0
 32 28  1  0  0  0  0
 34 29  1  0  0  0  0
 35 36  1  0  0  0  0
 35 34  2  0  0  0  0
 37 38  1  0  0  0  0
 37 35  1  0  0  0  0
 38 40  2  0  0  0  0
 39 38  1  0  0  0  0
 40 34  1  0  0  0  0
M  END
>  <minimizedAffinity>
-6.36519051

>  <minimizedRMSD>
0.3255876

$$$$
