
 OpenBabel03212520593D

 40 44  0  0  1  0  0  0  0  0999 V2000
   39.7910   77.3800   59.1750 C   0  0  0  0  0  0  0  0  0  0  0  0
   40.5130   76.2660   58.8700 C   0  0  0  0  0  0  0  0  0  0  0  0
   39.9690   75.5570   57.7950 C   0  0  0  0  0  0  0  0  0  0  0  0
   38.8580   75.9260   57.1280 N   0  0  0  0  0  0  0  0  0  0  0  0
   38.2090   77.0630   57.5160 C   0  0  0  0  0  0  0  0  0  0  0  0
   38.6770   77.8000   58.5480 N   0  0  0  0  0  0  0  0  0  0  0  0
   41.3940   75.9310   59.3640 H   0  0  0  0  0  0  0  0  0  0  0  0
   40.4240   74.6430   57.4260 H   0  0  0  0  0  0  0  0  0  0  0  0
   40.9780   80.3260   61.7400 C   0  0  0  0  0  0  0  0  0  0  0  0
   40.9670   79.0870   62.3370 C   0  0  0  0  0  0  0  0  0  0  0  0
   40.5910   78.0300   61.5910 C   0  0  0  0  0  0  0  0  0  0  0  0
   40.2350   78.2220   60.2680 C   0  0  0  0  0  0  0  0  0  0  0  0
   40.4360   80.0370   60.0270 S   0  0  0  0  0  0  0  0  0  0  0  0
   41.2480   78.9400   63.3790 H   0  0  0  0  0  0  0  0  0  0  0  0
   40.5170   76.9890   61.8710 H   0  0  0  0  0  0  0  0  0  0  0  0
   43.0520   83.1260   62.8870 C   0  0  0  0  0  0  0  0  0  0  0  0
   42.1510   83.8830   63.6810 C   0  0  0  0  0  0  0  0  0  0  0  0
   40.8300   83.4310   63.8150 C   0  0  0  0  0  0  0  0  0  0  0  0
   40.4730   82.2900   63.1790 N   0  0  0  0  0  0  0  0  0  0  0  0
   41.3650   81.5860   62.4230 C   0  0  0  0  0  0  0  0  0  0  0  0
   42.6240   82.0110   62.2920 N   0  0  0  0  0  0  0  0  0  0  0  0
   44.0770   83.4150   62.7420 H   0  0  0  0  0  0  0  0  0  0  0  0
   42.5090   84.7840   64.1580 H   0  0  0  0  0  0  0  0  0  0  0  0
   40.1320   83.9890   64.4120 H   0  0  0  0  0  0  0  0  0  0  0  0
   37.0180   77.4440   56.7790 C   0  0  0  0  0  0  0  0  0  0  0  0
   35.9290   77.0310   57.2060 O   0  0  0  0  0  0  0  0  0  0  0  0
   37.0790   78.2950   55.5380 C   0  0  1  0  0  0  0  0  0  0  0  0
   37.3300   79.7540   55.8440 C   0  0  0  0  0  0  0  0  0  0  0  0
   38.3190   78.9300   55.1460 C   0  0  2  0  0  0  0  0  0  0  0  0
   36.1340   78.1470   54.9430 H   0  0  0  0  0  0  0  0  0  0  0  0
   37.4760   80.0700   56.8940 H   0  0  0  0  0  0  0  0  0  0  0  0
   36.7090   80.4790   55.2830 H   0  0  0  0  0  0  0  0  0  0  0  0
   39.2180   78.6390   55.7460 H   0  0  0  0  0  0  0  0  0  0  0  0
   38.5240   79.2790   53.6920 C   0  0  0  0  0  0  0  0  0  0  0  0
   39.7360   79.7580   53.2470 C   0  0  0  0  0  0  0  0  0  0  0  0
   40.6700   79.9390   53.8700 H   0  0  0  0  0  0  0  0  0  0  0  0
   39.4850   80.0200   51.4820 S   0  0  0  0  0  0  0  0  0  0  0  0
   37.6990   79.4160   51.6140 C   0  0  0  0  0  0  0  0  0  0  0  0
   36.8590   79.2910   50.8600 H   0  0  0  0  0  0  0  0  0  0  0  0
   37.6600   79.1910   52.7100 N   0  0  0  0  0  0  0  0  0  0  0  0
  1 12  1  0  0  0  0
  2  1  1  0  0  0  0
  2  7  1  0  0  0  0
  3  2  2  0  0  0  0
  4  5  2  0  0  0  0
  4  3  1  0  0  0  0
  5  6  1  0  0  0  0
  6  1  2  0  0  0  0
  8  3  1  0  0  0  0
  9 10  2  0  0  0  0
  9 20  1  0  0  0  0
 10 14  1  0  0  0  0
 11 15  1  0  0  0  0
 11 10  1  0  0  0  0
 12 11  2  0  0  0  0
 13 12  1  0  0  0  0
 13  9  1  0  0  0  0
 16 17  1  0  0  0  0
 17 18  2  0  0  0  0
 17 23  1  0  0  0  0
 18 24  1  0  0  0  0
 19 18  1  0  0  0  0
 20 19  2  0  0  0  0
 21 20  1  0  0  0  0
 21 16  2  0  0  0  0
 22 16  1  0  0  0  0
 25 26  2  0  0  0  0
 25  5  1  0  0  0  0
 27 30  1  6  0  0  0
 27 28  1  0  0  0  0
 27 25  1  0  0  0  0
 28 31  1  0  0  0  0
 29 27  1  0  0  0  0
 29 33  1  1  0  0  0
 29 28  1  0  0  0  0
 32 28  1  0  0  0  0
 34 29  1  0  0  0  0
 35 34  2  0  0  0  0
 35 36  1  0  0  0  0
 37 38  1  0  0  0  0
 37 35  1  0  0  0  0
 38 40  2  0  0  0  0
 39 38  1  0  0  0  0
 40 34  1  0  0  0  0
M  END
>  <minimizedAffinity>
-6.34724855

>  <minimizedRMSD>
0.517187953

$$$$
