
 OpenBabel03212520593D

 40 44  0  0  1  0  0  0  0  0999 V2000
   39.7880   77.4200   59.1650 C   0  0  0  0  0  0  0  0  0  0  0  0
   40.4940   76.2930   58.8730 C   0  0  0  0  0  0  0  0  0  0  0  0
   39.9530   75.5910   57.7910 C   0  0  0  0  0  0  0  0  0  0  0  0
   38.8590   75.9790   57.1080 N   0  0  0  0  0  0  0  0  0  0  0  0
   38.2250   77.1280   57.4840 C   0  0  0  0  0  0  0  0  0  0  0  0
   38.6920   77.8590   58.5210 N   0  0  0  0  0  0  0  0  0  0  0  0
   41.3610   75.9420   59.3800 H   0  0  0  0  0  0  0  0  0  0  0  0
   40.3960   74.6690   57.4300 H   0  0  0  0  0  0  0  0  0  0  0  0
   40.9760   80.3520   61.7460 C   0  0  0  0  0  0  0  0  0  0  0  0
   40.9620   79.1100   62.3370 C   0  0  0  0  0  0  0  0  0  0  0  0
   40.5850   78.0570   61.5850 C   0  0  0  0  0  0  0  0  0  0  0  0
   40.2320   78.2560   60.2630 C   0  0  0  0  0  0  0  0  0  0  0  0
   40.4360   80.0720   60.0310 S   0  0  0  0  0  0  0  0  0  0  0  0
   41.2420   78.9570   63.3790 H   0  0  0  0  0  0  0  0  0  0  0  0
   40.5090   77.0150   61.8600 H   0  0  0  0  0  0  0  0  0  0  0  0
   43.0520   83.1450   62.9070 C   0  0  0  0  0  0  0  0  0  0  0  0
   42.1510   83.8970   63.7060 C   0  0  0  0  0  0  0  0  0  0  0  0
   40.8310   83.4450   63.8390 C   0  0  0  0  0  0  0  0  0  0  0  0
   40.4730   82.3070   63.1980 N   0  0  0  0  0  0  0  0  0  0  0  0
   41.3640   81.6080   62.4360 C   0  0  0  0  0  0  0  0  0  0  0  0
   42.6220   82.0340   62.3050 N   0  0  0  0  0  0  0  0  0  0  0  0
   44.0760   83.4350   62.7620 H   0  0  0  0  0  0  0  0  0  0  0  0
   42.5100   84.7950   64.1880 H   0  0  0  0  0  0  0  0  0  0  0  0
   40.1330   83.9990   64.4410 H   0  0  0  0  0  0  0  0  0  0  0  0
   37.0520   77.5300   56.7290 C   0  0  0  0  0  0  0  0  0  0  0  0
   35.9520   77.1130   57.1240 O   0  0  0  0  0  0  0  0  0  0  0  0
   37.1440   78.4050   55.5070 C   0  0  1  0  0  0  0  0  0  0  0  0
   37.3450   79.8640   55.8490 C   0  0  0  0  0  0  0  0  0  0  0  0
   38.3830   79.0770   55.1790 C   0  0  2  0  0  0  0  0  0  0  0  0
   36.2280   78.2460   54.8700 H   0  0  0  0  0  0  0  0  0  0  0  0
   37.4400   80.1630   56.9100 H   0  0  0  0  0  0  0  0  0  0  0  0
   36.7310   80.5840   55.2750 H   0  0  0  0  0  0  0  0  0  0  0  0
   39.2620   78.7960   55.8110 H   0  0  0  0  0  0  0  0  0  0  0  0
   38.6390   79.4580   53.7410 C   0  0  0  0  0  0  0  0  0  0  0  0
   39.8280   79.1310   53.1290 C   0  0  0  0  0  0  0  0  0  0  0  0
   40.7070   78.5750   53.5920 H   0  0  0  0  0  0  0  0  0  0  0  0
   39.6580   79.7840   51.4580 S   0  0  0  0  0  0  0  0  0  0  0  0
   37.9270   80.4300   51.8540 C   0  0  0  0  0  0  0  0  0  0  0  0
   37.1460   80.9900   51.2490 H   0  0  0  0  0  0  0  0  0  0  0  0
   37.8450   80.0990   52.9200 N   0  0  0  0  0  0  0  0  0  0  0  0
  1 12  1  0  0  0  0
  2  1  1  0  0  0  0
  2  7  1  0  0  0  0
  3  2  2  0  0  0  0
  4  5  2  0  0  0  0
  4  3  1  0  0  0  0
  5  6  1  0  0  0  0
  6  1  2  0  0  0  0
  8  3  1  0  0  0  0
  9 10  2  0  0  0  0
  9 20  1  0  0  0  0
 10 14  1  0  0  0  0
 11 15  1  0  0  0  0
 11 10  1  0  0  0  0
 12 11  2  0  0  0  0
 13 12  1  0  0  0  0
 13  9  1  0  0  0  0
 16 17  1  0  0  0  0
 17 18  2  0  0  0  0
 17 23  1  0  0  0  0
 18 24  1  0  0  0  0
 19 18  1  0  0  0  0
 20 19  2  0  0  0  0
 21 20  1  0  0  0  0
 21 16  2  0  0  0  0
 22 16  1  0  0  0  0
 25 26  2  0  0  0  0
 25  5  1  0  0  0  0
 27 30  1  6  0  0  0
 27 28  1  0  0  0  0
 27 25  1  0  0  0  0
 28 31  1  0  0  0  0
 29 27  1  0  0  0  0
 29 33  1  1  0  0  0
 29 28  1  0  0  0  0
 32 28  1  0  0  0  0
 34 29  1  0  0  0  0
 35 36  1  0  0  0  0
 35 34  2  0  0  0  0
 37 38  1  0  0  0  0
 37 35  1  0  0  0  0
 38 40  2  0  0  0  0
 39 38  1  0  0  0  0
 40 34  1  0  0  0  0
M  END
>  <minimizedAffinity>
-6.37201071

>  <minimizedRMSD>
0.242317468

$$$$
