
 OpenBabel03212520593D

 40 44  0  0  1  0  0  0  0  0999 V2000
   39.7090   77.2310   59.1880 C   0  0  0  0  0  0  0  0  0  0  0  0
   40.3610   76.0590   58.9530 C   0  0  0  0  0  0  0  0  0  0  0  0
   39.8070   75.3470   57.8860 C   0  0  0  0  0  0  0  0  0  0  0  0
   38.7490   75.7630   57.1640 N   0  0  0  0  0  0  0  0  0  0  0  0
   38.1680   76.9570   57.4830 C   0  0  0  0  0  0  0  0  0  0  0  0
   38.6500   77.7010   58.5040 N   0  0  0  0  0  0  0  0  0  0  0  0
   41.1990   75.6840   59.4920 H   0  0  0  0  0  0  0  0  0  0  0  0
   40.2100   74.3900   57.5680 H   0  0  0  0  0  0  0  0  0  0  0  0
   40.9620   80.1990   61.6960 C   0  0  0  0  0  0  0  0  0  0  0  0
   40.9250   78.9720   62.3170 C   0  0  0  0  0  0  0  0  0  0  0  0
   40.5250   77.9090   61.5910 C   0  0  0  0  0  0  0  0  0  0  0  0
   40.1720   78.0840   60.2650 C   0  0  0  0  0  0  0  0  0  0  0  0
   40.4120   79.8890   59.9900 S   0  0  0  0  0  0  0  0  0  0  0  0
   41.2040   78.8390   63.3610 H   0  0  0  0  0  0  0  0  0  0  0  0
   40.4290   76.8760   61.8910 H   0  0  0  0  0  0  0  0  0  0  0  0
   43.0940   82.9820   62.7770 C   0  0  0  0  0  0  0  0  0  0  0  0
   42.2130   83.7660   63.5680 C   0  0  0  0  0  0  0  0  0  0  0  0
   40.8870   83.3380   63.7230 C   0  0  0  0  0  0  0  0  0  0  0  0
   40.5050   82.1940   63.1090 N   0  0  0  0  0  0  0  0  0  0  0  0
   41.3770   81.4630   62.3550 C   0  0  0  0  0  0  0  0  0  0  0  0
   42.6410   81.8650   62.2040 N   0  0  0  0  0  0  0  0  0  0  0  0
   44.1220   83.2510   62.6170 H   0  0  0  0  0  0  0  0  0  0  0  0
   42.5910   84.6680   64.0270 H   0  0  0  0  0  0  0  0  0  0  0  0
   40.2040   83.9170   64.3190 H   0  0  0  0  0  0  0  0  0  0  0  0
   37.0330   77.3890   56.6880 C   0  0  0  0  0  0  0  0  0  0  0  0
   35.9020   77.1280   57.1240 O   0  0  0  0  0  0  0  0  0  0  0  0
   37.1990   78.1150   55.3790 C   0  0  1  0  0  0  0  0  0  0  0  0
   37.3820   79.6050   55.5590 C   0  0  0  0  0  0  0  0  0  0  0  0
   38.4570   78.7510   55.0500 C   0  0  2  0  0  0  0  0  0  0  0  0
   36.3230   77.8770   54.7120 H   0  0  0  0  0  0  0  0  0  0  0  0
   37.4130   80.0280   56.5810 H   0  0  0  0  0  0  0  0  0  0  0  0
   36.8040   80.2500   54.8690 H   0  0  0  0  0  0  0  0  0  0  0  0
   39.2960   78.5520   55.7620 H   0  0  0  0  0  0  0  0  0  0  0  0
   38.7990   78.9620   53.5940 C   0  0  0  0  0  0  0  0  0  0  0  0
   38.6210   77.9500   52.6770 C   0  0  0  0  0  0  0  0  0  0  0  0
   38.2220   76.9040   52.8810 H   0  0  0  0  0  0  0  0  0  0  0  0
   39.1580   78.6710   51.1150 S   0  0  0  0  0  0  0  0  0  0  0  0
   39.5630   80.3040   51.9740 C   0  0  0  0  0  0  0  0  0  0  0  0
   39.9730   81.2990   51.6080 H   0  0  0  0  0  0  0  0  0  0  0  0
   39.2760   80.0390   53.0240 N   0  0  0  0  0  0  0  0  0  0  0  0
  1 12  1  0  0  0  0
  2  1  1  0  0  0  0
  2  7  1  0  0  0  0
  3  2  2  0  0  0  0
  4  5  2  0  0  0  0
  4  3  1  0  0  0  0
  5  6  1  0  0  0  0
  6  1  2  0  0  0  0
  8  3  1  0  0  0  0
  9 10  2  0  0  0  0
  9 20  1  0  0  0  0
 10 14  1  0  0  0  0
 11 15  1  0  0  0  0
 11 10  1  0  0  0  0
 12 11  2  0  0  0  0
 13 12  1  0  0  0  0
 13  9  1  0  0  0  0
 16 17  1  0  0  0  0
 17 18  2  0  0  0  0
 17 23  1  0  0  0  0
 18 24  1  0  0  0  0
 19 18  1  0  0  0  0
 20 19  2  0  0  0  0
 21 20  1  0  0  0  0
 21 16  2  0  0  0  0
 22 16  1  0  0  0  0
 25 26  2  0  0  0  0
 25  5  1  0  0  0  0
 27 30  1  6  0  0  0
 27 28  1  0  0  0  0
 27 25  1  0  0  0  0
 28 31  1  0  0  0  0
 29 27  1  0  0  0  0
 29 28  1  0  0  0  0
 29 33  1  1  0  0  0
 32 28  1  0  0  0  0
 34 29  1  0  0  0  0
 35 36  1  0  0  0  0
 35 34  2  0  0  0  0
 37 38  1  0  0  0  0
 37 35  1  0  0  0  0
 38 40  2  0  0  0  0
 39 38  1  0  0  0  0
 40 34  1  0  0  0  0
M  END
>  <minimizedAffinity>
-6.32552433

>  <minimizedRMSD>
0.477208734

$$$$
