
 OpenBabel03212520593D

 40 44  0  0  1  0  0  0  0  0999 V2000
   39.6810   77.1950   59.1120 C   0  0  0  0  0  0  0  0  0  0  0  0
   40.3510   76.0410   58.8400 C   0  0  0  0  0  0  0  0  0  0  0  0
   39.7830   75.3340   57.7760 C   0  0  0  0  0  0  0  0  0  0  0  0
   38.6960   75.7400   57.0910 N   0  0  0  0  0  0  0  0  0  0  0  0
   38.0990   76.9150   57.4470 C   0  0  0  0  0  0  0  0  0  0  0  0
   38.5940   77.6530   58.4660 N   0  0  0  0  0  0  0  0  0  0  0  0
   41.2110   75.6760   59.3490 H   0  0  0  0  0  0  0  0  0  0  0  0
   40.1970   74.3920   57.4320 H   0  0  0  0  0  0  0  0  0  0  0  0
   40.9620   80.1440   61.6280 C   0  0  0  0  0  0  0  0  0  0  0  0
   40.9320   78.9130   62.2410 C   0  0  0  0  0  0  0  0  0  0  0  0
   40.5240   77.8550   61.5110 C   0  0  0  0  0  0  0  0  0  0  0  0
   40.1560   78.0390   60.1910 C   0  0  0  0  0  0  0  0  0  0  0  0
   40.3940   79.8470   59.9260 S   0  0  0  0  0  0  0  0  0  0  0  0
   41.2220   78.7710   63.2800 H   0  0  0  0  0  0  0  0  0  0  0  0
   40.4310   76.8190   61.8040 H   0  0  0  0  0  0  0  0  0  0  0  0
   43.1120   82.9060   62.7260 C   0  0  0  0  0  0  0  0  0  0  0  0
   42.2350   83.6960   63.5140 C   0  0  0  0  0  0  0  0  0  0  0  0
   40.9040   83.2800   63.6610 C   0  0  0  0  0  0  0  0  0  0  0  0
   40.5150   82.1390   63.0430 N   0  0  0  0  0  0  0  0  0  0  0  0
   41.3850   81.4030   62.2920 C   0  0  0  0  0  0  0  0  0  0  0  0
   42.6530   81.7940   62.1480 N   0  0  0  0  0  0  0  0  0  0  0  0
   44.1440   83.1670   62.5710 H   0  0  0  0  0  0  0  0  0  0  0  0
   42.6180   84.5940   63.9770 H   0  0  0  0  0  0  0  0  0  0  0  0
   40.2230   83.8630   64.2540 H   0  0  0  0  0  0  0  0  0  0  0  0
   36.9340   77.3350   56.6910 C   0  0  0  0  0  0  0  0  0  0  0  0
   35.8210   77.1170   57.1940 O   0  0  0  0  0  0  0  0  0  0  0  0
   37.0460   78.0010   55.3450 C   0  0  1  0  0  0  0  0  0  0  0  0
   37.3990   79.4680   55.4470 C   0  0  0  0  0  0  0  0  0  0  0  0
   38.3250   78.4890   54.8740 C   0  0  2  0  0  0  0  0  0  0  0  0
   36.0900   77.8370   54.7720 H   0  0  0  0  0  0  0  0  0  0  0  0
   37.5720   79.9140   56.4440 H   0  0  0  0  0  0  0  0  0  0  0  0
   36.8260   80.1490   54.7880 H   0  0  0  0  0  0  0  0  0  0  0  0
   39.2040   78.2220   55.5120 H   0  0  0  0  0  0  0  0  0  0  0  0
   38.5450   78.6180   53.3860 C   0  0  0  0  0  0  0  0  0  0  0  0
   37.9540   79.6380   52.6730 C   0  0  0  0  0  0  0  0  0  0  0  0
   37.2740   80.4540   53.0830 H   0  0  0  0  0  0  0  0  0  0  0  0
   38.5070   79.3700   50.9790 S   0  0  0  0  0  0  0  0  0  0  0  0
   39.4980   77.8520   51.5110 C   0  0  0  0  0  0  0  0  0  0  0  0
   40.1550   77.1130   50.9510 H   0  0  0  0  0  0  0  0  0  0  0  0
   39.2670   77.8520   52.6060 N   0  0  0  0  0  0  0  0  0  0  0  0
  1 12  1  0  0  0  0
  2  1  1  0  0  0  0
  2  7  1  0  0  0  0
  3  2  2  0  0  0  0
  4  5  2  0  0  0  0
  4  3  1  0  0  0  0
  5  6  1  0  0  0  0
  6  1  2  0  0  0  0
  8  3  1  0  0  0  0
  9 10  2  0  0  0  0
  9 20  1  0  0  0  0
 10 14  1  0  0  0  0
 11 15  1  0  0  0  0
 11 10  1  0  0  0  0
 12 11  2  0  0  0  0
 13 12  1  0  0  0  0
 13  9  1  0  0  0  0
 16 17  1  0  0  0  0
 17 18  2  0  0  0  0
 17 23  1  0  0  0  0
 18 24  1  0  0  0  0
 19 18  1  0  0  0  0
 20 19  2  0  0  0  0
 21 20  1  0  0  0  0
 21 16  2  0  0  0  0
 22 16  1  0  0  0  0
 25 26  2  0  0  0  0
 25  5  1  0  0  0  0
 27 30  1  6  0  0  0
 27 28  1  0  0  0  0
 27 25  1  0  0  0  0
 28 31  1  0  0  0  0
 29 27  1  0  0  0  0
 29 28  1  0  0  0  0
 29 33  1  1  0  0  0
 32 28  1  0  0  0  0
 34 29  1  0  0  0  0
 35 36  1  0  0  0  0
 35 34  2  0  0  0  0
 37 38  1  0  0  0  0
 37 35  1  0  0  0  0
 38 40  2  0  0  0  0
 39 38  1  0  0  0  0
 40 34  1  0  0  0  0
M  END
>  <minimizedAffinity>
-6.20774603

>  <minimizedRMSD>
0.729843616

$$$$
