
 OpenBabel03212520023D

 29 32  0  0  0  0  0  0  0  0999 V2000
   40.1840   81.2410   57.2750 C   0  0  0  0  0  0  0  0  0  0  0  0
   41.1050   81.8210   56.3860 C   0  0  0  0  0  0  0  0  0  0  0  0
   41.9300   82.8150   56.8820 C   0  0  0  0  0  0  0  0  0  0  0  0
   41.8210   83.1870   58.1830 N   0  0  0  0  0  0  0  0  0  0  0  0
   40.9290   82.6140   59.0140 C   0  0  0  0  0  0  0  0  0  0  0  0
   40.1190   81.6450   58.5480 N   0  0  0  0  0  0  0  0  0  0  0  0
   39.5460   80.4660   56.8770 H   0  0  0  0  0  0  0  0  0  0  0  0
   41.1340   81.4820   55.3870 H   0  0  0  0  0  0  0  0  0  0  0  0
   39.5420   83.0330   60.9890 C   0  0  0  0  0  0  0  0  0  0  0  0
   40.8220   83.0260   60.4020 C   0  0  0  0  0  0  0  0  0  0  0  0
   41.9270   83.4000   61.1220 C   0  0  0  0  0  0  0  0  0  0  0  0
   41.8310   83.7940   62.4460 C   0  0  0  0  0  0  0  0  0  0  0  0
   42.6810   84.2060   63.4100 N   0  0  0  0  0  0  0  0  0  0  0  0
   41.9690   84.4580   64.5500 C   0  0  0  0  0  0  0  0  0  0  0  0
   40.6580   84.1880   64.2510 N   0  0  0  0  0  0  0  0  0  0  0  0
   40.5680   83.7860   62.9770 C   0  0  0  0  0  0  0  0  0  0  0  0
   39.4100   83.4240   62.3170 C   0  0  0  0  0  0  0  0  0  0  0  0
   38.6870   82.7340   60.3970 H   0  0  0  0  0  0  0  0  0  0  0  0
   42.9220   83.3990   60.6800 H   0  0  0  0  0  0  0  0  0  0  0  0
   43.7170   84.3050   63.2750 H   0  0  0  0  0  0  0  0  0  0  0  0
   42.3660   84.8030   65.4990 H   0  0  0  0  0  0  0  0  0  0  0  0
   38.4390   83.4370   62.7920 H   0  0  0  0  0  0  0  0  0  0  0  0
   42.9270   83.4780   56.0160 C   0  0  0  0  0  0  0  0  0  0  0  0
   44.2080   83.8580   56.5420 C   0  0  0  0  0  0  0  0  0  0  0  0
   44.5880   83.7000   57.6440 H   0  0  0  0  0  0  0  0  0  0  0  0
   45.0210   84.6290   55.0320 S   0  0  0  0  0  0  0  0  0  0  0  0
   43.5350   84.3050   54.0160 C   0  0  0  0  0  0  0  0  0  0  0  0
   43.4420   84.5690   52.9630 H   0  0  0  0  0  0  0  0  0  0  0  0
   42.7270   83.7570   54.7530 N   0  0  0  0  0  0  0  0  0  0  0  0
  1  6  1  0  0  0  0
  2  3  1  0  0  0  0
  2  1  2  0  0  0  0
  3  4  2  0  0  0  0
  4  5  1  0  0  0  0
  5 10  1  0  0  0  0
  6  5  2  0  0  0  0
  7  1  1  0  0  0  0
  8  2  1  0  0  0  0
  9 17  1  0  0  0  0
 10  9  2  0  0  0  0
 10 11  1  0  0  0  0
 11 12  2  0  0  0  0
 12 16  1  0  0  0  0
 12 13  1  0  0  0  0
 13 14  1  0  0  0  0
 14 21  1  0  0  0  0
 15 14  2  0  0  0  0
 16 15  1  0  0  0  0
 17 22  1  0  0  0  0
 17 16  2  0  0  0  0
 18  9  1  0  0  0  0
 19 11  1  0  0  0  0
 20 13  1  0  0  0  0
 23 24  2  0  0  0  0
 23  3  1  0  0  0  0
 24 25  1  0  0  0  0
 26 24  1  0  0  0  0
 27 29  2  0  0  0  0
 27 26  1  0  0  0  0
 28 27  1  0  0  0  0
 29 23  1  0  0  0  0
M  END
>  <minimizedAffinity>
-4.80536079

>  <minimizedRMSD>
0.359974325

$$$$
