
 OpenBabel03212520463D

 18 19  0  0  0  0  0  0  0  0999 V2000
   41.7160   84.6170   59.6440 C   0  0  0  0  0  0  0  0  0  0  0  0
   40.4150   85.1470   59.6360 C   0  0  0  0  0  0  0  0  0  0  0  0
   39.3710   84.3770   60.1540 C   0  0  0  0  0  0  0  0  0  0  0  0
   39.6890   83.1540   60.6330 N   0  0  0  0  0  0  0  0  0  0  0  0
   40.9380   82.6700   60.6300 C   0  0  0  0  0  0  0  0  0  0  0  0
   41.9490   83.3910   60.1400 N   0  0  0  0  0  0  0  0  0  0  0  0
   42.6670   85.5070   59.0900 N   0  0  0  0  0  0  0  0  0  0  0  0
   40.1440   86.1250   59.2550 H   0  0  0  0  0  0  0  0  0  0  0  0
   38.3600   84.7590   60.1610 H   0  0  0  0  0  0  0  0  0  0  0  0
   42.9540   86.4600   59.4160 H   0  0  0  0  0  0  0  0  0  0  0  0
   43.0460   85.0000   58.2480 H   0  0  0  0  0  0  0  0  0  0  0  0
   41.1770   81.3360   61.1730 C   0  0  0  0  0  0  0  0  0  0  0  0
   40.0950   80.4540   61.4410 C   0  0  0  0  0  0  0  0  0  0  0  0
   39.0870   80.6430   61.2940 H   0  0  0  0  0  0  0  0  0  0  0  0
   41.0340   78.9450   62.1040 S   0  0  0  0  0  0  0  0  0  0  0  0
   42.6840   79.8600   61.8630 C   0  0  0  0  0  0  0  0  0  0  0  0
   43.6210   79.3640   62.1270 H   0  0  0  0  0  0  0  0  0  0  0  0
   42.3920   80.8850   61.4390 N   0  0  0  0  0  0  0  0  0  0  0  0
  1  6  1  0  0  0  0
  2  1  2  0  0  0  0
  2  3  1  0  0  0  0
  3  9  1  0  0  0  0
  3  4  2  0  0  0  0
  5  4  1  0  0  0  0
  5 12  1  0  0  0  0
  6  5  2  0  0  0  0
  7 10  1  0  0  0  0
  7  1  1  0  0  0  0
  8  2  1  0  0  0  0
 11  7  1  0  0  0  0
 12 18  1  0  0  0  0
 12 13  2  0  0  0  0
 13 15  1  0  0  0  0
 14 13  1  0  0  0  0
 16 15  1  0  0  0  0
 16 17  1  0  0  0  0
 18 16  2  0  0  0  0
M  END
>  <minimizedAffinity>
-3.23444557

>  <minimizedRMSD>
4.84672403

$$$$
