
 OpenBabel03212520463D

 18 19  0  0  0  0  0  0  0  0999 V2000
   40.5940   84.0710   63.2760 C   0  0  0  0  0  0  0  0  0  0  0  0
   39.6540   83.4060   62.4730 C   0  0  0  0  0  0  0  0  0  0  0  0
   39.9020   83.2870   61.1030 C   0  0  0  0  0  0  0  0  0  0  0  0
   41.0490   83.8300   60.6380 N   0  0  0  0  0  0  0  0  0  0  0  0
   41.9310   84.4600   61.4240 C   0  0  0  0  0  0  0  0  0  0  0  0
   41.7120   84.5840   62.7350 N   0  0  0  0  0  0  0  0  0  0  0  0
   40.2100   84.1130   64.6380 N   0  0  0  0  0  0  0  0  0  0  0  0
   38.7310   82.9660   62.8300 H   0  0  0  0  0  0  0  0  0  0  0  0
   39.1970   82.7800   60.4600 H   0  0  0  0  0  0  0  0  0  0  0  0
   40.0560   83.3250   65.3100 H   0  0  0  0  0  0  0  0  0  0  0  0
   40.1040   85.1390   64.8510 H   0  0  0  0  0  0  0  0  0  0  0  0
   43.1420   85.0120   60.8230 C   0  0  0  0  0  0  0  0  0  0  0  0
   43.3290   84.9950   59.4140 C   0  0  0  0  0  0  0  0  0  0  0  0
   42.6740   84.6170   58.7030 H   0  0  0  0  0  0  0  0  0  0  0  0
   45.0290   85.8240   59.2780 S   0  0  0  0  0  0  0  0  0  0  0  0
   45.0960   86.0040   61.1700 C   0  0  0  0  0  0  0  0  0  0  0  0
   45.9660   86.4700   61.6400 H   0  0  0  0  0  0  0  0  0  0  0  0
   44.1130   85.5460   61.5450 N   0  0  0  0  0  0  0  0  0  0  0  0
  1  7  1  0  0  0  0
  2  8  1  0  0  0  0
  2  1  2  0  0  0  0
  3  2  1  0  0  0  0
  4  3  2  0  0  0  0
  4  5  1  0  0  0  0
  5  6  2  0  0  0  0
  6  1  1  0  0  0  0
  7 11  1  0  0  0  0
  7 10  1  0  0  0  0
  9  3  1  0  0  0  0
 12  5  1  0  0  0  0
 12 18  1  0  0  0  0
 13 12  2  0  0  0  0
 14 13  1  0  0  0  0
 15 13  1  0  0  0  0
 15 16  1  0  0  0  0
 16 18  2  0  0  0  0
 16 17  1  0  0  0  0
M  END
>  <minimizedAffinity>
-3.91504407

>  <minimizedRMSD>
5.72245455

$$$$
