
 OpenBabel03212520463D

 18 19  0  0  0  0  0  0  0  0999 V2000
   40.7910   81.9100   58.9990 C   0  0  0  0  0  0  0  0  0  0  0  0
   40.8450   82.1540   57.6170 C   0  0  0  0  0  0  0  0  0  0  0  0
   41.5620   83.2610   57.1560 C   0  0  0  0  0  0  0  0  0  0  0  0
   42.1620   84.0340   58.0880 N   0  0  0  0  0  0  0  0  0  0  0  0
   42.0960   83.7810   59.4020 C   0  0  0  0  0  0  0  0  0  0  0  0
   41.4160   82.7280   59.8610 N   0  0  0  0  0  0  0  0  0  0  0  0
   40.0320   80.7570   59.3150 N   0  0  0  0  0  0  0  0  0  0  0  0
   40.3700   81.5430   56.8580 H   0  0  0  0  0  0  0  0  0  0  0  0
   41.6220   83.4740   56.0990 H   0  0  0  0  0  0  0  0  0  0  0  0
   40.2010   79.7570   59.0520 H   0  0  0  0  0  0  0  0  0  0  0  0
   39.2290   81.1190   59.8940 H   0  0  0  0  0  0  0  0  0  0  0  0
   42.7810   84.6790   60.3280 C   0  0  0  0  0  0  0  0  0  0  0  0
   43.6410   85.7030   59.8440 C   0  0  0  0  0  0  0  0  0  0  0  0
   43.8640   85.9140   58.8530 H   0  0  0  0  0  0  0  0  0  0  0  0
   44.1980   86.4870   61.4780 S   0  0  0  0  0  0  0  0  0  0  0  0
   43.1330   85.2410   62.4440 C   0  0  0  0  0  0  0  0  0  0  0  0
   43.1100   85.2810   63.5350 H   0  0  0  0  0  0  0  0  0  0  0  0
   42.6420   84.5900   61.6380 N   0  0  0  0  0  0  0  0  0  0  0  0
  1  7  1  0  0  0  0
  1  6  1  0  0  0  0
  2  1  2  0  0  0  0
  3  2  1  0  0  0  0
  3  4  2  0  0  0  0
  4  5  1  0  0  0  0
  5  6  2  0  0  0  0
  5 12  1  0  0  0  0
  7 11  1  0  0  0  0
  8  2  1  0  0  0  0
  9  3  1  0  0  0  0
 10  7  1  0  0  0  0
 12 18  1  0  0  0  0
 13 12  2  0  0  0  0
 13 15  1  0  0  0  0
 14 13  1  0  0  0  0
 15 16  1  0  0  0  0
 16 17  1  0  0  0  0
 18 16  2  0  0  0  0
M  END
>  <minimizedAffinity>
-2.82851672

>  <minimizedRMSD>
4.83917999

$$$$
