
 OpenBabel03212520463D

 18 19  0  0  0  0  0  0  0  0999 V2000
   39.3380   82.9770   61.6290 C   0  0  0  0  0  0  0  0  0  0  0  0
   39.5940   83.6930   60.4490 C   0  0  0  0  0  0  0  0  0  0  0  0
   40.2790   83.0570   59.4100 C   0  0  0  0  0  0  0  0  0  0  0  0
   40.6540   81.7760   59.6180 N   0  0  0  0  0  0  0  0  0  0  0  0
   40.3990   81.1130   60.7530 C   0  0  0  0  0  0  0  0  0  0  0  0
   39.7460   81.7040   61.7560 N   0  0  0  0  0  0  0  0  0  0  0  0
   38.6380   83.7480   62.5890 N   0  0  0  0  0  0  0  0  0  0  0  0
   39.2990   84.7200   60.2680 H   0  0  0  0  0  0  0  0  0  0  0  0
   40.4890   83.5830   58.4900 H   0  0  0  0  0  0  0  0  0  0  0  0
   37.6830   84.1740   62.5310 H   0  0  0  0  0  0  0  0  0  0  0  0
   39.2970   83.8100   63.4090 H   0  0  0  0  0  0  0  0  0  0  0  0
   40.8470   79.7290   60.8770 C   0  0  0  0  0  0  0  0  0  0  0  0
   42.0840   79.4180   61.5090 C   0  0  0  0  0  0  0  0  0  0  0  0
   42.7570   80.0900   61.9230 H   0  0  0  0  0  0  0  0  0  0  0  0
   42.0880   77.5290   61.3540 S   0  0  0  0  0  0  0  0  0  0  0  0
   40.4060   77.5940   60.4650 C   0  0  0  0  0  0  0  0  0  0  0  0
   39.9320   76.6670   60.1360 H   0  0  0  0  0  0  0  0  0  0  0  0
   40.1430   78.7100   60.4180 N   0  0  0  0  0  0  0  0  0  0  0  0
  1  6  1  0  0  0  0
  1  7  1  0  0  0  0
  2  1  2  0  0  0  0
  3  4  2  0  0  0  0
  3  2  1  0  0  0  0
  4  5  1  0  0  0  0
  5 12  1  0  0  0  0
  5  6  2  0  0  0  0
  7 11  1  0  0  0  0
  8  2  1  0  0  0  0
  9  3  1  0  0  0  0
 10  7  1  0  0  0  0
 12 13  2  0  0  0  0
 13 14  1  0  0  0  0
 15 13  1  0  0  0  0
 16 15  1  0  0  0  0
 17 16  1  0  0  0  0
 18 16  2  0  0  0  0
 18 12  1  0  0  0  0
M  END
>  <minimizedAffinity>
-3.80793762

>  <minimizedRMSD>
5.42458582

$$$$
