
 OpenBabel03212520023D

 29 32  0  0  0  0  0  0  0  0999 V2000
   40.5030   81.7600   57.1680 C   0  0  0  0  0  0  0  0  0  0  0  0
   41.5370   82.3420   56.4150 C   0  0  0  0  0  0  0  0  0  0  0  0
   42.3690   83.2390   57.0620 C   0  0  0  0  0  0  0  0  0  0  0  0
   42.1600   83.5170   58.3740 N   0  0  0  0  0  0  0  0  0  0  0  0
   41.1610   82.9440   59.0720 C   0  0  0  0  0  0  0  0  0  0  0  0
   40.3420   82.0700   58.4590 N   0  0  0  0  0  0  0  0  0  0  0  0
   39.8600   81.0620   56.6530 H   0  0  0  0  0  0  0  0  0  0  0  0
   41.6390   82.0790   55.3980 H   0  0  0  0  0  0  0  0  0  0  0  0
   39.6510   83.0910   60.9950 C   0  0  0  0  0  0  0  0  0  0  0  0
   40.9490   83.2570   60.4750 C   0  0  0  0  0  0  0  0  0  0  0  0
   41.9740   83.7000   61.2690 C   0  0  0  0  0  0  0  0  0  0  0  0
   41.7780   84.0000   62.6070 C   0  0  0  0  0  0  0  0  0  0  0  0
   42.5340   84.4400   63.6350 N   0  0  0  0  0  0  0  0  0  0  0  0
   41.7500   84.5440   64.7500 C   0  0  0  0  0  0  0  0  0  0  0  0
   40.4900   84.1550   64.3700 N   0  0  0  0  0  0  0  0  0  0  0  0
   40.5000   83.8250   63.0720 C   0  0  0  0  0  0  0  0  0  0  0  0
   39.4190   83.3830   62.3350 C   0  0  0  0  0  0  0  0  0  0  0  0
   38.8610   82.7400   60.3450 H   0  0  0  0  0  0  0  0  0  0  0  0
   42.9810   83.8320   60.8780 H   0  0  0  0  0  0  0  0  0  0  0  0
   43.5580   84.6570   63.5570 H   0  0  0  0  0  0  0  0  0  0  0  0
   42.0640   84.8700   65.7350 H   0  0  0  0  0  0  0  0  0  0  0  0
   38.4320   83.2640   62.7610 H   0  0  0  0  0  0  0  0  0  0  0  0
   43.4800   83.8970   56.3450 C   0  0  0  0  0  0  0  0  0  0  0  0
   44.5250   84.5600   57.0740 C   0  0  0  0  0  0  0  0  0  0  0  0
   44.6130   84.6510   58.2430 H   0  0  0  0  0  0  0  0  0  0  0  0
   45.6190   85.1860   55.6800 S   0  0  0  0  0  0  0  0  0  0  0  0
   44.5030   84.4620   54.4240 C   0  0  0  0  0  0  0  0  0  0  0  0
   44.6640   84.5270   53.3480 H   0  0  0  0  0  0  0  0  0  0  0  0
   43.5930   83.9250   55.0410 N   0  0  0  0  0  0  0  0  0  0  0  0
  1  6  1  0  0  0  0
  2  3  1  0  0  0  0
  2  1  2  0  0  0  0
  3  4  2  0  0  0  0
  4  5  1  0  0  0  0
  5 10  1  0  0  0  0
  6  5  2  0  0  0  0
  7  1  1  0  0  0  0
  8  2  1  0  0  0  0
  9 17  1  0  0  0  0
 10  9  2  0  0  0  0
 10 11  1  0  0  0  0
 11 12  2  0  0  0  0
 12 16  1  0  0  0  0
 12 13  1  0  0  0  0
 13 14  1  0  0  0  0
 14 21  1  0  0  0  0
 15 14  2  0  0  0  0
 16 15  1  0  0  0  0
 17 22  1  0  0  0  0
 17 16  2  0  0  0  0
 18  9  1  0  0  0  0
 19 11  1  0  0  0  0
 20 13  1  0  0  0  0
 23  3  1  0  0  0  0
 23 24  2  0  0  0  0
 24 25  1  0  0  0  0
 26 24  1  0  0  0  0
 27 29  2  0  0  0  0
 27 26  1  0  0  0  0
 28 27  1  0  0  0  0
 29 23  1  0  0  0  0
M  END
>  <minimizedAffinity>
-4.73543358

>  <minimizedRMSD>
0.800420403

$$$$
