
 OpenBabel03212520023D

 29 32  0  0  0  0  0  0  0  0999 V2000
   40.3610   81.5460   57.2370 C   0  0  0  0  0  0  0  0  0  0  0  0
   41.3570   82.1200   56.4290 C   0  0  0  0  0  0  0  0  0  0  0  0
   42.1930   83.0530   57.0140 C   0  0  0  0  0  0  0  0  0  0  0  0
   42.0250   83.3750   58.3220 N   0  0  0  0  0  0  0  0  0  0  0  0
   41.0620   82.8090   59.0750 C   0  0  0  0  0  0  0  0  0  0  0  0
   40.2390   81.8990   58.5210 N   0  0  0  0  0  0  0  0  0  0  0  0
   39.7140   80.8190   56.7700 H   0  0  0  0  0  0  0  0  0  0  0  0
   41.4290   81.8220   55.4180 H   0  0  0  0  0  0  0  0  0  0  0  0
   39.6000   83.0690   61.0230 C   0  0  0  0  0  0  0  0  0  0  0  0
   40.8920   83.1670   60.4720 C   0  0  0  0  0  0  0  0  0  0  0  0
   41.9500   83.5900   61.2330 C   0  0  0  0  0  0  0  0  0  0  0  0
   41.7950   83.9330   62.5650 C   0  0  0  0  0  0  0  0  0  0  0  0
   42.5900   84.3690   63.5650 N   0  0  0  0  0  0  0  0  0  0  0  0
   41.8340   84.5350   64.6930 C   0  0  0  0  0  0  0  0  0  0  0  0
   40.5520   84.1880   64.3500 N   0  0  0  0  0  0  0  0  0  0  0  0
   40.5220   83.8230   63.0610 C   0  0  0  0  0  0  0  0  0  0  0  0
   39.4080   83.4060   62.3590 C   0  0  0  0  0  0  0  0  0  0  0  0
   38.7820   82.7330   60.3990 H   0  0  0  0  0  0  0  0  0  0  0  0
   42.9540   83.6700   60.8180 H   0  0  0  0  0  0  0  0  0  0  0  0
   43.6200   84.5420   63.4620 H   0  0  0  0  0  0  0  0  0  0  0  0
   42.1820   84.8740   65.6620 H   0  0  0  0  0  0  0  0  0  0  0  0
   38.4270   83.3380   62.8070 H   0  0  0  0  0  0  0  0  0  0  0  0
   43.2670   83.7060   56.2360 C   0  0  0  0  0  0  0  0  0  0  0  0
   43.3010   83.5890   54.8040 C   0  0  0  0  0  0  0  0  0  0  0  0
   42.5340   83.0050   54.1320 H   0  0  0  0  0  0  0  0  0  0  0  0
   44.8360   84.5890   54.3820 S   0  0  0  0  0  0  0  0  0  0  0  0
   45.1300   84.9600   56.1490 C   0  0  0  0  0  0  0  0  0  0  0  0
   45.9610   85.5590   56.5200 H   0  0  0  0  0  0  0  0  0  0  0  0
   44.2310   84.4110   56.7700 N   0  0  0  0  0  0  0  0  0  0  0  0
  1  6  1  0  0  0  0
  2  3  1  0  0  0  0
  2  1  2  0  0  0  0
  3  4  2  0  0  0  0
  4  5  1  0  0  0  0
  5 10  1  0  0  0  0
  6  5  2  0  0  0  0
  7  1  1  0  0  0  0
  8  2  1  0  0  0  0
  9 17  1  0  0  0  0
 10  9  2  0  0  0  0
 10 11  1  0  0  0  0
 11 12  2  0  0  0  0
 12 16  1  0  0  0  0
 12 13  1  0  0  0  0
 13 14  1  0  0  0  0
 14 21  1  0  0  0  0
 15 14  2  0  0  0  0
 16 15  1  0  0  0  0
 17 22  1  0  0  0  0
 17 16  2  0  0  0  0
 18  9  1  0  0  0  0
 19 11  1  0  0  0  0
 20 13  1  0  0  0  0
 23 29  1  0  0  0  0
 23  3  1  0  0  0  0
 24 23  2  0  0  0  0
 25 24  1  0  0  0  0
 26 24  1  0  0  0  0
 26 27  1  0  0  0  0
 27 28  1  0  0  0  0
 27 29  2  0  0  0  0
M  END
>  <minimizedAffinity>
-4.73463964

>  <minimizedRMSD>
0.493636727

$$$$
