
 OpenBabel03212520463D

 18 19  0  0  0  0  0  0  0  0999 V2000
   40.7020   82.6650   62.1070 C   0  0  0  0  0  0  0  0  0  0  0  0
   39.4110   83.0400   61.7030 C   0  0  0  0  0  0  0  0  0  0  0  0
   39.2620   84.1510   60.8680 C   0  0  0  0  0  0  0  0  0  0  0  0
   40.3910   84.7980   60.5020 N   0  0  0  0  0  0  0  0  0  0  0  0
   41.6120   84.4210   60.9010 C   0  0  0  0  0  0  0  0  0  0  0  0
   41.7740   83.3630   61.6980 N   0  0  0  0  0  0  0  0  0  0  0  0
   40.6960   81.5250   62.9470 N   0  0  0  0  0  0  0  0  0  0  0  0
   38.4970   82.5310   61.9870 H   0  0  0  0  0  0  0  0  0  0  0  0
   38.2810   84.4630   60.5400 H   0  0  0  0  0  0  0  0  0  0  0  0
   40.3770   80.5490   62.7410 H   0  0  0  0  0  0  0  0  0  0  0  0
   41.0940   81.8680   63.8600 H   0  0  0  0  0  0  0  0  0  0  0  0
   42.7690   85.1890   60.4480 C   0  0  0  0  0  0  0  0  0  0  0  0
   43.9670   85.2180   61.2110 C   0  0  0  0  0  0  0  0  0  0  0  0
   44.1460   84.7320   62.1110 H   0  0  0  0  0  0  0  0  0  0  0  0
   45.0430   86.3430   60.1280 S   0  0  0  0  0  0  0  0  0  0  0  0
   43.6130   86.5160   58.8840 C   0  0  0  0  0  0  0  0  0  0  0  0
   43.7460   87.1300   57.9890 H   0  0  0  0  0  0  0  0  0  0  0  0
   42.7630   85.8860   59.3240 N   0  0  0  0  0  0  0  0  0  0  0  0
  1  7  1  0  0  0  0
  2  8  1  0  0  0  0
  2  1  1  0  0  0  0
  3  2  2  0  0  0  0
  4  3  1  0  0  0  0
  4  5  2  0  0  0  0
  5  6  1  0  0  0  0
  6  1  2  0  0  0  0
  7 11  1  0  0  0  0
  9  3  1  0  0  0  0
 10  7  1  0  0  0  0
 12  5  1  0  0  0  0
 12 13  2  0  0  0  0
 13 14  1  0  0  0  0
 15 13  1  0  0  0  0
 16 18  2  0  0  0  0
 16 15  1  0  0  0  0
 17 16  1  0  0  0  0
 18 12  1  0  0  0  0
M  END
>  <minimizedAffinity>
-3.94122458

>  <minimizedRMSD>
5.18439102

$$$$
