
 OpenBabel03212520013D

 29 32  0  0  0  0  0  0  0  0999 V2000
   40.1860   81.2410   57.2740 C   0  0  0  0  0  0  0  0  0  0  0  0
   41.1070   81.8210   56.3860 C   0  0  0  0  0  0  0  0  0  0  0  0
   41.9320   82.8150   56.8820 C   0  0  0  0  0  0  0  0  0  0  0  0
   41.8230   83.1870   58.1830 N   0  0  0  0  0  0  0  0  0  0  0  0
   40.9300   82.6140   59.0130 C   0  0  0  0  0  0  0  0  0  0  0  0
   40.1200   81.6450   58.5470 N   0  0  0  0  0  0  0  0  0  0  0  0
   39.5480   80.4660   56.8760 H   0  0  0  0  0  0  0  0  0  0  0  0
   41.1360   81.4820   55.3860 H   0  0  0  0  0  0  0  0  0  0  0  0
   39.5420   83.0330   60.9880 C   0  0  0  0  0  0  0  0  0  0  0  0
   40.8220   83.0260   60.4020 C   0  0  0  0  0  0  0  0  0  0  0  0
   41.9270   83.4000   61.1220 C   0  0  0  0  0  0  0  0  0  0  0  0
   41.8310   83.7940   62.4460 C   0  0  0  0  0  0  0  0  0  0  0  0
   42.6810   84.2060   63.4110 N   0  0  0  0  0  0  0  0  0  0  0  0
   41.9680   84.4580   64.5500 C   0  0  0  0  0  0  0  0  0  0  0  0
   40.6570   84.1880   64.2510 N   0  0  0  0  0  0  0  0  0  0  0  0
   40.5670   83.7860   62.9770 C   0  0  0  0  0  0  0  0  0  0  0  0
   39.4100   83.4240   62.3160 C   0  0  0  0  0  0  0  0  0  0  0  0
   38.6870   82.7340   60.3960 H   0  0  0  0  0  0  0  0  0  0  0  0
   42.9220   83.3990   60.6800 H   0  0  0  0  0  0  0  0  0  0  0  0
   43.7160   84.3050   63.2760 H   0  0  0  0  0  0  0  0  0  0  0  0
   42.3650   84.8030   65.4990 H   0  0  0  0  0  0  0  0  0  0  0  0
   38.4380   83.4370   62.7910 H   0  0  0  0  0  0  0  0  0  0  0  0
   42.9280   83.4780   56.0160 C   0  0  0  0  0  0  0  0  0  0  0  0
   44.2090   83.8610   56.5430 C   0  0  0  0  0  0  0  0  0  0  0  0
   44.5870   83.7030   57.6450 H   0  0  0  0  0  0  0  0  0  0  0  0
   45.0230   84.6310   55.0340 S   0  0  0  0  0  0  0  0  0  0  0  0
   43.5380   84.3050   54.0160 C   0  0  0  0  0  0  0  0  0  0  0  0
   43.4450   84.5670   52.9630 H   0  0  0  0  0  0  0  0  0  0  0  0
   42.7290   83.7560   54.7530 N   0  0  0  0  0  0  0  0  0  0  0  0
  1  6  1  0  0  0  0
  2  3  1  0  0  0  0
  2  1  2  0  0  0  0
  3  4  2  0  0  0  0
  4  5  1  0  0  0  0
  5 10  1  0  0  0  0
  6  5  2  0  0  0  0
  7  1  1  0  0  0  0
  8  2  1  0  0  0  0
  9 17  1  0  0  0  0
 10  9  2  0  0  0  0
 10 11  1  0  0  0  0
 11 12  2  0  0  0  0
 12 16  1  0  0  0  0
 12 13  1  0  0  0  0
 13 14  1  0  0  0  0
 14 21  1  0  0  0  0
 15 14  2  0  0  0  0
 16 15  1  0  0  0  0
 17 22  1  0  0  0  0
 17 16  2  0  0  0  0
 18  9  1  0  0  0  0
 19 11  1  0  0  0  0
 20 13  1  0  0  0  0
 23 24  2  0  0  0  0
 23  3  1  0  0  0  0
 24 25  1  0  0  0  0
 26 24  1  0  0  0  0
 27 29  2  0  0  0  0
 27 26  1  0  0  0  0
 28 27  1  0  0  0  0
 29 23  1  0  0  0  0
M  END
>  <minimizedAffinity>
-4.80538511

>  <minimizedRMSD>
0.319170743

$$$$
