
 OpenBabel03212520463D

 18 19  0  0  0  0  0  0  0  0999 V2000
   42.0100   84.2040   58.2890 C   0  0  0  0  0  0  0  0  0  0  0  0
   42.8810   85.2730   58.0240 C   0  0  0  0  0  0  0  0  0  0  0  0
   43.3640   86.0300   59.0960 C   0  0  0  0  0  0  0  0  0  0  0  0
   42.9510   85.6750   60.3320 N   0  0  0  0  0  0  0  0  0  0  0  0
   42.1190   84.6500   60.5600 C   0  0  0  0  0  0  0  0  0  0  0  0
   41.6470   83.9160   59.5500 N   0  0  0  0  0  0  0  0  0  0  0  0
   41.6050   83.5320   57.1110 N   0  0  0  0  0  0  0  0  0  0  0  0
   43.2210   85.5700   57.0390 H   0  0  0  0  0  0  0  0  0  0  0  0
   44.0360   86.8580   58.9230 H   0  0  0  0  0  0  0  0  0  0  0  0
   42.1840   83.0080   56.4120 H   0  0  0  0  0  0  0  0  0  0  0  0
   40.5610   83.6670   57.0740 H   0  0  0  0  0  0  0  0  0  0  0  0
   41.7340   84.3470   61.9360 C   0  0  0  0  0  0  0  0  0  0  0  0
   40.4010   83.9690   62.2520 C   0  0  0  0  0  0  0  0  0  0  0  0
   39.6080   83.8720   61.5910 H   0  0  0  0  0  0  0  0  0  0  0  0
   40.5470   83.7220   64.1280 S   0  0  0  0  0  0  0  0  0  0  0  0
   42.3890   84.1900   64.0500 C   0  0  0  0  0  0  0  0  0  0  0  0
   42.9840   84.1990   64.9660 H   0  0  0  0  0  0  0  0  0  0  0  0
   42.5910   84.4070   62.9420 N   0  0  0  0  0  0  0  0  0  0  0  0
  1  6  1  0  0  0  0
  2  1  2  0  0  0  0
  2  3  1  0  0  0  0
  3  4  2  0  0  0  0
  4  5  1  0  0  0  0
  5 12  1  0  0  0  0
  6  5  2  0  0  0  0
  7  1  1  0  0  0  0
  8  2  1  0  0  0  0
  9  3  1  0  0  0  0
 10  7  1  0  0  0  0
 11  7  1  0  0  0  0
 12 13  2  0  0  0  0
 12 18  1  0  0  0  0
 13 15  1  0  0  0  0
 14 13  1  0  0  0  0
 16 15  1  0  0  0  0
 16 17  1  0  0  0  0
 18 16  2  0  0  0  0
M  END
>  <minimizedAffinity>
-3.55427027

>  <minimizedRMSD>
4.26389265

$$$$
