
 OpenBabel03212520023D

 29 32  0  0  0  0  0  0  0  0999 V2000
   40.1550   81.1730   57.2520 C   0  0  0  0  0  0  0  0  0  0  0  0
   41.0510   81.7620   56.3450 C   0  0  0  0  0  0  0  0  0  0  0  0
   41.8640   82.7770   56.8180 C   0  0  0  0  0  0  0  0  0  0  0  0
   41.7680   83.1590   58.1170 N   0  0  0  0  0  0  0  0  0  0  0  0
   40.9000   82.5770   58.9670 C   0  0  0  0  0  0  0  0  0  0  0  0
   40.1020   81.5890   58.5230 N   0  0  0  0  0  0  0  0  0  0  0  0
   39.5260   80.3830   56.8720 H   0  0  0  0  0  0  0  0  0  0  0  0
   41.0710   81.4140   55.3480 H   0  0  0  0  0  0  0  0  0  0  0  0
   39.5310   83.0190   60.9490 C   0  0  0  0  0  0  0  0  0  0  0  0
   40.8060   83.0020   60.3530 C   0  0  0  0  0  0  0  0  0  0  0  0
   41.9190   83.3760   61.0600 C   0  0  0  0  0  0  0  0  0  0  0  0
   41.8360   83.7810   62.3820 C   0  0  0  0  0  0  0  0  0  0  0  0
   42.6960   84.1960   63.3360 N   0  0  0  0  0  0  0  0  0  0  0  0
   41.9940   84.4610   64.4790 C   0  0  0  0  0  0  0  0  0  0  0  0
   40.6800   84.1950   64.1930 N   0  0  0  0  0  0  0  0  0  0  0  0
   40.5770   83.7830   62.9230 C   0  0  0  0  0  0  0  0  0  0  0  0
   39.4120   83.4220   62.2750 C   0  0  0  0  0  0  0  0  0  0  0  0
   38.6700   82.7200   60.3670 H   0  0  0  0  0  0  0  0  0  0  0  0
   42.9100   83.3660   60.6100 H   0  0  0  0  0  0  0  0  0  0  0  0
   43.7310   84.2890   63.1910 H   0  0  0  0  0  0  0  0  0  0  0  0
   42.4000   84.8110   65.4220 H   0  0  0  0  0  0  0  0  0  0  0  0
   38.4450   83.4430   62.7580 H   0  0  0  0  0  0  0  0  0  0  0  0
   42.8340   83.4500   55.9300 C   0  0  0  0  0  0  0  0  0  0  0  0
   42.6000   83.5170   54.5140 C   0  0  0  0  0  0  0  0  0  0  0  0
   41.6770   83.0750   53.9360 H   0  0  0  0  0  0  0  0  0  0  0  0
   44.1180   84.4580   53.9260 S   0  0  0  0  0  0  0  0  0  0  0  0
   44.7560   84.5790   55.6350 C   0  0  0  0  0  0  0  0  0  0  0  0
   45.6900   85.0690   55.9100 H   0  0  0  0  0  0  0  0  0  0  0  0
   43.9370   84.0170   56.3500 N   0  0  0  0  0  0  0  0  0  0  0  0
  1  6  1  0  0  0  0
  2  3  1  0  0  0  0
  2  1  2  0  0  0  0
  3  4  2  0  0  0  0
  4  5  1  0  0  0  0
  5 10  1  0  0  0  0
  6  5  2  0  0  0  0
  7  1  1  0  0  0  0
  8  2  1  0  0  0  0
  9 17  1  0  0  0  0
 10  9  2  0  0  0  0
 10 11  1  0  0  0  0
 11 12  2  0  0  0  0
 12 16  1  0  0  0  0
 12 13  1  0  0  0  0
 13 14  1  0  0  0  0
 14 21  1  0  0  0  0
 15 14  2  0  0  0  0
 16 15  1  0  0  0  0
 17 22  1  0  0  0  0
 17 16  2  0  0  0  0
 18  9  1  0  0  0  0
 19 11  1  0  0  0  0
 20 13  1  0  0  0  0
 23 29  1  0  0  0  0
 23  3  1  0  0  0  0
 24 23  2  0  0  0  0
 25 24  1  0  0  0  0
 26 24  1  0  0  0  0
 26 27  1  0  0  0  0
 27 28  1  0  0  0  0
 27 29  2  0  0  0  0
M  END
>  <minimizedAffinity>
-4.7762599

>  <minimizedRMSD>
0.348769367

$$$$
