
 OpenBabel03212520033D

 29 32  0  0  0  0  0  0  0  0999 V2000
   40.1270   77.6340   59.5790 C   0  0  0  0  0  0  0  0  0  0  0  0
   39.3600   77.4610   58.4140 C   0  0  0  0  0  0  0  0  0  0  0  0
   39.2110   76.1720   57.9350 C   0  0  0  0  0  0  0  0  0  0  0  0
   39.8000   75.1410   58.5930 N   0  0  0  0  0  0  0  0  0  0  0  0
   40.5310   75.3360   59.7080 C   0  0  0  0  0  0  0  0  0  0  0  0
   40.6860   76.5830   60.1880 N   0  0  0  0  0  0  0  0  0  0  0  0
   40.2360   78.6440   59.9440 H   0  0  0  0  0  0  0  0  0  0  0  0
   38.9310   78.3090   57.9540 H   0  0  0  0  0  0  0  0  0  0  0  0
   42.5070   73.9420   60.1020 C   0  0  0  0  0  0  0  0  0  0  0  0
   41.1600   74.2230   60.3980 C   0  0  0  0  0  0  0  0  0  0  0  0
   40.4670   73.4660   61.3080 C   0  0  0  0  0  0  0  0  0  0  0  0
   41.0610   72.4050   61.9700 C   0  0  0  0  0  0  0  0  0  0  0  0
   40.6870   71.4900   62.8900 N   0  0  0  0  0  0  0  0  0  0  0  0
   41.7500   70.6730   63.1600 C   0  0  0  0  0  0  0  0  0  0  0  0
   42.7840   71.1180   62.3760 N   0  0  0  0  0  0  0  0  0  0  0  0
   42.3730   72.1660   61.6510 C   0  0  0  0  0  0  0  0  0  0  0  0
   43.1330   72.8820   60.7480 C   0  0  0  0  0  0  0  0  0  0  0  0
   43.0290   74.5550   59.3790 H   0  0  0  0  0  0  0  0  0  0  0  0
   39.4250   73.6730   61.5460 H   0  0  0  0  0  0  0  0  0  0  0  0
   39.7270   71.4410   63.3110 H   0  0  0  0  0  0  0  0  0  0  0  0
   41.7680   69.8420   63.8560 H   0  0  0  0  0  0  0  0  0  0  0  0
   44.1680   72.6460   60.5390 H   0  0  0  0  0  0  0  0  0  0  0  0
   38.4210   75.9010   56.7160 C   0  0  0  0  0  0  0  0  0  0  0  0
   39.0460   75.9290   55.4220 C   0  0  0  0  0  0  0  0  0  0  0  0
   40.1780   76.1560   55.1980 H   0  0  0  0  0  0  0  0  0  0  0  0
   37.5970   75.5220   54.2950 S   0  0  0  0  0  0  0  0  0  0  0  0
   36.4670   75.3950   55.7270 C   0  0  0  0  0  0  0  0  0  0  0  0
   35.4050   75.1590   55.6530 H   0  0  0  0  0  0  0  0  0  0  0  0
   37.1420   75.6240   56.7210 N   0  0  0  0  0  0  0  0  0  0  0  0
  1  7  1  0  0  0  0
  1  6  1  0  0  0  0
  2  1  2  0  0  0  0
  3  2  1  0  0  0  0
  3  4  2  0  0  0  0
  4  5  1  0  0  0  0
  5  6  2  0  0  0  0
  5 10  1  0  0  0  0
  8  2  1  0  0  0  0
  9 10  2  0  0  0  0
  9 17  1  0  0  0  0
 10 11  1  0  0  0  0
 11 19  1  0  0  0  0
 11 12  2  0  0  0  0
 12 13  1  0  0  0  0
 13 14  1  0  0  0  0
 13 20  1  0  0  0  0
 14 21  1  0  0  0  0
 15 14  2  0  0  0  0
 16 12  1  0  0  0  0
 16 15  1  0  0  0  0
 17 16  2  0  0  0  0
 18  9  1  0  0  0  0
 22 17  1  0  0  0  0
 23 29  1  0  0  0  0
 23  3  1  0  0  0  0
 24 23  2  0  0  0  0
 25 24  1  0  0  0  0
 26 24  1  0  0  0  0
 26 27  1  0  0  0  0
 27 29  2  0  0  0  0
 28 27  1  0  0  0  0
M  END
>  <minimizedAffinity>
-5.8590641

$$$$

 OpenBabel03212520033D

 29 32  0  0  0  0  0  0  0  0999 V2000
   44.3680   74.2630   59.8530 C   0  0  0  0  0  0  0  0  0  0  0  0
   43.3790   75.1450   59.3850 C   0  0  0  0  0  0  0  0  0  0  0  0
   42.0570   74.7840   59.5830 C   0  0  0  0  0  0  0  0  0  0  0  0
   41.7700   73.6150   60.2110 N   0  0  0  0  0  0  0  0  0  0  0  0
   42.7390   72.7880   60.6500 C   0  0  0  0  0  0  0  0  0  0  0  0
   44.0290   73.1230   60.4660 N   0  0  0  0  0  0  0  0  0  0  0  0
   45.3950   74.5550   59.6940 H   0  0  0  0  0  0  0  0  0  0  0  0
   43.6760   76.0370   58.9050 H   0  0  0  0  0  0  0  0  0  0  0  0
   42.1320   71.5820   62.6940 C   0  0  0  0  0  0  0  0  0  0  0  0
   42.4150   71.5380   61.3150 C   0  0  0  0  0  0  0  0  0  0  0  0
   42.3850   70.3530   60.6280 C   0  0  0  0  0  0  0  0  0  0  0  0
   42.0770   69.1580   61.2560 C   0  0  0  0  0  0  0  0  0  0  0  0
   41.9610   67.8620   60.8960 N   0  0  0  0  0  0  0  0  0  0  0  0
   41.6200   67.1250   61.9970 C   0  0  0  0  0  0  0  0  0  0  0  0
   41.5320   68.0110   63.0400 N   0  0  0  0  0  0  0  0  0  0  0  0
   41.8090   69.2450   62.5980 C   0  0  0  0  0  0  0  0  0  0  0  0
   41.8190   70.3990   63.3560 C   0  0  0  0  0  0  0  0  0  0  0  0
   42.1630   72.5320   63.2110 H   0  0  0  0  0  0  0  0  0  0  0  0
   42.6020   70.3060   59.5620 H   0  0  0  0  0  0  0  0  0  0  0  0
   42.1140   67.5090   59.9200 H   0  0  0  0  0  0  0  0  0  0  0  0
   41.4530   66.0540   62.0330 H   0  0  0  0  0  0  0  0  0  0  0  0
   41.5970   70.4050   64.4140 H   0  0  0  0  0  0  0  0  0  0  0  0
   40.9550   75.6530   59.1220 C   0  0  0  0  0  0  0  0  0  0  0  0
   39.9700   75.1520   58.2030 C   0  0  0  0  0  0  0  0  0  0  0  0
   39.9280   74.0700   57.7440 H   0  0  0  0  0  0  0  0  0  0  0  0
   38.8590   76.6530   57.9870 S   0  0  0  0  0  0  0  0  0  0  0  0
   39.8930   77.6350   59.1320 C   0  0  0  0  0  0  0  0  0  0  0  0
   39.6980   78.6730   59.4010 H   0  0  0  0  0  0  0  0  0  0  0  0
   40.7970   76.8970   59.4990 N   0  0  0  0  0  0  0  0  0  0  0  0
  1  6  1  0  0  0  0
  2  3  1  0  0  0  0
  2  1  2  0  0  0  0
  3  4  2  0  0  0  0
  4  5  1  0  0  0  0
  5 10  1  0  0  0  0
  6  5  2  0  0  0  0
  7  1  1  0  0  0  0
  8  2  1  0  0  0  0
  9 18  1  0  0  0  0
  9 17  1  0  0  0  0
 10  9  2  0  0  0  0
 11 12  2  0  0  0  0
 11 10  1  0  0  0  0
 12 16  1  0  0  0  0
 13 12  1  0  0  0  0
 13 14  1  0  0  0  0
 14 21  1  0  0  0  0
 14 15  2  0  0  0  0
 16 15  1  0  0  0  0
 16 17  2  0  0  0  0
 17 22  1  0  0  0  0
 19 11  1  0  0  0  0
 20 13  1  0  0  0  0
 23 29  1  0  0  0  0
 23  3  1  0  0  0  0
 24 23  2  0  0  0  0
 25 24  1  0  0  0  0
 26 24  1  0  0  0  0
 26 27  1  0  0  0  0
 27 28  1  0  0  0  0
 27 29  2  0  0  0  0
M  END
>  <minimizedAffinity>
-5.66068316

$$$$

 OpenBabel03212520033D

 29 32  0  0  0  0  0  0  0  0999 V2000
   41.7230   72.7630   62.3620 C   0  0  0  0  0  0  0  0  0  0  0  0
   42.1660   71.4800   62.0010 C   0  0  0  0  0  0  0  0  0  0  0  0
   41.7590   70.9850   60.7750 C   0  0  0  0  0  0  0  0  0  0  0  0
   40.9610   71.7430   59.9800 N   0  0  0  0  0  0  0  0  0  0  0  0
   40.5490   72.9710   60.3500 C   0  0  0  0  0  0  0  0  0  0  0  0
   40.9370   73.4680   61.5400 N   0  0  0  0  0  0  0  0  0  0  0  0
   42.0470   73.1390   63.3200 H   0  0  0  0  0  0  0  0  0  0  0  0
   42.7860   70.9470   62.6700 H   0  0  0  0  0  0  0  0  0  0  0  0
   39.7630   75.1690   59.6070 C   0  0  0  0  0  0  0  0  0  0  0  0
   39.6910   73.7680   59.4910 C   0  0  0  0  0  0  0  0  0  0  0  0
   38.8360   73.1790   58.5950 C   0  0  0  0  0  0  0  0  0  0  0  0
   38.0160   73.9320   57.7730 C   0  0  0  0  0  0  0  0  0  0  0  0
   37.0950   73.6880   56.8170 N   0  0  0  0  0  0  0  0  0  0  0  0
   36.6110   74.8800   56.3530 C   0  0  0  0  0  0  0  0  0  0  0  0
   37.2650   75.8600   57.0560 N   0  0  0  0  0  0  0  0  0  0  0  0
   38.1170   75.2920   57.9190 C   0  0  0  0  0  0  0  0  0  0  0  0
   38.9520   75.9560   58.7960 C   0  0  0  0  0  0  0  0  0  0  0  0
   40.4460   75.6060   60.3230 H   0  0  0  0  0  0  0  0  0  0  0  0
   38.7720   72.0970   58.4960 H   0  0  0  0  0  0  0  0  0  0  0  0
   36.8180   72.7260   56.5030 H   0  0  0  0  0  0  0  0  0  0  0  0
   35.8600   75.0190   55.5820 H   0  0  0  0  0  0  0  0  0  0  0  0
   38.9880   77.0340   58.8650 H   0  0  0  0  0  0  0  0  0  0  0  0
   42.1790   69.6450   60.3180 C   0  0  0  0  0  0  0  0  0  0  0  0
   42.6630   69.4510   58.9790 C   0  0  0  0  0  0  0  0  0  0  0  0
   42.7720   70.2770   58.1480 H   0  0  0  0  0  0  0  0  0  0  0  0
   43.0340   67.6080   58.9750 S   0  0  0  0  0  0  0  0  0  0  0  0
   42.4890   67.4530   60.7140 C   0  0  0  0  0  0  0  0  0  0  0  0
   42.4890   66.5210   61.2780 H   0  0  0  0  0  0  0  0  0  0  0  0
   42.1460   68.5730   61.0690 N   0  0  0  0  0  0  0  0  0  0  0  0
  1  7  1  0  0  0  0
  2  1  1  0  0  0  0
  2  8  1  0  0  0  0
  3  2  2  0  0  0  0
  4  5  2  0  0  0  0
  4  3  1  0  0  0  0
  5  6  1  0  0  0  0
  6  1  2  0  0  0  0
  9 18  1  0  0  0  0
 10  9  1  0  0  0  0
 10  5  1  0  0  0  0
 11 10  2  0  0  0  0
 12 16  2  0  0  0  0
 12 11  1  0  0  0  0
 13 12  1  0  0  0  0
 14 13  1  0  0  0  0
 14 15  2  0  0  0  0
 15 16  1  0  0  0  0
 16 17  1  0  0  0  0
 17 22  1  0  0  0  0
 17  9  2  0  0  0  0
 19 11  1  0  0  0  0
 20 13  1  0  0  0  0
 21 14  1  0  0  0  0
 23  3  1  0  0  0  0
 23 29  1  0  0  0  0
 24 23  2  0  0  0  0
 25 24  1  0  0  0  0
 26 24  1  0  0  0  0
 26 27  1  0  0  0  0
 27 29  2  0  0  0  0
 27 28  1  0  0  0  0
M  END
>  <minimizedAffinity>
-5.64628601

$$$$

 OpenBabel03212520033D

 29 32  0  0  0  0  0  0  0  0999 V2000
   43.6370   74.4560   59.7390 C   0  0  0  0  0  0  0  0  0  0  0  0
   43.5690   73.3030   60.5390 C   0  0  0  0  0  0  0  0  0  0  0  0
   42.3420   72.6750   60.6500 C   0  0  0  0  0  0  0  0  0  0  0  0
   41.2680   73.1850   59.9940 N   0  0  0  0  0  0  0  0  0  0  0  0
   41.3610   74.2920   59.2330 C   0  0  0  0  0  0  0  0  0  0  0  0
   42.5470   74.9150   59.1140 N   0  0  0  0  0  0  0  0  0  0  0  0
   44.6000   74.9370   59.6590 H   0  0  0  0  0  0  0  0  0  0  0  0
   44.4460   72.9630   61.0210 H   0  0  0  0  0  0  0  0  0  0  0  0
   39.9010   76.1920   58.7220 C   0  0  0  0  0  0  0  0  0  0  0  0
   40.2010   74.8280   58.5420 C   0  0  0  0  0  0  0  0  0  0  0  0
   39.4200   74.0360   57.7410 C   0  0  0  0  0  0  0  0  0  0  0  0
   38.3140   74.5410   57.0790 C   0  0  0  0  0  0  0  0  0  0  0  0
   37.3660   74.0620   56.2450 N   0  0  0  0  0  0  0  0  0  0  0  0
   36.5120   75.0770   55.9150 C   0  0  0  0  0  0  0  0  0  0  0  0
   36.9660   76.1910   56.5740 N   0  0  0  0  0  0  0  0  0  0  0  0
   38.0580   75.8720   57.2820 C   0  0  0  0  0  0  0  0  0  0  0  0
   38.7960   76.7310   58.0720 C   0  0  0  0  0  0  0  0  0  0  0  0
   40.5350   76.7930   59.3600 H   0  0  0  0  0  0  0  0  0  0  0  0
   39.6420   72.9800   57.5930 H   0  0  0  0  0  0  0  0  0  0  0  0
   37.3210   73.0650   55.9210 H   0  0  0  0  0  0  0  0  0  0  0  0
   35.6480   75.0110   55.2620 H   0  0  0  0  0  0  0  0  0  0  0  0
   38.5440   77.7760   58.1920 H   0  0  0  0  0  0  0  0  0  0  0  0
   42.1820   71.4570   61.4720 C   0  0  0  0  0  0  0  0  0  0  0  0
   41.6930   71.5490   62.8210 C   0  0  0  0  0  0  0  0  0  0  0  0
   41.3860   72.5320   63.3880 H   0  0  0  0  0  0  0  0  0  0  0  0
   41.7020   69.7440   63.3480 S   0  0  0  0  0  0  0  0  0  0  0  0
   42.3380   69.2280   61.7130 C   0  0  0  0  0  0  0  0  0  0  0  0
   42.5490   68.1960   61.4330 H   0  0  0  0  0  0  0  0  0  0  0  0
   42.4620   70.2500   61.0520 N   0  0  0  0  0  0  0  0  0  0  0  0
  1  2  1  0  0  0  0
  2  3  2  0  0  0  0
  2  8  1  0  0  0  0
  3 23  1  0  0  0  0
  4  3  1  0  0  0  0
  5  4  2  0  0  0  0
  6  5  1  0  0  0  0
  6  1  2  0  0  0  0
  7  1  1  0  0  0  0
  9 18  1  0  0  0  0
 10  9  1  0  0  0  0
 10  5  1  0  0  0  0
 11 10  2  0  0  0  0
 12 16  2  0  0  0  0
 12 11  1  0  0  0  0
 13 12  1  0  0  0  0
 14 13  1  0  0  0  0
 14 15  2  0  0  0  0
 15 16  1  0  0  0  0
 16 17  1  0  0  0  0
 17 22  1  0  0  0  0
 17  9  2  0  0  0  0
 19 11  1  0  0  0  0
 20 13  1  0  0  0  0
 21 14  1  0  0  0  0
 23 24  2  0  0  0  0
 24 26  1  0  0  0  0
 24 25  1  0  0  0  0
 27 26  1  0  0  0  0
 28 27  1  0  0  0  0
 29 23  1  0  0  0  0
 29 27  2  0  0  0  0
M  END
>  <minimizedAffinity>
-5.54530668

$$$$

 OpenBabel03212520033D

 29 32  0  0  0  0  0  0  0  0999 V2000
   39.5600   75.6150   61.0860 C   0  0  0  0  0  0  0  0  0  0  0  0
   40.2160   74.3760   61.1820 C   0  0  0  0  0  0  0  0  0  0  0  0
   40.2810   73.5980   60.0400 C   0  0  0  0  0  0  0  0  0  0  0  0
   39.7200   74.0510   58.8900 N   0  0  0  0  0  0  0  0  0  0  0  0
   39.0970   75.2440   58.8250 C   0  0  0  0  0  0  0  0  0  0  0  0
   39.0250   76.0130   59.9270 N   0  0  0  0  0  0  0  0  0  0  0  0
   39.5160   76.2130   61.9840 H   0  0  0  0  0  0  0  0  0  0  0  0
   40.6290   74.0870   62.1100 H   0  0  0  0  0  0  0  0  0  0  0  0
   38.4420   77.1020   57.3700 C   0  0  0  0  0  0  0  0  0  0  0  0
   38.4960   75.7130   57.5880 C   0  0  0  0  0  0  0  0  0  0  0  0
   37.9960   74.8350   56.6620 C   0  0  0  0  0  0  0  0  0  0  0  0
   37.4240   75.2750   55.4810 C   0  0  0  0  0  0  0  0  0  0  0  0
   36.8580   74.7080   54.3940 N   0  0  0  0  0  0  0  0  0  0  0  0
   36.4670   75.6950   53.5320 C   0  0  0  0  0  0  0  0  0  0  0  0
   36.8120   76.8820   54.1260 N   0  0  0  0  0  0  0  0  0  0  0  0
   37.3910   76.6350   55.3080 C   0  0  0  0  0  0  0  0  0  0  0  0
   37.8720   77.5780   56.1940 C   0  0  0  0  0  0  0  0  0  0  0  0
   38.8440   77.7720   58.1190 H   0  0  0  0  0  0  0  0  0  0  0  0
   38.0330   73.7580   56.8200 H   0  0  0  0  0  0  0  0  0  0  0  0
   36.7510   73.6730   54.2620 H   0  0  0  0  0  0  0  0  0  0  0  0
   35.9830   75.5620   52.5710 H   0  0  0  0  0  0  0  0  0  0  0  0
   37.8190   78.6410   56.0000 H   0  0  0  0  0  0  0  0  0  0  0  0
   40.9510   72.2810   60.0530 C   0  0  0  0  0  0  0  0  0  0  0  0
   41.5700   71.7920   61.2550 C   0  0  0  0  0  0  0  0  0  0  0  0
   41.6130   72.3430   62.2930 H   0  0  0  0  0  0  0  0  0  0  0  0
   42.2350   70.1290   60.6860 S   0  0  0  0  0  0  0  0  0  0  0  0
   41.5780   70.3970   59.0000 C   0  0  0  0  0  0  0  0  0  0  0  0
   41.6820   69.6870   58.1790 H   0  0  0  0  0  0  0  0  0  0  0  0
   41.0290   71.4900   59.0130 N   0  0  0  0  0  0  0  0  0  0  0  0
  1  2  1  0  0  0  0
  1  7  1  0  0  0  0
  2  8  1  0  0  0  0
  3 23  1  0  0  0  0
  3  2  2  0  0  0  0
  4  3  1  0  0  0  0
  5  4  2  0  0  0  0
  5  6  1  0  0  0  0
  6  1  2  0  0  0  0
  9 10  1  0  0  0  0
  9 18  1  0  0  0  0
 10  5  1  0  0  0  0
 11 19  1  0  0  0  0
 11 10  2  0  0  0  0
 12 11  1  0  0  0  0
 13 12  1  0  0  0  0
 14 15  2  0  0  0  0
 14 13  1  0  0  0  0
 15 16  1  0  0  0  0
 16 12  2  0  0  0  0
 16 17  1  0  0  0  0
 17  9  2  0  0  0  0
 20 13  1  0  0  0  0
 21 14  1  0  0  0  0
 22 17  1  0  0  0  0
 23 24  2  0  0  0  0
 24 25  1  0  0  0  0
 26 24  1  0  0  0  0
 27 29  2  0  0  0  0
 27 26  1  0  0  0  0
 28 27  1  0  0  0  0
 29 23  1  0  0  0  0
M  END
>  <minimizedAffinity>
-5.43686914

$$$$

 OpenBabel03212520033D

 29 32  0  0  0  0  0  0  0  0999 V2000
   41.7410   70.8490   63.2600 C   0  0  0  0  0  0  0  0  0  0  0  0
   42.5830   70.0160   62.5030 C   0  0  0  0  0  0  0  0  0  0  0  0
   42.8290   70.3810   61.1910 C   0  0  0  0  0  0  0  0  0  0  0  0
   42.2600   71.5090   60.6930 N   0  0  0  0  0  0  0  0  0  0  0  0
   41.4570   72.2890   61.4410 C   0  0  0  0  0  0  0  0  0  0  0  0
   41.2070   71.9490   62.7190 N   0  0  0  0  0  0  0  0  0  0  0  0
   41.5560   70.5540   64.2820 H   0  0  0  0  0  0  0  0  0  0  0  0
   42.9900   69.1540   62.9570 H   0  0  0  0  0  0  0  0  0  0  0  0
   39.5160   73.7700   61.2380 C   0  0  0  0  0  0  0  0  0  0  0  0
   40.8520   73.4900   60.8910 C   0  0  0  0  0  0  0  0  0  0  0  0
   41.5530   74.3250   60.0610 C   0  0  0  0  0  0  0  0  0  0  0  0
   40.9820   75.4710   59.5340 C   0  0  0  0  0  0  0  0  0  0  0  0
   41.3700   76.4750   58.7180 N   0  0  0  0  0  0  0  0  0  0  0  0
   40.3270   77.3460   58.5610 C   0  0  0  0  0  0  0  0  0  0  0  0
   39.2910   76.8420   59.3050 N   0  0  0  0  0  0  0  0  0  0  0  0
   39.6800   75.7060   59.8960 C   0  0  0  0  0  0  0  0  0  0  0  0
   38.9120   74.9130   60.7250 C   0  0  0  0  0  0  0  0  0  0  0  0
   38.9870   73.0930   61.8950 H   0  0  0  0  0  0  0  0  0  0  0  0
   42.5860   74.1190   59.7860 H   0  0  0  0  0  0  0  0  0  0  0  0
   42.3250   76.5460   58.2910 H   0  0  0  0  0  0  0  0  0  0  0  0
   40.3250   78.2530   57.9670 H   0  0  0  0  0  0  0  0  0  0  0  0
   37.8870   75.1520   60.9760 H   0  0  0  0  0  0  0  0  0  0  0  0
   43.7020   69.5620   60.3260 C   0  0  0  0  0  0  0  0  0  0  0  0
   43.3730   68.1900   60.0510 C   0  0  0  0  0  0  0  0  0  0  0  0
   42.4390   67.6010   60.4540 H   0  0  0  0  0  0  0  0  0  0  0  0
   44.7960   67.6790   58.9330 S   0  0  0  0  0  0  0  0  0  0  0  0
   45.5360   69.3470   59.0440 C   0  0  0  0  0  0  0  0  0  0  0  0
   46.4590   69.6450   58.5450 H   0  0  0  0  0  0  0  0  0  0  0  0
   44.7980   70.0050   59.7640 N   0  0  0  0  0  0  0  0  0  0  0  0
  1  7  1  0  0  0  0
  2  8  1  0  0  0  0
  2  1  2  0  0  0  0
  3  2  1  0  0  0  0
  4  3  2  0  0  0  0
  4  5  1  0  0  0  0
  5  6  2  0  0  0  0
  6  1  1  0  0  0  0
  9 18  1  0  0  0  0
 10  9  1  0  0  0  0
 10  5  1  0  0  0  0
 11 10  2  0  0  0  0
 12 16  2  0  0  0  0
 12 11  1  0  0  0  0
 13 12  1  0  0  0  0
 14 13  1  0  0  0  0
 14 15  2  0  0  0  0
 15 16  1  0  0  0  0
 16 17  1  0  0  0  0
 17 22  1  0  0  0  0
 17  9  2  0  0  0  0
 19 11  1  0  0  0  0
 20 13  1  0  0  0  0
 21 14  1  0  0  0  0
 23  3  1  0  0  0  0
 24 23  2  0  0  0  0
 24 25  1  0  0  0  0
 26 27  1  0  0  0  0
 26 24  1  0  0  0  0
 27 29  2  0  0  0  0
 28 27  1  0  0  0  0
 29 23  1  0  0  0  0
M  END
>  <minimizedAffinity>
-5.30253744

$$$$

 OpenBabel03212520033D

 29 32  0  0  0  0  0  0  0  0999 V2000
   43.1830   75.6050   58.8830 C   0  0  0  0  0  0  0  0  0  0  0  0
   42.0420   75.8400   58.0970 C   0  0  0  0  0  0  0  0  0  0  0  0
   40.9730   74.9750   58.2490 C   0  0  0  0  0  0  0  0  0  0  0  0
   41.0640   73.9500   59.1340 N   0  0  0  0  0  0  0  0  0  0  0  0
   42.1700   73.7470   59.8760 C   0  0  0  0  0  0  0  0  0  0  0  0
   43.2190   74.5790   59.7410 N   0  0  0  0  0  0  0  0  0  0  0  0
   44.0110   76.2860   58.7560 H   0  0  0  0  0  0  0  0  0  0  0  0
   42.0430   76.6580   57.4280 H   0  0  0  0  0  0  0  0  0  0  0  0
   41.4380   72.6940   61.9630 C   0  0  0  0  0  0  0  0  0  0  0  0
   42.2520   72.6430   60.8160 C   0  0  0  0  0  0  0  0  0  0  0  0
   43.0950   71.5840   60.5980 C   0  0  0  0  0  0  0  0  0  0  0  0
   43.1780   70.5280   61.4900 C   0  0  0  0  0  0  0  0  0  0  0  0
   43.8710   69.3730   61.5800 N   0  0  0  0  0  0  0  0  0  0  0  0
   43.5080   68.7270   62.7300 C   0  0  0  0  0  0  0  0  0  0  0  0
   42.5730   69.5240   63.3390 N   0  0  0  0  0  0  0  0  0  0  0  0
   42.3690   70.6180   62.5930 C   0  0  0  0  0  0  0  0  0  0  0  0
   41.4970   71.6490   62.8800 C   0  0  0  0  0  0  0  0  0  0  0  0
   40.7820   73.5420   62.1100 H   0  0  0  0  0  0  0  0  0  0  0  0
   43.7290   71.5330   59.7150 H   0  0  0  0  0  0  0  0  0  0  0  0
   44.5680   69.0510   60.8660 H   0  0  0  0  0  0  0  0  0  0  0  0
   43.8870   67.7750   63.0860 H   0  0  0  0  0  0  0  0  0  0  0  0
   40.8820   71.6640   63.7690 H   0  0  0  0  0  0  0  0  0  0  0  0
   39.7360   75.1500   57.4610 C   0  0  0  0  0  0  0  0  0  0  0  0
   38.5450   75.6630   58.0810 C   0  0  0  0  0  0  0  0  0  0  0  0
   38.4250   75.9810   59.2070 H   0  0  0  0  0  0  0  0  0  0  0  0
   37.3400   75.6660   56.6380 S   0  0  0  0  0  0  0  0  0  0  0  0
   38.6210   75.0010   55.5150 C   0  0  0  0  0  0  0  0  0  0  0  0
   38.4610   74.7850   54.4580 H   0  0  0  0  0  0  0  0  0  0  0  0
   39.6330   74.8640   56.1880 N   0  0  0  0  0  0  0  0  0  0  0  0
  1  6  1  0  0  0  0
  2  3  1  0  0  0  0
  2  1  2  0  0  0  0
  3  4  2  0  0  0  0
  4  5  1  0  0  0  0
  5 10  1  0  0  0  0
  6  5  2  0  0  0  0
  7  1  1  0  0  0  0
  8  2  1  0  0  0  0
  9 18  1  0  0  0  0
  9 17  1  0  0  0  0
 10  9  2  0  0  0  0
 11 10  1  0  0  0  0
 11 12  2  0  0  0  0
 12 13  1  0  0  0  0
 12 16  1  0  0  0  0
 13 14  1  0  0  0  0
 14 21  1  0  0  0  0
 14 15  2  0  0  0  0
 16 17  2  0  0  0  0
 16 15  1  0  0  0  0
 17 22  1  0  0  0  0
 19 11  1  0  0  0  0
 20 13  1  0  0  0  0
 23 24  2  0  0  0  0
 23  3  1  0  0  0  0
 24 25  1  0  0  0  0
 26 24  1  0  0  0  0
 27 29  2  0  0  0  0
 27 26  1  0  0  0  0
 28 27  1  0  0  0  0
 29 23  1  0  0  0  0
M  END
>  <minimizedAffinity>
-5.22945976

$$$$

 OpenBabel03212520033D

 29 32  0  0  0  0  0  0  0  0999 V2000
   43.6670   72.8540   60.5450 C   0  0  0  0  0  0  0  0  0  0  0  0
   42.6400   73.6810   60.0590 C   0  0  0  0  0  0  0  0  0  0  0  0
   41.4090   73.0960   59.8210 C   0  0  0  0  0  0  0  0  0  0  0  0
   41.2400   71.7710   60.0630 N   0  0  0  0  0  0  0  0  0  0  0  0
   42.2410   71.0010   60.5300 C   0  0  0  0  0  0  0  0  0  0  0  0
   43.4460   71.5530   60.7660 N   0  0  0  0  0  0  0  0  0  0  0  0
   44.6230   73.3210   60.7270 H   0  0  0  0  0  0  0  0  0  0  0  0
   42.8440   74.7040   59.8930 H   0  0  0  0  0  0  0  0  0  0  0  0
   41.9950   68.7220   59.6660 C   0  0  0  0  0  0  0  0  0  0  0  0
   42.0460   69.5830   60.7790 C   0  0  0  0  0  0  0  0  0  0  0  0
   41.9130   69.0950   62.0530 C   0  0  0  0  0  0  0  0  0  0  0  0
   41.7270   67.7450   62.2970 C   0  0  0  0  0  0  0  0  0  0  0  0
   41.5680   66.9570   63.3810 N   0  0  0  0  0  0  0  0  0  0  0  0
   41.4250   65.6600   62.9690 C   0  0  0  0  0  0  0  0  0  0  0  0
   41.5020   65.6820   61.6000 N   0  0  0  0  0  0  0  0  0  0  0  0
   41.6840   66.9420   61.1860 C   0  0  0  0  0  0  0  0  0  0  0  0
   41.8090   67.3600   59.8760 C   0  0  0  0  0  0  0  0  0  0  0  0
   42.1030   69.1350   58.6720 H   0  0  0  0  0  0  0  0  0  0  0  0
   41.9510   69.7510   62.9210 H   0  0  0  0  0  0  0  0  0  0  0  0
   41.5600   67.3130   64.3680 H   0  0  0  0  0  0  0  0  0  0  0  0
   41.2810   64.7920   63.6020 H   0  0  0  0  0  0  0  0  0  0  0  0
   41.7670   66.6760   59.0390 H   0  0  0  0  0  0  0  0  0  0  0  0
   40.2750   73.8930   59.3090 C   0  0  0  0  0  0  0  0  0  0  0  0
   40.5110   75.0570   58.4990 C   0  0  0  0  0  0  0  0  0  0  0  0
   41.5590   75.4820   58.1740 H   0  0  0  0  0  0  0  0  0  0  0  0
   38.7570   75.6380   58.1540 S   0  0  0  0  0  0  0  0  0  0  0  0
   38.0640   74.2550   59.1290 C   0  0  0  0  0  0  0  0  0  0  0  0
   36.9980   74.0830   59.2810 H   0  0  0  0  0  0  0  0  0  0  0  0
   39.0190   73.6110   59.5420 N   0  0  0  0  0  0  0  0  0  0  0  0
  1  7  1  0  0  0  0
  1  6  1  0  0  0  0
  2  1  2  0  0  0  0
  3  2  1  0  0  0  0
  3  4  2  0  0  0  0
  4  5  1  0  0  0  0
  5  6  2  0  0  0  0
  5 10  1  0  0  0  0
  8  2  1  0  0  0  0
  9 17  2  0  0  0  0
  9 10  1  0  0  0  0
 10 11  2  0  0  0  0
 11 12  1  0  0  0  0
 11 19  1  0  0  0  0
 12 13  1  0  0  0  0
 13 20  1  0  0  0  0
 14 13  1  0  0  0  0
 14 21  1  0  0  0  0
 15 14  2  0  0  0  0
 16 15  1  0  0  0  0
 16 12  2  0  0  0  0
 17 16  1  0  0  0  0
 18  9  1  0  0  0  0
 22 17  1  0  0  0  0
 23 29  1  0  0  0  0
 23  3  1  0  0  0  0
 24 23  2  0  0  0  0
 25 24  1  0  0  0  0
 26 24  1  0  0  0  0
 26 27  1  0  0  0  0
 27 28  1  0  0  0  0
 27 29  2  0  0  0  0
M  END
>  <minimizedAffinity>
-5.20574808

$$$$

 OpenBabel03212520033D

 29 32  0  0  0  0  0  0  0  0999 V2000
   41.8050   69.4520   63.4870 C   0  0  0  0  0  0  0  0  0  0  0  0
   42.7830   68.6340   62.8960 C   0  0  0  0  0  0  0  0  0  0  0  0
   43.3940   69.1000   61.7460 C   0  0  0  0  0  0  0  0  0  0  0  0
   43.0340   70.3070   61.2390 N   0  0  0  0  0  0  0  0  0  0  0  0
   42.0930   71.0720   61.8260 C   0  0  0  0  0  0  0  0  0  0  0  0
   41.4890   70.6340   62.9460 N   0  0  0  0  0  0  0  0  0  0  0  0
   41.3350   69.0790   64.3840 H   0  0  0  0  0  0  0  0  0  0  0  0
   43.0120   67.7060   63.3460 H   0  0  0  0  0  0  0  0  0  0  0  0
   42.5390   72.9080   60.2680 C   0  0  0  0  0  0  0  0  0  0  0  0
   41.7160   72.3590   61.2690 C   0  0  0  0  0  0  0  0  0  0  0  0
   40.5970   73.0220   61.7020 C   0  0  0  0  0  0  0  0  0  0  0  0
   40.2310   74.2490   61.1740 C   0  0  0  0  0  0  0  0  0  0  0  0
   39.2330   75.1390   61.3610 N   0  0  0  0  0  0  0  0  0  0  0  0
   39.4200   76.1970   60.5150 C   0  0  0  0  0  0  0  0  0  0  0  0
   40.5630   75.9260   59.8070 N   0  0  0  0  0  0  0  0  0  0  0  0
   41.0600   74.7470   60.2020 C   0  0  0  0  0  0  0  0  0  0  0  0
   42.2010   74.1400   59.7170 C   0  0  0  0  0  0  0  0  0  0  0  0
   43.4160   72.3630   59.9460 H   0  0  0  0  0  0  0  0  0  0  0  0
   39.9520   72.6080   62.4750 H   0  0  0  0  0  0  0  0  0  0  0  0
   38.4550   75.0090   62.0520 H   0  0  0  0  0  0  0  0  0  0  0  0
   38.7870   77.0740   60.4250 H   0  0  0  0  0  0  0  0  0  0  0  0
   42.8150   74.5830   58.9450 H   0  0  0  0  0  0  0  0  0  0  0  0
   44.4320   68.3030   61.0600 C   0  0  0  0  0  0  0  0  0  0  0  0
   44.5630   68.3550   59.6300 C   0  0  0  0  0  0  0  0  0  0  0  0
   43.9060   68.9910   58.8910 H   0  0  0  0  0  0  0  0  0  0  0  0
   46.0000   67.1780   59.3400 S   0  0  0  0  0  0  0  0  0  0  0  0
   46.1470   66.8510   61.1340 C   0  0  0  0  0  0  0  0  0  0  0  0
   46.8830   66.1810   61.5790 H   0  0  0  0  0  0  0  0  0  0  0  0
   45.2790   67.5200   61.6790 N   0  0  0  0  0  0  0  0  0  0  0  0
  1  7  1  0  0  0  0
  2  8  1  0  0  0  0
  2  1  2  0  0  0  0
  3  2  1  0  0  0  0
  4  3  2  0  0  0  0
  4  5  1  0  0  0  0
  5  6  2  0  0  0  0
  6  1  1  0  0  0  0
  9 10  1  0  0  0  0
 10 11  2  0  0  0  0
 10  5  1  0  0  0  0
 11 19  1  0  0  0  0
 12 13  1  0  0  0  0
 12 11  1  0  0  0  0
 13 20  1  0  0  0  0
 14 13  1  0  0  0  0
 15 16  1  0  0  0  0
 15 14  2  0  0  0  0
 16 12  2  0  0  0  0
 17 16  1  0  0  0  0
 17  9  2  0  0  0  0
 18  9  1  0  0  0  0
 21 14  1  0  0  0  0
 22 17  1  0  0  0  0
 23 29  1  0  0  0  0
 23  3  1  0  0  0  0
 24 23  2  0  0  0  0
 25 24  1  0  0  0  0
 26 24  1  0  0  0  0
 26 27  1  0  0  0  0
 27 28  1  0  0  0  0
 27 29  2  0  0  0  0
M  END
>  <minimizedAffinity>
-5.11869287

$$$$
