
 OpenBabel03212520023D

 29 32  0  0  0  0  0  0  0  0999 V2000
   40.7330   81.9420   57.0870 C   0  0  0  0  0  0  0  0  0  0  0  0
   41.9150   82.3680   56.4580 C   0  0  0  0  0  0  0  0  0  0  0  0
   42.8140   83.0980   57.2160 C   0  0  0  0  0  0  0  0  0  0  0  0
   42.5270   83.3690   58.5150 N   0  0  0  0  0  0  0  0  0  0  0  0
   41.3860   82.9470   59.0940 C   0  0  0  0  0  0  0  0  0  0  0  0
   40.5010   82.2370   58.3710 N   0  0  0  0  0  0  0  0  0  0  0  0
   40.0390   81.3730   56.4860 H   0  0  0  0  0  0  0  0  0  0  0  0
   42.0710   82.1210   55.4430 H   0  0  0  0  0  0  0  0  0  0  0  0
   39.7680   83.0730   60.9280 C   0  0  0  0  0  0  0  0  0  0  0  0
   41.0920   83.2510   60.4830 C   0  0  0  0  0  0  0  0  0  0  0  0
   42.0660   83.6970   61.3370 C   0  0  0  0  0  0  0  0  0  0  0  0
   41.7930   83.9880   62.6630 C   0  0  0  0  0  0  0  0  0  0  0  0
   42.4860   84.4270   63.7340 N   0  0  0  0  0  0  0  0  0  0  0  0
   41.6380   84.5200   64.8030 C   0  0  0  0  0  0  0  0  0  0  0  0
   40.4060   84.1240   64.3510 N   0  0  0  0  0  0  0  0  0  0  0  0
   40.4920   83.8010   63.0540 C   0  0  0  0  0  0  0  0  0  0  0  0
   39.4580   83.3560   62.2550 C   0  0  0  0  0  0  0  0  0  0  0  0
   39.0180   82.7200   60.2320 H   0  0  0  0  0  0  0  0  0  0  0  0
   43.0940   83.8390   61.0050 H   0  0  0  0  0  0  0  0  0  0  0  0
   43.5110   84.6520   63.7170 H   0  0  0  0  0  0  0  0  0  0  0  0
   41.8940   84.8420   65.8070 H   0  0  0  0  0  0  0  0  0  0  0  0
   38.4490   83.2270   62.6220 H   0  0  0  0  0  0  0  0  0  0  0  0
   44.0800   83.5850   56.6320 C   0  0  0  0  0  0  0  0  0  0  0  0
   45.1860   82.6870   56.4420 C   0  0  0  0  0  0  0  0  0  0  0  0
   45.2120   81.5430   56.7080 H   0  0  0  0  0  0  0  0  0  0  0  0
   46.4760   83.8320   55.6930 S   0  0  0  0  0  0  0  0  0  0  0  0
   45.3240   85.2510   55.7750 C   0  0  0  0  0  0  0  0  0  0  0  0
   45.5660   86.2600   55.4420 H   0  0  0  0  0  0  0  0  0  0  0  0
   44.2840   84.8230   56.2600 N   0  0  0  0  0  0  0  0  0  0  0  0
  1  6  1  0  0  0  0
  2  1  2  0  0  0  0
  2  3  1  0  0  0  0
  3  4  2  0  0  0  0
  4  5  1  0  0  0  0
  5 10  1  0  0  0  0
  6  5  2  0  0  0  0
  7  1  1  0  0  0  0
  8  2  1  0  0  0  0
  9 17  1  0  0  0  0
 10  9  2  0  0  0  0
 10 11  1  0  0  0  0
 11 12  2  0  0  0  0
 12 16  1  0  0  0  0
 12 13  1  0  0  0  0
 13 14  1  0  0  0  0
 14 21  1  0  0  0  0
 15 14  2  0  0  0  0
 16 15  1  0  0  0  0
 17 22  1  0  0  0  0
 17 16  2  0  0  0  0
 18  9  1  0  0  0  0
 19 11  1  0  0  0  0
 20 13  1  0  0  0  0
 23  3  1  0  0  0  0
 24 23  2  0  0  0  0
 24 25  1  0  0  0  0
 26 27  1  0  0  0  0
 26 24  1  0  0  0  0
 27 29  2  0  0  0  0
 28 27  1  0  0  0  0
 29 23  1  0  0  0  0
M  END
>  <minimizedAffinity>
-4.6219244

>  <minimizedRMSD>
1.07327294

$$$$
