
 OpenBabel03212520463D

 18 19  0  0  0  0  0  0  0  0999 V2000
   39.4800   76.4450   59.9050 C   0  0  0  0  0  0  0  0  0  0  0  0
   39.2030   75.2830   60.6440 C   0  0  0  0  0  0  0  0  0  0  0  0
   38.4170   74.2850   60.0610 C   0  0  0  0  0  0  0  0  0  0  0  0
   37.9700   74.5120   58.8060 N   0  0  0  0  0  0  0  0  0  0  0  0
   38.2480   75.6290   58.1210 C   0  0  0  0  0  0  0  0  0  0  0  0
   38.9970   76.5930   58.6610 N   0  0  0  0  0  0  0  0  0  0  0  0
   40.2850   77.3630   60.6230 N   0  0  0  0  0  0  0  0  0  0  0  0
   39.5540   75.0870   61.6510 H   0  0  0  0  0  0  0  0  0  0  0  0
   38.1880   73.3800   60.6050 H   0  0  0  0  0  0  0  0  0  0  0  0
   41.2610   77.2490   60.9850 H   0  0  0  0  0  0  0  0  0  0  0  0
   39.6820   78.2210   60.7230 H   0  0  0  0  0  0  0  0  0  0  0  0
   37.7170   75.7760   56.7690 C   0  0  0  0  0  0  0  0  0  0  0  0
   37.8800   74.7410   55.8070 C   0  0  0  0  0  0  0  0  0  0  0  0
   38.3600   73.8320   55.9450 H   0  0  0  0  0  0  0  0  0  0  0  0
   37.0040   75.5140   54.3130 S   0  0  0  0  0  0  0  0  0  0  0  0
   36.6150   77.0670   55.3410 C   0  0  0  0  0  0  0  0  0  0  0  0
   36.0670   77.8950   54.8850 H   0  0  0  0  0  0  0  0  0  0  0  0
   37.0680   76.8570   56.3740 N   0  0  0  0  0  0  0  0  0  0  0  0
  1  7  1  0  0  0  0
  1  2  1  0  0  0  0
  2  8  1  0  0  0  0
  3  9  1  0  0  0  0
  3  2  2  0  0  0  0
  4  3  1  0  0  0  0
  5  6  1  0  0  0  0
  5  4  2  0  0  0  0
  6  1  2  0  0  0  0
  7 11  1  0  0  0  0
  7 10  1  0  0  0  0
 12  5  1  0  0  0  0
 13 14  1  0  0  0  0
 13 12  2  0  0  0  0
 15 16  1  0  0  0  0
 15 13  1  0  0  0  0
 16 18  2  0  0  0  0
 17 16  1  0  0  0  0
 18 12  1  0  0  0  0
M  END
>  <minimizedAffinity>
-4.39282703

$$$$

 OpenBabel03212520463D

 18 19  0  0  0  0  0  0  0  0999 V2000
   38.8650   74.6860   60.2500 C   0  0  0  0  0  0  0  0  0  0  0  0
   39.6490   75.7610   60.6990 C   0  0  0  0  0  0  0  0  0  0  0  0
   39.7860   76.8830   59.8770 C   0  0  0  0  0  0  0  0  0  0  0  0
   39.1440   76.8550   58.6880 N   0  0  0  0  0  0  0  0  0  0  0  0
   38.4010   75.8170   58.2820 C   0  0  0  0  0  0  0  0  0  0  0  0
   38.2590   74.7360   59.0530 N   0  0  0  0  0  0  0  0  0  0  0  0
   38.8180   73.6230   61.1860 N   0  0  0  0  0  0  0  0  0  0  0  0
   40.1690   75.7990   61.6490 H   0  0  0  0  0  0  0  0  0  0  0  0
   40.3820   77.7260   60.1960 H   0  0  0  0  0  0  0  0  0  0  0  0
   38.4390   73.6140   62.1620 H   0  0  0  0  0  0  0  0  0  0  0  0
   39.2600   72.8090   60.6840 H   0  0  0  0  0  0  0  0  0  0  0  0
   37.7470   75.8850   56.9790 C   0  0  0  0  0  0  0  0  0  0  0  0
   37.5670   74.7140   56.1940 C   0  0  0  0  0  0  0  0  0  0  0  0
   37.8590   73.7490   56.4380 H   0  0  0  0  0  0  0  0  0  0  0  0
   36.6920   75.4430   54.6770 S   0  0  0  0  0  0  0  0  0  0  0  0
   36.7710   77.1750   55.4610 C   0  0  0  0  0  0  0  0  0  0  0  0
   36.3560   78.0320   54.9250 H   0  0  0  0  0  0  0  0  0  0  0  0
   37.2960   77.0170   56.4690 N   0  0  0  0  0  0  0  0  0  0  0  0
  1  2  1  0  0  0  0
  1  7  1  0  0  0  0
  2  8  1  0  0  0  0
  3  9  1  0  0  0  0
  3  2  2  0  0  0  0
  4  3  1  0  0  0  0
  5  4  2  0  0  0  0
  5  6  1  0  0  0  0
  6  1  2  0  0  0  0
  7 10  1  0  0  0  0
 11  7  1  0  0  0  0
 12  5  1  0  0  0  0
 13 14  1  0  0  0  0
 13 12  2  0  0  0  0
 15 16  1  0  0  0  0
 15 13  1  0  0  0  0
 16 18  2  0  0  0  0
 17 16  1  0  0  0  0
 18 12  1  0  0  0  0
M  END
>  <minimizedAffinity>
-4.35677767

$$$$

 OpenBabel03212520463D

 18 19  0  0  0  0  0  0  0  0999 V2000
   37.4830   75.4310   54.2970 C   0  0  0  0  0  0  0  0  0  0  0  0
   36.7230   76.5880   54.0600 C   0  0  0  0  0  0  0  0  0  0  0  0
   36.4740   77.4600   55.1240 C   0  0  0  0  0  0  0  0  0  0  0  0
   36.9900   77.1230   56.3260 N   0  0  0  0  0  0  0  0  0  0  0  0
   37.7130   76.0140   56.5280 C   0  0  0  0  0  0  0  0  0  0  0  0
   37.9600   75.1690   55.5240 N   0  0  0  0  0  0  0  0  0  0  0  0
   37.6520   74.6460   53.1310 N   0  0  0  0  0  0  0  0  0  0  0  0
   36.3030   76.8710   53.1020 H   0  0  0  0  0  0  0  0  0  0  0  0
   35.8930   78.3580   54.9710 H   0  0  0  0  0  0  0  0  0  0  0  0
   38.1300   74.8880   52.2310 H   0  0  0  0  0  0  0  0  0  0  0  0
   37.1810   73.7310   53.3570 H   0  0  0  0  0  0  0  0  0  0  0  0
   38.2270   75.7410   57.8670 C   0  0  0  0  0  0  0  0  0  0  0  0
   39.0500   76.6880   58.5350 C   0  0  0  0  0  0  0  0  0  0  0  0
   39.3580   77.6110   58.1760 H   0  0  0  0  0  0  0  0  0  0  0  0
   39.3730   75.7770   60.1670 S   0  0  0  0  0  0  0  0  0  0  0  0
   38.3120   74.3170   59.5650 C   0  0  0  0  0  0  0  0  0  0  0  0
   38.1720   73.4460   60.2100 H   0  0  0  0  0  0  0  0  0  0  0  0
   37.9590   74.6230   58.5170 N   0  0  0  0  0  0  0  0  0  0  0  0
  1  6  1  0  0  0  0
  2  1  2  0  0  0  0
  2  3  1  0  0  0  0
  3  4  2  0  0  0  0
  4  5  1  0  0  0  0
  5 12  1  0  0  0  0
  6  5  2  0  0  0  0
  7 11  1  0  0  0  0
  7  1  1  0  0  0  0
  8  2  1  0  0  0  0
  9  3  1  0  0  0  0
 10  7  1  0  0  0  0
 12 18  1  0  0  0  0
 12 13  2  0  0  0  0
 13 15  1  0  0  0  0
 14 13  1  0  0  0  0
 16 15  1  0  0  0  0
 16 17  1  0  0  0  0
 18 16  2  0  0  0  0
M  END
>  <minimizedAffinity>
-4.29245043

$$$$

 OpenBabel03212520463D

 18 19  0  0  0  0  0  0  0  0999 V2000
   38.0210   74.9210   54.6930 C   0  0  0  0  0  0  0  0  0  0  0  0
   37.1350   75.9530   54.3420 C   0  0  0  0  0  0  0  0  0  0  0  0
   36.6720   76.8120   55.3420 C   0  0  0  0  0  0  0  0  0  0  0  0
   37.1150   76.5860   56.5980 N   0  0  0  0  0  0  0  0  0  0  0  0
   37.9610   75.5950   56.9090 C   0  0  0  0  0  0  0  0  0  0  0  0
   38.4140   74.7640   55.9670 N   0  0  0  0  0  0  0  0  0  0  0  0
   38.4040   74.1350   53.5790 N   0  0  0  0  0  0  0  0  0  0  0  0
   36.7710   76.1470   53.3400 H   0  0  0  0  0  0  0  0  0  0  0  0
   35.9900   77.6150   55.1020 H   0  0  0  0  0  0  0  0  0  0  0  0
   38.9260   74.4150   52.7160 H   0  0  0  0  0  0  0  0  0  0  0  0
   38.0450   73.1700   53.8010 H   0  0  0  0  0  0  0  0  0  0  0  0
   38.3810   75.4360   58.2980 C   0  0  0  0  0  0  0  0  0  0  0  0
   38.0770   74.2480   59.0180 C   0  0  0  0  0  0  0  0  0  0  0  0
   37.5610   73.4200   58.6650 H   0  0  0  0  0  0  0  0  0  0  0  0
   38.8640   74.6480   60.6970 S   0  0  0  0  0  0  0  0  0  0  0  0
   39.4260   76.3400   60.0330 C   0  0  0  0  0  0  0  0  0  0  0  0
   39.9800   77.0210   60.6840 H   0  0  0  0  0  0  0  0  0  0  0  0
   39.0530   76.3690   58.9480 N   0  0  0  0  0  0  0  0  0  0  0  0
  1  6  1  0  0  0  0
  2  1  2  0  0  0  0
  2  3  1  0  0  0  0
  3  4  2  0  0  0  0
  4  5  1  0  0  0  0
  5 12  1  0  0  0  0
  6  5  2  0  0  0  0
  7 11  1  0  0  0  0
  7  1  1  0  0  0  0
  8  2  1  0  0  0  0
  9  3  1  0  0  0  0
 10  7  1  0  0  0  0
 12 18  1  0  0  0  0
 12 13  2  0  0  0  0
 13 15  1  0  0  0  0
 14 13  1  0  0  0  0
 16 17  1  0  0  0  0
 16 15  1  0  0  0  0
 18 16  2  0  0  0  0
M  END
>  <minimizedAffinity>
-4.23294973

$$$$

 OpenBabel03212520463D

 18 19  0  0  0  0  0  0  0  0999 V2000
   39.6940   74.8500   61.0990 C   0  0  0  0  0  0  0  0  0  0  0  0
   40.4240   75.5080   60.0950 C   0  0  0  0  0  0  0  0  0  0  0  0
   41.6200   74.9390   59.6490 C   0  0  0  0  0  0  0  0  0  0  0  0
   41.9980   73.7770   60.2240 N   0  0  0  0  0  0  0  0  0  0  0  0
   41.2850   73.1670   61.1810 C   0  0  0  0  0  0  0  0  0  0  0  0
   40.1400   73.6950   61.6200 N   0  0  0  0  0  0  0  0  0  0  0  0
   38.5090   75.5410   61.4470 N   0  0  0  0  0  0  0  0  0  0  0  0
   40.1330   76.4390   59.6240 H   0  0  0  0  0  0  0  0  0  0  0  0
   42.2020   75.4220   58.8770 H   0  0  0  0  0  0  0  0  0  0  0  0
   37.6730   75.7650   60.8580 H   0  0  0  0  0  0  0  0  0  0  0  0
   38.6400   75.7950   62.4610 H   0  0  0  0  0  0  0  0  0  0  0  0
   41.7820   71.9120   61.7380 C   0  0  0  0  0  0  0  0  0  0  0  0
   42.7460   71.1370   61.0360 C   0  0  0  0  0  0  0  0  0  0  0  0
   43.1740   71.3570   60.1180 H   0  0  0  0  0  0  0  0  0  0  0  0
   42.9670   69.6870   62.2390 S   0  0  0  0  0  0  0  0  0  0  0  0
   41.6970   70.4700   63.4200 C   0  0  0  0  0  0  0  0  0  0  0  0
   41.4470   69.9670   64.3580 H   0  0  0  0  0  0  0  0  0  0  0  0
   41.3700   71.4390   62.9000 N   0  0  0  0  0  0  0  0  0  0  0  0
  1  7  1  0  0  0  0
  1  6  1  0  0  0  0
  2  1  2  0  0  0  0
  3  2  1  0  0  0  0
  3  4  2  0  0  0  0
  4  5  1  0  0  0  0
  5  6  2  0  0  0  0
  5 12  1  0  0  0  0
  7 11  1  0  0  0  0
  8  2  1  0  0  0  0
  9  3  1  0  0  0  0
 10  7  1  0  0  0  0
 12 18  1  0  0  0  0
 13 12  2  0  0  0  0
 13 15  1  0  0  0  0
 14 13  1  0  0  0  0
 15 16  1  0  0  0  0
 16 17  1  0  0  0  0
 18 16  2  0  0  0  0
M  END
>  <minimizedAffinity>
-4.10864496

$$$$

 OpenBabel03212520463D

 18 19  0  0  0  0  0  0  0  0999 V2000
   37.5160   74.5330   57.4060 C   0  0  0  0  0  0  0  0  0  0  0  0
   37.7060   75.8940   57.1200 C   0  0  0  0  0  0  0  0  0  0  0  0
   38.7120   76.5900   57.7970 C   0  0  0  0  0  0  0  0  0  0  0  0
   39.4420   75.8940   58.6950 N   0  0  0  0  0  0  0  0  0  0  0  0
   39.2410   74.5950   58.9510 C   0  0  0  0  0  0  0  0  0  0  0  0
   38.2860   73.9130   58.3150 N   0  0  0  0  0  0  0  0  0  0  0  0
   36.4670   73.9620   56.6460 N   0  0  0  0  0  0  0  0  0  0  0  0
   37.1300   76.4660   56.4030 H   0  0  0  0  0  0  0  0  0  0  0  0
   38.8820   77.6390   57.5970 H   0  0  0  0  0  0  0  0  0  0  0  0
   36.3820   73.8500   55.6080 H   0  0  0  0  0  0  0  0  0  0  0  0
   35.7570   73.6570   57.3620 H   0  0  0  0  0  0  0  0  0  0  0  0
   40.0870   73.9330   59.9410 C   0  0  0  0  0  0  0  0  0  0  0  0
   39.5200   73.3510   61.1080 C   0  0  0  0  0  0  0  0  0  0  0  0
   38.5170   73.3310   61.3710 H   0  0  0  0  0  0  0  0  0  0  0  0
   41.0800   72.6790   61.9530 S   0  0  0  0  0  0  0  0  0  0  0  0
   42.1440   73.3440   60.5240 C   0  0  0  0  0  0  0  0  0  0  0  0
   43.2270   73.1970   60.5410 H   0  0  0  0  0  0  0  0  0  0  0  0
   41.3980   73.8410   59.8080 N   0  0  0  0  0  0  0  0  0  0  0  0
  1  6  1  0  0  0  0
  2  1  2  0  0  0  0
  2  3  1  0  0  0  0
  3  4  2  0  0  0  0
  4  5  1  0  0  0  0
  5 12  1  0  0  0  0
  6  5  2  0  0  0  0
  7 11  1  0  0  0  0
  7  1  1  0  0  0  0
  8  2  1  0  0  0  0
  9  3  1  0  0  0  0
 10  7  1  0  0  0  0
 12 13  2  0  0  0  0
 13 14  1  0  0  0  0
 13 15  1  0  0  0  0
 16 17  1  0  0  0  0
 16 15  1  0  0  0  0
 18 12  1  0  0  0  0
 18 16  2  0  0  0  0
M  END
>  <minimizedAffinity>
-4.07712126

$$$$

 OpenBabel03212520463D

 18 19  0  0  0  0  0  0  0  0999 V2000
   41.2910   72.1370   62.1610 C   0  0  0  0  0  0  0  0  0  0  0  0
   42.6770   72.2360   61.9650 C   0  0  0  0  0  0  0  0  0  0  0  0
   43.1580   73.1040   60.9800 C   0  0  0  0  0  0  0  0  0  0  0  0
   42.2390   73.7980   60.2740 N   0  0  0  0  0  0  0  0  0  0  0  0
   40.9210   73.6870   60.4800 C   0  0  0  0  0  0  0  0  0  0  0  0
   40.4430   72.8640   61.4150 N   0  0  0  0  0  0  0  0  0  0  0  0
   40.9530   71.2230   63.1890 N   0  0  0  0  0  0  0  0  0  0  0  0
   43.4260   71.6860   62.5230 H   0  0  0  0  0  0  0  0  0  0  0  0
   44.2200   73.2010   60.8070 H   0  0  0  0  0  0  0  0  0  0  0  0
   41.1890   71.2530   64.2090 H   0  0  0  0  0  0  0  0  0  0  0  0
   40.3940   70.4740   62.7030 H   0  0  0  0  0  0  0  0  0  0  0  0
   40.0100   74.4840   59.6620 C   0  0  0  0  0  0  0  0  0  0  0  0
   40.3670   75.7960   59.2460 C   0  0  0  0  0  0  0  0  0  0  0  0
   41.2480   76.3000   59.4590 H   0  0  0  0  0  0  0  0  0  0  0  0
   38.8240   76.2770   58.2530 S   0  0  0  0  0  0  0  0  0  0  0  0
   38.0490   74.5810   58.6320 C   0  0  0  0  0  0  0  0  0  0  0  0
   37.0560   74.3400   58.2430 H   0  0  0  0  0  0  0  0  0  0  0  0
   38.8300   74.0370   59.2720 N   0  0  0  0  0  0  0  0  0  0  0  0
  1  7  1  0  0  0  0
  2  1  1  0  0  0  0
  2  8  1  0  0  0  0
  3  2  2  0  0  0  0
  4  5  2  0  0  0  0
  4  3  1  0  0  0  0
  5  6  1  0  0  0  0
  6  1  2  0  0  0  0
  7 10  1  0  0  0  0
  9  3  1  0  0  0  0
 11  7  1  0  0  0  0
 12  5  1  0  0  0  0
 13 14  1  0  0  0  0
 13 12  2  0  0  0  0
 15 16  1  0  0  0  0
 15 13  1  0  0  0  0
 16 18  2  0  0  0  0
 17 16  1  0  0  0  0
 18 12  1  0  0  0  0
M  END
>  <minimizedAffinity>
-3.89424443

$$$$

 OpenBabel03212520463D

 18 19  0  0  0  0  0  0  0  0999 V2000
   42.8300   70.6650   61.0970 C   0  0  0  0  0  0  0  0  0  0  0  0
   42.7060   70.1470   62.3970 C   0  0  0  0  0  0  0  0  0  0  0  0
   41.7710   70.7210   63.2640 C   0  0  0  0  0  0  0  0  0  0  0  0
   41.0420   71.7520   62.7840 N   0  0  0  0  0  0  0  0  0  0  0  0
   41.1790   72.2290   61.5400 C   0  0  0  0  0  0  0  0  0  0  0  0
   42.0660   71.6940   60.6970 N   0  0  0  0  0  0  0  0  0  0  0  0
   43.8120   69.9860   60.3360 N   0  0  0  0  0  0  0  0  0  0  0  0
   43.2830   69.3210   62.7950 H   0  0  0  0  0  0  0  0  0  0  0  0
   41.6530   70.3430   64.2690 H   0  0  0  0  0  0  0  0  0  0  0  0
   43.8450   68.9820   60.0390 H   0  0  0  0  0  0  0  0  0  0  0  0
   44.5330   70.7220   60.1180 H   0  0  0  0  0  0  0  0  0  0  0  0
   40.3400   73.3480   61.1180 C   0  0  0  0  0  0  0  0  0  0  0  0
   40.8920   74.4320   60.3820 C   0  0  0  0  0  0  0  0  0  0  0  0
   41.8790   74.5450   60.0840 H   0  0  0  0  0  0  0  0  0  0  0  0
   39.3510   75.5130   60.1490 S   0  0  0  0  0  0  0  0  0  0  0  0
   38.3100   74.2400   61.1060 C   0  0  0  0  0  0  0  0  0  0  0  0
   37.2430   74.4190   61.2610 H   0  0  0  0  0  0  0  0  0  0  0  0
   39.0490   73.4110   61.3910 N   0  0  0  0  0  0  0  0  0  0  0  0
  1  2  1  0  0  0  0
  2  8  1  0  0  0  0
  2  3  2  0  0  0  0
  3  9  1  0  0  0  0
  4  3  1  0  0  0  0
  5  4  2  0  0  0  0
  6  1  2  0  0  0  0
  6  5  1  0  0  0  0
  7  1  1  0  0  0  0
 10  7  1  0  0  0  0
 11  7  1  0  0  0  0
 12 18  1  0  0  0  0
 12  5  1  0  0  0  0
 13 12  2  0  0  0  0
 14 13  1  0  0  0  0
 15 13  1  0  0  0  0
 15 16  1  0  0  0  0
 16 17  1  0  0  0  0
 16 18  2  0  0  0  0
M  END
>  <minimizedAffinity>
-3.88009286

$$$$

 OpenBabel03212520463D

 18 19  0  0  0  0  0  0  0  0999 V2000
   40.9350   74.3380   59.9580 C   0  0  0  0  0  0  0  0  0  0  0  0
   40.2480   73.9060   61.1040 C   0  0  0  0  0  0  0  0  0  0  0  0
   38.8520   73.9790   61.1200 C   0  0  0  0  0  0  0  0  0  0  0  0
   38.2510   74.4700   60.0140 N   0  0  0  0  0  0  0  0  0  0  0  0
   38.9280   74.8760   58.9330 C   0  0  0  0  0  0  0  0  0  0  0  0
   40.2610   74.8140   58.8980 N   0  0  0  0  0  0  0  0  0  0  0  0
   42.3380   74.2040   60.0850 N   0  0  0  0  0  0  0  0  0  0  0  0
   40.7160   73.5100   61.9970 H   0  0  0  0  0  0  0  0  0  0  0  0
   38.2970   73.6530   61.9880 H   0  0  0  0  0  0  0  0  0  0  0  0
   42.9140   73.3390   60.2170 H   0  0  0  0  0  0  0  0  0  0  0  0
   42.7050   75.1890   60.0180 H   0  0  0  0  0  0  0  0  0  0  0  0
   38.1820   75.3900   57.7870 C   0  0  0  0  0  0  0  0  0  0  0  0
   38.3870   76.7190   57.3250 C   0  0  0  0  0  0  0  0  0  0  0  0
   39.0380   77.4230   57.7190 H   0  0  0  0  0  0  0  0  0  0  0  0
   37.1700   76.7720   55.8710 S   0  0  0  0  0  0  0  0  0  0  0  0
   36.6640   74.9720   56.2250 C   0  0  0  0  0  0  0  0  0  0  0  0
   35.9120   74.4870   55.5980 H   0  0  0  0  0  0  0  0  0  0  0  0
   37.2960   74.6620   57.1310 N   0  0  0  0  0  0  0  0  0  0  0  0
  1  7  1  0  0  0  0
  1  2  1  0  0  0  0
  2  3  2  0  0  0  0
  2  8  1  0  0  0  0
  3  9  1  0  0  0  0
  4  3  1  0  0  0  0
  5  4  2  0  0  0  0
  6  5  1  0  0  0  0
  6  1  2  0  0  0  0
  7 10  1  0  0  0  0
 11  7  1  0  0  0  0
 12  5  1  0  0  0  0
 13 14  1  0  0  0  0
 13 12  2  0  0  0  0
 15 16  1  0  0  0  0
 15 13  1  0  0  0  0
 16 18  2  0  0  0  0
 17 16  1  0  0  0  0
 18 12  1  0  0  0  0
M  END
>  <minimizedAffinity>
-3.87167621

$$$$
