
 OpenBabel03212520553D

 33 36  0  0  0  0  0  0  0  0999 V2000
   39.6550   77.1640   59.2180 C   0  0  0  0  0  0  0  0  0  0  0  0
   40.2860   75.9680   58.9800 C   0  0  0  0  0  0  0  0  0  0  0  0
   39.7060   75.2450   57.9210 C   0  0  0  0  0  0  0  0  0  0  0  0
   38.6450   75.6710   57.2080 N   0  0  0  0  0  0  0  0  0  0  0  0
   38.0850   76.8720   57.5160 C   0  0  0  0  0  0  0  0  0  0  0  0
   38.6010   77.6190   58.5330 N   0  0  0  0  0  0  0  0  0  0  0  0
   41.1280   75.6000   59.5240 H   0  0  0  0  0  0  0  0  0  0  0  0
   40.1250   74.2810   57.6430 H   0  0  0  0  0  0  0  0  0  0  0  0
   40.9790   80.1290   61.6770 C   0  0  0  0  0  0  0  0  0  0  0  0
   40.9500   78.9010   62.3130 C   0  0  0  0  0  0  0  0  0  0  0  0
   40.5240   77.8380   61.5880 C   0  0  0  0  0  0  0  0  0  0  0  0
   40.1390   78.0070   60.2670 C   0  0  0  0  0  0  0  0  0  0  0  0
   40.3860   79.8150   59.9850 S   0  0  0  0  0  0  0  0  0  0  0  0
   41.2520   78.7730   63.3440 H   0  0  0  0  0  0  0  0  0  0  0  0
   40.4320   76.8080   61.9050 H   0  0  0  0  0  0  0  0  0  0  0  0
   43.0940   82.9300   62.7320 C   0  0  0  0  0  0  0  0  0  0  0  0
   42.2220   83.7250   63.5110 C   0  0  0  0  0  0  0  0  0  0  0  0
   40.9040   83.2870   63.6660 C   0  0  0  0  0  0  0  0  0  0  0  0
   40.5400   82.1300   63.0640 N   0  0  0  0  0  0  0  0  0  0  0  0
   41.4150   81.3930   62.3210 C   0  0  0  0  0  0  0  0  0  0  0  0
   42.6470   81.7950   62.1710 N   0  0  0  0  0  0  0  0  0  0  0  0
   44.0950   83.2850   62.6270 H   0  0  0  0  0  0  0  0  0  0  0  0
   42.5110   84.6370   63.9850 H   0  0  0  0  0  0  0  0  0  0  0  0
   40.1840   83.8590   64.2570 H   0  0  0  0  0  0  0  0  0  0  0  0
   36.9470   77.3290   56.7360 C   0  0  0  0  0  0  0  0  0  0  0  0
   35.8180   77.0840   57.2130 O   0  0  0  0  0  0  0  0  0  0  0  0
   37.1260   78.0440   55.4510 C   0  0  0  0  0  0  0  0  0  0  0  0
   37.5390   79.4720   55.4730 C   0  0  0  0  0  0  0  0  0  0  0  0
   37.7300   80.0490   56.5150 H   0  0  0  0  0  0  0  0  0  0  0  0
   37.5870   79.7830   53.6070 S   0  0  0  0  0  0  0  0  0  0  0  0
   37.0820   78.0660   53.1970 C   0  0  0  0  0  0  0  0  0  0  0  0
   37.0040   77.8780   52.1590 H   0  0  0  0  0  0  0  0  0  0  0  0
   36.9110   77.3880   54.3300 N   0  0  0  0  0  0  0  0  0  0  0  0
  1 12  1  0  0  0  0
  2  1  1  0  0  0  0
  2  7  1  0  0  0  0
  3  2  2  0  0  0  0
  4  5  2  0  0  0  0
  4  3  1  0  0  0  0
  5  6  1  0  0  0  0
  6  1  2  0  0  0  0
  8  3  1  0  0  0  0
  9 10  2  0  0  0  0
  9 20  1  0  0  0  0
 10 14  1  0  0  0  0
 11 15  1  0  0  0  0
 11 10  1  0  0  0  0
 12 11  2  0  0  0  0
 13 12  1  0  0  0  0
 13  9  1  0  0  0  0
 16 17  1  0  0  0  0
 17 18  2  0  0  0  0
 17 23  1  0  0  0  0
 18 24  1  0  0  0  0
 19 18  1  0  0  0  0
 20 19  2  0  0  0  0
 21 20  1  0  0  0  0
 21 16  2  0  0  0  0
 22 16  1  0  0  0  0
 25 26  2  0  0  0  0
 25  5  1  0  0  0  0
 27 28  2  0  0  0  0
 27 25  1  0  0  0  0
 28 29  1  0  0  0  0
 30 28  1  0  0  0  0
 31 30  1  0  0  0  0
 31 33  2  0  0  0  0
 32 31  1  0  0  0  0
 33 27  1  0  0  0  0
M  END
>  <minimizedAffinity>
-6.16036081

>  <minimizedRMSD>
0.622692585

$$$$
