
 OpenBabel03212520553D

 33 36  0  0  0  0  0  0  0  0999 V2000
   39.7330   77.2400   59.2450 C   0  0  0  0  0  0  0  0  0  0  0  0
   40.4100   76.0730   58.9900 C   0  0  0  0  0  0  0  0  0  0  0  0
   39.8570   75.3420   57.9240 C   0  0  0  0  0  0  0  0  0  0  0  0
   38.7780   75.7340   57.2180 N   0  0  0  0  0  0  0  0  0  0  0  0
   38.1710   76.9080   57.5430 C   0  0  0  0  0  0  0  0  0  0  0  0
   38.6600   77.6620   58.5680 N   0  0  0  0  0  0  0  0  0  0  0  0
   41.2680   75.7310   59.5270 H   0  0  0  0  0  0  0  0  0  0  0  0
   40.3120   74.3980   57.6320 H   0  0  0  0  0  0  0  0  0  0  0  0
   40.9770   80.2180   61.7300 C   0  0  0  0  0  0  0  0  0  0  0  0
   40.9440   78.9910   62.3660 C   0  0  0  0  0  0  0  0  0  0  0  0
   40.5430   77.9240   61.6330 C   0  0  0  0  0  0  0  0  0  0  0  0
   40.1860   78.0880   60.3040 C   0  0  0  0  0  0  0  0  0  0  0  0
   40.4260   79.8980   60.0250 S   0  0  0  0  0  0  0  0  0  0  0  0
   41.2230   78.8660   63.4040 H   0  0  0  0  0  0  0  0  0  0  0  0
   40.4520   76.8930   61.9500 H   0  0  0  0  0  0  0  0  0  0  0  0
   43.0340   83.0590   62.7920 C   0  0  0  0  0  0  0  0  0  0  0  0
   42.1490   83.8260   63.5860 C   0  0  0  0  0  0  0  0  0  0  0  0
   40.8440   83.3550   63.7490 C   0  0  0  0  0  0  0  0  0  0  0  0
   40.5030   82.1950   63.1400 N   0  0  0  0  0  0  0  0  0  0  0  0
   41.3890   81.4870   62.3810 C   0  0  0  0  0  0  0  0  0  0  0  0
   42.6090   81.9200   62.2240 N   0  0  0  0  0  0  0  0  0  0  0  0
   44.0250   83.4400   62.6820 H   0  0  0  0  0  0  0  0  0  0  0  0
   42.4210   84.7400   64.0670 H   0  0  0  0  0  0  0  0  0  0  0  0
   40.1150   83.9030   64.3520 H   0  0  0  0  0  0  0  0  0  0  0  0
   37.0140   77.3290   56.7720 C   0  0  0  0  0  0  0  0  0  0  0  0
   35.8970   77.0550   57.2600 O   0  0  0  0  0  0  0  0  0  0  0  0
   37.1610   78.0430   55.4810 C   0  0  0  0  0  0  0  0  0  0  0  0
   37.6040   79.4630   55.4900 C   0  0  0  0  0  0  0  0  0  0  0  0
   37.8430   80.0330   56.5250 H   0  0  0  0  0  0  0  0  0  0  0  0
   37.5910   79.7760   53.6240 S   0  0  0  0  0  0  0  0  0  0  0  0
   37.0360   78.0710   53.2310 C   0  0  0  0  0  0  0  0  0  0  0  0
   36.9160   77.8850   52.1970 H   0  0  0  0  0  0  0  0  0  0  0  0
   36.8910   77.3930   54.3690 N   0  0  0  0  0  0  0  0  0  0  0  0
  1 12  1  0  0  0  0
  2  1  1  0  0  0  0
  2  7  1  0  0  0  0
  3  2  2  0  0  0  0
  4  5  2  0  0  0  0
  4  3  1  0  0  0  0
  5  6  1  0  0  0  0
  6  1  2  0  0  0  0
  8  3  1  0  0  0  0
  9 10  2  0  0  0  0
  9 20  1  0  0  0  0
 10 14  1  0  0  0  0
 11 15  1  0  0  0  0
 11 10  1  0  0  0  0
 12 11  2  0  0  0  0
 13 12  1  0  0  0  0
 13  9  1  0  0  0  0
 16 17  1  0  0  0  0
 17 18  2  0  0  0  0
 17 23  1  0  0  0  0
 18 24  1  0  0  0  0
 19 18  1  0  0  0  0
 20 19  2  0  0  0  0
 21 20  1  0  0  0  0
 21 16  2  0  0  0  0
 22 16  1  0  0  0  0
 25 26  2  0  0  0  0
 25  5  1  0  0  0  0
 27 28  2  0  0  0  0
 27 25  1  0  0  0  0
 28 29  1  0  0  0  0
 30 28  1  0  0  0  0
 31 30  1  0  0  0  0
 31 33  2  0  0  0  0
 32 31  1  0  0  0  0
 33 27  1  0  0  0  0
M  END
>  <minimizedAffinity>
-6.17247486

>  <minimizedRMSD>
0.47024098

$$$$
