
 OpenBabel03212520553D

 33 36  0  0  0  0  0  0  0  0999 V2000
   39.6990   77.2050   59.1730 C   0  0  0  0  0  0  0  0  0  0  0  0
   40.3860   76.0500   58.8930 C   0  0  0  0  0  0  0  0  0  0  0  0
   39.8260   75.3250   57.8250 C   0  0  0  0  0  0  0  0  0  0  0  0
   38.7320   75.7130   57.1410 N   0  0  0  0  0  0  0  0  0  0  0  0
   38.1170   76.8750   57.4900 C   0  0  0  0  0  0  0  0  0  0  0  0
   38.6110   77.6220   58.5170 N   0  0  0  0  0  0  0  0  0  0  0  0
   41.2560   75.7120   59.4140 H   0  0  0  0  0  0  0  0  0  0  0  0
   40.2880   74.3910   57.5150 H   0  0  0  0  0  0  0  0  0  0  0  0
   40.9700   80.1620   61.6690 C   0  0  0  0  0  0  0  0  0  0  0  0
   40.9140   78.9340   62.3040 C   0  0  0  0  0  0  0  0  0  0  0  0
   40.5020   77.8750   61.5670 C   0  0  0  0  0  0  0  0  0  0  0  0
   40.1570   78.0450   60.2350 C   0  0  0  0  0  0  0  0  0  0  0  0
   40.4260   79.8510   59.9600 S   0  0  0  0  0  0  0  0  0  0  0  0
   41.1840   78.8050   63.3440 H   0  0  0  0  0  0  0  0  0  0  0  0
   40.3940   76.8450   61.8820 H   0  0  0  0  0  0  0  0  0  0  0  0
   43.0620   82.9700   62.7510 C   0  0  0  0  0  0  0  0  0  0  0  0
   42.1830   83.7500   63.5380 C   0  0  0  0  0  0  0  0  0  0  0  0
   40.8700   83.3000   63.6890 C   0  0  0  0  0  0  0  0  0  0  0  0
   40.5150   82.1460   63.0760 N   0  0  0  0  0  0  0  0  0  0  0  0
   41.3960   81.4240   62.3250 C   0  0  0  0  0  0  0  0  0  0  0  0
   42.6240   81.8380   62.1790 N   0  0  0  0  0  0  0  0  0  0  0  0
   44.0600   83.3350   62.6490 H   0  0  0  0  0  0  0  0  0  0  0  0
   42.4650   84.6600   64.0210 H   0  0  0  0  0  0  0  0  0  0  0  0
   40.1440   83.8590   64.2860 H   0  0  0  0  0  0  0  0  0  0  0  0
   36.9430   77.2930   56.7410 C   0  0  0  0  0  0  0  0  0  0  0  0
   35.8370   76.9820   57.2310 O   0  0  0  0  0  0  0  0  0  0  0  0
   37.0620   78.0430   55.4680 C   0  0  0  0  0  0  0  0  0  0  0  0
   36.7920   77.3350   54.1880 C   0  0  0  0  0  0  0  0  0  0  0  0
   36.4810   76.1700   54.1750 H   0  0  0  0  0  0  0  0  0  0  0  0
   37.0980   78.7740   52.9980 S   0  0  0  0  0  0  0  0  0  0  0  0
   37.4980   79.9510   54.3490 C   0  0  0  0  0  0  0  0  0  0  0  0
   37.7350   80.9250   54.0140 H   0  0  0  0  0  0  0  0  0  0  0  0
   37.4020   79.3130   55.5150 N   0  0  0  0  0  0  0  0  0  0  0  0
  1 12  1  0  0  0  0
  2  1  1  0  0  0  0
  2  7  1  0  0  0  0
  3  2  2  0  0  0  0
  4  5  2  0  0  0  0
  4  3  1  0  0  0  0
  5  6  1  0  0  0  0
  6  1  2  0  0  0  0
  8  3  1  0  0  0  0
  9 10  2  0  0  0  0
  9 20  1  0  0  0  0
 10 14  1  0  0  0  0
 11 15  1  0  0  0  0
 11 10  1  0  0  0  0
 12 11  2  0  0  0  0
 13 12  1  0  0  0  0
 13  9  1  0  0  0  0
 16 17  1  0  0  0  0
 17 18  2  0  0  0  0
 17 23  1  0  0  0  0
 18 24  1  0  0  0  0
 19 18  1  0  0  0  0
 20 19  2  0  0  0  0
 21 20  1  0  0  0  0
 21 16  2  0  0  0  0
 22 16  1  0  0  0  0
 25 26  2  0  0  0  0
 25  5  1  0  0  0  0
 27 33  1  0  0  0  0
 27 25  1  0  0  0  0
 28 27  2  0  0  0  0
 29 28  1  0  0  0  0
 30 28  1  0  0  0  0
 30 31  1  0  0  0  0
 31 33  2  0  0  0  0
 32 31  1  0  0  0  0
M  END
>  <minimizedAffinity>
-6.24579144

>  <minimizedRMSD>
0.455685675

$$$$
