
 OpenBabel03212520553D

 33 36  0  0  0  0  0  0  0  0999 V2000
   39.7010   77.2050   59.1720 C   0  0  0  0  0  0  0  0  0  0  0  0
   40.3880   76.0500   58.8930 C   0  0  0  0  0  0  0  0  0  0  0  0
   39.8280   75.3250   57.8250 C   0  0  0  0  0  0  0  0  0  0  0  0
   38.7340   75.7140   57.1410 N   0  0  0  0  0  0  0  0  0  0  0  0
   38.1180   76.8750   57.4890 C   0  0  0  0  0  0  0  0  0  0  0  0
   38.6130   77.6230   58.5170 N   0  0  0  0  0  0  0  0  0  0  0  0
   41.2570   75.7120   59.4130 H   0  0  0  0  0  0  0  0  0  0  0  0
   40.2900   74.3910   57.5150 H   0  0  0  0  0  0  0  0  0  0  0  0
   40.9710   80.1620   61.6690 C   0  0  0  0  0  0  0  0  0  0  0  0
   40.9170   78.9340   62.3040 C   0  0  0  0  0  0  0  0  0  0  0  0
   40.5060   77.8750   61.5660 C   0  0  0  0  0  0  0  0  0  0  0  0
   40.1590   78.0450   60.2350 C   0  0  0  0  0  0  0  0  0  0  0  0
   40.4250   79.8520   59.9610 S   0  0  0  0  0  0  0  0  0  0  0  0
   41.1890   78.8050   63.3420 H   0  0  0  0  0  0  0  0  0  0  0  0
   40.3990   76.8450   61.8800 H   0  0  0  0  0  0  0  0  0  0  0  0
   43.0600   82.9720   62.7510 C   0  0  0  0  0  0  0  0  0  0  0  0
   42.1810   83.7510   63.5380 C   0  0  0  0  0  0  0  0  0  0  0  0
   40.8680   83.3000   63.6890 C   0  0  0  0  0  0  0  0  0  0  0  0
   40.5140   82.1460   63.0760 N   0  0  0  0  0  0  0  0  0  0  0  0
   41.3950   81.4240   62.3250 C   0  0  0  0  0  0  0  0  0  0  0  0
   42.6230   81.8390   62.1790 N   0  0  0  0  0  0  0  0  0  0  0  0
   44.0580   83.3380   62.6510 H   0  0  0  0  0  0  0  0  0  0  0  0
   42.4620   84.6610   64.0220 H   0  0  0  0  0  0  0  0  0  0  0  0
   40.1420   83.8590   64.2860 H   0  0  0  0  0  0  0  0  0  0  0  0
   36.9450   77.2930   56.7400 C   0  0  0  0  0  0  0  0  0  0  0  0
   35.8380   76.9830   57.2320 O   0  0  0  0  0  0  0  0  0  0  0  0
   37.0640   78.0430   55.4680 C   0  0  0  0  0  0  0  0  0  0  0  0
   36.7890   77.3350   54.1870 C   0  0  0  0  0  0  0  0  0  0  0  0
   36.4760   76.1710   54.1750 H   0  0  0  0  0  0  0  0  0  0  0  0
   37.0970   78.7740   52.9970 S   0  0  0  0  0  0  0  0  0  0  0  0
   37.5010   79.9510   54.3480 C   0  0  0  0  0  0  0  0  0  0  0  0
   37.7400   80.9230   54.0120 H   0  0  0  0  0  0  0  0  0  0  0  0
   37.4070   79.3130   55.5140 N   0  0  0  0  0  0  0  0  0  0  0  0
  1 12  1  0  0  0  0
  2  1  1  0  0  0  0
  2  7  1  0  0  0  0
  3  2  2  0  0  0  0
  4  5  2  0  0  0  0
  4  3  1  0  0  0  0
  5  6  1  0  0  0  0
  6  1  2  0  0  0  0
  8  3  1  0  0  0  0
  9 10  2  0  0  0  0
  9 20  1  0  0  0  0
 10 14  1  0  0  0  0
 11 15  1  0  0  0  0
 11 10  1  0  0  0  0
 12 11  2  0  0  0  0
 13 12  1  0  0  0  0
 13  9  1  0  0  0  0
 16 17  1  0  0  0  0
 17 18  2  0  0  0  0
 17 23  1  0  0  0  0
 18 24  1  0  0  0  0
 19 18  1  0  0  0  0
 20 19  2  0  0  0  0
 21 20  1  0  0  0  0
 21 16  2  0  0  0  0
 22 16  1  0  0  0  0
 25 26  2  0  0  0  0
 25  5  1  0  0  0  0
 27 33  1  0  0  0  0
 27 25  1  0  0  0  0
 28 27  2  0  0  0  0
 29 28  1  0  0  0  0
 30 28  1  0  0  0  0
 30 31  1  0  0  0  0
 31 33  2  0  0  0  0
 32 31  1  0  0  0  0
M  END
>  <minimizedAffinity>
-6.24684429

>  <minimizedRMSD>
0.454387575

$$$$
