
 OpenBabel03212520553D

 33 36  0  0  0  0  0  0  0  0999 V2000
   39.6510   77.1610   59.2180 C   0  0  0  0  0  0  0  0  0  0  0  0
   40.2810   75.9640   58.9810 C   0  0  0  0  0  0  0  0  0  0  0  0
   39.7000   75.2420   57.9230 C   0  0  0  0  0  0  0  0  0  0  0  0
   38.6400   75.6690   57.2090 N   0  0  0  0  0  0  0  0  0  0  0  0
   38.0820   76.8710   57.5160 C   0  0  0  0  0  0  0  0  0  0  0  0
   38.5990   77.6180   58.5320 N   0  0  0  0  0  0  0  0  0  0  0  0
   41.1220   75.5950   59.5250 H   0  0  0  0  0  0  0  0  0  0  0  0
   40.1170   74.2760   57.6450 H   0  0  0  0  0  0  0  0  0  0  0  0
   40.9790   80.1260   61.6760 C   0  0  0  0  0  0  0  0  0  0  0  0
   40.9510   78.8980   62.3120 C   0  0  0  0  0  0  0  0  0  0  0  0
   40.5240   77.8360   61.5870 C   0  0  0  0  0  0  0  0  0  0  0  0
   40.1370   78.0040   60.2660 C   0  0  0  0  0  0  0  0  0  0  0  0
   40.3840   79.8130   59.9840 S   0  0  0  0  0  0  0  0  0  0  0  0
   41.2540   78.7700   63.3420 H   0  0  0  0  0  0  0  0  0  0  0  0
   40.4320   76.8050   61.9040 H   0  0  0  0  0  0  0  0  0  0  0  0
   43.0960   82.9260   62.7290 C   0  0  0  0  0  0  0  0  0  0  0  0
   42.2240   83.7220   63.5080 C   0  0  0  0  0  0  0  0  0  0  0  0
   40.9060   83.2850   63.6630 C   0  0  0  0  0  0  0  0  0  0  0  0
   40.5410   82.1280   63.0620 N   0  0  0  0  0  0  0  0  0  0  0  0
   41.4160   81.3910   62.3190 C   0  0  0  0  0  0  0  0  0  0  0  0
   42.6480   81.7920   62.1690 N   0  0  0  0  0  0  0  0  0  0  0  0
   44.0970   83.2810   62.6250 H   0  0  0  0  0  0  0  0  0  0  0  0
   42.5130   84.6340   63.9820 H   0  0  0  0  0  0  0  0  0  0  0  0
   40.1860   83.8570   64.2540 H   0  0  0  0  0  0  0  0  0  0  0  0
   36.9450   77.3290   56.7360 C   0  0  0  0  0  0  0  0  0  0  0  0
   35.8150   77.0870   57.2120 O   0  0  0  0  0  0  0  0  0  0  0  0
   37.1250   78.0440   55.4500 C   0  0  0  0  0  0  0  0  0  0  0  0
   37.5390   79.4720   55.4730 C   0  0  0  0  0  0  0  0  0  0  0  0
   37.7290   80.0480   56.5140 H   0  0  0  0  0  0  0  0  0  0  0  0
   37.5890   79.7830   53.6060 S   0  0  0  0  0  0  0  0  0  0  0  0
   37.0820   78.0670   53.1960 C   0  0  0  0  0  0  0  0  0  0  0  0
   37.0040   77.8790   52.1580 H   0  0  0  0  0  0  0  0  0  0  0  0
   36.9100   77.3880   54.3300 N   0  0  0  0  0  0  0  0  0  0  0  0
  1 12  1  0  0  0  0
  2  1  1  0  0  0  0
  2  7  1  0  0  0  0
  3  2  2  0  0  0  0
  4  5  2  0  0  0  0
  4  3  1  0  0  0  0
  5  6  1  0  0  0  0
  6  1  2  0  0  0  0
  8  3  1  0  0  0  0
  9 10  2  0  0  0  0
  9 20  1  0  0  0  0
 10 14  1  0  0  0  0
 11 15  1  0  0  0  0
 11 10  1  0  0  0  0
 12 11  2  0  0  0  0
 13 12  1  0  0  0  0
 13  9  1  0  0  0  0
 16 17  1  0  0  0  0
 17 18  2  0  0  0  0
 17 23  1  0  0  0  0
 18 24  1  0  0  0  0
 19 18  1  0  0  0  0
 20 19  2  0  0  0  0
 21 20  1  0  0  0  0
 21 16  2  0  0  0  0
 22 16  1  0  0  0  0
 25 26  2  0  0  0  0
 25  5  1  0  0  0  0
 27 28  2  0  0  0  0
 27 25  1  0  0  0  0
 28 29  1  0  0  0  0
 30 28  1  0  0  0  0
 31 30  1  0  0  0  0
 31 33  2  0  0  0  0
 32 31  1  0  0  0  0
 33 27  1  0  0  0  0
M  END
>  <minimizedAffinity>
-6.15955353

>  <minimizedRMSD>
0.584012628

$$$$
