
 OpenBabel03212520573D

 33 36  0  0  0  0  0  0  0  0999 V2000
   42.2220   73.7120   60.4300 C   0  0  0  0  0  0  0  0  0  0  0  0
   43.4210   74.0400   59.8460 C   0  0  0  0  0  0  0  0  0  0  0  0
   43.3640   75.2420   59.1180 C   0  0  0  0  0  0  0  0  0  0  0  0
   42.2570   76.0020   58.9990 N   0  0  0  0  0  0  0  0  0  0  0  0
   41.1140   75.5970   59.6140 C   0  0  0  0  0  0  0  0  0  0  0  0
   41.1040   74.4400   60.3340 N   0  0  0  0  0  0  0  0  0  0  0  0
   44.3160   73.4630   59.9190 H   0  0  0  0  0  0  0  0  0  0  0  0
   44.2570   75.6010   58.6110 H   0  0  0  0  0  0  0  0  0  0  0  0
   41.9500   69.9430   61.9490 C   0  0  0  0  0  0  0  0  0  0  0  0
   41.9940   70.9020   62.9440 C   0  0  0  0  0  0  0  0  0  0  0  0
   42.0850   72.1960   62.5530 C   0  0  0  0  0  0  0  0  0  0  0  0
   42.1320   72.5140   61.2040 C   0  0  0  0  0  0  0  0  0  0  0  0
   42.0410   70.8630   60.3810 S   0  0  0  0  0  0  0  0  0  0  0  0
   41.9560   70.6500   63.9950 H   0  0  0  0  0  0  0  0  0  0  0  0
   42.1310   73.0800   63.1760 H   0  0  0  0  0  0  0  0  0  0  0  0
   42.3490   66.3230   61.5370 C   0  0  0  0  0  0  0  0  0  0  0  0
   41.6690   65.7880   62.6560 C   0  0  0  0  0  0  0  0  0  0  0  0
   41.0770   66.6850   63.5490 C   0  0  0  0  0  0  0  0  0  0  0  0
   41.1870   68.0090   63.2910 N   0  0  0  0  0  0  0  0  0  0  0  0
   41.8520   68.4830   62.1980 C   0  0  0  0  0  0  0  0  0  0  0  0
   42.4080   67.6520   61.3600 N   0  0  0  0  0  0  0  0  0  0  0  0
   42.7930   65.6180   60.8700 H   0  0  0  0  0  0  0  0  0  0  0  0
   41.5830   64.7430   62.8570 H   0  0  0  0  0  0  0  0  0  0  0  0
   40.5370   66.3320   64.4320 H   0  0  0  0  0  0  0  0  0  0  0  0
   39.9270   76.4260   59.4900 C   0  0  0  0  0  0  0  0  0  0  0  0
   39.7730   77.3040   60.3670 O   0  0  0  0  0  0  0  0  0  0  0  0
   38.9590   76.2350   58.3840 C   0  0  0  0  0  0  0  0  0  0  0  0
   38.7810   77.3270   57.3880 C   0  0  0  0  0  0  0  0  0  0  0  0
   39.4070   78.3540   57.4710 H   0  0  0  0  0  0  0  0  0  0  0  0
   37.4770   76.5010   56.2930 S   0  0  0  0  0  0  0  0  0  0  0  0
   37.4320   74.9720   57.3090 C   0  0  0  0  0  0  0  0  0  0  0  0
   36.7560   74.2410   56.9540 H   0  0  0  0  0  0  0  0  0  0  0  0
   38.2910   75.1040   58.3190 N   0  0  0  0  0  0  0  0  0  0  0  0
  1 12  1  0  0  0  0
  2  7  1  0  0  0  0
  2  1  2  0  0  0  0
  3  2  1  0  0  0  0
  4  3  2  0  0  0  0
  4  5  1  0  0  0  0
  5  6  2  0  0  0  0
  6  1  1  0  0  0  0
  8  3  1  0  0  0  0
  9 20  1  0  0  0  0
  9 10  2  0  0  0  0
 10 14  1  0  0  0  0
 11 10  1  0  0  0  0
 11 15  1  0  0  0  0
 12 11  2  0  0  0  0
 13 12  1  0  0  0  0
 13  9  1  0  0  0  0
 16 17  1  0  0  0  0
 17 23  1  0  0  0  0
 17 18  2  0  0  0  0
 18 24  1  0  0  0  0
 19 18  1  0  0  0  0
 20 19  2  0  0  0  0
 21 16  2  0  0  0  0
 21 20  1  0  0  0  0
 22 16  1  0  0  0  0
 25  5  1  0  0  0  0
 25 26  2  0  0  0  0
 27 25  1  0  0  0  0
 28 29  1  0  0  0  0
 28 27  2  0  0  0  0
 30 31  1  0  0  0  0
 30 28  1  0  0  0  0
 31 33  2  0  0  0  0
 32 31  1  0  0  0  0
 33 27  1  0  0  0  0
M  END
>  <minimizedAffinity>
-6.23524046

$$$$

 OpenBabel03212520573D

 33 36  0  0  0  0  0  0  0  0999 V2000
   41.9970   74.6260   59.5060 C   0  0  0  0  0  0  0  0  0  0  0  0
   43.2710   75.0130   59.1690 C   0  0  0  0  0  0  0  0  0  0  0  0
   44.2620   74.2830   59.8510 C   0  0  0  0  0  0  0  0  0  0  0  0
   44.0020   73.3050   60.7410 N   0  0  0  0  0  0  0  0  0  0  0  0
   42.7060   72.9900   61.0110 C   0  0  0  0  0  0  0  0  0  0  0  0
   41.7000   73.6620   60.3830 N   0  0  0  0  0  0  0  0  0  0  0  0
   43.5140   75.7820   58.4690 H   0  0  0  0  0  0  0  0  0  0  0  0
   45.3100   74.5040   59.6630 H   0  0  0  0  0  0  0  0  0  0  0  0
   39.0830   76.1430   57.0990 C   0  0  0  0  0  0  0  0  0  0  0  0
   38.9620   76.5870   58.4030 C   0  0  0  0  0  0  0  0  0  0  0  0
   39.8810   76.1440   59.2950 C   0  0  0  0  0  0  0  0  0  0  0  0
   40.8870   75.2820   58.8870 C   0  0  0  0  0  0  0  0  0  0  0  0
   40.5400   75.0530   57.0880 S   0  0  0  0  0  0  0  0  0  0  0  0
   38.1750   77.2600   58.7180 H   0  0  0  0  0  0  0  0  0  0  0  0
   39.9530   76.3750   60.3490 H   0  0  0  0  0  0  0  0  0  0  0  0
   37.4860   76.2620   53.8020 C   0  0  0  0  0  0  0  0  0  0  0  0
   36.4730   77.2360   53.9620 C   0  0  0  0  0  0  0  0  0  0  0  0
   36.3480   77.8470   55.2130 C   0  0  0  0  0  0  0  0  0  0  0  0
   37.2010   77.4720   56.1950 N   0  0  0  0  0  0  0  0  0  0  0  0
   38.1650   76.5270   55.9970 C   0  0  0  0  0  0  0  0  0  0  0  0
   38.2880   75.9520   54.8330 N   0  0  0  0  0  0  0  0  0  0  0  0
   37.5620   75.8100   52.8380 H   0  0  0  0  0  0  0  0  0  0  0  0
   35.8020   77.5320   53.1860 H   0  0  0  0  0  0  0  0  0  0  0  0
   35.5840   78.6070   55.3980 H   0  0  0  0  0  0  0  0  0  0  0  0
   42.4330   71.9270   61.9640 C   0  0  0  0  0  0  0  0  0  0  0  0
   42.0250   72.2880   63.0890 O   0  0  0  0  0  0  0  0  0  0  0  0
   42.6300   70.5010   61.6130 C   0  0  0  0  0  0  0  0  0  0  0  0
   42.1300   70.0080   60.3010 C   0  0  0  0  0  0  0  0  0  0  0  0
   41.5730   70.7480   59.5290 H   0  0  0  0  0  0  0  0  0  0  0  0
   42.6670   68.1990   60.4550 S   0  0  0  0  0  0  0  0  0  0  0  0
   43.3990   68.4440   62.1210 C   0  0  0  0  0  0  0  0  0  0  0  0
   43.8210   67.5680   62.5370 H   0  0  0  0  0  0  0  0  0  0  0  0
   43.2420   69.7180   62.4760 N   0  0  0  0  0  0  0  0  0  0  0  0
  1  6  1  0  0  0  0
  2  1  2  0  0  0  0
  2  3  1  0  0  0  0
  3  4  2  0  0  0  0
  4  5  1  0  0  0  0
  5 25  1  0  0  0  0
  6  5  2  0  0  0  0
  7  2  1  0  0  0  0
  8  3  1  0  0  0  0
  9 10  2  0  0  0  0
 10 14  1  0  0  0  0
 10 11  1  0  0  0  0
 11 15  1  0  0  0  0
 12 11  2  0  0  0  0
 12  1  1  0  0  0  0
 13  9  1  0  0  0  0
 13 12  1  0  0  0  0
 16 17  2  0  0  0  0
 16 21  1  0  0  0  0
 17 18  1  0  0  0  0
 18 24  1  0  0  0  0
 18 19  2  0  0  0  0
 20 19  1  0  0  0  0
 20  9  1  0  0  0  0
 21 20  2  0  0  0  0
 22 16  1  0  0  0  0
 23 17  1  0  0  0  0
 25 26  2  0  0  0  0
 27 25  1  0  0  0  0
 27 33  1  0  0  0  0
 28 30  1  0  0  0  0
 28 27  2  0  0  0  0
 29 28  1  0  0  0  0
 30 31  1  0  0  0  0
 31 33  2  0  0  0  0
 31 32  1  0  0  0  0
M  END
>  <minimizedAffinity>
-5.89601135

$$$$

 OpenBabel03212520573D

 33 36  0  0  0  0  0  0  0  0999 V2000
   40.1150   73.3060   60.4790 C   0  0  0  0  0  0  0  0  0  0  0  0
   39.9610   74.5710   60.9930 C   0  0  0  0  0  0  0  0  0  0  0  0
   39.1670   75.3990   60.1780 C   0  0  0  0  0  0  0  0  0  0  0  0
   38.6110   75.0050   59.0150 N   0  0  0  0  0  0  0  0  0  0  0  0
   38.8180   73.7310   58.5860 C   0  0  0  0  0  0  0  0  0  0  0  0
   39.5790   72.8800   59.3310 N   0  0  0  0  0  0  0  0  0  0  0  0
   40.3860   74.9160   61.9090 H   0  0  0  0  0  0  0  0  0  0  0  0
   38.9770   76.4240   60.4860 H   0  0  0  0  0  0  0  0  0  0  0  0
   42.5260   70.3210   61.8420 C   0  0  0  0  0  0  0  0  0  0  0  0
   41.9790   71.0590   62.8760 C   0  0  0  0  0  0  0  0  0  0  0  0
   41.1580   72.0820   62.5380 C   0  0  0  0  0  0  0  0  0  0  0  0
   40.8970   72.3540   61.2040 C   0  0  0  0  0  0  0  0  0  0  0  0
   41.8820   71.0700   60.3140 S   0  0  0  0  0  0  0  0  0  0  0  0
   42.1850   70.8440   63.9160 H   0  0  0  0  0  0  0  0  0  0  0  0
   40.6400   72.7670   63.1960 H   0  0  0  0  0  0  0  0  0  0  0  0
   44.4060   67.6150   63.4490 C   0  0  0  0  0  0  0  0  0  0  0  0
   45.1430   67.0490   62.3820 C   0  0  0  0  0  0  0  0  0  0  0  0
   44.9850   67.6070   61.1120 C   0  0  0  0  0  0  0  0  0  0  0  0
   44.1380   68.6550   60.9750 N   0  0  0  0  0  0  0  0  0  0  0  0
   43.4450   69.1700   62.0320 C   0  0  0  0  0  0  0  0  0  0  0  0
   43.5880   68.6550   63.2210 N   0  0  0  0  0  0  0  0  0  0  0  0
   44.5440   67.1720   64.4090 H   0  0  0  0  0  0  0  0  0  0  0  0
   45.8110   66.2240   62.4920 H   0  0  0  0  0  0  0  0  0  0  0  0
   45.5280   67.2140   60.2480 H   0  0  0  0  0  0  0  0  0  0  0  0
   38.2070   73.3110   57.3360 C   0  0  0  0  0  0  0  0  0  0  0  0
   37.9440   72.0930   57.2330 O   0  0  0  0  0  0  0  0  0  0  0  0
   37.9150   74.2770   56.2510 C   0  0  0  0  0  0  0  0  0  0  0  0
   36.5640   74.8990   56.1860 C   0  0  0  0  0  0  0  0  0  0  0  0
   35.7150   74.6270   56.9970 H   0  0  0  0  0  0  0  0  0  0  0  0
   36.8250   75.9810   54.6550 S   0  0  0  0  0  0  0  0  0  0  0  0
   38.5600   75.4290   54.4240 C   0  0  0  0  0  0  0  0  0  0  0  0
   39.0440   75.8700   53.5940 H   0  0  0  0  0  0  0  0  0  0  0  0
   38.8630   74.5540   55.3820 N   0  0  0  0  0  0  0  0  0  0  0  0
  1  2  1  0  0  0  0
  1 12  1  0  0  0  0
  2  7  1  0  0  0  0
  3  8  1  0  0  0  0
  3  2  2  0  0  0  0
  4  3  1  0  0  0  0
  5  4  2  0  0  0  0
  5  6  1  0  0  0  0
  6  1  2  0  0  0  0
  9 20  1  0  0  0  0
  9 10  2  0  0  0  0
 10 14  1  0  0  0  0
 11 10  1  0  0  0  0
 11 15  1  0  0  0  0
 12 11  2  0  0  0  0
 13 12  1  0  0  0  0
 13  9  1  0  0  0  0
 16 22  1  0  0  0  0
 17 23  1  0  0  0  0
 17 16  2  0  0  0  0
 18 17  1  0  0  0  0
 19 18  2  0  0  0  0
 19 20  1  0  0  0  0
 20 21  2  0  0  0  0
 21 16  1  0  0  0  0
 24 18  1  0  0  0  0
 25  5  1  0  0  0  0
 26 25  2  0  0  0  0
 27 25  1  0  0  0  0
 28 27  2  0  0  0  0
 28 29  1  0  0  0  0
 30 28  1  0  0  0  0
 31 30  1  0  0  0  0
 31 33  2  0  0  0  0
 32 31  1  0  0  0  0
 33 27  1  0  0  0  0
M  END
>  <minimizedAffinity>
-5.84477806

$$$$

 OpenBabel03212520573D

 33 36  0  0  0  0  0  0  0  0999 V2000
   39.0300   76.0300   58.5010 C   0  0  0  0  0  0  0  0  0  0  0  0
   39.3490   77.3460   58.7350 C   0  0  0  0  0  0  0  0  0  0  0  0
   38.9630   78.1970   57.6840 C   0  0  0  0  0  0  0  0  0  0  0  0
   38.3450   77.7790   56.5610 N   0  0  0  0  0  0  0  0  0  0  0  0
   38.0680   76.4550   56.4180 C   0  0  0  0  0  0  0  0  0  0  0  0
   38.4180   75.5790   57.4020 N   0  0  0  0  0  0  0  0  0  0  0  0
   39.8370   77.7120   59.6110 H   0  0  0  0  0  0  0  0  0  0  0  0
   39.1660   79.2630   57.7600 H   0  0  0  0  0  0  0  0  0  0  0  0
   40.5720   73.0790   60.8460 C   0  0  0  0  0  0  0  0  0  0  0  0
   39.4230   73.6250   61.3880 C   0  0  0  0  0  0  0  0  0  0  0  0
   38.8230   74.6200   60.6900 C   0  0  0  0  0  0  0  0  0  0  0  0
   39.3620   75.0500   59.4880 C   0  0  0  0  0  0  0  0  0  0  0  0
   40.8520   73.9780   59.2880 S   0  0  0  0  0  0  0  0  0  0  0  0
   39.0050   73.2870   62.3260 H   0  0  0  0  0  0  0  0  0  0  0  0
   37.9250   75.1670   60.9470 H   0  0  0  0  0  0  0  0  0  0  0  0
   43.0190   70.3880   61.3030 C   0  0  0  0  0  0  0  0  0  0  0  0
   42.7990   69.9680   62.6350 C   0  0  0  0  0  0  0  0  0  0  0  0
   41.8050   70.6190   63.3690 C   0  0  0  0  0  0  0  0  0  0  0  0
   41.1110   71.6120   62.7640 N   0  0  0  0  0  0  0  0  0  0  0  0
   41.3550   71.9860   61.4750 C   0  0  0  0  0  0  0  0  0  0  0  0
   42.2820   71.3830   60.7840 N   0  0  0  0  0  0  0  0  0  0  0  0
   43.7830   69.8760   60.7630 H   0  0  0  0  0  0  0  0  0  0  0  0
   43.3470   69.1840   63.1110 H   0  0  0  0  0  0  0  0  0  0  0  0
   41.5880   70.3380   64.4040 H   0  0  0  0  0  0  0  0  0  0  0  0
   37.3930   76.0130   55.2090 C   0  0  0  0  0  0  0  0  0  0  0  0
   36.3660   75.3190   55.3740 O   0  0  0  0  0  0  0  0  0  0  0  0
   37.8990   76.3700   53.8630 C   0  0  0  0  0  0  0  0  0  0  0  0
   37.1530   77.3730   53.0560 C   0  0  0  0  0  0  0  0  0  0  0  0
   36.1510   77.8930   53.4810 H   0  0  0  0  0  0  0  0  0  0  0  0
   38.2600   77.3830   51.5210 S   0  0  0  0  0  0  0  0  0  0  0  0
   39.4170   76.1350   52.2120 C   0  0  0  0  0  0  0  0  0  0  0  0
   40.2160   75.8880   51.5670 H   0  0  0  0  0  0  0  0  0  0  0  0
   38.9950   75.7860   53.4260 N   0  0  0  0  0  0  0  0  0  0  0  0
  1  2  1  0  0  0  0
  1 12  1  0  0  0  0
  2  7  1  0  0  0  0
  3  8  1  0  0  0  0
  3  2  2  0  0  0  0
  4  3  1  0  0  0  0
  5  4  2  0  0  0  0
  5  6  1  0  0  0  0
  6  1  2  0  0  0  0
  9 10  2  0  0  0  0
  9 20  1  0  0  0  0
 10 14  1  0  0  0  0
 11 15  1  0  0  0  0
 11 10  1  0  0  0  0
 12 11  2  0  0  0  0
 13 12  1  0  0  0  0
 13  9  1  0  0  0  0
 16 17  1  0  0  0  0
 17 23  1  0  0  0  0
 17 18  2  0  0  0  0
 18 24  1  0  0  0  0
 19 18  1  0  0  0  0
 20 19  2  0  0  0  0
 21 16  2  0  0  0  0
 21 20  1  0  0  0  0
 22 16  1  0  0  0  0
 25 26  2  0  0  0  0
 25  5  1  0  0  0  0
 27 25  1  0  0  0  0
 28 29  1  0  0  0  0
 28 27  2  0  0  0  0
 30 31  1  0  0  0  0
 30 28  1  0  0  0  0
 31 33  2  0  0  0  0
 32 31  1  0  0  0  0
 33 27  1  0  0  0  0
M  END
>  <minimizedAffinity>
-5.69429636

$$$$

 OpenBabel03212520573D

 33 36  0  0  0  0  0  0  0  0999 V2000
   40.4430   75.5010   59.1910 C   0  0  0  0  0  0  0  0  0  0  0  0
   40.6090   76.7970   59.6130 C   0  0  0  0  0  0  0  0  0  0  0  0
   39.7500   77.6990   58.9580 C   0  0  0  0  0  0  0  0  0  0  0  0
   38.8540   77.3410   58.0170 N   0  0  0  0  0  0  0  0  0  0  0  0
   38.7600   76.0310   57.6640 C   0  0  0  0  0  0  0  0  0  0  0  0
   39.5660   75.1080   58.2620 N   0  0  0  0  0  0  0  0  0  0  0  0
   41.3080   77.1160   60.3550 H   0  0  0  0  0  0  0  0  0  0  0  0
   39.7940   78.7550   59.2120 H   0  0  0  0  0  0  0  0  0  0  0  0
   42.0660   72.2800   61.0850 C   0  0  0  0  0  0  0  0  0  0  0  0
   43.0320   73.0890   60.5160 C   0  0  0  0  0  0  0  0  0  0  0  0
   42.6050   74.1940   59.8570 C   0  0  0  0  0  0  0  0  0  0  0  0
   41.2500   74.4740   59.7730 C   0  0  0  0  0  0  0  0  0  0  0  0
   40.4750   73.0740   60.6960 S   0  0  0  0  0  0  0  0  0  0  0  0
   44.0890   72.8680   60.5840 H   0  0  0  0  0  0  0  0  0  0  0  0
   43.2020   74.9410   59.3510 H   0  0  0  0  0  0  0  0  0  0  0  0
   41.9450   69.6900   63.6740 C   0  0  0  0  0  0  0  0  0  0  0  0
   42.8930   68.7380   63.2320 C   0  0  0  0  0  0  0  0  0  0  0  0
   43.5690   68.9990   62.0370 C   0  0  0  0  0  0  0  0  0  0  0  0
   43.2790   70.1430   61.3750 N   0  0  0  0  0  0  0  0  0  0  0  0
   42.3560   71.0350   61.8380 C   0  0  0  0  0  0  0  0  0  0  0  0
   41.7200   70.7990   62.9530 N   0  0  0  0  0  0  0  0  0  0  0  0
   41.4420   69.4680   64.5890 H   0  0  0  0  0  0  0  0  0  0  0  0
   43.1220   67.8360   63.7560 H   0  0  0  0  0  0  0  0  0  0  0  0
   44.3140   68.3010   61.6440 H   0  0  0  0  0  0  0  0  0  0  0  0
   37.7850   75.6510   56.6560 C   0  0  0  0  0  0  0  0  0  0  0  0
   36.6460   75.3520   57.0750 O   0  0  0  0  0  0  0  0  0  0  0  0
   38.1300   75.6210   55.2150 C   0  0  0  0  0  0  0  0  0  0  0  0
   38.8170   74.4220   54.6640 C   0  0  0  0  0  0  0  0  0  0  0  0
   39.0940   73.4840   55.3700 H   0  0  0  0  0  0  0  0  0  0  0  0
   38.9680   74.9830   52.8630 S   0  0  0  0  0  0  0  0  0  0  0  0
   38.1420   76.5930   53.1800 C   0  0  0  0  0  0  0  0  0  0  0  0
   38.0530   77.2050   52.3240 H   0  0  0  0  0  0  0  0  0  0  0  0
   37.8150   76.6600   54.4700 N   0  0  0  0  0  0  0  0  0  0  0  0
  1  2  1  0  0  0  0
  1 12  1  0  0  0  0
  2  7  1  0  0  0  0
  3  8  1  0  0  0  0
  3  2  2  0  0  0  0
  4  3  1  0  0  0  0
  5  4  2  0  0  0  0
  5  6  1  0  0  0  0
  6  1  2  0  0  0  0
  9 20  1  0  0  0  0
 10 14  1  0  0  0  0
 10  9  2  0  0  0  0
 11 10  1  0  0  0  0
 12 11  2  0  0  0  0
 12 13  1  0  0  0  0
 13  9  1  0  0  0  0
 15 11  1  0  0  0  0
 16 22  1  0  0  0  0
 17 16  1  0  0  0  0
 17 23  1  0  0  0  0
 18 17  2  0  0  0  0
 19 20  2  0  0  0  0
 19 18  1  0  0  0  0
 20 21  1  0  0  0  0
 21 16  2  0  0  0  0
 24 18  1  0  0  0  0
 25 26  2  0  0  0  0
 25  5  1  0  0  0  0
 27 25  1  0  0  0  0
 28 27  2  0  0  0  0
 28 29  1  0  0  0  0
 30 31  1  0  0  0  0
 30 28  1  0  0  0  0
 31 33  2  0  0  0  0
 32 31  1  0  0  0  0
 33 27  1  0  0  0  0
M  END
>  <minimizedAffinity>
-5.67752743

$$$$

 OpenBabel03212520573D

 33 36  0  0  0  0  0  0  0  0999 V2000
   40.5370   72.5740   60.1050 C   0  0  0  0  0  0  0  0  0  0  0  0
   40.6300   73.4570   61.1530 C   0  0  0  0  0  0  0  0  0  0  0  0
   41.4570   72.9890   62.1900 C   0  0  0  0  0  0  0  0  0  0  0  0
   42.0960   71.8030   62.1700 N   0  0  0  0  0  0  0  0  0  0  0  0
   41.9450   70.9930   61.0870 C   0  0  0  0  0  0  0  0  0  0  0  0
   41.1560   71.3900   60.0490 N   0  0  0  0  0  0  0  0  0  0  0  0
   40.1380   74.4030   61.2030 H   0  0  0  0  0  0  0  0  0  0  0  0
   41.6040   73.6060   63.0730 H   0  0  0  0  0  0  0  0  0  0  0  0
   38.4540   74.2840   57.0520 C   0  0  0  0  0  0  0  0  0  0  0  0
   38.2890   72.9120   57.0880 C   0  0  0  0  0  0  0  0  0  0  0  0
   38.9390   72.2360   58.0660 C   0  0  0  0  0  0  0  0  0  0  0  0
   39.7300   72.9190   58.9770 C   0  0  0  0  0  0  0  0  0  0  0  0
   39.5660   74.6780   58.4380 S   0  0  0  0  0  0  0  0  0  0  0  0
   37.6710   72.3820   56.3750 H   0  0  0  0  0  0  0  0  0  0  0  0
   38.9360   71.1710   58.2560 H   0  0  0  0  0  0  0  0  0  0  0  0
   36.5920   77.0830   55.5920 C   0  0  0  0  0  0  0  0  0  0  0  0
   36.6420   76.8220   54.2030 C   0  0  0  0  0  0  0  0  0  0  0  0
   37.3220   75.6770   53.7780 C   0  0  0  0  0  0  0  0  0  0  0  0
   37.8910   74.8870   54.7190 N   0  0  0  0  0  0  0  0  0  0  0  0
   37.8180   75.1770   56.0500 C   0  0  0  0  0  0  0  0  0  0  0  0
   37.1860   76.2430   56.4540 N   0  0  0  0  0  0  0  0  0  0  0  0
   36.0680   77.9630   55.8910 H   0  0  0  0  0  0  0  0  0  0  0  0
   36.1920   77.4460   53.4620 H   0  0  0  0  0  0  0  0  0  0  0  0
   37.3940   75.4220   52.7180 H   0  0  0  0  0  0  0  0  0  0  0  0
   42.6460   69.7200   61.0680 C   0  0  0  0  0  0  0  0  0  0  0  0
   43.8200   69.7440   60.6390 O   0  0  0  0  0  0  0  0  0  0  0  0
   41.9970   68.4710   61.5310 C   0  0  0  0  0  0  0  0  0  0  0  0
   41.6990   67.4040   60.5370 C   0  0  0  0  0  0  0  0  0  0  0  0
   41.9760   67.5440   59.3720 H   0  0  0  0  0  0  0  0  0  0  0  0
   40.9150   66.1380   61.7060 S   0  0  0  0  0  0  0  0  0  0  0  0
   41.1270   67.2080   63.1830 C   0  0  0  0  0  0  0  0  0  0  0  0
   40.7690   66.7770   64.0790 H   0  0  0  0  0  0  0  0  0  0  0  0
   41.7080   68.3470   62.8080 N   0  0  0  0  0  0  0  0  0  0  0  0
  1  2  1  0  0  0  0
  2  7  1  0  0  0  0
  2  3  2  0  0  0  0
  3  8  1  0  0  0  0
  4  3  1  0  0  0  0
  5  4  2  0  0  0  0
  6  1  2  0  0  0  0
  6  5  1  0  0  0  0
  9 10  2  0  0  0  0
  9 13  1  0  0  0  0
 10 11  1  0  0  0  0
 11 15  1  0  0  0  0
 11 12  2  0  0  0  0
 12  1  1  0  0  0  0
 13 12  1  0  0  0  0
 14 10  1  0  0  0  0
 16 22  1  0  0  0  0
 16 21  1  0  0  0  0
 17 16  2  0  0  0  0
 18 17  1  0  0  0  0
 18 19  2  0  0  0  0
 19 20  1  0  0  0  0
 20 21  2  0  0  0  0
 20  9  1  0  0  0  0
 23 17  1  0  0  0  0
 24 18  1  0  0  0  0
 25  5  1  0  0  0  0
 25 27  1  0  0  0  0
 26 25  2  0  0  0  0
 27 33  1  0  0  0  0
 28 27  2  0  0  0  0
 28 30  1  0  0  0  0
 29 28  1  0  0  0  0
 30 31  1  0  0  0  0
 31 32  1  0  0  0  0
 33 31  2  0  0  0  0
M  END
>  <minimizedAffinity>
-5.67106485

$$$$

 OpenBabel03212520573D

 33 36  0  0  0  0  0  0  0  0999 V2000
   40.9710   72.4540   60.9180 C   0  0  0  0  0  0  0  0  0  0  0  0
   41.5100   72.8020   62.1320 C   0  0  0  0  0  0  0  0  0  0  0  0
   42.4310   71.8540   62.6130 C   0  0  0  0  0  0  0  0  0  0  0  0
   42.7590   70.7210   61.9620 N   0  0  0  0  0  0  0  0  0  0  0  0
   42.1730   70.4600   60.7620 C   0  0  0  0  0  0  0  0  0  0  0  0
   41.2720   71.3400   60.2420 N   0  0  0  0  0  0  0  0  0  0  0  0
   41.2740   73.6910   62.6750 H   0  0  0  0  0  0  0  0  0  0  0  0
   42.9220   72.0260   63.5680 H   0  0  0  0  0  0  0  0  0  0  0  0
   38.7700   74.9690   58.5910 C   0  0  0  0  0  0  0  0  0  0  0  0
   38.1410   74.6870   59.7900 C   0  0  0  0  0  0  0  0  0  0  0  0
   38.7840   73.8570   60.6460 C   0  0  0  0  0  0  0  0  0  0  0  0
   40.0190   73.3270   60.3050 C   0  0  0  0  0  0  0  0  0  0  0  0
   40.3360   74.0430   58.6320 S   0  0  0  0  0  0  0  0  0  0  0  0
   37.1770   75.1030   60.0520 H   0  0  0  0  0  0  0  0  0  0  0  0
   38.4580   73.5210   61.6210 H   0  0  0  0  0  0  0  0  0  0  0  0
   36.7580   76.1450   55.7610 C   0  0  0  0  0  0  0  0  0  0  0  0
   37.1740   77.4870   55.5990 C   0  0  0  0  0  0  0  0  0  0  0  0
   38.1480   77.9790   56.4700 C   0  0  0  0  0  0  0  0  0  0  0  0
   38.6380   77.1440   57.4170 N   0  0  0  0  0  0  0  0  0  0  0  0
   38.2080   75.8550   57.5400 C   0  0  0  0  0  0  0  0  0  0  0  0
   37.2980   75.3890   56.7300 N   0  0  0  0  0  0  0  0  0  0  0  0
   36.0130   75.7930   55.0840 H   0  0  0  0  0  0  0  0  0  0  0  0
   36.7870   78.1440   54.8500 H   0  0  0  0  0  0  0  0  0  0  0  0
   38.5100   79.0070   56.3940 H   0  0  0  0  0  0  0  0  0  0  0  0
   42.5390   69.2410   60.0600 C   0  0  0  0  0  0  0  0  0  0  0  0
   42.7700   69.3570   58.8370 O   0  0  0  0  0  0  0  0  0  0  0  0
   42.6310   67.9390   60.7630 C   0  0  0  0  0  0  0  0  0  0  0  0
   41.4070   67.3740   61.3920 C   0  0  0  0  0  0  0  0  0  0  0  0
   40.3530   67.9570   61.3380 H   0  0  0  0  0  0  0  0  0  0  0  0
   42.1560   65.7800   62.0870 S   0  0  0  0  0  0  0  0  0  0  0  0
   43.8340   66.1580   61.4450 C   0  0  0  0  0  0  0  0  0  0  0  0
   44.5560   65.4200   61.6700 H   0  0  0  0  0  0  0  0  0  0  0  0
   43.7950   67.3260   60.8050 N   0  0  0  0  0  0  0  0  0  0  0  0
  1  2  1  0  0  0  0
  2  3  2  0  0  0  0
  2  7  1  0  0  0  0
  3  8  1  0  0  0  0
  4  3  1  0  0  0  0
  5  4  2  0  0  0  0
  6  5  1  0  0  0  0
  6  1  2  0  0  0  0
  9 13  1  0  0  0  0
  9 10  2  0  0  0  0
 10 14  1  0  0  0  0
 10 11  1  0  0  0  0
 11 15  1  0  0  0  0
 12 11  2  0  0  0  0
 12  1  1  0  0  0  0
 13 12  1  0  0  0  0
 16 21  1  0  0  0  0
 17 16  2  0  0  0  0
 17 18  1  0  0  0  0
 18 19  2  0  0  0  0
 19 20  1  0  0  0  0
 20  9  1  0  0  0  0
 21 20  2  0  0  0  0
 22 16  1  0  0  0  0
 23 17  1  0  0  0  0
 24 18  1  0  0  0  0
 25  5  1  0  0  0  0
 25 27  1  0  0  0  0
 26 25  2  0  0  0  0
 27 33  1  0  0  0  0
 27 28  2  0  0  0  0
 28 30  1  0  0  0  0
 29 28  1  0  0  0  0
 31 32  1  0  0  0  0
 31 30  1  0  0  0  0
 33 31  2  0  0  0  0
M  END
>  <minimizedAffinity>
-5.57415962

$$$$

 OpenBabel03212520573D

 33 36  0  0  0  0  0  0  0  0999 V2000
   40.3490   74.2090   60.3310 C   0  0  0  0  0  0  0  0  0  0  0  0
   39.9850   75.2910   61.0940 C   0  0  0  0  0  0  0  0  0  0  0  0
   39.3780   76.3120   60.3400 C   0  0  0  0  0  0  0  0  0  0  0  0
   39.1680   76.2470   59.0110 N   0  0  0  0  0  0  0  0  0  0  0  0
   39.5620   75.1320   58.3370 C   0  0  0  0  0  0  0  0  0  0  0  0
   40.1570   74.1080   59.0120 N   0  0  0  0  0  0  0  0  0  0  0  0
   40.1350   75.3770   62.1480 H   0  0  0  0  0  0  0  0  0  0  0  0
   39.0480   77.2190   60.8410 H   0  0  0  0  0  0  0  0  0  0  0  0
   42.1390   70.7190   61.4300 C   0  0  0  0  0  0  0  0  0  0  0  0
   41.9530   71.5680   62.5050 C   0  0  0  0  0  0  0  0  0  0  0  0
   41.3640   72.7630   62.2560 C   0  0  0  0  0  0  0  0  0  0  0  0
   40.9770   73.0920   60.9660 C   0  0  0  0  0  0  0  0  0  0  0  0
   41.4700   71.6060   59.9870 S   0  0  0  0  0  0  0  0  0  0  0  0
   42.2560   71.3080   63.5100 H   0  0  0  0  0  0  0  0  0  0  0  0
   41.1360   73.5540   62.9580 H   0  0  0  0  0  0  0  0  0  0  0  0
   44.5640   67.9960   61.0630 C   0  0  0  0  0  0  0  0  0  0  0  0
   43.9260   66.9010   61.6910 C   0  0  0  0  0  0  0  0  0  0  0  0
   42.6580   67.1120   62.2390 C   0  0  0  0  0  0  0  0  0  0  0  0
   42.1160   68.3480   62.1370 N   0  0  0  0  0  0  0  0  0  0  0  0
   42.7670   69.3770   61.5230 C   0  0  0  0  0  0  0  0  0  0  0  0
   43.9510   69.1890   61.0090 N   0  0  0  0  0  0  0  0  0  0  0  0
   45.5310   67.8100   60.6530 H   0  0  0  0  0  0  0  0  0  0  0  0
   44.3550   65.9260   61.7700 H   0  0  0  0  0  0  0  0  0  0  0  0
   42.1150   66.3040   62.7360 H   0  0  0  0  0  0  0  0  0  0  0  0
   39.3240   75.0640   56.9050 C   0  0  0  0  0  0  0  0  0  0  0  0
   39.8430   74.0990   56.3050 O   0  0  0  0  0  0  0  0  0  0  0  0
   38.5100   76.0860   56.2050 C   0  0  0  0  0  0  0  0  0  0  0  0
   37.0310   75.9260   56.1690 C   0  0  0  0  0  0  0  0  0  0  0  0
   36.4930   74.9840   56.6960 H   0  0  0  0  0  0  0  0  0  0  0  0
   36.6020   77.4810   55.1790 S   0  0  0  0  0  0  0  0  0  0  0  0
   38.3570   77.9990   55.0220 C   0  0  0  0  0  0  0  0  0  0  0  0
   38.4920   78.8980   54.4840 H   0  0  0  0  0  0  0  0  0  0  0  0
   39.1250   77.1030   55.6400 N   0  0  0  0  0  0  0  0  0  0  0  0
  1 12  1  0  0  0  0
  1  2  1  0  0  0  0
  2  7  1  0  0  0  0
  3  8  1  0  0  0  0
  3  2  2  0  0  0  0
  4  3  1  0  0  0  0
  5  4  2  0  0  0  0
  5  6  1  0  0  0  0
  6  1  2  0  0  0  0
  9 20  1  0  0  0  0
  9 10  2  0  0  0  0
 10 14  1  0  0  0  0
 11 10  1  0  0  0  0
 11 15  1  0  0  0  0
 12 11  2  0  0  0  0
 13 12  1  0  0  0  0
 13  9  1  0  0  0  0
 16 17  1  0  0  0  0
 17 23  1  0  0  0  0
 17 18  2  0  0  0  0
 18 24  1  0  0  0  0
 19 18  1  0  0  0  0
 20 19  2  0  0  0  0
 21 16  2  0  0  0  0
 21 20  1  0  0  0  0
 22 16  1  0  0  0  0
 25  5  1  0  0  0  0
 26 25  2  0  0  0  0
 27 25  1  0  0  0  0
 28 27  2  0  0  0  0
 28 29  1  0  0  0  0
 30 28  1  0  0  0  0
 31 30  1  0  0  0  0
 31 33  2  0  0  0  0
 32 31  1  0  0  0  0
 33 27  1  0  0  0  0
M  END
>  <minimizedAffinity>
-5.50888777

$$$$

 OpenBabel03212520573D

 33 36  0  0  0  0  0  0  0  0999 V2000
   41.1610   71.4780   59.7130 C   0  0  0  0  0  0  0  0  0  0  0  0
   42.0910   71.6000   60.7170 C   0  0  0  0  0  0  0  0  0  0  0  0
   41.8230   72.6750   61.5830 C   0  0  0  0  0  0  0  0  0  0  0  0
   40.7680   73.5030   61.4550 N   0  0  0  0  0  0  0  0  0  0  0  0
   39.8970   73.3040   60.4290 C   0  0  0  0  0  0  0  0  0  0  0  0
   40.1030   72.2790   59.5540 N   0  0  0  0  0  0  0  0  0  0  0  0
   42.9380   70.9620   60.8490 H   0  0  0  0  0  0  0  0  0  0  0  0
   42.4940   72.8680   62.4160 H   0  0  0  0  0  0  0  0  0  0  0  0
   41.4380   69.0330   56.4680 C   0  0  0  0  0  0  0  0  0  0  0  0
   41.6310   68.3460   57.6520 C   0  0  0  0  0  0  0  0  0  0  0  0
   41.5620   69.0630   58.8010 C   0  0  0  0  0  0  0  0  0  0  0  0
   41.3070   70.4240   58.7570 C   0  0  0  0  0  0  0  0  0  0  0  0
   41.1440   70.7630   56.9490 S   0  0  0  0  0  0  0  0  0  0  0  0
   41.8290   67.2840   57.6830 H   0  0  0  0  0  0  0  0  0  0  0  0
   41.6840   68.7090   59.8160 H   0  0  0  0  0  0  0  0  0  0  0  0
   42.6280   67.1410   53.5630 C   0  0  0  0  0  0  0  0  0  0  0  0
   41.5630   67.2550   52.6380 C   0  0  0  0  0  0  0  0  0  0  0  0
   40.4380   67.9850   53.0260 C   0  0  0  0  0  0  0  0  0  0  0  0
   40.4310   68.5420   54.2610 N   0  0  0  0  0  0  0  0  0  0  0  0
   41.4810   68.4070   55.1220 C   0  0  0  0  0  0  0  0  0  0  0  0
   42.5350   67.7260   54.7670 N   0  0  0  0  0  0  0  0  0  0  0  0
   43.4760   66.5790   53.2430 H   0  0  0  0  0  0  0  0  0  0  0  0
   41.5700   66.8160   51.6650 H   0  0  0  0  0  0  0  0  0  0  0  0
   39.5840   68.1090   52.3550 H   0  0  0  0  0  0  0  0  0  0  0  0
   38.7560   74.1950   60.3020 C   0  0  0  0  0  0  0  0  0  0  0  0
   37.8980   74.1240   61.2080 O   0  0  0  0  0  0  0  0  0  0  0  0
   38.6260   75.1310   59.1600 C   0  0  0  0  0  0  0  0  0  0  0  0
   37.8350   74.7100   57.9720 C   0  0  0  0  0  0  0  0  0  0  0  0
   37.3050   73.6280   57.9280 H   0  0  0  0  0  0  0  0  0  0  0  0
   38.0440   76.2730   56.9240 S   0  0  0  0  0  0  0  0  0  0  0  0
   39.0730   77.1170   58.1900 C   0  0  0  0  0  0  0  0  0  0  0  0
   39.3880   78.0860   57.9100 H   0  0  0  0  0  0  0  0  0  0  0  0
   39.2150   76.3050   59.2370 N   0  0  0  0  0  0  0  0  0  0  0  0
  1  2  1  0  0  0  0
  2  7  1  0  0  0  0
  2  3  2  0  0  0  0
  3  8  1  0  0  0  0
  4  3  1  0  0  0  0
  5  4  2  0  0  0  0
  6  1  2  0  0  0  0
  6  5  1  0  0  0  0
  9 13  1  0  0  0  0
  9 10  2  0  0  0  0
 10 14  1  0  0  0  0
 10 11  1  0  0  0  0
 11 15  1  0  0  0  0
 12 11  2  0  0  0  0
 12  1  1  0  0  0  0
 13 12  1  0  0  0  0
 16 21  1  0  0  0  0
 17 18  1  0  0  0  0
 17 16  2  0  0  0  0
 18 19  2  0  0  0  0
 19 20  1  0  0  0  0
 20  9  1  0  0  0  0
 21 20  2  0  0  0  0
 22 16  1  0  0  0  0
 23 17  1  0  0  0  0
 24 18  1  0  0  0  0
 25  5  1  0  0  0  0
 25 26  2  0  0  0  0
 27 33  1  0  0  0  0
 27 25  1  0  0  0  0
 28 27  2  0  0  0  0
 29 28  1  0  0  0  0
 30 28  1  0  0  0  0
 30 31  1  0  0  0  0
 31 33  2  0  0  0  0
 32 31  1  0  0  0  0
M  END
>  <minimizedAffinity>
-5.4847517

$$$$
