
 OpenBabel03212520553D

 33 36  0  0  0  0  0  0  0  0999 V2000
   39.6990   77.2040   59.1720 C   0  0  0  0  0  0  0  0  0  0  0  0
   40.3870   76.0490   58.8920 C   0  0  0  0  0  0  0  0  0  0  0  0
   39.8270   75.3250   57.8240 C   0  0  0  0  0  0  0  0  0  0  0  0
   38.7320   75.7130   57.1400 N   0  0  0  0  0  0  0  0  0  0  0  0
   38.1170   76.8740   57.4890 C   0  0  0  0  0  0  0  0  0  0  0  0
   38.6120   77.6210   58.5160 N   0  0  0  0  0  0  0  0  0  0  0  0
   41.2560   75.7110   59.4120 H   0  0  0  0  0  0  0  0  0  0  0  0
   40.2890   74.3910   57.5140 H   0  0  0  0  0  0  0  0  0  0  0  0
   40.9710   80.1600   61.6690 C   0  0  0  0  0  0  0  0  0  0  0  0
   40.9140   78.9330   62.3040 C   0  0  0  0  0  0  0  0  0  0  0  0
   40.5020   77.8730   61.5670 C   0  0  0  0  0  0  0  0  0  0  0  0
   40.1580   78.0440   60.2350 C   0  0  0  0  0  0  0  0  0  0  0  0
   40.4270   79.8500   59.9600 S   0  0  0  0  0  0  0  0  0  0  0  0
   41.1840   78.8040   63.3430 H   0  0  0  0  0  0  0  0  0  0  0  0
   40.3930   76.8440   61.8810 H   0  0  0  0  0  0  0  0  0  0  0  0
   43.0640   82.9680   62.7510 C   0  0  0  0  0  0  0  0  0  0  0  0
   42.1850   83.7480   63.5370 C   0  0  0  0  0  0  0  0  0  0  0  0
   40.8710   83.2990   63.6880 C   0  0  0  0  0  0  0  0  0  0  0  0
   40.5160   82.1450   63.0750 N   0  0  0  0  0  0  0  0  0  0  0  0
   41.3970   81.4220   62.3250 C   0  0  0  0  0  0  0  0  0  0  0  0
   42.6250   81.8350   62.1790 N   0  0  0  0  0  0  0  0  0  0  0  0
   44.0620   83.3320   62.6510 H   0  0  0  0  0  0  0  0  0  0  0  0
   42.4670   84.6580   64.0210 H   0  0  0  0  0  0  0  0  0  0  0  0
   40.1450   83.8590   64.2850 H   0  0  0  0  0  0  0  0  0  0  0  0
   36.9430   77.2920   56.7400 C   0  0  0  0  0  0  0  0  0  0  0  0
   35.8370   76.9810   57.2310 O   0  0  0  0  0  0  0  0  0  0  0  0
   37.0620   78.0430   55.4680 C   0  0  0  0  0  0  0  0  0  0  0  0
   36.7900   77.3340   54.1880 C   0  0  0  0  0  0  0  0  0  0  0  0
   36.4780   76.1700   54.1750 H   0  0  0  0  0  0  0  0  0  0  0  0
   37.0980   78.7730   52.9980 S   0  0  0  0  0  0  0  0  0  0  0  0
   37.4990   79.9490   54.3480 C   0  0  0  0  0  0  0  0  0  0  0  0
   37.7380   80.9230   54.0130 H   0  0  0  0  0  0  0  0  0  0  0  0
   37.4050   79.3120   55.5140 N   0  0  0  0  0  0  0  0  0  0  0  0
  1 12  1  0  0  0  0
  2  1  1  0  0  0  0
  2  7  1  0  0  0  0
  3  2  2  0  0  0  0
  4  5  2  0  0  0  0
  4  3  1  0  0  0  0
  5  6  1  0  0  0  0
  6  1  2  0  0  0  0
  8  3  1  0  0  0  0
  9 10  2  0  0  0  0
  9 20  1  0  0  0  0
 10 14  1  0  0  0  0
 11 15  1  0  0  0  0
 11 10  1  0  0  0  0
 12 11  2  0  0  0  0
 13 12  1  0  0  0  0
 13  9  1  0  0  0  0
 16 17  1  0  0  0  0
 17 18  2  0  0  0  0
 17 23  1  0  0  0  0
 18 24  1  0  0  0  0
 19 18  1  0  0  0  0
 20 19  2  0  0  0  0
 21 20  1  0  0  0  0
 21 16  2  0  0  0  0
 22 16  1  0  0  0  0
 25 26  2  0  0  0  0
 25  5  1  0  0  0  0
 27 33  1  0  0  0  0
 27 25  1  0  0  0  0
 28 27  2  0  0  0  0
 29 28  1  0  0  0  0
 30 28  1  0  0  0  0
 30 31  1  0  0  0  0
 31 33  2  0  0  0  0
 32 31  1  0  0  0  0
M  END
>  <minimizedAffinity>
-6.24593163

>  <minimizedRMSD>
0.808483362

$$$$
