
 OpenBabel03212520553D

 33 36  0  0  0  0  0  0  0  0999 V2000
   39.7320   77.2400   59.2450 C   0  0  0  0  0  0  0  0  0  0  0  0
   40.4100   76.0720   58.9900 C   0  0  0  0  0  0  0  0  0  0  0  0
   39.8560   75.3410   57.9240 C   0  0  0  0  0  0  0  0  0  0  0  0
   38.7770   75.7340   57.2180 N   0  0  0  0  0  0  0  0  0  0  0  0
   38.1710   76.9080   57.5430 C   0  0  0  0  0  0  0  0  0  0  0  0
   38.6600   77.6620   58.5680 N   0  0  0  0  0  0  0  0  0  0  0  0
   41.2670   75.7310   59.5270 H   0  0  0  0  0  0  0  0  0  0  0  0
   40.3110   74.3980   57.6320 H   0  0  0  0  0  0  0  0  0  0  0  0
   40.9770   80.2170   61.7300 C   0  0  0  0  0  0  0  0  0  0  0  0
   40.9440   78.9900   62.3660 C   0  0  0  0  0  0  0  0  0  0  0  0
   40.5430   77.9240   61.6330 C   0  0  0  0  0  0  0  0  0  0  0  0
   40.1860   78.0870   60.3030 C   0  0  0  0  0  0  0  0  0  0  0  0
   40.4260   79.8970   60.0250 S   0  0  0  0  0  0  0  0  0  0  0  0
   41.2230   78.8660   63.4040 H   0  0  0  0  0  0  0  0  0  0  0  0
   40.4510   76.8930   61.9490 H   0  0  0  0  0  0  0  0  0  0  0  0
   43.0340   83.0590   62.7910 C   0  0  0  0  0  0  0  0  0  0  0  0
   42.1500   83.8260   63.5860 C   0  0  0  0  0  0  0  0  0  0  0  0
   40.8450   83.3550   63.7490 C   0  0  0  0  0  0  0  0  0  0  0  0
   40.5030   82.1950   63.1400 N   0  0  0  0  0  0  0  0  0  0  0  0
   41.3890   81.4860   62.3810 C   0  0  0  0  0  0  0  0  0  0  0  0
   42.6090   81.9200   62.2240 N   0  0  0  0  0  0  0  0  0  0  0  0
   44.0250   83.4400   62.6810 H   0  0  0  0  0  0  0  0  0  0  0  0
   42.4210   84.7400   64.0670 H   0  0  0  0  0  0  0  0  0  0  0  0
   40.1160   83.9030   64.3520 H   0  0  0  0  0  0  0  0  0  0  0  0
   37.0140   77.3300   56.7720 C   0  0  0  0  0  0  0  0  0  0  0  0
   35.8960   77.0570   57.2600 O   0  0  0  0  0  0  0  0  0  0  0  0
   37.1610   78.0430   55.4810 C   0  0  0  0  0  0  0  0  0  0  0  0
   37.6050   79.4620   55.4900 C   0  0  0  0  0  0  0  0  0  0  0  0
   37.8450   80.0320   56.5250 H   0  0  0  0  0  0  0  0  0  0  0  0
   37.5920   79.7760   53.6240 S   0  0  0  0  0  0  0  0  0  0  0  0
   37.0350   78.0720   53.2300 C   0  0  0  0  0  0  0  0  0  0  0  0
   36.9170   77.8870   52.1960 H   0  0  0  0  0  0  0  0  0  0  0  0
   36.8910   77.3940   54.3680 N   0  0  0  0  0  0  0  0  0  0  0  0
  1 12  1  0  0  0  0
  2  1  1  0  0  0  0
  2  7  1  0  0  0  0
  3  2  2  0  0  0  0
  4  5  2  0  0  0  0
  4  3  1  0  0  0  0
  5  6  1  0  0  0  0
  6  1  2  0  0  0  0
  8  3  1  0  0  0  0
  9 10  2  0  0  0  0
  9 20  1  0  0  0  0
 10 14  1  0  0  0  0
 11 15  1  0  0  0  0
 11 10  1  0  0  0  0
 12 11  2  0  0  0  0
 13 12  1  0  0  0  0
 13  9  1  0  0  0  0
 16 17  1  0  0  0  0
 17 18  2  0  0  0  0
 17 23  1  0  0  0  0
 18 24  1  0  0  0  0
 19 18  1  0  0  0  0
 20 19  2  0  0  0  0
 21 20  1  0  0  0  0
 21 16  2  0  0  0  0
 22 16  1  0  0  0  0
 25 26  2  0  0  0  0
 25  5  1  0  0  0  0
 27 28  2  0  0  0  0
 27 25  1  0  0  0  0
 28 29  1  0  0  0  0
 30 28  1  0  0  0  0
 31 30  1  0  0  0  0
 31 33  2  0  0  0  0
 32 31  1  0  0  0  0
 33 27  1  0  0  0  0
M  END
>  <minimizedAffinity>
-6.17238426

>  <minimizedRMSD>
0.649037182

$$$$
