
 OpenBabel03212520353D

 34 37  0  0  0  0  0  0  0  0999 V2000
   42.2280   82.1110   61.2030 C   0  0  0  0  0  0  0  0  0  0  0  0
   43.6120   81.8350   61.0920 C   0  0  0  0  0  0  0  0  0  0  0  0
   44.5420   82.2730   61.9880 C   0  0  0  0  0  0  0  0  0  0  0  0
   44.1350   83.0310   63.0750 C   0  0  0  0  0  0  0  0  0  0  0  0
   42.7850   83.3140   63.2030 C   0  0  0  0  0  0  0  0  0  0  0  0
   42.2780   84.0410   64.2470 C   0  0  0  0  0  0  0  0  0  0  0  0
   40.9170   84.3020   64.3530 C   0  0  0  0  0  0  0  0  0  0  0  0
   40.0080   83.8420   63.4100 C   0  0  0  0  0  0  0  0  0  0  0  0
   40.5210   83.1060   62.3540 C   0  0  0  0  0  0  0  0  0  0  0  0
   41.8510   82.8670   62.2860 C   0  0  0  0  0  0  0  0  0  0  0  0
   44.1090   81.2570   60.3290 H   0  0  0  0  0  0  0  0  0  0  0  0
   45.5860   82.1070   61.9710 H   0  0  0  0  0  0  0  0  0  0  0  0
   44.7760   83.4330   63.8490 H   0  0  0  0  0  0  0  0  0  0  0  0
   43.0000   84.4020   64.9820 H   0  0  0  0  0  0  0  0  0  0  0  0
   40.6630   84.8910   65.2360 H   0  0  0  0  0  0  0  0  0  0  0  0
   38.9840   84.1010   63.5870 H   0  0  0  0  0  0  0  0  0  0  0  0
   39.7310   82.8800   61.6840 H   0  0  0  0  0  0  0  0  0  0  0  0
   40.7940   80.2510   60.1390 C   0  0  0  0  0  0  0  0  0  0  0  0
   41.4150   81.4960   60.1700 C   0  0  0  0  0  0  0  0  0  0  0  0
   41.2950   82.3550   59.0140 C   0  0  0  0  0  0  0  0  0  0  0  0
   40.5810   81.9130   57.9490 N   0  0  0  0  0  0  0  0  0  0  0  0
   39.9830   80.6480   57.9970 C   0  0  0  0  0  0  0  0  0  0  0  0
   40.0970   79.8380   59.0890 N   0  0  0  0  0  0  0  0  0  0  0  0
   40.9090   79.5480   60.9160 H   0  0  0  0  0  0  0  0  0  0  0  0
   41.6630   83.3340   58.8120 H   0  0  0  0  0  0  0  0  0  0  0  0
   39.2270   80.1170   56.8520 C   0  0  0  0  0  0  0  0  0  0  0  0
   38.7660   80.8890   55.9930 O   0  0  0  0  0  0  0  0  0  0  0  0
   39.0080   78.6550   56.7150 C   0  0  0  0  0  0  0  0  0  0  0  0
   37.7120   78.1680   56.9090 C   0  0  0  0  0  0  0  0  0  0  0  0
   36.7270   78.6650   57.1640 H   0  0  0  0  0  0  0  0  0  0  0  0
   37.9050   76.3660   56.6490 S   0  0  0  0  0  0  0  0  0  0  0  0
   39.7630   76.5870   56.3110 C   0  0  0  0  0  0  0  0  0  0  0  0
   40.4980   75.8190   56.0730 H   0  0  0  0  0  0  0  0  0  0  0  0
   39.8840   77.7200   56.4280 N   0  0  0  0  0  0  0  0  0  0  0  0
  1 10  1  0  0  0  0
  2  1  2  0  0  0  0
  2  3  1  0  0  0  0
  3  4  2  0  0  0  0
  4  5  1  0  0  0  0
  4 13  1  0  0  0  0
  5  6  1  0  0  0  0
  6  7  2  0  0  0  0
  6 14  1  0  0  0  0
  7 15  1  0  0  0  0
  8 16  1  0  0  0  0
  8  7  1  0  0  0  0
  9  8  2  0  0  0  0
 10  9  1  0  0  0  0
 10  5  2  0  0  0  0
 11  2  1  0  0  0  0
 12  3  1  0  0  0  0
 17  9  1  0  0  0  0
 18 19  1  0  0  0  0
 18 24  1  0  0  0  0
 19  1  1  0  0  0  0
 20 19  2  0  0  0  0
 21 22  2  0  0  0  0
 21 20  1  0  0  0  0
 22 23  1  0  0  0  0
 23 18  2  0  0  0  0
 25 20  1  0  0  0  0
 26 22  1  0  0  0  0
 27 26  2  0  0  0  0
 28 26  1  0  0  0  0
 28 29  2  0  0  0  0
 29 30  1  0  0  0  0
 31 29  1  0  0  0  0
 32 34  2  0  0  0  0
 32 31  1  0  0  0  0
 33 32  1  0  0  0  0
 34 28  1  0  0  0  0
M  END
>  <minimizedAffinity>
-5.46630716

>  <minimizedRMSD>
7.95282888

$$$$
