
 OpenBabel03212520353D

 34 37  0  0  0  0  0  0  0  0999 V2000
   41.7270   81.7690   60.3880 C   0  0  0  0  0  0  0  0  0  0  0  0
   43.0640   81.3040   60.4190 C   0  0  0  0  0  0  0  0  0  0  0  0
   43.9070   81.5010   61.4720 C   0  0  0  0  0  0  0  0  0  0  0  0
   43.4530   82.1910   62.5860 C   0  0  0  0  0  0  0  0  0  0  0  0
   42.1490   82.6560   62.5780 C   0  0  0  0  0  0  0  0  0  0  0  0
   41.5990   83.3340   63.6320 C   0  0  0  0  0  0  0  0  0  0  0  0
   40.2840   83.7810   63.5980 C   0  0  0  0  0  0  0  0  0  0  0  0
   39.4650   83.5640   62.4980 C   0  0  0  0  0  0  0  0  0  0  0  0
   40.0210   82.8770   61.4310 C   0  0  0  0  0  0  0  0  0  0  0  0
   41.3030   82.4520   61.5010 C   0  0  0  0  0  0  0  0  0  0  0  0
   43.5840   80.7430   59.6570 H   0  0  0  0  0  0  0  0  0  0  0  0
   44.9120   81.1840   61.5660 H   0  0  0  0  0  0  0  0  0  0  0  0
   44.0250   82.4080   63.4790 H   0  0  0  0  0  0  0  0  0  0  0  0
   42.2500   83.5030   64.4930 H   0  0  0  0  0  0  0  0  0  0  0  0
   39.9860   84.3040   64.5090 H   0  0  0  0  0  0  0  0  0  0  0  0
   38.4700   83.9520   62.5760 H   0  0  0  0  0  0  0  0  0  0  0  0
   39.3120   82.8430   60.6440 H   0  0  0  0  0  0  0  0  0  0  0  0
   40.7090   82.1320   58.0470 C   0  0  0  0  0  0  0  0  0  0  0  0
   40.9960   81.3950   59.1920 C   0  0  0  0  0  0  0  0  0  0  0  0
   40.4970   80.0410   59.2830 C   0  0  0  0  0  0  0  0  0  0  0  0
   39.7710   79.5470   58.2490 N   0  0  0  0  0  0  0  0  0  0  0  0
   39.5270   80.3520   57.1310 C   0  0  0  0  0  0  0  0  0  0  0  0
   40.0000   81.6290   57.0460 N   0  0  0  0  0  0  0  0  0  0  0  0
   40.9770   83.1480   57.9530 H   0  0  0  0  0  0  0  0  0  0  0  0
   40.5940   79.2950   60.0360 H   0  0  0  0  0  0  0  0  0  0  0  0
   38.7180   79.8660   56.0020 C   0  0  0  0  0  0  0  0  0  0  0  0
   38.5810   80.5640   54.9820 O   0  0  0  0  0  0  0  0  0  0  0  0
   38.0590   78.5370   56.0730 C   0  0  0  0  0  0  0  0  0  0  0  0
   38.6710   77.4680   55.4090 C   0  0  0  0  0  0  0  0  0  0  0  0
   39.6150   77.3780   54.7900 H   0  0  0  0  0  0  0  0  0  0  0  0
   37.5430   76.0690   55.7570 S   0  0  0  0  0  0  0  0  0  0  0  0
   36.4030   77.2030   56.7710 C   0  0  0  0  0  0  0  0  0  0  0  0
   35.4800   76.9400   57.2850 H   0  0  0  0  0  0  0  0  0  0  0  0
   36.9480   78.2080   56.6890 N   0  0  0  0  0  0  0  0  0  0  0  0
  1  2  2  0  0  0  0
  1 10  1  0  0  0  0
  2  3  1  0  0  0  0
  3 12  1  0  0  0  0
  3  4  2  0  0  0  0
  4 13  1  0  0  0  0
  5  4  1  0  0  0  0
  5  6  1  0  0  0  0
  6 14  1  0  0  0  0
  7  6  2  0  0  0  0
  7 15  1  0  0  0  0
  8 16  1  0  0  0  0
  8  7  1  0  0  0  0
  9 10  1  0  0  0  0
  9  8  2  0  0  0  0
 10  5  2  0  0  0  0
 11  2  1  0  0  0  0
 17  9  1  0  0  0  0
 18 19  1  0  0  0  0
 19 20  2  0  0  0  0
 19  1  1  0  0  0  0
 20 25  1  0  0  0  0
 21 20  1  0  0  0  0
 22 21  2  0  0  0  0
 23 22  1  0  0  0  0
 23 18  2  0  0  0  0
 24 18  1  0  0  0  0
 26 28  1  0  0  0  0
 26 22  1  0  0  0  0
 27 26  2  0  0  0  0
 28 34  1  0  0  0  0
 29 31  1  0  0  0  0
 29 28  2  0  0  0  0
 30 29  1  0  0  0  0
 31 32  1  0  0  0  0
 32 33  1  0  0  0  0
 34 32  2  0  0  0  0
M  END
>  <minimizedAffinity>
-5.70598507

>  <minimizedRMSD>
8.11083412

$$$$
