
 OpenBabel03212520353D

 34 37  0  0  0  0  0  0  0  0999 V2000
   41.7150   81.1820   59.7420 C   0  0  0  0  0  0  0  0  0  0  0  0
   42.1070   82.5130   60.0210 C   0  0  0  0  0  0  0  0  0  0  0  0
   41.6940   83.5890   59.2930 C   0  0  0  0  0  0  0  0  0  0  0  0
   40.8430   83.3950   58.2150 C   0  0  0  0  0  0  0  0  0  0  0  0
   40.4480   82.1000   57.9230 C   0  0  0  0  0  0  0  0  0  0  0  0
   39.5990   81.8010   56.8900 C   0  0  0  0  0  0  0  0  0  0  0  0
   39.2130   80.4930   56.6270 C   0  0  0  0  0  0  0  0  0  0  0  0
   39.6670   79.4280   57.3920 C   0  0  0  0  0  0  0  0  0  0  0  0
   40.5260   79.7290   58.4370 C   0  0  0  0  0  0  0  0  0  0  0  0
   40.8760   81.0150   58.6680 C   0  0  0  0  0  0  0  0  0  0  0  0
   42.7470   82.8580   60.8180 H   0  0  0  0  0  0  0  0  0  0  0  0
   41.9430   84.6060   59.4410 H   0  0  0  0  0  0  0  0  0  0  0  0
   40.4490   84.1650   57.5660 H   0  0  0  0  0  0  0  0  0  0  0  0
   39.2490   82.6450   56.2920 H   0  0  0  0  0  0  0  0  0  0  0  0
   38.5340   80.4110   55.7760 H   0  0  0  0  0  0  0  0  0  0  0  0
   39.3090   78.4610   57.1010 H   0  0  0  0  0  0  0  0  0  0  0  0
   40.8410   78.8230   58.8880 H   0  0  0  0  0  0  0  0  0  0  0  0
   42.2490   80.2200   62.0740 C   0  0  0  0  0  0  0  0  0  0  0  0
   42.2270   80.2030   60.6820 C   0  0  0  0  0  0  0  0  0  0  0  0
   42.8120   79.0720   59.9980 C   0  0  0  0  0  0  0  0  0  0  0  0
   43.3560   78.0750   60.7400 N   0  0  0  0  0  0  0  0  0  0  0  0
   43.3360   78.1660   62.1370 C   0  0  0  0  0  0  0  0  0  0  0  0
   42.7830   79.2340   62.7810 N   0  0  0  0  0  0  0  0  0  0  0  0
   41.9100   81.0500   62.6290 H   0  0  0  0  0  0  0  0  0  0  0  0
   42.9020   78.8330   58.9640 H   0  0  0  0  0  0  0  0  0  0  0  0
   43.9430   77.1230   62.9780 C   0  0  0  0  0  0  0  0  0  0  0  0
   43.5870   76.9860   64.1610 O   0  0  0  0  0  0  0  0  0  0  0  0
   44.9860   76.2250   62.4190 C   0  0  0  0  0  0  0  0  0  0  0  0
   44.8670   75.8390   61.0810 C   0  0  0  0  0  0  0  0  0  0  0  0
   44.1070   76.0690   60.2720 H   0  0  0  0  0  0  0  0  0  0  0  0
   46.3290   74.7670   60.8290 S   0  0  0  0  0  0  0  0  0  0  0  0
   46.8690   75.0320   62.6330 C   0  0  0  0  0  0  0  0  0  0  0  0
   47.7410   74.6220   63.1390 H   0  0  0  0  0  0  0  0  0  0  0  0
   46.0420   75.7240   63.0200 N   0  0  0  0  0  0  0  0  0  0  0  0
  1  2  1  0  0  0  0
  1 19  1  0  0  0  0
  2 11  1  0  0  0  0
  3 12  1  0  0  0  0
  3  2  2  0  0  0  0
  4  3  1  0  0  0  0
  5  4  2  0  0  0  0
  5 10  1  0  0  0  0
  6  5  1  0  0  0  0
  7  6  2  0  0  0  0
  7  8  1  0  0  0  0
  8  9  2  0  0  0  0
  9 10  1  0  0  0  0
  9 17  1  0  0  0  0
 10  1  2  0  0  0  0
 13  4  1  0  0  0  0
 14  6  1  0  0  0  0
 15  7  1  0  0  0  0
 16  8  1  0  0  0  0
 18 24  1  0  0  0  0
 18 23  1  0  0  0  0
 19 18  2  0  0  0  0
 20 19  1  0  0  0  0
 20 21  2  0  0  0  0
 21 22  1  0  0  0  0
 22 23  2  0  0  0  0
 22 26  1  0  0  0  0
 25 20  1  0  0  0  0
 26 27  2  0  0  0  0
 28 26  1  0  0  0  0
 28 34  1  0  0  0  0
 29 28  2  0  0  0  0
 30 29  1  0  0  0  0
 31 29  1  0  0  0  0
 31 32  1  0  0  0  0
 32 34  2  0  0  0  0
 32 33  1  0  0  0  0
M  END
>  <minimizedAffinity>
-2.06569362

>  <minimizedRMSD>
7.075243

$$$$
