
 OpenBabel03212520353D

 34 37  0  0  0  0  0  0  0  0999 V2000
   43.0250   81.5150   61.2480 C   0  0  0  0  0  0  0  0  0  0  0  0
   44.3570   81.5110   61.7250 C   0  0  0  0  0  0  0  0  0  0  0  0
   44.7810   82.2520   62.7880 C   0  0  0  0  0  0  0  0  0  0  0  0
   43.8740   83.0620   63.4560 C   0  0  0  0  0  0  0  0  0  0  0  0
   42.5650   83.0820   63.0060 C   0  0  0  0  0  0  0  0  0  0  0  0
   41.5890   83.8360   63.6030 C   0  0  0  0  0  0  0  0  0  0  0  0
   40.2820   83.8290   63.1340 C   0  0  0  0  0  0  0  0  0  0  0  0
   39.9000   83.0630   62.0410 C   0  0  0  0  0  0  0  0  0  0  0  0
   40.8870   82.3010   61.4360 C   0  0  0  0  0  0  0  0  0  0  0  0
   42.1480   82.3280   61.9230 C   0  0  0  0  0  0  0  0  0  0  0  0
   45.1910   80.9400   61.3450 H   0  0  0  0  0  0  0  0  0  0  0  0
   45.7540   82.2990   63.1990 H   0  0  0  0  0  0  0  0  0  0  0  0
   44.0890   83.6920   64.3090 H   0  0  0  0  0  0  0  0  0  0  0  0
   41.8990   84.4370   64.4610 H   0  0  0  0  0  0  0  0  0  0  0  0
   39.6180   84.4760   63.7100 H   0  0  0  0  0  0  0  0  0  0  0  0
   38.8680   83.1340   61.7620 H   0  0  0  0  0  0  0  0  0  0  0  0
   40.4720   81.8260   60.5840 H   0  0  0  0  0  0  0  0  0  0  0  0
   43.4870   80.4370   58.9520 C   0  0  0  0  0  0  0  0  0  0  0  0
   42.7870   80.6060   60.1420 C   0  0  0  0  0  0  0  0  0  0  0  0
   41.6110   79.7970   60.3700 C   0  0  0  0  0  0  0  0  0  0  0  0
   41.2400   78.9080   59.4160 N   0  0  0  0  0  0  0  0  0  0  0  0
   41.9990   78.7960   58.2450 C   0  0  0  0  0  0  0  0  0  0  0  0
   43.1100   79.5590   58.0320 N   0  0  0  0  0  0  0  0  0  0  0  0
   44.3060   81.0490   58.6910 H   0  0  0  0  0  0  0  0  0  0  0  0
   40.9340   79.7390   61.1900 H   0  0  0  0  0  0  0  0  0  0  0  0
   41.6150   77.8670   57.1710 C   0  0  0  0  0  0  0  0  0  0  0  0
   41.9640   78.0850   55.9980 O   0  0  0  0  0  0  0  0  0  0  0  0
   40.8050   76.6610   57.4820 C   0  0  0  0  0  0  0  0  0  0  0  0
   39.5630   76.5280   56.8530 C   0  0  0  0  0  0  0  0  0  0  0  0
   38.9960   77.1720   56.1140 H   0  0  0  0  0  0  0  0  0  0  0  0
   38.9350   74.9400   57.5130 S   0  0  0  0  0  0  0  0  0  0  0  0
   40.5080   74.7210   58.5580 C   0  0  0  0  0  0  0  0  0  0  0  0
   40.7580   73.9010   59.2290 H   0  0  0  0  0  0  0  0  0  0  0  0
   41.0960   75.6660   58.2880 N   0  0  0  0  0  0  0  0  0  0  0  0
  1  2  2  0  0  0  0
  1 10  1  0  0  0  0
  2  3  1  0  0  0  0
  3 12  1  0  0  0  0
  3  4  2  0  0  0  0
  4 13  1  0  0  0  0
  5  4  1  0  0  0  0
  5  6  1  0  0  0  0
  6 14  1  0  0  0  0
  7  6  2  0  0  0  0
  7 15  1  0  0  0  0
  8  7  1  0  0  0  0
  9 10  1  0  0  0  0
  9  8  2  0  0  0  0
 10  5  2  0  0  0  0
 11  2  1  0  0  0  0
 16  8  1  0  0  0  0
 17  9  1  0  0  0  0
 18 19  1  0  0  0  0
 19 20  2  0  0  0  0
 19  1  1  0  0  0  0
 20 25  1  0  0  0  0
 21 20  1  0  0  0  0
 22 21  2  0  0  0  0
 23 22  1  0  0  0  0
 23 18  2  0  0  0  0
 24 18  1  0  0  0  0
 26 28  1  0  0  0  0
 26 22  1  0  0  0  0
 27 26  2  0  0  0  0
 28 34  1  0  0  0  0
 29 28  2  0  0  0  0
 29 31  1  0  0  0  0
 30 29  1  0  0  0  0
 31 32  1  0  0  0  0
 32 33  1  0  0  0  0
 34 32  2  0  0  0  0
M  END
>  <minimizedAffinity>
-4.19261694

>  <minimizedRMSD>
8.39656448

$$$$
