
 OpenBabel03212520363D

 34 37  0  0  0  0  0  0  0  0999 V2000
   42.4370   73.6370   60.2800 C   0  0  0  0  0  0  0  0  0  0  0  0
   43.6320   73.9190   59.5770 C   0  0  0  0  0  0  0  0  0  0  0  0
   43.8150   75.0350   58.8160 C   0  0  0  0  0  0  0  0  0  0  0  0
   42.7870   75.9610   58.7100 C   0  0  0  0  0  0  0  0  0  0  0  0
   41.6080   75.7050   59.3890 C   0  0  0  0  0  0  0  0  0  0  0  0
   40.5390   76.5610   59.3620 C   0  0  0  0  0  0  0  0  0  0  0  0
   39.3710   76.2810   60.0610 C   0  0  0  0  0  0  0  0  0  0  0  0
   39.2290   75.1250   60.8170 C   0  0  0  0  0  0  0  0  0  0  0  0
   40.3110   74.2590   60.8440 C   0  0  0  0  0  0  0  0  0  0  0  0
   41.4340   74.5660   60.1560 C   0  0  0  0  0  0  0  0  0  0  0  0
   44.5350   73.3290   59.5490 H   0  0  0  0  0  0  0  0  0  0  0  0
   44.6740   75.3120   58.2650 H   0  0  0  0  0  0  0  0  0  0  0  0
   42.8120   76.8800   58.1390 H   0  0  0  0  0  0  0  0  0  0  0  0
   40.6580   77.4660   58.7630 H   0  0  0  0  0  0  0  0  0  0  0  0
   38.6090   77.0540   59.9460 H   0  0  0  0  0  0  0  0  0  0  0  0
   38.2870   75.0090   61.3130 H   0  0  0  0  0  0  0  0  0  0  0  0
   40.0390   73.3980   61.3980 H   0  0  0  0  0  0  0  0  0  0  0  0
   42.2510   72.2270   62.4300 C   0  0  0  0  0  0  0  0  0  0  0  0
   42.4860   72.4230   61.0730 C   0  0  0  0  0  0  0  0  0  0  0  0
   42.8700   71.2850   60.2680 C   0  0  0  0  0  0  0  0  0  0  0  0
   42.9820   70.0740   60.8690 N   0  0  0  0  0  0  0  0  0  0  0  0
   42.7260   69.9590   62.2410 C   0  0  0  0  0  0  0  0  0  0  0  0
   42.3630   71.0340   62.9990 N   0  0  0  0  0  0  0  0  0  0  0  0
   42.0450   73.0270   63.0850 H   0  0  0  0  0  0  0  0  0  0  0  0
   43.0850   71.1860   59.2300 H   0  0  0  0  0  0  0  0  0  0  0  0
   42.8670   68.6710   62.9380 C   0  0  0  0  0  0  0  0  0  0  0  0
   43.9410   68.3690   63.4870 O   0  0  0  0  0  0  0  0  0  0  0  0
   41.7260   67.7210   62.9910 C   0  0  0  0  0  0  0  0  0  0  0  0
   41.9380   66.4200   62.5250 C   0  0  0  0  0  0  0  0  0  0  0  0
   42.8380   65.8890   62.0870 H   0  0  0  0  0  0  0  0  0  0  0  0
   40.3080   65.6240   62.7730 S   0  0  0  0  0  0  0  0  0  0  0  0
   39.5970   67.2360   63.4870 C   0  0  0  0  0  0  0  0  0  0  0  0
   38.5880   67.4230   63.8510 H   0  0  0  0  0  0  0  0  0  0  0  0
   40.5060   67.9330   63.4270 N   0  0  0  0  0  0  0  0  0  0  0  0
  1 19  1  0  0  0  0
  2  1  2  0  0  0  0
  3  2  1  0  0  0  0
  4  3  2  0  0  0  0
  4  5  1  0  0  0  0
  5 10  1  0  0  0  0
  6  5  2  0  0  0  0
  6  7  1  0  0  0  0
  7  8  2  0  0  0  0
  8  9  1  0  0  0  0
  8 16  1  0  0  0  0
  9 17  1  0  0  0  0
 10  1  1  0  0  0  0
 10  9  2  0  0  0  0
 11  2  1  0  0  0  0
 12  3  1  0  0  0  0
 13  4  1  0  0  0  0
 14  6  1  0  0  0  0
 15  7  1  0  0  0  0
 18 23  1  0  0  0  0
 18 24  1  0  0  0  0
 19 18  2  0  0  0  0
 20 21  2  0  0  0  0
 20 19  1  0  0  0  0
 21 22  1  0  0  0  0
 22 26  1  0  0  0  0
 22 23  2  0  0  0  0
 25 20  1  0  0  0  0
 26 28  1  0  0  0  0
 26 27  2  0  0  0  0
 28 34  1  0  0  0  0
 29 31  1  0  0  0  0
 29 28  2  0  0  0  0
 30 29  1  0  0  0  0
 31 32  1  0  0  0  0
 32 33  1  0  0  0  0
 34 32  2  0  0  0  0
M  END
>  <minimizedAffinity>
-6.68033409

$$$$

 OpenBabel03212520363D

 34 37  0  0  0  0  0  0  0  0999 V2000
   40.7750   73.6410   60.8030 C   0  0  0  0  0  0  0  0  0  0  0  0
   39.4420   73.8390   61.2370 C   0  0  0  0  0  0  0  0  0  0  0  0
   38.7120   74.9540   60.9480 C   0  0  0  0  0  0  0  0  0  0  0  0
   39.2850   75.9620   60.1860 C   0  0  0  0  0  0  0  0  0  0  0  0
   40.5880   75.7890   59.7500 C   0  0  0  0  0  0  0  0  0  0  0  0
   41.2390   76.7160   58.9810 C   0  0  0  0  0  0  0  0  0  0  0  0
   42.5440   76.5110   58.5520 C   0  0  0  0  0  0  0  0  0  0  0  0
   43.2510   75.3620   58.8800 C   0  0  0  0  0  0  0  0  0  0  0  0
   42.5920   74.4230   59.6580 C   0  0  0  0  0  0  0  0  0  0  0  0
   41.3190   74.6540   60.0540 C   0  0  0  0  0  0  0  0  0  0  0  0
   38.8330   73.1670   61.8230 H   0  0  0  0  0  0  0  0  0  0  0  0
   37.7180   75.1710   61.2360 H   0  0  0  0  0  0  0  0  0  0  0  0
   38.8080   76.8880   59.8910 H   0  0  0  0  0  0  0  0  0  0  0  0
   40.6770   77.6180   58.7300 H   0  0  0  0  0  0  0  0  0  0  0  0
   42.9290   77.3340   57.9470 H   0  0  0  0  0  0  0  0  0  0  0  0
   44.2500   75.3070   58.4980 H   0  0  0  0  0  0  0  0  0  0  0  0
   43.2670   73.6380   59.8840 H   0  0  0  0  0  0  0  0  0  0  0  0
   41.6220   71.2390   60.3980 C   0  0  0  0  0  0  0  0  0  0  0  0
   41.3360   72.3560   61.1770 C   0  0  0  0  0  0  0  0  0  0  0  0
   41.5910   72.2880   62.5980 C   0  0  0  0  0  0  0  0  0  0  0  0
   42.0990   71.1400   63.1120 N   0  0  0  0  0  0  0  0  0  0  0  0
   42.3620   70.0610   62.2610 C   0  0  0  0  0  0  0  0  0  0  0  0
   42.1220   70.1270   60.9190 N   0  0  0  0  0  0  0  0  0  0  0  0
   41.3870   71.1980   59.3710 H   0  0  0  0  0  0  0  0  0  0  0  0
   41.4680   73.0010   63.3790 H   0  0  0  0  0  0  0  0  0  0  0  0
   42.8830   68.7870   62.7810 C   0  0  0  0  0  0  0  0  0  0  0  0
   43.9660   68.7550   63.3910 O   0  0  0  0  0  0  0  0  0  0  0  0
   42.1190   67.5300   62.5800 C   0  0  0  0  0  0  0  0  0  0  0  0
   41.0860   67.2440   63.4780 C   0  0  0  0  0  0  0  0  0  0  0  0
   40.6720   67.7860   64.3830 H   0  0  0  0  0  0  0  0  0  0  0  0
   40.4390   65.6440   62.8660 S   0  0  0  0  0  0  0  0  0  0  0  0
   41.7150   65.6350   61.4570 C   0  0  0  0  0  0  0  0  0  0  0  0
   41.8550   64.8840   60.6810 H   0  0  0  0  0  0  0  0  0  0  0  0
   42.2770   66.6160   61.6510 N   0  0  0  0  0  0  0  0  0  0  0  0
  1 19  1  0  0  0  0
  1  2  1  0  0  0  0
  2 11  1  0  0  0  0
  3 12  1  0  0  0  0
  3  2  2  0  0  0  0
  4  3  1  0  0  0  0
  5 10  1  0  0  0  0
  5  4  2  0  0  0  0
  6  5  1  0  0  0  0
  7  8  1  0  0  0  0
  7  6  2  0  0  0  0
  8  9  2  0  0  0  0
  9 17  1  0  0  0  0
  9 10  1  0  0  0  0
 10  1  2  0  0  0  0
 13  4  1  0  0  0  0
 14  6  1  0  0  0  0
 15  7  1  0  0  0  0
 16  8  1  0  0  0  0
 18 23  2  0  0  0  0
 18 19  1  0  0  0  0
 19 20  2  0  0  0  0
 20 21  1  0  0  0  0
 20 25  1  0  0  0  0
 22 26  1  0  0  0  0
 22 21  2  0  0  0  0
 23 22  1  0  0  0  0
 24 18  1  0  0  0  0
 26 27  2  0  0  0  0
 28 26  1  0  0  0  0
 28 29  2  0  0  0  0
 29 30  1  0  0  0  0
 31 29  1  0  0  0  0
 32 34  2  0  0  0  0
 32 31  1  0  0  0  0
 33 32  1  0  0  0  0
 34 28  1  0  0  0  0
M  END
>  <minimizedAffinity>
-6.66224289

$$$$

 OpenBabel03212520363D

 34 37  0  0  0  0  0  0  0  0999 V2000
   42.2250   73.2850   60.5530 C   0  0  0  0  0  0  0  0  0  0  0  0
   43.4910   73.5300   59.9690 C   0  0  0  0  0  0  0  0  0  0  0  0
   43.8010   74.6730   59.2930 C   0  0  0  0  0  0  0  0  0  0  0  0
   42.8400   75.6640   59.1570 C   0  0  0  0  0  0  0  0  0  0  0  0
   41.5940   75.4440   59.7190 C   0  0  0  0  0  0  0  0  0  0  0  0
   40.5810   76.3640   59.6540 C   0  0  0  0  0  0  0  0  0  0  0  0
   39.3440   76.1190   60.2360 C   0  0  0  0  0  0  0  0  0  0  0  0
   39.0720   74.9350   60.9080 C   0  0  0  0  0  0  0  0  0  0  0  0
   40.0970   74.0040   60.9740 C   0  0  0  0  0  0  0  0  0  0  0  0
   41.2900   74.2790   60.4010 C   0  0  0  0  0  0  0  0  0  0  0  0
   44.3580   72.8880   59.9820 H   0  0  0  0  0  0  0  0  0  0  0  0
   44.7190   74.9250   58.8330 H   0  0  0  0  0  0  0  0  0  0  0  0
   42.9660   76.6090   58.6460 H   0  0  0  0  0  0  0  0  0  0  0  0
   40.8020   77.2910   59.1220 H   0  0  0  0  0  0  0  0  0  0  0  0
   38.6390   76.9420   60.1040 H   0  0  0  0  0  0  0  0  0  0  0  0
   38.0860   74.8490   61.3170 H   0  0  0  0  0  0  0  0  0  0  0  0
   39.7300   73.1320   61.4520 H   0  0  0  0  0  0  0  0  0  0  0  0
   42.1950   71.7720   62.6410 C   0  0  0  0  0  0  0  0  0  0  0  0
   42.1380   72.0290   61.2740 C   0  0  0  0  0  0  0  0  0  0  0  0
   41.9930   70.9110   60.3690 C   0  0  0  0  0  0  0  0  0  0  0  0
   41.9190   69.6610   60.8890 N   0  0  0  0  0  0  0  0  0  0  0  0
   41.9820   69.4860   62.2770 C   0  0  0  0  0  0  0  0  0  0  0  0
   42.1170   70.5420   63.1300 N   0  0  0  0  0  0  0  0  0  0  0  0
   42.3770   72.5340   63.3470 H   0  0  0  0  0  0  0  0  0  0  0  0
   41.9160   70.8590   59.3090 H   0  0  0  0  0  0  0  0  0  0  0  0
   41.9370   68.1450   62.8800 C   0  0  0  0  0  0  0  0  0  0  0  0
   40.9200   67.7640   63.4860 O   0  0  0  0  0  0  0  0  0  0  0  0
   43.1070   67.2370   62.7710 C   0  0  0  0  0  0  0  0  0  0  0  0
   44.2930   67.6230   63.4030 C   0  0  0  0  0  0  0  0  0  0  0  0
   44.5860   68.5270   64.0180 H   0  0  0  0  0  0  0  0  0  0  0  0
   45.4330   66.2430   63.0150 S   0  0  0  0  0  0  0  0  0  0  0  0
   44.0680   65.3530   62.0350 C   0  0  0  0  0  0  0  0  0  0  0  0
   44.1280   64.3990   61.5150 H   0  0  0  0  0  0  0  0  0  0  0  0
   43.1930   66.0850   62.1470 N   0  0  0  0  0  0  0  0  0  0  0  0
  1 19  1  0  0  0  0
  2 11  1  0  0  0  0
  2  1  2  0  0  0  0
  3  2  1  0  0  0  0
  4  3  2  0  0  0  0
  4  5  1  0  0  0  0
  5 10  1  0  0  0  0
  6  5  2  0  0  0  0
  6  7  1  0  0  0  0
  7  8  2  0  0  0  0
  8  9  1  0  0  0  0
  8 16  1  0  0  0  0
  9 17  1  0  0  0  0
 10  1  1  0  0  0  0
 10  9  2  0  0  0  0
 12  3  1  0  0  0  0
 13  4  1  0  0  0  0
 14  6  1  0  0  0  0
 15  7  1  0  0  0  0
 18 23  1  0  0  0  0
 18 24  1  0  0  0  0
 19 18  2  0  0  0  0
 20 21  2  0  0  0  0
 20 19  1  0  0  0  0
 21 22  1  0  0  0  0
 22 26  1  0  0  0  0
 22 23  2  0  0  0  0
 25 20  1  0  0  0  0
 26 27  2  0  0  0  0
 28 26  1  0  0  0  0
 28 29  2  0  0  0  0
 29 30  1  0  0  0  0
 31 29  1  0  0  0  0
 32 34  2  0  0  0  0
 32 31  1  0  0  0  0
 33 32  1  0  0  0  0
 34 28  1  0  0  0  0
M  END
>  <minimizedAffinity>
-6.25979614

$$$$

 OpenBabel03212520363D

 34 37  0  0  0  0  0  0  0  0999 V2000
   40.8400   73.6120   60.9250 C   0  0  0  0  0  0  0  0  0  0  0  0
   39.4750   73.7600   61.2680 C   0  0  0  0  0  0  0  0  0  0  0  0
   38.6980   74.7960   60.8420 C   0  0  0  0  0  0  0  0  0  0  0  0
   39.2530   75.7710   60.0260 C   0  0  0  0  0  0  0  0  0  0  0  0
   40.5880   75.6470   59.6780 C   0  0  0  0  0  0  0  0  0  0  0  0
   41.2280   76.5450   58.8670 C   0  0  0  0  0  0  0  0  0  0  0  0
   42.5660   76.3890   58.5280 C   0  0  0  0  0  0  0  0  0  0  0  0
   43.3190   75.3210   58.9950 C   0  0  0  0  0  0  0  0  0  0  0  0
   42.6730   74.4110   59.8160 C   0  0  0  0  0  0  0  0  0  0  0  0
   41.3670   74.5920   60.1200 C   0  0  0  0  0  0  0  0  0  0  0  0
   38.8740   73.1020   61.8770 H   0  0  0  0  0  0  0  0  0  0  0  0
   37.6780   74.9720   61.0550 H   0  0  0  0  0  0  0  0  0  0  0  0
   38.7410   76.6360   59.6250 H   0  0  0  0  0  0  0  0  0  0  0  0
   40.6280   77.3840   58.5060 H   0  0  0  0  0  0  0  0  0  0  0  0
   42.9360   77.1820   57.8750 H   0  0  0  0  0  0  0  0  0  0  0  0
   44.3410   75.2980   58.6740 H   0  0  0  0  0  0  0  0  0  0  0  0
   43.3790   73.6940   60.1470 H   0  0  0  0  0  0  0  0  0  0  0  0
   41.9360   72.1150   62.7160 C   0  0  0  0  0  0  0  0  0  0  0  0
   41.4550   72.4040   61.4420 C   0  0  0  0  0  0  0  0  0  0  0  0
   41.5750   71.3940   60.4150 C   0  0  0  0  0  0  0  0  0  0  0  0
   42.1510   70.2080   60.7350 N   0  0  0  0  0  0  0  0  0  0  0  0
   42.6090   69.9940   62.0400 C   0  0  0  0  0  0  0  0  0  0  0  0
   42.4930   70.9480   63.0100 N   0  0  0  0  0  0  0  0  0  0  0  0
   41.9490   72.8340   63.4860 H   0  0  0  0  0  0  0  0  0  0  0  0
   41.2770   71.3780   59.3930 H   0  0  0  0  0  0  0  0  0  0  0  0
   43.2670   68.7350   62.4220 C   0  0  0  0  0  0  0  0  0  0  0  0
   43.9030   68.6580   63.4870 O   0  0  0  0  0  0  0  0  0  0  0  0
   43.1770   67.5470   61.5350 C   0  0  0  0  0  0  0  0  0  0  0  0
   44.2730   67.2590   60.7170 C   0  0  0  0  0  0  0  0  0  0  0  0
   45.2790   67.7560   60.5640 H   0  0  0  0  0  0  0  0  0  0  0  0
   43.7350   65.7540   59.8230 S   0  0  0  0  0  0  0  0  0  0  0  0
   42.0680   65.7720   60.7380 C   0  0  0  0  0  0  0  0  0  0  0  0
   41.2390   65.0750   60.6370 H   0  0  0  0  0  0  0  0  0  0  0  0
   42.1840   66.6980   61.4040 N   0  0  0  0  0  0  0  0  0  0  0  0
  1  2  1  0  0  0  0
  1 19  1  0  0  0  0
  2 11  1  0  0  0  0
  3 12  1  0  0  0  0
  3  2  2  0  0  0  0
  4  3  1  0  0  0  0
  5  4  2  0  0  0  0
  5 10  1  0  0  0  0
  6  5  1  0  0  0  0
  7  6  2  0  0  0  0
  7  8  1  0  0  0  0
  8  9  2  0  0  0  0
  9 10  1  0  0  0  0
  9 17  1  0  0  0  0
 10  1  2  0  0  0  0
 13  4  1  0  0  0  0
 14  6  1  0  0  0  0
 15  7  1  0  0  0  0
 16  8  1  0  0  0  0
 18 23  1  0  0  0  0
 18 24  1  0  0  0  0
 19 18  2  0  0  0  0
 20 21  2  0  0  0  0
 20 19  1  0  0  0  0
 21 22  1  0  0  0  0
 22 26  1  0  0  0  0
 22 23  2  0  0  0  0
 25 20  1  0  0  0  0
 26 27  2  0  0  0  0
 28 26  1  0  0  0  0
 29 28  2  0  0  0  0
 30 29  1  0  0  0  0
 31 29  1  0  0  0  0
 31 32  1  0  0  0  0
 32 34  2  0  0  0  0
 33 32  1  0  0  0  0
 34 28  1  0  0  0  0
M  END
>  <minimizedAffinity>
-6.20827484

$$$$

 OpenBabel03212520363D

 34 37  0  0  0  0  0  0  0  0999 V2000
   40.5250   73.4940   60.3350 C   0  0  0  0  0  0  0  0  0  0  0  0
   39.2590   73.5030   60.9680 C   0  0  0  0  0  0  0  0  0  0  0  0
   38.5580   74.6410   61.2370 C   0  0  0  0  0  0  0  0  0  0  0  0
   39.0940   75.8700   60.8800 C   0  0  0  0  0  0  0  0  0  0  0  0
   40.3330   75.8850   60.2600 C   0  0  0  0  0  0  0  0  0  0  0  0
   40.9430   77.0410   59.8550 C   0  0  0  0  0  0  0  0  0  0  0  0
   42.1820   77.0240   59.2280 C   0  0  0  0  0  0  0  0  0  0  0  0
   42.8620   75.8390   58.9820 C   0  0  0  0  0  0  0  0  0  0  0  0
   42.2450   74.6680   59.3920 C   0  0  0  0  0  0  0  0  0  0  0  0
   41.0360   74.7220   59.9960 C   0  0  0  0  0  0  0  0  0  0  0  0
   38.6840   72.6530   61.3040 H   0  0  0  0  0  0  0  0  0  0  0  0
   37.6130   74.7260   61.7030 H   0  0  0  0  0  0  0  0  0  0  0  0
   38.6350   76.8370   61.0390 H   0  0  0  0  0  0  0  0  0  0  0  0
   40.4020   77.9700   60.0540 H   0  0  0  0  0  0  0  0  0  0  0  0
   42.5400   78.0200   58.9620 H   0  0  0  0  0  0  0  0  0  0  0  0
   43.8100   75.9400   58.4950 H   0  0  0  0  0  0  0  0  0  0  0  0
   42.9010   73.8570   59.2040 H   0  0  0  0  0  0  0  0  0  0  0  0
   40.9510   71.3430   58.9790 C   0  0  0  0  0  0  0  0  0  0  0  0
   41.0590   72.1660   60.0960 C   0  0  0  0  0  0  0  0  0  0  0  0
   41.7840   71.6760   61.2460 C   0  0  0  0  0  0  0  0  0  0  0  0
   42.3290   70.4350   61.1880 N   0  0  0  0  0  0  0  0  0  0  0  0
   42.1780   69.6690   60.0270 C   0  0  0  0  0  0  0  0  0  0  0  0
   41.4950   70.1330   58.9410 N   0  0  0  0  0  0  0  0  0  0  0  0
   40.3710   71.6100   58.1400 H   0  0  0  0  0  0  0  0  0  0  0  0
   42.0070   72.1170   62.1890 H   0  0  0  0  0  0  0  0  0  0  0  0
   42.7270   68.3070   59.9340 C   0  0  0  0  0  0  0  0  0  0  0  0
   43.5250   68.0130   59.0270 O   0  0  0  0  0  0  0  0  0  0  0  0
   42.3290   67.2720   60.9230 C   0  0  0  0  0  0  0  0  0  0  0  0
   40.9670   67.1290   61.2050 C   0  0  0  0  0  0  0  0  0  0  0  0
   40.0370   67.6550   60.8290 H   0  0  0  0  0  0  0  0  0  0  0  0
   40.9430   65.7790   62.4410 S   0  0  0  0  0  0  0  0  0  0  0  0
   42.8370   65.6350   62.3630 C   0  0  0  0  0  0  0  0  0  0  0  0
   43.4820   64.9530   62.9130 H   0  0  0  0  0  0  0  0  0  0  0  0
   43.0960   66.4440   61.5930 N   0  0  0  0  0  0  0  0  0  0  0  0
  1  2  1  0  0  0  0
  2  3  2  0  0  0  0
  2 11  1  0  0  0  0
  3 12  1  0  0  0  0
  4 13  1  0  0  0  0
  4  3  1  0  0  0  0
  5  4  2  0  0  0  0
  6 14  1  0  0  0  0
  6  5  1  0  0  0  0
  7  6  2  0  0  0  0
  8  7  1  0  0  0  0
  8  9  2  0  0  0  0
  9 10  1  0  0  0  0
 10  5  1  0  0  0  0
 10  1  2  0  0  0  0
 15  7  1  0  0  0  0
 16  8  1  0  0  0  0
 17  9  1  0  0  0  0
 18 19  1  0  0  0  0
 19  1  1  0  0  0  0
 19 20  2  0  0  0  0
 20 25  1  0  0  0  0
 21 20  1  0  0  0  0
 22 21  2  0  0  0  0
 23 18  2  0  0  0  0
 23 22  1  0  0  0  0
 24 18  1  0  0  0  0
 26 22  1  0  0  0  0
 26 28  1  0  0  0  0
 27 26  2  0  0  0  0
 28 29  2  0  0  0  0
 28 34  1  0  0  0  0
 29 31  1  0  0  0  0
 30 29  1  0  0  0  0
 32 31  1  0  0  0  0
 32 33  1  0  0  0  0
 34 32  2  0  0  0  0
M  END
>  <minimizedAffinity>
-6.16739464

$$$$

 OpenBabel03212520363D

 34 37  0  0  0  0  0  0  0  0999 V2000
   42.0930   73.7550   59.3070 C   0  0  0  0  0  0  0  0  0  0  0  0
   43.0990   74.2620   58.4510 C   0  0  0  0  0  0  0  0  0  0  0  0
   43.2260   75.5820   58.1350 C   0  0  0  0  0  0  0  0  0  0  0  0
   42.3340   76.4980   58.6710 C   0  0  0  0  0  0  0  0  0  0  0  0
   41.3400   76.0240   59.5120 C   0  0  0  0  0  0  0  0  0  0  0  0
   40.4190   76.8450   60.1040 C   0  0  0  0  0  0  0  0  0  0  0  0
   39.4390   76.3410   60.9500 C   0  0  0  0  0  0  0  0  0  0  0  0
   39.3440   74.9860   61.2350 C   0  0  0  0  0  0  0  0  0  0  0  0
   40.2760   74.1540   60.6360 C   0  0  0  0  0  0  0  0  0  0  0  0
   41.2200   74.6810   59.8220 C   0  0  0  0  0  0  0  0  0  0  0  0
   43.8830   73.7090   57.9540 H   0  0  0  0  0  0  0  0  0  0  0  0
   43.9480   76.0320   57.5070 H   0  0  0  0  0  0  0  0  0  0  0  0
   42.3330   77.5660   58.4970 H   0  0  0  0  0  0  0  0  0  0  0  0
   40.4990   77.9100   59.8730 H   0  0  0  0  0  0  0  0  0  0  0  0
   38.7790   77.1150   61.3480 H   0  0  0  0  0  0  0  0  0  0  0  0
   38.5510   74.7060   61.8980 H   0  0  0  0  0  0  0  0  0  0  0  0
   40.0450   73.1510   60.8870 H   0  0  0  0  0  0  0  0  0  0  0  0
   41.4310   71.2780   59.0290 C   0  0  0  0  0  0  0  0  0  0  0  0
   42.1840   72.3270   59.5490 C   0  0  0  0  0  0  0  0  0  0  0  0
   43.2220   72.0210   60.5080 C   0  0  0  0  0  0  0  0  0  0  0  0
   43.4190   70.7260   60.8590 N   0  0  0  0  0  0  0  0  0  0  0  0
   42.6210   69.7280   60.2880 C   0  0  0  0  0  0  0  0  0  0  0  0
   41.6430   70.0180   59.3820 N   0  0  0  0  0  0  0  0  0  0  0  0
   40.6110   71.4420   58.3870 H   0  0  0  0  0  0  0  0  0  0  0  0
   43.9200   72.6380   61.0240 H   0  0  0  0  0  0  0  0  0  0  0  0
   42.7810   68.3140   60.6640 C   0  0  0  0  0  0  0  0  0  0  0  0
   43.7270   67.6480   60.2100 O   0  0  0  0  0  0  0  0  0  0  0  0
   41.8130   67.6730   61.5900 C   0  0  0  0  0  0  0  0  0  0  0  0
   41.3090   66.4170   61.2390 C   0  0  0  0  0  0  0  0  0  0  0  0
   41.4800   65.7310   60.3540 H   0  0  0  0  0  0  0  0  0  0  0  0
   40.1840   66.0230   62.6300 S   0  0  0  0  0  0  0  0  0  0  0  0
   40.6000   67.6750   63.4720 C   0  0  0  0  0  0  0  0  0  0  0  0
   40.2190   68.0630   64.4150 H   0  0  0  0  0  0  0  0  0  0  0  0
   41.3450   68.1300   62.7280 N   0  0  0  0  0  0  0  0  0  0  0  0
  1 19  1  0  0  0  0
  1 10  1  0  0  0  0
  2  1  2  0  0  0  0
  3  2  1  0  0  0  0
  3  4  2  0  0  0  0
  4  5  1  0  0  0  0
  5 10  2  0  0  0  0
  5  6  1  0  0  0  0
  6  7  2  0  0  0  0
  7  8  1  0  0  0  0
  7 15  1  0  0  0  0
  8 16  1  0  0  0  0
  9 17  1  0  0  0  0
  9  8  2  0  0  0  0
 10  9  1  0  0  0  0
 11  2  1  0  0  0  0
 12  3  1  0  0  0  0
 13  4  1  0  0  0  0
 14  6  1  0  0  0  0
 18 23  2  0  0  0  0
 18 19  1  0  0  0  0
 19 20  2  0  0  0  0
 20 21  1  0  0  0  0
 20 25  1  0  0  0  0
 22 26  1  0  0  0  0
 22 21  2  0  0  0  0
 23 22  1  0  0  0  0
 24 18  1  0  0  0  0
 26 28  1  0  0  0  0
 27 26  2  0  0  0  0
 28 34  1  0  0  0  0
 29 28  2  0  0  0  0
 29 31  1  0  0  0  0
 30 29  1  0  0  0  0
 31 32  1  0  0  0  0
 32 33  1  0  0  0  0
 34 32  2  0  0  0  0
M  END
>  <minimizedAffinity>
-6.14725208

$$$$

 OpenBabel03212520363D

 34 37  0  0  0  0  0  0  0  0999 V2000
   41.9060   70.9580   61.2870 C   0  0  0  0  0  0  0  0  0  0  0  0
   42.4050   70.8550   62.6070 C   0  0  0  0  0  0  0  0  0  0  0  0
   42.9210   69.7070   63.1320 C   0  0  0  0  0  0  0  0  0  0  0  0
   42.9710   68.5640   62.3470 C   0  0  0  0  0  0  0  0  0  0  0  0
   42.4870   68.6410   61.0520 C   0  0  0  0  0  0  0  0  0  0  0  0
   42.5030   67.5760   60.1920 C   0  0  0  0  0  0  0  0  0  0  0  0
   42.0180   67.6870   58.8950 C   0  0  0  0  0  0  0  0  0  0  0  0
   41.4940   68.8760   58.4080 C   0  0  0  0  0  0  0  0  0  0  0  0
   41.4770   69.9550   59.2780 C   0  0  0  0  0  0  0  0  0  0  0  0
   41.9620   69.8120   60.5330 C   0  0  0  0  0  0  0  0  0  0  0  0
   42.4600   71.6330   63.3530 H   0  0  0  0  0  0  0  0  0  0  0  0
   43.3100   69.5560   64.1030 H   0  0  0  0  0  0  0  0  0  0  0  0
   43.3560   67.5990   62.6490 H   0  0  0  0  0  0  0  0  0  0  0  0
   42.9150   66.6440   60.5830 H   0  0  0  0  0  0  0  0  0  0  0  0
   42.0990   66.7570   58.3280 H   0  0  0  0  0  0  0  0  0  0  0  0
   41.1470   68.8500   57.3950 H   0  0  0  0  0  0  0  0  0  0  0  0
   40.9930   70.7670   58.7990 H   0  0  0  0  0  0  0  0  0  0  0  0
   42.0900   73.2710   60.1630 C   0  0  0  0  0  0  0  0  0  0  0  0
   41.4600   72.2900   60.9230 C   0  0  0  0  0  0  0  0  0  0  0  0
   40.1640   72.5850   61.4920 C   0  0  0  0  0  0  0  0  0  0  0  0
   39.6170   73.8040   61.2600 N   0  0  0  0  0  0  0  0  0  0  0  0
   40.3130   74.7360   60.4820 C   0  0  0  0  0  0  0  0  0  0  0  0
   41.5360   74.4560   59.9450 N   0  0  0  0  0  0  0  0  0  0  0  0
   43.0670   73.1470   59.7860 H   0  0  0  0  0  0  0  0  0  0  0  0
   39.4980   72.0040   62.0850 H   0  0  0  0  0  0  0  0  0  0  0  0
   39.7700   76.0800   60.2330 C   0  0  0  0  0  0  0  0  0  0  0  0
   39.8280   76.9540   61.1150 O   0  0  0  0  0  0  0  0  0  0  0  0
   39.1460   76.4030   58.9240 C   0  0  0  0  0  0  0  0  0  0  0  0
   39.4540   77.6350   58.3400 C   0  0  0  0  0  0  0  0  0  0  0  0
   40.1130   78.5010   58.6570 H   0  0  0  0  0  0  0  0  0  0  0  0
   38.4900   77.6060   56.7840 S   0  0  0  0  0  0  0  0  0  0  0  0
   37.8140   75.8790   57.2020 C   0  0  0  0  0  0  0  0  0  0  0  0
   37.1290   75.2660   56.6190 H   0  0  0  0  0  0  0  0  0  0  0  0
   38.3190   75.6740   58.2110 N   0  0  0  0  0  0  0  0  0  0  0  0
  1  2  1  0  0  0  0
  2  3  2  0  0  0  0
  2 11  1  0  0  0  0
  3 12  1  0  0  0  0
  4 13  1  0  0  0  0
  4  3  1  0  0  0  0
  5  4  2  0  0  0  0
  6 14  1  0  0  0  0
  6  5  1  0  0  0  0
  7  6  2  0  0  0  0
  8  7  1  0  0  0  0
  8  9  2  0  0  0  0
  9 10  1  0  0  0  0
 10  5  1  0  0  0  0
 10  1  2  0  0  0  0
 15  7  1  0  0  0  0
 16  8  1  0  0  0  0
 17  9  1  0  0  0  0
 18 19  1  0  0  0  0
 19  1  1  0  0  0  0
 19 20  2  0  0  0  0
 20 25  1  0  0  0  0
 21 20  1  0  0  0  0
 22 21  2  0  0  0  0
 23 18  2  0  0  0  0
 23 22  1  0  0  0  0
 24 18  1  0  0  0  0
 26 22  1  0  0  0  0
 26 27  2  0  0  0  0
 28 26  1  0  0  0  0
 29 30  1  0  0  0  0
 29 28  2  0  0  0  0
 31 32  1  0  0  0  0
 31 29  1  0  0  0  0
 32 34  2  0  0  0  0
 33 32  1  0  0  0  0
 34 28  1  0  0  0  0
M  END
>  <minimizedAffinity>
-6.00082254

$$$$

 OpenBabel03212520363D

 34 37  0  0  0  0  0  0  0  0999 V2000
   40.3240   73.6640   60.0480 C   0  0  0  0  0  0  0  0  0  0  0  0
   39.1260   73.7270   60.7980 C   0  0  0  0  0  0  0  0  0  0  0  0
   38.6010   74.8880   61.2850 C   0  0  0  0  0  0  0  0  0  0  0  0
   39.2590   76.0850   61.0440 C   0  0  0  0  0  0  0  0  0  0  0  0
   40.4340   76.0470   60.3130 C   0  0  0  0  0  0  0  0  0  0  0  0
   41.1520   77.1720   60.0070 C   0  0  0  0  0  0  0  0  0  0  0  0
   42.3230   77.1030   59.2640 C   0  0  0  0  0  0  0  0  0  0  0  0
   42.8230   75.8960   58.7960 C   0  0  0  0  0  0  0  0  0  0  0  0
   42.0970   74.7560   59.1050 C   0  0  0  0  0  0  0  0  0  0  0  0
   40.9580   74.8620   59.8270 C   0  0  0  0  0  0  0  0  0  0  0  0
   38.4760   72.9100   61.0730 H   0  0  0  0  0  0  0  0  0  0  0  0
   37.7160   75.0120   61.8500 H   0  0  0  0  0  0  0  0  0  0  0  0
   38.9420   77.0650   61.3760 H   0  0  0  0  0  0  0  0  0  0  0  0
   40.7520   78.1180   60.3810 H   0  0  0  0  0  0  0  0  0  0  0  0
   42.7820   78.0790   59.0990 H   0  0  0  0  0  0  0  0  0  0  0  0
   43.7340   75.9570   58.2350 H   0  0  0  0  0  0  0  0  0  0  0  0
   42.6270   73.9110   58.7460 H   0  0  0  0  0  0  0  0  0  0  0  0
   41.5730   71.4080   60.0870 C   0  0  0  0  0  0  0  0  0  0  0  0
   40.6630   72.3330   59.5820 C   0  0  0  0  0  0  0  0  0  0  0  0
   39.9210   71.9880   58.3900 C   0  0  0  0  0  0  0  0  0  0  0  0
   40.1410   70.7790   57.8150 N   0  0  0  0  0  0  0  0  0  0  0  0
   41.0720   69.9040   58.3870 C   0  0  0  0  0  0  0  0  0  0  0  0
   41.7710   70.2290   59.5120 N   0  0  0  0  0  0  0  0  0  0  0  0
   42.1990   71.6290   60.9060 H   0  0  0  0  0  0  0  0  0  0  0  0
   39.1790   72.5140   57.8360 H   0  0  0  0  0  0  0  0  0  0  0  0
   41.3630   68.5960   57.7790 C   0  0  0  0  0  0  0  0  0  0  0  0
   41.1790   67.5490   58.4230 O   0  0  0  0  0  0  0  0  0  0  0  0
   41.8810   68.5180   56.3880 C   0  0  0  0  0  0  0  0  0  0  0  0
   43.0520   69.2190   56.0880 C   0  0  0  0  0  0  0  0  0  0  0  0
   43.7420   69.8760   56.7010 H   0  0  0  0  0  0  0  0  0  0  0  0
   43.3110   68.8470   54.3140 S   0  0  0  0  0  0  0  0  0  0  0  0
   41.7420   67.7740   54.2810 C   0  0  0  0  0  0  0  0  0  0  0  0
   41.3190   67.2270   53.4400 H   0  0  0  0  0  0  0  0  0  0  0  0
   41.3810   67.8640   55.3660 N   0  0  0  0  0  0  0  0  0  0  0  0
  1  2  1  0  0  0  0
  2 11  1  0  0  0  0
  2  3  2  0  0  0  0
  3 12  1  0  0  0  0
  4  3  1  0  0  0  0
  4 13  1  0  0  0  0
  5  4  2  0  0  0  0
  6  5  1  0  0  0  0
  6 14  1  0  0  0  0
  7  6  2  0  0  0  0
  8  9  2  0  0  0  0
  8  7  1  0  0  0  0
  9 10  1  0  0  0  0
 10  1  2  0  0  0  0
 10  5  1  0  0  0  0
 15  7  1  0  0  0  0
 16  8  1  0  0  0  0
 17  9  1  0  0  0  0
 18 24  1  0  0  0  0
 19  1  1  0  0  0  0
 19 18  1  0  0  0  0
 20 19  2  0  0  0  0
 21 22  2  0  0  0  0
 21 20  1  0  0  0  0
 22 23  1  0  0  0  0
 23 18  2  0  0  0  0
 25 20  1  0  0  0  0
 26 22  1  0  0  0  0
 26 27  2  0  0  0  0
 28 26  1  0  0  0  0
 29 28  2  0  0  0  0
 29 30  1  0  0  0  0
 31 29  1  0  0  0  0
 32 31  1  0  0  0  0
 32 34  2  0  0  0  0
 33 32  1  0  0  0  0
 34 28  1  0  0  0  0
M  END
>  <minimizedAffinity>
-5.90745258

$$$$

 OpenBabel03212520363D

 34 37  0  0  0  0  0  0  0  0999 V2000
   40.4050   74.3580   59.6280 C   0  0  0  0  0  0  0  0  0  0  0  0
   39.5660   73.7310   60.5810 C   0  0  0  0  0  0  0  0  0  0  0  0
   40.0320   72.9650   61.6080 C   0  0  0  0  0  0  0  0  0  0  0  0
   41.3980   72.7750   61.7490 C   0  0  0  0  0  0  0  0  0  0  0  0
   42.2380   73.3780   60.8270 C   0  0  0  0  0  0  0  0  0  0  0  0
   43.6010   73.2660   60.8850 C   0  0  0  0  0  0  0  0  0  0  0  0
   44.4190   73.8900   59.9510 C   0  0  0  0  0  0  0  0  0  0  0  0
   43.8970   74.6540   58.9160 C   0  0  0  0  0  0  0  0  0  0  0  0
   42.5170   74.7680   58.8570 C   0  0  0  0  0  0  0  0  0  0  0  0
   41.7530   74.1510   59.7870 C   0  0  0  0  0  0  0  0  0  0  0  0
   38.4890   73.7740   60.6400 H   0  0  0  0  0  0  0  0  0  0  0  0
   39.4690   72.4690   62.3530 H   0  0  0  0  0  0  0  0  0  0  0  0
   41.8860   72.1930   62.5190 H   0  0  0  0  0  0  0  0  0  0  0  0
   44.0040   72.6610   61.7010 H   0  0  0  0  0  0  0  0  0  0  0  0
   45.4810   73.7110   60.1260 H   0  0  0  0  0  0  0  0  0  0  0  0
   44.6160   75.0890   58.2520 H   0  0  0  0  0  0  0  0  0  0  0  0
   42.2600   75.3180   57.9880 H   0  0  0  0  0  0  0  0  0  0  0  0
   39.2550   76.4890   58.7440 C   0  0  0  0  0  0  0  0  0  0  0  0
   39.6970   75.1720   58.6580 C   0  0  0  0  0  0  0  0  0  0  0  0
   39.4200   74.4300   57.4500 C   0  0  0  0  0  0  0  0  0  0  0  0
   38.7420   75.0470   56.4500 N   0  0  0  0  0  0  0  0  0  0  0  0
   38.3330   76.3760   56.6120 C   0  0  0  0  0  0  0  0  0  0  0  0
   38.5960   77.0760   57.7540 N   0  0  0  0  0  0  0  0  0  0  0  0
   39.3560   77.0580   59.6260 H   0  0  0  0  0  0  0  0  0  0  0  0
   39.6610   73.4370   57.1530 H   0  0  0  0  0  0  0  0  0  0  0  0
   37.5690   77.0730   55.5660 C   0  0  0  0  0  0  0  0  0  0  0  0
   36.4720   77.5940   55.8320 O   0  0  0  0  0  0  0  0  0  0  0  0
   38.1030   77.1590   54.1830 C   0  0  0  0  0  0  0  0  0  0  0  0
   37.1850   77.2790   53.1350 C   0  0  0  0  0  0  0  0  0  0  0  0
   36.0540   77.3290   53.0960 H   0  0  0  0  0  0  0  0  0  0  0  0
   38.2590   77.3500   51.6530 S   0  0  0  0  0  0  0  0  0  0  0  0
   39.8130   77.2000   52.7380 C   0  0  0  0  0  0  0  0  0  0  0  0
   40.8540   77.1820   52.4210 H   0  0  0  0  0  0  0  0  0  0  0  0
   39.3550   77.1380   53.7870 N   0  0  0  0  0  0  0  0  0  0  0  0
  1 10  2  0  0  0  0
  1  2  1  0  0  0  0
  2 11  1  0  0  0  0
  2  3  2  0  0  0  0
  3  4  1  0  0  0  0
  3 12  1  0  0  0  0
  4 13  1  0  0  0  0
  5  6  1  0  0  0  0
  5  4  2  0  0  0  0
  6 14  1  0  0  0  0
  7 15  1  0  0  0  0
  7  6  2  0  0  0  0
  8  7  1  0  0  0  0
  9  8  2  0  0  0  0
  9 10  1  0  0  0  0
 10  5  1  0  0  0  0
 16  8  1  0  0  0  0
 17  9  1  0  0  0  0
 18 24  1  0  0  0  0
 19 18  1  0  0  0  0
 19  1  1  0  0  0  0
 20 19  2  0  0  0  0
 21 22  2  0  0  0  0
 21 20  1  0  0  0  0
 22 23  1  0  0  0  0
 23 18  2  0  0  0  0
 25 20  1  0  0  0  0
 26 27  2  0  0  0  0
 26 22  1  0  0  0  0
 28 26  1  0  0  0  0
 29 28  2  0  0  0  0
 30 29  1  0  0  0  0
 31 32  1  0  0  0  0
 31 29  1  0  0  0  0
 32 34  2  0  0  0  0
 33 32  1  0  0  0  0
 34 28  1  0  0  0  0
M  END
>  <minimizedAffinity>
-5.8319993

$$$$
