
 OpenBabel03212520353D

 34 37  0  0  0  0  0  0  0  0999 V2000
   41.8980   80.3610   61.5530 C   0  0  0  0  0  0  0  0  0  0  0  0
   43.2660   80.0240   61.6880 C   0  0  0  0  0  0  0  0  0  0  0  0
   44.2070   80.8750   62.1860 C   0  0  0  0  0  0  0  0  0  0  0  0
   43.8280   82.1460   62.5910 C   0  0  0  0  0  0  0  0  0  0  0  0
   42.4940   82.4980   62.4670 C   0  0  0  0  0  0  0  0  0  0  0  0
   42.0130   83.7220   62.8500 C   0  0  0  0  0  0  0  0  0  0  0  0
   40.6680   84.0430   62.7220 C   0  0  0  0  0  0  0  0  0  0  0  0
   39.7470   83.1450   62.2000 C   0  0  0  0  0  0  0  0  0  0  0  0
   40.2330   81.9060   61.8120 C   0  0  0  0  0  0  0  0  0  0  0  0
   41.5480   81.6260   61.9560 C   0  0  0  0  0  0  0  0  0  0  0  0
   43.7410   79.0870   61.4400 H   0  0  0  0  0  0  0  0  0  0  0  0
   45.2410   80.6940   62.3160 H   0  0  0  0  0  0  0  0  0  0  0  0
   44.4790   82.9070   63.0010 H   0  0  0  0  0  0  0  0  0  0  0  0
   42.7450   84.4230   63.2580 H   0  0  0  0  0  0  0  0  0  0  0  0
   40.4350   85.0510   63.0700 H   0  0  0  0  0  0  0  0  0  0  0  0
   38.7370   83.4950   62.1440 H   0  0  0  0  0  0  0  0  0  0  0  0
   39.4410   81.3540   61.3750 H   0  0  0  0  0  0  0  0  0  0  0  0
   40.5900   78.1440   61.7010 C   0  0  0  0  0  0  0  0  0  0  0  0
   41.0660   79.2810   61.0550 C   0  0  0  0  0  0  0  0  0  0  0  0
   40.7410   79.4680   59.6590 C   0  0  0  0  0  0  0  0  0  0  0  0
   39.9850   78.5290   59.0380 N   0  0  0  0  0  0  0  0  0  0  0  0
   39.5410   77.4140   59.7580 C   0  0  0  0  0  0  0  0  0  0  0  0
   39.8480   77.2390   61.0760 N   0  0  0  0  0  0  0  0  0  0  0  0
   40.8560   77.9110   62.6940 H   0  0  0  0  0  0  0  0  0  0  0  0
   40.9760   80.2460   58.9710 H   0  0  0  0  0  0  0  0  0  0  0  0
   38.7450   76.3570   59.1150 C   0  0  0  0  0  0  0  0  0  0  0  0
   38.4190   75.3410   59.7530 O   0  0  0  0  0  0  0  0  0  0  0  0
   38.3260   76.4970   57.6970 C   0  0  0  0  0  0  0  0  0  0  0  0
   37.1010   77.1190   57.4370 C   0  0  0  0  0  0  0  0  0  0  0  0
   36.3030   77.5700   58.1020 H   0  0  0  0  0  0  0  0  0  0  0  0
   36.9950   77.0720   55.6090 S   0  0  0  0  0  0  0  0  0  0  0  0
   38.6770   76.1920   55.5060 C   0  0  0  0  0  0  0  0  0  0  0  0
   39.2110   75.8660   54.6160 H   0  0  0  0  0  0  0  0  0  0  0  0
   38.9590   76.1080   56.6150 N   0  0  0  0  0  0  0  0  0  0  0  0
  1  2  2  0  0  0  0
  1 10  1  0  0  0  0
  2  3  1  0  0  0  0
  3 12  1  0  0  0  0
  3  4  2  0  0  0  0
  4 13  1  0  0  0  0
  5  4  1  0  0  0  0
  5  6  1  0  0  0  0
  6 14  1  0  0  0  0
  7  6  2  0  0  0  0
  7 15  1  0  0  0  0
  8  7  1  0  0  0  0
  9 10  1  0  0  0  0
  9  8  2  0  0  0  0
 10  5  2  0  0  0  0
 11  2  1  0  0  0  0
 16  8  1  0  0  0  0
 17  9  1  0  0  0  0
 18 24  1  0  0  0  0
 19  1  1  0  0  0  0
 19 18  2  0  0  0  0
 20 19  1  0  0  0  0
 21 20  2  0  0  0  0
 21 22  1  0  0  0  0
 22 23  2  0  0  0  0
 23 18  1  0  0  0  0
 25 20  1  0  0  0  0
 26 27  2  0  0  0  0
 26 22  1  0  0  0  0
 28 26  1  0  0  0  0
 29 28  2  0  0  0  0
 29 30  1  0  0  0  0
 31 29  1  0  0  0  0
 32 31  1  0  0  0  0
 32 34  2  0  0  0  0
 33 32  1  0  0  0  0
 34 28  1  0  0  0  0
M  END
>  <minimizedAffinity>
-5.95815563

>  <minimizedRMSD>
8.36958599

$$$$
