
 OpenBabel03212520153D

 35 38  0  0  0  0  0  0  0  0999 V2000
   42.0530   84.1000   58.3740 Cl  0  0  0  0  0  0  0  0  0  0  0  0
   41.1840   82.5780   58.2320 C   0  0  0  0  0  0  0  0  0  0  0  0
   40.6960   81.8930   59.3290 C   0  0  0  0  0  0  0  0  0  0  0  0
   40.0340   80.7120   59.0490 C   0  0  0  0  0  0  0  0  0  0  0  0
   39.8280   80.1740   57.8050 C   0  0  0  0  0  0  0  0  0  0  0  0
   40.3270   80.8810   56.7530 C   0  0  0  0  0  0  0  0  0  0  0  0
   40.1360   80.3090   55.0940 Cl  0  0  0  0  0  0  0  0  0  0  0  0
   40.9990   82.0710   56.9610 C   0  0  0  0  0  0  0  0  0  0  0  0
   39.6510   80.1760   59.9160 H   0  0  0  0  0  0  0  0  0  0  0  0
   39.3040   79.2500   57.6790 H   0  0  0  0  0  0  0  0  0  0  0  0
   42.0090   82.2480   61.4780 C   0  0  0  0  0  0  0  0  0  0  0  0
   40.8980   82.4330   60.6330 C   0  0  0  0  0  0  0  0  0  0  0  0
   39.8620   83.2340   61.1090 C   0  0  0  0  0  0  0  0  0  0  0  0
   39.9810   83.7850   62.3460 N   0  0  0  0  0  0  0  0  0  0  0  0
   41.0600   83.5860   63.1240 C   0  0  0  0  0  0  0  0  0  0  0  0
   42.0750   82.8160   62.6870 N   0  0  0  0  0  0  0  0  0  0  0  0
   42.7850   81.6190   61.0620 H   0  0  0  0  0  0  0  0  0  0  0  0
   38.9590   83.4480   60.5520 H   0  0  0  0  0  0  0  0  0  0  0  0
   41.0270   84.2600   64.4420 C   0  0  0  0  0  0  0  0  0  0  0  0
   40.7230   85.5970   64.3410 F   0  0  0  0  0  0  0  0  0  0  0  0
   40.0950   83.6620   65.2690 F   0  0  0  0  0  0  0  0  0  0  0  0
   42.2810   84.2320   65.0540 F   0  0  0  0  0  0  0  0  0  0  0  0
   41.4940   82.7660   55.8520 O   0  0  0  0  0  0  0  0  0  0  0  0
   43.6520   81.6810   55.6670 C   0  0  0  0  0  3  0  0  0  0  0  0
   42.8100   82.7860   55.4860 C   0  0  0  0  0  0  0  0  0  0  0  0
   43.2760   83.9600   54.9220 C   0  0  0  0  0  0  0  0  0  0  0  0
   42.6260   84.8090   54.7820 H   0  0  0  0  0  0  0  0  0  0  0  0
   44.5930   84.0490   54.5300 C   0  0  0  0  0  0  0  0  0  0  0  0
   45.3320   85.0440   53.9590 N   0  0  0  0  0  0  0  0  0  0  0  0
   46.5990   84.5950   53.7820 C   0  0  0  0  0  0  0  0  0  0  0  0
   47.4320   85.1330   53.3550 H   0  0  0  0  0  0  0  0  0  0  0  0
   46.6500   83.3220   54.2410 N   0  0  0  0  0  0  0  0  0  0  0  0
   45.4420   82.9790   54.6980 C   0  0  0  0  0  0  0  0  0  0  0  0
   44.9760   81.7930   55.2660 C   0  0  0  0  0  3  0  0  0  0  0  0
   44.9930   86.0030   53.6940 H   0  0  0  0  0  0  0  0  0  0  0  0
  2  1  1  0  0  0  0
  2  3  1  0  0  0  0
  3 12  1  0  0  0  0
  4  3  2  0  0  0  0
  4  9  1  0  0  0  0
  5  4  1  0  0  0  0
  6  8  1  0  0  0  0
  6  5  2  0  0  0  0
  7  6  1  0  0  0  0
  8  2  2  0  0  0  0
 10  5  1  0  0  0  0
 11 16  1  0  0  0  0
 12 13  1  0  0  0  0
 12 11  2  0  0  0  0
 13 14  2  0  0  0  0
 14 15  1  0  0  0  0
 15 19  1  0  0  0  0
 16 15  2  0  0  0  0
 17 11  1  0  0  0  0
 18 13  1  0  0  0  0
 19 22  1  0  0  0  0
 19 21  1  0  0  0  0
 20 19  1  0  0  0  0
 23  8  1  0  0  0  0
 25 24  1  0  0  0  0
 25 23  1  0  0  0  0
 26 25  2  0  0  0  0
 27 26  1  0  0  0  0
 28 33  2  0  0  0  0
 28 26  1  0  0  0  0
 29 28  1  0  0  0  0
 30 29  1  0  0  0  0
 30 32  2  0  0  0  0
 31 30  1  0  0  0  0
 32 33  1  0  0  0  0
 33 34  1  0  0  0  0
 34 24  2  0  0  0  0
 35 29  1  0  0  0  0
M  END
>  <minimizedAffinity>
-5.22015142

>  <minimizedRMSD>
0.629382432

$$$$
