
 OpenBabel03212520153D

 35 38  0  0  0  0  0  0  0  0999 V2000
   42.1050   84.0490   58.3480 Cl  0  0  0  0  0  0  0  0  0  0  0  0
   41.2020   82.5470   58.2040 C   0  0  0  0  0  0  0  0  0  0  0  0
   40.6910   81.8760   59.3000 C   0  0  0  0  0  0  0  0  0  0  0  0
   40.0040   80.7100   59.0190 C   0  0  0  0  0  0  0  0  0  0  0  0
   39.7930   80.1740   57.7750 C   0  0  0  0  0  0  0  0  0  0  0  0
   40.3140   80.8670   56.7240 C   0  0  0  0  0  0  0  0  0  0  0  0
   40.1190   80.2950   55.0660 Cl  0  0  0  0  0  0  0  0  0  0  0  0
   41.0120   82.0410   56.9330 C   0  0  0  0  0  0  0  0  0  0  0  0
   39.6040   80.1850   59.8850 H   0  0  0  0  0  0  0  0  0  0  0  0
   39.2480   79.2620   57.6480 H   0  0  0  0  0  0  0  0  0  0  0  0
   41.9980   82.2060   61.4570 C   0  0  0  0  0  0  0  0  0  0  0  0
   40.8980   82.4150   60.6040 C   0  0  0  0  0  0  0  0  0  0  0  0
   39.8790   83.2420   61.0710 C   0  0  0  0  0  0  0  0  0  0  0  0
   40.0030   83.7940   62.3070 N   0  0  0  0  0  0  0  0  0  0  0  0
   41.0720   83.5710   63.0920 C   0  0  0  0  0  0  0  0  0  0  0  0
   42.0710   82.7750   62.6650 N   0  0  0  0  0  0  0  0  0  0  0  0
   42.7610   81.5560   61.0480 H   0  0  0  0  0  0  0  0  0  0  0  0
   38.9850   83.4770   60.5080 H   0  0  0  0  0  0  0  0  0  0  0  0
   41.0470   84.2490   64.4090 C   0  0  0  0  0  0  0  0  0  0  0  0
   40.7480   85.5870   64.3040 F   0  0  0  0  0  0  0  0  0  0  0  0
   40.1160   83.6570   65.2410 F   0  0  0  0  0  0  0  0  0  0  0  0
   42.3030   84.2170   65.0160 F   0  0  0  0  0  0  0  0  0  0  0  0
   41.5290   82.7220   55.8250 O   0  0  0  0  0  0  0  0  0  0  0  0
   43.6950   81.6420   55.9180 C   0  0  0  0  0  3  0  0  0  0  0  0
   42.7870   82.5280   55.3260 C   0  0  0  0  0  0  0  0  0  0  0  0
   43.1220   83.2560   54.1990 C   0  0  0  0  0  0  0  0  0  0  0  0
   42.4210   83.9380   53.7450 H   0  0  0  0  0  0  0  0  0  0  0  0
   44.3740   83.1090   53.6440 C   0  0  0  0  0  0  0  0  0  0  0  0
   44.9870   83.6720   52.5630 N   0  0  0  0  0  0  0  0  0  0  0  0
   46.2420   83.1650   52.4650 C   0  0  0  0  0  0  0  0  0  0  0  0
   46.9880   83.4010   51.7210 H   0  0  0  0  0  0  0  0  0  0  0  0
   46.4090   82.2880   53.4840 N   0  0  0  0  0  0  0  0  0  0  0  0
   45.2850   82.2460   54.2060 C   0  0  0  0  0  0  0  0  0  0  0  0
   44.9520   81.5090   55.3420 C   0  0  0  0  0  3  0  0  0  0  0  0
   44.5740   84.3790   51.9060 H   0  0  0  0  0  0  0  0  0  0  0  0
  2  1  1  0  0  0  0
  2  3  1  0  0  0  0
  3 12  1  0  0  0  0
  4  3  2  0  0  0  0
  4  9  1  0  0  0  0
  5  4  1  0  0  0  0
  6  8  1  0  0  0  0
  6  5  2  0  0  0  0
  7  6  1  0  0  0  0
  8  2  2  0  0  0  0
 10  5  1  0  0  0  0
 11 16  1  0  0  0  0
 12 13  1  0  0  0  0
 12 11  2  0  0  0  0
 13 14  2  0  0  0  0
 14 15  1  0  0  0  0
 15 19  1  0  0  0  0
 16 15  2  0  0  0  0
 17 11  1  0  0  0  0
 18 13  1  0  0  0  0
 19 22  1  0  0  0  0
 19 21  1  0  0  0  0
 20 19  1  0  0  0  0
 23  8  1  0  0  0  0
 25 23  1  0  0  0  0
 25 24  2  0  0  0  0
 26 25  1  0  0  0  0
 27 26  1  0  0  0  0
 28 26  2  0  0  0  0
 28 33  1  0  0  0  0
 29 28  1  0  0  0  0
 30 29  1  0  0  0  0
 30 32  2  0  0  0  0
 31 30  1  0  0  0  0
 32 33  1  0  0  0  0
 33 34  2  0  0  0  0
 34 24  1  0  0  0  0
 35 29  1  0  0  0  0
M  END
>  <minimizedAffinity>
-5.12603569

>  <minimizedRMSD>
0.194181219

$$$$
