
 OpenBabel03212520153D

 35 38  0  0  0  0  0  0  0  0999 V2000
   42.1790   84.0900   58.3470 Cl  0  0  0  0  0  0  0  0  0  0  0  0
   41.2460   82.6100   58.1750 C   0  0  0  0  0  0  0  0  0  0  0  0
   40.7060   81.9390   59.2560 C   0  0  0  0  0  0  0  0  0  0  0  0
   39.9980   80.7900   58.9520 C   0  0  0  0  0  0  0  0  0  0  0  0
   39.7940   80.2710   57.6990 C   0  0  0  0  0  0  0  0  0  0  0  0
   40.3450   80.9640   56.6640 C   0  0  0  0  0  0  0  0  0  0  0  0
   40.1630   80.4140   54.9970 Cl  0  0  0  0  0  0  0  0  0  0  0  0
   41.0650   82.1210   56.8960 C   0  0  0  0  0  0  0  0  0  0  0  0
   39.5740   80.2650   59.8070 H   0  0  0  0  0  0  0  0  0  0  0  0
   39.2320   79.3730   57.5550 H   0  0  0  0  0  0  0  0  0  0  0  0
   41.9750   82.1980   61.4440 C   0  0  0  0  0  0  0  0  0  0  0  0
   40.9040   82.4590   60.5680 C   0  0  0  0  0  0  0  0  0  0  0  0
   39.9100   83.3250   61.0180 C   0  0  0  0  0  0  0  0  0  0  0  0
   40.0290   83.8630   62.2610 N   0  0  0  0  0  0  0  0  0  0  0  0
   41.0690   83.5890   63.0690 C   0  0  0  0  0  0  0  0  0  0  0  0
   42.0440   82.7550   62.6580 N   0  0  0  0  0  0  0  0  0  0  0  0
   42.7200   81.5200   61.0470 H   0  0  0  0  0  0  0  0  0  0  0  0
   39.0400   83.6010   60.4360 H   0  0  0  0  0  0  0  0  0  0  0  0
   41.0430   84.2590   64.3900 C   0  0  0  0  0  0  0  0  0  0  0  0
   40.7500   85.5990   64.2930 F   0  0  0  0  0  0  0  0  0  0  0  0
   40.1050   83.6660   65.2140 F   0  0  0  0  0  0  0  0  0  0  0  0
   42.2960   84.2170   65.0010 F   0  0  0  0  0  0  0  0  0  0  0  0
   41.6130   82.8020   55.8030 O   0  0  0  0  0  0  0  0  0  0  0  0
   43.6200   83.9120   55.0260 C   0  0  0  0  0  3  0  0  0  0  0  0
   42.9370   82.7720   55.4680 C   0  0  0  0  0  0  0  0  0  0  0  0
   43.5770   81.5510   55.5880 C   0  0  0  0  0  0  0  0  0  0  0  0
   43.0500   80.6750   55.9290 H   0  0  0  0  0  0  0  0  0  0  0  0
   44.9120   81.4500   55.2670 C   0  0  0  0  0  0  0  0  0  0  0  0
   45.8000   80.4140   55.2810 N   0  0  0  0  0  0  0  0  0  0  0  0
   47.0080   80.8710   54.8640 C   0  0  0  0  0  0  0  0  0  0  0  0
   47.9210   80.3080   54.7590 H   0  0  0  0  0  0  0  0  0  0  0  0
   46.8710   82.1920   54.5900 N   0  0  0  0  0  0  0  0  0  0  0  0
   45.6070   82.5550   54.8310 C   0  0  0  0  0  0  0  0  0  0  0  0
   44.9670   83.7870   54.7080 C   0  0  0  0  0  3  0  0  0  0  0  0
   45.6010   79.4220   55.5630 H   0  0  0  0  0  0  0  0  0  0  0  0
  2  1  1  0  0  0  0
  2  3  1  0  0  0  0
  3 12  1  0  0  0  0
  4  3  2  0  0  0  0
  4  9  1  0  0  0  0
  5  4  1  0  0  0  0
  6  8  1  0  0  0  0
  6  5  2  0  0  0  0
  7  6  1  0  0  0  0
  8  2  2  0  0  0  0
 10  5  1  0  0  0  0
 11 16  1  0  0  0  0
 12 13  1  0  0  0  0
 12 11  2  0  0  0  0
 13 14  2  0  0  0  0
 14 15  1  0  0  0  0
 15 19  1  0  0  0  0
 16 15  2  0  0  0  0
 17 11  1  0  0  0  0
 18 13  1  0  0  0  0
 19 22  1  0  0  0  0
 19 21  1  0  0  0  0
 20 19  1  0  0  0  0
 23  8  1  0  0  0  0
 24 25  1  0  0  0  0
 25 26  2  0  0  0  0
 25 23  1  0  0  0  0
 26 27  1  0  0  0  0
 28 29  1  0  0  0  0
 28 26  1  0  0  0  0
 29 35  1  0  0  0  0
 30 29  1  0  0  0  0
 31 30  1  0  0  0  0
 32 33  1  0  0  0  0
 32 30  2  0  0  0  0
 33 28  2  0  0  0  0
 34 33  1  0  0  0  0
 34 24  2  0  0  0  0
M  END
>  <minimizedAffinity>
-5.09478855

>  <minimizedRMSD>
0.694969296

$$$$
