
 OpenBabel03212520153D

 35 38  0  0  0  0  0  0  0  0999 V2000
   42.2130   84.0670   58.3470 Cl  0  0  0  0  0  0  0  0  0  0  0  0
   41.2620   82.5990   58.1720 C   0  0  0  0  0  0  0  0  0  0  0  0
   40.7070   81.9370   59.2510 C   0  0  0  0  0  0  0  0  0  0  0  0
   39.9860   80.7970   58.9450 C   0  0  0  0  0  0  0  0  0  0  0  0
   39.7820   80.2790   57.6930 C   0  0  0  0  0  0  0  0  0  0  0  0
   40.3470   80.9620   56.6590 C   0  0  0  0  0  0  0  0  0  0  0  0
   40.1670   80.4110   54.9920 Cl  0  0  0  0  0  0  0  0  0  0  0  0
   41.0810   82.1110   56.8930 C   0  0  0  0  0  0  0  0  0  0  0  0
   39.5510   80.2790   59.7990 H   0  0  0  0  0  0  0  0  0  0  0  0
   39.2090   79.3870   57.5470 H   0  0  0  0  0  0  0  0  0  0  0  0
   41.9750   82.1930   61.4410 C   0  0  0  0  0  0  0  0  0  0  0  0
   40.9060   82.4570   60.5630 C   0  0  0  0  0  0  0  0  0  0  0  0
   39.9130   83.3250   61.0120 C   0  0  0  0  0  0  0  0  0  0  0  0
   40.0320   83.8630   62.2560 N   0  0  0  0  0  0  0  0  0  0  0  0
   41.0700   83.5870   63.0640 C   0  0  0  0  0  0  0  0  0  0  0  0
   42.0440   82.7500   62.6540 N   0  0  0  0  0  0  0  0  0  0  0  0
   42.7180   81.5130   61.0450 H   0  0  0  0  0  0  0  0  0  0  0  0
   39.0440   83.6030   60.4300 H   0  0  0  0  0  0  0  0  0  0  0  0
   41.0440   84.2570   64.3850 C   0  0  0  0  0  0  0  0  0  0  0  0
   40.7510   85.5970   64.2880 F   0  0  0  0  0  0  0  0  0  0  0  0
   40.1070   83.6630   65.2100 F   0  0  0  0  0  0  0  0  0  0  0  0
   42.2970   84.2160   64.9960 F   0  0  0  0  0  0  0  0  0  0  0  0
   41.6430   82.7820   55.8010 O   0  0  0  0  0  0  0  0  0  0  0  0
   44.0090   83.2970   55.8720 C   0  0  0  0  0  3  0  0  0  0  0  0
   42.9200   82.5840   55.3560 C   0  0  0  0  0  0  0  0  0  0  0  0
   43.0870   81.6360   54.3620 C   0  0  0  0  0  0  0  0  0  0  0  0
   42.2470   81.0880   53.9650 H   0  0  0  0  0  0  0  0  0  0  0  0
   44.3470   81.3870   53.8670 C   0  0  0  0  0  0  0  0  0  0  0  0
   44.8230   80.5370   52.9120 N   0  0  0  0  0  0  0  0  0  0  0  0
   46.1680   80.6980   52.8190 C   0  0  0  0  0  0  0  0  0  0  0  0
   46.8470   80.1780   52.1610 H   0  0  0  0  0  0  0  0  0  0  0  0
   46.5270   81.6490   53.7150 N   0  0  0  0  0  0  0  0  0  0  0  0
   45.4350   82.0730   54.3560 C   0  0  0  0  0  0  0  0  0  0  0  0
   45.2710   83.0290   55.3590 C   0  0  0  0  0  3  0  0  0  0  0  0
   44.2610   79.8630   52.3350 H   0  0  0  0  0  0  0  0  0  0  0  0
  2  1  1  0  0  0  0
  2  3  1  0  0  0  0
  3 12  1  0  0  0  0
  4  3  2  0  0  0  0
  4  9  1  0  0  0  0
  5  4  1  0  0  0  0
  6  8  1  0  0  0  0
  6  5  2  0  0  0  0
  7  6  1  0  0  0  0
  8  2  2  0  0  0  0
 10  5  1  0  0  0  0
 11 16  1  0  0  0  0
 12 13  1  0  0  0  0
 12 11  2  0  0  0  0
 13 14  2  0  0  0  0
 14 15  1  0  0  0  0
 15 19  1  0  0  0  0
 16 15  2  0  0  0  0
 17 11  1  0  0  0  0
 18 13  1  0  0  0  0
 19 22  1  0  0  0  0
 19 21  1  0  0  0  0
 20 19  1  0  0  0  0
 23  8  1  0  0  0  0
 25 23  1  0  0  0  0
 25 24  2  0  0  0  0
 26 25  1  0  0  0  0
 27 26  1  0  0  0  0
 28 33  1  0  0  0  0
 28 26  2  0  0  0  0
 29 28  1  0  0  0  0
 30 29  1  0  0  0  0
 30 32  2  0  0  0  0
 31 30  1  0  0  0  0
 32 33  1  0  0  0  0
 33 34  2  0  0  0  0
 34 24  1  0  0  0  0
 35 29  1  0  0  0  0
M  END
>  <minimizedAffinity>
-5.07718754

>  <minimizedRMSD>
0.174252227

$$$$
