
 OpenBabel03212520153D

 35 38  0  0  0  0  0  0  0  0999 V2000
   41.8860   84.0190   58.2520 Cl  0  0  0  0  0  0  0  0  0  0  0  0
   41.0540   82.4740   58.1540 C   0  0  0  0  0  0  0  0  0  0  0  0
   40.6210   81.7870   59.2740 C   0  0  0  0  0  0  0  0  0  0  0  0
   39.9830   80.5860   59.0270 C   0  0  0  0  0  0  0  0  0  0  0  0
   39.7500   80.0290   57.7960 C   0  0  0  0  0  0  0  0  0  0  0  0
   40.1930   80.7390   56.7210 C   0  0  0  0  0  0  0  0  0  0  0  0
   39.9620   80.1440   55.0750 Cl  0  0  0  0  0  0  0  0  0  0  0  0
   40.8400   81.9480   56.8950 C   0  0  0  0  0  0  0  0  0  0  0  0
   39.6430   80.0490   59.9120 H   0  0  0  0  0  0  0  0  0  0  0  0
   39.2470   79.0910   57.6970 H   0  0  0  0  0  0  0  0  0  0  0  0
   41.9870   82.1840   61.3820 C   0  0  0  0  0  0  0  0  0  0  0  0
   40.8520   82.3460   60.5640 C   0  0  0  0  0  0  0  0  0  0  0  0
   39.8200   83.1420   61.0580 C   0  0  0  0  0  0  0  0  0  0  0  0
   39.9670   83.7100   62.2850 N   0  0  0  0  0  0  0  0  0  0  0  0
   41.0680   83.5320   63.0350 C   0  0  0  0  0  0  0  0  0  0  0  0
   42.0800   82.7670   62.5810 N   0  0  0  0  0  0  0  0  0  0  0  0
   42.7580   81.5570   60.9530 H   0  0  0  0  0  0  0  0  0  0  0  0
   38.9000   83.3390   60.5230 H   0  0  0  0  0  0  0  0  0  0  0  0
   41.0630   84.2230   64.3460 C   0  0  0  0  0  0  0  0  0  0  0  0
   40.7740   85.5630   64.2320 F   0  0  0  0  0  0  0  0  0  0  0  0
   40.1360   83.6470   65.1930 F   0  0  0  0  0  0  0  0  0  0  0  0
   42.3250   84.1860   64.9390 F   0  0  0  0  0  0  0  0  0  0  0  0
   41.2780   82.6440   55.7630 O   0  0  0  0  0  0  0  0  0  0  0  0
   42.4610   82.4140   53.6620 C   0  0  0  0  0  3  0  0  0  0  0  0
   42.4050   82.3280   55.0580 C   0  0  0  0  0  0  0  0  0  0  0  0
   43.4980   81.9130   55.7980 C   0  0  0  0  0  0  0  0  0  0  0  0
   43.4530   81.8460   56.8730 H   0  0  0  0  0  0  0  0  0  0  0  0
   44.6670   81.5780   55.1510 C   0  0  0  0  0  0  0  0  0  0  0  0
   45.8850   81.1450   55.5890 N   0  0  0  0  0  0  0  0  0  0  0  0
   46.6920   80.9610   54.5130 C   0  0  0  0  0  0  0  0  0  0  0  0
   47.7170   80.6240   54.5130 H   0  0  0  0  0  0  0  0  0  0  0  0
   45.9760   81.2790   53.4070 N   0  0  0  0  0  0  0  0  0  0  0  0
   44.7490   81.6540   53.7800 C   0  0  0  0  0  0  0  0  0  0  0  0
   43.6490   82.0720   53.0300 C   0  0  0  0  0  3  0  0  0  0  0  0
   46.1690   80.9760   56.5860 H   0  0  0  0  0  0  0  0  0  0  0  0
  2  1  1  0  0  0  0
  2  3  1  0  0  0  0
  3 12  1  0  0  0  0
  4  3  2  0  0  0  0
  4  9  1  0  0  0  0
  5  4  1  0  0  0  0
  6  8  1  0  0  0  0
  6  5  2  0  0  0  0
  7  6  1  0  0  0  0
  8  2  2  0  0  0  0
 10  5  1  0  0  0  0
 11 16  1  0  0  0  0
 12 13  1  0  0  0  0
 12 11  2  0  0  0  0
 13 14  2  0  0  0  0
 14 15  1  0  0  0  0
 15 19  1  0  0  0  0
 16 15  2  0  0  0  0
 17 11  1  0  0  0  0
 18 13  1  0  0  0  0
 19 22  1  0  0  0  0
 19 21  1  0  0  0  0
 20 19  1  0  0  0  0
 23  8  1  0  0  0  0
 24 25  1  0  0  0  0
 25 23  1  0  0  0  0
 25 26  2  0  0  0  0
 26 27  1  0  0  0  0
 28 29  1  0  0  0  0
 28 26  1  0  0  0  0
 29 35  1  0  0  0  0
 30 29  1  0  0  0  0
 31 30  1  0  0  0  0
 32 33  1  0  0  0  0
 32 30  2  0  0  0  0
 33 28  2  0  0  0  0
 34 24  2  0  0  0  0
 34 33  1  0  0  0  0
M  END
>  <minimizedAffinity>
-5.0889101

>  <minimizedRMSD>
0.79471916

$$$$
