
 OpenBabel03212520153D

 35 38  0  0  0  0  0  0  0  0999 V2000
   42.1110   84.0390   58.3560 Cl  0  0  0  0  0  0  0  0  0  0  0  0
   41.1960   82.5450   58.2100 C   0  0  0  0  0  0  0  0  0  0  0  0
   40.6780   81.8780   59.3050 C   0  0  0  0  0  0  0  0  0  0  0  0
   39.9820   80.7170   59.0210 C   0  0  0  0  0  0  0  0  0  0  0  0
   39.7690   80.1830   57.7760 C   0  0  0  0  0  0  0  0  0  0  0  0
   40.2970   80.8720   56.7270 C   0  0  0  0  0  0  0  0  0  0  0  0
   40.1010   80.3030   55.0680 Cl  0  0  0  0  0  0  0  0  0  0  0  0
   41.0040   82.0420   56.9380 C   0  0  0  0  0  0  0  0  0  0  0  0
   39.5760   80.1950   59.8860 H   0  0  0  0  0  0  0  0  0  0  0  0
   39.2170   79.2760   57.6480 H   0  0  0  0  0  0  0  0  0  0  0  0
   41.9750   82.1810   61.4710 C   0  0  0  0  0  0  0  0  0  0  0  0
   40.8870   82.4130   60.6090 C   0  0  0  0  0  0  0  0  0  0  0  0
   39.8830   83.2650   61.0660 C   0  0  0  0  0  0  0  0  0  0  0  0
   40.0100   83.8160   62.3030 N   0  0  0  0  0  0  0  0  0  0  0  0
   41.0670   83.5700   63.0970 C   0  0  0  0  0  0  0  0  0  0  0  0
   42.0520   82.7500   62.6780 N   0  0  0  0  0  0  0  0  0  0  0  0
   42.7270   81.5130   61.0690 H   0  0  0  0  0  0  0  0  0  0  0  0
   38.9990   83.5190   60.4960 H   0  0  0  0  0  0  0  0  0  0  0  0
   41.0480   84.2500   64.4120 C   0  0  0  0  0  0  0  0  0  0  0  0
   40.7520   85.5900   64.3050 F   0  0  0  0  0  0  0  0  0  0  0  0
   40.1160   83.6630   65.2470 F   0  0  0  0  0  0  0  0  0  0  0  0
   42.3050   84.2160   65.0160 F   0  0  0  0  0  0  0  0  0  0  0  0
   41.5290   82.7180   55.8320 O   0  0  0  0  0  0  0  0  0  0  0  0
   43.7840   81.8390   55.9120 C   0  0  0  0  0  3  0  0  0  0  0  0
   42.6990   82.3810   55.2120 C   0  0  0  0  0  0  0  0  0  0  0  0
   42.7600   82.6020   53.8480 C   0  0  0  0  0  0  0  0  0  0  0  0
   41.9250   83.0190   53.3110 H   0  0  0  0  0  0  0  0  0  0  0  0
   43.9110   82.2830   53.1610 C   0  0  0  0  0  0  0  0  0  0  0  0
   44.2700   82.3810   51.8480 N   0  0  0  0  0  0  0  0  0  0  0  0
   45.5400   81.9190   51.7100 C   0  0  0  0  0  0  0  0  0  0  0  0
   46.1200   81.8590   50.8040 H   0  0  0  0  0  0  0  0  0  0  0  0
   45.9680   81.5340   52.9370 N   0  0  0  0  0  0  0  0  0  0  0  0
   44.9920   81.7500   53.8230 C   0  0  0  0  0  0  0  0  0  0  0  0
   44.9350   81.5250   55.1990 C   0  0  0  0  0  3  0  0  0  0  0  0
   43.6800   82.7490   51.0600 H   0  0  0  0  0  0  0  0  0  0  0  0
  2  1  1  0  0  0  0
  2  3  1  0  0  0  0
  3 12  1  0  0  0  0
  4  3  2  0  0  0  0
  4  9  1  0  0  0  0
  5  4  1  0  0  0  0
  6  8  1  0  0  0  0
  6  5  2  0  0  0  0
  7  6  1  0  0  0  0
  8  2  2  0  0  0  0
 10  5  1  0  0  0  0
 11 16  1  0  0  0  0
 12 13  1  0  0  0  0
 12 11  2  0  0  0  0
 13 14  2  0  0  0  0
 14 15  1  0  0  0  0
 15 19  1  0  0  0  0
 16 15  2  0  0  0  0
 17 11  1  0  0  0  0
 18 13  1  0  0  0  0
 19 22  1  0  0  0  0
 19 21  1  0  0  0  0
 20 19  1  0  0  0  0
 23  8  1  0  0  0  0
 25 23  1  0  0  0  0
 25 24  1  0  0  0  0
 26 25  2  0  0  0  0
 27 26  1  0  0  0  0
 28 33  2  0  0  0  0
 28 26  1  0  0  0  0
 29 28  1  0  0  0  0
 30 29  1  0  0  0  0
 30 32  2  0  0  0  0
 31 30  1  0  0  0  0
 32 33  1  0  0  0  0
 33 34  1  0  0  0  0
 34 24  2  0  0  0  0
 35 29  1  0  0  0  0
M  END
>  <minimizedAffinity>
-5.13793468

>  <minimizedRMSD>
0.458005548

$$$$
