
 OpenBabel03212520153D

 35 38  0  0  0  0  0  0  0  0999 V2000
   41.5230   83.8210   58.2710 Cl  0  0  0  0  0  0  0  0  0  0  0  0
   40.9340   82.1650   58.2930 C   0  0  0  0  0  0  0  0  0  0  0  0
   40.6790   81.4800   59.4660 C   0  0  0  0  0  0  0  0  0  0  0  0
   40.2200   80.1840   59.3120 C   0  0  0  0  0  0  0  0  0  0  0  0
   40.0020   79.5370   58.1230 C   0  0  0  0  0  0  0  0  0  0  0  0
   40.2670   80.2490   56.9930 C   0  0  0  0  0  0  0  0  0  0  0  0
   40.0330   79.5440   55.3920 Cl  0  0  0  0  0  0  0  0  0  0  0  0
   40.7290   81.5500   57.0730 C   0  0  0  0  0  0  0  0  0  0  0  0
   40.0200   79.6490   60.2390 H   0  0  0  0  0  0  0  0  0  0  0  0
   39.6440   78.5290   58.0970 H   0  0  0  0  0  0  0  0  0  0  0  0
   42.0870   82.1760   61.4660 C   0  0  0  0  0  0  0  0  0  0  0  0
   40.8970   82.1320   60.7140 C   0  0  0  0  0  0  0  0  0  0  0  0
   39.7900   82.7980   61.2360 C   0  0  0  0  0  0  0  0  0  0  0  0
   39.9200   83.4440   62.4250 N   0  0  0  0  0  0  0  0  0  0  0  0
   41.0750   83.4640   63.1130 C   0  0  0  0  0  0  0  0  0  0  0  0
   42.1610   82.8280   62.6310 N   0  0  0  0  0  0  0  0  0  0  0  0
   42.9160   81.6440   61.0180 H   0  0  0  0  0  0  0  0  0  0  0  0
   38.8230   82.8340   60.7510 H   0  0  0  0  0  0  0  0  0  0  0  0
   41.0430   84.2140   64.3900 C   0  0  0  0  0  0  0  0  0  0  0  0
   40.7640   85.5490   64.2070 F   0  0  0  0  0  0  0  0  0  0  0  0
   40.0920   83.6820   65.2400 F   0  0  0  0  0  0  0  0  0  0  0  0
   42.2890   84.1990   65.0150 F   0  0  0  0  0  0  0  0  0  0  0  0
   40.9870   82.2460   55.8870 O   0  0  0  0  0  0  0  0  0  0  0  0
   43.2710   81.5480   55.4810 C   0  0  0  0  0  3  0  0  0  0  0  0
   42.2400   82.4930   55.4010 C   0  0  0  0  0  0  0  0  0  0  0  0
   42.4440   83.7330   54.8250 C   0  0  0  0  0  0  0  0  0  0  0  0
   41.6500   84.4590   54.7640 H   0  0  0  0  0  0  0  0  0  0  0  0
   43.6840   84.0490   54.3150 C   0  0  0  0  0  0  0  0  0  0  0  0
   44.1850   85.1590   53.7000 N   0  0  0  0  0  0  0  0  0  0  0  0
   45.4890   84.9350   53.3950 C   0  0  0  0  0  0  0  0  0  0  0  0
   46.1730   85.6100   52.9060 H   0  0  0  0  0  0  0  0  0  0  0  0
   45.7990   83.6860   53.8210 N   0  0  0  0  0  0  0  0  0  0  0  0
   44.7140   83.1390   54.3790 C   0  0  0  0  0  0  0  0  0  0  0  0
   44.5130   81.8870   54.9620 C   0  0  0  0  0  3  0  0  0  0  0  0
   43.6670   86.0480   53.4880 H   0  0  0  0  0  0  0  0  0  0  0  0
  1  2  1  0  0  0  0
  2  3  1  0  0  0  0
  3 12  1  0  0  0  0
  4  3  2  0  0  0  0
  4  9  1  0  0  0  0
  5  4  1  0  0  0  0
  6  8  1  0  0  0  0
  6  5  2  0  0  0  0
  7  6  1  0  0  0  0
  8  2  2  0  0  0  0
 10  5  1  0  0  0  0
 11 16  1  0  0  0  0
 12 13  1  0  0  0  0
 12 11  2  0  0  0  0
 13 14  2  0  0  0  0
 14 15  1  0  0  0  0
 15 19  1  0  0  0  0
 16 15  2  0  0  0  0
 17 11  1  0  0  0  0
 18 13  1  0  0  0  0
 19 22  1  0  0  0  0
 19 21  1  0  0  0  0
 20 19  1  0  0  0  0
 23  8  1  0  0  0  0
 25 24  1  0  0  0  0
 25 23  1  0  0  0  0
 26 25  2  0  0  0  0
 27 26  1  0  0  0  0
 28 33  2  0  0  0  0
 28 26  1  0  0  0  0
 29 28  1  0  0  0  0
 30 29  1  0  0  0  0
 30 32  2  0  0  0  0
 31 30  1  0  0  0  0
 32 33  1  0  0  0  0
 33 34  1  0  0  0  0
 34 24  2  0  0  0  0
 35 29  1  0  0  0  0
M  END
>  <minimizedAffinity>
-5.48574305

>  <minimizedRMSD>
1.31076658

$$$$
