
 OpenBabel03212520153D

 35 38  0  0  0  0  0  0  0  0999 V2000
   42.0890   84.0470   58.3570 Cl  0  0  0  0  0  0  0  0  0  0  0  0
   41.1810   82.5480   58.2150 C   0  0  0  0  0  0  0  0  0  0  0  0
   40.6720   81.8780   59.3120 C   0  0  0  0  0  0  0  0  0  0  0  0
   39.9810   80.7130   59.0320 C   0  0  0  0  0  0  0  0  0  0  0  0
   39.7650   80.1780   57.7880 C   0  0  0  0  0  0  0  0  0  0  0  0
   40.2850   80.8700   56.7360 C   0  0  0  0  0  0  0  0  0  0  0  0
   40.0850   80.2990   55.0780 Cl  0  0  0  0  0  0  0  0  0  0  0  0
   40.9870   82.0430   56.9440 C   0  0  0  0  0  0  0  0  0  0  0  0
   39.5810   80.1900   59.8990 H   0  0  0  0  0  0  0  0  0  0  0  0
   39.2180   79.2680   57.6620 H   0  0  0  0  0  0  0  0  0  0  0  0
   41.9810   82.1970   61.4680 C   0  0  0  0  0  0  0  0  0  0  0  0
   40.8830   82.4150   60.6150 C   0  0  0  0  0  0  0  0  0  0  0  0
   39.8710   83.2520   61.0810 C   0  0  0  0  0  0  0  0  0  0  0  0
   40.0010   83.8040   62.3170 N   0  0  0  0  0  0  0  0  0  0  0  0
   41.0670   83.5710   63.1030 C   0  0  0  0  0  0  0  0  0  0  0  0
   42.0590   82.7660   62.6760 N   0  0  0  0  0  0  0  0  0  0  0  0
   42.7390   81.5400   61.0600 H   0  0  0  0  0  0  0  0  0  0  0  0
   38.9790   83.4950   60.5180 H   0  0  0  0  0  0  0  0  0  0  0  0
   41.0480   84.2510   64.4190 C   0  0  0  0  0  0  0  0  0  0  0  0
   40.7510   85.5890   64.3140 F   0  0  0  0  0  0  0  0  0  0  0  0
   40.1190   83.6610   65.2550 F   0  0  0  0  0  0  0  0  0  0  0  0
   42.3060   84.2170   65.0210 F   0  0  0  0  0  0  0  0  0  0  0  0
   41.5030   82.7220   55.8350 O   0  0  0  0  0  0  0  0  0  0  0  0
   42.7010   82.3980   53.7550 C   0  0  0  0  0  3  0  0  0  0  0  0
   42.6200   82.3340   55.1510 C   0  0  0  0  0  0  0  0  0  0  0  0
   43.6790   81.8670   55.9120 C   0  0  0  0  0  0  0  0  0  0  0  0
   43.6150   81.8180   56.9870 H   0  0  0  0  0  0  0  0  0  0  0  0
   44.8350   81.4600   55.2860 C   0  0  0  0  0  0  0  0  0  0  0  0
   46.0210   80.9650   55.7470 N   0  0  0  0  0  0  0  0  0  0  0  0
   46.8310   80.7220   54.6860 C   0  0  0  0  0  0  0  0  0  0  0  0
   47.8350   80.3280   54.7040 H   0  0  0  0  0  0  0  0  0  0  0  0
   46.1500   81.0650   53.5660 N   0  0  0  0  0  0  0  0  0  0  0  0
   44.9400   81.5140   53.9160 C   0  0  0  0  0  0  0  0  0  0  0  0
   43.8760   81.9820   53.1450 C   0  0  0  0  0  3  0  0  0  0  0  0
   46.2810   80.7940   56.7500 H   0  0  0  0  0  0  0  0  0  0  0  0
  2  1  1  0  0  0  0
  2  3  1  0  0  0  0
  3 12  1  0  0  0  0
  4  3  2  0  0  0  0
  4  9  1  0  0  0  0
  5  4  1  0  0  0  0
  6  8  1  0  0  0  0
  6  5  2  0  0  0  0
  7  6  1  0  0  0  0
  8  2  2  0  0  0  0
 10  5  1  0  0  0  0
 11 16  1  0  0  0  0
 12 13  1  0  0  0  0
 12 11  2  0  0  0  0
 13 14  2  0  0  0  0
 14 15  1  0  0  0  0
 15 19  1  0  0  0  0
 16 15  2  0  0  0  0
 17 11  1  0  0  0  0
 18 13  1  0  0  0  0
 19 22  1  0  0  0  0
 19 21  1  0  0  0  0
 20 19  1  0  0  0  0
 23  8  1  0  0  0  0
 24 25  1  0  0  0  0
 25 23  1  0  0  0  0
 25 26  2  0  0  0  0
 26 27  1  0  0  0  0
 28 29  1  0  0  0  0
 28 26  1  0  0  0  0
 29 35  1  0  0  0  0
 30 31  1  0  0  0  0
 30 29  1  0  0  0  0
 32 33  1  0  0  0  0
 32 30  2  0  0  0  0
 33 28  2  0  0  0  0
 34 24  2  0  0  0  0
 34 33  1  0  0  0  0
M  END
>  <minimizedAffinity>
-5.07575178

>  <minimizedRMSD>
0.45720908

$$$$
