
 OpenBabel03212520153D

 35 38  0  0  0  0  0  0  0  0999 V2000
   41.2630   83.6280   58.2710 Cl  0  0  0  0  0  0  0  0  0  0  0  0
   40.8310   81.9270   58.3810 C   0  0  0  0  0  0  0  0  0  0  0  0
   40.6930   81.2690   59.5890 C   0  0  0  0  0  0  0  0  0  0  0  0
   40.3500   79.9330   59.5040 C   0  0  0  0  0  0  0  0  0  0  0  0
   40.1410   79.2210   58.3510 C   0  0  0  0  0  0  0  0  0  0  0  0
   40.2890   79.9080   57.1840 C   0  0  0  0  0  0  0  0  0  0  0  0
   40.0510   79.1200   55.6230 Cl  0  0  0  0  0  0  0  0  0  0  0  0
   40.6310   81.2480   57.1950 C   0  0  0  0  0  0  0  0  0  0  0  0
   40.2410   79.4190   60.4580 H   0  0  0  0  0  0  0  0  0  0  0  0
   39.8780   78.1850   58.3770 H   0  0  0  0  0  0  0  0  0  0  0  0
   42.1320   82.2730   61.4300 C   0  0  0  0  0  0  0  0  0  0  0  0
   40.9050   81.9880   60.8010 C   0  0  0  0  0  0  0  0  0  0  0  0
   39.7480   82.4550   61.4220 C   0  0  0  0  0  0  0  0  0  0  0  0
   39.8680   83.1510   62.5840 N   0  0  0  0  0  0  0  0  0  0  0  0
   41.0600   83.4040   63.1530 C   0  0  0  0  0  0  0  0  0  0  0  0
   42.1940   82.9640   62.5730 N   0  0  0  0  0  0  0  0  0  0  0  0
   42.9990   81.8890   60.9080 H   0  0  0  0  0  0  0  0  0  0  0  0
   38.7490   82.2990   61.0350 H   0  0  0  0  0  0  0  0  0  0  0  0
   41.0110   84.1740   64.4170 C   0  0  0  0  0  0  0  0  0  0  0  0
   40.6970   85.4980   64.2140 F   0  0  0  0  0  0  0  0  0  0  0  0
   40.0770   83.6310   65.2790 F   0  0  0  0  0  0  0  0  0  0  0  0
   42.2590   84.2030   65.0390 F   0  0  0  0  0  0  0  0  0  0  0  0
   40.7710   81.9150   55.9730 O   0  0  0  0  0  0  0  0  0  0  0  0
   43.0540   81.3470   55.3990 C   0  0  0  0  0  3  0  0  0  0  0  0
   41.9740   82.2380   55.4110 C   0  0  0  0  0  0  0  0  0  0  0  0
   42.0730   83.4980   54.8490 C   0  0  0  0  0  0  0  0  0  0  0  0
   41.2410   84.1810   54.8600 H   0  0  0  0  0  0  0  0  0  0  0  0
   43.2580   83.8880   54.2650 C   0  0  0  0  0  0  0  0  0  0  0  0
   43.6580   85.0350   53.6440 N   0  0  0  0  0  0  0  0  0  0  0  0
   44.9480   84.8860   53.2480 C   0  0  0  0  0  0  0  0  0  0  0  0
   45.5620   85.6060   52.7280 H   0  0  0  0  0  0  0  0  0  0  0  0
   45.3490   83.6470   53.6230 N   0  0  0  0  0  0  0  0  0  0  0  0
   44.3350   83.0340   54.2400 C   0  0  0  0  0  0  0  0  0  0  0  0
   44.2390   81.7610   54.8060 C   0  0  0  0  0  3  0  0  0  0  0  0
   43.0810   85.8990   53.4880 H   0  0  0  0  0  0  0  0  0  0  0  0
  1  2  1  0  0  0  0
  2  3  1  0  0  0  0
  3 12  1  0  0  0  0
  4  3  2  0  0  0  0
  4  9  1  0  0  0  0
  5 10  1  0  0  0  0
  5  4  1  0  0  0  0
  6  8  1  0  0  0  0
  6  5  2  0  0  0  0
  7  6  1  0  0  0  0
  8  2  2  0  0  0  0
 11 16  1  0  0  0  0
 12 13  1  0  0  0  0
 12 11  2  0  0  0  0
 13 14  2  0  0  0  0
 14 15  1  0  0  0  0
 15 19  1  0  0  0  0
 16 15  2  0  0  0  0
 17 11  1  0  0  0  0
 18 13  1  0  0  0  0
 19 22  1  0  0  0  0
 19 21  1  0  0  0  0
 20 19  1  0  0  0  0
 23  8  1  0  0  0  0
 24 25  1  0  0  0  0
 25 23  1  0  0  0  0
 26 27  1  0  0  0  0
 26 25  2  0  0  0  0
 28 26  1  0  0  0  0
 29 28  1  0  0  0  0
 30 32  2  0  0  0  0
 30 29  1  0  0  0  0
 31 30  1  0  0  0  0
 32 33  1  0  0  0  0
 33 28  2  0  0  0  0
 33 34  1  0  0  0  0
 34 24  2  0  0  0  0
 35 29  1  0  0  0  0
M  END
>  <minimizedAffinity>
-5.69964314

>  <minimizedRMSD>
1.23826051

$$$$
