
 OpenBabel03212520153D

 35 38  0  0  0  0  0  0  0  0999 V2000
   42.1720   84.0860   58.3510 Cl  0  0  0  0  0  0  0  0  0  0  0  0
   41.2400   82.6050   58.1800 C   0  0  0  0  0  0  0  0  0  0  0  0
   40.7010   81.9340   59.2630 C   0  0  0  0  0  0  0  0  0  0  0  0
   39.9950   80.7850   58.9610 C   0  0  0  0  0  0  0  0  0  0  0  0
   39.7900   80.2650   57.7080 C   0  0  0  0  0  0  0  0  0  0  0  0
   40.3390   80.9570   56.6720 C   0  0  0  0  0  0  0  0  0  0  0  0
   40.1560   80.4050   55.0060 Cl  0  0  0  0  0  0  0  0  0  0  0  0
   41.0580   82.1150   56.9020 C   0  0  0  0  0  0  0  0  0  0  0  0
   39.5710   80.2600   59.8160 H   0  0  0  0  0  0  0  0  0  0  0  0
   39.2280   79.3660   57.5650 H   0  0  0  0  0  0  0  0  0  0  0  0
   41.9720   82.1960   61.4500 C   0  0  0  0  0  0  0  0  0  0  0  0
   40.9010   82.4560   60.5740 C   0  0  0  0  0  0  0  0  0  0  0  0
   39.9070   83.3220   61.0240 C   0  0  0  0  0  0  0  0  0  0  0  0
   40.0270   83.8610   62.2670 N   0  0  0  0  0  0  0  0  0  0  0  0
   41.0670   83.5890   63.0740 C   0  0  0  0  0  0  0  0  0  0  0  0
   42.0420   82.7540   62.6630 N   0  0  0  0  0  0  0  0  0  0  0  0
   42.7170   81.5180   61.0530 H   0  0  0  0  0  0  0  0  0  0  0  0
   39.0360   83.5980   60.4430 H   0  0  0  0  0  0  0  0  0  0  0  0
   41.0410   84.2600   64.3940 C   0  0  0  0  0  0  0  0  0  0  0  0
   40.7490   85.6000   64.2960 F   0  0  0  0  0  0  0  0  0  0  0  0
   40.1030   83.6680   65.2190 F   0  0  0  0  0  0  0  0  0  0  0  0
   42.2940   84.2180   65.0050 F   0  0  0  0  0  0  0  0  0  0  0  0
   41.6050   82.7950   55.8080 O   0  0  0  0  0  0  0  0  0  0  0  0
   43.6100   83.9050   55.0280 C   0  0  0  0  0  3  0  0  0  0  0  0
   42.9280   82.7660   55.4720 C   0  0  0  0  0  0  0  0  0  0  0  0
   43.5690   81.5450   55.5920 C   0  0  0  0  0  0  0  0  0  0  0  0
   43.0430   80.6690   55.9330 H   0  0  0  0  0  0  0  0  0  0  0  0
   44.9040   81.4450   55.2700 C   0  0  0  0  0  0  0  0  0  0  0  0
   45.7910   80.4090   55.2830 N   0  0  0  0  0  0  0  0  0  0  0  0
   46.9980   80.8670   54.8630 C   0  0  0  0  0  0  0  0  0  0  0  0
   47.9120   80.3040   54.7590 H   0  0  0  0  0  0  0  0  0  0  0  0
   46.8610   82.1870   54.5900 N   0  0  0  0  0  0  0  0  0  0  0  0
   45.5980   82.5490   54.8320 C   0  0  0  0  0  0  0  0  0  0  0  0
   44.9560   83.7820   54.7090 C   0  0  0  0  0  3  0  0  0  0  0  0
   45.5940   79.4170   55.5670 H   0  0  0  0  0  0  0  0  0  0  0  0
  2  1  1  0  0  0  0
  2  3  1  0  0  0  0
  3 12  1  0  0  0  0
  4  3  2  0  0  0  0
  4  9  1  0  0  0  0
  5  4  1  0  0  0  0
  6  8  1  0  0  0  0
  6  5  2  0  0  0  0
  7  6  1  0  0  0  0
  8  2  2  0  0  0  0
 10  5  1  0  0  0  0
 11 16  1  0  0  0  0
 12 13  1  0  0  0  0
 12 11  2  0  0  0  0
 13 14  2  0  0  0  0
 14 15  1  0  0  0  0
 15 19  1  0  0  0  0
 16 15  2  0  0  0  0
 17 11  1  0  0  0  0
 18 13  1  0  0  0  0
 19 22  1  0  0  0  0
 19 21  1  0  0  0  0
 20 19  1  0  0  0  0
 23  8  1  0  0  0  0
 24 25  1  0  0  0  0
 25 26  2  0  0  0  0
 25 23  1  0  0  0  0
 26 27  1  0  0  0  0
 28 29  1  0  0  0  0
 28 26  1  0  0  0  0
 29 35  1  0  0  0  0
 30 29  1  0  0  0  0
 31 30  1  0  0  0  0
 32 33  1  0  0  0  0
 32 30  2  0  0  0  0
 33 28  2  0  0  0  0
 34 33  1  0  0  0  0
 34 24  2  0  0  0  0
M  END
>  <minimizedAffinity>
-5.09000731

>  <minimizedRMSD>
0.496063143

$$$$
