
 OpenBabel03212520163D

 35 38  0  0  0  0  0  0  0  0999 V2000
   39.8030   73.0790   61.6490 Cl  0  0  0  0  0  0  0  0  0  0  0  0
   41.3270   73.4020   60.8340 C   0  0  0  0  0  0  0  0  0  0  0  0
   42.3560   72.4810   60.7850 C   0  0  0  0  0  0  0  0  0  0  0  0
   43.4890   72.8880   60.1050 C   0  0  0  0  0  0  0  0  0  0  0  0
   43.6750   74.1000   59.4920 C   0  0  0  0  0  0  0  0  0  0  0  0
   42.6360   74.9770   59.5660 C   0  0  0  0  0  0  0  0  0  0  0  0
   42.7340   76.5750   58.8220 Cl  0  0  0  0  0  0  0  0  0  0  0  0
   41.4730   74.6360   60.2300 C   0  0  0  0  0  0  0  0  0  0  0  0
   44.2970   72.1580   60.0680 H   0  0  0  0  0  0  0  0  0  0  0  0
   44.5890   74.3330   58.9860 H   0  0  0  0  0  0  0  0  0  0  0  0
   42.1730   70.9330   62.7950 C   0  0  0  0  0  0  0  0  0  0  0  0
   42.1860   71.2140   61.4150 C   0  0  0  0  0  0  0  0  0  0  0  0
   42.0150   70.1380   60.5460 C   0  0  0  0  0  0  0  0  0  0  0  0
   41.8470   68.8960   61.0720 N   0  0  0  0  0  0  0  0  0  0  0  0
   41.8400   68.6690   62.3970 C   0  0  0  0  0  0  0  0  0  0  0  0
   42.0030   69.6910   63.2600 N   0  0  0  0  0  0  0  0  0  0  0  0
   42.3100   71.8020   63.4270 H   0  0  0  0  0  0  0  0  0  0  0  0
   42.0070   70.2280   59.4670 H   0  0  0  0  0  0  0  0  0  0  0  0
   41.6450   67.2570   62.8000 C   0  0  0  0  0  0  0  0  0  0  0  0
   41.8910   66.3790   61.7710 F   0  0  0  0  0  0  0  0  0  0  0  0
   42.4780   66.9360   63.8560 F   0  0  0  0  0  0  0  0  0  0  0  0
   40.3200   67.0130   63.1600 F   0  0  0  0  0  0  0  0  0  0  0  0
   40.4300   75.5670   60.2810 O   0  0  0  0  0  0  0  0  0  0  0  0
   39.5100   77.0880   58.6360 C   0  0  0  0  0  3  0  0  0  0  0  0
   39.5830   75.8270   59.2400 C   0  0  0  0  0  0  0  0  0  0  0  0
   38.7950   74.7760   58.8090 C   0  0  0  0  0  0  0  0  0  0  0  0
   38.8530   73.8060   59.2750 H   0  0  0  0  0  0  0  0  0  0  0  0
   37.9190   74.9680   57.7640 C   0  0  0  0  0  0  0  0  0  0  0  0
   37.0330   74.1490   57.1270 N   0  0  0  0  0  0  0  0  0  0  0  0
   36.4130   74.8600   56.1500 C   0  0  0  0  0  0  0  0  0  0  0  0
   35.6580   74.5090   55.4640 H   0  0  0  0  0  0  0  0  0  0  0  0
   36.9140   76.1180   56.1800 N   0  0  0  0  0  0  0  0  0  0  0  0
   37.8270   76.1970   57.1530 C   0  0  0  0  0  0  0  0  0  0  0  0
   38.6190   77.2610   57.5840 C   0  0  0  0  0  3  0  0  0  0  0  0
   36.8470   73.1390   57.3410 H   0  0  0  0  0  0  0  0  0  0  0  0
  2  1  1  0  0  0  0
  3  2  1  0  0  0  0
  3 12  1  0  0  0  0
  4  3  2  0  0  0  0
  5  6  2  0  0  0  0
  5  4  1  0  0  0  0
  6  8  1  0  0  0  0
  7  6  1  0  0  0  0
  8 23  1  0  0  0  0
  8  2  2  0  0  0  0
  9  4  1  0  0  0  0
 10  5  1  0  0  0  0
 11 16  1  0  0  0  0
 11 17  1  0  0  0  0
 12 11  2  0  0  0  0
 13 14  2  0  0  0  0
 13 12  1  0  0  0  0
 14 15  1  0  0  0  0
 15 19  1  0  0  0  0
 15 16  2  0  0  0  0
 18 13  1  0  0  0  0
 19 22  1  0  0  0  0
 19 21  1  0  0  0  0
 20 19  1  0  0  0  0
 24 25  1  0  0  0  0
 25 23  1  0  0  0  0
 26 25  2  0  0  0  0
 26 27  1  0  0  0  0
 28 26  1  0  0  0  0
 29 35  1  0  0  0  0
 29 28  1  0  0  0  0
 30 32  2  0  0  0  0
 30 29  1  0  0  0  0
 31 30  1  0  0  0  0
 32 33  1  0  0  0  0
 33 34  1  0  0  0  0
 33 28  2  0  0  0  0
 34 24  2  0  0  0  0
M  END
>  <minimizedAffinity>
-7.36925364

$$$$

 OpenBabel03212520163D

 35 38  0  0  0  0  0  0  0  0999 V2000
   39.5570   73.1140   61.4120 Cl  0  0  0  0  0  0  0  0  0  0  0  0
   41.1130   73.5450   60.7180 C   0  0  0  0  0  0  0  0  0  0  0  0
   42.2210   72.7230   60.8020 C   0  0  0  0  0  0  0  0  0  0  0  0
   43.3700   73.2060   60.2040 C   0  0  0  0  0  0  0  0  0  0  0  0
   43.5020   74.4050   59.5520 C   0  0  0  0  0  0  0  0  0  0  0  0
   42.3860   75.1840   59.4930 C   0  0  0  0  0  0  0  0  0  0  0  0
   42.4080   76.7530   58.6840 Cl  0  0  0  0  0  0  0  0  0  0  0  0
   41.2020   74.7620   60.0690 C   0  0  0  0  0  0  0  0  0  0  0  0
   44.2400   72.5540   60.2730 H   0  0  0  0  0  0  0  0  0  0  0  0
   44.4330   74.7020   59.1160 H   0  0  0  0  0  0  0  0  0  0  0  0
   42.0710   71.2420   62.8640 C   0  0  0  0  0  0  0  0  0  0  0  0
   42.1090   71.4720   61.4760 C   0  0  0  0  0  0  0  0  0  0  0  0
   42.0290   70.3570   60.6440 C   0  0  0  0  0  0  0  0  0  0  0  0
   41.9200   69.1270   61.2120 N   0  0  0  0  0  0  0  0  0  0  0  0
   41.8860   68.9480   62.5450 C   0  0  0  0  0  0  0  0  0  0  0  0
   41.9620   70.0100   63.3710 N   0  0  0  0  0  0  0  0  0  0  0  0
   42.1370   72.1390   63.4660 H   0  0  0  0  0  0  0  0  0  0  0  0
   42.0480   70.4070   59.5620 H   0  0  0  0  0  0  0  0  0  0  0  0
   41.7650   67.5430   62.9960 C   0  0  0  0  0  0  0  0  0  0  0  0
   41.7820   66.6520   61.9480 F   0  0  0  0  0  0  0  0  0  0  0  0
   42.7960   67.2210   63.8590 F   0  0  0  0  0  0  0  0  0  0  0  0
   40.5410   67.3190   63.6260 F   0  0  0  0  0  0  0  0  0  0  0  0
   40.0800   75.5930   59.9850 O   0  0  0  0  0  0  0  0  0  0  0  0
   38.4890   74.4500   58.5620 C   0  0  0  0  0  3  0  0  0  0  0  0
   39.2050   75.5940   58.9360 C   0  0  0  0  0  0  0  0  0  0  0  0
   39.0580   76.7890   58.2550 C   0  0  0  0  0  0  0  0  0  0  0  0
   39.6100   77.6680   58.5440 H   0  0  0  0  0  0  0  0  0  0  0  0
   38.1920   76.8590   57.1870 C   0  0  0  0  0  0  0  0  0  0  0  0
   37.8390   77.8680   56.3380 N   0  0  0  0  0  0  0  0  0  0  0  0
   36.9300   77.3870   55.4510 C   0  0  0  0  0  0  0  0  0  0  0  0
   36.4500   77.9260   54.6480 H   0  0  0  0  0  0  0  0  0  0  0  0
   36.7180   76.0830   55.7490 N   0  0  0  0  0  0  0  0  0  0  0  0
   37.4760   75.7510   56.7990 C   0  0  0  0  0  0  0  0  0  0  0  0
   37.6210   74.5430   57.4820 C   0  0  0  0  0  3  0  0  0  0  0  0
   38.1980   78.8540   56.3510 H   0  0  0  0  0  0  0  0  0  0  0  0
  2  3  1  0  0  0  0
  2  1  1  0  0  0  0
  3 12  1  0  0  0  0
  4  9  1  0  0  0  0
  4  3  2  0  0  0  0
  5  4  1  0  0  0  0
  6  5  2  0  0  0  0
  6  8  1  0  0  0  0
  7  6  1  0  0  0  0
  8  2  2  0  0  0  0
 10  5  1  0  0  0  0
 11 16  1  0  0  0  0
 11 17  1  0  0  0  0
 12 11  2  0  0  0  0
 13 14  2  0  0  0  0
 13 12  1  0  0  0  0
 14 15  1  0  0  0  0
 15 19  1  0  0  0  0
 15 16  2  0  0  0  0
 18 13  1  0  0  0  0
 19 22  1  0  0  0  0
 19 21  1  0  0  0  0
 20 19  1  0  0  0  0
 23  8  1  0  0  0  0
 24 25  1  0  0  0  0
 25 23  1  0  0  0  0
 26 27  1  0  0  0  0
 26 25  2  0  0  0  0
 28 26  1  0  0  0  0
 29 35  1  0  0  0  0
 29 28  1  0  0  0  0
 30 32  2  0  0  0  0
 30 29  1  0  0  0  0
 31 30  1  0  0  0  0
 32 33  1  0  0  0  0
 33 28  2  0  0  0  0
 33 34  1  0  0  0  0
 34 24  2  0  0  0  0
M  END
>  <minimizedAffinity>
-7.26871538

$$$$

 OpenBabel03212520163D

 35 38  0  0  0  0  0  0  0  0999 V2000
   42.7570   71.8760   61.4600 Cl  0  0  0  0  0  0  0  0  0  0  0  0
   41.9930   71.3090   59.9820 C   0  0  0  0  0  0  0  0  0  0  0  0
   41.1620   72.1070   59.2180 C   0  0  0  0  0  0  0  0  0  0  0  0
   40.6390   71.5120   58.0840 C   0  0  0  0  0  0  0  0  0  0  0  0
   40.8690   70.2280   57.6640 C   0  0  0  0  0  0  0  0  0  0  0  0
   41.6930   69.4770   58.4460 C   0  0  0  0  0  0  0  0  0  0  0  0
   42.0770   67.8060   58.0280 Cl  0  0  0  0  0  0  0  0  0  0  0  0
   42.2500   70.0080   59.5950 C   0  0  0  0  0  0  0  0  0  0  0  0
   39.9860   72.1460   57.4860 H   0  0  0  0  0  0  0  0  0  0  0  0
   40.4210   69.8470   56.7700 H   0  0  0  0  0  0  0  0  0  0  0  0
   39.9000   73.9010   60.5060 C   0  0  0  0  0  0  0  0  0  0  0  0
   40.9080   73.4460   59.6350 C   0  0  0  0  0  0  0  0  0  0  0  0
   41.7710   74.4040   59.1060 C   0  0  0  0  0  0  0  0  0  0  0  0
   41.5930   75.7060   59.4570 N   0  0  0  0  0  0  0  0  0  0  0  0
   40.6170   76.1000   60.2940 C   0  0  0  0  0  0  0  0  0  0  0  0
   39.7700   75.1940   60.8200 N   0  0  0  0  0  0  0  0  0  0  0  0
   39.2570   73.1180   60.8890 H   0  0  0  0  0  0  0  0  0  0  0  0
   42.5830   74.1770   58.4270 H   0  0  0  0  0  0  0  0  0  0  0  0
   40.5640   77.5540   60.5700 C   0  0  0  0  0  0  0  0  0  0  0  0
   39.8100   78.2370   59.6430 F   0  0  0  0  0  0  0  0  0  0  0  0
   40.0330   77.7900   61.8240 F   0  0  0  0  0  0  0  0  0  0  0  0
   41.8310   78.1310   60.4830 F   0  0  0  0  0  0  0  0  0  0  0  0
   43.0910   69.2010   60.3690 O   0  0  0  0  0  0  0  0  0  0  0  0
   43.3540   66.8880   61.0370 C   0  0  0  0  0  3  0  0  0  0  0  0
   42.6690   68.1090   61.0730 C   0  0  0  0  0  0  0  0  0  0  0  0
   41.5230   68.2680   61.8300 C   0  0  0  0  0  0  0  0  0  0  0  0
   40.9970   69.2090   61.8570 H   0  0  0  0  0  0  0  0  0  0  0  0
   41.0420   67.2080   62.5640 C   0  0  0  0  0  0  0  0  0  0  0  0
   39.9640   67.0560   63.3880 N   0  0  0  0  0  0  0  0  0  0  0  0
   39.9580   65.7840   63.8620 C   0  0  0  0  0  0  0  0  0  0  0  0
   39.2420   65.3400   64.5370 H   0  0  0  0  0  0  0  0  0  0  0  0
   41.0300   65.1460   63.3340 N   0  0  0  0  0  0  0  0  0  0  0  0
   41.6950   65.9980   62.5470 C   0  0  0  0  0  0  0  0  0  0  0  0
   42.8520   65.8310   61.7850 C   0  0  0  0  0  3  0  0  0  0  0  0
   39.2500   67.7870   63.6270 H   0  0  0  0  0  0  0  0  0  0  0  0
  2  1  1  0  0  0  0
  3 12  1  0  0  0  0
  3  2  2  0  0  0  0
  4  3  1  0  0  0  0
  5  4  2  0  0  0  0
  5  6  1  0  0  0  0
  6  8  2  0  0  0  0
  7  6  1  0  0  0  0
  8  2  1  0  0  0  0
  8 23  1  0  0  0  0
  9  4  1  0  0  0  0
 10  5  1  0  0  0  0
 11 16  1  0  0  0  0
 11 17  1  0  0  0  0
 12 11  2  0  0  0  0
 13 14  2  0  0  0  0
 13 12  1  0  0  0  0
 14 15  1  0  0  0  0
 15 19  1  0  0  0  0
 15 16  2  0  0  0  0
 18 13  1  0  0  0  0
 19 21  1  0  0  0  0
 20 19  1  0  0  0  0
 22 19  1  0  0  0  0
 23 25  1  0  0  0  0
 24 25  2  0  0  0  0
 24 34  1  0  0  0  0
 25 26  1  0  0  0  0
 26 27  1  0  0  0  0
 26 28  2  0  0  0  0
 28 29  1  0  0  0  0
 29 35  1  0  0  0  0
 29 30  1  0  0  0  0
 30 31  1  0  0  0  0
 32 30  2  0  0  0  0
 33 28  1  0  0  0  0
 33 32  1  0  0  0  0
 34 33  2  0  0  0  0
M  END
>  <minimizedAffinity>
-6.76908827

$$$$

 OpenBabel03212520163D

 35 38  0  0  0  0  0  0  0  0999 V2000
   41.0170   73.7330   56.9990 Cl  0  0  0  0  0  0  0  0  0  0  0  0
   40.4340   74.1200   58.6120 C   0  0  0  0  0  0  0  0  0  0  0  0
   39.4500   75.0630   58.8430 C   0  0  0  0  0  0  0  0  0  0  0  0
   39.1030   75.2500   60.1680 C   0  0  0  0  0  0  0  0  0  0  0  0
   39.6400   74.5970   61.2470 C   0  0  0  0  0  0  0  0  0  0  0  0
   40.6070   73.6770   60.9740 C   0  0  0  0  0  0  0  0  0  0  0  0
   41.3870   72.7610   62.2640 Cl  0  0  0  0  0  0  0  0  0  0  0  0
   41.0030   73.4390   59.6710 C   0  0  0  0  0  0  0  0  0  0  0  0
   38.3260   75.9930   60.3450 H   0  0  0  0  0  0  0  0  0  0  0  0
   39.3110   74.8050   62.2430 H   0  0  0  0  0  0  0  0  0  0  0  0
   39.4700   76.7580   56.9470 C   0  0  0  0  0  0  0  0  0  0  0  0
   38.8760   75.7550   57.7370 C   0  0  0  0  0  0  0  0  0  0  0  0
   37.5730   75.3800   57.4160 C   0  0  0  0  0  0  0  0  0  0  0  0
   36.9570   75.9960   56.3720 N   0  0  0  0  0  0  0  0  0  0  0  0
   37.5590   76.9500   55.6400 C   0  0  0  0  0  0  0  0  0  0  0  0
   38.8190   77.3310   55.9290 N   0  0  0  0  0  0  0  0  0  0  0  0
   40.4810   77.0120   57.2370 H   0  0  0  0  0  0  0  0  0  0  0  0
   37.0130   74.6230   57.9500 H   0  0  0  0  0  0  0  0  0  0  0  0
   36.7450   77.5170   54.5400 C   0  0  0  0  0  0  0  0  0  0  0  0
   35.7190   78.3080   55.0000 F   0  0  0  0  0  0  0  0  0  0  0  0
   37.5340   78.2740   53.6950 F   0  0  0  0  0  0  0  0  0  0  0  0
   36.1110   76.5110   53.8110 F   0  0  0  0  0  0  0  0  0  0  0  0
   41.9990   72.4850   59.4350 O   0  0  0  0  0  0  0  0  0  0  0  0
   41.0130   70.6000   58.2780 C   0  0  0  0  0  3  0  0  0  0  0  0
   41.7650   71.1440   59.3270 C   0  0  0  0  0  0  0  0  0  0  0  0
   42.3090   70.3410   60.3130 C   0  0  0  0  0  0  0  0  0  0  0  0
   42.8860   70.7610   61.1200 H   0  0  0  0  0  0  0  0  0  0  0  0
   42.1110   68.9790   60.2660 C   0  0  0  0  0  0  0  0  0  0  0  0
   42.5090   67.9510   61.0700 N   0  0  0  0  0  0  0  0  0  0  0  0
   42.0300   66.7890   60.5550 C   0  0  0  0  0  0  0  0  0  0  0  0
   42.1650   65.7930   60.9480 H   0  0  0  0  0  0  0  0  0  0  0  0
   41.3360   67.0960   59.4320 N   0  0  0  0  0  0  0  0  0  0  0  0
   41.3780   68.4190   59.2470 C   0  0  0  0  0  0  0  0  0  0  0  0
   40.8260   69.2240   58.2500 C   0  0  0  0  0  3  0  0  0  0  0  0
   43.0870   68.0240   61.9420 H   0  0  0  0  0  0  0  0  0  0  0  0
  1  2  1  0  0  0  0
  2  3  2  0  0  0  0
  2  8  1  0  0  0  0
  3  4  1  0  0  0  0
  4  9  1  0  0  0  0
  4  5  2  0  0  0  0
  5 10  1  0  0  0  0
  6  5  1  0  0  0  0
  6  7  1  0  0  0  0
  8  6  2  0  0  0  0
 11 17  1  0  0  0  0
 11 12  1  0  0  0  0
 12  3  1  0  0  0  0
 13 12  2  0  0  0  0
 13 18  1  0  0  0  0
 14 13  1  0  0  0  0
 15 16  1  0  0  0  0
 15 14  2  0  0  0  0
 16 11  2  0  0  0  0
 19 20  1  0  0  0  0
 19 15  1  0  0  0  0
 21 19  1  0  0  0  0
 22 19  1  0  0  0  0
 23  8  1  0  0  0  0
 24 25  1  0  0  0  0
 25 23  1  0  0  0  0
 25 26  2  0  0  0  0
 26 27  1  0  0  0  0
 28 26  1  0  0  0  0
 28 29  1  0  0  0  0
 29 35  1  0  0  0  0
 30 31  1  0  0  0  0
 30 29  1  0  0  0  0
 32 30  2  0  0  0  0
 33 32  1  0  0  0  0
 33 28  2  0  0  0  0
 34 24  2  0  0  0  0
 34 33  1  0  0  0  0
M  END
>  <minimizedAffinity>
-6.48118877

$$$$

 OpenBabel03212520163D

 35 38  0  0  0  0  0  0  0  0999 V2000
   41.0860   72.4530   61.6230 Cl  0  0  0  0  0  0  0  0  0  0  0  0
   42.3870   72.2060   60.4680 C   0  0  0  0  0  0  0  0  0  0  0  0
   42.9560   70.9660   60.2390 C   0  0  0  0  0  0  0  0  0  0  0  0
   43.9690   70.9400   59.2980 C   0  0  0  0  0  0  0  0  0  0  0  0
   44.4480   72.0130   58.5920 C   0  0  0  0  0  0  0  0  0  0  0  0
   43.8600   73.2140   58.8490 C   0  0  0  0  0  0  0  0  0  0  0  0
   44.3740   74.6810   58.0140 Cl  0  0  0  0  0  0  0  0  0  0  0  0
   42.8400   73.3130   59.7780 C   0  0  0  0  0  0  0  0  0  0  0  0
   44.4130   69.9610   59.1200 H   0  0  0  0  0  0  0  0  0  0  0  0
   45.2390   71.9010   57.8800 H   0  0  0  0  0  0  0  0  0  0  0  0
   42.5680   69.5960   62.3450 C   0  0  0  0  0  0  0  0  0  0  0  0
   42.4740   69.8360   60.9610 C   0  0  0  0  0  0  0  0  0  0  0  0
   41.8400   68.8660   60.1880 C   0  0  0  0  0  0  0  0  0  0  0  0
   41.3540   67.7570   60.8060 N   0  0  0  0  0  0  0  0  0  0  0  0
   41.4620   67.5640   62.1320 C   0  0  0  0  0  0  0  0  0  0  0  0
   42.0700   68.4870   62.9020 N   0  0  0  0  0  0  0  0  0  0  0  0
   43.0680   70.3790   62.9000 H   0  0  0  0  0  0  0  0  0  0  0  0
   41.7080   68.9380   59.1160 H   0  0  0  0  0  0  0  0  0  0  0  0
   40.8780   66.3010   62.6410 C   0  0  0  0  0  0  0  0  0  0  0  0
   40.0280   65.7130   61.7350 F   0  0  0  0  0  0  0  0  0  0  0  0
   41.8760   65.3980   62.9530 F   0  0  0  0  0  0  0  0  0  0  0  0
   40.0860   66.5300   63.7670 F   0  0  0  0  0  0  0  0  0  0  0  0
   42.2640   74.5670   60.0110 O   0  0  0  0  0  0  0  0  0  0  0  0
   40.3790   76.0860   59.9470 C   0  0  0  0  0  3  0  0  0  0  0  0
   41.0920   74.9870   59.4500 C   0  0  0  0  0  0  0  0  0  0  0  0
   40.6370   74.2690   58.3590 C   0  0  0  0  0  0  0  0  0  0  0  0
   41.1870   73.4240   57.9790 H   0  0  0  0  0  0  0  0  0  0  0  0
   39.4610   74.6380   57.7450 C   0  0  0  0  0  0  0  0  0  0  0  0
   38.7710   74.1430   56.6770 N   0  0  0  0  0  0  0  0  0  0  0  0
   37.6560   74.8960   56.4960 C   0  0  0  0  0  0  0  0  0  0  0  0
   36.8970   74.7720   55.7390 H   0  0  0  0  0  0  0  0  0  0  0  0
   37.6540   75.8590   57.4500 N   0  0  0  0  0  0  0  0  0  0  0  0
   38.7420   75.7140   58.2120 C   0  0  0  0  0  0  0  0  0  0  0  0
   39.1960   76.4420   59.3130 C   0  0  0  0  0  3  0  0  0  0  0  0
   39.0390   73.3200   56.0840 H   0  0  0  0  0  0  0  0  0  0  0  0
  2  1  1  0  0  0  0
  3  2  1  0  0  0  0
  3 12  1  0  0  0  0
  4  3  2  0  0  0  0
  5  6  2  0  0  0  0
  5  4  1  0  0  0  0
  6  8  1  0  0  0  0
  7  6  1  0  0  0  0
  8 23  1  0  0  0  0
  8  2  2  0  0  0  0
  9  4  1  0  0  0  0
 10  5  1  0  0  0  0
 11 17  1  0  0  0  0
 11 16  1  0  0  0  0
 12 11  2  0  0  0  0
 13 14  2  0  0  0  0
 13 12  1  0  0  0  0
 14 15  1  0  0  0  0
 15 19  1  0  0  0  0
 15 16  2  0  0  0  0
 18 13  1  0  0  0  0
 19 21  1  0  0  0  0
 19 22  1  0  0  0  0
 20 19  1  0  0  0  0
 25 24  1  0  0  0  0
 25 23  1  0  0  0  0
 26 25  2  0  0  0  0
 27 26  1  0  0  0  0
 28 33  2  0  0  0  0
 28 26  1  0  0  0  0
 29 28  1  0  0  0  0
 30 29  1  0  0  0  0
 30 32  2  0  0  0  0
 31 30  1  0  0  0  0
 32 33  1  0  0  0  0
 33 34  1  0  0  0  0
 34 24  2  0  0  0  0
 35 29  1  0  0  0  0
M  END
>  <minimizedAffinity>
-6.45970345

$$$$

 OpenBabel03212520163D

 35 38  0  0  0  0  0  0  0  0999 V2000
   40.8010   71.7850   57.4360 Cl  0  0  0  0  0  0  0  0  0  0  0  0
   40.6270   72.5630   59.0030 C   0  0  0  0  0  0  0  0  0  0  0  0
   39.7410   73.6000   59.2260 C   0  0  0  0  0  0  0  0  0  0  0  0
   39.7240   74.1030   60.5140 C   0  0  0  0  0  0  0  0  0  0  0  0
   40.4940   73.6720   61.5630 C   0  0  0  0  0  0  0  0  0  0  0  0
   41.3530   72.6490   61.2990 C   0  0  0  0  0  0  0  0  0  0  0  0
   42.4060   71.9920   62.5540 Cl  0  0  0  0  0  0  0  0  0  0  0  0
   41.4220   72.0980   60.0320 C   0  0  0  0  0  0  0  0  0  0  0  0
   39.0230   74.9200   60.6850 H   0  0  0  0  0  0  0  0  0  0  0  0
   40.4160   74.1210   62.5310 H   0  0  0  0  0  0  0  0  0  0  0  0
   37.7720   73.4620   57.6220 C   0  0  0  0  0  0  0  0  0  0  0  0
   38.9300   74.0650   58.1510 C   0  0  0  0  0  0  0  0  0  0  0  0
   39.3490   75.2580   57.5660 C   0  0  0  0  0  0  0  0  0  0  0  0
   38.6260   75.7670   56.5330 N   0  0  0  0  0  0  0  0  0  0  0  0
   37.5240   75.1610   56.0570 C   0  0  0  0  0  0  0  0  0  0  0  0
   37.0970   74.0060   56.6040 N   0  0  0  0  0  0  0  0  0  0  0  0
   37.4890   72.5390   58.1110 H   0  0  0  0  0  0  0  0  0  0  0  0
   40.2220   75.8140   57.8840 H   0  0  0  0  0  0  0  0  0  0  0  0
   36.8560   75.8490   54.9280 C   0  0  0  0  0  0  0  0  0  0  0  0
   35.9300   75.0490   54.3000 F   0  0  0  0  0  0  0  0  0  0  0  0
   36.2180   76.9930   55.3670 F   0  0  0  0  0  0  0  0  0  0  0  0
   37.7700   76.1780   53.9270 F   0  0  0  0  0  0  0  0  0  0  0  0
   42.3190   71.0480   59.8050 O   0  0  0  0  0  0  0  0  0  0  0  0
   41.5690   68.9310   58.9000 C   0  0  0  0  0  3  0  0  0  0  0  0
   42.0080   69.7270   59.9650 C   0  0  0  0  0  0  0  0  0  0  0  0
   42.1470   69.2110   61.2400 C   0  0  0  0  0  0  0  0  0  0  0  0
   42.4850   69.8250   62.0580 H   0  0  0  0  0  0  0  0  0  0  0  0
   41.8510   67.8860   61.4720 C   0  0  0  0  0  0  0  0  0  0  0  0
   41.8880   67.1040   62.5900 N   0  0  0  0  0  0  0  0  0  0  0  0
   41.4860   65.8510   62.2540 C   0  0  0  0  0  0  0  0  0  0  0  0
   41.4030   64.9940   62.9050 H   0  0  0  0  0  0  0  0  0  0  0  0
   41.2010   65.8550   60.9300 N   0  0  0  0  0  0  0  0  0  0  0  0
   41.4180   67.0810   60.4450 C   0  0  0  0  0  0  0  0  0  0  0  0
   41.2750   67.5970   59.1560 C   0  0  0  0  0  3  0  0  0  0  0  0
   42.1740   67.4020   63.5550 H   0  0  0  0  0  0  0  0  0  0  0  0
  1  2  1  0  0  0  0
  2  3  2  0  0  0  0
  2  8  1  0  0  0  0
  3  4  1  0  0  0  0
  4  9  1  0  0  0  0
  4  5  2  0  0  0  0
  5 10  1  0  0  0  0
  6  5  1  0  0  0  0
  6  7  1  0  0  0  0
  8  6  2  0  0  0  0
 11 17  1  0  0  0  0
 11 12  1  0  0  0  0
 12  3  1  0  0  0  0
 13 18  1  0  0  0  0
 13 12  2  0  0  0  0
 14 13  1  0  0  0  0
 15 14  2  0  0  0  0
 15 16  1  0  0  0  0
 16 11  2  0  0  0  0
 19 21  1  0  0  0  0
 19 15  1  0  0  0  0
 20 19  1  0  0  0  0
 22 19  1  0  0  0  0
 23 25  1  0  0  0  0
 23  8  1  0  0  0  0
 24 34  2  0  0  0  0
 24 25  1  0  0  0  0
 25 26  2  0  0  0  0
 26 28  1  0  0  0  0
 26 27  1  0  0  0  0
 28 29  1  0  0  0  0
 29 35  1  0  0  0  0
 30 29  1  0  0  0  0
 30 31  1  0  0  0  0
 32 30  2  0  0  0  0
 33 32  1  0  0  0  0
 33 28  2  0  0  0  0
 34 33  1  0  0  0  0
M  END
>  <minimizedAffinity>
-6.44145155

$$$$

 OpenBabel03212520163D

 35 38  0  0  0  0  0  0  0  0999 V2000
   38.2690   73.1900   58.5480 Cl  0  0  0  0  0  0  0  0  0  0  0  0
   39.1030   74.7220   58.7650 C   0  0  0  0  0  0  0  0  0  0  0  0
   40.1940   74.8650   59.6030 C   0  0  0  0  0  0  0  0  0  0  0  0
   40.7380   76.1350   59.6630 C   0  0  0  0  0  0  0  0  0  0  0  0
   40.2960   77.2390   58.9790 C   0  0  0  0  0  0  0  0  0  0  0  0
   39.2190   77.0530   58.1670 C   0  0  0  0  0  0  0  0  0  0  0  0
   38.5430   78.3850   57.2270 Cl  0  0  0  0  0  0  0  0  0  0  0  0
   38.6260   75.8090   58.0590 C   0  0  0  0  0  0  0  0  0  0  0  0
   41.5970   76.2430   60.3230 H   0  0  0  0  0  0  0  0  0  0  0  0
   40.7780   78.1880   59.0860 H   0  0  0  0  0  0  0  0  0  0  0  0
   40.2470   73.2720   61.5840 C   0  0  0  0  0  0  0  0  0  0  0  0
   40.6710   73.7320   60.3230 C   0  0  0  0  0  0  0  0  0  0  0  0
   41.6780   73.0080   59.6870 C   0  0  0  0  0  0  0  0  0  0  0  0
   42.1850   71.9120   60.3120 N   0  0  0  0  0  0  0  0  0  0  0  0
   41.7510   71.5040   61.5180 C   0  0  0  0  0  0  0  0  0  0  0  0
   40.7800   72.1860   62.1540 N   0  0  0  0  0  0  0  0  0  0  0  0
   39.4650   73.8690   62.0350 H   0  0  0  0  0  0  0  0  0  0  0  0
   42.0860   73.2620   58.7180 H   0  0  0  0  0  0  0  0  0  0  0  0
   42.4120   70.2910   62.0550 C   0  0  0  0  0  0  0  0  0  0  0  0
   43.6250   70.0460   61.4560 F   0  0  0  0  0  0  0  0  0  0  0  0
   42.6140   70.4140   63.4170 F   0  0  0  0  0  0  0  0  0  0  0  0
   41.6560   69.1480   61.7960 F   0  0  0  0  0  0  0  0  0  0  0  0
   37.5220   75.6630   57.2120 O   0  0  0  0  0  0  0  0  0  0  0  0
   36.7080   76.1820   54.9910 C   0  0  0  0  0  3  0  0  0  0  0  0
   37.6090   75.5450   55.8540 C   0  0  0  0  0  0  0  0  0  0  0  0
   38.6370   74.7590   55.3670 C   0  0  0  0  0  0  0  0  0  0  0  0
   39.3290   74.2700   56.0330 H   0  0  0  0  0  0  0  0  0  0  0  0
   38.7830   74.5970   54.0080 C   0  0  0  0  0  0  0  0  0  0  0  0
   39.6740   73.9030   53.2410 N   0  0  0  0  0  0  0  0  0  0  0  0
   39.3560   74.0880   51.9340 C   0  0  0  0  0  0  0  0  0  0  0  0
   39.8610   73.6790   51.0730 H   0  0  0  0  0  0  0  0  0  0  0  0
   38.2690   74.8960   51.8890 N   0  0  0  0  0  0  0  0  0  0  0  0
   37.9130   75.2110   53.1380 C   0  0  0  0  0  0  0  0  0  0  0  0
   36.8730   76.0050   53.6230 C   0  0  0  0  0  3  0  0  0  0  0  0
   40.4760   73.3200   53.5850 H   0  0  0  0  0  0  0  0  0  0  0  0
  1  2  1  0  0  0  0
  2  3  1  0  0  0  0
  3  4  2  0  0  0  0
  3 12  1  0  0  0  0
  4  9  1  0  0  0  0
  5 10  1  0  0  0  0
  5  4  1  0  0  0  0
  6  5  2  0  0  0  0
  7  6  1  0  0  0  0
  8  6  1  0  0  0  0
  8  2  2  0  0  0  0
 11 17  1  0  0  0  0
 11 16  1  0  0  0  0
 12 11  2  0  0  0  0
 13 14  2  0  0  0  0
 13 12  1  0  0  0  0
 14 15  1  0  0  0  0
 15 19  1  0  0  0  0
 15 16  2  0  0  0  0
 18 13  1  0  0  0  0
 19 21  1  0  0  0  0
 20 19  1  0  0  0  0
 22 19  1  0  0  0  0
 23  8  1  0  0  0  0
 24 25  1  0  0  0  0
 25 23  1  0  0  0  0
 26 25  2  0  0  0  0
 26 27  1  0  0  0  0
 28 26  1  0  0  0  0
 29 35  1  0  0  0  0
 29 28  1  0  0  0  0
 30 29  1  0  0  0  0
 31 30  1  0  0  0  0
 32 30  2  0  0  0  0
 32 33  1  0  0  0  0
 33 34  1  0  0  0  0
 33 28  2  0  0  0  0
 34 24  2  0  0  0  0
M  END
>  <minimizedAffinity>
-6.42712736

$$$$

 OpenBabel03212520163D

 35 38  0  0  0  0  0  0  0  0999 V2000
   40.6440   72.5000   61.8320 Cl  0  0  0  0  0  0  0  0  0  0  0  0
   42.0160   72.3300   60.7460 C   0  0  0  0  0  0  0  0  0  0  0  0
   42.6520   71.1210   60.5320 C   0  0  0  0  0  0  0  0  0  0  0  0
   43.7150   71.1540   59.6480 C   0  0  0  0  0  0  0  0  0  0  0  0
   44.1810   72.2590   58.9830 C   0  0  0  0  0  0  0  0  0  0  0  0
   43.5270   73.4280   59.2250 C   0  0  0  0  0  0  0  0  0  0  0  0
   44.0180   74.9300   58.4380 Cl  0  0  0  0  0  0  0  0  0  0  0  0
   42.4550   73.4670   60.0970 C   0  0  0  0  0  0  0  0  0  0  0  0
   44.2120   70.1990   59.4820 H   0  0  0  0  0  0  0  0  0  0  0  0
   45.0140   72.1940   58.3150 H   0  0  0  0  0  0  0  0  0  0  0  0
   42.1550   69.7270   62.6010 C   0  0  0  0  0  0  0  0  0  0  0  0
   42.1840   69.9590   61.2120 C   0  0  0  0  0  0  0  0  0  0  0  0
   41.7050   68.9430   60.3870 C   0  0  0  0  0  0  0  0  0  0  0  0
   41.2410   67.8020   60.9620 N   0  0  0  0  0  0  0  0  0  0  0  0
   41.2280   67.6190   62.2940 C   0  0  0  0  0  0  0  0  0  0  0  0
   41.6870   68.5850   63.1140 N   0  0  0  0  0  0  0  0  0  0  0  0
   42.5380   70.5450   63.1960 H   0  0  0  0  0  0  0  0  0  0  0  0
   41.6760   69.0050   59.3070 H   0  0  0  0  0  0  0  0  0  0  0  0
   40.6900   66.3170   62.7530 C   0  0  0  0  0  0  0  0  0  0  0  0
   41.6630   65.5100   63.2970 F   0  0  0  0  0  0  0  0  0  0  0  0
   39.7030   66.5090   63.7010 F   0  0  0  0  0  0  0  0  0  0  0  0
   40.1780   65.5790   61.6870 F   0  0  0  0  0  0  0  0  0  0  0  0
   41.8100   74.6900   60.3150 O   0  0  0  0  0  0  0  0  0  0  0  0
   39.7360   74.4700   59.0850 C   0  0  0  0  0  3  0  0  0  0  0  0
   40.8540   75.2100   59.4890 C   0  0  0  0  0  0  0  0  0  0  0  0
   41.0460   76.5120   59.0670 C   0  0  0  0  0  0  0  0  0  0  0  0
   41.9070   77.0800   59.3790 H   0  0  0  0  0  0  0  0  0  0  0  0
   40.1210   77.0990   58.2320 C   0  0  0  0  0  0  0  0  0  0  0  0
   40.0320   78.3340   57.6600 N   0  0  0  0  0  0  0  0  0  0  0  0
   38.8970   78.3850   56.9160 C   0  0  0  0  0  0  0  0  0  0  0  0
   38.5320   79.2180   56.3350 H   0  0  0  0  0  0  0  0  0  0  0  0
   38.2820   77.1830   57.0250 N   0  0  0  0  0  0  0  0  0  0  0  0
   39.0130   76.3950   57.8210 C   0  0  0  0  0  0  0  0  0  0  0  0
   38.8150   75.0800   58.2430 C   0  0  0  0  0  3  0  0  0  0  0  0
   40.7140   79.1250   57.7650 H   0  0  0  0  0  0  0  0  0  0  0  0
  2  1  1  0  0  0  0
  3  2  1  0  0  0  0
  3 12  1  0  0  0  0
  4  3  2  0  0  0  0
  5  6  2  0  0  0  0
  5  4  1  0  0  0  0
  6  8  1  0  0  0  0
  7  6  1  0  0  0  0
  8 23  1  0  0  0  0
  8  2  2  0  0  0  0
  9  4  1  0  0  0  0
 10  5  1  0  0  0  0
 11 16  1  0  0  0  0
 11 17  1  0  0  0  0
 12 11  2  0  0  0  0
 13 14  2  0  0  0  0
 13 12  1  0  0  0  0
 14 15  1  0  0  0  0
 15 19  1  0  0  0  0
 15 16  2  0  0  0  0
 18 13  1  0  0  0  0
 19 20  1  0  0  0  0
 19 21  1  0  0  0  0
 22 19  1  0  0  0  0
 24 25  1  0  0  0  0
 25 23  1  0  0  0  0
 26 27  1  0  0  0  0
 26 25  2  0  0  0  0
 28 26  1  0  0  0  0
 29 35  1  0  0  0  0
 29 28  1  0  0  0  0
 30 32  2  0  0  0  0
 30 29  1  0  0  0  0
 31 30  1  0  0  0  0
 32 33  1  0  0  0  0
 33 28  2  0  0  0  0
 33 34  1  0  0  0  0
 34 24  2  0  0  0  0
M  END
>  <minimizedAffinity>
-6.41030169

$$$$

 OpenBabel03212520163D

 35 38  0  0  0  0  0  0  0  0999 V2000
   41.2270   70.7310   58.2590 Cl  0  0  0  0  0  0  0  0  0  0  0  0
   41.4910   71.3720   59.8750 C   0  0  0  0  0  0  0  0  0  0  0  0
   41.0440   72.6210   60.2640 C   0  0  0  0  0  0  0  0  0  0  0  0
   41.3320   72.9780   61.5690 C   0  0  0  0  0  0  0  0  0  0  0  0
   42.0070   72.2160   62.4870 C   0  0  0  0  0  0  0  0  0  0  0  0
   42.4290   70.9930   62.0610 C   0  0  0  0  0  0  0  0  0  0  0  0
   43.3110   69.9060   63.1360 Cl  0  0  0  0  0  0  0  0  0  0  0  0
   42.1760   70.5730   60.7690 C   0  0  0  0  0  0  0  0  0  0  0  0
   40.9770   73.9620   61.8700 H   0  0  0  0  0  0  0  0  0  0  0  0
   42.1870   72.5720   63.4800 H   0  0  0  0  0  0  0  0  0  0  0  0
   40.8790   74.2070   58.2830 C   0  0  0  0  0  0  0  0  0  0  0  0
   40.3400   73.4310   59.3260 C   0  0  0  0  0  0  0  0  0  0  0  0
   38.9550   73.4420   59.4780 C   0  0  0  0  0  0  0  0  0  0  0  0
   38.2120   74.1920   58.6200 N   0  0  0  0  0  0  0  0  0  0  0  0
   38.7650   74.9210   57.6350 C   0  0  0  0  0  0  0  0  0  0  0  0
   40.1020   74.9270   57.4660 N   0  0  0  0  0  0  0  0  0  0  0  0
   41.9580   74.1640   58.2080 H   0  0  0  0  0  0  0  0  0  0  0  0
   38.4250   72.8870   60.2420 H   0  0  0  0  0  0  0  0  0  0  0  0
   37.8120   75.6800   56.7920 C   0  0  0  0  0  0  0  0  0  0  0  0
   38.1530   75.6530   55.4600 F   0  0  0  0  0  0  0  0  0  0  0  0
   36.5350   75.1690   56.9260 F   0  0  0  0  0  0  0  0  0  0  0  0
   37.8120   77.0340   57.1260 F   0  0  0  0  0  0  0  0  0  0  0  0
   42.6270   69.3080   60.3730 O   0  0  0  0  0  0  0  0  0  0  0  0
   43.3320   67.1620   61.2450 C   0  0  0  0  0  3  0  0  0  0  0  0
   42.3620   68.1530   61.0530 C   0  0  0  0  0  0  0  0  0  0  0  0
   41.0780   68.0090   61.5460 C   0  0  0  0  0  0  0  0  0  0  0  0
   40.3330   68.7730   61.3980 H   0  0  0  0  0  0  0  0  0  0  0  0
   40.7420   66.8680   62.2410 C   0  0  0  0  0  0  0  0  0  0  0  0
   39.5900   66.4440   62.8360 N   0  0  0  0  0  0  0  0  0  0  0  0
   39.8120   65.2240   63.3890 C   0  0  0  0  0  0  0  0  0  0  0  0
   39.1080   64.6130   63.9330 H   0  0  0  0  0  0  0  0  0  0  0  0
   41.1010   64.8910   63.1390 N   0  0  0  0  0  0  0  0  0  0  0  0
   41.6750   65.8790   62.4450 C   0  0  0  0  0  0  0  0  0  0  0  0
   42.9720   66.0190   61.9490 C   0  0  0  0  0  3  0  0  0  0  0  0
   38.6760   66.9580   62.8710 H   0  0  0  0  0  0  0  0  0  0  0  0
  1  2  1  0  0  0  0
  2  3  2  0  0  0  0
  2  8  1  0  0  0  0
  3  4  1  0  0  0  0
  4  9  1  0  0  0  0
  4  5  2  0  0  0  0
  5 10  1  0  0  0  0
  6  5  1  0  0  0  0
  6  7  1  0  0  0  0
  8  6  2  0  0  0  0
 11 12  1  0  0  0  0
 12 13  2  0  0  0  0
 12  3  1  0  0  0  0
 13 18  1  0  0  0  0
 14 13  1  0  0  0  0
 15 14  2  0  0  0  0
 16 15  1  0  0  0  0
 16 11  2  0  0  0  0
 17 11  1  0  0  0  0
 19 21  1  0  0  0  0
 19 22  1  0  0  0  0
 19 15  1  0  0  0  0
 20 19  1  0  0  0  0
 23  8  1  0  0  0  0
 23 25  1  0  0  0  0
 24 34  1  0  0  0  0
 25 24  2  0  0  0  0
 25 26  1  0  0  0  0
 26 28  2  0  0  0  0
 27 26  1  0  0  0  0
 28 33  1  0  0  0  0
 28 29  1  0  0  0  0
 29 35  1  0  0  0  0
 29 30  1  0  0  0  0
 30 31  1  0  0  0  0
 32 30  2  0  0  0  0
 33 32  1  0  0  0  0
 34 33  2  0  0  0  0
M  END
>  <minimizedAffinity>
-6.3069458

$$$$
