
 OpenBabel03212520153D

 35 38  0  0  0  0  0  0  0  0999 V2000
   42.1130   84.0400   58.3540 Cl  0  0  0  0  0  0  0  0  0  0  0  0
   41.1960   82.5460   58.2080 C   0  0  0  0  0  0  0  0  0  0  0  0
   40.6780   81.8800   59.3030 C   0  0  0  0  0  0  0  0  0  0  0  0
   39.9810   80.7190   59.0200 C   0  0  0  0  0  0  0  0  0  0  0  0
   39.7680   80.1850   57.7760 C   0  0  0  0  0  0  0  0  0  0  0  0
   40.2960   80.8740   56.7270 C   0  0  0  0  0  0  0  0  0  0  0  0
   40.1000   80.3040   55.0680 Cl  0  0  0  0  0  0  0  0  0  0  0  0
   41.0040   82.0420   56.9370 C   0  0  0  0  0  0  0  0  0  0  0  0
   39.5740   80.1980   59.8860 H   0  0  0  0  0  0  0  0  0  0  0  0
   39.2150   79.2780   57.6480 H   0  0  0  0  0  0  0  0  0  0  0  0
   41.9810   82.1910   61.4650 C   0  0  0  0  0  0  0  0  0  0  0  0
   40.8870   82.4160   60.6070 C   0  0  0  0  0  0  0  0  0  0  0  0
   39.8790   83.2590   61.0690 C   0  0  0  0  0  0  0  0  0  0  0  0
   40.0070   83.8110   62.3060 N   0  0  0  0  0  0  0  0  0  0  0  0
   41.0680   83.5720   63.0960 C   0  0  0  0  0  0  0  0  0  0  0  0
   42.0570   82.7600   62.6730 N   0  0  0  0  0  0  0  0  0  0  0  0
   42.7350   81.5300   61.0600 H   0  0  0  0  0  0  0  0  0  0  0  0
   38.9910   83.5080   60.5020 H   0  0  0  0  0  0  0  0  0  0  0  0
   41.0480   84.2510   64.4120 C   0  0  0  0  0  0  0  0  0  0  0  0
   40.7540   85.5910   64.3060 F   0  0  0  0  0  0  0  0  0  0  0  0
   40.1150   83.6640   65.2450 F   0  0  0  0  0  0  0  0  0  0  0  0
   42.3040   84.2160   65.0170 F   0  0  0  0  0  0  0  0  0  0  0  0
   41.5300   82.7180   55.8300 O   0  0  0  0  0  0  0  0  0  0  0  0
   43.7830   81.8340   55.9120 C   0  0  0  0  0  3  0  0  0  0  0  0
   42.7000   82.3800   55.2110 C   0  0  0  0  0  0  0  0  0  0  0  0
   42.7640   82.6030   53.8470 C   0  0  0  0  0  0  0  0  0  0  0  0
   41.9290   83.0230   53.3110 H   0  0  0  0  0  0  0  0  0  0  0  0
   43.9140   82.2840   53.1620 C   0  0  0  0  0  0  0  0  0  0  0  0
   44.2750   82.3840   51.8490 N   0  0  0  0  0  0  0  0  0  0  0  0
   45.5440   81.9210   51.7120 C   0  0  0  0  0  0  0  0  0  0  0  0
   46.1260   81.8610   50.8060 H   0  0  0  0  0  0  0  0  0  0  0  0
   45.9700   81.5330   52.9380 N   0  0  0  0  0  0  0  0  0  0  0  0
   44.9940   81.7480   53.8240 C   0  0  0  0  0  0  0  0  0  0  0  0
   44.9340   81.5200   55.2000 C   0  0  0  0  0  3  0  0  0  0  0  0
   43.6860   82.7540   51.0620 H   0  0  0  0  0  0  0  0  0  0  0  0
  2  1  1  0  0  0  0
  2  3  1  0  0  0  0
  3 12  1  0  0  0  0
  4  3  2  0  0  0  0
  4  9  1  0  0  0  0
  5  4  1  0  0  0  0
  6  8  1  0  0  0  0
  6  5  2  0  0  0  0
  7  6  1  0  0  0  0
  8  2  2  0  0  0  0
 10  5  1  0  0  0  0
 11 16  1  0  0  0  0
 12 13  1  0  0  0  0
 12 11  2  0  0  0  0
 13 14  2  0  0  0  0
 14 15  1  0  0  0  0
 15 19  1  0  0  0  0
 16 15  2  0  0  0  0
 17 11  1  0  0  0  0
 18 13  1  0  0  0  0
 19 22  1  0  0  0  0
 19 21  1  0  0  0  0
 20 19  1  0  0  0  0
 23  8  1  0  0  0  0
 25 23  1  0  0  0  0
 25 24  1  0  0  0  0
 26 25  2  0  0  0  0
 27 26  1  0  0  0  0
 28 33  2  0  0  0  0
 28 26  1  0  0  0  0
 29 28  1  0  0  0  0
 30 29  1  0  0  0  0
 30 32  2  0  0  0  0
 31 30  1  0  0  0  0
 32 33  1  0  0  0  0
 33 34  1  0  0  0  0
 34 24  2  0  0  0  0
 35 29  1  0  0  0  0
M  END
>  <minimizedAffinity>
-5.13797474

>  <minimizedRMSD>
0.333894342

$$$$
