
 OpenBabel03212520153D

 35 38  0  0  0  0  0  0  0  0999 V2000
   42.0540   84.1030   58.3760 Cl  0  0  0  0  0  0  0  0  0  0  0  0
   41.1850   82.5810   58.2340 C   0  0  0  0  0  0  0  0  0  0  0  0
   40.6960   81.8960   59.3310 C   0  0  0  0  0  0  0  0  0  0  0  0
   40.0340   80.7150   59.0500 C   0  0  0  0  0  0  0  0  0  0  0  0
   39.8290   80.1770   57.8060 C   0  0  0  0  0  0  0  0  0  0  0  0
   40.3270   80.8840   56.7540 C   0  0  0  0  0  0  0  0  0  0  0  0
   40.1360   80.3120   55.0950 Cl  0  0  0  0  0  0  0  0  0  0  0  0
   40.9990   82.0740   56.9620 C   0  0  0  0  0  0  0  0  0  0  0  0
   39.6510   80.1790   59.9170 H   0  0  0  0  0  0  0  0  0  0  0  0
   39.3040   79.2540   57.6800 H   0  0  0  0  0  0  0  0  0  0  0  0
   42.0100   82.2550   61.4780 C   0  0  0  0  0  0  0  0  0  0  0  0
   40.8980   82.4360   60.6340 C   0  0  0  0  0  0  0  0  0  0  0  0
   39.8600   83.2340   61.1120 C   0  0  0  0  0  0  0  0  0  0  0  0
   39.9790   83.7850   62.3490 N   0  0  0  0  0  0  0  0  0  0  0  0
   41.0590   83.5890   63.1250 C   0  0  0  0  0  0  0  0  0  0  0  0
   42.0770   82.8220   62.6870 N   0  0  0  0  0  0  0  0  0  0  0  0
   42.7880   81.6280   61.0610 H   0  0  0  0  0  0  0  0  0  0  0  0
   38.9560   83.4460   60.5560 H   0  0  0  0  0  0  0  0  0  0  0  0
   41.0260   84.2620   64.4450 C   0  0  0  0  0  0  0  0  0  0  0  0
   40.7210   85.5990   64.3430 F   0  0  0  0  0  0  0  0  0  0  0  0
   40.0930   83.6630   65.2700 F   0  0  0  0  0  0  0  0  0  0  0  0
   42.2790   84.2330   65.0570 F   0  0  0  0  0  0  0  0  0  0  0  0
   41.4950   82.7690   55.8530 O   0  0  0  0  0  0  0  0  0  0  0  0
   43.6530   81.6850   55.6710 C   0  0  0  0  0  3  0  0  0  0  0  0
   42.8110   82.7890   55.4870 C   0  0  0  0  0  0  0  0  0  0  0  0
   43.2770   83.9630   54.9230 C   0  0  0  0  0  0  0  0  0  0  0  0
   42.6270   84.8110   54.7820 H   0  0  0  0  0  0  0  0  0  0  0  0
   44.5940   84.0510   54.5310 C   0  0  0  0  0  0  0  0  0  0  0  0
   45.3330   85.0450   53.9590 N   0  0  0  0  0  0  0  0  0  0  0  0
   46.6010   84.5950   53.7810 C   0  0  0  0  0  0  0  0  0  0  0  0
   47.4330   85.1320   53.3540 H   0  0  0  0  0  0  0  0  0  0  0  0
   46.6500   83.3220   54.2430 N   0  0  0  0  0  0  0  0  0  0  0  0
   45.4420   82.9800   54.6990 C   0  0  0  0  0  0  0  0  0  0  0  0
   44.9770   81.7950   55.2690 C   0  0  0  0  0  3  0  0  0  0  0  0
   44.9950   86.0030   53.6930 H   0  0  0  0  0  0  0  0  0  0  0  0
  2  1  1  0  0  0  0
  2  3  1  0  0  0  0
  3 12  1  0  0  0  0
  4  3  2  0  0  0  0
  4  9  1  0  0  0  0
  5  4  1  0  0  0  0
  6  8  1  0  0  0  0
  6  5  2  0  0  0  0
  7  6  1  0  0  0  0
  8  2  2  0  0  0  0
 10  5  1  0  0  0  0
 11 16  1  0  0  0  0
 12 13  1  0  0  0  0
 12 11  2  0  0  0  0
 13 14  2  0  0  0  0
 14 15  1  0  0  0  0
 15 19  1  0  0  0  0
 16 15  2  0  0  0  0
 17 11  1  0  0  0  0
 18 13  1  0  0  0  0
 19 22  1  0  0  0  0
 19 21  1  0  0  0  0
 20 19  1  0  0  0  0
 23  8  1  0  0  0  0
 25 24  1  0  0  0  0
 25 23  1  0  0  0  0
 26 25  2  0  0  0  0
 27 26  1  0  0  0  0
 28 33  2  0  0  0  0
 28 26  1  0  0  0  0
 29 28  1  0  0  0  0
 30 29  1  0  0  0  0
 30 32  2  0  0  0  0
 31 30  1  0  0  0  0
 32 33  1  0  0  0  0
 33 34  1  0  0  0  0
 34 24  2  0  0  0  0
 35 29  1  0  0  0  0
M  END
>  <minimizedAffinity>
-5.21936703

>  <minimizedRMSD>
0.562368095

$$$$
