
 OpenBabel03212520153D

 35 38  0  0  0  0  0  0  0  0999 V2000
   42.1010   84.0580   58.3570 Cl  0  0  0  0  0  0  0  0  0  0  0  0
   41.2000   82.5560   58.2120 C   0  0  0  0  0  0  0  0  0  0  0  0
   40.6910   81.8820   59.3070 C   0  0  0  0  0  0  0  0  0  0  0  0
   40.0060   80.7150   59.0240 C   0  0  0  0  0  0  0  0  0  0  0  0
   39.7960   80.1800   57.7790 C   0  0  0  0  0  0  0  0  0  0  0  0
   40.3150   80.8750   56.7290 C   0  0  0  0  0  0  0  0  0  0  0  0
   40.1220   80.3050   55.0700 Cl  0  0  0  0  0  0  0  0  0  0  0  0
   41.0120   82.0510   56.9400 C   0  0  0  0  0  0  0  0  0  0  0  0
   39.6060   80.1890   59.8890 H   0  0  0  0  0  0  0  0  0  0  0  0
   39.2520   79.2680   57.6510 H   0  0  0  0  0  0  0  0  0  0  0  0
   41.9940   82.2040   61.4670 C   0  0  0  0  0  0  0  0  0  0  0  0
   40.8970   82.4190   60.6110 C   0  0  0  0  0  0  0  0  0  0  0  0
   39.8800   83.2510   61.0750 C   0  0  0  0  0  0  0  0  0  0  0  0
   40.0050   83.8030   62.3120 N   0  0  0  0  0  0  0  0  0  0  0  0
   41.0690   83.5730   63.1000 C   0  0  0  0  0  0  0  0  0  0  0  0
   42.0660   82.7720   62.6750 N   0  0  0  0  0  0  0  0  0  0  0  0
   42.7550   81.5510   61.0600 H   0  0  0  0  0  0  0  0  0  0  0  0
   38.9890   83.4910   60.5100 H   0  0  0  0  0  0  0  0  0  0  0  0
   41.0450   84.2510   64.4170 C   0  0  0  0  0  0  0  0  0  0  0  0
   40.7480   85.5900   64.3120 F   0  0  0  0  0  0  0  0  0  0  0  0
   40.1110   83.6610   65.2480 F   0  0  0  0  0  0  0  0  0  0  0  0
   42.3000   84.2170   65.0250 F   0  0  0  0  0  0  0  0  0  0  0  0
   41.5280   82.7340   55.8330 O   0  0  0  0  0  0  0  0  0  0  0  0
   43.7650   81.8110   55.9340 C   0  0  0  0  0  3  0  0  0  0  0  0
   42.7230   82.4380   55.2400 C   0  0  0  0  0  0  0  0  0  0  0  0
   42.8550   82.7900   53.9090 C   0  0  0  0  0  0  0  0  0  0  0  0
   42.0520   83.2720   53.3760 H   0  0  0  0  0  0  0  0  0  0  0  0
   44.0340   82.5210   53.2500 C   0  0  0  0  0  0  0  0  0  0  0  0
   44.4600   82.7400   51.9720 N   0  0  0  0  0  0  0  0  0  0  0  0
   45.7280   82.2720   51.8520 C   0  0  0  0  0  0  0  0  0  0  0  0
   46.3530   82.2900   50.9720 H   0  0  0  0  0  0  0  0  0  0  0  0
   46.0900   81.7620   53.0540 N   0  0  0  0  0  0  0  0  0  0  0  0
   45.0740   81.9070   53.9090 C   0  0  0  0  0  0  0  0  0  0  0  0
   44.9450   81.5490   55.2510 C   0  0  0  0  0  3  0  0  0  0  0  0
   43.9140   83.1940   51.1980 H   0  0  0  0  0  0  0  0  0  0  0  0
  2  1  1  0  0  0  0
  2  3  1  0  0  0  0
  3 12  1  0  0  0  0
  4  3  2  0  0  0  0
  4  9  1  0  0  0  0
  5  4  1  0  0  0  0
  6  8  1  0  0  0  0
  6  5  2  0  0  0  0
  7  6  1  0  0  0  0
  8  2  2  0  0  0  0
 10  5  1  0  0  0  0
 11 16  1  0  0  0  0
 12 13  1  0  0  0  0
 12 11  2  0  0  0  0
 13 14  2  0  0  0  0
 14 15  1  0  0  0  0
 15 19  1  0  0  0  0
 16 15  2  0  0  0  0
 17 11  1  0  0  0  0
 18 13  1  0  0  0  0
 19 22  1  0  0  0  0
 19 21  1  0  0  0  0
 20 19  1  0  0  0  0
 23  8  1  0  0  0  0
 25 23  1  0  0  0  0
 25 24  2  0  0  0  0
 26 25  1  0  0  0  0
 27 26  1  0  0  0  0
 28 33  1  0  0  0  0
 28 26  2  0  0  0  0
 29 28  1  0  0  0  0
 30 29  1  0  0  0  0
 30 32  2  0  0  0  0
 31 30  1  0  0  0  0
 32 33  1  0  0  0  0
 33 34  2  0  0  0  0
 34 24  1  0  0  0  0
 35 29  1  0  0  0  0
M  END
>  <minimizedAffinity>
-5.12383318

>  <minimizedRMSD>
0.674758732

$$$$
