
 OpenBabel03212520153D

 35 38  0  0  0  0  0  0  0  0999 V2000
   42.1750   84.0880   58.3490 Cl  0  0  0  0  0  0  0  0  0  0  0  0
   41.2430   82.6070   58.1780 C   0  0  0  0  0  0  0  0  0  0  0  0
   40.7030   81.9360   59.2590 C   0  0  0  0  0  0  0  0  0  0  0  0
   39.9970   80.7870   58.9560 C   0  0  0  0  0  0  0  0  0  0  0  0
   39.7920   80.2680   57.7040 C   0  0  0  0  0  0  0  0  0  0  0  0
   40.3420   80.9600   56.6680 C   0  0  0  0  0  0  0  0  0  0  0  0
   40.1590   80.4090   55.0010 Cl  0  0  0  0  0  0  0  0  0  0  0  0
   41.0610   82.1180   56.8990 C   0  0  0  0  0  0  0  0  0  0  0  0
   39.5730   80.2630   59.8110 H   0  0  0  0  0  0  0  0  0  0  0  0
   39.2300   79.3690   57.5600 H   0  0  0  0  0  0  0  0  0  0  0  0
   41.9740   82.1970   61.4470 C   0  0  0  0  0  0  0  0  0  0  0  0
   40.9030   82.4570   60.5710 C   0  0  0  0  0  0  0  0  0  0  0  0
   39.9090   83.3240   61.0210 C   0  0  0  0  0  0  0  0  0  0  0  0
   40.0280   83.8620   62.2640 N   0  0  0  0  0  0  0  0  0  0  0  0
   41.0680   83.5890   63.0710 C   0  0  0  0  0  0  0  0  0  0  0  0
   42.0430   82.7540   62.6600 N   0  0  0  0  0  0  0  0  0  0  0  0
   42.7180   81.5180   61.0500 H   0  0  0  0  0  0  0  0  0  0  0  0
   39.0380   83.6000   60.4390 H   0  0  0  0  0  0  0  0  0  0  0  0
   41.0420   84.2590   64.3920 C   0  0  0  0  0  0  0  0  0  0  0  0
   40.7490   85.6000   64.2940 F   0  0  0  0  0  0  0  0  0  0  0  0
   40.1040   83.6670   65.2170 F   0  0  0  0  0  0  0  0  0  0  0  0
   42.2950   84.2180   65.0030 F   0  0  0  0  0  0  0  0  0  0  0  0
   41.6080   82.7990   55.8050 O   0  0  0  0  0  0  0  0  0  0  0  0
   43.6140   83.9080   55.0240 C   0  0  0  0  0  3  0  0  0  0  0  0
   42.9320   82.7690   55.4690 C   0  0  0  0  0  0  0  0  0  0  0  0
   43.5730   81.5490   55.5930 C   0  0  0  0  0  0  0  0  0  0  0  0
   43.0470   80.6740   55.9360 H   0  0  0  0  0  0  0  0  0  0  0  0
   44.9080   81.4480   55.2710 C   0  0  0  0  0  0  0  0  0  0  0  0
   45.7960   80.4120   55.2860 N   0  0  0  0  0  0  0  0  0  0  0  0
   47.0030   80.8700   54.8670 C   0  0  0  0  0  0  0  0  0  0  0  0
   47.9170   80.3070   54.7620 H   0  0  0  0  0  0  0  0  0  0  0  0
   46.8660   82.1890   54.5890 N   0  0  0  0  0  0  0  0  0  0  0  0
   45.6020   82.5510   54.8310 C   0  0  0  0  0  0  0  0  0  0  0  0
   44.9600   83.7840   54.7050 C   0  0  0  0  0  3  0  0  0  0  0  0
   45.5990   79.4210   55.5720 H   0  0  0  0  0  0  0  0  0  0  0  0
  2  1  1  0  0  0  0
  2  3  1  0  0  0  0
  3 12  1  0  0  0  0
  4  3  2  0  0  0  0
  4  9  1  0  0  0  0
  5  4  1  0  0  0  0
  6  8  1  0  0  0  0
  6  5  2  0  0  0  0
  7  6  1  0  0  0  0
  8  2  2  0  0  0  0
 10  5  1  0  0  0  0
 11 16  1  0  0  0  0
 12 13  1  0  0  0  0
 12 11  2  0  0  0  0
 13 14  2  0  0  0  0
 14 15  1  0  0  0  0
 15 19  1  0  0  0  0
 16 15  2  0  0  0  0
 17 11  1  0  0  0  0
 18 13  1  0  0  0  0
 19 22  1  0  0  0  0
 19 21  1  0  0  0  0
 20 19  1  0  0  0  0
 23  8  1  0  0  0  0
 24 25  1  0  0  0  0
 25 26  2  0  0  0  0
 25 23  1  0  0  0  0
 26 27  1  0  0  0  0
 28 29  1  0  0  0  0
 28 26  1  0  0  0  0
 29 35  1  0  0  0  0
 30 29  1  0  0  0  0
 31 30  1  0  0  0  0
 32 33  1  0  0  0  0
 32 30  2  0  0  0  0
 33 28  2  0  0  0  0
 34 33  1  0  0  0  0
 34 24  2  0  0  0  0
M  END
>  <minimizedAffinity>
-5.09383297

>  <minimizedRMSD>
0.584215224

$$$$
