
 OpenBabel03212520153D

 35 38  0  0  0  0  0  0  0  0999 V2000
   42.1120   84.0360   58.3590 Cl  0  0  0  0  0  0  0  0  0  0  0  0
   41.1940   82.5440   58.2120 C   0  0  0  0  0  0  0  0  0  0  0  0
   40.6750   81.8770   59.3070 C   0  0  0  0  0  0  0  0  0  0  0  0
   39.9770   80.7180   59.0230 C   0  0  0  0  0  0  0  0  0  0  0  0
   39.7630   80.1850   57.7780 C   0  0  0  0  0  0  0  0  0  0  0  0
   40.2930   80.8730   56.7290 C   0  0  0  0  0  0  0  0  0  0  0  0
   40.0960   80.3050   55.0700 Cl  0  0  0  0  0  0  0  0  0  0  0  0
   41.0020   82.0410   56.9400 C   0  0  0  0  0  0  0  0  0  0  0  0
   39.5690   80.1970   59.8880 H   0  0  0  0  0  0  0  0  0  0  0  0
   39.2090   79.2790   57.6490 H   0  0  0  0  0  0  0  0  0  0  0  0
   41.9720   82.1770   61.4730 C   0  0  0  0  0  0  0  0  0  0  0  0
   40.8840   82.4130   60.6110 C   0  0  0  0  0  0  0  0  0  0  0  0
   39.8820   83.2660   61.0680 C   0  0  0  0  0  0  0  0  0  0  0  0
   40.0100   83.8170   62.3040 N   0  0  0  0  0  0  0  0  0  0  0  0
   41.0660   83.5680   63.0990 C   0  0  0  0  0  0  0  0  0  0  0  0
   42.0490   82.7460   62.6810 N   0  0  0  0  0  0  0  0  0  0  0  0
   42.7220   81.5080   61.0720 H   0  0  0  0  0  0  0  0  0  0  0  0
   38.9990   83.5220   60.4970 H   0  0  0  0  0  0  0  0  0  0  0  0
   41.0480   84.2490   64.4140 C   0  0  0  0  0  0  0  0  0  0  0  0
   40.7510   85.5880   64.3080 F   0  0  0  0  0  0  0  0  0  0  0  0
   40.1180   83.6610   65.2510 F   0  0  0  0  0  0  0  0  0  0  0  0
   42.3050   84.2160   65.0170 F   0  0  0  0  0  0  0  0  0  0  0  0
   41.5290   82.7160   55.8340 O   0  0  0  0  0  0  0  0  0  0  0  0
   43.7820   81.8310   55.9150 C   0  0  0  0  0  3  0  0  0  0  0  0
   42.6990   82.3770   55.2150 C   0  0  0  0  0  0  0  0  0  0  0  0
   42.7640   82.6000   53.8510 C   0  0  0  0  0  0  0  0  0  0  0  0
   41.9290   83.0190   53.3140 H   0  0  0  0  0  0  0  0  0  0  0  0
   43.9140   82.2800   53.1660 C   0  0  0  0  0  0  0  0  0  0  0  0
   44.2750   82.3790   51.8530 N   0  0  0  0  0  0  0  0  0  0  0  0
   45.5430   81.9140   51.7170 C   0  0  0  0  0  0  0  0  0  0  0  0
   46.1250   81.8540   50.8110 H   0  0  0  0  0  0  0  0  0  0  0  0
   45.9690   81.5260   52.9430 N   0  0  0  0  0  0  0  0  0  0  0  0
   44.9920   81.7420   53.8280 C   0  0  0  0  0  0  0  0  0  0  0  0
   44.9320   81.5160   55.2040 C   0  0  0  0  0  3  0  0  0  0  0  0
   43.6870   82.7500   51.0670 H   0  0  0  0  0  0  0  0  0  0  0  0
  2  1  1  0  0  0  0
  2  3  1  0  0  0  0
  3 12  1  0  0  0  0
  4  3  2  0  0  0  0
  4  9  1  0  0  0  0
  5  4  1  0  0  0  0
  6  8  1  0  0  0  0
  6  5  2  0  0  0  0
  7  6  1  0  0  0  0
  8  2  2  0  0  0  0
 10  5  1  0  0  0  0
 11 16  1  0  0  0  0
 12 13  1  0  0  0  0
 12 11  2  0  0  0  0
 13 14  2  0  0  0  0
 14 15  1  0  0  0  0
 15 19  1  0  0  0  0
 16 15  2  0  0  0  0
 17 11  1  0  0  0  0
 18 13  1  0  0  0  0
 19 22  1  0  0  0  0
 19 21  1  0  0  0  0
 20 19  1  0  0  0  0
 23  8  1  0  0  0  0
 25 23  1  0  0  0  0
 25 24  1  0  0  0  0
 26 25  2  0  0  0  0
 27 26  1  0  0  0  0
 28 33  2  0  0  0  0
 28 26  1  0  0  0  0
 29 28  1  0  0  0  0
 30 29  1  0  0  0  0
 30 32  2  0  0  0  0
 31 30  1  0  0  0  0
 32 33  1  0  0  0  0
 33 34  1  0  0  0  0
 34 24  2  0  0  0  0
 35 29  1  0  0  0  0
M  END
>  <minimizedAffinity>
-5.13607407

>  <minimizedRMSD>
0.343878269

$$$$
