
 OpenBabel03212520153D

 35 38  0  0  0  0  0  0  0  0999 V2000
   42.0870   84.0460   58.3560 Cl  0  0  0  0  0  0  0  0  0  0  0  0
   41.1800   82.5470   58.2150 C   0  0  0  0  0  0  0  0  0  0  0  0
   40.6710   81.8780   59.3120 C   0  0  0  0  0  0  0  0  0  0  0  0
   39.9810   80.7130   59.0330 C   0  0  0  0  0  0  0  0  0  0  0  0
   39.7650   80.1770   57.7890 C   0  0  0  0  0  0  0  0  0  0  0  0
   40.2840   80.8680   56.7380 C   0  0  0  0  0  0  0  0  0  0  0  0
   40.0840   80.2970   55.0800 Cl  0  0  0  0  0  0  0  0  0  0  0  0
   40.9850   82.0420   56.9450 C   0  0  0  0  0  0  0  0  0  0  0  0
   39.5810   80.1890   59.9000 H   0  0  0  0  0  0  0  0  0  0  0  0
   39.2170   79.2660   57.6640 H   0  0  0  0  0  0  0  0  0  0  0  0
   41.9830   82.2000   61.4670 C   0  0  0  0  0  0  0  0  0  0  0  0
   40.8830   82.4150   60.6150 C   0  0  0  0  0  0  0  0  0  0  0  0
   39.8690   83.2490   61.0830 C   0  0  0  0  0  0  0  0  0  0  0  0
   39.9990   83.8010   62.3190 N   0  0  0  0  0  0  0  0  0  0  0  0
   41.0670   83.5720   63.1030 C   0  0  0  0  0  0  0  0  0  0  0  0
   42.0610   82.7700   62.6740 N   0  0  0  0  0  0  0  0  0  0  0  0
   42.7420   81.5460   61.0570 H   0  0  0  0  0  0  0  0  0  0  0  0
   38.9750   83.4880   60.5210 H   0  0  0  0  0  0  0  0  0  0  0  0
   41.0480   84.2510   64.4190 C   0  0  0  0  0  0  0  0  0  0  0  0
   40.7510   85.5900   64.3150 F   0  0  0  0  0  0  0  0  0  0  0  0
   40.1180   83.6610   65.2550 F   0  0  0  0  0  0  0  0  0  0  0  0
   42.3060   84.2170   65.0220 F   0  0  0  0  0  0  0  0  0  0  0  0
   41.5010   82.7210   55.8350 O   0  0  0  0  0  0  0  0  0  0  0  0
   42.6990   82.3980   53.7550 C   0  0  0  0  0  3  0  0  0  0  0  0
   42.6190   82.3320   55.1510 C   0  0  0  0  0  0  0  0  0  0  0  0
   43.6770   81.8670   55.9110 C   0  0  0  0  0  0  0  0  0  0  0  0
   43.6130   81.8170   56.9870 H   0  0  0  0  0  0  0  0  0  0  0  0
   44.8320   81.4590   55.2860 C   0  0  0  0  0  0  0  0  0  0  0  0
   46.0180   80.9630   55.7480 N   0  0  0  0  0  0  0  0  0  0  0  0
   46.8290   80.7220   54.6860 C   0  0  0  0  0  0  0  0  0  0  0  0
   47.8330   80.3280   54.7040 H   0  0  0  0  0  0  0  0  0  0  0  0
   46.1480   81.0650   53.5660 N   0  0  0  0  0  0  0  0  0  0  0  0
   44.9390   81.5120   53.9160 C   0  0  0  0  0  0  0  0  0  0  0  0
   43.8750   81.9810   53.1450 C   0  0  0  0  0  3  0  0  0  0  0  0
   46.2800   80.7930   56.7500 H   0  0  0  0  0  0  0  0  0  0  0  0
  2  1  1  0  0  0  0
  2  3  1  0  0  0  0
  3 12  1  0  0  0  0
  4  3  2  0  0  0  0
  4  9  1  0  0  0  0
  5  4  1  0  0  0  0
  6  8  1  0  0  0  0
  6  5  2  0  0  0  0
  7  6  1  0  0  0  0
  8  2  2  0  0  0  0
 10  5  1  0  0  0  0
 11 16  1  0  0  0  0
 12 13  1  0  0  0  0
 12 11  2  0  0  0  0
 13 14  2  0  0  0  0
 14 15  1  0  0  0  0
 15 19  1  0  0  0  0
 16 15  2  0  0  0  0
 17 11  1  0  0  0  0
 18 13  1  0  0  0  0
 19 22  1  0  0  0  0
 19 21  1  0  0  0  0
 20 19  1  0  0  0  0
 23  8  1  0  0  0  0
 24 25  1  0  0  0  0
 25 23  1  0  0  0  0
 25 26  2  0  0  0  0
 26 27  1  0  0  0  0
 28 29  1  0  0  0  0
 28 26  1  0  0  0  0
 29 35  1  0  0  0  0
 30 31  1  0  0  0  0
 30 29  1  0  0  0  0
 32 33  1  0  0  0  0
 32 30  2  0  0  0  0
 33 28  2  0  0  0  0
 34 24  2  0  0  0  0
 34 33  1  0  0  0  0
M  END
>  <minimizedAffinity>
-5.07834673

>  <minimizedRMSD>
0.530111194

$$$$
