
 OpenBabel03212520153D

 35 38  0  0  0  0  0  0  0  0999 V2000
   42.0860   84.0450   58.3540 Cl  0  0  0  0  0  0  0  0  0  0  0  0
   41.1790   82.5450   58.2130 C   0  0  0  0  0  0  0  0  0  0  0  0
   40.6710   81.8760   59.3110 C   0  0  0  0  0  0  0  0  0  0  0  0
   39.9800   80.7100   59.0310 C   0  0  0  0  0  0  0  0  0  0  0  0
   39.7640   80.1750   57.7880 C   0  0  0  0  0  0  0  0  0  0  0  0
   40.2830   80.8660   56.7360 C   0  0  0  0  0  0  0  0  0  0  0  0
   40.0830   80.2950   55.0780 Cl  0  0  0  0  0  0  0  0  0  0  0  0
   40.9850   82.0400   56.9430 C   0  0  0  0  0  0  0  0  0  0  0  0
   39.5810   80.1870   59.8990 H   0  0  0  0  0  0  0  0  0  0  0  0
   39.2170   79.2640   57.6630 H   0  0  0  0  0  0  0  0  0  0  0  0
   41.9820   82.1960   61.4660 C   0  0  0  0  0  0  0  0  0  0  0  0
   40.8820   82.4130   60.6140 C   0  0  0  0  0  0  0  0  0  0  0  0
   39.8700   83.2490   61.0810 C   0  0  0  0  0  0  0  0  0  0  0  0
   40.0000   83.8010   62.3160 N   0  0  0  0  0  0  0  0  0  0  0  0
   41.0670   83.5700   63.1010 C   0  0  0  0  0  0  0  0  0  0  0  0
   42.0600   82.7660   62.6730 N   0  0  0  0  0  0  0  0  0  0  0  0
   42.7400   81.5410   61.0570 H   0  0  0  0  0  0  0  0  0  0  0  0
   38.9780   83.4900   60.5180 H   0  0  0  0  0  0  0  0  0  0  0  0
   41.0490   84.2500   64.4170 C   0  0  0  0  0  0  0  0  0  0  0  0
   40.7520   85.5890   64.3120 F   0  0  0  0  0  0  0  0  0  0  0  0
   40.1190   83.6610   65.2530 F   0  0  0  0  0  0  0  0  0  0  0  0
   42.3060   84.2160   65.0200 F   0  0  0  0  0  0  0  0  0  0  0  0
   41.5010   82.7190   55.8330 O   0  0  0  0  0  0  0  0  0  0  0  0
   42.6980   82.3960   53.7530 C   0  0  0  0  0  3  0  0  0  0  0  0
   42.6180   82.3310   55.1490 C   0  0  0  0  0  0  0  0  0  0  0  0
   43.6760   81.8650   55.9090 C   0  0  0  0  0  0  0  0  0  0  0  0
   43.6120   81.8140   56.9850 H   0  0  0  0  0  0  0  0  0  0  0  0
   44.8320   81.4570   55.2840 C   0  0  0  0  0  0  0  0  0  0  0  0
   46.0180   80.9620   55.7450 N   0  0  0  0  0  0  0  0  0  0  0  0
   46.8280   80.7200   54.6840 C   0  0  0  0  0  0  0  0  0  0  0  0
   47.8330   80.3260   54.7020 H   0  0  0  0  0  0  0  0  0  0  0  0
   46.1470   81.0630   53.5640 N   0  0  0  0  0  0  0  0  0  0  0  0
   44.9380   81.5110   53.9140 C   0  0  0  0  0  0  0  0  0  0  0  0
   43.8740   81.9800   53.1430 C   0  0  0  0  0  3  0  0  0  0  0  0
   46.2780   80.7910   56.7480 H   0  0  0  0  0  0  0  0  0  0  0  0
  2  1  1  0  0  0  0
  2  3  1  0  0  0  0
  3 12  1  0  0  0  0
  4  3  2  0  0  0  0
  4  9  1  0  0  0  0
  5  4  1  0  0  0  0
  6  8  1  0  0  0  0
  6  5  2  0  0  0  0
  7  6  1  0  0  0  0
  8  2  2  0  0  0  0
 10  5  1  0  0  0  0
 11 16  1  0  0  0  0
 12 13  1  0  0  0  0
 12 11  2  0  0  0  0
 13 14  2  0  0  0  0
 14 15  1  0  0  0  0
 15 19  1  0  0  0  0
 16 15  2  0  0  0  0
 17 11  1  0  0  0  0
 18 13  1  0  0  0  0
 19 22  1  0  0  0  0
 19 21  1  0  0  0  0
 20 19  1  0  0  0  0
 23  8  1  0  0  0  0
 24 25  1  0  0  0  0
 25 23  1  0  0  0  0
 25 26  2  0  0  0  0
 26 27  1  0  0  0  0
 28 29  1  0  0  0  0
 28 26  1  0  0  0  0
 29 35  1  0  0  0  0
 30 31  1  0  0  0  0
 30 29  1  0  0  0  0
 32 33  1  0  0  0  0
 32 30  2  0  0  0  0
 33 28  2  0  0  0  0
 34 24  2  0  0  0  0
 34 33  1  0  0  0  0
M  END
>  <minimizedAffinity>
-5.07602882

>  <minimizedRMSD>
0.635866821

$$$$
