
 OpenBabel03212520153D

 35 38  0  0  0  0  0  0  0  0999 V2000
   42.0900   84.1050   58.3820 Cl  0  0  0  0  0  0  0  0  0  0  0  0
   41.2010   82.5950   58.2330 C   0  0  0  0  0  0  0  0  0  0  0  0
   40.6970   81.9160   59.3260 C   0  0  0  0  0  0  0  0  0  0  0  0
   40.0210   80.7440   59.0400 C   0  0  0  0  0  0  0  0  0  0  0  0
   39.8160   80.2100   57.7940 C   0  0  0  0  0  0  0  0  0  0  0  0
   40.3310   80.9110   56.7460 C   0  0  0  0  0  0  0  0  0  0  0  0
   40.1430   80.3430   55.0860 Cl  0  0  0  0  0  0  0  0  0  0  0  0
   41.0170   82.0920   56.9600 C   0  0  0  0  0  0  0  0  0  0  0  0
   39.6250   80.2120   59.9050 H   0  0  0  0  0  0  0  0  0  0  0  0
   39.2800   79.2930   57.6640 H   0  0  0  0  0  0  0  0  0  0  0  0
   42.0090   82.2670   61.4760 C   0  0  0  0  0  0  0  0  0  0  0  0
   40.8980   82.4520   60.6310 C   0  0  0  0  0  0  0  0  0  0  0  0
   39.8600   83.2490   61.1100 C   0  0  0  0  0  0  0  0  0  0  0  0
   39.9780   83.7960   62.3490 N   0  0  0  0  0  0  0  0  0  0  0  0
   41.0570   83.5970   63.1260 C   0  0  0  0  0  0  0  0  0  0  0  0
   42.0740   82.8300   62.6870 N   0  0  0  0  0  0  0  0  0  0  0  0
   42.7860   81.6400   61.0580 H   0  0  0  0  0  0  0  0  0  0  0  0
   38.9560   83.4630   60.5540 H   0  0  0  0  0  0  0  0  0  0  0  0
   41.0230   84.2660   64.4470 C   0  0  0  0  0  0  0  0  0  0  0  0
   40.7170   85.6040   64.3500 F   0  0  0  0  0  0  0  0  0  0  0  0
   40.0900   83.6650   65.2710 F   0  0  0  0  0  0  0  0  0  0  0  0
   42.2760   84.2370   65.0590 F   0  0  0  0  0  0  0  0  0  0  0  0
   41.5290   82.7810   55.8540 O   0  0  0  0  0  0  0  0  0  0  0  0
   43.4730   83.9730   55.0380 C   0  0  0  0  0  3  0  0  0  0  0  0
   42.8520   82.8130   55.5170 C   0  0  0  0  0  0  0  0  0  0  0  0
   43.5570   81.6320   55.6730 C   0  0  0  0  0  0  0  0  0  0  0  0
   43.0780   80.7400   56.0420 H   0  0  0  0  0  0  0  0  0  0  0  0
   44.8950   81.5940   55.3530 C   0  0  0  0  0  0  0  0  0  0  0  0
   45.8370   80.6070   55.3950 N   0  0  0  0  0  0  0  0  0  0  0  0
   47.0180   81.1160   54.9590 C   0  0  0  0  0  0  0  0  0  0  0  0
   47.9610   80.6000   54.8700 H   0  0  0  0  0  0  0  0  0  0  0  0
   46.8100   82.4180   54.6470 N   0  0  0  0  0  0  0  0  0  0  0  0
   45.5290   82.7200   54.8790 C   0  0  0  0  0  0  0  0  0  0  0  0
   44.8230   83.9120   54.7200 C   0  0  0  0  0  3  0  0  0  0  0  0
   45.6940   79.6150   55.7080 H   0  0  0  0  0  0  0  0  0  0  0  0
  2  1  1  0  0  0  0
  2  3  1  0  0  0  0
  3 12  1  0  0  0  0
  4  3  2  0  0  0  0
  4  9  1  0  0  0  0
  5  4  1  0  0  0  0
  6  8  1  0  0  0  0
  6  5  2  0  0  0  0
  7  6  1  0  0  0  0
  8  2  2  0  0  0  0
 10  5  1  0  0  0  0
 11 16  1  0  0  0  0
 12 13  1  0  0  0  0
 12 11  2  0  0  0  0
 13 14  2  0  0  0  0
 14 15  1  0  0  0  0
 15 19  1  0  0  0  0
 16 15  2  0  0  0  0
 17 11  1  0  0  0  0
 18 13  1  0  0  0  0
 19 22  1  0  0  0  0
 19 21  1  0  0  0  0
 20 19  1  0  0  0  0
 23  8  1  0  0  0  0
 24 25  1  0  0  0  0
 25 26  2  0  0  0  0
 25 23  1  0  0  0  0
 26 27  1  0  0  0  0
 28 29  1  0  0  0  0
 28 26  1  0  0  0  0
 29 35  1  0  0  0  0
 30 29  1  0  0  0  0
 31 30  1  0  0  0  0
 32 33  1  0  0  0  0
 32 30  2  0  0  0  0
 33 28  2  0  0  0  0
 34 33  1  0  0  0  0
 34 24  2  0  0  0  0
M  END
>  <minimizedAffinity>
-5.08453178

>  <minimizedRMSD>
0.547049046

$$$$
