
 OpenBabel03212520153D

 35 38  0  0  0  0  0  0  0  0999 V2000
   42.0530   84.0970   58.3720 Cl  0  0  0  0  0  0  0  0  0  0  0  0
   41.1840   82.5760   58.2310 C   0  0  0  0  0  0  0  0  0  0  0  0
   40.6960   81.8900   59.3280 C   0  0  0  0  0  0  0  0  0  0  0  0
   40.0350   80.7090   59.0480 C   0  0  0  0  0  0  0  0  0  0  0  0
   39.8280   80.1710   57.8040 C   0  0  0  0  0  0  0  0  0  0  0  0
   40.3260   80.8780   56.7520 C   0  0  0  0  0  0  0  0  0  0  0  0
   40.1350   80.3050   55.0930 Cl  0  0  0  0  0  0  0  0  0  0  0  0
   40.9980   82.0680   56.9600 C   0  0  0  0  0  0  0  0  0  0  0  0
   39.6520   80.1730   59.9150 H   0  0  0  0  0  0  0  0  0  0  0  0
   39.3040   79.2470   57.6780 H   0  0  0  0  0  0  0  0  0  0  0  0
   42.0080   82.2450   61.4770 C   0  0  0  0  0  0  0  0  0  0  0  0
   40.8980   82.4300   60.6310 C   0  0  0  0  0  0  0  0  0  0  0  0
   39.8630   83.2330   61.1070 C   0  0  0  0  0  0  0  0  0  0  0  0
   39.9820   83.7850   62.3440 N   0  0  0  0  0  0  0  0  0  0  0  0
   41.0600   83.5840   63.1220 C   0  0  0  0  0  0  0  0  0  0  0  0
   42.0750   82.8130   62.6860 N   0  0  0  0  0  0  0  0  0  0  0  0
   42.7840   81.6150   61.0620 H   0  0  0  0  0  0  0  0  0  0  0  0
   38.9600   83.4480   60.5490 H   0  0  0  0  0  0  0  0  0  0  0  0
   41.0280   84.2590   64.4400 C   0  0  0  0  0  0  0  0  0  0  0  0
   40.7240   85.5960   64.3380 F   0  0  0  0  0  0  0  0  0  0  0  0
   40.0950   83.6610   65.2670 F   0  0  0  0  0  0  0  0  0  0  0  0
   42.2810   84.2300   65.0520 F   0  0  0  0  0  0  0  0  0  0  0  0
   41.4930   82.7630   55.8500 O   0  0  0  0  0  0  0  0  0  0  0  0
   43.6500   81.6790   55.6650 C   0  0  0  0  0  3  0  0  0  0  0  0
   42.8090   82.7830   55.4840 C   0  0  0  0  0  0  0  0  0  0  0  0
   43.2740   83.9580   54.9200 C   0  0  0  0  0  0  0  0  0  0  0  0
   42.6250   84.8070   54.7810 H   0  0  0  0  0  0  0  0  0  0  0  0
   44.5910   84.0470   54.5290 C   0  0  0  0  0  0  0  0  0  0  0  0
   45.3300   85.0430   53.9580 N   0  0  0  0  0  0  0  0  0  0  0  0
   46.5980   84.5930   53.7800 C   0  0  0  0  0  0  0  0  0  0  0  0
   47.4290   85.1320   53.3530 H   0  0  0  0  0  0  0  0  0  0  0  0
   46.6490   83.3200   54.2390 N   0  0  0  0  0  0  0  0  0  0  0  0
   45.4400   82.9770   54.6960 C   0  0  0  0  0  0  0  0  0  0  0  0
   44.9750   81.7900   55.2630 C   0  0  0  0  0  3  0  0  0  0  0  0
   44.9920   86.0020   53.6940 H   0  0  0  0  0  0  0  0  0  0  0  0
  2  1  1  0  0  0  0
  2  3  1  0  0  0  0
  3 12  1  0  0  0  0
  4  3  2  0  0  0  0
  4  9  1  0  0  0  0
  5  4  1  0  0  0  0
  6  8  1  0  0  0  0
  6  5  2  0  0  0  0
  7  6  1  0  0  0  0
  8  2  2  0  0  0  0
 10  5  1  0  0  0  0
 11 16  1  0  0  0  0
 12 13  1  0  0  0  0
 12 11  2  0  0  0  0
 13 14  2  0  0  0  0
 14 15  1  0  0  0  0
 15 19  1  0  0  0  0
 16 15  2  0  0  0  0
 17 11  1  0  0  0  0
 18 13  1  0  0  0  0
 19 22  1  0  0  0  0
 19 21  1  0  0  0  0
 20 19  1  0  0  0  0
 23  8  1  0  0  0  0
 25 24  1  0  0  0  0
 25 23  1  0  0  0  0
 26 25  2  0  0  0  0
 27 26  1  0  0  0  0
 28 33  2  0  0  0  0
 28 26  1  0  0  0  0
 29 28  1  0  0  0  0
 30 29  1  0  0  0  0
 30 32  2  0  0  0  0
 31 30  1  0  0  0  0
 32 33  1  0  0  0  0
 33 34  1  0  0  0  0
 34 24  2  0  0  0  0
 35 29  1  0  0  0  0
M  END
>  <minimizedAffinity>
-5.2238946

>  <minimizedRMSD>
0.658915401

$$$$
