
 OpenBabel03212520093D

 21 23  0  0  0  0  0  0  0  0999 V2000
   40.5530   81.6880   57.5440 C   0  0  0  0  0  3  0  0  0  0  0  0
   40.6700   82.8880   58.2240 C   0  0  0  0  0  0  0  0  0  0  0  0
   41.4040   83.9080   57.6460 C   0  0  0  0  0  0  0  0  0  0  0  0
   41.5060   84.8460   58.1530 H   0  0  0  0  0  0  0  0  0  0  0  0
   42.0260   83.7870   56.4170 C   0  0  0  0  0  0  0  0  0  0  0  0
   42.7770   84.6640   55.6990 N   0  0  0  0  0  0  0  0  0  0  0  0
   43.1270   83.9960   54.5590 C   0  0  0  0  0  0  0  0  0  0  0  0
   43.7310   84.4720   53.8120 H   0  0  0  0  0  0  0  0  0  0  0  0
   42.6010   82.7580   54.5960 N   0  0  0  0  0  0  0  0  0  0  0  0
   41.9040   82.5910   55.7470 C   0  0  0  0  0  0  0  0  0  0  0  0
   41.1740   81.5460   56.3020 C   0  0  0  0  0  3  0  0  0  0  0  0
   43.0170   85.6470   55.9970 H   0  0  0  0  0  0  0  0  0  0  0  0
   40.0820   82.1080   60.4800 C   0  0  0  0  0  0  0  0  0  0  0  0
   40.0600   83.1420   59.5240 C   0  0  0  0  0  0  0  0  0  0  0  0
   39.4480   84.3350   59.9130 C   0  0  0  0  0  0  0  0  0  0  0  0
   38.9220   84.4290   61.1630 N   0  0  0  0  0  0  0  0  0  0  0  0
   38.9690   83.4120   62.0430 C   0  0  0  0  0  0  0  0  0  0  0  0
   39.5500   82.2480   61.6980 N   0  0  0  0  0  0  0  0  0  0  0  0
   40.5290   81.1310   60.3080 H   0  0  0  0  0  0  0  0  0  0  0  0
   39.4340   85.1240   59.1740 H   0  0  0  0  0  0  0  0  0  0  0  0
   38.5430   83.5120   63.0320 H   0  0  0  0  0  0  0  0  0  0  0  0
  1  2  1  0  0  0  0
  2 14  1  0  0  0  0
  3  4  1  0  0  0  0
  3  2  2  0  0  0  0
  5  3  1  0  0  0  0
  6 12  1  0  0  0  0
  6  5  1  0  0  0  0
  7  9  2  0  0  0  0
  7  6  1  0  0  0  0
  8  7  1  0  0  0  0
  9 10  1  0  0  0  0
 10 11  1  0  0  0  0
 10  5  2  0  0  0  0
 11  1  2  0  0  0  0
 13 18  1  0  0  0  0
 14 15  1  0  0  0  0
 14 13  2  0  0  0  0
 15 16  2  0  0  0  0
 16 17  1  0  0  0  0
 17 21  1  0  0  0  0
 18 17  2  0  0  0  0
 19 13  1  0  0  0  0
 20 15  1  0  0  0  0
M  END
>  <minimizedAffinity>
-4.9551301

>  <minimizedRMSD>
2.14726067

$$$$
