
 OpenBabel03212520093D

 21 23  0  0  0  0  0  0  0  0999 V2000
   41.8740   83.3800   57.7980 C   0  0  0  0  0  3  0  0  0  0  0  0
   40.7200   82.7610   58.2480 C   0  0  0  0  0  0  0  0  0  0  0  0
   40.1260   81.8060   57.4420 C   0  0  0  0  0  0  0  0  0  0  0  0
   39.2330   81.3120   57.7710 H   0  0  0  0  0  0  0  0  0  0  0  0
   40.6280   81.4400   56.2090 C   0  0  0  0  0  0  0  0  0  0  0  0
   40.1920   80.5370   55.2890 N   0  0  0  0  0  0  0  0  0  0  0  0
   41.0880   80.6010   54.2610 C   0  0  0  0  0  0  0  0  0  0  0  0
   40.9700   79.9790   53.3960 H   0  0  0  0  0  0  0  0  0  0  0  0
   42.0330   81.5130   54.5540 N   0  0  0  0  0  0  0  0  0  0  0  0
   41.7770   82.0610   55.7700 C   0  0  0  0  0  0  0  0  0  0  0  0
   42.3980   83.0250   56.5550 C   0  0  0  0  0  3  0  0  0  0  0  0
   39.3320   79.9340   55.3910 H   0  0  0  0  0  0  0  0  0  0  0  0
   40.0860   82.0500   60.5140 C   0  0  0  0  0  0  0  0  0  0  0  0
   40.0920   83.0570   59.5310 C   0  0  0  0  0  0  0  0  0  0  0  0
   39.4900   84.2680   59.8760 C   0  0  0  0  0  0  0  0  0  0  0  0
   38.9450   84.4030   61.1150 N   0  0  0  0  0  0  0  0  0  0  0  0
   38.9650   83.4090   62.0230 C   0  0  0  0  0  0  0  0  0  0  0  0
   39.5370   82.2290   61.7190 N   0  0  0  0  0  0  0  0  0  0  0  0
   40.5230   81.0630   60.3760 H   0  0  0  0  0  0  0  0  0  0  0  0
   39.4980   85.0370   59.1170 H   0  0  0  0  0  0  0  0  0  0  0  0
   38.5240   83.5410   63.0010 H   0  0  0  0  0  0  0  0  0  0  0  0
  1  2  1  0  0  0  0
  2 14  1  0  0  0  0
  3  4  1  0  0  0  0
  3  2  2  0  0  0  0
  5  3  1  0  0  0  0
  6 12  1  0  0  0  0
  6  5  1  0  0  0  0
  7  9  2  0  0  0  0
  7  6  1  0  0  0  0
  8  7  1  0  0  0  0
  9 10  1  0  0  0  0
 10  5  2  0  0  0  0
 10 11  1  0  0  0  0
 11  1  2  0  0  0  0
 13 18  1  0  0  0  0
 14 15  1  0  0  0  0
 14 13  2  0  0  0  0
 15 16  2  0  0  0  0
 16 17  1  0  0  0  0
 17 21  1  0  0  0  0
 18 17  2  0  0  0  0
 19 13  1  0  0  0  0
 20 15  1  0  0  0  0
M  END
>  <minimizedAffinity>
-4.66526794

>  <minimizedRMSD>
1.00837862

$$$$
