
 OpenBabel03212520103D

 21 23  0  0  0  0  0  0  0  0999 V2000
   39.7160   75.7840   59.4460 C   0  0  0  0  0  3  0  0  0  0  0  0
   39.6680   74.4080   59.5890 C   0  0  0  0  0  0  0  0  0  0  0  0
   38.8010   73.6880   58.7870 C   0  0  0  0  0  0  0  0  0  0  0  0
   38.7480   72.6220   58.8800 H   0  0  0  0  0  0  0  0  0  0  0  0
   37.9790   74.2780   57.8460 C   0  0  0  0  0  0  0  0  0  0  0  0
   37.0750   73.7460   56.9800 N   0  0  0  0  0  0  0  0  0  0  0  0
   36.5600   74.8070   56.2920 C   0  0  0  0  0  0  0  0  0  0  0  0
   35.8140   74.6580   55.5370 H   0  0  0  0  0  0  0  0  0  0  0  0
   37.1370   75.9400   56.7330 N   0  0  0  0  0  0  0  0  0  0  0  0
   38.0330   75.6470   57.7090 C   0  0  0  0  0  0  0  0  0  0  0  0
   38.8940   76.3990   58.5000 C   0  0  0  0  0  3  0  0  0  0  0  0
   36.8490   72.7200   56.8910 H   0  0  0  0  0  0  0  0  0  0  0  0
   41.8830   73.6750   60.3650 C   0  0  0  0  0  0  0  0  0  0  0  0
   40.4870   73.6670   60.5430 C   0  0  0  0  0  0  0  0  0  0  0  0
   40.0020   72.9430   61.6340 C   0  0  0  0  0  0  0  0  0  0  0  0
   40.8870   72.3020   62.4430 N   0  0  0  0  0  0  0  0  0  0  0  0
   42.2160   72.3390   62.2320 C   0  0  0  0  0  0  0  0  0  0  0  0
   42.7140   73.0280   61.1880 N   0  0  0  0  0  0  0  0  0  0  0  0
   42.3900   74.2010   59.5590 H   0  0  0  0  0  0  0  0  0  0  0  0
   38.9300   72.9410   61.7640 H   0  0  0  0  0  0  0  0  0  0  0  0
   42.8980   71.8200   62.8910 H   0  0  0  0  0  0  0  0  0  0  0  0
  1  2  1  0  0  0  0
  2 14  1  0  0  0  0
  3  4  1  0  0  0  0
  3  2  2  0  0  0  0
  5  3  1  0  0  0  0
  6  5  1  0  0  0  0
  7  9  2  0  0  0  0
  7  6  1  0  0  0  0
  8  7  1  0  0  0  0
  9 10  1  0  0  0  0
 10  5  2  0  0  0  0
 10 11  1  0  0  0  0
 11  1  2  0  0  0  0
 12  6  1  0  0  0  0
 13 14  2  0  0  0  0
 13 18  1  0  0  0  0
 14 15  1  0  0  0  0
 15 20  1  0  0  0  0
 15 16  2  0  0  0  0
 17 16  1  0  0  0  0
 17 21  1  0  0  0  0
 18 17  2  0  0  0  0
 19 13  1  0  0  0  0
M  END
>  <minimizedAffinity>
-5.36720562

$$$$

 OpenBabel03212520103D

 21 23  0  0  0  0  0  0  0  0999 V2000
   38.3480   74.3590   60.2880 C   0  0  0  0  0  3  0  0  0  0  0  0
   39.1140   74.9090   59.2730 C   0  0  0  0  0  0  0  0  0  0  0  0
   40.4780   74.6800   59.2750 C   0  0  0  0  0  0  0  0  0  0  0  0
   41.0890   75.0950   58.4990 H   0  0  0  0  0  0  0  0  0  0  0  0
   41.1150   73.9260   60.2420 C   0  0  0  0  0  0  0  0  0  0  0  0
   42.4240   73.5960   60.4080 N   0  0  0  0  0  0  0  0  0  0  0  0
   42.4670   72.8320   61.5390 C   0  0  0  0  0  0  0  0  0  0  0  0
   43.3980   72.4380   61.8960 H   0  0  0  0  0  0  0  0  0  0  0  0
   41.2220   72.7080   62.0350 N   0  0  0  0  0  0  0  0  0  0  0  0
   40.3470   73.3820   61.2460 C   0  0  0  0  0  0  0  0  0  0  0  0
   38.9730   73.5940   61.2740 C   0  0  0  0  0  3  0  0  0  0  0  0
   43.2120   73.8920   59.7720 H   0  0  0  0  0  0  0  0  0  0  0  0
   37.4890   75.1920   57.4500 C   0  0  0  0  0  0  0  0  0  0  0  0
   38.5600   75.7200   58.1950 C   0  0  0  0  0  0  0  0  0  0  0  0
   39.0030   76.9940   57.8310 C   0  0  0  0  0  0  0  0  0  0  0  0
   38.3880   77.6350   56.8020 N   0  0  0  0  0  0  0  0  0  0  0  0
   37.3650   77.0880   56.1200 C   0  0  0  0  0  0  0  0  0  0  0  0
   36.9160   75.8610   56.4460 N   0  0  0  0  0  0  0  0  0  0  0  0
   37.0460   74.2150   57.6310 H   0  0  0  0  0  0  0  0  0  0  0  0
   39.8260   77.3930   58.4060 H   0  0  0  0  0  0  0  0  0  0  0  0
   36.8920   77.6190   55.3050 H   0  0  0  0  0  0  0  0  0  0  0  0
  1 11  1  0  0  0  0
  2  3  1  0  0  0  0
  2  1  2  0  0  0  0
  3  5  2  0  0  0  0
  4  3  1  0  0  0  0
  5  6  1  0  0  0  0
  5 10  1  0  0  0  0
  6  7  1  0  0  0  0
  7  8  1  0  0  0  0
  7  9  2  0  0  0  0
 10 11  2  0  0  0  0
 10  9  1  0  0  0  0
 12  6  1  0  0  0  0
 13 19  1  0  0  0  0
 13 14  1  0  0  0  0
 14  2  1  0  0  0  0
 15 14  2  0  0  0  0
 15 20  1  0  0  0  0
 16 15  1  0  0  0  0
 17 18  1  0  0  0  0
 17 16  2  0  0  0  0
 18 13  2  0  0  0  0
 21 17  1  0  0  0  0
M  END
>  <minimizedAffinity>
-4.93178272

$$$$

 OpenBabel03212520103D

 21 23  0  0  0  0  0  0  0  0999 V2000
   40.4190   74.9900   60.0260 C   0  0  0  0  0  3  0  0  0  0  0  0
   40.2050   73.6230   59.9750 C   0  0  0  0  0  0  0  0  0  0  0  0
   39.2160   73.1380   59.1380 C   0  0  0  0  0  0  0  0  0  0  0  0
   39.0340   72.0840   59.0830 H   0  0  0  0  0  0  0  0  0  0  0  0
   38.4290   73.9550   58.3480 C   0  0  0  0  0  0  0  0  0  0  0  0
   37.4250   73.6670   57.4770 N   0  0  0  0  0  0  0  0  0  0  0  0
   37.0150   74.8720   56.9830 C   0  0  0  0  0  0  0  0  0  0  0  0
   36.2210   74.9260   56.2650 H   0  0  0  0  0  0  0  0  0  0  0  0
   37.7510   75.8510   57.5410 N   0  0  0  0  0  0  0  0  0  0  0  0
   38.6490   75.3130   58.4040 C   0  0  0  0  0  0  0  0  0  0  0  0
   39.6360   75.8320   59.2350 C   0  0  0  0  0  3  0  0  0  0  0  0
   37.0680   72.6990   57.2590 H   0  0  0  0  0  0  0  0  0  0  0  0
   41.1800   72.9300   62.1230 C   0  0  0  0  0  0  0  0  0  0  0  0
   40.9690   72.6580   60.7580 C   0  0  0  0  0  0  0  0  0  0  0  0
   41.5150   71.4700   60.2680 C   0  0  0  0  0  0  0  0  0  0  0  0
   42.2030   70.6620   61.1170 N   0  0  0  0  0  0  0  0  0  0  0  0
   42.3790   70.9660   62.4170 C   0  0  0  0  0  0  0  0  0  0  0  0
   41.8660   72.1040   62.9200 N   0  0  0  0  0  0  0  0  0  0  0  0
   40.8070   73.8160   62.6310 H   0  0  0  0  0  0  0  0  0  0  0  0
   41.3490   71.2680   59.2190 H   0  0  0  0  0  0  0  0  0  0  0  0
   42.9310   70.3060   63.0720 H   0  0  0  0  0  0  0  0  0  0  0  0
  2  1  1  0  0  0  0
  2 14  1  0  0  0  0
  3  2  2  0  0  0  0
  4  3  1  0  0  0  0
  5 10  2  0  0  0  0
  5  3  1  0  0  0  0
  6  5  1  0  0  0  0
  7  6  1  0  0  0  0
  7  9  2  0  0  0  0
  8  7  1  0  0  0  0
  9 10  1  0  0  0  0
 10 11  1  0  0  0  0
 11  1  2  0  0  0  0
 12  6  1  0  0  0  0
 13 19  1  0  0  0  0
 13 18  1  0  0  0  0
 14 13  2  0  0  0  0
 15 14  1  0  0  0  0
 15 16  2  0  0  0  0
 16 17  1  0  0  0  0
 17 18  2  0  0  0  0
 17 21  1  0  0  0  0
 20 15  1  0  0  0  0
M  END
>  <minimizedAffinity>
-4.85784578

$$$$

 OpenBabel03212520103D

 21 23  0  0  0  0  0  0  0  0999 V2000
   42.6090   72.7530   60.0710 C   0  0  0  0  0  3  0  0  0  0  0  0
   41.5520   73.3270   60.7580 C   0  0  0  0  0  0  0  0  0  0  0  0
   41.0900   72.7020   61.9030 C   0  0  0  0  0  0  0  0  0  0  0  0
   40.2740   73.1290   62.4510 H   0  0  0  0  0  0  0  0  0  0  0  0
   41.6340   71.5310   62.3950 C   0  0  0  0  0  0  0  0  0  0  0  0
   41.3190   70.7830   63.4860 N   0  0  0  0  0  0  0  0  0  0  0  0
   42.1950   69.7340   63.4730 C   0  0  0  0  0  0  0  0  0  0  0  0
   42.1580   68.9840   64.2380 H   0  0  0  0  0  0  0  0  0  0  0  0
   43.0070   69.8520   62.4070 N   0  0  0  0  0  0  0  0  0  0  0  0
   42.6850   70.9680   61.7070 C   0  0  0  0  0  0  0  0  0  0  0  0
   43.1730   71.5710   60.5530 C   0  0  0  0  0  3  0  0  0  0  0  0
   40.5500   71.0020   64.1740 H   0  0  0  0  0  0  0  0  0  0  0  0
   41.5200   75.3450   59.3540 C   0  0  0  0  0  0  0  0  0  0  0  0
   40.8950   74.5610   60.3430 C   0  0  0  0  0  0  0  0  0  0  0  0
   39.6830   75.0400   60.8430 C   0  0  0  0  0  0  0  0  0  0  0  0
   39.1870   76.2090   60.3570 N   0  0  0  0  0  0  0  0  0  0  0  0
   39.8220   76.9240   59.4100 C   0  0  0  0  0  0  0  0  0  0  0  0
   40.9930   76.4890   58.9080 N   0  0  0  0  0  0  0  0  0  0  0  0
   42.4640   75.0850   58.8800 H   0  0  0  0  0  0  0  0  0  0  0  0
   39.2090   74.4340   61.6010 H   0  0  0  0  0  0  0  0  0  0  0  0
   39.4060   77.8510   59.0400 H   0  0  0  0  0  0  0  0  0  0  0  0
  1 11  2  0  0  0  0
  1  2  1  0  0  0  0
  2  3  2  0  0  0  0
  3  5  1  0  0  0  0
  3  4  1  0  0  0  0
  5  6  1  0  0  0  0
  6 12  1  0  0  0  0
  7  6  1  0  0  0  0
  7  8  1  0  0  0  0
  9  7  2  0  0  0  0
 10  5  2  0  0  0  0
 10  9  1  0  0  0  0
 11 10  1  0  0  0  0
 13 14  1  0  0  0  0
 14  2  1  0  0  0  0
 14 15  2  0  0  0  0
 15 20  1  0  0  0  0
 16 15  1  0  0  0  0
 17 16  2  0  0  0  0
 18 13  2  0  0  0  0
 18 17  1  0  0  0  0
 19 13  1  0  0  0  0
 21 17  1  0  0  0  0
M  END
>  <minimizedAffinity>
-4.7976079

$$$$

 OpenBabel03212520103D

 21 23  0  0  0  0  0  0  0  0999 V2000
   38.8130   73.5010   59.0510 C   0  0  0  0  0  3  0  0  0  0  0  0
   39.8970   74.1450   59.6230 C   0  0  0  0  0  0  0  0  0  0  0  0
   40.1320   75.4680   59.2920 C   0  0  0  0  0  0  0  0  0  0  0  0
   40.9640   75.9860   59.7240 H   0  0  0  0  0  0  0  0  0  0  0  0
   39.3330   76.1800   58.4180 C   0  0  0  0  0  0  0  0  0  0  0  0
   39.4030   77.4650   57.9790 N   0  0  0  0  0  0  0  0  0  0  0  0
   38.3470   77.6170   57.1260 C   0  0  0  0  0  0  0  0  0  0  0  0
   38.1730   78.5540   56.6350 H   0  0  0  0  0  0  0  0  0  0  0  0
   37.6660   76.4580   57.0570 N   0  0  0  0  0  0  0  0  0  0  0  0
   38.2560   75.5330   57.8550 C   0  0  0  0  0  0  0  0  0  0  0  0
   37.9930   74.2030   58.1660 C   0  0  0  0  0  3  0  0  0  0  0  0
   40.1380   78.1660   58.2620 H   0  0  0  0  0  0  0  0  0  0  0  0
   40.2650   72.8550   61.6830 C   0  0  0  0  0  0  0  0  0  0  0  0
   40.8130   73.5050   60.5610 C   0  0  0  0  0  0  0  0  0  0  0  0
   42.2040   73.4760   60.4420 C   0  0  0  0  0  0  0  0  0  0  0  0
   42.9320   72.8360   61.3950 N   0  0  0  0  0  0  0  0  0  0  0  0
   42.3610   72.2280   62.4520 C   0  0  0  0  0  0  0  0  0  0  0  0
   41.0230   72.2390   62.5950 N   0  0  0  0  0  0  0  0  0  0  0  0
   39.1990   72.8000   61.8930 H   0  0  0  0  0  0  0  0  0  0  0  0
   42.6180   73.9760   59.5790 H   0  0  0  0  0  0  0  0  0  0  0  0
   42.9640   71.7260   63.1970 H   0  0  0  0  0  0  0  0  0  0  0  0
  1  2  1  0  0  0  0
  2 14  1  0  0  0  0
  3  2  2  0  0  0  0
  3  4  1  0  0  0  0
  5  3  1  0  0  0  0
  6 12  1  0  0  0  0
  6  5  1  0  0  0  0
  7  6  1  0  0  0  0
  8  7  1  0  0  0  0
  9  7  2  0  0  0  0
  9 10  1  0  0  0  0
 10 11  1  0  0  0  0
 10  5  2  0  0  0  0
 11  1  2  0  0  0  0
 13 19  1  0  0  0  0
 13 18  1  0  0  0  0
 14 13  2  0  0  0  0
 15 14  1  0  0  0  0
 15 16  2  0  0  0  0
 16 17  1  0  0  0  0
 17 18  2  0  0  0  0
 17 21  1  0  0  0  0
 20 15  1  0  0  0  0
M  END
>  <minimizedAffinity>
-4.75058126

$$$$

 OpenBabel03212520103D

 21 23  0  0  0  0  0  0  0  0999 V2000
   39.6370   74.0890   61.2890 C   0  0  0  0  0  3  0  0  0  0  0  0
   40.8860   73.6980   60.8370 C   0  0  0  0  0  0  0  0  0  0  0  0
   41.5120   74.4690   59.8740 C   0  0  0  0  0  0  0  0  0  0  0  0
   42.4790   74.1860   59.5110 H   0  0  0  0  0  0  0  0  0  0  0  0
   40.9510   75.6130   59.3410 C   0  0  0  0  0  0  0  0  0  0  0  0
   41.4070   76.4860   58.4020 N   0  0  0  0  0  0  0  0  0  0  0  0
   40.4260   77.4290   58.2750 C   0  0  0  0  0  0  0  0  0  0  0  0
   40.5390   78.2430   57.5870 H   0  0  0  0  0  0  0  0  0  0  0  0
   39.4150   77.1290   59.1110 N   0  0  0  0  0  0  0  0  0  0  0  0
   39.7090   75.9950   59.7960 C   0  0  0  0  0  0  0  0  0  0  0  0
   39.0520   75.2430   60.7640 C   0  0  0  0  0  3  0  0  0  0  0  0
   42.3310   76.4120   57.9010 H   0  0  0  0  0  0  0  0  0  0  0  0
   41.1480   71.9340   62.5290 C   0  0  0  0  0  0  0  0  0  0  0  0
   41.5840   72.5130   61.3220 C   0  0  0  0  0  0  0  0  0  0  0  0
   42.6610   71.8920   60.6870 C   0  0  0  0  0  0  0  0  0  0  0  0
   43.2140   70.7880   61.2570 N   0  0  0  0  0  0  0  0  0  0  0  0
   42.7600   70.2700   62.4140 C   0  0  0  0  0  0  0  0  0  0  0  0
   41.7240   70.8470   63.0510 N   0  0  0  0  0  0  0  0  0  0  0  0
   40.3190   72.3150   63.1210 H   0  0  0  0  0  0  0  0  0  0  0  0
   42.9920   72.3420   59.7620 H   0  0  0  0  0  0  0  0  0  0  0  0
   43.2170   69.3910   62.8460 H   0  0  0  0  0  0  0  0  0  0  0  0
  2  1  1  0  0  0  0
  2 14  1  0  0  0  0
  3  2  2  0  0  0  0
  4  3  1  0  0  0  0
  5 10  2  0  0  0  0
  5  3  1  0  0  0  0
  6  5  1  0  0  0  0
  7  6  1  0  0  0  0
  7  9  2  0  0  0  0
  8  7  1  0  0  0  0
  9 10  1  0  0  0  0
 10 11  1  0  0  0  0
 11  1  2  0  0  0  0
 12  6  1  0  0  0  0
 13 18  1  0  0  0  0
 13 19  1  0  0  0  0
 14 13  2  0  0  0  0
 15 16  2  0  0  0  0
 15 14  1  0  0  0  0
 16 17  1  0  0  0  0
 17 21  1  0  0  0  0
 17 18  2  0  0  0  0
 20 15  1  0  0  0  0
M  END
>  <minimizedAffinity>
-4.66644239

$$$$

 OpenBabel03212520103D

 21 23  0  0  0  0  0  0  0  0999 V2000
   39.3150   71.8840   58.3190 C   0  0  0  0  0  3  0  0  0  0  0  0
   39.8210   72.7860   59.2400 C   0  0  0  0  0  0  0  0  0  0  0  0
   39.4260   74.1090   59.1570 C   0  0  0  0  0  0  0  0  0  0  0  0
   39.8040   74.8240   59.8600 H   0  0  0  0  0  0  0  0  0  0  0  0
   38.5480   74.5750   58.1980 C   0  0  0  0  0  0  0  0  0  0  0  0
   38.0510   75.8190   57.9610 N   0  0  0  0  0  0  0  0  0  0  0  0
   37.2260   75.6820   56.8810 C   0  0  0  0  0  0  0  0  0  0  0  0
   36.7010   76.5290   56.4850 H   0  0  0  0  0  0  0  0  0  0  0  0
   37.2300   74.3970   56.4830 N   0  0  0  0  0  0  0  0  0  0  0  0
   38.0490   73.6720   57.2860 C   0  0  0  0  0  0  0  0  0  0  0  0
   38.4260   72.3350   57.3420 C   0  0  0  0  0  3  0  0  0  0  0  0
   38.2810   76.6830   58.5200 H   0  0  0  0  0  0  0  0  0  0  0  0
   40.4300   72.7840   61.6220 C   0  0  0  0  0  0  0  0  0  0  0  0
   40.7520   72.4180   60.3010 C   0  0  0  0  0  0  0  0  0  0  0  0
   41.9500   71.7240   60.1220 C   0  0  0  0  0  0  0  0  0  0  0  0
   42.7190   71.4470   61.2080 N   0  0  0  0  0  0  0  0  0  0  0  0
   42.3680   71.8180   62.4540 C   0  0  0  0  0  0  0  0  0  0  0  0
   41.2190   72.4890   62.6600 N   0  0  0  0  0  0  0  0  0  0  0  0
   39.5270   73.3230   61.9010 H   0  0  0  0  0  0  0  0  0  0  0  0
   42.1920   71.4470   59.1060 H   0  0  0  0  0  0  0  0  0  0  0  0
   42.9970   71.5850   63.3020 H   0  0  0  0  0  0  0  0  0  0  0  0
  1  2  1  0  0  0  0
  2 14  1  0  0  0  0
  3  2  2  0  0  0  0
  3  4  1  0  0  0  0
  5  3  1  0  0  0  0
  6  5  1  0  0  0  0
  6 12  1  0  0  0  0
  7  6  1  0  0  0  0
  8  7  1  0  0  0  0
  9  7  2  0  0  0  0
  9 10  1  0  0  0  0
 10 11  1  0  0  0  0
 10  5  2  0  0  0  0
 11  1  2  0  0  0  0
 13 19  1  0  0  0  0
 13 18  1  0  0  0  0
 14 13  2  0  0  0  0
 15 14  1  0  0  0  0
 15 16  2  0  0  0  0
 16 17  1  0  0  0  0
 17 18  2  0  0  0  0
 17 21  1  0  0  0  0
 20 15  1  0  0  0  0
M  END
>  <minimizedAffinity>
-4.60748529

$$$$

 OpenBabel03212520103D

 21 23  0  0  0  0  0  0  0  0999 V2000
   41.8310   72.1450   59.5750 C   0  0  0  0  0  3  0  0  0  0  0  0
   41.0750   72.9730   60.3880 C   0  0  0  0  0  0  0  0  0  0  0  0
   40.8550   72.5930   61.7000 C   0  0  0  0  0  0  0  0  0  0  0  0
   40.2740   73.2190   62.3460 H   0  0  0  0  0  0  0  0  0  0  0  0
   41.3560   71.4240   62.2400 C   0  0  0  0  0  0  0  0  0  0  0  0
   41.2470   70.8900   63.4860 N   0  0  0  0  0  0  0  0  0  0  0  0
   41.9470   69.7180   63.4420 C   0  0  0  0  0  0  0  0  0  0  0  0
   42.0180   69.0930   64.3100 H   0  0  0  0  0  0  0  0  0  0  0  0
   42.4570   69.5550   62.2080 N   0  0  0  0  0  0  0  0  0  0  0  0
   42.1070   70.6060   61.4250 C   0  0  0  0  0  0  0  0  0  0  0  0
   42.3460   70.9600   60.1020 C   0  0  0  0  0  3  0  0  0  0  0  0
   40.7220   71.3240   64.2900 H   0  0  0  0  0  0  0  0  0  0  0  0
   39.9500   75.0970   60.9070 C   0  0  0  0  0  0  0  0  0  0  0  0
   40.4940   74.2340   59.9380 C   0  0  0  0  0  0  0  0  0  0  0  0
   40.4310   74.6670   58.6120 C   0  0  0  0  0  0  0  0  0  0  0  0
   39.8610   75.8710   58.3400 N   0  0  0  0  0  0  0  0  0  0  0  0
   39.3540   76.6630   59.3040 C   0  0  0  0  0  0  0  0  0  0  0  0
   39.3990   76.2730   60.5910 N   0  0  0  0  0  0  0  0  0  0  0  0
   39.9380   74.8830   61.9740 H   0  0  0  0  0  0  0  0  0  0  0  0
   40.8500   73.9990   57.8730 H   0  0  0  0  0  0  0  0  0  0  0  0
   38.9060   77.6170   59.0610 H   0  0  0  0  0  0  0  0  0  0  0  0
  1 11  2  0  0  0  0
  1  2  1  0  0  0  0
  2  3  2  0  0  0  0
  3  5  1  0  0  0  0
  3  4  1  0  0  0  0
  5  6  1  0  0  0  0
  6 12  1  0  0  0  0
  7  6  1  0  0  0  0
  7  8  1  0  0  0  0
  9  7  2  0  0  0  0
 10  9  1  0  0  0  0
 10  5  2  0  0  0  0
 11 10  1  0  0  0  0
 13 19  1  0  0  0  0
 14  2  1  0  0  0  0
 14 13  2  0  0  0  0
 15 14  1  0  0  0  0
 16 15  2  0  0  0  0
 16 17  1  0  0  0  0
 17 18  2  0  0  0  0
 18 13  1  0  0  0  0
 20 15  1  0  0  0  0
 21 17  1  0  0  0  0
M  END
>  <minimizedAffinity>
-4.52385569

$$$$

 OpenBabel03212520103D

 21 23  0  0  0  0  0  0  0  0999 V2000
   39.7520   74.4660   56.7310 C   0  0  0  0  0  3  0  0  0  0  0  0
   38.4990   75.0520   56.8070 C   0  0  0  0  0  0  0  0  0  0  0  0
   37.8470   75.0650   58.0260 C   0  0  0  0  0  0  0  0  0  0  0  0
   36.8780   75.5140   58.1080 H   0  0  0  0  0  0  0  0  0  0  0  0
   38.3870   74.5220   59.1760 C   0  0  0  0  0  0  0  0  0  0  0  0
   37.9050   74.4420   60.4460 N   0  0  0  0  0  0  0  0  0  0  0  0
   38.8740   73.8000   61.1630 C   0  0  0  0  0  0  0  0  0  0  0  0
   38.7400   73.6060   62.2090 H   0  0  0  0  0  0  0  0  0  0  0  0
   39.9030   73.5050   60.3490 N   0  0  0  0  0  0  0  0  0  0  0  0
   39.6330   73.9430   59.0930 C   0  0  0  0  0  0  0  0  0  0  0  0
   40.3150   73.9130   57.8820 C   0  0  0  0  0  3  0  0  0  0  0  0
   36.9710   74.8110   60.7660 H   0  0  0  0  0  0  0  0  0  0  0  0
   37.9610   75.0450   54.4070 C   0  0  0  0  0  0  0  0  0  0  0  0
   37.8240   75.6610   55.6660 C   0  0  0  0  0  0  0  0  0  0  0  0
   37.0400   76.8150   55.7110 C   0  0  0  0  0  0  0  0  0  0  0  0
   36.4670   77.2670   54.5650 N   0  0  0  0  0  0  0  0  0  0  0  0
   36.6280   76.6420   53.3830 C   0  0  0  0  0  0  0  0  0  0  0  0
   37.3790   75.5280   53.3060 N   0  0  0  0  0  0  0  0  0  0  0  0
   38.5400   74.1400   54.2340 H   0  0  0  0  0  0  0  0  0  0  0  0
   36.9390   77.2830   56.6800 H   0  0  0  0  0  0  0  0  0  0  0  0
   36.1610   77.0220   52.4850 H   0  0  0  0  0  0  0  0  0  0  0  0
  1  2  2  0  0  0  0
  1 11  1  0  0  0  0
  2  3  1  0  0  0  0
  3  4  1  0  0  0  0
  3  5  2  0  0  0  0
  5  6  1  0  0  0  0
  6 12  1  0  0  0  0
  6  7  1  0  0  0  0
  7  8  1  0  0  0  0
  9  7  2  0  0  0  0
 10  5  1  0  0  0  0
 10  9  1  0  0  0  0
 11 10  2  0  0  0  0
 13 14  1  0  0  0  0
 14 15  2  0  0  0  0
 14  2  1  0  0  0  0
 15 20  1  0  0  0  0
 16 15  1  0  0  0  0
 17 16  2  0  0  0  0
 18 17  1  0  0  0  0
 18 13  2  0  0  0  0
 19 13  1  0  0  0  0
 21 17  1  0  0  0  0
M  END
>  <minimizedAffinity>
-4.46124172

$$$$
