
 OpenBabel03212519593D

 21 23  0  0  0  0  0  0  0  0999 V2000
   39.7460   75.6450   59.3500 C   0  0  0  0  0  3  0  0  0  0  0  0
   39.7120   74.2500   59.4350 C   0  0  0  0  0  0  0  0  0  0  0  0
   38.8350   73.5120   58.6650 C   0  0  0  0  0  0  0  0  0  0  0  0
   38.8040   72.4310   58.7260 H   0  0  0  0  0  0  0  0  0  0  0  0
   37.9590   74.1290   57.7810 C   0  0  0  0  0  0  0  0  0  0  0  0
   37.0080   73.7530   56.9100 N   0  0  0  0  0  0  0  0  0  0  0  0
   36.4670   74.8390   56.3050 C   0  0  0  0  0  0  0  0  0  0  0  0
   35.6840   74.8730   55.5580 H   0  0  0  0  0  0  0  0  0  0  0  0
   37.1200   75.9090   56.8350 N   0  0  0  0  0  0  0  0  0  0  0  0
   38.0330   75.5020   57.7350 C   0  0  0  0  0  0  0  0  0  0  0  0
   38.8830   76.2970   58.4760 C   0  0  0  0  0  3  0  0  0  0  0  0
   36.7580   72.7640   56.7550 H   0  0  0  0  0  0  0  0  0  0  0  0
   42.8170   73.0860   60.9830 C   0  0  0  0  0  0  0  0  0  0  0  0
   42.3690   72.3490   62.1060 C   0  0  0  0  0  0  0  0  0  0  0  0
   40.9900   72.2710   62.3020 C   0  0  0  0  0  0  0  0  0  0  0  0
   40.1600   72.8920   61.4270 N   0  0  0  0  0  0  0  0  0  0  0  0
   40.6280   73.5910   60.3610 C   0  0  0  0  0  0  0  0  0  0  0  0
   41.9530   73.6830   60.1460 N   0  0  0  0  0  0  0  0  0  0  0  0
   43.8870   73.1580   60.8130 H   0  0  0  0  0  0  0  0  0  0  0  0
   43.0340   71.8680   62.7810 H   0  0  0  0  0  0  0  0  0  0  0  0
   40.5550   71.7320   63.1300 H   0  0  0  0  0  0  0  0  0  0  0  0
  1  2  1  0  0  0  0
  2 17  1  0  0  0  0
  3  4  1  0  0  0  0
  3  2  2  0  0  0  0
  5  3  1  0  0  0  0
  6  5  1  0  0  0  0
  7  9  2  0  0  0  0
  7  6  1  0  0  0  0
  8  7  1  0  0  0  0
  9 10  1  0  0  0  0
 10  5  2  0  0  0  0
 10 11  1  0  0  0  0
 11  1  2  0  0  0  0
 12  6  1  0  0  0  0
 13 14  1  0  0  0  0
 14 15  2  0  0  0  0
 14 20  1  0  0  0  0
 15 21  1  0  0  0  0
 16 15  1  0  0  0  0
 17 16  2  0  0  0  0
 18 17  1  0  0  0  0
 18 13  2  0  0  0  0
 19 13  1  0  0  0  0
M  END
>  <minimizedAffinity>
-5.26228046

$$$$

 OpenBabel03212519593D

 21 23  0  0  0  0  0  0  0  0999 V2000
   42.6450   72.9370   60.1940 C   0  0  0  0  0  3  0  0  0  0  0  0
   41.4520   73.4220   60.7380 C   0  0  0  0  0  0  0  0  0  0  0  0
   40.8440   72.7860   61.8030 C   0  0  0  0  0  0  0  0  0  0  0  0
   39.9210   73.1590   62.2280 H   0  0  0  0  0  0  0  0  0  0  0  0
   41.3970   71.6450   62.3690 C   0  0  0  0  0  0  0  0  0  0  0  0
   41.1020   70.7970   63.3680 N   0  0  0  0  0  0  0  0  0  0  0  0
   42.0470   69.8290   63.4580 C   0  0  0  0  0  0  0  0  0  0  0  0
   42.0980   69.0010   64.1550 H   0  0  0  0  0  0  0  0  0  0  0  0
   42.9440   70.1080   62.4740 N   0  0  0  0  0  0  0  0  0  0  0  0
   42.5710   71.2090   61.7980 C   0  0  0  0  0  0  0  0  0  0  0  0
   43.2270   71.7960   60.7350 C   0  0  0  0  0  3  0  0  0  0  0  0
   40.2630   70.9070   63.9580 H   0  0  0  0  0  0  0  0  0  0  0  0
   39.4030   76.4300   60.3430 C   0  0  0  0  0  0  0  0  0  0  0  0
   39.7410   76.8890   59.0470 C   0  0  0  0  0  0  0  0  0  0  0  0
   40.6780   76.1410   58.3340 C   0  0  0  0  0  0  0  0  0  0  0  0
   41.2110   75.0310   58.9030 N   0  0  0  0  0  0  0  0  0  0  0  0
   40.8620   74.6210   60.1500 C   0  0  0  0  0  0  0  0  0  0  0  0
   39.9610   75.3240   60.8610 N   0  0  0  0  0  0  0  0  0  0  0  0
   38.6760   76.9990   60.9140 H   0  0  0  0  0  0  0  0  0  0  0  0
   39.3120   77.7620   58.6170 H   0  0  0  0  0  0  0  0  0  0  0  0
   40.9970   76.4140   57.3390 H   0  0  0  0  0  0  0  0  0  0  0  0
  1 11  2  0  0  0  0
  1  2  1  0  0  0  0
  2  3  2  0  0  0  0
  3  4  1  0  0  0  0
  3  5  1  0  0  0  0
  5  6  1  0  0  0  0
  6  7  1  0  0  0  0
  6 12  1  0  0  0  0
  7  8  1  0  0  0  0
  9  7  2  0  0  0  0
 10  5  2  0  0  0  0
 10  9  1  0  0  0  0
 11 10  1  0  0  0  0
 13 18  1  0  0  0  0
 13 19  1  0  0  0  0
 14 13  2  0  0  0  0
 15 16  2  0  0  0  0
 15 14  1  0  0  0  0
 16 17  1  0  0  0  0
 17  2  1  0  0  0  0
 17 18  2  0  0  0  0
 20 14  1  0  0  0  0
 21 15  1  0  0  0  0
M  END
>  <minimizedAffinity>
-4.81510878

$$$$

 OpenBabel03212519593D

 21 23  0  0  0  0  0  0  0  0999 V2000
   42.4920   72.8540   60.0220 C   0  0  0  0  0  3  0  0  0  0  0  0
   41.8460   72.3390   61.1490 C   0  0  0  0  0  0  0  0  0  0  0  0
   40.7710   72.9960   61.7160 C   0  0  0  0  0  0  0  0  0  0  0  0
   40.2670   72.6010   62.5890 H   0  0  0  0  0  0  0  0  0  0  0  0
   40.2970   74.1890   61.1860 C   0  0  0  0  0  0  0  0  0  0  0  0
   39.3190   75.0690   61.4560 N   0  0  0  0  0  0  0  0  0  0  0  0
   39.3380   76.0850   60.5580 C   0  0  0  0  0  0  0  0  0  0  0  0
   38.6850   76.9470   60.5030 H   0  0  0  0  0  0  0  0  0  0  0  0
   40.3690   75.8010   59.7150 N   0  0  0  0  0  0  0  0  0  0  0  0
   40.9670   74.6530   60.0770 C   0  0  0  0  0  0  0  0  0  0  0  0
   42.0450   74.0470   59.4640 C   0  0  0  0  0  3  0  0  0  0  0  0
   38.6680   74.9480   62.2480 H   0  0  0  0  0  0  0  0  0  0  0  0
   43.6750   69.1890   61.5040 C   0  0  0  0  0  0  0  0  0  0  0  0
   43.2710   68.7160   62.7760 C   0  0  0  0  0  0  0  0  0  0  0  0
   42.3670   69.5050   63.4870 C   0  0  0  0  0  0  0  0  0  0  0  0
   41.9260   70.6640   62.9390 N   0  0  0  0  0  0  0  0  0  0  0  0
   42.3370   71.0870   61.7150 C   0  0  0  0  0  0  0  0  0  0  0  0
   43.2090   70.3450   61.0060 N   0  0  0  0  0  0  0  0  0  0  0  0
   44.3790   68.5880   60.9350 H   0  0  0  0  0  0  0  0  0  0  0  0
   43.6280   67.8030   63.1890 H   0  0  0  0  0  0  0  0  0  0  0  0
   42.0020   69.2260   64.4640 H   0  0  0  0  0  0  0  0  0  0  0  0
  1  2  1  0  0  0  0
  2 17  1  0  0  0  0
  2  3  2  0  0  0  0
  3  4  1  0  0  0  0
  5  6  1  0  0  0  0
  5  3  1  0  0  0  0
  6 12  1  0  0  0  0
  7  6  1  0  0  0  0
  8  7  1  0  0  0  0
  9 10  1  0  0  0  0
  9  7  2  0  0  0  0
 10  5  2  0  0  0  0
 11  1  2  0  0  0  0
 11 10  1  0  0  0  0
 13 14  1  0  0  0  0
 14 20  1  0  0  0  0
 14 15  2  0  0  0  0
 15 21  1  0  0  0  0
 16 15  1  0  0  0  0
 17 16  2  0  0  0  0
 18 13  2  0  0  0  0
 18 17  1  0  0  0  0
 19 13  1  0  0  0  0
M  END
>  <minimizedAffinity>
-4.67172003

$$$$

 OpenBabel03212519593D

 21 23  0  0  0  0  0  0  0  0999 V2000
   38.9580   74.3130   60.1940 C   0  0  0  0  0  3  0  0  0  0  0  0
   40.0610   74.7350   59.4470 C   0  0  0  0  0  0  0  0  0  0  0  0
   41.3380   74.3170   59.7640 C   0  0  0  0  0  0  0  0  0  0  0  0
   42.1960   74.6400   59.1880 H   0  0  0  0  0  0  0  0  0  0  0  0
   41.5700   73.4640   60.8350 C   0  0  0  0  0  0  0  0  0  0  0  0
   42.6270   72.8730   61.4160 N   0  0  0  0  0  0  0  0  0  0  0  0
   42.2260   72.1190   62.4700 C   0  0  0  0  0  0  0  0  0  0  0  0
   42.8320   71.5220   63.1390 H   0  0  0  0  0  0  0  0  0  0  0  0
   40.8740   72.2650   62.5220 N   0  0  0  0  0  0  0  0  0  0  0  0
   40.4510   73.0770   61.5380 C   0  0  0  0  0  0  0  0  0  0  0  0
   39.1510   73.4590   61.2740 C   0  0  0  0  0  3  0  0  0  0  0  0
   43.5920   73.0030   61.0730 H   0  0  0  0  0  0  0  0  0  0  0  0
   38.3410   76.9030   57.0510 C   0  0  0  0  0  0  0  0  0  0  0  0
   39.3800   77.3300   56.1890 C   0  0  0  0  0  0  0  0  0  0  0  0
   40.6630   76.8530   56.4590 C   0  0  0  0  0  0  0  0  0  0  0  0
   40.8520   76.0200   57.5130 N   0  0  0  0  0  0  0  0  0  0  0  0
   39.8290   75.6330   58.3190 C   0  0  0  0  0  0  0  0  0  0  0  0
   38.5810   76.0770   58.0820 N   0  0  0  0  0  0  0  0  0  0  0  0
   37.3350   77.2640   56.8570 H   0  0  0  0  0  0  0  0  0  0  0  0
   39.2130   77.9840   55.3670 H   0  0  0  0  0  0  0  0  0  0  0  0
   41.5170   77.1230   55.8570 H   0  0  0  0  0  0  0  0  0  0  0  0
  1 11  1  0  0  0  0
  2  3  1  0  0  0  0
  2  1  2  0  0  0  0
  3  5  2  0  0  0  0
  4  3  1  0  0  0  0
  5  6  1  0  0  0  0
  5 10  1  0  0  0  0
  6  7  1  0  0  0  0
  7  9  2  0  0  0  0
  7  8  1  0  0  0  0
 10  9  1  0  0  0  0
 11 10  2  0  0  0  0
 12  6  1  0  0  0  0
 13 18  1  0  0  0  0
 14 15  1  0  0  0  0
 14 13  2  0  0  0  0
 15 16  2  0  0  0  0
 16 17  1  0  0  0  0
 17  2  1  0  0  0  0
 18 17  2  0  0  0  0
 19 13  1  0  0  0  0
 20 14  1  0  0  0  0
 21 15  1  0  0  0  0
M  END
>  <minimizedAffinity>
-4.57646847

$$$$

 OpenBabel03212519593D

 21 23  0  0  0  0  0  0  0  0999 V2000
   42.2680   71.5170   62.6380 C   0  0  0  0  0  3  0  0  0  0  0  0
   42.4800   71.4940   61.2570 C   0  0  0  0  0  0  0  0  0  0  0  0
   42.3480   70.3240   60.5350 C   0  0  0  0  0  0  0  0  0  0  0  0
   42.5100   70.3020   59.4650 H   0  0  0  0  0  0  0  0  0  0  0  0
   42.0000   69.1320   61.1570 C   0  0  0  0  0  0  0  0  0  0  0  0
   41.7880   67.8560   60.7950 N   0  0  0  0  0  0  0  0  0  0  0  0
   41.4620   67.1070   61.8780 C   0  0  0  0  0  0  0  0  0  0  0  0
   41.2330   66.0500   61.9210 H   0  0  0  0  0  0  0  0  0  0  0  0
   41.4780   67.9700   62.9300 N   0  0  0  0  0  0  0  0  0  0  0  0
   41.8020   69.2080   62.5170 C   0  0  0  0  0  0  0  0  0  0  0  0
   41.9190   70.3420   63.2940 C   0  0  0  0  0  3  0  0  0  0  0  0
   41.8740   67.5350   59.8180 H   0  0  0  0  0  0  0  0  0  0  0  0
   42.1830   74.6900   59.4960 C   0  0  0  0  0  0  0  0  0  0  0  0
   43.5280   75.1030   59.3370 C   0  0  0  0  0  0  0  0  0  0  0  0
   44.5150   74.2590   59.8470 C   0  0  0  0  0  0  0  0  0  0  0  0
   44.1480   73.1050   60.4590 N   0  0  0  0  0  0  0  0  0  0  0  0
   42.8460   72.7420   60.5930 C   0  0  0  0  0  0  0  0  0  0  0  0
   41.8730   73.5380   60.1110 N   0  0  0  0  0  0  0  0  0  0  0  0
   41.4010   75.3340   59.1060 H   0  0  0  0  0  0  0  0  0  0  0  0
   43.7970   76.0120   58.8540 H   0  0  0  0  0  0  0  0  0  0  0  0
   45.5670   74.4900   59.7720 H   0  0  0  0  0  0  0  0  0  0  0  0
  1 11  1  0  0  0  0
  2  1  2  0  0  0  0
  3  5  2  0  0  0  0
  3  2  1  0  0  0  0
  4  3  1  0  0  0  0
  5 10  1  0  0  0  0
  6  5  1  0  0  0  0
  6  7  1  0  0  0  0
  7  8  1  0  0  0  0
  7  9  2  0  0  0  0
 10  9  1  0  0  0  0
 10 11  2  0  0  0  0
 12  6  1  0  0  0  0
 13 18  1  0  0  0  0
 14 13  2  0  0  0  0
 14 15  1  0  0  0  0
 15 16  2  0  0  0  0
 16 17  1  0  0  0  0
 17  2  1  0  0  0  0
 18 17  2  0  0  0  0
 19 13  1  0  0  0  0
 20 14  1  0  0  0  0
 21 15  1  0  0  0  0
M  END
>  <minimizedAffinity>
-4.5250721

$$$$

 OpenBabel03212519593D

 21 23  0  0  0  0  0  0  0  0999 V2000
   41.3610   74.4610   59.8790 C   0  0  0  0  0  3  0  0  0  0  0  0
   40.7030   73.2560   60.1370 C   0  0  0  0  0  0  0  0  0  0  0  0
   39.4490   73.0030   59.6170 C   0  0  0  0  0  0  0  0  0  0  0  0
   38.9360   72.0710   59.8130 H   0  0  0  0  0  0  0  0  0  0  0  0
   38.8000   73.9380   58.8210 C   0  0  0  0  0  0  0  0  0  0  0  0
   37.6290   74.0370   58.1700 N   0  0  0  0  0  0  0  0  0  0  0  0
   37.5430   75.2320   57.5350 C   0  0  0  0  0  0  0  0  0  0  0  0
   36.7310   75.6140   56.9280 H   0  0  0  0  0  0  0  0  0  0  0  0
   38.7090   75.8750   57.8170 N   0  0  0  0  0  0  0  0  0  0  0  0
   39.4900   75.1080   58.5970 C   0  0  0  0  0  0  0  0  0  0  0  0
   40.7410   75.4210   59.0860 C   0  0  0  0  0  3  0  0  0  0  0  0
   36.9240   73.2830   58.1800 H   0  0  0  0  0  0  0  0  0  0  0  0
   41.5400   71.1590   63.0180 C   0  0  0  0  0  0  0  0  0  0  0  0
   42.6430   70.3980   62.5610 C   0  0  0  0  0  0  0  0  0  0  0  0
   43.0760   70.6310   61.2560 C   0  0  0  0  0  0  0  0  0  0  0  0
   42.4330   71.5550   60.5000 N   0  0  0  0  0  0  0  0  0  0  0  0
   41.3770   72.2660   60.9730 C   0  0  0  0  0  0  0  0  0  0  0  0
   40.9380   72.0630   62.2290 N   0  0  0  0  0  0  0  0  0  0  0  0
   41.1890   70.9920   64.0320 H   0  0  0  0  0  0  0  0  0  0  0  0
   43.1350   69.6770   63.1690 H   0  0  0  0  0  0  0  0  0  0  0  0
   43.9090   70.0990   60.8210 H   0  0  0  0  0  0  0  0  0  0  0  0
  1  2  1  0  0  0  0
  2 17  1  0  0  0  0
  3  4  1  0  0  0  0
  3  2  2  0  0  0  0
  5  3  1  0  0  0  0
  6 12  1  0  0  0  0
  6  5  1  0  0  0  0
  7  9  2  0  0  0  0
  7  6  1  0  0  0  0
  8  7  1  0  0  0  0
  9 10  1  0  0  0  0
 10  5  2  0  0  0  0
 10 11  1  0  0  0  0
 11  1  2  0  0  0  0
 13 19  1  0  0  0  0
 14 13  1  0  0  0  0
 14 20  1  0  0  0  0
 15 14  2  0  0  0  0
 16 17  2  0  0  0  0
 16 15  1  0  0  0  0
 17 18  1  0  0  0  0
 18 13  2  0  0  0  0
 21 15  1  0  0  0  0
M  END
>  <minimizedAffinity>
-4.49492502

$$$$

 OpenBabel03212519593D

 21 23  0  0  0  0  0  0  0  0999 V2000
   41.5650   74.3110   59.3400 C   0  0  0  0  0  3  0  0  0  0  0  0
   40.1910   74.1250   59.5200 C   0  0  0  0  0  0  0  0  0  0  0  0
   39.7090   73.3240   60.5370 C   0  0  0  0  0  0  0  0  0  0  0  0
   38.6460   73.1780   60.6810 H   0  0  0  0  0  0  0  0  0  0  0  0
   40.5700   72.6770   61.4130 C   0  0  0  0  0  0  0  0  0  0  0  0
   40.4690   71.8580   62.4720 N   0  0  0  0  0  0  0  0  0  0  0  0
   41.7010   71.5380   62.9410 C   0  0  0  0  0  0  0  0  0  0  0  0
   41.9580   70.9010   63.7780 H   0  0  0  0  0  0  0  0  0  0  0  0
   42.5750   72.1930   62.1300 N   0  0  0  0  0  0  0  0  0  0  0  0
   41.9120   72.8940   61.1930 C   0  0  0  0  0  0  0  0  0  0  0  0
   42.4580   73.6790   60.1980 C   0  0  0  0  0  3  0  0  0  0  0  0
   39.5590   71.5410   62.8430 H   0  0  0  0  0  0  0  0  0  0  0  0
   38.5700   76.7720   57.5790 C   0  0  0  0  0  0  0  0  0  0  0  0
   37.5520   76.0850   56.8750 C   0  0  0  0  0  0  0  0  0  0  0  0
   37.4490   74.7110   57.0900 C   0  0  0  0  0  0  0  0  0  0  0  0
   38.3110   74.1080   57.9460 N   0  0  0  0  0  0  0  0  0  0  0  0
   39.2770   74.8000   58.6050 C   0  0  0  0  0  0  0  0  0  0  0  0
   39.3990   76.1270   58.4160 N   0  0  0  0  0  0  0  0  0  0  0  0
   38.6660   77.8420   57.4250 H   0  0  0  0  0  0  0  0  0  0  0  0
   36.8850   76.5750   56.2070 H   0  0  0  0  0  0  0  0  0  0  0  0
   36.7040   74.1040   56.5980 H   0  0  0  0  0  0  0  0  0  0  0  0
  1  2  2  0  0  0  0
  1 11  1  0  0  0  0
  2  3  1  0  0  0  0
  3  4  1  0  0  0  0
  3  5  2  0  0  0  0
  5  6  1  0  0  0  0
  6 12  1  0  0  0  0
  6  7  1  0  0  0  0
  7  8  1  0  0  0  0
  9  7  2  0  0  0  0
 10  5  1  0  0  0  0
 10  9  1  0  0  0  0
 11 10  2  0  0  0  0
 13 18  1  0  0  0  0
 14 15  1  0  0  0  0
 14 13  2  0  0  0  0
 15 16  2  0  0  0  0
 16 17  1  0  0  0  0
 17  2  1  0  0  0  0
 18 17  2  0  0  0  0
 19 13  1  0  0  0  0
 20 14  1  0  0  0  0
 21 15  1  0  0  0  0
M  END
>  <minimizedAffinity>
-4.46729898

$$$$

 OpenBabel03212519593D

 21 23  0  0  0  0  0  0  0  0999 V2000
   38.5740   73.2460   57.0980 C   0  0  0  0  0  3  0  0  0  0  0  0
   38.3010   74.6080   57.2580 C   0  0  0  0  0  0  0  0  0  0  0  0
   38.5790   75.2550   58.4460 C   0  0  0  0  0  0  0  0  0  0  0  0
   38.3700   76.3090   58.5740 H   0  0  0  0  0  0  0  0  0  0  0  0
   39.1380   74.5760   59.5210 C   0  0  0  0  0  0  0  0  0  0  0  0
   39.5280   74.8620   60.7730 N   0  0  0  0  0  0  0  0  0  0  0  0
   40.0190   73.7520   61.3790 C   0  0  0  0  0  0  0  0  0  0  0  0
   40.4120   73.6510   62.3830 H   0  0  0  0  0  0  0  0  0  0  0  0
   39.9200   72.7620   60.4510 N   0  0  0  0  0  0  0  0  0  0  0  0
   39.3870   73.2380   59.3120 C   0  0  0  0  0  0  0  0  0  0  0  0
   39.1330   72.5330   58.1530 C   0  0  0  0  0  3  0  0  0  0  0  0
   39.4450   75.8080   61.1770 H   0  0  0  0  0  0  0  0  0  0  0  0
   37.3320   75.4870   53.8390 C   0  0  0  0  0  0  0  0  0  0  0  0
   36.6050   76.6910   54.0030 C   0  0  0  0  0  0  0  0  0  0  0  0
   36.4670   77.1750   55.3040 C   0  0  0  0  0  0  0  0  0  0  0  0
   37.0230   76.4840   56.3310 N   0  0  0  0  0  0  0  0  0  0  0  0
   37.7130   75.3310   56.1340 C   0  0  0  0  0  0  0  0  0  0  0  0
   37.8630   74.8410   54.8900 N   0  0  0  0  0  0  0  0  0  0  0  0
   37.4500   75.0940   52.8340 H   0  0  0  0  0  0  0  0  0  0  0  0
   36.1760   77.2190   53.1860 H   0  0  0  0  0  0  0  0  0  0  0  0
   35.9310   78.0850   55.5270 H   0  0  0  0  0  0  0  0  0  0  0  0
  1  2  2  0  0  0  0
  1 11  1  0  0  0  0
  2  3  1  0  0  0  0
  3  4  1  0  0  0  0
  3  5  2  0  0  0  0
  5  6  1  0  0  0  0
  6 12  1  0  0  0  0
  6  7  1  0  0  0  0
  7  8  1  0  0  0  0
  9  7  2  0  0  0  0
 10  5  1  0  0  0  0
 10  9  1  0  0  0  0
 11 10  2  0  0  0  0
 13 14  2  0  0  0  0
 13 18  1  0  0  0  0
 14 15  1  0  0  0  0
 15 21  1  0  0  0  0
 15 16  2  0  0  0  0
 17 16  1  0  0  0  0
 17  2  1  0  0  0  0
 18 17  2  0  0  0  0
 19 13  1  0  0  0  0
 20 14  1  0  0  0  0
M  END
>  <minimizedAffinity>
-4.44484901

$$$$

 OpenBabel03212519593D

 21 23  0  0  0  0  0  0  0  0999 V2000
   39.0580   73.5080   59.6730 C   0  0  0  0  0  3  0  0  0  0  0  0
   40.3530   73.8560   60.0650 C   0  0  0  0  0  0  0  0  0  0  0  0
   40.8990   75.0750   59.7140 C   0  0  0  0  0  0  0  0  0  0  0  0
   41.9010   75.3500   60.0160 H   0  0  0  0  0  0  0  0  0  0  0  0
   40.1810   75.9950   58.9600 C   0  0  0  0  0  0  0  0  0  0  0  0
   40.3760   77.2230   58.4540 N   0  0  0  0  0  0  0  0  0  0  0  0
   39.2750   77.6350   57.7790 C   0  0  0  0  0  0  0  0  0  0  0  0
   39.1160   78.5720   57.2590 H   0  0  0  0  0  0  0  0  0  0  0  0
   38.3840   76.6130   57.8860 N   0  0  0  0  0  0  0  0  0  0  0  0
   38.9110   75.6030   58.6000 C   0  0  0  0  0  0  0  0  0  0  0  0
   38.3080   74.4030   58.9170 C   0  0  0  0  0  3  0  0  0  0  0  0
   41.2580   77.7430   58.5860 H   0  0  0  0  0  0  0  0  0  0  0  0
   43.0340   71.5940   61.1100 C   0  0  0  0  0  0  0  0  0  0  0  0
   42.5690   71.0830   62.3460 C   0  0  0  0  0  0  0  0  0  0  0  0
   41.3280   71.5370   62.7930 C   0  0  0  0  0  0  0  0  0  0  0  0
   40.6380   72.4280   62.0380 N   0  0  0  0  0  0  0  0  0  0  0  0
   41.1170   72.8970   60.8570 C   0  0  0  0  0  0  0  0  0  0  0  0
   42.3110   72.4760   60.4010 N   0  0  0  0  0  0  0  0  0  0  0  0
   43.9980   71.2520   60.7460 H   0  0  0  0  0  0  0  0  0  0  0  0
   43.1240   70.3840   62.9240 H   0  0  0  0  0  0  0  0  0  0  0  0
   40.8920   71.2030   63.7220 H   0  0  0  0  0  0  0  0  0  0  0  0
  1  2  1  0  0  0  0
  2 17  1  0  0  0  0
  3  4  1  0  0  0  0
  3  2  2  0  0  0  0
  5  3  1  0  0  0  0
  6 12  1  0  0  0  0
  6  5  1  0  0  0  0
  7  9  2  0  0  0  0
  7  6  1  0  0  0  0
  8  7  1  0  0  0  0
  9 10  1  0  0  0  0
 10 11  1  0  0  0  0
 10  5  2  0  0  0  0
 11  1  2  0  0  0  0
 13 14  1  0  0  0  0
 14 15  2  0  0  0  0
 14 20  1  0  0  0  0
 15 21  1  0  0  0  0
 16 15  1  0  0  0  0
 17 16  2  0  0  0  0
 18 17  1  0  0  0  0
 18 13  2  0  0  0  0
 19 13  1  0  0  0  0
M  END
>  <minimizedAffinity>
-4.44330215

$$$$
