
 OpenBabel03212520533D

 28 31  0  0  0  0  0  0  0  0999 V2000
   45.6530   83.6750   51.7290 C   0  0  0  0  0  0  0  0  0  0  0  0
   46.9550   83.7530   51.1990 C   0  0  0  0  0  0  0  0  0  0  0  0
   47.4280   84.9620   50.7970 C   0  0  0  0  0  0  0  0  0  0  0  0
   46.5980   86.0970   50.9220 C   0  0  0  0  0  0  0  0  0  0  0  0
   45.0510   85.3910   51.6600 S   0  0  0  0  0  0  0  0  0  0  0  0
   47.5670   82.8640   51.1150 H   0  0  0  0  0  0  0  0  0  0  0  0
   48.3810   85.1600   50.3840 H   0  0  0  0  0  0  0  0  0  0  0  0
   47.5070   88.2760   51.4260 C   0  0  0  0  0  3  0  0  0  0  0  0
   46.7750   87.4410   50.6120 C   0  0  0  0  0  0  0  0  0  0  0  0
   46.2140   87.9670   49.4740 C   0  0  0  0  0  0  0  0  0  0  0  0
   45.6320   87.3300   48.8160 H   0  0  0  0  0  0  0  0  0  0  0  0
   46.3860   89.3050   49.1590 C   0  0  0  0  0  0  0  0  0  0  0  0
   45.9830   90.1050   48.1550 N   0  0  0  0  0  0  0  0  0  0  0  0
   46.4180   91.3610   48.3010 C   0  0  0  0  0  0  0  0  0  0  0  0
   46.1590   92.1000   47.5560 H   0  0  0  0  0  0  0  0  0  0  0  0
   47.1340   91.3880   49.4460 N   0  0  0  0  0  0  0  0  0  0  0  0
   47.1290   90.1530   49.9840 C   0  0  0  0  0  0  0  0  0  0  0  0
   47.6800   89.5980   51.1190 C   0  0  0  0  0  3  0  0  0  0  0  0
   45.3900   89.6910   47.3810 H   0  0  0  0  0  0  0  0  0  0  0  0
   43.4630   81.4340   53.6000 C   0  0  0  0  0  0  0  0  0  0  0  0
   43.8250   80.1450   53.1200 C   0  0  0  0  0  0  0  0  0  0  0  0
   44.8380   80.0700   52.1400 C   0  0  0  0  0  0  0  0  0  0  0  0
   45.4060   81.2370   51.7140 N   0  0  0  0  0  0  0  0  0  0  0  0
   45.0250   82.4290   52.2030 C   0  0  0  0  0  0  0  0  0  0  0  0
   44.0700   82.5560   53.1320 N   0  0  0  0  0  0  0  0  0  0  0  0
   42.6970   81.5840   54.3500 H   0  0  0  0  0  0  0  0  0  0  0  0
   43.3260   79.2920   53.5110 H   0  0  0  0  0  0  0  0  0  0  0  0
   45.1300   79.1010   51.7600 H   0  0  0  0  0  0  0  0  0  0  0  0
  1 24  1  0  0  0  0
  2  1  2  0  0  0  0
  3  4  2  0  0  0  0
  3  2  1  0  0  0  0
  4  5  1  0  0  0  0
  5  1  1  0  0  0  0
  6  2  1  0  0  0  0
  7  3  1  0  0  0  0
  9  4  1  0  0  0  0
  9  8  2  0  0  0  0
 10  9  1  0  0  0  0
 11 10  1  0  0  0  0
 12 10  2  0  0  0  0
 12 17  1  0  0  0  0
 13 14  1  0  0  0  0
 13 12  1  0  0  0  0
 14 16  2  0  0  0  0
 15 14  1  0  0  0  0
 16 17  1  0  0  0  0
 17 18  2  0  0  0  0
 18  8  1  0  0  0  0
 19 13  1  0  0  0  0
 20 26  1  0  0  0  0
 21 27  1  0  0  0  0
 21 20  2  0  0  0  0
 22 21  1  0  0  0  0
 23 22  2  0  0  0  0
 23 24  1  0  0  0  0
 24 25  2  0  0  0  0
 25 20  1  0  0  0  0
 28 22  1  0  0  0  0
M  END
>  <minimizedAffinity>
-0.517248511

>  <minimizedRMSD>
8.32024002

$$$$
