
 OpenBabel03212520023D

 34 38  0  0  0  0  0  0  0  0999 V2000
   40.3810   82.2230   61.3270 C   0  0  0  0  0  0  0  0  0  0  0  0
   40.0560   81.4890   60.1540 C   0  0  0  0  0  0  0  0  0  0  0  0
   40.5540   81.9580   58.9480 C   0  0  0  0  0  0  0  0  0  0  0  0
   41.3120   83.0700   58.9340 N   0  0  0  0  0  0  0  0  0  0  0  0
   41.6070   83.7530   60.0830 C   0  0  0  0  0  0  0  0  0  0  0  0
   41.1450   83.3320   61.2660 N   0  0  0  0  0  0  0  0  0  0  0  0
   39.9980   81.8660   62.2750 H   0  0  0  0  0  0  0  0  0  0  0  0
   39.4570   80.6140   60.1790 H   0  0  0  0  0  0  0  0  0  0  0  0
   43.2270   85.2660   61.1450 C   0  0  0  0  0  0  0  0  0  0  0  0
   42.4340   84.9560   60.0230 C   0  0  0  0  0  0  0  0  0  0  0  0
   42.4510   85.7700   58.9200 C   0  0  0  0  0  0  0  0  0  0  0  0
   43.2280   86.9110   58.8510 C   0  0  0  0  0  0  0  0  0  0  0  0
   43.4850   87.8940   57.9800 N   0  0  0  0  0  0  0  0  0  0  0  0
   44.3740   88.7750   58.4930 C   0  0  0  0  0  0  0  0  0  0  0  0
   44.6720   88.2980   59.7410 N   0  0  0  0  0  0  0  0  0  0  0  0
   43.9880   87.1650   59.9830 C   0  0  0  0  0  0  0  0  0  0  0  0
   44.0270   86.4020   61.1230 C   0  0  0  0  0  0  0  0  0  0  0  0
   43.2430   84.6480   62.0370 H   0  0  0  0  0  0  0  0  0  0  0  0
   41.8380   85.5400   58.0420 H   0  0  0  0  0  0  0  0  0  0  0  0
   43.0100   87.8980   57.0450 H   0  0  0  0  0  0  0  0  0  0  0  0
   44.7380   89.6530   57.9800 H   0  0  0  0  0  0  0  0  0  0  0  0
   44.6390   86.6600   61.9640 H   0  0  0  0  0  0  0  0  0  0  0  0
   41.0990   81.6460   56.6040 C   0  0  0  0  0  0  0  0  0  0  0  0
   40.2970   81.3020   57.6710 C   0  0  0  0  0  0  0  0  0  0  0  0
   39.3070   80.3650   57.4730 C   0  0  0  0  0  0  0  0  0  0  0  0
   38.6780   80.0850   58.2820 H   0  0  0  0  0  0  0  0  0  0  0  0
   39.1350   79.7890   56.2080 C   0  0  0  0  0  0  0  0  0  0  0  0
   38.2230   78.8530   55.8100 N   0  0  0  0  0  0  0  0  0  0  0  0
   38.4860   78.6410   54.4980 C   0  0  0  0  0  0  0  0  0  0  0  0
   37.9770   77.9610   53.8060 H   0  0  0  0  0  0  0  0  0  0  0  0
   39.5160   79.4120   54.0980 N   0  0  0  0  0  0  0  0  0  0  0  0
   39.9440   80.1410   55.1460 C   0  0  0  0  0  0  0  0  0  0  0  0
   40.9350   81.0760   55.3350 C   0  0  0  0  0  0  0  0  0  0  0  0
   37.4740   78.3770   56.3480 H   0  0  0  0  0  0  0  0  0  0  0  0
  1  7  1  0  0  0  0
  2  8  1  0  0  0  0
  2  1  2  0  0  0  0
  3  2  1  0  0  0  0
  4  3  2  0  0  0  0
  4  5  1  0  0  0  0
  5  6  2  0  0  0  0
  6  1  1  0  0  0  0
  9 18  1  0  0  0  0
 10  5  1  0  0  0  0
 10  9  2  0  0  0  0
 11 10  1  0  0  0  0
 12 11  2  0  0  0  0
 12 16  1  0  0  0  0
 13 14  1  0  0  0  0
 13 12  1  0  0  0  0
 14 15  2  0  0  0  0
 15 16  1  0  0  0  0
 16 17  2  0  0  0  0
 17  9  1  0  0  0  0
 17 22  1  0  0  0  0
 19 11  1  0  0  0  0
 20 13  1  0  0  0  0
 21 14  1  0  0  0  0
 23 24  1  0  0  0  0
 24  3  1  0  0  0  0
 25 24  2  0  0  0  0
 25 26  1  0  0  0  0
 27 25  1  0  0  0  0
 28 27  1  0  0  0  0
 28 34  1  0  0  0  0
 29 28  1  0  0  0  0
 30 29  1  0  0  0  0
 31 29  2  0  0  0  0
 31 32  1  0  0  0  0
 32 33  1  0  0  0  0
 32 27  2  0  0  0  0
 33 23  2  0  0  0  0
M  END
>  <minimizedAffinity>
-5.70516825

>  <minimizedRMSD>
5.78339815

$$$$
