
 OpenBabel03212520093D

 21 23  0  0  0  0  0  0  0  0999 V2000
   41.5820   83.4690   57.6050 C   0  0  0  0  0  3  0  0  0  0  0  0
   40.5930   82.7160   58.2140 C   0  0  0  0  0  0  0  0  0  0  0  0
   40.1160   81.5960   57.5590 C   0  0  0  0  0  0  0  0  0  0  0  0
   39.3520   80.9970   58.0120 H   0  0  0  0  0  0  0  0  0  0  0  0
   40.5800   81.1900   56.3220 C   0  0  0  0  0  0  0  0  0  0  0  0
   40.2390   80.1350   55.5340 N   0  0  0  0  0  0  0  0  0  0  0  0
   41.0290   80.2380   54.4240 C   0  0  0  0  0  0  0  0  0  0  0  0
   40.9570   79.5170   53.6340 H   0  0  0  0  0  0  0  0  0  0  0  0
   41.8190   81.3210   54.5450 N   0  0  0  0  0  0  0  0  0  0  0  0
   41.5640   81.9440   55.7230 C   0  0  0  0  0  0  0  0  0  0  0  0
   42.0650   83.0760   56.3550 C   0  0  0  0  0  3  0  0  0  0  0  0
   39.5100   79.4100   55.7700 H   0  0  0  0  0  0  0  0  0  0  0  0
   40.0330   82.0390   60.5110 C   0  0  0  0  0  0  0  0  0  0  0  0
   40.0220   83.0370   59.5180 C   0  0  0  0  0  0  0  0  0  0  0  0
   39.4590   84.2640   59.8750 C   0  0  0  0  0  0  0  0  0  0  0  0
   38.9660   84.4210   61.1320 N   0  0  0  0  0  0  0  0  0  0  0  0
   39.0000   83.4350   62.0480 C   0  0  0  0  0  0  0  0  0  0  0  0
   39.5350   82.2400   61.7340 N   0  0  0  0  0  0  0  0  0  0  0  0
   40.4430   81.0420   60.3660 H   0  0  0  0  0  0  0  0  0  0  0  0
   39.4540   85.0250   59.1080 H   0  0  0  0  0  0  0  0  0  0  0  0
   38.6010   83.5850   63.0420 H   0  0  0  0  0  0  0  0  0  0  0  0
  1  2  1  0  0  0  0
  2 14  1  0  0  0  0
  3  4  1  0  0  0  0
  3  2  2  0  0  0  0
  5  3  1  0  0  0  0
  6 12  1  0  0  0  0
  6  5  1  0  0  0  0
  7  9  2  0  0  0  0
  7  6  1  0  0  0  0
  8  7  1  0  0  0  0
  9 10  1  0  0  0  0
 10  5  2  0  0  0  0
 10 11  1  0  0  0  0
 11  1  2  0  0  0  0
 13 18  1  0  0  0  0
 14 15  1  0  0  0  0
 14 13  2  0  0  0  0
 15 16  2  0  0  0  0
 16 17  1  0  0  0  0
 17 21  1  0  0  0  0
 18 17  2  0  0  0  0
 19 13  1  0  0  0  0
 20 15  1  0  0  0  0
M  END
>  <minimizedAffinity>
-4.73108101

>  <minimizedRMSD>
0.83262825

$$$$
