
 OpenBabel03212520023D

 34 38  0  0  0  0  0  0  0  0999 V2000
   40.1540   81.1890   57.2850 C   0  0  0  0  0  0  0  0  0  0  0  0
   41.0710   81.7880   56.3800 C   0  0  0  0  0  0  0  0  0  0  0  0
   41.8850   82.7990   56.8680 C   0  0  0  0  0  0  0  0  0  0  0  0
   41.7760   83.1670   58.1590 N   0  0  0  0  0  0  0  0  0  0  0  0
   40.8820   82.5690   59.0040 C   0  0  0  0  0  0  0  0  0  0  0  0
   40.0800   81.5900   58.5700 N   0  0  0  0  0  0  0  0  0  0  0  0
   39.5130   80.3980   56.9150 H   0  0  0  0  0  0  0  0  0  0  0  0
   41.1450   81.4880   55.3640 H   0  0  0  0  0  0  0  0  0  0  0  0
   39.5270   83.0260   61.0030 C   0  0  0  0  0  0  0  0  0  0  0  0
   40.7980   82.9990   60.3980 C   0  0  0  0  0  0  0  0  0  0  0  0
   41.9090   83.3700   61.1110 C   0  0  0  0  0  0  0  0  0  0  0  0
   41.8430   83.7800   62.4290 C   0  0  0  0  0  0  0  0  0  0  0  0
   42.6780   84.1930   63.3900 N   0  0  0  0  0  0  0  0  0  0  0  0
   42.0040   84.4680   64.5310 C   0  0  0  0  0  0  0  0  0  0  0  0
   40.6910   84.2060   64.2440 N   0  0  0  0  0  0  0  0  0  0  0  0
   40.5670   83.7860   62.9720 C   0  0  0  0  0  0  0  0  0  0  0  0
   39.4090   83.4300   62.3270 C   0  0  0  0  0  0  0  0  0  0  0  0
   38.6230   82.7410   60.4740 H   0  0  0  0  0  0  0  0  0  0  0  0
   42.9030   83.3540   60.6520 H   0  0  0  0  0  0  0  0  0  0  0  0
   43.7050   84.2650   63.1920 H   0  0  0  0  0  0  0  0  0  0  0  0
   42.4580   84.8170   65.4460 H   0  0  0  0  0  0  0  0  0  0  0  0
   38.4530   83.4600   62.8110 H   0  0  0  0  0  0  0  0  0  0  0  0
   42.6470   83.5440   54.6870 C   0  0  0  0  0  3  0  0  0  0  0  0
   42.8670   83.4970   56.0480 C   0  0  0  0  0  0  0  0  0  0  0  0
   43.9940   84.1080   56.5530 C   0  0  0  0  0  0  0  0  0  0  0  0
   44.1840   84.0840   57.5980 H   0  0  0  0  0  0  0  0  0  0  0  0
   44.8830   84.7550   55.6850 C   0  0  0  0  0  0  0  0  0  0  0  0
   46.0430   85.4140   55.9820 N   0  0  0  0  0  0  0  0  0  0  0  0
   46.5130   85.8540   54.7910 C   0  0  0  0  0  0  0  0  0  0  0  0
   47.4250   86.4280   54.5920 H   0  0  0  0  0  0  0  0  0  0  0  0
   45.6820   85.4850   53.7970 N   0  0  0  0  0  0  0  0  0  0  0  0
   44.6530   84.7970   54.3250 C   0  0  0  0  0  0  0  0  0  0  0  0
   43.5300   84.1900   53.8130 C   0  0  0  0  0  3  0  0  0  0  0  0
   46.5070   85.5730   56.8980 H   0  0  0  0  0  0  0  0  0  0  0  0
  1  6  1  0  0  0  0
  2  3  1  0  0  0  0
  2  1  2  0  0  0  0
  3  4  2  0  0  0  0
  4  5  1  0  0  0  0
  5 10  1  0  0  0  0
  6  5  2  0  0  0  0
  7  1  1  0  0  0  0
  8  2  1  0  0  0  0
  9 17  1  0  0  0  0
 10  9  2  0  0  0  0
 10 11  1  0  0  0  0
 11 12  2  0  0  0  0
 12 16  1  0  0  0  0
 12 13  1  0  0  0  0
 13 14  1  0  0  0  0
 14 21  1  0  0  0  0
 15 14  2  0  0  0  0
 16 15  1  0  0  0  0
 17 22  1  0  0  0  0
 17 16  2  0  0  0  0
 18  9  1  0  0  0  0
 19 11  1  0  0  0  0
 20 13  1  0  0  0  0
 23 24  1  0  0  0  0
 24 25  2  0  0  0  0
 24  3  1  0  0  0  0
 25 26  1  0  0  0  0
 27 28  1  0  0  0  0
 27 25  1  0  0  0  0
 28 34  1  0  0  0  0
 29 28  1  0  0  0  0
 30 29  1  0  0  0  0
 31 32  1  0  0  0  0
 31 29  2  0  0  0  0
 32 27  2  0  0  0  0
 33 32  1  0  0  0  0
 33 23  2  0  0  0  0
M  END
>  <minimizedAffinity>
-5.10910416

>  <minimizedRMSD>
0.470687926

$$$$
