
 OpenBabel03212520023D

 34 38  0  0  0  0  0  0  0  0999 V2000
   40.1540   81.1850   57.2830 C   0  0  0  0  0  0  0  0  0  0  0  0
   41.0700   81.7840   56.3760 C   0  0  0  0  0  0  0  0  0  0  0  0
   41.8830   82.7960   56.8640 C   0  0  0  0  0  0  0  0  0  0  0  0
   41.7760   83.1650   58.1540 N   0  0  0  0  0  0  0  0  0  0  0  0
   40.8820   82.5660   59.0010 C   0  0  0  0  0  0  0  0  0  0  0  0
   40.0810   81.5870   58.5680 N   0  0  0  0  0  0  0  0  0  0  0  0
   39.5140   80.3930   56.9130 H   0  0  0  0  0  0  0  0  0  0  0  0
   41.1450   81.4840   55.3610 H   0  0  0  0  0  0  0  0  0  0  0  0
   39.5270   83.0260   60.9990 C   0  0  0  0  0  0  0  0  0  0  0  0
   40.7980   82.9970   60.3940 C   0  0  0  0  0  0  0  0  0  0  0  0
   41.9090   83.3680   61.1070 C   0  0  0  0  0  0  0  0  0  0  0  0
   41.8430   83.7780   62.4250 C   0  0  0  0  0  0  0  0  0  0  0  0
   42.6790   84.1900   63.3860 N   0  0  0  0  0  0  0  0  0  0  0  0
   42.0040   84.4660   64.5270 C   0  0  0  0  0  0  0  0  0  0  0  0
   40.6920   84.2060   64.2400 N   0  0  0  0  0  0  0  0  0  0  0  0
   40.5670   83.7850   62.9680 C   0  0  0  0  0  0  0  0  0  0  0  0
   39.4090   83.4300   62.3230 C   0  0  0  0  0  0  0  0  0  0  0  0
   38.6230   82.7410   60.4700 H   0  0  0  0  0  0  0  0  0  0  0  0
   42.9030   83.3500   60.6480 H   0  0  0  0  0  0  0  0  0  0  0  0
   43.7060   84.2610   63.1880 H   0  0  0  0  0  0  0  0  0  0  0  0
   42.4590   84.8160   65.4410 H   0  0  0  0  0  0  0  0  0  0  0  0
   38.4530   83.4610   62.8060 H   0  0  0  0  0  0  0  0  0  0  0  0
   42.6440   83.5410   54.6820 C   0  0  0  0  0  3  0  0  0  0  0  0
   42.8650   83.4950   56.0430 C   0  0  0  0  0  0  0  0  0  0  0  0
   43.9930   84.1050   56.5470 C   0  0  0  0  0  0  0  0  0  0  0  0
   44.1820   84.0810   57.5920 H   0  0  0  0  0  0  0  0  0  0  0  0
   44.8800   84.7530   55.6780 C   0  0  0  0  0  0  0  0  0  0  0  0
   46.0400   85.4110   55.9750 N   0  0  0  0  0  0  0  0  0  0  0  0
   46.5100   85.8510   54.7830 C   0  0  0  0  0  0  0  0  0  0  0  0
   47.4210   86.4260   54.5840 H   0  0  0  0  0  0  0  0  0  0  0  0
   45.6780   85.4830   53.7900 N   0  0  0  0  0  0  0  0  0  0  0  0
   44.6500   84.7950   54.3180 C   0  0  0  0  0  0  0  0  0  0  0  0
   43.5260   84.1860   53.8080 C   0  0  0  0  0  3  0  0  0  0  0  0
   46.5050   85.5700   56.8890 H   0  0  0  0  0  0  0  0  0  0  0  0
  1  6  1  0  0  0  0
  2  3  1  0  0  0  0
  2  1  2  0  0  0  0
  3  4  2  0  0  0  0
  4  5  1  0  0  0  0
  5 10  1  0  0  0  0
  6  5  2  0  0  0  0
  7  1  1  0  0  0  0
  8  2  1  0  0  0  0
  9 17  1  0  0  0  0
 10  9  2  0  0  0  0
 10 11  1  0  0  0  0
 11 12  2  0  0  0  0
 12 16  1  0  0  0  0
 12 13  1  0  0  0  0
 13 14  1  0  0  0  0
 14 21  1  0  0  0  0
 15 14  2  0  0  0  0
 16 15  1  0  0  0  0
 17 22  1  0  0  0  0
 17 16  2  0  0  0  0
 18  9  1  0  0  0  0
 19 11  1  0  0  0  0
 20 13  1  0  0  0  0
 23 24  1  0  0  0  0
 24 25  2  0  0  0  0
 24  3  1  0  0  0  0
 25 26  1  0  0  0  0
 27 28  1  0  0  0  0
 27 25  1  0  0  0  0
 28 34  1  0  0  0  0
 29 28  1  0  0  0  0
 30 29  1  0  0  0  0
 31 32  1  0  0  0  0
 31 29  2  0  0  0  0
 32 27  2  0  0  0  0
 33 32  1  0  0  0  0
 33 23  2  0  0  0  0
M  END
>  <minimizedAffinity>
-5.1076436

>  <minimizedRMSD>
0.488340855

$$$$
