
 OpenBabel03212520023D

 34 38  0  0  0  0  0  0  0  0999 V2000
   40.1560   81.2050   57.3290 C   0  0  0  0  0  0  0  0  0  0  0  0
   41.0950   81.7870   56.4340 C   0  0  0  0  0  0  0  0  0  0  0  0
   41.9220   82.7820   56.9330 C   0  0  0  0  0  0  0  0  0  0  0  0
   41.8060   83.1510   58.2220 N   0  0  0  0  0  0  0  0  0  0  0  0
   40.8910   82.5690   59.0570 C   0  0  0  0  0  0  0  0  0  0  0  0
   40.0750   81.6070   58.6130 N   0  0  0  0  0  0  0  0  0  0  0  0
   39.5050   80.4270   56.9500 H   0  0  0  0  0  0  0  0  0  0  0  0
   41.1750   81.4860   55.4200 H   0  0  0  0  0  0  0  0  0  0  0  0
   39.5250   83.0210   61.0500 C   0  0  0  0  0  0  0  0  0  0  0  0
   40.7980   83.0010   60.4500 C   0  0  0  0  0  0  0  0  0  0  0  0
   41.9050   83.3790   61.1670 C   0  0  0  0  0  0  0  0  0  0  0  0
   41.8310   83.7900   62.4840 C   0  0  0  0  0  0  0  0  0  0  0  0
   42.6600   84.2090   63.4480 N   0  0  0  0  0  0  0  0  0  0  0  0
   41.9800   84.4800   64.5860 C   0  0  0  0  0  0  0  0  0  0  0  0
   40.6700   84.2100   64.2940 N   0  0  0  0  0  0  0  0  0  0  0  0
   40.5520   83.7880   63.0230 C   0  0  0  0  0  0  0  0  0  0  0  0
   39.3990   83.4250   62.3740 C   0  0  0  0  0  0  0  0  0  0  0  0
   38.6250   82.7300   60.5180 H   0  0  0  0  0  0  0  0  0  0  0  0
   42.9010   83.3690   60.7110 H   0  0  0  0  0  0  0  0  0  0  0  0
   43.6870   84.2860   63.2540 H   0  0  0  0  0  0  0  0  0  0  0  0
   42.4290   84.8330   65.5020 H   0  0  0  0  0  0  0  0  0  0  0  0
   38.4410   83.4500   62.8530 H   0  0  0  0  0  0  0  0  0  0  0  0
   44.2030   83.5590   56.6410 C   0  0  0  0  0  3  0  0  0  0  0  0
   42.9270   83.4610   56.1250 C   0  0  0  0  0  0  0  0  0  0  0  0
   42.6780   84.0060   54.8850 C   0  0  0  0  0  0  0  0  0  0  0  0
   41.7030   83.9420   54.4680 H   0  0  0  0  0  0  0  0  0  0  0  0
   43.7100   84.6410   54.1820 C   0  0  0  0  0  0  0  0  0  0  0  0
   43.6680   85.2380   52.9540 N   0  0  0  0  0  0  0  0  0  0  0  0
   44.9260   85.6940   52.7410 C   0  0  0  0  0  0  0  0  0  0  0  0
   45.3140   86.2320   51.8700 H   0  0  0  0  0  0  0  0  0  0  0  0
   45.7160   85.3910   53.7910 N   0  0  0  0  0  0  0  0  0  0  0  0
   44.9820   84.7340   54.7080 C   0  0  0  0  0  0  0  0  0  0  0  0
   45.2400   84.1900   55.9470 C   0  0  0  0  0  3  0  0  0  0  0  0
   42.8780   85.3490   52.2900 H   0  0  0  0  0  0  0  0  0  0  0  0
  1  6  1  0  0  0  0
  2  3  1  0  0  0  0
  2  1  2  0  0  0  0
  3  4  2  0  0  0  0
  4  5  1  0  0  0  0
  5 10  1  0  0  0  0
  6  5  2  0  0  0  0
  7  1  1  0  0  0  0
  8  2  1  0  0  0  0
  9 17  1  0  0  0  0
 10  9  2  0  0  0  0
 10 11  1  0  0  0  0
 11 12  2  0  0  0  0
 12 16  1  0  0  0  0
 12 13  1  0  0  0  0
 13 14  1  0  0  0  0
 14 21  1  0  0  0  0
 15 14  2  0  0  0  0
 16 15  1  0  0  0  0
 17 22  1  0  0  0  0
 17 16  2  0  0  0  0
 18  9  1  0  0  0  0
 19 11  1  0  0  0  0
 20 13  1  0  0  0  0
 24 23  1  0  0  0  0
 24  3  1  0  0  0  0
 25 24  2  0  0  0  0
 26 25  1  0  0  0  0
 27 32  2  0  0  0  0
 27 25  1  0  0  0  0
 28 27  1  0  0  0  0
 29 28  1  0  0  0  0
 29 31  2  0  0  0  0
 30 29  1  0  0  0  0
 31 32  1  0  0  0  0
 32 33  1  0  0  0  0
 33 23  2  0  0  0  0
 34 28  1  0  0  0  0
M  END
>  <minimizedAffinity>
-5.44204092

>  <minimizedRMSD>
0.444238782

$$$$
