
 OpenBabel03212520023D

 34 38  0  0  0  0  0  0  0  0999 V2000
   40.1530   81.1870   57.2870 C   0  0  0  0  0  0  0  0  0  0  0  0
   41.0700   81.7860   56.3810 C   0  0  0  0  0  0  0  0  0  0  0  0
   41.8830   82.7970   56.8680 C   0  0  0  0  0  0  0  0  0  0  0  0
   41.7750   83.1660   58.1590 N   0  0  0  0  0  0  0  0  0  0  0  0
   40.8810   82.5670   59.0050 C   0  0  0  0  0  0  0  0  0  0  0  0
   40.0800   81.5880   58.5720 N   0  0  0  0  0  0  0  0  0  0  0  0
   39.5130   80.3950   56.9170 H   0  0  0  0  0  0  0  0  0  0  0  0
   41.1440   81.4850   55.3660 H   0  0  0  0  0  0  0  0  0  0  0  0
   39.5270   83.0270   61.0030 C   0  0  0  0  0  0  0  0  0  0  0  0
   40.7970   82.9980   60.3980 C   0  0  0  0  0  0  0  0  0  0  0  0
   41.9090   83.3690   61.1110 C   0  0  0  0  0  0  0  0  0  0  0  0
   41.8430   83.7800   62.4290 C   0  0  0  0  0  0  0  0  0  0  0  0
   42.6780   84.1920   63.3900 N   0  0  0  0  0  0  0  0  0  0  0  0
   42.0040   84.4680   64.5310 C   0  0  0  0  0  0  0  0  0  0  0  0
   40.6920   84.2070   64.2440 N   0  0  0  0  0  0  0  0  0  0  0  0
   40.5670   83.7860   62.9730 C   0  0  0  0  0  0  0  0  0  0  0  0
   39.4090   83.4310   62.3280 C   0  0  0  0  0  0  0  0  0  0  0  0
   38.6220   82.7420   60.4750 H   0  0  0  0  0  0  0  0  0  0  0  0
   42.9030   83.3520   60.6520 H   0  0  0  0  0  0  0  0  0  0  0  0
   43.7050   84.2630   63.1920 H   0  0  0  0  0  0  0  0  0  0  0  0
   42.4590   84.8170   65.4450 H   0  0  0  0  0  0  0  0  0  0  0  0
   38.4520   83.4620   62.8110 H   0  0  0  0  0  0  0  0  0  0  0  0
   42.6450   83.5410   54.6870 C   0  0  0  0  0  3  0  0  0  0  0  0
   42.8650   83.4950   56.0480 C   0  0  0  0  0  0  0  0  0  0  0  0
   43.9920   84.1060   56.5510 C   0  0  0  0  0  0  0  0  0  0  0  0
   44.1820   84.0820   57.5970 H   0  0  0  0  0  0  0  0  0  0  0  0
   44.8810   84.7540   55.6840 C   0  0  0  0  0  0  0  0  0  0  0  0
   46.0410   85.4120   55.9810 N   0  0  0  0  0  0  0  0  0  0  0  0
   46.5100   85.8510   54.7880 C   0  0  0  0  0  0  0  0  0  0  0  0
   47.4220   86.4250   54.5890 H   0  0  0  0  0  0  0  0  0  0  0  0
   45.6790   85.4820   53.7940 N   0  0  0  0  0  0  0  0  0  0  0  0
   44.6500   84.7940   54.3230 C   0  0  0  0  0  0  0  0  0  0  0  0
   43.5270   84.1870   53.8130 C   0  0  0  0  0  3  0  0  0  0  0  0
   46.5050   85.5720   56.8960 H   0  0  0  0  0  0  0  0  0  0  0  0
  1  6  1  0  0  0  0
  2  3  1  0  0  0  0
  2  1  2  0  0  0  0
  3  4  2  0  0  0  0
  4  5  1  0  0  0  0
  5 10  1  0  0  0  0
  6  5  2  0  0  0  0
  7  1  1  0  0  0  0
  8  2  1  0  0  0  0
  9 17  1  0  0  0  0
 10  9  2  0  0  0  0
 10 11  1  0  0  0  0
 11 12  2  0  0  0  0
 12 16  1  0  0  0  0
 12 13  1  0  0  0  0
 13 14  1  0  0  0  0
 14 21  1  0  0  0  0
 15 14  2  0  0  0  0
 16 15  1  0  0  0  0
 17 22  1  0  0  0  0
 17 16  2  0  0  0  0
 18  9  1  0  0  0  0
 19 11  1  0  0  0  0
 20 13  1  0  0  0  0
 23 24  1  0  0  0  0
 24 25  2  0  0  0  0
 24  3  1  0  0  0  0
 25 26  1  0  0  0  0
 27 28  1  0  0  0  0
 27 25  1  0  0  0  0
 28 34  1  0  0  0  0
 29 28  1  0  0  0  0
 30 29  1  0  0  0  0
 31 32  1  0  0  0  0
 31 29  2  0  0  0  0
 32 27  2  0  0  0  0
 33 32  1  0  0  0  0
 33 23  2  0  0  0  0
M  END
>  <minimizedAffinity>
-5.10935736

>  <minimizedRMSD>
0.401050657

$$$$
