
 OpenBabel03212519593D

 21 23  0  0  0  0  0  0  0  0999 V2000
   43.4290   81.6240   62.0150 C   0  0  0  0  0  3  0  0  0  0  0  0
   42.1960   80.9770   61.9050 C   0  0  0  0  0  0  0  0  0  0  0  0
   41.0600   81.5060   62.4860 C   0  0  0  0  0  0  0  0  0  0  0  0
   40.1010   81.0080   62.4040 H   0  0  0  0  0  0  0  0  0  0  0  0
   41.1050   82.6970   63.1980 C   0  0  0  0  0  0  0  0  0  0  0  0
   40.2430   83.4790   63.8690 N   0  0  0  0  0  0  0  0  0  0  0  0
   40.8840   84.5610   64.3770 C   0  0  0  0  0  0  0  0  0  0  0  0
   40.4750   85.3730   64.9630 H   0  0  0  0  0  0  0  0  0  0  0  0
   42.1830   84.4210   63.9950 N   0  0  0  0  0  0  0  0  0  0  0  0
   42.3420   83.2950   63.2750 C   0  0  0  0  0  0  0  0  0  0  0  0
   43.5120   82.8210   62.7200 C   0  0  0  0  0  3  0  0  0  0  0  0
   39.2410   83.2490   63.9590 H   0  0  0  0  0  0  0  0  0  0  0  0
   42.5290   78.5590   59.1770 C   0  0  0  0  0  0  0  0  0  0  0  0
   42.0290   77.3600   59.7380 C   0  0  0  0  0  0  0  0  0  0  0  0
   41.5830   77.4160   61.0590 C   0  0  0  0  0  0  0  0  0  0  0  0
   41.6490   78.5930   61.7310 N   0  0  0  0  0  0  0  0  0  0  0  0
   42.1360   79.7240   61.1580 C   0  0  0  0  0  0  0  0  0  0  0  0
   42.5730   79.6990   59.8850 N   0  0  0  0  0  0  0  0  0  0  0  0
   42.8810   78.5350   58.1500 H   0  0  0  0  0  0  0  0  0  0  0  0
   41.9840   76.4460   59.1960 H   0  0  0  0  0  0  0  0  0  0  0  0
   41.1840   76.5530   61.5700 H   0  0  0  0  0  0  0  0  0  0  0  0
  1 11  1  0  0  0  0
  2  1  2  0  0  0  0
  2  3  1  0  0  0  0
  3  5  2  0  0  0  0
  4  3  1  0  0  0  0
  5 10  1  0  0  0  0
  5  6  1  0  0  0  0
  6 12  1  0  0  0  0
  6  7  1  0  0  0  0
  7  8  1  0  0  0  0
  9  7  2  0  0  0  0
 10  9  1  0  0  0  0
 11 10  2  0  0  0  0
 13 14  2  0  0  0  0
 13 18  1  0  0  0  0
 14 15  1  0  0  0  0
 15 21  1  0  0  0  0
 15 16  2  0  0  0  0
 17 16  1  0  0  0  0
 17  2  1  0  0  0  0
 18 17  2  0  0  0  0
 19 13  1  0  0  0  0
 20 14  1  0  0  0  0
M  END
>  <minimizedAffinity>
-4.22347021

>  <minimizedRMSD>
5.77623844

$$$$
