
 OpenBabel03212520023D

 34 38  0  0  0  0  0  0  0  0999 V2000
   40.0010   80.8270   57.5020 C   0  0  0  0  0  0  0  0  0  0  0  0
   40.8410   81.4120   56.5160 C   0  0  0  0  0  0  0  0  0  0  0  0
   41.6300   82.4850   56.9010 C   0  0  0  0  0  0  0  0  0  0  0  0
   41.5700   82.9240   58.1730 N   0  0  0  0  0  0  0  0  0  0  0  0
   40.7490   82.3370   59.0980 C   0  0  0  0  0  0  0  0  0  0  0  0
   39.9740   81.3000   58.7640 N   0  0  0  0  0  0  0  0  0  0  0  0
   39.3810   79.9880   57.2120 H   0  0  0  0  0  0  0  0  0  0  0  0
   40.8780   81.0550   55.5170 H   0  0  0  0  0  0  0  0  0  0  0  0
   39.4590   82.9840   61.0870 C   0  0  0  0  0  0  0  0  0  0  0  0
   40.7160   82.8450   60.4670 C   0  0  0  0  0  0  0  0  0  0  0  0
   41.8600   83.1830   61.1440 C   0  0  0  0  0  0  0  0  0  0  0  0
   41.8420   83.6660   62.4380 C   0  0  0  0  0  0  0  0  0  0  0  0
   42.7170   84.0760   63.3650 N   0  0  0  0  0  0  0  0  0  0  0  0
   42.0810   84.4520   64.4980 C   0  0  0  0  0  0  0  0  0  0  0  0
   40.7500   84.2580   64.2440 N   0  0  0  0  0  0  0  0  0  0  0  0
   40.5770   83.7800   62.9990 C   0  0  0  0  0  0  0  0  0  0  0  0
   39.3890   83.4640   62.3900 C   0  0  0  0  0  0  0  0  0  0  0  0
   38.5300   82.7280   60.5880 H   0  0  0  0  0  0  0  0  0  0  0  0
   42.8430   83.0800   60.6730 H   0  0  0  0  0  0  0  0  0  0  0  0
   43.7430   84.0720   63.1490 H   0  0  0  0  0  0  0  0  0  0  0  0
   42.5710   84.8200   65.3860 H   0  0  0  0  0  0  0  0  0  0  0  0
   38.4450   83.5790   62.8840 H   0  0  0  0  0  0  0  0  0  0  0  0
   42.3680   82.9620   54.6390 C   0  0  0  0  0  3  0  0  0  0  0  0
   42.5350   83.1760   55.9920 C   0  0  0  0  0  0  0  0  0  0  0  0
   43.5390   84.0240   56.4030 C   0  0  0  0  0  0  0  0  0  0  0  0
   43.6860   84.2020   57.4410 H   0  0  0  0  0  0  0  0  0  0  0  0
   44.3610   84.6440   55.4540 C   0  0  0  0  0  0  0  0  0  0  0  0
   45.4010   85.5070   55.6550 N   0  0  0  0  0  0  0  0  0  0  0  0
   45.8530   85.8090   54.4130 C   0  0  0  0  0  0  0  0  0  0  0  0
   46.6790   86.4710   54.1360 H   0  0  0  0  0  0  0  0  0  0  0  0
   45.1260   85.1600   53.4830 N   0  0  0  0  0  0  0  0  0  0  0  0
   44.1860   84.4240   54.1030 C   0  0  0  0  0  0  0  0  0  0  0  0
   43.1840   83.5780   53.6830 C   0  0  0  0  0  3  0  0  0  0  0  0
   45.7980   85.8840   56.5370 H   0  0  0  0  0  0  0  0  0  0  0  0
  1  6  1  0  0  0  0
  2  3  1  0  0  0  0
  2  1  2  0  0  0  0
  3  4  2  0  0  0  0
  4  5  1  0  0  0  0
  5 10  1  0  0  0  0
  6  5  2  0  0  0  0
  7  1  1  0  0  0  0
  8  2  1  0  0  0  0
  9 17  1  0  0  0  0
 10  9  2  0  0  0  0
 10 11  1  0  0  0  0
 11 12  2  0  0  0  0
 12 16  1  0  0  0  0
 12 13  1  0  0  0  0
 13 14  1  0  0  0  0
 14 21  1  0  0  0  0
 15 14  2  0  0  0  0
 16 15  1  0  0  0  0
 17 22  1  0  0  0  0
 17 16  2  0  0  0  0
 18  9  1  0  0  0  0
 19 11  1  0  0  0  0
 20 13  1  0  0  0  0
 23 24  1  0  0  0  0
 24 25  2  0  0  0  0
 24  3  1  0  0  0  0
 25 26  1  0  0  0  0
 27 28  1  0  0  0  0
 27 25  1  0  0  0  0
 28 34  1  0  0  0  0
 29 28  1  0  0  0  0
 30 29  1  0  0  0  0
 31 32  1  0  0  0  0
 31 29  2  0  0  0  0
 32 27  2  0  0  0  0
 33 32  1  0  0  0  0
 33 23  2  0  0  0  0
M  END
>  <minimizedAffinity>
-5.13337231

>  <minimizedRMSD>
0.740972519

$$$$
