
 OpenBabel03212520093D

 21 23  0  0  0  0  0  0  0  0999 V2000
   41.5650   83.4410   57.5940 C   0  0  0  0  0  3  0  0  0  0  0  0
   40.5800   82.6920   58.2150 C   0  0  0  0  0  0  0  0  0  0  0  0
   40.1020   81.5650   57.5710 C   0  0  0  0  0  0  0  0  0  0  0  0
   39.3410   80.9690   58.0340 H   0  0  0  0  0  0  0  0  0  0  0  0
   40.5600   81.1500   56.3350 C   0  0  0  0  0  0  0  0  0  0  0  0
   40.2180   80.0860   55.5590 N   0  0  0  0  0  0  0  0  0  0  0  0
   41.0010   80.1810   54.4450 C   0  0  0  0  0  0  0  0  0  0  0  0
   40.9260   79.4530   53.6610 H   0  0  0  0  0  0  0  0  0  0  0  0
   41.7890   81.2680   54.5510 N   0  0  0  0  0  0  0  0  0  0  0  0
   41.5400   81.9000   55.7250 C   0  0  0  0  0  0  0  0  0  0  0  0
   42.0410   83.0390   56.3440 C   0  0  0  0  0  3  0  0  0  0  0  0
   39.4900   79.3630   55.8050 H   0  0  0  0  0  0  0  0  0  0  0  0
   40.0270   82.0310   60.5170 C   0  0  0  0  0  0  0  0  0  0  0  0
   40.0160   83.0230   59.5180 C   0  0  0  0  0  0  0  0  0  0  0  0
   39.4590   84.2540   59.8690 C   0  0  0  0  0  0  0  0  0  0  0  0
   38.9710   84.4210   61.1270 N   0  0  0  0  0  0  0  0  0  0  0  0
   39.0050   83.4410   62.0500 C   0  0  0  0  0  0  0  0  0  0  0  0
   39.5340   82.2430   61.7420 N   0  0  0  0  0  0  0  0  0  0  0  0
   40.4330   81.0320   60.3770 H   0  0  0  0  0  0  0  0  0  0  0  0
   39.4530   85.0110   59.0980 H   0  0  0  0  0  0  0  0  0  0  0  0
   38.6100   83.6000   63.0440 H   0  0  0  0  0  0  0  0  0  0  0  0
  1  2  1  0  0  0  0
  2 14  1  0  0  0  0
  3  4  1  0  0  0  0
  3  2  2  0  0  0  0
  5  3  1  0  0  0  0
  6 12  1  0  0  0  0
  6  5  1  0  0  0  0
  7  9  2  0  0  0  0
  7  6  1  0  0  0  0
  8  7  1  0  0  0  0
  9 10  1  0  0  0  0
 10  5  2  0  0  0  0
 10 11  1  0  0  0  0
 11  1  2  0  0  0  0
 13 18  1  0  0  0  0
 14 15  1  0  0  0  0
 14 13  2  0  0  0  0
 15 16  2  0  0  0  0
 16 17  1  0  0  0  0
 17 21  1  0  0  0  0
 18 17  2  0  0  0  0
 19 13  1  0  0  0  0
 20 15  1  0  0  0  0
M  END
>  <minimizedAffinity>
-4.72984886

>  <minimizedRMSD>
1.36581349

$$$$
