
 OpenBabel03212520023D

 34 38  0  0  0  0  0  0  0  0999 V2000
   40.1530   81.1850   57.2860 C   0  0  0  0  0  0  0  0  0  0  0  0
   41.0690   81.7840   56.3800 C   0  0  0  0  0  0  0  0  0  0  0  0
   41.8830   82.7960   56.8670 C   0  0  0  0  0  0  0  0  0  0  0  0
   41.7750   83.1650   58.1580 N   0  0  0  0  0  0  0  0  0  0  0  0
   40.8810   82.5660   59.0040 C   0  0  0  0  0  0  0  0  0  0  0  0
   40.0800   81.5870   58.5710 N   0  0  0  0  0  0  0  0  0  0  0  0
   39.5130   80.3940   56.9160 H   0  0  0  0  0  0  0  0  0  0  0  0
   41.1430   81.4830   55.3650 H   0  0  0  0  0  0  0  0  0  0  0  0
   39.5260   83.0260   61.0020 C   0  0  0  0  0  0  0  0  0  0  0  0
   40.7970   82.9980   60.3970 C   0  0  0  0  0  0  0  0  0  0  0  0
   41.9090   83.3680   61.1100 C   0  0  0  0  0  0  0  0  0  0  0  0
   41.8430   83.7790   62.4280 C   0  0  0  0  0  0  0  0  0  0  0  0
   42.6790   84.1910   63.3890 N   0  0  0  0  0  0  0  0  0  0  0  0
   42.0040   84.4670   64.5300 C   0  0  0  0  0  0  0  0  0  0  0  0
   40.6920   84.2070   64.2430 N   0  0  0  0  0  0  0  0  0  0  0  0
   40.5670   83.7860   62.9710 C   0  0  0  0  0  0  0  0  0  0  0  0
   39.4080   83.4310   62.3260 C   0  0  0  0  0  0  0  0  0  0  0  0
   38.6220   82.7420   60.4740 H   0  0  0  0  0  0  0  0  0  0  0  0
   42.9030   83.3510   60.6510 H   0  0  0  0  0  0  0  0  0  0  0  0
   43.7060   84.2620   63.1910 H   0  0  0  0  0  0  0  0  0  0  0  0
   42.4590   84.8170   65.4440 H   0  0  0  0  0  0  0  0  0  0  0  0
   38.4520   83.4620   62.8100 H   0  0  0  0  0  0  0  0  0  0  0  0
   42.6440   83.5410   54.6860 C   0  0  0  0  0  3  0  0  0  0  0  0
   42.8640   83.4940   56.0460 C   0  0  0  0  0  0  0  0  0  0  0  0
   43.9910   84.1050   56.5490 C   0  0  0  0  0  0  0  0  0  0  0  0
   44.1820   84.0820   57.5950 H   0  0  0  0  0  0  0  0  0  0  0  0
   44.8800   84.7530   55.6820 C   0  0  0  0  0  0  0  0  0  0  0  0
   46.0400   85.4110   55.9790 N   0  0  0  0  0  0  0  0  0  0  0  0
   46.5100   85.8510   54.7850 C   0  0  0  0  0  0  0  0  0  0  0  0
   47.4210   86.4250   54.5870 H   0  0  0  0  0  0  0  0  0  0  0  0
   45.6780   85.4820   53.7930 N   0  0  0  0  0  0  0  0  0  0  0  0
   44.6490   84.7930   54.3220 C   0  0  0  0  0  0  0  0  0  0  0  0
   43.5250   84.1860   53.8110 C   0  0  0  0  0  3  0  0  0  0  0  0
   46.5050   85.5700   56.8930 H   0  0  0  0  0  0  0  0  0  0  0  0
  1  6  1  0  0  0  0
  2  3  1  0  0  0  0
  2  1  2  0  0  0  0
  3  4  2  0  0  0  0
  4  5  1  0  0  0  0
  5 10  1  0  0  0  0
  6  5  2  0  0  0  0
  7  1  1  0  0  0  0
  8  2  1  0  0  0  0
  9 17  1  0  0  0  0
 10  9  2  0  0  0  0
 10 11  1  0  0  0  0
 11 12  2  0  0  0  0
 12 16  1  0  0  0  0
 12 13  1  0  0  0  0
 13 14  1  0  0  0  0
 14 21  1  0  0  0  0
 15 14  2  0  0  0  0
 16 15  1  0  0  0  0
 17 22  1  0  0  0  0
 17 16  2  0  0  0  0
 18  9  1  0  0  0  0
 19 11  1  0  0  0  0
 20 13  1  0  0  0  0
 23 24  1  0  0  0  0
 24 25  2  0  0  0  0
 24  3  1  0  0  0  0
 25 26  1  0  0  0  0
 27 28  1  0  0  0  0
 27 25  1  0  0  0  0
 28 34  1  0  0  0  0
 29 28  1  0  0  0  0
 30 29  1  0  0  0  0
 31 32  1  0  0  0  0
 31 29  2  0  0  0  0
 32 27  2  0  0  0  0
 33 32  1  0  0  0  0
 33 23  2  0  0  0  0
M  END
>  <minimizedAffinity>
-5.10987043

>  <minimizedRMSD>
0.588508248

$$$$
