
 OpenBabel03212520093D

 21 23  0  0  0  0  0  0  0  0999 V2000
   42.1430   82.9070   58.1030 C   0  0  0  0  0  3  0  0  0  0  0  0
   40.8320   82.5660   58.3890 C   0  0  0  0  0  0  0  0  0  0  0  0
   40.1240   81.8220   57.4620 C   0  0  0  0  0  0  0  0  0  0  0  0
   39.1080   81.5450   57.6650 H   0  0  0  0  0  0  0  0  0  0  0  0
   40.6630   81.4000   56.2630 C   0  0  0  0  0  0  0  0  0  0  0  0
   40.1330   80.6720   55.2440 N   0  0  0  0  0  0  0  0  0  0  0  0
   41.1290   80.5620   54.3170 C   0  0  0  0  0  0  0  0  0  0  0  0
   40.9670   80.0260   53.4020 H   0  0  0  0  0  0  0  0  0  0  0  0
   42.2230   81.2030   54.7670 N   0  0  0  0  0  0  0  0  0  0  0  0
   41.9670   81.7420   55.9860 C   0  0  0  0  0  0  0  0  0  0  0  0
   42.7070   82.4900   56.8960 C   0  0  0  0  0  3  0  0  0  0  0  0
   39.1490   80.2920   55.2150 H   0  0  0  0  0  0  0  0  0  0  0  0
   40.0940   82.0090   60.6670 C   0  0  0  0  0  0  0  0  0  0  0  0
   40.1490   82.9490   59.6200 C   0  0  0  0  0  0  0  0  0  0  0  0
   39.5400   84.1820   59.8580 C   0  0  0  0  0  0  0  0  0  0  0  0
   38.9420   84.4000   61.0600 N   0  0  0  0  0  0  0  0  0  0  0  0
   38.9150   83.4680   62.0310 C   0  0  0  0  0  0  0  0  0  0  0  0
   39.4930   82.2690   61.8320 N   0  0  0  0  0  0  0  0  0  0  0  0
   40.5310   81.0140   60.6140 H   0  0  0  0  0  0  0  0  0  0  0  0
   39.5860   84.8990   59.0510 H   0  0  0  0  0  0  0  0  0  0  0  0
   38.4320   83.6660   62.9780 H   0  0  0  0  0  0  0  0  0  0  0  0
  1  2  1  0  0  0  0
  2 14  1  0  0  0  0
  3  4  1  0  0  0  0
  3  2  2  0  0  0  0
  5  3  1  0  0  0  0
  6  5  1  0  0  0  0
  7  9  2  0  0  0  0
  7  6  1  0  0  0  0
  8  7  1  0  0  0  0
  9 10  1  0  0  0  0
 10  5  2  0  0  0  0
 10 11  1  0  0  0  0
 11  1  2  0  0  0  0
 12  6  1  0  0  0  0
 13 18  1  0  0  0  0
 14 15  1  0  0  0  0
 14 13  2  0  0  0  0
 15 16  2  0  0  0  0
 16 17  1  0  0  0  0
 17 21  1  0  0  0  0
 18 17  2  0  0  0  0
 19 13  1  0  0  0  0
 20 15  1  0  0  0  0
M  END
>  <minimizedAffinity>
-4.62305117

>  <minimizedRMSD>
0.563972294

$$$$
