
 OpenBabel03212520023D

 34 38  0  0  0  0  0  0  0  0999 V2000
   40.1570   81.2040   57.3310 C   0  0  0  0  0  0  0  0  0  0  0  0
   41.0950   81.7860   56.4360 C   0  0  0  0  0  0  0  0  0  0  0  0
   41.9220   82.7810   56.9340 C   0  0  0  0  0  0  0  0  0  0  0  0
   41.8060   83.1510   58.2240 N   0  0  0  0  0  0  0  0  0  0  0  0
   40.8910   82.5690   59.0590 C   0  0  0  0  0  0  0  0  0  0  0  0
   40.0760   81.6060   58.6150 N   0  0  0  0  0  0  0  0  0  0  0  0
   39.5060   80.4250   56.9520 H   0  0  0  0  0  0  0  0  0  0  0  0
   41.1760   81.4840   55.4220 H   0  0  0  0  0  0  0  0  0  0  0  0
   39.5250   83.0220   61.0510 C   0  0  0  0  0  0  0  0  0  0  0  0
   40.7980   83.0010   60.4510 C   0  0  0  0  0  0  0  0  0  0  0  0
   41.9050   83.3790   61.1690 C   0  0  0  0  0  0  0  0  0  0  0  0
   41.8310   83.7900   62.4850 C   0  0  0  0  0  0  0  0  0  0  0  0
   42.6600   84.2080   63.4500 N   0  0  0  0  0  0  0  0  0  0  0  0
   41.9790   84.4810   64.5880 C   0  0  0  0  0  0  0  0  0  0  0  0
   40.6690   84.2120   64.2950 N   0  0  0  0  0  0  0  0  0  0  0  0
   40.5520   83.7890   63.0240 C   0  0  0  0  0  0  0  0  0  0  0  0
   39.3990   83.4270   62.3740 C   0  0  0  0  0  0  0  0  0  0  0  0
   38.6240   82.7310   60.5190 H   0  0  0  0  0  0  0  0  0  0  0  0
   42.9010   83.3670   60.7130 H   0  0  0  0  0  0  0  0  0  0  0  0
   43.6870   84.2850   63.2560 H   0  0  0  0  0  0  0  0  0  0  0  0
   42.4280   84.8340   65.5040 H   0  0  0  0  0  0  0  0  0  0  0  0
   38.4410   83.4520   62.8540 H   0  0  0  0  0  0  0  0  0  0  0  0
   44.2020   83.5580   56.6420 C   0  0  0  0  0  3  0  0  0  0  0  0
   42.9270   83.4610   56.1260 C   0  0  0  0  0  0  0  0  0  0  0  0
   42.6770   84.0060   54.8870 C   0  0  0  0  0  0  0  0  0  0  0  0
   41.7020   83.9420   54.4690 H   0  0  0  0  0  0  0  0  0  0  0  0
   43.7090   84.6400   54.1830 C   0  0  0  0  0  0  0  0  0  0  0  0
   43.6670   85.2380   52.9540 N   0  0  0  0  0  0  0  0  0  0  0  0
   44.9250   85.6930   52.7410 C   0  0  0  0  0  0  0  0  0  0  0  0
   45.3110   86.2320   51.8700 H   0  0  0  0  0  0  0  0  0  0  0  0
   45.7140   85.3910   53.7910 N   0  0  0  0  0  0  0  0  0  0  0  0
   44.9820   84.7340   54.7080 C   0  0  0  0  0  0  0  0  0  0  0  0
   45.2400   84.1910   55.9460 C   0  0  0  0  0  3  0  0  0  0  0  0
   42.8770   85.3470   52.2900 H   0  0  0  0  0  0  0  0  0  0  0  0
  1  6  1  0  0  0  0
  2  3  1  0  0  0  0
  2  1  2  0  0  0  0
  3  4  2  0  0  0  0
  4  5  1  0  0  0  0
  5 10  1  0  0  0  0
  6  5  2  0  0  0  0
  7  1  1  0  0  0  0
  8  2  1  0  0  0  0
  9 17  1  0  0  0  0
 10  9  2  0  0  0  0
 10 11  1  0  0  0  0
 11 12  2  0  0  0  0
 12 16  1  0  0  0  0
 12 13  1  0  0  0  0
 13 14  1  0  0  0  0
 14 21  1  0  0  0  0
 15 14  2  0  0  0  0
 16 15  1  0  0  0  0
 17 22  1  0  0  0  0
 17 16  2  0  0  0  0
 18  9  1  0  0  0  0
 19 11  1  0  0  0  0
 20 13  1  0  0  0  0
 24 23  1  0  0  0  0
 24  3  1  0  0  0  0
 25 24  2  0  0  0  0
 26 25  1  0  0  0  0
 27 32  2  0  0  0  0
 27 25  1  0  0  0  0
 28 27  1  0  0  0  0
 29 28  1  0  0  0  0
 29 31  2  0  0  0  0
 30 29  1  0  0  0  0
 31 32  1  0  0  0  0
 32 33  1  0  0  0  0
 33 23  2  0  0  0  0
 34 28  1  0  0  0  0
M  END
>  <minimizedAffinity>
-5.44249392

>  <minimizedRMSD>
0.452531487

$$$$
