
 OpenBabel03212519593D

 21 23  0  0  0  0  0  0  0  0999 V2000
   39.5310   83.0830   61.0420 C   0  0  0  0  0  0  0  0  0  0  0  0
   40.8020   83.1230   60.4630 C   0  0  0  0  0  0  0  0  0  0  0  0
   41.9060   83.5140   61.1960 C   0  0  0  0  0  0  0  0  0  0  0  0
   42.8930   83.5460   60.7520 H   0  0  0  0  0  0  0  0  0  0  0  0
   41.7900   83.8800   62.5300 C   0  0  0  0  0  0  0  0  0  0  0  0
   42.6050   84.2950   63.5140 N   0  0  0  0  0  0  0  0  0  0  0  0
   41.8990   84.5080   64.6520 C   0  0  0  0  0  0  0  0  0  0  0  0
   42.2610   84.8450   65.6150 H   0  0  0  0  0  0  0  0  0  0  0  0
   40.6090   84.2080   64.3370 N   0  0  0  0  0  0  0  0  0  0  0  0
   40.5180   83.8230   63.0520 C   0  0  0  0  0  0  0  0  0  0  0  0
   39.3760   83.4430   62.3760 C   0  0  0  0  0  0  0  0  0  0  0  0
   43.6200   84.4200   63.3770 H   0  0  0  0  0  0  0  0  0  0  0  0
   40.3440   81.3130   57.3150 C   0  0  0  0  0  0  0  0  0  0  0  0
   41.1800   82.0100   56.4100 C   0  0  0  0  0  0  0  0  0  0  0  0
   41.8900   83.1000   56.9150 C   0  0  0  0  0  0  0  0  0  0  0  0
   41.7490   83.4340   58.2220 N   0  0  0  0  0  0  0  0  0  0  0  0
   40.9350   82.7410   59.0610 C   0  0  0  0  0  0  0  0  0  0  0  0
   40.2390   81.6850   58.6010 N   0  0  0  0  0  0  0  0  0  0  0  0
   39.7830   80.4620   56.9400 H   0  0  0  0  0  0  0  0  0  0  0  0
   41.2780   81.7330   55.3880 H   0  0  0  0  0  0  0  0  0  0  0  0
   42.5520   83.6910   56.3010 H   0  0  0  0  0  0  0  0  0  0  0  0
  1 11  1  0  0  0  0
  2  1  2  0  0  0  0
  2  3  1  0  0  0  0
  3  5  2  0  0  0  0
  4  3  1  0  0  0  0
  5 10  1  0  0  0  0
  5  6  1  0  0  0  0
  6  7  1  0  0  0  0
  7  8  1  0  0  0  0
  9  7  2  0  0  0  0
 10  9  1  0  0  0  0
 11 10  2  0  0  0  0
 12  6  1  0  0  0  0
 13 18  1  0  0  0  0
 14 15  1  0  0  0  0
 14 13  2  0  0  0  0
 15 16  2  0  0  0  0
 16 17  1  0  0  0  0
 17  2  1  0  0  0  0
 18 17  2  0  0  0  0
 19 13  1  0  0  0  0
 20 14  1  0  0  0  0
 21 15  1  0  0  0  0
M  END
>  <minimizedAffinity>
-4.55190277

>  <minimizedRMSD>
4.25963926

$$$$
