
 OpenBabel03212520023D

 34 38  0  0  0  0  0  0  0  0999 V2000
   40.4690   81.6710   57.1960 C   0  0  0  0  0  0  0  0  0  0  0  0
   41.4900   82.2830   56.4190 C   0  0  0  0  0  0  0  0  0  0  0  0
   42.3030   83.2120   57.0500 C   0  0  0  0  0  0  0  0  0  0  0  0
   42.0990   83.4930   58.3510 N   0  0  0  0  0  0  0  0  0  0  0  0
   41.1050   82.8850   59.0700 C   0  0  0  0  0  0  0  0  0  0  0  0
   40.3000   81.9840   58.4970 N   0  0  0  0  0  0  0  0  0  0  0  0
   39.8270   80.9440   56.7140 H   0  0  0  0  0  0  0  0  0  0  0  0
   41.6400   82.0520   55.3940 H   0  0  0  0  0  0  0  0  0  0  0  0
   39.6270   83.0800   61.0230 C   0  0  0  0  0  0  0  0  0  0  0  0
   40.9180   83.2200   60.4790 C   0  0  0  0  0  0  0  0  0  0  0  0
   41.9530   83.6590   61.2650 C   0  0  0  0  0  0  0  0  0  0  0  0
   41.7890   83.9790   62.5980 C   0  0  0  0  0  0  0  0  0  0  0  0
   42.5350   84.4160   63.6200 N   0  0  0  0  0  0  0  0  0  0  0  0
   41.7890   84.5510   64.7410 C   0  0  0  0  0  0  0  0  0  0  0  0
   40.5240   84.1750   64.3770 N   0  0  0  0  0  0  0  0  0  0  0  0
   40.4970   83.8220   63.0800 C   0  0  0  0  0  0  0  0  0  0  0  0
   39.4110   83.3890   62.3610 C   0  0  0  0  0  0  0  0  0  0  0  0
   38.7810   82.7370   60.4370 H   0  0  0  0  0  0  0  0  0  0  0  0
   42.9620   83.7720   60.8530 H   0  0  0  0  0  0  0  0  0  0  0  0
   43.5570   84.6040   63.4760 H   0  0  0  0  0  0  0  0  0  0  0  0
   42.1650   84.8890   65.6940 H   0  0  0  0  0  0  0  0  0  0  0  0
   38.4380   83.2920   62.7990 H   0  0  0  0  0  0  0  0  0  0  0  0
   44.2650   84.6380   57.1500 C   0  0  0  0  0  3  0  0  0  0  0  0
   43.3870   83.9130   56.3720 C   0  0  0  0  0  0  0  0  0  0  0  0
   43.5820   83.8910   55.0080 C   0  0  0  0  0  0  0  0  0  0  0  0
   42.9170   83.3390   54.3900 H   0  0  0  0  0  0  0  0  0  0  0  0
   44.6530   84.5960   54.4460 C   0  0  0  0  0  0  0  0  0  0  0  0
   45.0140   84.7020   53.1320 N   0  0  0  0  0  0  0  0  0  0  0  0
   46.1130   85.4940   53.1320 C   0  0  0  0  0  0  0  0  0  0  0  0
   46.7110   85.8230   52.2750 H   0  0  0  0  0  0  0  0  0  0  0  0
   46.4210   85.8650   54.3900 N   0  0  0  0  0  0  0  0  0  0  0  0
   45.5260   85.3200   55.2330 C   0  0  0  0  0  0  0  0  0  0  0  0
   45.3380   85.3460   56.5970 C   0  0  0  0  0  3  0  0  0  0  0  0
   44.5810   84.2880   52.2840 H   0  0  0  0  0  0  0  0  0  0  0  0
  1  6  1  0  0  0  0
  2  3  1  0  0  0  0
  2  1  2  0  0  0  0
  3  4  2  0  0  0  0
  4  5  1  0  0  0  0
  5 10  1  0  0  0  0
  6  5  2  0  0  0  0
  7  1  1  0  0  0  0
  8  2  1  0  0  0  0
  9 17  1  0  0  0  0
 10  9  2  0  0  0  0
 10 11  1  0  0  0  0
 11 12  2  0  0  0  0
 12 16  1  0  0  0  0
 12 13  1  0  0  0  0
 13 14  1  0  0  0  0
 14 21  1  0  0  0  0
 15 14  2  0  0  0  0
 16 15  1  0  0  0  0
 17 22  1  0  0  0  0
 17 16  2  0  0  0  0
 18  9  1  0  0  0  0
 19 11  1  0  0  0  0
 20 13  1  0  0  0  0
 24  3  1  0  0  0  0
 24 23  2  0  0  0  0
 25 24  1  0  0  0  0
 26 25  1  0  0  0  0
 27 25  2  0  0  0  0
 27 32  1  0  0  0  0
 28 27  1  0  0  0  0
 29 28  1  0  0  0  0
 29 31  2  0  0  0  0
 30 29  1  0  0  0  0
 31 32  1  0  0  0  0
 32 33  2  0  0  0  0
 33 23  1  0  0  0  0
 34 28  1  0  0  0  0
M  END
>  <minimizedAffinity>
-5.00466824

>  <minimizedRMSD>
0.697723627

$$$$
