
 OpenBabel03212520313D

 43 46  0  0  0  0  0  0  0  0999 V2000
   42.5790   82.4170   61.8490 C   0  0  0  0  0  0  0  0  0  0  0  0
   42.8690   81.2740   61.1270 C   0  0  0  0  0  0  0  0  0  0  0  0
   44.0190   80.5520   61.3800 C   0  0  0  0  0  0  0  0  0  0  0  0
   44.9400   80.9230   62.3610 C   0  0  0  0  0  0  0  0  0  0  0  0
   44.6690   82.0600   63.0930 C   0  0  0  0  0  0  0  0  0  0  0  0
   43.5220   82.7740   62.8360 C   0  0  0  0  0  0  0  0  0  0  0  0
   44.2230   79.6620   60.8000 H   0  0  0  0  0  0  0  0  0  0  0  0
   45.8080   80.2980   62.4870 H   0  0  0  0  0  0  0  0  0  0  0  0
   45.3610   82.3590   63.8480 H   0  0  0  0  0  0  0  0  0  0  0  0
   43.3530   83.6600   63.4380 H   0  0  0  0  0  0  0  0  0  0  0  0
   40.1520   79.4920   59.3700 C   0  0  0  0  0  0  0  0  0  0  0  0
   40.3070   79.9250   58.0710 C   0  0  0  0  0  0  0  0  0  0  0  0
   41.3490   80.8260   57.8250 C   0  0  0  0  0  0  0  0  0  0  0  0
   42.1410   81.2180   58.8630 N   0  0  0  0  0  0  0  0  0  0  0  0
   41.9660   80.7830   60.0980 C   0  0  0  0  0  0  0  0  0  0  0  0
   40.9660   79.9160   60.3450 N   0  0  0  0  0  0  0  0  0  0  0  0
   39.3490   78.7940   59.5770 H   0  0  0  0  0  0  0  0  0  0  0  0
   41.4980   81.1830   56.8240 H   0  0  0  0  0  0  0  0  0  0  0  0
   39.4500   79.4810   57.0320 N   0  0  0  0  0  0  0  0  0  0  0  0
   38.5030   80.3610   56.7100 C   0  0  0  0  0  0  0  0  0  0  0  0
   37.6040   80.0190   55.6950 C   0  0  0  0  0  0  0  0  0  0  0  0
   37.7210   78.7950   55.0630 C   0  0  0  0  0  0  0  0  0  0  0  0
   36.9740   78.3790   54.1410 O   0  0  0  0  0  0  0  0  0  0  0  0
   38.7190   77.9480   55.4510 N   0  0  0  0  0  0  0  0  0  0  0  0
   39.5940   78.2810   56.4390 C   0  0  0  0  0  0  0  0  0  0  0  0
   40.5090   77.5140   56.7990 O   0  0  0  0  0  0  0  0  0  0  0  0
   38.3630   81.3170   57.1590 H   0  0  0  0  0  0  0  0  0  0  0  0
   36.8170   80.6720   55.3790 H   0  0  0  0  0  0  0  0  0  0  0  0
   38.8920   77.0050   55.0380 H   0  0  0  0  0  0  0  0  0  0  0  0
   41.1600   83.3600   61.5520 S   0  0  0  0  0  0  0  0  0  0  0  0
   40.8920   84.2780   62.7130 O   0  0  0  0  0  0  0  0  0  0  0  0
   39.9780   82.4030   61.5900 O   0  0  0  0  0  0  0  0  0  0  0  0
   39.9410   84.9500   59.9230 C   0  0  0  0  0  0  0  0  0  0  0  0
   41.1840   84.3320   60.1360 C   0  0  0  0  0  0  0  0  0  0  0  0
   42.1670   84.5890   59.1710 C   0  0  0  0  0  0  0  0  0  0  0  0
   43.0770   84.0520   59.4570 H   0  0  0  0  0  0  0  0  0  0  0  0
   41.9310   85.3960   58.0810 C   0  0  0  0  0  3  0  0  0  0  0  0
   40.6990   85.9880   57.8990 C   0  0  0  0  0  3  0  0  0  0  0  0
   39.7020   85.7680   58.8180 C   0  0  0  0  0  0  0  0  0  0  0  0
   38.8040   84.8460   60.7440 O   0  0  0  0  0  0  0  0  0  0  0  0
   38.5780   85.6140   61.3710 H   0  0  0  0  0  0  0  0  0  0  0  0
   38.5110   86.3990   58.5520 O   0  0  0  0  0  0  0  0  0  0  0  0
   38.4910   87.3530   58.2460 H   0  0  0  0  0  0  0  0  0  0  0  0
  1  6  1  0  0  0  0
  2  3  1  0  0  0  0
  2  1  2  0  0  0  0
  3  4  2  0  0  0  0
  4  8  1  0  0  0  0
  4  5  1  0  0  0  0
  5  9  1  0  0  0  0
  6  5  2  0  0  0  0
  6 10  1  0  0  0  0
  7  3  1  0  0  0  0
 11 17  1  0  0  0  0
 11 16  1  0  0  0  0
 12 11  2  0  0  0  0
 13 12  1  0  0  0  0
 13 14  2  0  0  0  0
 14 15  1  0  0  0  0
 15 16  2  0  0  0  0
 15  2  1  0  0  0  0
 18 13  1  0  0  0  0
 19 12  1  0  0  0  0
 20 19  1  0  0  0  0
 20 27  1  0  0  0  0
 21 20  2  0  0  0  0
 22 24  1  0  0  0  0
 22 21  1  0  0  0  0
 23 22  2  0  0  0  0
 24 25  1  0  0  0  0
 25 26  2  0  0  0  0
 25 19  1  0  0  0  0
 28 21  1  0  0  0  0
 29 24  1  0  0  0  0
 30 32  2  0  0  0  0
 30  1  1  0  0  0  0
 30 31  2  0  0  0  0
 33 34  1  0  0  0  0
 33 40  1  0  0  0  0
 34 30  1  0  0  0  0
 35 36  1  0  0  0  0
 35 34  2  0  0  0  0
 37 35  1  0  0  0  0
 38 37  2  0  0  0  0
 38 39  1  0  0  0  0
 39 33  2  0  0  0  0
 40 41  1  0  0  0  0
 42 39  1  0  0  0  0
 43 42  1  0  0  0  0
M  END
>  <minimizedAffinity>
-7.09228945

>  <minimizedRMSD>
1.76772833

$$$$
