
 OpenBabel03212520333D

 43 46  0  0  0  0  0  0  0  0999 V2000
   38.4410   74.8820   55.3270 C   0  0  0  0  0  0  0  0  0  0  0  0
   39.3610   73.8510   55.3400 C   0  0  0  0  0  0  0  0  0  0  0  0
   39.8760   73.3490   54.1620 C   0  0  0  0  0  0  0  0  0  0  0  0
   39.5060   73.8420   52.9080 C   0  0  0  0  0  0  0  0  0  0  0  0
   38.5890   74.8700   52.8740 C   0  0  0  0  0  0  0  0  0  0  0  0
   38.0800   75.3660   54.0520 C   0  0  0  0  0  0  0  0  0  0  0  0
   40.5940   72.5410   54.1990 H   0  0  0  0  0  0  0  0  0  0  0  0
   39.9600   73.3870   52.0440 H   0  0  0  0  0  0  0  0  0  0  0  0
   38.2940   75.2610   51.9260 H   0  0  0  0  0  0  0  0  0  0  0  0
   37.3630   76.1750   53.9720 H   0  0  0  0  0  0  0  0  0  0  0  0
   39.7020   71.7420   58.3540 C   0  0  0  0  0  0  0  0  0  0  0  0
   40.8250   72.2670   58.9560 C   0  0  0  0  0  0  0  0  0  0  0  0
   41.4440   73.3430   58.3100 C   0  0  0  0  0  0  0  0  0  0  0  0
   40.9140   73.8050   57.1420 N   0  0  0  0  0  0  0  0  0  0  0  0
   39.8350   73.2790   56.5910 C   0  0  0  0  0  0  0  0  0  0  0  0
   39.2310   72.2430   57.2060 N   0  0  0  0  0  0  0  0  0  0  0  0
   39.2110   70.9080   58.8420 H   0  0  0  0  0  0  0  0  0  0  0  0
   42.3210   73.7750   58.7510 H   0  0  0  0  0  0  0  0  0  0  0  0
   41.3310   71.7420   60.1730 N   0  0  0  0  0  0  0  0  0  0  0  0
   42.3220   70.8680   60.0040 C   0  0  0  0  0  0  0  0  0  0  0  0
   42.8910   70.2900   61.1430 C   0  0  0  0  0  0  0  0  0  0  0  0
   42.4170   70.6380   62.3950 C   0  0  0  0  0  0  0  0  0  0  0  0
   42.8480   70.1860   63.4870 O   0  0  0  0  0  0  0  0  0  0  0  0
   41.3980   71.5420   62.4830 N   0  0  0  0  0  0  0  0  0  0  0  0
   40.8440   72.1040   61.3740 C   0  0  0  0  0  0  0  0  0  0  0  0
   39.9140   72.9310   61.4460 O   0  0  0  0  0  0  0  0  0  0  0  0
   42.7290   70.5610   59.0690 H   0  0  0  0  0  0  0  0  0  0  0  0
   43.6900   69.5800   61.0910 H   0  0  0  0  0  0  0  0  0  0  0  0
   40.9710   71.8700   63.3780 H   0  0  0  0  0  0  0  0  0  0  0  0
   37.7580   75.5270   56.7800 S   0  0  0  0  0  0  0  0  0  0  0  0
   37.0020   74.4580   57.5200 O   0  0  0  0  0  0  0  0  0  0  0  0
   36.6640   76.4960   56.3610 O   0  0  0  0  0  0  0  0  0  0  0  0
   38.7170   75.6640   59.1740 C   0  0  0  0  0  0  0  0  0  0  0  0
   38.8700   76.2190   57.8920 C   0  0  0  0  0  0  0  0  0  0  0  0
   39.8430   77.2200   57.7730 C   0  0  0  0  0  0  0  0  0  0  0  0
   39.8570   77.5620   56.7340 H   0  0  0  0  0  0  0  0  0  0  0  0
   40.6010   77.6350   58.8440 C   0  0  0  0  0  3  0  0  0  0  0  0
   40.4280   77.0710   60.0890 C   0  0  0  0  0  3  0  0  0  0  0  0
   39.4870   76.0850   60.2580 C   0  0  0  0  0  0  0  0  0  0  0  0
   37.8140   74.6510   59.5430 O   0  0  0  0  0  0  0  0  0  0  0  0
   38.1580   73.7000   59.6580 H   0  0  0  0  0  0  0  0  0  0  0  0
   39.3880   75.5830   61.5330 O   0  0  0  0  0  0  0  0  0  0  0  0
   40.2060   75.3710   62.0690 H   0  0  0  0  0  0  0  0  0  0  0  0
  1  2  1  0  0  0  0
  1 30  1  0  0  0  0
  2 15  1  0  0  0  0
  3  7  1  0  0  0  0
  3  2  2  0  0  0  0
  4  3  1  0  0  0  0
  5  4  2  0  0  0  0
  5  6  1  0  0  0  0
  6  1  2  0  0  0  0
  8  4  1  0  0  0  0
  9  5  1  0  0  0  0
 10  6  1  0  0  0  0
 11 17  1  0  0  0  0
 11 12  1  0  0  0  0
 12 19  1  0  0  0  0
 13 18  1  0  0  0  0
 13 12  2  0  0  0  0
 14 13  1  0  0  0  0
 15 14  2  0  0  0  0
 15 16  1  0  0  0  0
 16 11  2  0  0  0  0
 19 25  1  0  0  0  0
 20 19  1  0  0  0  0
 20 21  2  0  0  0  0
 21 22  1  0  0  0  0
 22 24  1  0  0  0  0
 22 23  2  0  0  0  0
 24 29  1  0  0  0  0
 25 26  2  0  0  0  0
 25 24  1  0  0  0  0
 27 20  1  0  0  0  0
 28 21  1  0  0  0  0
 30 31  2  0  0  0  0
 30 34  1  0  0  0  0
 32 30  2  0  0  0  0
 33 40  1  0  0  0  0
 33 39  1  0  0  0  0
 34 33  2  0  0  0  0
 35 34  1  0  0  0  0
 35 37  2  0  0  0  0
 36 35  1  0  0  0  0
 37 38  1  0  0  0  0
 38 39  2  0  0  0  0
 39 42  1  0  0  0  0
 40 41  1  0  0  0  0
 42 43  1  0  0  0  0
M  END
>  <minimizedAffinity>
-7.34192753

$$$$

 OpenBabel03212520333D

 43 46  0  0  0  0  0  0  0  0999 V2000
   39.4710   75.1940   58.4380 C   0  0  0  0  0  0  0  0  0  0  0  0
   40.3630   75.1250   59.4920 C   0  0  0  0  0  0  0  0  0  0  0  0
   40.7820   76.2710   60.1380 C   0  0  0  0  0  0  0  0  0  0  0  0
   40.3400   77.5450   59.7740 C   0  0  0  0  0  0  0  0  0  0  0  0
   39.4500   77.6350   58.7250 C   0  0  0  0  0  0  0  0  0  0  0  0
   39.0360   76.4890   58.0860 C   0  0  0  0  0  0  0  0  0  0  0  0
   41.4820   76.1910   60.9590 H   0  0  0  0  0  0  0  0  0  0  0  0
   40.7220   78.3810   60.3360 H   0  0  0  0  0  0  0  0  0  0  0  0
   39.1000   78.6000   58.4320 H   0  0  0  0  0  0  0  0  0  0  0  0
   38.3360   76.6120   57.2680 H   0  0  0  0  0  0  0  0  0  0  0  0
   42.3270   72.0180   59.8550 C   0  0  0  0  0  0  0  0  0  0  0  0
   41.7540   71.4350   60.9660 C   0  0  0  0  0  0  0  0  0  0  0  0
   40.6980   72.1270   61.5690 C   0  0  0  0  0  0  0  0  0  0  0  0
   40.2990   73.3160   61.0360 N   0  0  0  0  0  0  0  0  0  0  0  0
   40.8690   73.8480   59.9690 C   0  0  0  0  0  0  0  0  0  0  0  0
   41.8860   73.1890   59.3810 N   0  0  0  0  0  0  0  0  0  0  0  0
   43.1460   71.4940   59.3760 H   0  0  0  0  0  0  0  0  0  0  0  0
   40.2300   71.7020   62.4360 H   0  0  0  0  0  0  0  0  0  0  0  0
   42.2140   70.1940   61.4750 N   0  0  0  0  0  0  0  0  0  0  0  0
   42.7910   70.2900   62.6720 C   0  0  0  0  0  0  0  0  0  0  0  0
   43.2800   69.1210   63.2630 C   0  0  0  0  0  0  0  0  0  0  0  0
   43.1530   67.9150   62.5990 C   0  0  0  0  0  0  0  0  0  0  0  0
   43.5530   66.8030   63.0280 O   0  0  0  0  0  0  0  0  0  0  0  0
   42.5500   67.9000   61.3740 N   0  0  0  0  0  0  0  0  0  0  0  0
   42.0740   69.0380   60.7990 C   0  0  0  0  0  0  0  0  0  0  0  0
   41.5210   69.0330   59.6810 O   0  0  0  0  0  0  0  0  0  0  0  0
   42.9170   71.1880   63.2310 H   0  0  0  0  0  0  0  0  0  0  0  0
   43.7550   69.1160   64.2220 H   0  0  0  0  0  0  0  0  0  0  0  0
   42.4060   67.0450   60.7930 H   0  0  0  0  0  0  0  0  0  0  0  0
   38.9350   73.7840   57.5900 S   0  0  0  0  0  0  0  0  0  0  0  0
   37.6510   74.0720   56.8620 O   0  0  0  0  0  0  0  0  0  0  0  0
   38.5150   72.7700   58.6430 O   0  0  0  0  0  0  0  0  0  0  0  0
   39.5660   71.9110   55.9290 C   0  0  0  0  0  0  0  0  0  0  0  0
   40.0320   73.1340   56.4390 C   0  0  0  0  0  0  0  0  0  0  0  0
   41.2750   73.5640   55.9550 C   0  0  0  0  0  0  0  0  0  0  0  0
   41.5150   74.5200   56.4300 H   0  0  0  0  0  0  0  0  0  0  0  0
   41.9960   72.8330   55.0380 C   0  0  0  0  0  3  0  0  0  0  0  0
   41.5130   71.6360   54.5560 C   0  0  0  0  0  3  0  0  0  0  0  0
   40.2980   71.1720   55.0000 C   0  0  0  0  0  0  0  0  0  0  0  0
   38.3550   71.2750   56.2580 O   0  0  0  0  0  0  0  0  0  0  0  0
   37.5740   71.3340   55.6080 H   0  0  0  0  0  0  0  0  0  0  0  0
   39.9000   69.9720   54.4620 O   0  0  0  0  0  0  0  0  0  0  0  0
   40.0010   69.7850   53.4840 H   0  0  0  0  0  0  0  0  0  0  0  0
  1  2  1  0  0  0  0
  2 15  1  0  0  0  0
  2  3  2  0  0  0  0
  3  7  1  0  0  0  0
  4  3  1  0  0  0  0
  4  8  1  0  0  0  0
  5  4  2  0  0  0  0
  6  1  2  0  0  0  0
  6  5  1  0  0  0  0
  9  5  1  0  0  0  0
 10  6  1  0  0  0  0
 11 12  1  0  0  0  0
 12 19  1  0  0  0  0
 12 13  2  0  0  0  0
 13 18  1  0  0  0  0
 14 13  1  0  0  0  0
 15 14  2  0  0  0  0
 16 11  2  0  0  0  0
 16 15  1  0  0  0  0
 17 11  1  0  0  0  0
 19 20  1  0  0  0  0
 20 27  1  0  0  0  0
 20 21  2  0  0  0  0
 21 28  1  0  0  0  0
 22 23  2  0  0  0  0
 22 21  1  0  0  0  0
 24 22  1  0  0  0  0
 25 24  1  0  0  0  0
 25 19  1  0  0  0  0
 26 25  2  0  0  0  0
 29 24  1  0  0  0  0
 30  1  1  0  0  0  0
 30 32  2  0  0  0  0
 31 30  2  0  0  0  0
 33 40  1  0  0  0  0
 33 34  1  0  0  0  0
 34 30  1  0  0  0  0
 35 36  1  0  0  0  0
 35 34  2  0  0  0  0
 37 35  1  0  0  0  0
 38 39  1  0  0  0  0
 38 37  2  0  0  0  0
 39 33  2  0  0  0  0
 41 40  1  0  0  0  0
 42 39  1  0  0  0  0
 43 42  1  0  0  0  0
M  END
>  <minimizedAffinity>
-6.895648

$$$$

 OpenBabel03212520333D

 43 46  0  0  0  0  0  0  0  0999 V2000
   38.9980   75.8450   57.6880 C   0  0  0  0  0  0  0  0  0  0  0  0
   39.8300   74.7570   57.8800 C   0  0  0  0  0  0  0  0  0  0  0  0
   40.6240   74.6650   59.0050 C   0  0  0  0  0  0  0  0  0  0  0  0
   40.6360   75.6440   60.0000 C   0  0  0  0  0  0  0  0  0  0  0  0
   39.8140   76.7380   59.8280 C   0  0  0  0  0  0  0  0  0  0  0  0
   39.0250   76.8230   58.7040 C   0  0  0  0  0  0  0  0  0  0  0  0
   41.2670   73.8040   59.1300 H   0  0  0  0  0  0  0  0  0  0  0  0
   41.2890   75.4860   60.8430 H   0  0  0  0  0  0  0  0  0  0  0  0
   39.8090   77.4970   60.5780 H   0  0  0  0  0  0  0  0  0  0  0  0
   38.3950   77.7010   58.6160 H   0  0  0  0  0  0  0  0  0  0  0  0
   39.0200   71.7160   55.9450 C   0  0  0  0  0  0  0  0  0  0  0  0
   40.0640   71.6500   55.0470 C   0  0  0  0  0  0  0  0  0  0  0  0
   41.0310   72.6590   55.1280 C   0  0  0  0  0  0  0  0  0  0  0  0
   40.8920   73.6330   56.0710 N   0  0  0  0  0  0  0  0  0  0  0  0
   39.8780   73.6670   56.9180 C   0  0  0  0  0  0  0  0  0  0  0  0
   38.9420   72.7000   56.8480 N   0  0  0  0  0  0  0  0  0  0  0  0
   38.2630   70.9420   55.8950 H   0  0  0  0  0  0  0  0  0  0  0  0
   41.8570   72.6390   54.4440 H   0  0  0  0  0  0  0  0  0  0  0  0
   40.1550   70.6120   54.0860 N   0  0  0  0  0  0  0  0  0  0  0  0
   40.5490   69.4460   54.5970 C   0  0  0  0  0  0  0  0  0  0  0  0
   40.6720   68.3550   53.7300 C   0  0  0  0  0  0  0  0  0  0  0  0
   40.3850   68.5150   52.3870 C   0  0  0  0  0  0  0  0  0  0  0  0
   40.4590   67.6110   51.5150 O   0  0  0  0  0  0  0  0  0  0  0  0
   39.9880   69.7430   51.9410 N   0  0  0  0  0  0  0  0  0  0  0  0
   39.8690   70.8040   52.7850 C   0  0  0  0  0  0  0  0  0  0  0  0
   39.5060   71.9290   52.3860 O   0  0  0  0  0  0  0  0  0  0  0  0
   40.7830   69.2620   55.6190 H   0  0  0  0  0  0  0  0  0  0  0  0
   40.9820   67.3870   54.0640 H   0  0  0  0  0  0  0  0  0  0  0  0
   39.7490   69.9660   50.9500 H   0  0  0  0  0  0  0  0  0  0  0  0
   38.0010   76.0070   56.2840 S   0  0  0  0  0  0  0  0  0  0  0  0
   37.2140   77.2880   56.3500 O   0  0  0  0  0  0  0  0  0  0  0  0
   36.9260   74.9370   56.3800 O   0  0  0  0  0  0  0  0  0  0  0  0
   38.0690   75.3230   53.7950 C   0  0  0  0  0  0  0  0  0  0  0  0
   38.8190   75.9970   54.7740 C   0  0  0  0  0  0  0  0  0  0  0  0
   40.0640   76.4870   54.3580 C   0  0  0  0  0  0  0  0  0  0  0  0
   40.5380   76.9850   55.2090 H   0  0  0  0  0  0  0  0  0  0  0  0
   40.5250   76.3200   53.0710 C   0  0  0  0  0  3  0  0  0  0  0  0
   39.7660   75.6540   52.1340 C   0  0  0  0  0  3  0  0  0  0  0  0
   38.5370   75.1540   52.4920 C   0  0  0  0  0  0  0  0  0  0  0  0
   36.7980   74.7460   53.9670 O   0  0  0  0  0  0  0  0  0  0  0  0
   35.9800   75.2400   53.6180 H   0  0  0  0  0  0  0  0  0  0  0  0
   37.8540   74.5080   51.4900 O   0  0  0  0  0  0  0  0  0  0  0  0
   37.8120   74.8890   50.5650 H   0  0  0  0  0  0  0  0  0  0  0  0
  1  2  2  0  0  0  0
  1  6  1  0  0  0  0
  2  3  1  0  0  0  0
  3  7  1  0  0  0  0
  3  4  2  0  0  0  0
  4  8  1  0  0  0  0
  5  4  1  0  0  0  0
  5  9  1  0  0  0  0
  6  5  2  0  0  0  0
 10  6  1  0  0  0  0
 11 16  1  0  0  0  0
 12 13  1  0  0  0  0
 12 11  2  0  0  0  0
 13 14  2  0  0  0  0
 14 15  1  0  0  0  0
 15  2  1  0  0  0  0
 16 15  2  0  0  0  0
 17 11  1  0  0  0  0
 18 13  1  0  0  0  0
 19 20  1  0  0  0  0
 19 12  1  0  0  0  0
 20 27  1  0  0  0  0
 21 28  1  0  0  0  0
 21 20  2  0  0  0  0
 22 21  1  0  0  0  0
 23 22  2  0  0  0  0
 24 22  1  0  0  0  0
 24 25  1  0  0  0  0
 25 19  1  0  0  0  0
 26 25  2  0  0  0  0
 29 24  1  0  0  0  0
 30 31  2  0  0  0  0
 30 32  2  0  0  0  0
 30  1  1  0  0  0  0
 33 40  1  0  0  0  0
 33 34  1  0  0  0  0
 34 30  1  0  0  0  0
 35 34  2  0  0  0  0
 35 36  1  0  0  0  0
 37 35  1  0  0  0  0
 38 39  1  0  0  0  0
 38 37  2  0  0  0  0
 39 33  2  0  0  0  0
 41 40  1  0  0  0  0
 42 39  1  0  0  0  0
 43 42  1  0  0  0  0
M  END
>  <minimizedAffinity>
-6.64275265

$$$$

 OpenBabel03212520333D

 43 46  0  0  0  0  0  0  0  0999 V2000
   40.4940   73.4190   60.5490 C   0  0  0  0  0  0  0  0  0  0  0  0
   41.1830   72.8440   59.4980 C   0  0  0  0  0  0  0  0  0  0  0  0
   42.2860   72.0450   59.7280 C   0  0  0  0  0  0  0  0  0  0  0  0
   42.7630   71.7730   61.0120 C   0  0  0  0  0  0  0  0  0  0  0  0
   42.0900   72.3380   62.0750 C   0  0  0  0  0  0  0  0  0  0  0  0
   40.9920   73.1320   61.8380 C   0  0  0  0  0  0  0  0  0  0  0  0
   42.8080   71.6080   58.8880 H   0  0  0  0  0  0  0  0  0  0  0  0
   43.6300   71.1390   61.0940 H   0  0  0  0  0  0  0  0  0  0  0  0
   42.4390   72.1410   63.0640 H   0  0  0  0  0  0  0  0  0  0  0  0
   40.4960   73.5520   62.7060 H   0  0  0  0  0  0  0  0  0  0  0  0
   39.3280   72.6350   56.3110 C   0  0  0  0  0  0  0  0  0  0  0  0
   40.0360   73.4950   55.4990 C   0  0  0  0  0  0  0  0  0  0  0  0
   41.1440   74.1320   56.0690 C   0  0  0  0  0  0  0  0  0  0  0  0
   41.4580   73.8720   57.3700 N   0  0  0  0  0  0  0  0  0  0  0  0
   40.7580   73.0410   58.1200 C   0  0  0  0  0  0  0  0  0  0  0  0
   39.6900   72.4230   57.5810 N   0  0  0  0  0  0  0  0  0  0  0  0
   38.4660   72.1330   55.8840 H   0  0  0  0  0  0  0  0  0  0  0  0
   41.7180   74.8080   55.4660 H   0  0  0  0  0  0  0  0  0  0  0  0
   39.6600   73.7260   54.1520 N   0  0  0  0  0  0  0  0  0  0  0  0
   39.3840   75.0020   53.8870 C   0  0  0  0  0  0  0  0  0  0  0  0
   39.0010   75.3370   52.5840 C   0  0  0  0  0  0  0  0  0  0  0  0
   38.9220   74.3480   51.6210 C   0  0  0  0  0  0  0  0  0  0  0  0
   38.5900   74.5270   50.4210 O   0  0  0  0  0  0  0  0  0  0  0  0
   39.2200   73.0630   51.9720 N   0  0  0  0  0  0  0  0  0  0  0  0
   39.5930   72.7380   53.2400 C   0  0  0  0  0  0  0  0  0  0  0  0
   39.8690   71.5670   53.5690 O   0  0  0  0  0  0  0  0  0  0  0  0
   39.4270   75.8060   54.5850 H   0  0  0  0  0  0  0  0  0  0  0  0
   38.7630   76.3390   52.2930 H   0  0  0  0  0  0  0  0  0  0  0  0
   39.1910   72.2470   51.3210 H   0  0  0  0  0  0  0  0  0  0  0  0
   39.1200   74.4400   60.3030 S   0  0  0  0  0  0  0  0  0  0  0  0
   38.6950   75.0640   61.6040 O   0  0  0  0  0  0  0  0  0  0  0  0
   37.9510   73.5310   59.9590 O   0  0  0  0  0  0  0  0  0  0  0  0
   38.3220   75.6920   58.1900 C   0  0  0  0  0  0  0  0  0  0  0  0
   39.3240   75.7190   59.1740 C   0  0  0  0  0  0  0  0  0  0  0  0
   40.2870   76.7270   59.0370 C   0  0  0  0  0  0  0  0  0  0  0  0
   41.0000   76.6340   59.8610 H   0  0  0  0  0  0  0  0  0  0  0  0
   40.2540   77.6350   58.0030 C   0  0  0  0  0  3  0  0  0  0  0  0
   39.2580   77.5830   57.0530 C   0  0  0  0  0  3  0  0  0  0  0  0
   38.2890   76.6130   57.1430 C   0  0  0  0  0  0  0  0  0  0  0  0
   37.2510   74.7820   58.1120 O   0  0  0  0  0  0  0  0  0  0  0  0
   36.3260   75.0810   58.4130 H   0  0  0  0  0  0  0  0  0  0  0  0
   37.3390   76.6420   56.1520 O   0  0  0  0  0  0  0  0  0  0  0  0
   36.9300   77.5060   55.8530 H   0  0  0  0  0  0  0  0  0  0  0  0
  1  6  1  0  0  0  0
  2  3  1  0  0  0  0
  2  1  2  0  0  0  0
  3  4  2  0  0  0  0
  4  8  1  0  0  0  0
  4  5  1  0  0  0  0
  5  9  1  0  0  0  0
  6  5  2  0  0  0  0
  6 10  1  0  0  0  0
  7  3  1  0  0  0  0
 11 16  1  0  0  0  0
 12 13  1  0  0  0  0
 12 11  2  0  0  0  0
 13 14  2  0  0  0  0
 14 15  1  0  0  0  0
 15  2  1  0  0  0  0
 16 15  2  0  0  0  0
 17 11  1  0  0  0  0
 18 13  1  0  0  0  0
 19 12  1  0  0  0  0
 20 19  1  0  0  0  0
 20 27  1  0  0  0  0
 21 20  2  0  0  0  0
 22 24  1  0  0  0  0
 22 21  1  0  0  0  0
 23 22  2  0  0  0  0
 24 25  1  0  0  0  0
 25 26  2  0  0  0  0
 25 19  1  0  0  0  0
 28 21  1  0  0  0  0
 29 24  1  0  0  0  0
 30  1  1  0  0  0  0
 30 31  2  0  0  0  0
 32 30  2  0  0  0  0
 33 34  1  0  0  0  0
 34 30  1  0  0  0  0
 35 34  2  0  0  0  0
 35 36  1  0  0  0  0
 37 35  1  0  0  0  0
 38 39  1  0  0  0  0
 38 37  2  0  0  0  0
 39 33  2  0  0  0  0
 40 33  1  0  0  0  0
 40 41  1  0  0  0  0
 42 39  1  0  0  0  0
 43 42  1  0  0  0  0
M  END
>  <minimizedAffinity>
-6.42814112

$$$$

 OpenBabel03212520333D

 43 46  0  0  0  0  0  0  0  0999 V2000
   41.2400   75.5950   56.9510 C   0  0  0  0  0  0  0  0  0  0  0  0
   40.9360   74.4020   56.3220 C   0  0  0  0  0  0  0  0  0  0  0  0
   40.4210   74.3890   55.0410 C   0  0  0  0  0  0  0  0  0  0  0  0
   40.1810   75.5580   54.3150 C   0  0  0  0  0  0  0  0  0  0  0  0
   40.4770   76.7590   54.9240 C   0  0  0  0  0  0  0  0  0  0  0  0
   40.9900   76.7630   56.2010 C   0  0  0  0  0  0  0  0  0  0  0  0
   40.1910   73.4420   54.5720 H   0  0  0  0  0  0  0  0  0  0  0  0
   39.7770   75.4500   53.3220 H   0  0  0  0  0  0  0  0  0  0  0  0
   40.3010   77.6630   54.3860 H   0  0  0  0  0  0  0  0  0  0  0  0
   41.2080   77.7320   56.6360 H   0  0  0  0  0  0  0  0  0  0  0  0
   42.5670   71.4010   57.7300 C   0  0  0  0  0  0  0  0  0  0  0  0
   41.4990   70.6980   58.2450 C   0  0  0  0  0  0  0  0  0  0  0  0
   40.2320   71.2750   58.0960 C   0  0  0  0  0  0  0  0  0  0  0  0
   40.1250   72.4760   57.4600 N   0  0  0  0  0  0  0  0  0  0  0  0
   41.1700   73.1240   56.9770 C   0  0  0  0  0  0  0  0  0  0  0  0
   42.3930   72.5770   57.1160 N   0  0  0  0  0  0  0  0  0  0  0  0
   43.5550   70.9680   57.8380 H   0  0  0  0  0  0  0  0  0  0  0  0
   39.3790   70.7550   58.4850 H   0  0  0  0  0  0  0  0  0  0  0  0
   41.6730   69.4520   58.8980 N   0  0  0  0  0  0  0  0  0  0  0  0
   41.9590   69.5640   60.1940 C   0  0  0  0  0  0  0  0  0  0  0  0
   42.1510   68.3900   60.9300 C   0  0  0  0  0  0  0  0  0  0  0  0
   42.0400   67.1640   60.3010 C   0  0  0  0  0  0  0  0  0  0  0  0
   42.1910   66.0460   60.8570 O   0  0  0  0  0  0  0  0  0  0  0  0
   41.7450   67.1340   58.9690 N   0  0  0  0  0  0  0  0  0  0  0  0
   41.5580   68.2760   58.2520 C   0  0  0  0  0  0  0  0  0  0  0  0
   41.2870   68.2570   57.0350 O   0  0  0  0  0  0  0  0  0  0  0  0
   42.0570   70.4780   60.7320 H   0  0  0  0  0  0  0  0  0  0  0  0
   42.3840   68.3980   61.9750 H   0  0  0  0  0  0  0  0  0  0  0  0
   41.6390   66.2620   58.4040 H   0  0  0  0  0  0  0  0  0  0  0  0
   41.8690   75.6550   58.5610 S   0  0  0  0  0  0  0  0  0  0  0  0
   41.8030   77.0600   59.0940 O   0  0  0  0  0  0  0  0  0  0  0  0
   43.3640   75.3950   58.4600 O   0  0  0  0  0  0  0  0  0  0  0  0
   39.7320   74.9670   59.8360 C   0  0  0  0  0  0  0  0  0  0  0  0
   41.0930   74.6430   59.7120 C   0  0  0  0  0  0  0  0  0  0  0  0
   41.5540   73.6130   60.5430 C   0  0  0  0  0  0  0  0  0  0  0  0
   42.6200   73.4650   60.3460 H   0  0  0  0  0  0  0  0  0  0  0  0
   40.7250   72.9610   61.4280 C   0  0  0  0  0  3  0  0  0  0  0  0
   39.3940   73.3020   61.5270 C   0  0  0  0  0  3  0  0  0  0  0  0
   38.8940   74.3050   60.7330 C   0  0  0  0  0  0  0  0  0  0  0  0
   39.0390   75.9560   59.1150 O   0  0  0  0  0  0  0  0  0  0  0  0
   38.4440   75.6760   58.3390 H   0  0  0  0  0  0  0  0  0  0  0  0
   37.5570   74.5720   60.9020 O   0  0  0  0  0  0  0  0  0  0  0  0
   36.8880   73.8310   60.9800 H   0  0  0  0  0  0  0  0  0  0  0  0
  1 30  1  0  0  0  0
  2  1  1  0  0  0  0
  2 15  1  0  0  0  0
  3  2  2  0  0  0  0
  4  5  2  0  0  0  0
  4  3  1  0  0  0  0
  5  6  1  0  0  0  0
  6 10  1  0  0  0  0
  6  1  2  0  0  0  0
  7  3  1  0  0  0  0
  8  4  1  0  0  0  0
  9  5  1  0  0  0  0
 11 17  1  0  0  0  0
 11 12  1  0  0  0  0
 12 19  1  0  0  0  0
 13 12  2  0  0  0  0
 13 18  1  0  0  0  0
 14 13  1  0  0  0  0
 15 16  1  0  0  0  0
 15 14  2  0  0  0  0
 16 11  2  0  0  0  0
 19 20  1  0  0  0  0
 20 27  1  0  0  0  0
 20 21  2  0  0  0  0
 21 28  1  0  0  0  0
 22 23  2  0  0  0  0
 22 21  1  0  0  0  0
 24 22  1  0  0  0  0
 25 19  1  0  0  0  0
 25 24  1  0  0  0  0
 26 25  2  0  0  0  0
 29 24  1  0  0  0  0
 30 31  2  0  0  0  0
 30 34  1  0  0  0  0
 32 30  2  0  0  0  0
 33 39  1  0  0  0  0
 34 33  2  0  0  0  0
 34 35  1  0  0  0  0
 35 37  2  0  0  0  0
 36 35  1  0  0  0  0
 37 38  1  0  0  0  0
 39 42  1  0  0  0  0
 39 38  2  0  0  0  0
 40 33  1  0  0  0  0
 41 40  1  0  0  0  0
 42 43  1  0  0  0  0
M  END
>  <minimizedAffinity>
-6.39123249

$$$$

 OpenBabel03212520333D

 43 46  0  0  0  0  0  0  0  0999 V2000
   41.3210   75.3910   58.9510 C   0  0  0  0  0  0  0  0  0  0  0  0
   40.3790   75.1110   57.9800 C   0  0  0  0  0  0  0  0  0  0  0  0
   39.3720   76.0110   57.6910 C   0  0  0  0  0  0  0  0  0  0  0  0
   39.2470   77.2370   58.3480 C   0  0  0  0  0  0  0  0  0  0  0  0
   40.1780   77.5360   59.3210 C   0  0  0  0  0  0  0  0  0  0  0  0
   41.1780   76.6340   59.6030 C   0  0  0  0  0  0  0  0  0  0  0  0
   38.6460   75.7660   56.9270 H   0  0  0  0  0  0  0  0  0  0  0  0
   38.4300   77.8740   58.0550 H   0  0  0  0  0  0  0  0  0  0  0  0
   40.0990   78.4680   59.8330 H   0  0  0  0  0  0  0  0  0  0  0  0
   41.8850   76.9160   60.3750 H   0  0  0  0  0  0  0  0  0  0  0  0
   39.9670   71.5960   56.9200 C   0  0  0  0  0  0  0  0  0  0  0  0
   40.5720   71.5880   55.6810 C   0  0  0  0  0  0  0  0  0  0  0  0
   41.1120   72.7990   55.2340 C   0  0  0  0  0  0  0  0  0  0  0  0
   41.0140   73.9000   56.0330 N   0  0  0  0  0  0  0  0  0  0  0  0
   40.4290   73.8730   57.2160 C   0  0  0  0  0  0  0  0  0  0  0  0
   39.9050   72.7120   57.6560 N   0  0  0  0  0  0  0  0  0  0  0  0
   39.5440   70.6650   57.2810 H   0  0  0  0  0  0  0  0  0  0  0  0
   41.5890   72.8290   54.2740 H   0  0  0  0  0  0  0  0  0  0  0  0
   40.6410   70.4110   54.8950 N   0  0  0  0  0  0  0  0  0  0  0  0
   41.2610   69.4000   55.5020 C   0  0  0  0  0  0  0  0  0  0  0  0
   41.3850   68.1910   54.8090 C   0  0  0  0  0  0  0  0  0  0  0  0
   40.8670   68.0800   53.5320 C   0  0  0  0  0  0  0  0  0  0  0  0
   40.9170   67.0490   52.8140 O   0  0  0  0  0  0  0  0  0  0  0  0
   40.2460   69.1630   52.9790 N   0  0  0  0  0  0  0  0  0  0  0  0
   40.1260   70.3390   53.6530 C   0  0  0  0  0  0  0  0  0  0  0  0
   39.5600   71.3320   53.1550 O   0  0  0  0  0  0  0  0  0  0  0  0
   41.6790   69.4250   56.4810 H   0  0  0  0  0  0  0  0  0  0  0  0
   41.8690   67.3340   55.2290 H   0  0  0  0  0  0  0  0  0  0  0  0
   39.8230   69.1810   52.0240 H   0  0  0  0  0  0  0  0  0  0  0  0
   42.5860   74.2830   59.3560 S   0  0  0  0  0  0  0  0  0  0  0  0
   43.8020   75.0320   59.8310 O   0  0  0  0  0  0  0  0  0  0  0  0
   43.0550   73.6540   58.0540 O   0  0  0  0  0  0  0  0  0  0  0  0
   43.1580   72.0820   60.5780 C   0  0  0  0  0  0  0  0  0  0  0  0
   42.2110   73.1190   60.5620 C   0  0  0  0  0  0  0  0  0  0  0  0
   41.1570   72.9960   61.4770 C   0  0  0  0  0  0  0  0  0  0  0  0
   40.4990   73.8630   61.3590 H   0  0  0  0  0  0  0  0  0  0  0  0
   41.0540   71.9270   62.3380 C   0  0  0  0  0  3  0  0  0  0  0  0
   42.0000   70.9250   62.3300 C   0  0  0  0  0  3  0  0  0  0  0  0
   43.0540   70.9990   61.4510 C   0  0  0  0  0  0  0  0  0  0  0  0
   44.2990   71.9790   59.7610 O   0  0  0  0  0  0  0  0  0  0  0  0
   45.2080   72.2150   60.1510 H   0  0  0  0  0  0  0  0  0  0  0  0
   43.9440   69.9550   61.5180 O   0  0  0  0  0  0  0  0  0  0  0  0
   44.2580   69.6000   62.4000 H   0  0  0  0  0  0  0  0  0  0  0  0
  1 30  1  0  0  0  0
  1  6  1  0  0  0  0
  2  1  2  0  0  0  0
  3  2  1  0  0  0  0
  3  4  2  0  0  0  0
  4  5  1  0  0  0  0
  5  6  2  0  0  0  0
  5  9  1  0  0  0  0
  6 10  1  0  0  0  0
  7  3  1  0  0  0  0
  8  4  1  0  0  0  0
 11 17  1  0  0  0  0
 11 16  1  0  0  0  0
 12 11  2  0  0  0  0
 13 12  1  0  0  0  0
 13 14  2  0  0  0  0
 14 15  1  0  0  0  0
 15 16  2  0  0  0  0
 15  2  1  0  0  0  0
 18 13  1  0  0  0  0
 19 20  1  0  0  0  0
 19 12  1  0  0  0  0
 20 27  1  0  0  0  0
 21 28  1  0  0  0  0
 21 20  2  0  0  0  0
 22 21  1  0  0  0  0
 23 22  2  0  0  0  0
 24 22  1  0  0  0  0
 24 25  1  0  0  0  0
 25 19  1  0  0  0  0
 26 25  2  0  0  0  0
 29 24  1  0  0  0  0
 30 31  2  0  0  0  0
 30 34  1  0  0  0  0
 32 30  2  0  0  0  0
 33 39  1  0  0  0  0
 34 33  2  0  0  0  0
 34 35  1  0  0  0  0
 35 37  2  0  0  0  0
 36 35  1  0  0  0  0
 38 37  1  0  0  0  0
 39 42  1  0  0  0  0
 39 38  2  0  0  0  0
 40 41  1  0  0  0  0
 40 33  1  0  0  0  0
 42 43  1  0  0  0  0
M  END
>  <minimizedAffinity>
-6.26466179

$$$$

 OpenBabel03212520333D

 43 46  0  0  0  0  0  0  0  0999 V2000
   41.5970   71.0400   60.7850 C   0  0  0  0  0  0  0  0  0  0  0  0
   41.4320   70.4480   59.5470 C   0  0  0  0  0  0  0  0  0  0  0  0
   41.7400   69.1160   59.3540 C   0  0  0  0  0  0  0  0  0  0  0  0
   42.2260   68.3000   60.3770 C   0  0  0  0  0  0  0  0  0  0  0  0
   42.3970   68.8710   61.6200 C   0  0  0  0  0  0  0  0  0  0  0  0
   42.0890   70.1990   61.8050 C   0  0  0  0  0  0  0  0  0  0  0  0
   41.6030   68.6770   58.3740 H   0  0  0  0  0  0  0  0  0  0  0  0
   42.4380   67.2720   60.1330 H   0  0  0  0  0  0  0  0  0  0  0  0
   42.7670   68.2640   62.4160 H   0  0  0  0  0  0  0  0  0  0  0  0
   42.2400   70.6020   62.8000 H   0  0  0  0  0  0  0  0  0  0  0  0
   39.1650   72.2090   57.2210 C   0  0  0  0  0  0  0  0  0  0  0  0
   40.0280   72.6360   56.2340 C   0  0  0  0  0  0  0  0  0  0  0  0
   41.3790   72.3070   56.3900 C   0  0  0  0  0  0  0  0  0  0  0  0
   41.7620   71.5950   57.4880 N   0  0  0  0  0  0  0  0  0  0  0  0
   40.9090   71.1990   58.4150 C   0  0  0  0  0  0  0  0  0  0  0  0
   39.6060   71.5110   58.2740 N   0  0  0  0  0  0  0  0  0  0  0  0
   38.1150   72.4550   57.1140 H   0  0  0  0  0  0  0  0  0  0  0  0
   42.0780   72.6250   55.6410 H   0  0  0  0  0  0  0  0  0  0  0  0
   39.5700   73.3760   55.1150 N   0  0  0  0  0  0  0  0  0  0  0  0
   39.2360   74.6320   55.4070 C   0  0  0  0  0  0  0  0  0  0  0  0
   38.7700   75.4480   54.3700 C   0  0  0  0  0  0  0  0  0  0  0  0
   38.6710   74.9350   53.0900 C   0  0  0  0  0  0  0  0  0  0  0  0
   38.2680   75.5690   52.0820 O   0  0  0  0  0  0  0  0  0  0  0  0
   39.0330   73.6370   52.8720 N   0  0  0  0  0  0  0  0  0  0  0  0
   39.4870   72.8430   53.8810 C   0  0  0  0  0  0  0  0  0  0  0  0
   39.8200   71.6570   53.6910 O   0  0  0  0  0  0  0  0  0  0  0  0
   39.2900   75.0820   56.3710 H   0  0  0  0  0  0  0  0  0  0  0  0
   38.4820   76.4670   54.5250 H   0  0  0  0  0  0  0  0  0  0  0  0
   38.9970   73.1570   51.9460 H   0  0  0  0  0  0  0  0  0  0  0  0
   41.2410   72.7100   61.0630 S   0  0  0  0  0  0  0  0  0  0  0  0
   41.7530   73.1330   62.4130 O   0  0  0  0  0  0  0  0  0  0  0  0
   39.7320   72.8190   61.2180 O   0  0  0  0  0  0  0  0  0  0  0  0
   43.2750   73.7230   59.8370 C   0  0  0  0  0  0  0  0  0  0  0  0
   41.8750   73.8180   59.9140 C   0  0  0  0  0  0  0  0  0  0  0  0
   41.2830   74.7870   59.0930 C   0  0  0  0  0  0  0  0  0  0  0  0
   40.2010   74.7530   59.2510 H   0  0  0  0  0  0  0  0  0  0  0  0
   42.0260   75.5950   58.2630 C   0  0  0  0  0  3  0  0  0  0  0  0
   43.3970   75.4780   58.2090 C   0  0  0  0  0  3  0  0  0  0  0  0
   44.0260   74.5430   58.9950 C   0  0  0  0  0  0  0  0  0  0  0  0
   44.0930   72.8330   60.5570 O   0  0  0  0  0  0  0  0  0  0  0  0
   44.4560   72.0060   60.0880 H   0  0  0  0  0  0  0  0  0  0  0  0
   45.3930   74.5000   58.8730 O   0  0  0  0  0  0  0  0  0  0  0  0
   45.8320   74.5430   57.9740 H   0  0  0  0  0  0  0  0  0  0  0  0
  1 30  1  0  0  0  0
  1  6  1  0  0  0  0
  2  1  2  0  0  0  0
  3  2  1  0  0  0  0
  3  4  2  0  0  0  0
  4  5  1  0  0  0  0
  5  6  2  0  0  0  0
  5  9  1  0  0  0  0
  6 10  1  0  0  0  0
  7  3  1  0  0  0  0
  8  4  1  0  0  0  0
 11 16  1  0  0  0  0
 12 13  1  0  0  0  0
 12 11  2  0  0  0  0
 13 14  2  0  0  0  0
 14 15  1  0  0  0  0
 15  2  1  0  0  0  0
 16 15  2  0  0  0  0
 17 11  1  0  0  0  0
 18 13  1  0  0  0  0
 19 20  1  0  0  0  0
 19 12  1  0  0  0  0
 20 27  1  0  0  0  0
 21 28  1  0  0  0  0
 21 20  2  0  0  0  0
 22 21  1  0  0  0  0
 23 22  2  0  0  0  0
 24 22  1  0  0  0  0
 24 25  1  0  0  0  0
 25 19  1  0  0  0  0
 26 25  2  0  0  0  0
 29 24  1  0  0  0  0
 30 32  2  0  0  0  0
 30 31  2  0  0  0  0
 33 34  1  0  0  0  0
 33 40  1  0  0  0  0
 34 30  1  0  0  0  0
 35 36  1  0  0  0  0
 35 34  2  0  0  0  0
 37 35  1  0  0  0  0
 38 37  2  0  0  0  0
 38 39  1  0  0  0  0
 39 33  2  0  0  0  0
 41 40  1  0  0  0  0
 42 39  1  0  0  0  0
 43 42  1  0  0  0  0
M  END
>  <minimizedAffinity>
-6.26137829

$$$$

 OpenBabel03212520333D

 43 46  0  0  0  0  0  0  0  0999 V2000
   42.6840   71.4420   60.1220 C   0  0  0  0  0  0  0  0  0  0  0  0
   41.9370   70.7910   59.1590 C   0  0  0  0  0  0  0  0  0  0  0  0
   41.6120   69.4560   59.3000 C   0  0  0  0  0  0  0  0  0  0  0  0
   42.0100   68.6970   60.4030 C   0  0  0  0  0  0  0  0  0  0  0  0
   42.7560   69.3290   61.3750 C   0  0  0  0  0  0  0  0  0  0  0  0
   43.0760   70.6590   61.2280 C   0  0  0  0  0  0  0  0  0  0  0  0
   41.0270   68.9690   58.5320 H   0  0  0  0  0  0  0  0  0  0  0  0
   41.7090   67.6630   60.4270 H   0  0  0  0  0  0  0  0  0  0  0  0
   43.0690   68.7660   62.2260 H   0  0  0  0  0  0  0  0  0  0  0  0
   43.6640   71.1100   62.0190 H   0  0  0  0  0  0  0  0  0  0  0  0
   41.7460   72.4540   55.8660 C   0  0  0  0  0  0  0  0  0  0  0  0
   40.4170   72.8130   55.7930 C   0  0  0  0  0  0  0  0  0  0  0  0
   39.6100   72.4740   56.8850 C   0  0  0  0  0  0  0  0  0  0  0  0
   40.1710   71.8210   57.9420 N   0  0  0  0  0  0  0  0  0  0  0  0
   41.4490   71.4910   57.9810 C   0  0  0  0  0  0  0  0  0  0  0  0
   42.2340   71.8130   56.9350 N   0  0  0  0  0  0  0  0  0  0  0  0
   42.3840   72.7090   55.0280 H   0  0  0  0  0  0  0  0  0  0  0  0
   38.5710   72.7380   56.8610 H   0  0  0  0  0  0  0  0  0  0  0  0
   39.8900   73.4910   54.6650 N   0  0  0  0  0  0  0  0  0  0  0  0
   39.7740   74.8070   54.8410 C   0  0  0  0  0  0  0  0  0  0  0  0
   39.2620   75.5690   53.7860 C   0  0  0  0  0  0  0  0  0  0  0  0
   38.8960   74.9460   52.6070 C   0  0  0  0  0  0  0  0  0  0  0  0
   38.4260   75.5240   51.5940 O   0  0  0  0  0  0  0  0  0  0  0  0
   39.0460   73.5930   52.5060 N   0  0  0  0  0  0  0  0  0  0  0  0
   39.5440   72.8510   53.5330 C   0  0  0  0  0  0  0  0  0  0  0  0
   39.6850   71.6150   53.4480 O   0  0  0  0  0  0  0  0  0  0  0  0
   40.0380   75.3420   55.7230 H   0  0  0  0  0  0  0  0  0  0  0  0
   39.1380   76.6310   53.8500 H   0  0  0  0  0  0  0  0  0  0  0  0
   38.8010   73.0300   51.6610 H   0  0  0  0  0  0  0  0  0  0  0  0
   43.1280   73.1080   59.9740 S   0  0  0  0  0  0  0  0  0  0  0  0
   44.1340   73.2830   58.8690 O   0  0  0  0  0  0  0  0  0  0  0  0
   43.9210   73.4660   61.2210 O   0  0  0  0  0  0  0  0  0  0  0  0
   40.8730   74.1500   60.6770 C   0  0  0  0  0  0  0  0  0  0  0  0
   41.8440   74.2050   59.6630 C   0  0  0  0  0  0  0  0  0  0  0  0
   41.5760   75.0890   58.6090 C   0  0  0  0  0  0  0  0  0  0  0  0
   42.4040   75.0330   57.8960 H   0  0  0  0  0  0  0  0  0  0  0  0
   40.4330   75.8550   58.5680 C   0  0  0  0  0  3  0  0  0  0  0  0
   39.4990   75.7800   59.5780 C   0  0  0  0  0  3  0  0  0  0  0  0
   39.7160   74.9280   60.6350 C   0  0  0  0  0  0  0  0  0  0  0  0
   40.9140   73.3470   61.8310 O   0  0  0  0  0  0  0  0  0  0  0  0
   41.1760   73.7710   62.7190 H   0  0  0  0  0  0  0  0  0  0  0  0
   38.7300   74.9220   61.5920 O   0  0  0  0  0  0  0  0  0  0  0  0
   38.3230   75.7770   61.9190 H   0  0  0  0  0  0  0  0  0  0  0  0
  1  6  1  0  0  0  0
  2  3  1  0  0  0  0
  2  1  2  0  0  0  0
  3  4  2  0  0  0  0
  4  8  1  0  0  0  0
  4  5  1  0  0  0  0
  5  9  1  0  0  0  0
  6  5  2  0  0  0  0
  6 10  1  0  0  0  0
  7  3  1  0  0  0  0
 11 16  1  0  0  0  0
 12 11  2  0  0  0  0
 12 13  1  0  0  0  0
 13 14  2  0  0  0  0
 14 15  1  0  0  0  0
 15  2  1  0  0  0  0
 16 15  2  0  0  0  0
 17 11  1  0  0  0  0
 18 13  1  0  0  0  0
 19 20  1  0  0  0  0
 19 12  1  0  0  0  0
 20 27  1  0  0  0  0
 21 28  1  0  0  0  0
 21 20  2  0  0  0  0
 22 21  1  0  0  0  0
 23 22  2  0  0  0  0
 24 22  1  0  0  0  0
 24 25  1  0  0  0  0
 25 19  1  0  0  0  0
 26 25  2  0  0  0  0
 29 24  1  0  0  0  0
 30  1  1  0  0  0  0
 30 32  2  0  0  0  0
 31 30  2  0  0  0  0
 33 40  1  0  0  0  0
 34 30  1  0  0  0  0
 34 33  2  0  0  0  0
 35 34  1  0  0  0  0
 36 35  1  0  0  0  0
 37 35  2  0  0  0  0
 37 38  1  0  0  0  0
 38 39  2  0  0  0  0
 39 33  1  0  0  0  0
 39 42  1  0  0  0  0
 40 41  1  0  0  0  0
 42 43  1  0  0  0  0
M  END
>  <minimizedAffinity>
-6.24200773

$$$$

 OpenBabel03212520333D

 43 46  0  0  0  0  0  0  0  0999 V2000
   40.1180   75.3570   58.6030 C   0  0  0  0  0  0  0  0  0  0  0  0
   41.3460   74.8830   59.0240 C   0  0  0  0  0  0  0  0  0  0  0  0
   42.3520   75.7540   59.3920 C   0  0  0  0  0  0  0  0  0  0  0  0
   42.1940   77.1410   59.3620 C   0  0  0  0  0  0  0  0  0  0  0  0
   40.9760   77.6350   58.9440 C   0  0  0  0  0  0  0  0  0  0  0  0
   39.9790   76.7610   58.5800 C   0  0  0  0  0  0  0  0  0  0  0  0
   43.3040   75.3570   59.7170 H   0  0  0  0  0  0  0  0  0  0  0  0
   43.0340   77.7420   59.6670 H   0  0  0  0  0  0  0  0  0  0  0  0
   40.8360   78.6920   58.9150 H   0  0  0  0  0  0  0  0  0  0  0  0
   39.0400   77.1980   58.2590 H   0  0  0  0  0  0  0  0  0  0  0  0
   42.4140   71.4310   58.2530 C   0  0  0  0  0  0  0  0  0  0  0  0
   42.0770   70.7530   59.4050 C   0  0  0  0  0  0  0  0  0  0  0  0
   41.4840   71.5020   60.4280 C   0  0  0  0  0  0  0  0  0  0  0  0
   41.2760   72.8350   60.2350 N   0  0  0  0  0  0  0  0  0  0  0  0
   41.6110   73.4550   59.1170 C   0  0  0  0  0  0  0  0  0  0  0  0
   42.1820   72.7430   58.1260 N   0  0  0  0  0  0  0  0  0  0  0  0
   42.8740   70.8660   57.4510 H   0  0  0  0  0  0  0  0  0  0  0  0
   41.2090   71.0060   61.3390 H   0  0  0  0  0  0  0  0  0  0  0  0
   42.3190   69.3640   59.5490 N   0  0  0  0  0  0  0  0  0  0  0  0
   41.3240   68.6000   59.1000 C   0  0  0  0  0  0  0  0  0  0  0  0
   41.4640   67.2120   59.1970 C   0  0  0  0  0  0  0  0  0  0  0  0
   42.6150   66.6790   59.7480 C   0  0  0  0  0  0  0  0  0  0  0  0
   42.8530   65.4520   59.8880 O   0  0  0  0  0  0  0  0  0  0  0  0
   43.5890   67.5290   60.1860 N   0  0  0  0  0  0  0  0  0  0  0  0
   43.4530   68.8800   60.0910 C   0  0  0  0  0  0  0  0  0  0  0  0
   44.3380   69.6640   60.4870 O   0  0  0  0  0  0  0  0  0  0  0  0
   40.4170   68.9510   58.6670 H   0  0  0  0  0  0  0  0  0  0  0  0
   40.7100   66.5320   58.8590 H   0  0  0  0  0  0  0  0  0  0  0  0
   44.4920   67.2280   60.6140 H   0  0  0  0  0  0  0  0  0  0  0  0
   38.8380   74.2990   58.1160 S   0  0  0  0  0  0  0  0  0  0  0  0
   37.5870   75.0880   57.8400 O   0  0  0  0  0  0  0  0  0  0  0  0
   38.4620   73.4730   59.3360 O   0  0  0  0  0  0  0  0  0  0  0  0
   39.2490   74.1310   55.5730 C   0  0  0  0  0  0  0  0  0  0  0  0
   39.1430   73.3370   56.7270 C   0  0  0  0  0  0  0  0  0  0  0  0
   39.2690   71.9550   56.5300 C   0  0  0  0  0  0  0  0  0  0  0  0
   39.1670   71.4610   57.5010 H   0  0  0  0  0  0  0  0  0  0  0  0
   39.4820   71.4090   55.2850 C   0  0  0  0  0  3  0  0  0  0  0  0
   39.5810   72.2150   54.1710 C   0  0  0  0  0  3  0  0  0  0  0  0
   39.4660   73.5770   54.3110 C   0  0  0  0  0  0  0  0  0  0  0  0
   39.1600   75.5340   55.5130 O   0  0  0  0  0  0  0  0  0  0  0  0
   40.0140   76.0800   55.4270 H   0  0  0  0  0  0  0  0  0  0  0  0
   39.5790   74.2960   53.1460 O   0  0  0  0  0  0  0  0  0  0  0  0
   40.2890   74.0800   52.4740 H   0  0  0  0  0  0  0  0  0  0  0  0
  1  2  1  0  0  0  0
  2 15  1  0  0  0  0
  2  3  2  0  0  0  0
  3  7  1  0  0  0  0
  4  3  1  0  0  0  0
  4  8  1  0  0  0  0
  5  4  2  0  0  0  0
  6  1  2  0  0  0  0
  6  5  1  0  0  0  0
  9  5  1  0  0  0  0
 10  6  1  0  0  0  0
 11 12  1  0  0  0  0
 12 19  1  0  0  0  0
 12 13  2  0  0  0  0
 13 18  1  0  0  0  0
 14 13  1  0  0  0  0
 15 14  2  0  0  0  0
 16 11  2  0  0  0  0
 16 15  1  0  0  0  0
 17 11  1  0  0  0  0
 19 25  1  0  0  0  0
 20 21  2  0  0  0  0
 20 19  1  0  0  0  0
 21 22  1  0  0  0  0
 22 23  2  0  0  0  0
 22 24  1  0  0  0  0
 24 29  1  0  0  0  0
 25 24  1  0  0  0  0
 25 26  2  0  0  0  0
 27 20  1  0  0  0  0
 28 21  1  0  0  0  0
 30  1  1  0  0  0  0
 30 32  2  0  0  0  0
 31 30  2  0  0  0  0
 33 34  1  0  0  0  0
 34 30  1  0  0  0  0
 35 34  2  0  0  0  0
 35 36  1  0  0  0  0
 37 35  1  0  0  0  0
 38 39  1  0  0  0  0
 38 37  2  0  0  0  0
 39 33  2  0  0  0  0
 40 33  1  0  0  0  0
 41 40  1  0  0  0  0
 42 39  1  0  0  0  0
 43 42  1  0  0  0  0
M  END
>  <minimizedAffinity>
-6.14244318

$$$$
