
 OpenBabel03212520323D

 43 46  0  0  0  0  0  0  0  0999 V2000
   43.1970   82.3770   62.3610 C   0  0  0  0  0  0  0  0  0  0  0  0
   43.5070   81.4870   61.3500 C   0  0  0  0  0  0  0  0  0  0  0  0
   44.7460   80.8790   61.3000 C   0  0  0  0  0  0  0  0  0  0  0  0
   45.7410   81.1190   62.2490 C   0  0  0  0  0  0  0  0  0  0  0  0
   45.4510   82.0040   63.2660 C   0  0  0  0  0  0  0  0  0  0  0  0
   44.2150   82.6060   63.3100 C   0  0  0  0  0  0  0  0  0  0  0  0
   44.9650   80.1870   60.4970 H   0  0  0  0  0  0  0  0  0  0  0  0
   46.6770   80.5990   62.1290 H   0  0  0  0  0  0  0  0  0  0  0  0
   46.1990   82.2010   64.0020 H   0  0  0  0  0  0  0  0  0  0  0  0
   44.0350   83.2930   64.1300 H   0  0  0  0  0  0  0  0  0  0  0  0
   40.6060   80.0510   59.5700 C   0  0  0  0  0  0  0  0  0  0  0  0
   40.7510   80.5700   58.3020 C   0  0  0  0  0  0  0  0  0  0  0  0
   41.8510   81.4080   58.0840 C   0  0  0  0  0  0  0  0  0  0  0  0
   42.7030   81.6600   59.1170 N   0  0  0  0  0  0  0  0  0  0  0  0
   42.5360   81.1450   60.3220 C   0  0  0  0  0  0  0  0  0  0  0  0
   41.4810   80.3370   60.5420 N   0  0  0  0  0  0  0  0  0  0  0  0
   39.7590   79.4000   59.7550 H   0  0  0  0  0  0  0  0  0  0  0  0
   41.9930   81.8300   57.1080 H   0  0  0  0  0  0  0  0  0  0  0  0
   39.8290   80.2730   57.2660 N   0  0  0  0  0  0  0  0  0  0  0  0
   38.9320   79.3470   57.6010 C   0  0  0  0  0  0  0  0  0  0  0  0
   37.9770   78.9810   56.6470 C   0  0  0  0  0  0  0  0  0  0  0  0
   37.9900   79.5810   55.4020 C   0  0  0  0  0  0  0  0  0  0  0  0
   37.1860   79.3340   54.4670 O   0  0  0  0  0  0  0  0  0  0  0  0
   38.9440   80.5210   55.1360 N   0  0  0  0  0  0  0  0  0  0  0  0
   39.8730   80.8770   56.0640 C   0  0  0  0  0  0  0  0  0  0  0  0
   40.7470   81.7350   55.8300 O   0  0  0  0  0  0  0  0  0  0  0  0
   38.8710   78.8510   58.5420 H   0  0  0  0  0  0  0  0  0  0  0  0
   37.2230   78.2460   56.8410 H   0  0  0  0  0  0  0  0  0  0  0  0
   39.0390   81.0300   54.2290 H   0  0  0  0  0  0  0  0  0  0  0  0
   41.6640   83.1730   62.4500 S   0  0  0  0  0  0  0  0  0  0  0  0
   41.7110   84.2830   63.4650 O   0  0  0  0  0  0  0  0  0  0  0  0
   40.6870   82.1840   63.0660 O   0  0  0  0  0  0  0  0  0  0  0  0
   42.0110   84.7670   60.4470 C   0  0  0  0  0  0  0  0  0  0  0  0
   41.0840   83.8570   60.9850 C   0  0  0  0  0  0  0  0  0  0  0  0
   39.8890   83.7090   60.2680 C   0  0  0  0  0  0  0  0  0  0  0  0
   39.2640   82.9790   60.7930 H   0  0  0  0  0  0  0  0  0  0  0  0
   39.6370   84.4100   59.1110 C   0  0  0  0  0  3  0  0  0  0  0  0
   40.5660   85.2960   58.6090 C   0  0  0  0  0  3  0  0  0  0  0  0
   41.7540   85.4770   59.2740 C   0  0  0  0  0  0  0  0  0  0  0  0
   43.2730   85.0860   60.9800 O   0  0  0  0  0  0  0  0  0  0  0  0
   44.1030   84.6760   60.5590 H   0  0  0  0  0  0  0  0  0  0  0  0
   42.6160   86.3790   58.6980 O   0  0  0  0  0  0  0  0  0  0  0  0
   42.7730   86.3810   57.7090 H   0  0  0  0  0  0  0  0  0  0  0  0
  1 30  1  0  0  0  0
  1  6  1  0  0  0  0
  2  1  2  0  0  0  0
  3  2  1  0  0  0  0
  3  4  2  0  0  0  0
  4  5  1  0  0  0  0
  5  6  2  0  0  0  0
  5  9  1  0  0  0  0
  6 10  1  0  0  0  0
  7  3  1  0  0  0  0
  8  4  1  0  0  0  0
 11 17  1  0  0  0  0
 11 16  1  0  0  0  0
 12 11  2  0  0  0  0
 13 12  1  0  0  0  0
 13 14  2  0  0  0  0
 14 15  1  0  0  0  0
 15 16  2  0  0  0  0
 15  2  1  0  0  0  0
 18 13  1  0  0  0  0
 19 20  1  0  0  0  0
 19 12  1  0  0  0  0
 20 27  1  0  0  0  0
 21 28  1  0  0  0  0
 21 20  2  0  0  0  0
 22 21  1  0  0  0  0
 23 22  2  0  0  0  0
 24 22  1  0  0  0  0
 24 25  1  0  0  0  0
 25 19  1  0  0  0  0
 26 25  2  0  0  0  0
 29 24  1  0  0  0  0
 30 32  2  0  0  0  0
 30 31  2  0  0  0  0
 33 40  1  0  0  0  0
 33 34  1  0  0  0  0
 34 30  1  0  0  0  0
 35 36  1  0  0  0  0
 35 34  2  0  0  0  0
 37 35  1  0  0  0  0
 38 37  2  0  0  0  0
 38 39  1  0  0  0  0
 39 33  2  0  0  0  0
 41 40  1  0  0  0  0
 42 39  1  0  0  0  0
 43 42  1  0  0  0  0
M  END
>  <minimizedAffinity>
-6.86747217

>  <minimizedRMSD>
1.28744781

$$$$
