
 OpenBabel03212520313D

 43 46  0  0  0  0  0  0  0  0999 V2000
   43.3300   82.4000   62.5900 C   0  0  0  0  0  0  0  0  0  0  0  0
   43.5800   81.3070   61.7820 C   0  0  0  0  0  0  0  0  0  0  0  0
   44.8150   80.6890   61.7910 C   0  0  0  0  0  0  0  0  0  0  0  0
   45.8670   81.1210   62.6020 C   0  0  0  0  0  0  0  0  0  0  0  0
   45.6380   82.2110   63.4150 C   0  0  0  0  0  0  0  0  0  0  0  0
   44.4050   82.8210   63.4010 C   0  0  0  0  0  0  0  0  0  0  0  0
   44.9850   79.8360   61.1480 H   0  0  0  0  0  0  0  0  0  0  0  0
   46.7940   80.5770   62.5410 H   0  0  0  0  0  0  0  0  0  0  0  0
   46.4290   82.5560   64.0420 H   0  0  0  0  0  0  0  0  0  0  0  0
   44.2750   83.6730   64.0600 H   0  0  0  0  0  0  0  0  0  0  0  0
   40.5460   79.5990   60.5480 C   0  0  0  0  0  0  0  0  0  0  0  0
   40.6460   79.7690   59.1840 C   0  0  0  0  0  0  0  0  0  0  0  0
   41.7610   80.4710   58.7140 C   0  0  0  0  0  0  0  0  0  0  0  0
   42.6730   80.9390   59.6140 N   0  0  0  0  0  0  0  0  0  0  0  0
   42.5480   80.7580   60.9160 C   0  0  0  0  0  0  0  0  0  0  0  0
   41.4770   80.0840   61.3780 N   0  0  0  0  0  0  0  0  0  0  0  0
   39.6870   79.0570   60.9280 H   0  0  0  0  0  0  0  0  0  0  0  0
   41.8700   80.6220   57.6580 H   0  0  0  0  0  0  0  0  0  0  0  0
   39.6640   79.2590   58.2970 N   0  0  0  0  0  0  0  0  0  0  0  0
   39.2320   80.1530   57.4090 C   0  0  0  0  0  0  0  0  0  0  0  0
   38.2600   79.7500   56.4870 C   0  0  0  0  0  0  0  0  0  0  0  0
   37.7820   78.4530   56.5230 C   0  0  0  0  0  0  0  0  0  0  0  0
   36.9120   77.9780   55.7490 O   0  0  0  0  0  0  0  0  0  0  0  0
   38.2750   77.5970   57.4640 N   0  0  0  0  0  0  0  0  0  0  0  0
   39.2210   77.9890   58.3610 C   0  0  0  0  0  0  0  0  0  0  0  0
   39.6770   77.2130   59.2240 O   0  0  0  0  0  0  0  0  0  0  0  0
   39.5620   81.1630   57.3320 H   0  0  0  0  0  0  0  0  0  0  0  0
   37.8640   80.4090   55.7430 H   0  0  0  0  0  0  0  0  0  0  0  0
   37.9810   76.6010   57.5740 H   0  0  0  0  0  0  0  0  0  0  0  0
   41.8040   83.2140   62.5960 S   0  0  0  0  0  0  0  0  0  0  0  0
   41.8620   84.4250   63.4860 O   0  0  0  0  0  0  0  0  0  0  0  0
   40.8210   82.3040   63.3160 O   0  0  0  0  0  0  0  0  0  0  0  0
   42.0670   84.7210   60.5150 C   0  0  0  0  0  0  0  0  0  0  0  0
   41.2250   83.7410   61.0660 C   0  0  0  0  0  0  0  0  0  0  0  0
   40.0930   83.4130   60.3090 C   0  0  0  0  0  0  0  0  0  0  0  0
   39.5300   82.6450   60.8490 H   0  0  0  0  0  0  0  0  0  0  0  0
   39.8210   84.0130   59.0990 C   0  0  0  0  0  3  0  0  0  0  0  0
   40.6680   84.9720   58.5850 C   0  0  0  0  0  3  0  0  0  0  0  0
   41.7920   85.3280   59.2900 C   0  0  0  0  0  0  0  0  0  0  0  0
   43.2560   85.2160   61.0820 O   0  0  0  0  0  0  0  0  0  0  0  0
   44.1490   84.8830   60.7250 H   0  0  0  0  0  0  0  0  0  0  0  0
   42.5730   86.2910   58.6970 O   0  0  0  0  0  0  0  0  0  0  0  0
   42.7800   86.2560   57.7180 H   0  0  0  0  0  0  0  0  0  0  0  0
  1 30  1  0  0  0  0
  1  6  1  0  0  0  0
  2  3  1  0  0  0  0
  2  1  2  0  0  0  0
  3  4  2  0  0  0  0
  4  5  1  0  0  0  0
  5  9  1  0  0  0  0
  6  5  2  0  0  0  0
  6 10  1  0  0  0  0
  7  3  1  0  0  0  0
  8  4  1  0  0  0  0
 11 17  1  0  0  0  0
 11 16  1  0  0  0  0
 12 11  2  0  0  0  0
 13 12  1  0  0  0  0
 13 14  2  0  0  0  0
 14 15  1  0  0  0  0
 15 16  2  0  0  0  0
 15  2  1  0  0  0  0
 18 13  1  0  0  0  0
 19 25  1  0  0  0  0
 19 12  1  0  0  0  0
 20 19  1  0  0  0  0
 21 22  1  0  0  0  0
 21 20  2  0  0  0  0
 22 24  1  0  0  0  0
 23 22  2  0  0  0  0
 24 29  1  0  0  0  0
 24 25  1  0  0  0  0
 25 26  2  0  0  0  0
 27 20  1  0  0  0  0
 28 21  1  0  0  0  0
 30 32  2  0  0  0  0
 30 31  2  0  0  0  0
 33 34  1  0  0  0  0
 33 40  1  0  0  0  0
 34 30  1  0  0  0  0
 35 36  1  0  0  0  0
 35 34  2  0  0  0  0
 37 35  1  0  0  0  0
 38 37  2  0  0  0  0
 38 39  1  0  0  0  0
 39 33  2  0  0  0  0
 41 40  1  0  0  0  0
 42 39  1  0  0  0  0
 43 42  1  0  0  0  0
M  END
>  <minimizedAffinity>
-7.04712105

>  <minimizedRMSD>
2.25975275

$$$$
