
 OpenBabel03212520313D

 43 46  0  0  0  0  0  0  0  0999 V2000
   42.6360   82.5730   62.0150 C   0  0  0  0  0  0  0  0  0  0  0  0
   42.9510   81.3930   61.3680 C   0  0  0  0  0  0  0  0  0  0  0  0
   44.1180   80.7160   61.6620 C   0  0  0  0  0  0  0  0  0  0  0  0
   45.0340   81.1720   62.6130 C   0  0  0  0  0  0  0  0  0  0  0  0
   44.7380   82.3480   63.2690 C   0  0  0  0  0  0  0  0  0  0  0  0
   43.5740   83.0170   62.9710 C   0  0  0  0  0  0  0  0  0  0  0  0
   44.3420   79.7950   61.1400 H   0  0  0  0  0  0  0  0  0  0  0  0
   45.9170   80.5770   62.7750 H   0  0  0  0  0  0  0  0  0  0  0  0
   45.4250   82.7120   64.0000 H   0  0  0  0  0  0  0  0  0  0  0  0
   43.3860   83.9360   63.5150 H   0  0  0  0  0  0  0  0  0  0  0  0
   40.2760   79.4300   59.7430 C   0  0  0  0  0  0  0  0  0  0  0  0
   40.4120   79.7870   58.4180 C   0  0  0  0  0  0  0  0  0  0  0  0
   41.4270   80.6990   58.1100 C   0  0  0  0  0  0  0  0  0  0  0  0
   42.2120   81.1770   59.1160 N   0  0  0  0  0  0  0  0  0  0  0  0
   42.0570   80.8140   60.3770 C   0  0  0  0  0  0  0  0  0  0  0  0
   41.0830   79.9360   60.6840 N   0  0  0  0  0  0  0  0  0  0  0  0
   39.4950   78.7240   59.9980 H   0  0  0  0  0  0  0  0  0  0  0  0
   41.5590   80.9990   57.0890 H   0  0  0  0  0  0  0  0  0  0  0  0
   39.5620   79.2560   57.4150 N   0  0  0  0  0  0  0  0  0  0  0  0
   38.6830   80.1370   56.9410 C   0  0  0  0  0  0  0  0  0  0  0  0
   37.7960   79.7130   55.9460 C   0  0  0  0  0  0  0  0  0  0  0  0
   37.8570   78.4100   55.4880 C   0  0  0  0  0  0  0  0  0  0  0  0
   37.1150   77.9160   54.6010 O   0  0  0  0  0  0  0  0  0  0  0  0
   38.7870   77.5670   56.0250 N   0  0  0  0  0  0  0  0  0  0  0  0
   39.6500   77.9800   56.9940 C   0  0  0  0  0  0  0  0  0  0  0  0
   40.5030   77.2180   57.4890 O   0  0  0  0  0  0  0  0  0  0  0  0
   38.5880   81.1520   57.2530 H   0  0  0  0  0  0  0  0  0  0  0  0
   37.0610   80.3610   55.5150 H   0  0  0  0  0  0  0  0  0  0  0  0
   38.9130   76.5680   55.7490 H   0  0  0  0  0  0  0  0  0  0  0  0
   41.1940   83.4610   61.6630 S   0  0  0  0  0  0  0  0  0  0  0  0
   40.8760   84.4050   62.7900 O   0  0  0  0  0  0  0  0  0  0  0  0
   40.0430   82.4690   61.7100 O   0  0  0  0  0  0  0  0  0  0  0  0
   39.9580   84.9660   59.9670 C   0  0  0  0  0  0  0  0  0  0  0  0
   41.2150   84.3900   60.2180 C   0  0  0  0  0  0  0  0  0  0  0  0
   42.2050   84.6450   59.2610 C   0  0  0  0  0  0  0  0  0  0  0  0
   43.1250   84.1430   59.5770 H   0  0  0  0  0  0  0  0  0  0  0  0
   41.9630   85.4120   58.1430 C   0  0  0  0  0  0  0  0  0  0  0  0
   40.7190   85.9630   57.9250 C   0  0  0  0  0  0  0  0  0  0  0  0
   39.7140   85.7420   58.8350 C   0  0  0  0  0  0  0  0  0  0  0  0
   38.8120   84.8560   60.7760 O   0  0  0  0  0  0  0  0  0  0  0  0
   38.5540   85.6360   61.3760 H   0  0  0  0  0  0  0  0  0  0  0  0
   38.5110   86.3330   58.5320 O   0  0  0  0  0  0  0  0  0  0  0  0
   38.4690   87.2760   58.1970 H   0  0  0  0  0  0  0  0  0  0  0  0
  1  6  1  0  0  0  0
  2  3  1  0  0  0  0
  2  1  2  0  0  0  0
  3  4  2  0  0  0  0
  4  8  1  0  0  0  0
  4  5  1  0  0  0  0
  5  9  1  0  0  0  0
  6  5  2  0  0  0  0
  6 10  1  0  0  0  0
  7  3  1  0  0  0  0
 11 17  1  0  0  0  0
 11 16  1  0  0  0  0
 12 11  2  0  0  0  0
 13 12  1  0  0  0  0
 13 14  2  0  0  0  0
 14 15  1  0  0  0  0
 15 16  2  0  0  0  0
 15  2  1  0  0  0  0
 18 13  1  0  0  0  0
 19 12  1  0  0  0  0
 20 27  1  0  0  0  0
 20 19  1  0  0  0  0
 21 20  2  0  0  0  0
 22 21  1  0  0  0  0
 22 24  1  0  0  0  0
 23 22  2  0  0  0  0
 24 25  1  0  0  0  0
 25 19  1  0  0  0  0
 25 26  2  0  0  0  0
 28 21  1  0  0  0  0
 29 24  1  0  0  0  0
 30 32  2  0  0  0  0
 30  1  1  0  0  0  0
 30 31  2  0  0  0  0
 33 34  1  0  0  0  0
 33 40  1  0  0  0  0
 34 30  1  0  0  0  0
 35 36  1  0  0  0  0
 35 34  2  0  0  0  0
 37 35  1  0  0  0  0
 38 37  2  0  0  0  0
 38 39  1  0  0  0  0
 39 33  2  0  0  0  0
 40 41  1  0  0  0  0
 42 39  1  0  0  0  0
 43 42  1  0  0  0  0
M  END
>  <minimizedAffinity>
-7.23302746

>  <minimizedRMSD>
1.91031194

$$$$
