
 OpenBabel03212520313D

 43 46  0  0  0  0  0  0  0  0999 V2000
   42.1520   83.2560   60.8300 C   0  0  0  0  0  0  0  0  0  0  0  0
   42.4360   82.5270   61.9690 C   0  0  0  0  0  0  0  0  0  0  0  0
   41.6570   82.6540   63.1020 C   0  0  0  0  0  0  0  0  0  0  0  0
   40.5550   83.5100   63.1660 C   0  0  0  0  0  0  0  0  0  0  0  0
   40.2540   84.2470   62.0400 C   0  0  0  0  0  0  0  0  0  0  0  0
   41.0350   84.1150   60.9150 C   0  0  0  0  0  0  0  0  0  0  0  0
   41.9010   82.0730   63.9810 H   0  0  0  0  0  0  0  0  0  0  0  0
   40.0060   83.5430   64.0920 H   0  0  0  0  0  0  0  0  0  0  0  0
   39.4160   84.9060   62.0680 H   0  0  0  0  0  0  0  0  0  0  0  0
   40.7580   84.7140   60.0550 H   0  0  0  0  0  0  0  0  0  0  0  0
   44.4530   79.4360   61.8140 C   0  0  0  0  0  0  0  0  0  0  0  0
   45.7220   79.8970   62.0910 C   0  0  0  0  0  0  0  0  0  0  0  0
   45.8580   81.2700   62.3280 C   0  0  0  0  0  0  0  0  0  0  0  0
   44.7490   82.0620   62.2740 N   0  0  0  0  0  0  0  0  0  0  0  0
   43.5460   81.5870   62.0060 C   0  0  0  0  0  0  0  0  0  0  0  0
   43.4050   80.2680   61.7770 N   0  0  0  0  0  0  0  0  0  0  0  0
   44.3310   78.3750   61.6290 H   0  0  0  0  0  0  0  0  0  0  0  0
   46.8320   81.6630   62.5460 H   0  0  0  0  0  0  0  0  0  0  0  0
   46.8380   79.0240   62.1330 N   0  0  0  0  0  0  0  0  0  0  0  0
   47.1780   78.5370   60.9400 C   0  0  0  0  0  0  0  0  0  0  0  0
   48.2680   77.6630   60.8730 C   0  0  0  0  0  0  0  0  0  0  0  0
   48.9530   77.3350   62.0280 C   0  0  0  0  0  0  0  0  0  0  0  0
   49.9440   76.5630   62.0910 O   0  0  0  0  0  0  0  0  0  0  0  0
   48.5410   77.8760   63.2120 N   0  0  0  0  0  0  0  0  0  0  0  0
   47.4810   78.7260   63.2780 C   0  0  0  0  0  0  0  0  0  0  0  0
   47.0990   79.2260   64.3550 O   0  0  0  0  0  0  0  0  0  0  0  0
   46.6910   78.7530   60.0180 H   0  0  0  0  0  0  0  0  0  0  0  0
   48.6030   77.2310   59.9530 H   0  0  0  0  0  0  0  0  0  0  0  0
   48.9900   77.6920   64.1370 H   0  0  0  0  0  0  0  0  0  0  0  0
   43.1130   83.1400   59.3970 S   0  0  0  0  0  0  0  0  0  0  0  0
   42.3060   82.5460   58.2750 O   0  0  0  0  0  0  0  0  0  0  0  0
   44.1700   82.0780   59.6600 O   0  0  0  0  0  0  0  0  0  0  0  0
   45.1190   84.4470   58.4310 C   0  0  0  0  0  0  0  0  0  0  0  0
   43.7780   84.6120   58.8140 C   0  0  0  0  0  0  0  0  0  0  0  0
   43.2620   85.9090   58.6870 C   0  0  0  0  0  0  0  0  0  0  0  0
   42.2190   85.8970   59.0170 H   0  0  0  0  0  0  0  0  0  0  0  0
   44.0210   86.9560   58.2140 C   0  0  0  0  0  3  0  0  0  0  0  0
   45.3350   86.7610   57.8450 C   0  0  0  0  0  3  0  0  0  0  0  0
   45.8870   85.5090   57.9520 C   0  0  0  0  0  0  0  0  0  0  0  0
   45.8570   83.2510   58.4670 O   0  0  0  0  0  0  0  0  0  0  0  0
   46.0100   82.7390   57.6000 H   0  0  0  0  0  0  0  0  0  0  0  0
   47.2010   85.4130   57.5600 O   0  0  0  0  0  0  0  0  0  0  0  0
   47.5220   85.8590   56.7230 H   0  0  0  0  0  0  0  0  0  0  0  0
  1  6  2  0  0  0  0
  1  2  1  0  0  0  0
  2 15  1  0  0  0  0
  2  3  2  0  0  0  0
  3  4  1  0  0  0  0
  3  7  1  0  0  0  0
  4  8  1  0  0  0  0
  5  9  1  0  0  0  0
  5  4  2  0  0  0  0
  6  5  1  0  0  0  0
 10  6  1  0  0  0  0
 11 12  1  0  0  0  0
 12 19  1  0  0  0  0
 12 13  2  0  0  0  0
 13 18  1  0  0  0  0
 14 13  1  0  0  0  0
 15 14  2  0  0  0  0
 16 11  2  0  0  0  0
 16 15  1  0  0  0  0
 17 11  1  0  0  0  0
 19 25  1  0  0  0  0
 20 19  1  0  0  0  0
 21 20  2  0  0  0  0
 21 22  1  0  0  0  0
 22 23  2  0  0  0  0
 22 24  1  0  0  0  0
 24 25  1  0  0  0  0
 24 29  1  0  0  0  0
 25 26  2  0  0  0  0
 27 20  1  0  0  0  0
 28 21  1  0  0  0  0
 30 32  2  0  0  0  0
 30  1  1  0  0  0  0
 31 30  2  0  0  0  0
 33 40  1  0  0  0  0
 33 34  1  0  0  0  0
 34 30  1  0  0  0  0
 35 34  2  0  0  0  0
 35 36  1  0  0  0  0
 37 35  1  0  0  0  0
 38 39  1  0  0  0  0
 38 37  2  0  0  0  0
 39 33  2  0  0  0  0
 41 40  1  0  0  0  0
 42 39  1  0  0  0  0
 43 42  1  0  0  0  0
M  END
>  <minimizedAffinity>
-4.19995356

>  <minimizedRMSD>
7.67153692

$$$$
