
 OpenBabel03212520053D

 43 47  0  0  0  0  0  0  0  0999 V2000
   40.6650   81.8250   57.0870 C   0  0  0  0  0  0  0  0  0  0  0  0
   41.7380   82.4040   56.3860 C   0  0  0  0  0  0  0  0  0  0  0  0
   42.5260   83.3040   57.0670 C   0  0  0  0  0  0  0  0  0  0  0  0
   42.2560   83.6000   58.3670 N   0  0  0  0  0  0  0  0  0  0  0  0
   41.2130   83.0200   59.0190 C   0  0  0  0  0  0  0  0  0  0  0  0
   40.4090   82.1280   58.3770 N   0  0  0  0  0  0  0  0  0  0  0  0
   39.9640   81.1090   56.6870 H   0  0  0  0  0  0  0  0  0  0  0  0
   41.7730   81.9940   55.4060 H   0  0  0  0  0  0  0  0  0  0  0  0
   39.6650   83.1170   60.9050 C   0  0  0  0  0  0  0  0  0  0  0  0
   40.9590   83.3160   60.4190 C   0  0  0  0  0  0  0  0  0  0  0  0
   41.9900   83.7660   61.2480 C   0  0  0  0  0  0  0  0  0  0  0  0
   41.7580   84.0300   62.5850 C   0  0  0  0  0  0  0  0  0  0  0  0
   42.4640   84.4560   63.6480 N   0  0  0  0  0  0  0  0  0  0  0  0
   41.6820   84.5260   64.7460 C   0  0  0  0  0  0  0  0  0  0  0  0
   40.4760   84.1320   64.3210 N   0  0  0  0  0  0  0  0  0  0  0  0
   40.4850   83.8220   63.0130 C   0  0  0  0  0  0  0  0  0  0  0  0
   39.4060   83.3780   62.2570 C   0  0  0  0  0  0  0  0  0  0  0  0
   38.8560   82.7730   60.2930 H   0  0  0  0  0  0  0  0  0  0  0  0
   42.9990   83.9220   60.8670 H   0  0  0  0  0  0  0  0  0  0  0  0
   43.4850   84.6950   63.6100 H   0  0  0  0  0  0  0  0  0  0  0  0
   41.9610   84.8310   65.7470 H   0  0  0  0  0  0  0  0  0  0  0  0
   38.4390   83.2440   62.6810 H   0  0  0  0  0  0  0  0  0  0  0  0
   42.4460   83.3310   54.0900 Cl  0  0  0  0  0  0  0  0  0  0  0  0
   43.7450   84.0270   55.0490 C   0  0  0  0  0  0  0  0  0  0  0  0
   43.6410   83.9500   56.4130 C   0  0  0  0  0  0  0  0  0  0  0  0
   44.7000   84.5460   57.0950 C   0  0  0  0  0  0  0  0  0  0  0  0
   45.7680   85.1630   56.4830 C   0  0  0  0  0  0  0  0  0  0  0  0
   45.8100   85.2030   55.0920 C   0  0  0  0  0  0  0  0  0  0  0  0
   47.1440   85.9740   54.2780 Cl  0  0  0  0  0  0  0  0  0  0  0  0
   44.7840   84.6290   54.3750 C   0  0  0  0  0  0  0  0  0  0  0  0
   44.6980   84.5310   58.1760 H   0  0  0  0  0  0  0  0  0  0  0  0
   46.5510   85.6020   57.0780 H   0  0  0  0  0  0  0  0  0  0  0  0
   45.2920   83.7190   52.0340 C   0  0  0  0  0  0  0  0  0  0  0  0
   44.8110   84.6610   52.9180 C   0  0  0  0  0  0  0  0  0  0  0  0
   44.2480   85.8520   52.4450 C   0  0  0  0  0  0  0  0  0  0  0  0
   43.8400   86.6600   53.0360 H   0  0  0  0  0  0  0  0  0  0  0  0
   44.1770   86.0820   51.0670 C   0  0  0  0  0  3  0  0  0  0  0  0
   44.6610   85.1360   50.1930 C   0  0  0  0  0  3  0  0  0  0  0  0
   45.2180   83.9560   50.6760 C   0  0  0  0  0  0  0  0  0  0  0  0
   45.8150   82.6030   52.6350 O   0  0  0  0  0  0  0  0  0  0  0  0
   46.5300   82.0970   52.1240 H   0  0  0  0  0  0  0  0  0  0  0  0
   45.7210   82.9680   49.8380 O   0  0  0  0  0  0  0  0  0  0  0  0
   45.2090   82.8000   48.9640 H   0  0  0  0  0  0  0  0  0  0  0  0
  1  6  1  0  0  0  0
  2  3  1  0  0  0  0
  2  1  2  0  0  0  0
  3  4  2  0  0  0  0
  4  5  1  0  0  0  0
  5 10  1  0  0  0  0
  6  5  2  0  0  0  0
  7  1  1  0  0  0  0
  8  2  1  0  0  0  0
  9 17  1  0  0  0  0
 10  9  2  0  0  0  0
 10 11  1  0  0  0  0
 11 12  2  0  0  0  0
 12 16  1  0  0  0  0
 12 13  1  0  0  0  0
 13 14  1  0  0  0  0
 14 21  1  0  0  0  0
 15 14  2  0  0  0  0
 16 15  1  0  0  0  0
 17 22  1  0  0  0  0
 17 16  2  0  0  0  0
 18  9  1  0  0  0  0
 19 11  1  0  0  0  0
 20 13  1  0  0  0  0
 23 24  1  0  0  0  0
 24 25  1  0  0  0  0
 25  3  1  0  0  0  0
 25 26  2  0  0  0  0
 26 31  1  0  0  0  0
 27 32  1  0  0  0  0
 27 26  1  0  0  0  0
 28 27  2  0  0  0  0
 29 28  1  0  0  0  0
 30 24  2  0  0  0  0
 30 28  1  0  0  0  0
 33 40  1  0  0  0  0
 33 34  1  0  0  0  0
 34 30  1  0  0  0  0
 35 34  2  0  0  0  0
 35 36  1  0  0  0  0
 37 35  1  0  0  0  0
 38 39  1  0  0  0  0
 38 37  2  0  0  0  0
 39 33  2  0  0  0  0
 41 40  1  0  0  0  0
 42 39  1  0  0  0  0
 43 42  1  0  0  0  0
M  END
>  <minimizedAffinity>
-5.15080309

>  <minimizedRMSD>
0.375480175

$$$$
