
 OpenBabel03212520593D

 44 48  0  0  1  0  0  0  0  0999 V2000
   39.6870   77.1920   59.1130 C   0  0  0  0  0  0  0  0  0  0  0  0
   40.3720   76.0480   58.8250 C   0  0  0  0  0  0  0  0  0  0  0  0
   39.7950   75.3370   57.7570 C   0  0  0  0  0  0  0  0  0  0  0  0
   38.6940   75.7340   57.0900 N   0  0  0  0  0  0  0  0  0  0  0  0
   38.0880   76.8980   57.4660 C   0  0  0  0  0  0  0  0  0  0  0  0
   38.5960   77.6250   58.4850 N   0  0  0  0  0  0  0  0  0  0  0  0
   41.2580   75.6820   59.3220 H   0  0  0  0  0  0  0  0  0  0  0  0
   40.2400   74.3970   57.4140 H   0  0  0  0  0  0  0  0  0  0  0  0
   40.9780   80.1340   61.6220 C   0  0  0  0  0  0  0  0  0  0  0  0
   40.9600   78.9030   62.2400 C   0  0  0  0  0  0  0  0  0  0  0  0
   40.5460   77.8500   61.5000 C   0  0  0  0  0  0  0  0  0  0  0  0
   40.1670   78.0290   60.1870 C   0  0  0  0  0  0  0  0  0  0  0  0
   40.3960   79.8420   59.9290 S   0  0  0  0  0  0  0  0  0  0  0  0
   41.2590   78.7570   63.2730 H   0  0  0  0  0  0  0  0  0  0  0  0
   40.4620   76.8120   61.7950 H   0  0  0  0  0  0  0  0  0  0  0  0
   43.1110   82.9080   62.7320 C   0  0  0  0  0  0  0  0  0  0  0  0
   42.2220   83.6910   63.5160 C   0  0  0  0  0  0  0  0  0  0  0  0
   40.9010   83.2660   63.6580 C   0  0  0  0  0  0  0  0  0  0  0  0
   40.5290   82.1250   63.0400 N   0  0  0  0  0  0  0  0  0  0  0  0
   41.4000   81.3930   62.2940 C   0  0  0  0  0  0  0  0  0  0  0  0
   42.6500   81.7930   62.1590 N   0  0  0  0  0  0  0  0  0  0  0  0
   44.1300   83.2640   62.6390 H   0  0  0  0  0  0  0  0  0  0  0  0
   42.5720   84.5900   63.9840 H   0  0  0  0  0  0  0  0  0  0  0  0
   40.1840   83.8380   64.2520 H   0  0  0  0  0  0  0  0  0  0  0  0
   36.9120   77.3090   56.7350 C   0  0  0  0  0  0  0  0  0  0  0  0
   35.8050   77.0710   57.2490 O   0  0  0  0  0  0  0  0  0  0  0  0
   36.9830   77.9940   55.3910 C   0  0  1  0  0  0  0  0  0  0  0  0
   37.3960   79.4390   55.4930 C   0  0  0  0  0  0  0  0  0  0  0  0
   38.2630   78.4290   54.8850 C   0  0  2  0  0  0  0  0  0  0  0  0
   35.9810   77.9690   54.9080 H   0  0  0  0  0  0  0  0  0  0  0  0
   37.6870   79.8580   56.4950 H   0  0  0  0  0  0  0  0  0  0  0  0
   36.8820   80.2000   54.8820 H   0  0  0  0  0  0  0  0  0  0  0  0
   39.1730   78.1270   55.4760 H   0  0  0  0  0  0  0  0  0  0  0  0
   39.1550   77.5010   52.8510 C   0  0  0  0  0  0  0  0  0  0  0  0
   38.5760   78.6070   53.4570 C   0  0  0  0  0  0  0  0  0  0  0  0
   38.3440   79.7450   52.7130 C   0  0  0  0  0  0  0  0  0  0  0  0
   37.8920   80.5850   53.2200 H   0  0  0  0  0  0  0  0  0  0  0  0
   38.7030   79.7330   51.3800 C   0  0  0  0  0  3  0  0  0  0  0  0
   39.2800   78.6510   50.7510 C   0  0  0  0  0  3  0  0  0  0  0  0
   39.5040   77.5170   51.5160 C   0  0  0  0  0  0  0  0  0  0  0  0
   39.4220   76.3060   53.5460 O   0  0  0  0  0  0  0  0  0  0  0  0
   38.6250   75.6510   53.5250 H   0  0  0  0  0  0  0  0  0  0  0  0
   40.0830   76.4060   50.9210 O   0  0  0  0  0  0  0  0  0  0  0  0
   39.7710   76.1970   49.9740 H   0  0  0  0  0  0  0  0  0  0  0  0
  1 12  1  0  0  0  0
  2  1  1  0  0  0  0
  2  7  1  0  0  0  0
  3  2  2  0  0  0  0
  4  5  2  0  0  0  0
  4  3  1  0  0  0  0
  5  6  1  0  0  0  0
  6  1  2  0  0  0  0
  8  3  1  0  0  0  0
  9 10  2  0  0  0  0
  9 20  1  0  0  0  0
 10 14  1  0  0  0  0
 11 15  1  0  0  0  0
 11 10  1  0  0  0  0
 12 11  2  0  0  0  0
 13 12  1  0  0  0  0
 13  9  1  0  0  0  0
 16 17  1  0  0  0  0
 17 18  2  0  0  0  0
 17 23  1  0  0  0  0
 18 24  1  0  0  0  0
 19 18  1  0  0  0  0
 20 19  2  0  0  0  0
 21 20  1  0  0  0  0
 21 16  2  0  0  0  0
 22 16  1  0  0  0  0
 25 26  2  0  0  0  0
 25  5  1  0  0  0  0
 27 30  1  6  0  0  0
 27 28  1  0  0  0  0
 27 25  1  0  0  0  0
 28 31  1  0  0  0  0
 29 27  1  0  0  0  0
 29 33  1  1  0  0  0
 29 28  1  0  0  0  0
 32 28  1  0  0  0  0
 34 35  1  0  0  0  0
 34 41  1  0  0  0  0
 35 29  1  0  0  0  0
 36 37  1  0  0  0  0
 36 35  2  0  0  0  0
 38 36  1  0  0  0  0
 39 38  2  0  0  0  0
 39 40  1  0  0  0  0
 40 34  2  0  0  0  0
 42 41  1  0  0  0  0
 43 40  1  0  0  0  0
 44 43  1  0  0  0  0
M  END
>  <minimizedAffinity>
-6.53351402

>  <minimizedRMSD>
0.950838804

$$$$
