
 OpenBabel03212520513D

 37 40  0  0  1  0  0  0  0  0999 V2000
   41.6170   83.8490   61.3730 C   0  0  0  0  0  0  0  0  0  0  0  0
   40.9710   84.2170   62.5090 C   0  0  0  0  0  0  0  0  0  0  0  0
   40.5290   83.2680   63.4330 C   0  0  0  0  0  0  0  0  0  0  0  0
   40.7400   81.9580   63.2060 N   0  0  0  0  0  0  0  0  0  0  0  0
   41.3840   81.6090   62.0690 C   0  0  0  0  0  0  0  0  0  0  0  0
   41.8150   82.5180   61.1720 N   0  0  0  0  0  0  0  0  0  0  0  0
   40.7900   85.2600   62.7170 H   0  0  0  0  0  0  0  0  0  0  0  0
   40.0110   83.5250   64.3510 H   0  0  0  0  0  0  0  0  0  0  0  0
   43.6080   86.4190   59.6880 C   0  0  0  0  0  0  0  0  0  0  0  0
   42.9200   86.5910   58.4960 C   0  0  0  0  0  0  0  0  0  0  0  0
   41.7680   85.8330   58.2540 C   0  0  0  0  0  0  0  0  0  0  0  0
   41.3980   84.9580   59.2350 N   0  0  0  0  0  0  0  0  0  0  0  0
   42.0850   84.8120   60.3840 C   0  0  0  0  0  0  0  0  0  0  0  0
   43.1900   85.5320   60.6290 N   0  0  0  0  0  0  0  0  0  0  0  0
   44.7510   87.2330   59.7890 N   0  0  0  0  0  0  0  0  0  0  0  0
   43.1980   87.2740   57.7130 H   0  0  0  0  0  0  0  0  0  0  0  0
   41.1750   85.9030   57.3550 H   0  0  0  0  0  0  0  0  0  0  0  0
   45.6940   86.8240   59.5920 H   0  0  0  0  0  0  0  0  0  0  0  0
   44.4180   88.2030   60.0730 H   0  0  0  0  0  0  0  0  0  0  0  0
   41.5750   80.1360   61.8650 C   0  0  1  0  0  0  0  0  0  0  0  0
   40.5860   79.1740   62.2960 C   0  0  0  0  0  0  0  0  0  0  0  0
   40.5440   79.5700   60.8600 C   0  0  2  0  0  0  0  0  0  0  0  0
   42.6210   79.8090   61.6860 H   0  0  0  0  0  0  0  0  0  0  0  0
   39.7110   79.5270   62.9060 H   0  0  0  0  0  0  0  0  0  0  0  0
   40.8840   78.1460   62.5700 H   0  0  0  0  0  0  0  0  0  0  0  0
   39.7300   80.2100   60.5160 H   0  0  0  0  0  0  0  0  0  0  0  0
   40.5270   77.4740   59.4650 C   0  0  0  0  0  0  0  0  0  0  0  0
   41.1130   78.6690   59.8250 C   0  0  0  0  0  0  0  0  0  0  0  0
   42.2930   79.0250   59.1760 C   0  0  0  0  0  0  0  0  0  0  0  0
   42.8290   79.9410   59.3860 H   0  0  0  0  0  0  0  0  0  0  0  0
   42.8470   78.2080   58.2110 C   0  0  0  0  0  3  0  0  0  0  0  0
   42.2640   77.0110   57.8470 C   0  0  0  0  0  3  0  0  0  0  0  0
   41.1050   76.6740   58.4950 C   0  0  0  0  0  0  0  0  0  0  0  0
   39.3510   77.1030   60.1030 O   0  0  0  0  0  0  0  0  0  0  0  0
   38.4790   77.3070   59.5960 H   0  0  0  0  0  0  0  0  0  0  0  0
   40.4670   75.4690   58.1670 O   0  0  0  0  0  0  0  0  0  0  0  0
   39.8980   75.3590   57.3350 H   0  0  0  0  0  0  0  0  0  0  0  0
  1  2  1  0  0  0  0
  2  7  1  0  0  0  0
  2  3  2  0  0  0  0
  3  8  1  0  0  0  0
  4  3  1  0  0  0  0
  5  4  2  0  0  0  0
  6  1  2  0  0  0  0
  6  5  1  0  0  0  0
  9 15  1  0  0  0  0
  9 14  1  0  0  0  0
 10  9  2  0  0  0  0
 11 10  1  0  0  0  0
 11 12  2  0  0  0  0
 12 13  1  0  0  0  0
 13 14  2  0  0  0  0
 13  1  1  0  0  0  0
 15 19  1  0  0  0  0
 16 10  1  0  0  0  0
 17 11  1  0  0  0  0
 18 15  1  0  0  0  0
 20 23  1  6  0  0  0
 20  5  1  0  0  0  0
 20 21  1  0  0  0  0
 21 25  1  0  0  0  0
 21 24  1  0  0  0  0
 22 26  1  6  0  0  0
 22 20  1  0  0  0  0
 22 21  1  0  0  0  0
 27 28  1  0  0  0  0
 27 34  1  0  0  0  0
 28 22  1  0  0  0  0
 29 30  1  0  0  0  0
 29 28  2  0  0  0  0
 31 29  1  0  0  0  0
 32 31  2  0  0  0  0
 32 33  1  0  0  0  0
 33 27  2  0  0  0  0
 35 34  1  0  0  0  0
 36 33  1  0  0  0  0
 37 36  1  0  0  0  0
M  END
>  <minimizedAffinity>
-5.4997921

>  <minimizedRMSD>
0.493756384

$$$$
