
 OpenBabel03212520053D

 43 47  0  0  0  0  0  0  0  0999 V2000
   40.6530   81.8320   57.0880 C   0  0  0  0  0  0  0  0  0  0  0  0
   41.7270   82.4060   56.3870 C   0  0  0  0  0  0  0  0  0  0  0  0
   42.5200   83.3030   57.0680 C   0  0  0  0  0  0  0  0  0  0  0  0
   42.2530   83.5980   58.3690 N   0  0  0  0  0  0  0  0  0  0  0  0
   41.2080   83.0220   59.0210 C   0  0  0  0  0  0  0  0  0  0  0  0
   40.3990   82.1340   58.3780 N   0  0  0  0  0  0  0  0  0  0  0  0
   39.9480   81.1180   56.6880 H   0  0  0  0  0  0  0  0  0  0  0  0
   41.7600   81.9970   55.4070 H   0  0  0  0  0  0  0  0  0  0  0  0
   39.6630   83.1180   60.9100 C   0  0  0  0  0  0  0  0  0  0  0  0
   40.9560   83.3180   60.4220 C   0  0  0  0  0  0  0  0  0  0  0  0
   41.9870   83.7690   61.2480 C   0  0  0  0  0  0  0  0  0  0  0  0
   41.7580   84.0320   62.5850 C   0  0  0  0  0  0  0  0  0  0  0  0
   42.4660   84.4590   63.6480 N   0  0  0  0  0  0  0  0  0  0  0  0
   41.6860   84.5280   64.7470 C   0  0  0  0  0  0  0  0  0  0  0  0
   40.4790   84.1330   64.3240 N   0  0  0  0  0  0  0  0  0  0  0  0
   40.4860   83.8230   63.0160 C   0  0  0  0  0  0  0  0  0  0  0  0
   39.4060   83.3780   62.2620 C   0  0  0  0  0  0  0  0  0  0  0  0
   38.8530   82.7730   60.2990 H   0  0  0  0  0  0  0  0  0  0  0  0
   42.9960   83.9260   60.8660 H   0  0  0  0  0  0  0  0  0  0  0  0
   43.4860   84.6990   63.6080 H   0  0  0  0  0  0  0  0  0  0  0  0
   41.9660   84.8340   65.7470 H   0  0  0  0  0  0  0  0  0  0  0  0
   38.4400   83.2430   62.6880 H   0  0  0  0  0  0  0  0  0  0  0  0
   42.4360   83.3370   54.0910 Cl  0  0  0  0  0  0  0  0  0  0  0  0
   43.7390   84.0240   55.0500 C   0  0  0  0  0  0  0  0  0  0  0  0
   43.6380   83.9450   56.4140 C   0  0  0  0  0  0  0  0  0  0  0  0
   44.7000   84.5330   57.0960 C   0  0  0  0  0  0  0  0  0  0  0  0
   45.7700   85.1470   56.4830 C   0  0  0  0  0  0  0  0  0  0  0  0
   45.8100   85.1900   55.0920 C   0  0  0  0  0  0  0  0  0  0  0  0
   47.1470   85.9560   54.2780 Cl  0  0  0  0  0  0  0  0  0  0  0  0
   44.7810   84.6220   54.3760 C   0  0  0  0  0  0  0  0  0  0  0  0
   44.7000   84.5160   58.1760 H   0  0  0  0  0  0  0  0  0  0  0  0
   46.5570   85.5810   57.0780 H   0  0  0  0  0  0  0  0  0  0  0  0
   45.2780   83.7150   52.0310 C   0  0  0  0  0  0  0  0  0  0  0  0
   44.8050   84.6580   52.9190 C   0  0  0  0  0  0  0  0  0  0  0  0
   44.2510   85.8540   52.4490 C   0  0  0  0  0  0  0  0  0  0  0  0
   43.8500   86.6640   53.0430 H   0  0  0  0  0  0  0  0  0  0  0  0
   44.1800   86.0880   51.0720 C   0  0  0  0  0  3  0  0  0  0  0  0
   44.6540   85.1410   50.1960 C   0  0  0  0  0  3  0  0  0  0  0  0
   45.2030   83.9550   50.6760 C   0  0  0  0  0  0  0  0  0  0  0  0
   45.7930   82.5920   52.6290 O   0  0  0  0  0  0  0  0  0  0  0  0
   46.5030   82.0830   52.1160 H   0  0  0  0  0  0  0  0  0  0  0  0
   45.6970   82.9640   49.8330 O   0  0  0  0  0  0  0  0  0  0  0  0
   45.1830   82.8030   48.9590 H   0  0  0  0  0  0  0  0  0  0  0  0
  1  6  1  0  0  0  0
  2  3  1  0  0  0  0
  2  1  2  0  0  0  0
  3  4  2  0  0  0  0
  4  5  1  0  0  0  0
  5 10  1  0  0  0  0
  6  5  2  0  0  0  0
  7  1  1  0  0  0  0
  8  2  1  0  0  0  0
  9 17  1  0  0  0  0
 10  9  2  0  0  0  0
 10 11  1  0  0  0  0
 11 12  2  0  0  0  0
 12 16  1  0  0  0  0
 12 13  1  0  0  0  0
 13 14  1  0  0  0  0
 14 21  1  0  0  0  0
 15 14  2  0  0  0  0
 16 15  1  0  0  0  0
 17 22  1  0  0  0  0
 17 16  2  0  0  0  0
 18  9  1  0  0  0  0
 19 11  1  0  0  0  0
 20 13  1  0  0  0  0
 23 24  1  0  0  0  0
 24 25  1  0  0  0  0
 25  3  1  0  0  0  0
 25 26  2  0  0  0  0
 26 31  1  0  0  0  0
 27 32  1  0  0  0  0
 27 26  1  0  0  0  0
 28 27  2  0  0  0  0
 29 28  1  0  0  0  0
 30 24  2  0  0  0  0
 30 28  1  0  0  0  0
 33 40  1  0  0  0  0
 33 34  1  0  0  0  0
 34 30  1  0  0  0  0
 35 34  2  0  0  0  0
 35 36  1  0  0  0  0
 37 35  1  0  0  0  0
 38 39  1  0  0  0  0
 38 37  2  0  0  0  0
 39 33  2  0  0  0  0
 41 40  1  0  0  0  0
 42 39  1  0  0  0  0
 43 42  1  0  0  0  0
M  END
>  <minimizedAffinity>
-5.15356874

>  <minimizedRMSD>
0.646823525

$$$$
