
 OpenBabel03212520593D

 44 48  0  0  1  0  0  0  0  0999 V2000
   39.7360   77.2880   59.2420 C   0  0  0  0  0  0  0  0  0  0  0  0
   40.4010   76.1240   58.9930 C   0  0  0  0  0  0  0  0  0  0  0  0
   39.8350   75.4060   57.9230 C   0  0  0  0  0  0  0  0  0  0  0  0
   38.7620   75.8150   57.2210 N   0  0  0  0  0  0  0  0  0  0  0  0
   38.1740   77.0000   57.5590 C   0  0  0  0  0  0  0  0  0  0  0  0
   38.6720   77.7340   58.5780 N   0  0  0  0  0  0  0  0  0  0  0  0
   41.2640   75.7460   59.5200 H   0  0  0  0  0  0  0  0  0  0  0  0
   40.2670   74.4490   57.6100 H   0  0  0  0  0  0  0  0  0  0  0  0
   40.9840   80.2560   61.7430 C   0  0  0  0  0  0  0  0  0  0  0  0
   41.0010   79.0230   62.3590 C   0  0  0  0  0  0  0  0  0  0  0  0
   40.6040   77.9620   61.6210 C   0  0  0  0  0  0  0  0  0  0  0  0
   40.2070   78.1340   60.3130 C   0  0  0  0  0  0  0  0  0  0  0  0
   40.3930   79.9520   60.0550 S   0  0  0  0  0  0  0  0  0  0  0  0
   41.3140   78.8830   63.3890 H   0  0  0  0  0  0  0  0  0  0  0  0
   40.5460   76.9220   61.9150 H   0  0  0  0  0  0  0  0  0  0  0  0
   43.0660   83.0750   62.8370 C   0  0  0  0  0  0  0  0  0  0  0  0
   42.1660   83.8360   63.6300 C   0  0  0  0  0  0  0  0  0  0  0  0
   40.8570   83.3820   63.7850 C   0  0  0  0  0  0  0  0  0  0  0  0
   40.5050   82.2340   63.1680 N   0  0  0  0  0  0  0  0  0  0  0  0
   41.3860   81.5220   62.4130 C   0  0  0  0  0  0  0  0  0  0  0  0
   42.6250   81.9510   62.2670 N   0  0  0  0  0  0  0  0  0  0  0  0
   44.0760   83.4530   62.7350 H   0  0  0  0  0  0  0  0  0  0  0  0
   42.5010   84.7430   64.0970 H   0  0  0  0  0  0  0  0  0  0  0  0
   40.1340   83.9370   64.3870 H   0  0  0  0  0  0  0  0  0  0  0  0
   37.0280   77.4250   56.7890 C   0  0  0  0  0  0  0  0  0  0  0  0
   35.9100   77.0160   57.1510 O   0  0  0  0  0  0  0  0  0  0  0  0
   37.1410   78.3210   55.5790 C   0  0  1  0  0  0  0  0  0  0  0  0
   37.2870   79.7750   55.9410 C   0  0  0  0  0  0  0  0  0  0  0  0
   38.3800   79.0190   55.3290 C   0  0  2  0  0  0  0  0  0  0  0  0
   36.2240   78.2230   54.9570 H   0  0  0  0  0  0  0  0  0  0  0  0
   37.3800   80.0650   57.0220 H   0  0  0  0  0  0  0  0  0  0  0  0
   36.7280   80.5390   55.3740 H   0  0  0  0  0  0  0  0  0  0  0  0
   39.2500   78.7650   55.9980 H   0  0  0  0  0  0  0  0  0  0  0  0
   40.1430   79.9090   53.9530 C   0  0  0  0  0  0  0  0  0  0  0  0
   38.8270   79.4700   54.0010 C   0  0  0  0  0  0  0  0  0  0  0  0
   38.0650   79.4870   52.8510 C   0  0  0  0  0  0  0  0  0  0  0  0
   37.0450   79.1380   52.9280 H   0  0  0  0  0  0  0  0  0  0  0  0
   38.6520   79.9460   51.6900 C   0  0  0  0  0  3  0  0  0  0  0  0
   39.9540   80.3880   51.6120 C   0  0  0  0  0  3  0  0  0  0  0  0
   40.7040   80.3630   52.7770 C   0  0  0  0  0  0  0  0  0  0  0  0
   40.9810   79.9200   55.0830 O   0  0  0  0  0  0  0  0  0  0  0  0
   41.4920   79.0320   55.2070 H   0  0  0  0  0  0  0  0  0  0  0  0
   42.0200   80.7990   52.7410 O   0  0  0  0  0  0  0  0  0  0  0  0
   42.5540   80.5330   51.9140 H   0  0  0  0  0  0  0  0  0  0  0  0
  1 12  1  0  0  0  0
  2  1  1  0  0  0  0
  2  7  1  0  0  0  0
  3  2  2  0  0  0  0
  4  5  2  0  0  0  0
  4  3  1  0  0  0  0
  5  6  1  0  0  0  0
  6  1  2  0  0  0  0
  8  3  1  0  0  0  0
  9 10  2  0  0  0  0
  9 20  1  0  0  0  0
 10 14  1  0  0  0  0
 11 15  1  0  0  0  0
 11 10  1  0  0  0  0
 12 11  2  0  0  0  0
 13 12  1  0  0  0  0
 13  9  1  0  0  0  0
 16 17  1  0  0  0  0
 17 18  2  0  0  0  0
 17 23  1  0  0  0  0
 18 24  1  0  0  0  0
 19 18  1  0  0  0  0
 20 19  2  0  0  0  0
 21 20  1  0  0  0  0
 21 16  2  0  0  0  0
 22 16  1  0  0  0  0
 25 26  2  0  0  0  0
 25  5  1  0  0  0  0
 27 30  1  6  0  0  0
 27 28  1  0  0  0  0
 27 25  1  0  0  0  0
 28 31  1  0  0  0  0
 29 27  1  0  0  0  0
 29 28  1  0  0  0  0
 29 33  1  1  0  0  0
 32 28  1  0  0  0  0
 34 35  1  0  0  0  0
 34 41  1  0  0  0  0
 35 29  1  0  0  0  0
 36 37  1  0  0  0  0
 36 35  2  0  0  0  0
 38 36  1  0  0  0  0
 39 38  2  0  0  0  0
 39 40  1  0  0  0  0
 40 34  2  0  0  0  0
 41 42  1  0  0  0  0
 43 40  1  0  0  0  0
 44 43  1  0  0  0  0
M  END
>  <minimizedAffinity>
-6.52282858

>  <minimizedRMSD>
0.301648527

$$$$
