
 OpenBabel03212520513D

 37 40  0  0  1  0  0  0  0  0999 V2000
   41.6750   83.8560   61.4060 C   0  0  0  0  0  0  0  0  0  0  0  0
   41.1210   84.2250   62.5890 C   0  0  0  0  0  0  0  0  0  0  0  0
   40.6920   83.2740   63.5180 C   0  0  0  0  0  0  0  0  0  0  0  0
   40.8260   81.9610   63.2490 N   0  0  0  0  0  0  0  0  0  0  0  0
   41.3800   81.6120   62.0650 C   0  0  0  0  0  0  0  0  0  0  0  0
   41.7960   82.5230   61.1630 N   0  0  0  0  0  0  0  0  0  0  0  0
   41.0020   85.2690   62.8310 H   0  0  0  0  0  0  0  0  0  0  0  0
   40.2460   83.5310   64.4730 H   0  0  0  0  0  0  0  0  0  0  0  0
   43.6180   86.4510   59.7030 C   0  0  0  0  0  0  0  0  0  0  0  0
   42.9270   86.6020   58.5110 C   0  0  0  0  0  0  0  0  0  0  0  0
   41.7890   85.8210   58.2730 C   0  0  0  0  0  0  0  0  0  0  0  0
   41.4350   84.9470   59.2600 N   0  0  0  0  0  0  0  0  0  0  0  0
   42.1250   84.8200   60.4100 C   0  0  0  0  0  0  0  0  0  0  0  0
   43.2160   85.5630   60.6500 N   0  0  0  0  0  0  0  0  0  0  0  0
   44.7450   87.2870   59.7990 N   0  0  0  0  0  0  0  0  0  0  0  0
   43.1910   87.2850   57.7220 H   0  0  0  0  0  0  0  0  0  0  0  0
   41.1940   85.8740   57.3740 H   0  0  0  0  0  0  0  0  0  0  0  0
   45.6960   86.8930   59.6040 H   0  0  0  0  0  0  0  0  0  0  0  0
   44.3950   88.2520   60.0760 H   0  0  0  0  0  0  0  0  0  0  0  0
   41.4870   80.1370   61.8160 C   0  0  1  0  0  0  0  0  0  0  0  0
   40.7980   79.1750   62.6450 C   0  0  0  0  0  0  0  0  0  0  0  0
   40.1320   79.5440   61.3640 C   0  0  2  0  0  0  0  0  0  0  0  0
   42.3580   79.8160   61.2070 H   0  0  0  0  0  0  0  0  0  0  0  0
   40.2680   79.5300   63.5700 H   0  0  0  0  0  0  0  0  0  0  0  0
   41.2010   78.1540   62.7760 H   0  0  0  0  0  0  0  0  0  0  0  0
   39.2390   80.1700   61.4000 H   0  0  0  0  0  0  0  0  0  0  0  0
   40.1390   79.0680   58.8920 C   0  0  0  0  0  0  0  0  0  0  0  0
   40.2110   78.6290   60.1970 C   0  0  0  0  0  0  0  0  0  0  0  0
   40.3660   77.2610   60.4060 C   0  0  0  0  0  0  0  0  0  0  0  0
   40.4330   76.8170   61.3900 H   0  0  0  0  0  0  0  0  0  0  0  0
   40.4430   76.3840   59.3410 C   0  0  0  0  0  3  0  0  0  0  0  0
   40.3710   76.8190   58.0340 C   0  0  0  0  0  3  0  0  0  0  0  0
   40.2180   78.1660   57.8440 C   0  0  0  0  0  0  0  0  0  0  0  0
   39.9850   80.4290   58.6650 O   0  0  0  0  0  0  0  0  0  0  0  0
   40.8450   80.9510   58.4490 H   0  0  0  0  0  0  0  0  0  0  0  0
   40.1390   78.6650   56.5360 O   0  0  0  0  0  0  0  0  0  0  0  0
   40.9550   78.7940   55.9490 H   0  0  0  0  0  0  0  0  0  0  0  0
  1  2  1  0  0  0  0
  2  7  1  0  0  0  0
  2  3  2  0  0  0  0
  3  8  1  0  0  0  0
  4  3  1  0  0  0  0
  5  4  2  0  0  0  0
  6  1  2  0  0  0  0
  6  5  1  0  0  0  0
  9 15  1  0  0  0  0
  9 14  1  0  0  0  0
 10  9  2  0  0  0  0
 11 10  1  0  0  0  0
 11 12  2  0  0  0  0
 12 13  1  0  0  0  0
 13 14  2  0  0  0  0
 13  1  1  0  0  0  0
 15 19  1  0  0  0  0
 16 10  1  0  0  0  0
 17 11  1  0  0  0  0
 18 15  1  0  0  0  0
 20 23  1  6  0  0  0
 20  5  1  0  0  0  0
 20 21  1  0  0  0  0
 21 25  1  0  0  0  0
 21 24  1  0  0  0  0
 22 26  1  1  0  0  0
 22 20  1  0  0  0  0
 22 21  1  0  0  0  0
 27 28  1  0  0  0  0
 28 29  2  0  0  0  0
 28 22  1  0  0  0  0
 29 30  1  0  0  0  0
 31 29  1  0  0  0  0
 32 31  2  0  0  0  0
 33 32  1  0  0  0  0
 33 27  2  0  0  0  0
 34 27  1  0  0  0  0
 35 34  1  0  0  0  0
 36 33  1  0  0  0  0
 37 36  1  0  0  0  0
M  END
>  <minimizedAffinity>
-5.74258184

>  <minimizedRMSD>
0.765990376

$$$$
