
 OpenBabel03212520103D

 20 21  0  0  0  0  0  0  0  0999 V2000
   40.4910   73.2110   61.3200 C   0  0  0  0  0  0  0  0  0  0  0  0
   40.9670   74.0290   60.3150 C   0  0  0  0  0  0  0  0  0  0  0  0
   42.3420   73.9710   60.1110 C   0  0  0  0  0  0  0  0  0  0  0  0
   42.8610   74.5620   59.3500 H   0  0  0  0  0  0  0  0  0  0  0  0
   43.1470   73.1480   60.8680 C   0  0  0  0  0  3  0  0  0  0  0  0
   42.6280   72.3450   61.8640 C   0  0  0  0  0  3  0  0  0  0  0  0
   41.2790   72.3800   62.0900 C   0  0  0  0  0  0  0  0  0  0  0  0
   39.6460   74.4830   58.2780 C   0  0  0  0  0  0  0  0  0  0  0  0
   40.2200   74.9100   59.4820 C   0  0  0  0  0  0  0  0  0  0  0  0
   40.0440   76.2490   59.8660 C   0  0  0  0  0  0  0  0  0  0  0  0
   39.3230   77.0490   59.0380 N   0  0  0  0  0  0  0  0  0  0  0  0
   38.7820   76.6140   57.8850 C   0  0  0  0  0  0  0  0  0  0  0  0
   38.9390   75.3280   57.4970 N   0  0  0  0  0  0  0  0  0  0  0  0
   39.7760   73.4390   57.9670 H   0  0  0  0  0  0  0  0  0  0  0  0
   40.4760   76.6020   60.7890 H   0  0  0  0  0  0  0  0  0  0  0  0
   38.2320   77.3610   57.3250 H   0  0  0  0  0  0  0  0  0  0  0  0
   39.1080   73.2610   61.5360 O   0  0  0  0  0  0  0  0  0  0  0  0
   38.6050   72.3890   61.3130 H   0  0  0  0  0  0  0  0  0  0  0  0
   40.7420   71.5820   63.0850 O   0  0  0  0  0  0  0  0  0  0  0  0
   39.8220   71.6670   63.4740 H   0  0  0  0  0  0  0  0  0  0  0  0
  1 17  1  0  0  0  0
  1  7  1  0  0  0  0
  2  1  2  0  0  0  0
  3  2  1  0  0  0  0
  3  5  2  0  0  0  0
  4  3  1  0  0  0  0
  5  6  1  0  0  0  0
  6  7  2  0  0  0  0
  7 19  1  0  0  0  0
  8  9  1  0  0  0  0
  9 10  2  0  0  0  0
  9  2  1  0  0  0  0
 10 15  1  0  0  0  0
 11 10  1  0  0  0  0
 12 11  2  0  0  0  0
 13 12  1  0  0  0  0
 13  8  2  0  0  0  0
 14  8  1  0  0  0  0
 16 12  1  0  0  0  0
 18 17  1  0  0  0  0
 19 20  1  0  0  0  0
M  END
>  <minimizedAffinity>
-4.9627738

$$$$

 OpenBabel03212520103D

 20 21  0  0  0  0  0  0  0  0999 V2000
   39.3940   72.1470   58.3500 C   0  0  0  0  0  0  0  0  0  0  0  0
   39.6880   73.0360   59.3650 C   0  0  0  0  0  0  0  0  0  0  0  0
   38.9380   74.2080   59.3550 C   0  0  0  0  0  0  0  0  0  0  0  0
   39.0590   75.0030   60.0960 H   0  0  0  0  0  0  0  0  0  0  0  0
   37.9790   74.4400   58.3940 C   0  0  0  0  0  3  0  0  0  0  0  0
   37.7170   73.5230   57.3960 C   0  0  0  0  0  3  0  0  0  0  0  0
   38.4380   72.3590   57.3780 C   0  0  0  0  0  0  0  0  0  0  0  0
   42.0180   73.1190   60.1770 C   0  0  0  0  0  0  0  0  0  0  0  0
   40.6550   72.8880   60.3990 C   0  0  0  0  0  0  0  0  0  0  0  0
   40.2450   72.5000   61.6850 C   0  0  0  0  0  0  0  0  0  0  0  0
   41.2070   72.3730   62.6370 N   0  0  0  0  0  0  0  0  0  0  0  0
   42.5110   72.6010   62.3980 C   0  0  0  0  0  0  0  0  0  0  0  0
   42.9270   72.9750   61.1670 N   0  0  0  0  0  0  0  0  0  0  0  0
   42.3510   73.4230   59.1770 H   0  0  0  0  0  0  0  0  0  0  0  0
   39.2010   72.3160   61.8810 H   0  0  0  0  0  0  0  0  0  0  0  0
   43.1660   72.4610   63.2510 H   0  0  0  0  0  0  0  0  0  0  0  0
   40.1420   70.9630   58.3480 O   0  0  0  0  0  0  0  0  0  0  0  0
   39.5960   70.1090   58.5370 H   0  0  0  0  0  0  0  0  0  0  0  0
   38.1890   71.4290   56.3840 O   0  0  0  0  0  0  0  0  0  0  0  0
   38.7750   70.6500   56.1480 H   0  0  0  0  0  0  0  0  0  0  0  0
  1  2  1  0  0  0  0
  2  9  1  0  0  0  0
  3  2  2  0  0  0  0
  3  4  1  0  0  0  0
  5  3  1  0  0  0  0
  6  5  2  0  0  0  0
  7  6  1  0  0  0  0
  7  1  2  0  0  0  0
  8  9  2  0  0  0  0
  8 13  1  0  0  0  0
  9 10  1  0  0  0  0
 10 15  1  0  0  0  0
 10 11  2  0  0  0  0
 12 11  1  0  0  0  0
 12 16  1  0  0  0  0
 13 12  2  0  0  0  0
 14  8  1  0  0  0  0
 17  1  1  0  0  0  0
 17 18  1  0  0  0  0
 19  7  1  0  0  0  0
 20 19  1  0  0  0  0
M  END
>  <minimizedAffinity>
-4.95425701

$$$$

 OpenBabel03212520103D

 20 21  0  0  0  0  0  0  0  0999 V2000
   38.5440   75.4360   59.1740 C   0  0  0  0  0  0  0  0  0  0  0  0
   38.8300   76.0930   57.9940 C   0  0  0  0  0  0  0  0  0  0  0  0
   39.7560   77.1250   58.1050 C   0  0  0  0  0  0  0  0  0  0  0  0
   40.0800   77.7340   57.2550 H   0  0  0  0  0  0  0  0  0  0  0  0
   40.3310   77.4490   59.3140 C   0  0  0  0  0  3  0  0  0  0  0  0
   40.0160   76.7650   60.4710 C   0  0  0  0  0  3  0  0  0  0  0  0
   39.1080   75.7430   60.3960 C   0  0  0  0  0  0  0  0  0  0  0  0
   37.1460   76.4900   56.2310 C   0  0  0  0  0  0  0  0  0  0  0  0
   38.2910   75.8350   56.7020 C   0  0  0  0  0  0  0  0  0  0  0  0
   38.9150   74.8980   55.8620 C   0  0  0  0  0  0  0  0  0  0  0  0
   38.3620   74.6870   54.6390 N   0  0  0  0  0  0  0  0  0  0  0  0
   37.2610   75.3310   54.2100 C   0  0  0  0  0  0  0  0  0  0  0  0
   36.6450   76.2370   55.0020 N   0  0  0  0  0  0  0  0  0  0  0  0
   36.6500   77.2250   56.8780 H   0  0  0  0  0  0  0  0  0  0  0  0
   39.7980   74.3800   56.2020 H   0  0  0  0  0  0  0  0  0  0  0  0
   36.9310   75.0630   53.2120 H   0  0  0  0  0  0  0  0  0  0  0  0
   37.6130   74.3950   59.0770 O   0  0  0  0  0  0  0  0  0  0  0  0
   37.9960   73.4560   59.2640 H   0  0  0  0  0  0  0  0  0  0  0  0
   38.7810   75.0480   61.5460 O   0  0  0  0  0  0  0  0  0  0  0  0
   37.9980   74.4300   61.6570 H   0  0  0  0  0  0  0  0  0  0  0  0
  1  7  1  0  0  0  0
  2  3  1  0  0  0  0
  2  1  2  0  0  0  0
  3  5  2  0  0  0  0
  4  3  1  0  0  0  0
  5  6  1  0  0  0  0
  7  6  2  0  0  0  0
  7 19  1  0  0  0  0
  8  9  1  0  0  0  0
  8 14  1  0  0  0  0
  9  2  1  0  0  0  0
 10 15  1  0  0  0  0
 10  9  2  0  0  0  0
 11 10  1  0  0  0  0
 12 11  2  0  0  0  0
 12 13  1  0  0  0  0
 13  8  2  0  0  0  0
 16 12  1  0  0  0  0
 17  1  1  0  0  0  0
 17 18  1  0  0  0  0
 19 20  1  0  0  0  0
M  END
>  <minimizedAffinity>
-4.78815937

$$$$

 OpenBabel03212520103D

 20 21  0  0  0  0  0  0  0  0999 V2000
   40.1760   74.5540   60.8220 C   0  0  0  0  0  0  0  0  0  0  0  0
   41.3060   74.4230   60.0390 C   0  0  0  0  0  0  0  0  0  0  0  0
   41.7430   75.5980   59.4370 C   0  0  0  0  0  0  0  0  0  0  0  0
   42.6240   75.6480   58.7900 H   0  0  0  0  0  0  0  0  0  0  0  0
   41.0820   76.7920   59.6250 C   0  0  0  0  0  3  0  0  0  0  0  0
   39.9560   76.8780   60.4180 C   0  0  0  0  0  3  0  0  0  0  0  0
   39.4990   75.7390   61.0240 C   0  0  0  0  0  0  0  0  0  0  0  0
   41.7050   72.3460   58.7640 C   0  0  0  0  0  0  0  0  0  0  0  0
   42.0550   73.2400   59.7840 C   0  0  0  0  0  0  0  0  0  0  0  0
   43.1810   72.9470   60.5700 C   0  0  0  0  0  0  0  0  0  0  0  0
   43.8630   71.8060   60.2860 N   0  0  0  0  0  0  0  0  0  0  0  0
   43.5060   70.9630   59.3000 C   0  0  0  0  0  0  0  0  0  0  0  0
   42.4260   71.2270   58.5310 N   0  0  0  0  0  0  0  0  0  0  0  0
   40.8280   72.5640   58.1420 H   0  0  0  0  0  0  0  0  0  0  0  0
   43.4710   73.6190   61.3610 H   0  0  0  0  0  0  0  0  0  0  0  0
   44.1420   70.0920   59.1870 H   0  0  0  0  0  0  0  0  0  0  0  0
   39.7240   73.3780   61.4330 O   0  0  0  0  0  0  0  0  0  0  0  0
   39.7920   73.3740   62.4620 H   0  0  0  0  0  0  0  0  0  0  0  0
   38.3700   75.8080   61.8210 O   0  0  0  0  0  0  0  0  0  0  0  0
   37.8320   75.0260   62.1470 H   0  0  0  0  0  0  0  0  0  0  0  0
  1  7  1  0  0  0  0
  1 17  1  0  0  0  0
  2  1  2  0  0  0  0
  3  5  2  0  0  0  0
  3  2  1  0  0  0  0
  4  3  1  0  0  0  0
  5  6  1  0  0  0  0
  6  7  2  0  0  0  0
  7 19  1  0  0  0  0
  8  9  1  0  0  0  0
  9  2  1  0  0  0  0
  9 10  2  0  0  0  0
 10 15  1  0  0  0  0
 11 10  1  0  0  0  0
 12 11  2  0  0  0  0
 13  8  2  0  0  0  0
 13 12  1  0  0  0  0
 14  8  1  0  0  0  0
 16 12  1  0  0  0  0
 17 18  1  0  0  0  0
 19 20  1  0  0  0  0
M  END
>  <minimizedAffinity>
-4.75777388

$$$$

 OpenBabel03212520103D

 20 21  0  0  0  0  0  0  0  0999 V2000
   37.6300   74.6520   56.8870 C   0  0  0  0  0  0  0  0  0  0  0  0
   38.3630   75.1650   57.9390 C   0  0  0  0  0  0  0  0  0  0  0  0
   38.6560   76.5210   57.8440 C   0  0  0  0  0  0  0  0  0  0  0  0
   39.2280   77.0650   58.6010 H   0  0  0  0  0  0  0  0  0  0  0  0
   38.2350   77.2750   56.7700 C   0  0  0  0  0  3  0  0  0  0  0  0
   37.5040   76.7210   55.7390 C   0  0  0  0  0  3  0  0  0  0  0  0
   37.1990   75.3880   55.8020 C   0  0  0  0  0  0  0  0  0  0  0  0
   38.1170   74.4290   60.2830 C   0  0  0  0  0  0  0  0  0  0  0  0
   38.8420   74.4710   59.0850 C   0  0  0  0  0  0  0  0  0  0  0  0
   40.0760   73.8040   59.0300 C   0  0  0  0  0  0  0  0  0  0  0  0
   40.4890   73.1570   60.1510 N   0  0  0  0  0  0  0  0  0  0  0  0
   39.7740   73.1310   61.2900 C   0  0  0  0  0  0  0  0  0  0  0  0
   38.5820   73.7660   61.3650 N   0  0  0  0  0  0  0  0  0  0  0  0
   37.1510   74.9460   60.3390 H   0  0  0  0  0  0  0  0  0  0  0  0
   40.6540   73.8220   58.1190 H   0  0  0  0  0  0  0  0  0  0  0  0
   40.2250   72.5760   62.1040 H   0  0  0  0  0  0  0  0  0  0  0  0
   37.3290   73.2870   56.9690 O   0  0  0  0  0  0  0  0  0  0  0  0
   36.3260   73.0730   57.0790 H   0  0  0  0  0  0  0  0  0  0  0  0
   36.4670   74.8160   54.7770 O   0  0  0  0  0  0  0  0  0  0  0  0
   36.3570   73.8330   54.6100 H   0  0  0  0  0  0  0  0  0  0  0  0
  1 17  1  0  0  0  0
  1  2  1  0  0  0  0
  2  9  1  0  0  0  0
  3  2  2  0  0  0  0
  3  4  1  0  0  0  0
  5  3  1  0  0  0  0
  6  7  1  0  0  0  0
  6  5  2  0  0  0  0
  7  1  2  0  0  0  0
  8 14  1  0  0  0  0
  8 13  1  0  0  0  0
  9  8  2  0  0  0  0
 10  9  1  0  0  0  0
 10 11  2  0  0  0  0
 11 12  1  0  0  0  0
 12 13  2  0  0  0  0
 12 16  1  0  0  0  0
 15 10  1  0  0  0  0
 17 18  1  0  0  0  0
 19  7  1  0  0  0  0
 20 19  1  0  0  0  0
M  END
>  <minimizedAffinity>
-4.72472906

$$$$

 OpenBabel03212520103D

 20 21  0  0  0  0  0  0  0  0999 V2000
   43.5260   67.5140   62.5030 C   0  0  0  0  0  0  0  0  0  0  0  0
   42.4890   68.3320   62.1020 C   0  0  0  0  0  0  0  0  0  0  0  0
   41.3820   67.6670   61.5860 C   0  0  0  0  0  0  0  0  0  0  0  0
   40.4860   68.1840   61.2290 H   0  0  0  0  0  0  0  0  0  0  0  0
   41.3470   66.2940   61.4930 C   0  0  0  0  0  3  0  0  0  0  0  0
   42.4070   65.5130   61.9060 C   0  0  0  0  0  3  0  0  0  0  0  0
   43.5120   66.1360   62.4190 C   0  0  0  0  0  0  0  0  0  0  0  0
   43.0550   70.5590   61.1970 C   0  0  0  0  0  0  0  0  0  0  0  0
   42.4310   69.7530   62.1580 C   0  0  0  0  0  0  0  0  0  0  0  0
   41.7310   70.3810   63.2000 C   0  0  0  0  0  0  0  0  0  0  0  0
   41.7040   71.7400   63.2080 N   0  0  0  0  0  0  0  0  0  0  0  0
   42.3120   72.4910   62.2730 C   0  0  0  0  0  0  0  0  0  0  0  0
   42.9920   71.9070   61.2600 N   0  0  0  0  0  0  0  0  0  0  0  0
   43.6050   70.0810   60.3770 H   0  0  0  0  0  0  0  0  0  0  0  0
   41.2420   69.7830   63.9530 H   0  0  0  0  0  0  0  0  0  0  0  0
   42.2080   73.5620   62.4050 H   0  0  0  0  0  0  0  0  0  0  0  0
   44.6480   68.1700   63.0250 O   0  0  0  0  0  0  0  0  0  0  0  0
   44.8240   67.9940   64.0260 H   0  0  0  0  0  0  0  0  0  0  0  0
   44.5850   65.3690   62.8380 O   0  0  0  0  0  0  0  0  0  0  0  0
   45.5080   65.7070   63.0370 H   0  0  0  0  0  0  0  0  0  0  0  0
  1 17  1  0  0  0  0
  2  9  1  0  0  0  0
  2  1  2  0  0  0  0
  3  2  1  0  0  0  0
  4  3  1  0  0  0  0
  5  3  2  0  0  0  0
  5  6  1  0  0  0  0
  6  7  2  0  0  0  0
  7  1  1  0  0  0  0
  7 19  1  0  0  0  0
  8 13  2  0  0  0  0
  8  9  1  0  0  0  0
  9 10  2  0  0  0  0
 10 11  1  0  0  0  0
 10 15  1  0  0  0  0
 12 16  1  0  0  0  0
 12 11  2  0  0  0  0
 13 12  1  0  0  0  0
 14  8  1  0  0  0  0
 17 18  1  0  0  0  0
 19 20  1  0  0  0  0
M  END
>  <minimizedAffinity>
-4.64884043

$$$$

 OpenBabel03212520103D

 20 21  0  0  0  0  0  0  0  0999 V2000
   39.1980   72.0660   57.2420 C   0  0  0  0  0  0  0  0  0  0  0  0
   39.2970   73.4400   57.1550 C   0  0  0  0  0  0  0  0  0  0  0  0
   40.3610   73.9980   57.8570 C   0  0  0  0  0  0  0  0  0  0  0  0
   40.5660   75.0720   57.8800 H   0  0  0  0  0  0  0  0  0  0  0  0
   41.2380   73.2150   58.5760 C   0  0  0  0  0  3  0  0  0  0  0  0
   41.1010   71.8430   58.6350 C   0  0  0  0  0  3  0  0  0  0  0  0
   40.0640   71.2630   57.9560 C   0  0  0  0  0  0  0  0  0  0  0  0
   37.4510   75.0790   57.0840 C   0  0  0  0  0  0  0  0  0  0  0  0
   38.4460   74.3310   56.4420 C   0  0  0  0  0  0  0  0  0  0  0  0
   38.5970   74.4750   55.0540 C   0  0  0  0  0  0  0  0  0  0  0  0
   37.7610   75.3380   54.4190 N   0  0  0  0  0  0  0  0  0  0  0  0
   36.8120   76.0450   55.0590 C   0  0  0  0  0  0  0  0  0  0  0  0
   36.6500   75.9220   56.3960 N   0  0  0  0  0  0  0  0  0  0  0  0
   37.3240   74.9750   58.1690 H   0  0  0  0  0  0  0  0  0  0  0  0
   39.3570   73.9100   54.5360 H   0  0  0  0  0  0  0  0  0  0  0  0
   36.2180   76.6950   54.4260 H   0  0  0  0  0  0  0  0  0  0  0  0
   38.1300   71.4910   56.5410 O   0  0  0  0  0  0  0  0  0  0  0  0
   38.4080   70.8920   55.7490 H   0  0  0  0  0  0  0  0  0  0  0  0
   39.9120   69.8890   58.0050 O   0  0  0  0  0  0  0  0  0  0  0  0
   39.0960   69.3770   57.7260 H   0  0  0  0  0  0  0  0  0  0  0  0
  1  7  1  0  0  0  0
  2  1  2  0  0  0  0
  2  3  1  0  0  0  0
  3  4  1  0  0  0  0
  3  5  2  0  0  0  0
  5  6  1  0  0  0  0
  7 19  1  0  0  0  0
  7  6  2  0  0  0  0
  8 14  1  0  0  0  0
  9  8  1  0  0  0  0
  9  2  1  0  0  0  0
 10  9  2  0  0  0  0
 11 10  1  0  0  0  0
 11 12  2  0  0  0  0
 12 13  1  0  0  0  0
 13  8  2  0  0  0  0
 15 10  1  0  0  0  0
 16 12  1  0  0  0  0
 17  1  1  0  0  0  0
 18 17  1  0  0  0  0
 20 19  1  0  0  0  0
M  END
>  <minimizedAffinity>
-4.50511217

$$$$

 OpenBabel03212520103D

 20 21  0  0  0  0  0  0  0  0999 V2000
   39.1340   74.5460   59.1140 C   0  0  0  0  0  0  0  0  0  0  0  0
   39.7420   73.3390   59.4000 C   0  0  0  0  0  0  0  0  0  0  0  0
   39.3720   72.2840   58.5730 C   0  0  0  0  0  0  0  0  0  0  0  0
   39.7710   71.2710   58.6790 H   0  0  0  0  0  0  0  0  0  0  0  0
   38.4650   72.4550   57.5510 C   0  0  0  0  0  3  0  0  0  0  0  0
   37.8800   73.6800   57.2990 C   0  0  0  0  0  3  0  0  0  0  0  0
   38.2230   74.7390   58.0960 C   0  0  0  0  0  0  0  0  0  0  0  0
   42.0660   73.1910   60.2220 C   0  0  0  0  0  0  0  0  0  0  0  0
   40.6870   73.0640   60.4290 C   0  0  0  0  0  0  0  0  0  0  0  0
   40.2370   72.6510   61.6930 C   0  0  0  0  0  0  0  0  0  0  0  0
   41.1780   72.4000   62.6410 N   0  0  0  0  0  0  0  0  0  0  0  0
   42.4980   72.5300   62.4180 C   0  0  0  0  0  0  0  0  0  0  0  0
   42.9520   72.9270   61.2080 N   0  0  0  0  0  0  0  0  0  0  0  0
   42.4300   73.5130   59.2390 H   0  0  0  0  0  0  0  0  0  0  0  0
   39.1800   72.5450   61.8770 H   0  0  0  0  0  0  0  0  0  0  0  0
   43.1330   72.2970   63.2650 H   0  0  0  0  0  0  0  0  0  0  0  0
   39.4970   75.6170   59.9400 O   0  0  0  0  0  0  0  0  0  0  0  0
   40.0170   76.3700   59.4640 H   0  0  0  0  0  0  0  0  0  0  0  0
   37.6460   75.9740   57.8580 O   0  0  0  0  0  0  0  0  0  0  0  0
   37.6590   76.7590   58.4820 H   0  0  0  0  0  0  0  0  0  0  0  0
  1  2  1  0  0  0  0
  1 17  1  0  0  0  0
  2  9  1  0  0  0  0
  3  4  1  0  0  0  0
  3  2  2  0  0  0  0
  5  3  1  0  0  0  0
  6  5  2  0  0  0  0
  6  7  1  0  0  0  0
  7  1  2  0  0  0  0
  8  9  2  0  0  0  0
  8 13  1  0  0  0  0
  9 10  1  0  0  0  0
 10 15  1  0  0  0  0
 10 11  2  0  0  0  0
 12 11  1  0  0  0  0
 12 16  1  0  0  0  0
 13 12  2  0  0  0  0
 14  8  1  0  0  0  0
 18 17  1  0  0  0  0
 19  7  1  0  0  0  0
 19 20  1  0  0  0  0
M  END
>  <minimizedAffinity>
-4.49277258

$$$$

 OpenBabel03212520103D

 20 21  0  0  0  0  0  0  0  0999 V2000
   40.3920   74.4380   59.0260 C   0  0  0  0  0  0  0  0  0  0  0  0
   39.0310   74.6690   58.9850 C   0  0  0  0  0  0  0  0  0  0  0  0
   38.3430   74.3310   60.1460 C   0  0  0  0  0  0  0  0  0  0  0  0
   37.2620   74.4580   60.2610 H   0  0  0  0  0  0  0  0  0  0  0  0
   38.9940   73.8080   61.2420 C   0  0  0  0  0  3  0  0  0  0  0  0
   40.3570   73.5940   61.2400 C   0  0  0  0  0  3  0  0  0  0  0  0
   41.0640   73.9160   60.1120 C   0  0  0  0  0  0  0  0  0  0  0  0
   38.2880   76.5660   57.5910 C   0  0  0  0  0  0  0  0  0  0  0  0
   38.2700   75.2020   57.9070 C   0  0  0  0  0  0  0  0  0  0  0  0
   37.4750   74.3470   57.1270 C   0  0  0  0  0  0  0  0  0  0  0  0
   36.7680   74.9050   56.1090 N   0  0  0  0  0  0  0  0  0  0  0  0
   36.8020   76.2200   55.8260 C   0  0  0  0  0  0  0  0  0  0  0  0
   37.5620   77.0600   56.5640 N   0  0  0  0  0  0  0  0  0  0  0  0
   38.9060   77.2440   58.1920 H   0  0  0  0  0  0  0  0  0  0  0  0
   37.4440   73.2930   57.3510 H   0  0  0  0  0  0  0  0  0  0  0  0
   36.1880   76.5250   54.9860 H   0  0  0  0  0  0  0  0  0  0  0  0
   41.0970   74.7740   57.8630 O   0  0  0  0  0  0  0  0  0  0  0  0
   41.7610   75.5550   57.9720 H   0  0  0  0  0  0  0  0  0  0  0  0
   42.4310   73.7070   60.0920 O   0  0  0  0  0  0  0  0  0  0  0  0
   43.0150   73.7110   59.2770 H   0  0  0  0  0  0  0  0  0  0  0  0
  1  7  1  0  0  0  0
  2  1  2  0  0  0  0
  2  3  1  0  0  0  0
  3  4  1  0  0  0  0
  3  5  2  0  0  0  0
  6  5  1  0  0  0  0
  7  6  2  0  0  0  0
  8  9  1  0  0  0  0
  8 14  1  0  0  0  0
  9  2  1  0  0  0  0
 10 15  1  0  0  0  0
 10  9  2  0  0  0  0
 11 10  1  0  0  0  0
 12 11  2  0  0  0  0
 12 13  1  0  0  0  0
 13  8  2  0  0  0  0
 16 12  1  0  0  0  0
 17 18  1  0  0  0  0
 17  1  1  0  0  0  0
 19  7  1  0  0  0  0
 20 19  1  0  0  0  0
M  END
>  <minimizedAffinity>
-4.48358154

$$$$
