
 OpenBabel03212520443D

 20 21  0  0  0  0  0  0  0  0999 V2000
   41.9900   80.5060   61.6410 C   0  0  0  0  0  0  0  0  0  0  0  0
   40.7460   80.6260   61.0470 C   0  0  0  0  0  0  0  0  0  0  0  0
   40.2300   79.4750   60.5390 C   0  0  0  0  0  0  0  0  0  0  0  0
   39.2600   79.5190   60.0640 H   0  0  0  0  0  0  0  0  0  0  0  0
   40.8920   78.2630   60.6060 C   0  0  0  0  0  3  0  0  0  0  0  0
   42.1380   78.1880   61.2110 C   0  0  0  0  0  3  0  0  0  0  0  0
   42.7100   79.3340   61.7460 C   0  0  0  0  0  0  0  0  0  0  0  0
   40.1180   81.9420   61.0200 C   0  0  0  0  0  0  0  0  0  0  0  0
   40.1950   82.7360   59.8680 C   0  0  0  0  0  0  0  0  0  0  0  0
   39.6060   83.9970   59.8150 C   0  0  0  0  0  0  0  0  0  0  0  0
   38.9590   84.4010   60.9360 N   0  0  0  0  0  0  0  0  0  0  0  0
   38.8890   83.6330   62.0360 C   0  0  0  0  0  0  0  0  0  0  0  0
   39.4590   82.4250   62.0770 N   0  0  0  0  0  0  0  0  0  0  0  0
   40.6980   82.4300   58.9870 H   0  0  0  0  0  0  0  0  0  0  0  0
   39.6750   84.6000   58.9150 H   0  0  0  0  0  0  0  0  0  0  0  0
   38.3570   84.0390   62.8700 H   0  0  0  0  0  0  0  0  0  0  0  0
   42.6070   81.6290   62.1930 O   0  0  0  0  0  0  0  0  0  0  0  0
   43.0290   82.3110   61.5860 H   0  0  0  0  0  0  0  0  0  0  0  0
   43.9470   79.2580   62.3470 O   0  0  0  0  0  0  0  0  0  0  0  0
   44.4030   80.1510   62.5560 H   0  0  0  0  0  0  0  0  0  0  0  0
  1  7  1  0  0  0  0
  1 17  1  0  0  0  0
  2  1  2  0  0  0  0
  3  5  2  0  0  0  0
  3  2  1  0  0  0  0
  4  3  1  0  0  0  0
  5  6  1  0  0  0  0
  6  7  2  0  0  0  0
  7 19  1  0  0  0  0
  8  2  1  0  0  0  0
  8 13  1  0  0  0  0
  9  8  2  0  0  0  0
 10  9  1  0  0  0  0
 10 11  2  0  0  0  0
 11 12  1  0  0  0  0
 12 13  2  0  0  0  0
 12 16  1  0  0  0  0
 14  9  1  0  0  0  0
 15 10  1  0  0  0  0
 18 17  1  0  0  0  0
 19 20  1  0  0  0  0
M  END
>  <minimizedAffinity>
-4.76423311

>  <minimizedRMSD>
0.882036567

$$$$
