
 OpenBabel03212520453D

 20 21  0  0  0  0  0  0  0  0999 V2000
   42.0150   80.4790   61.6780 C   0  0  0  0  0  0  0  0  0  0  0  0
   40.7530   80.5820   61.1190 C   0  0  0  0  0  0  0  0  0  0  0  0
   40.2190   79.4160   60.6670 C   0  0  0  0  0  0  0  0  0  0  0  0
   39.2350   79.4480   60.2220 H   0  0  0  0  0  0  0  0  0  0  0  0
   40.8800   78.2050   60.7530 C   0  0  0  0  0  3  0  0  0  0  0  0
   42.1450   78.1460   61.3220 C   0  0  0  0  0  3  0  0  0  0  0  0
   42.7360   79.3080   61.8000 C   0  0  0  0  0  0  0  0  0  0  0  0
   40.1270   81.8990   61.0670 C   0  0  0  0  0  0  0  0  0  0  0  0
   40.2090   82.6720   59.9020 C   0  0  0  0  0  0  0  0  0  0  0  0
   39.6220   83.9330   59.8250 C   0  0  0  0  0  0  0  0  0  0  0  0
   38.9730   84.3580   60.9370 N   0  0  0  0  0  0  0  0  0  0  0  0
   38.9000   83.6100   62.0500 C   0  0  0  0  0  0  0  0  0  0  0  0
   39.4670   82.4010   62.1140 N   0  0  0  0  0  0  0  0  0  0  0  0
   40.7130   82.3490   59.0270 H   0  0  0  0  0  0  0  0  0  0  0  0
   39.6940   84.5200   58.9140 H   0  0  0  0  0  0  0  0  0  0  0  0
   38.3660   84.0310   62.8750 H   0  0  0  0  0  0  0  0  0  0  0  0
   42.6520   81.6170   62.1710 O   0  0  0  0  0  0  0  0  0  0  0  0
   43.0560   82.2780   61.5280 H   0  0  0  0  0  0  0  0  0  0  0  0
   43.9920   79.2500   62.3630 O   0  0  0  0  0  0  0  0  0  0  0  0
   44.4550   80.1480   62.5270 H   0  0  0  0  0  0  0  0  0  0  0  0
  1  7  1  0  0  0  0
  1 17  1  0  0  0  0
  2  1  2  0  0  0  0
  3  5  2  0  0  0  0
  3  2  1  0  0  0  0
  4  3  1  0  0  0  0
  5  6  1  0  0  0  0
  6  7  2  0  0  0  0
  7 19  1  0  0  0  0
  8  2  1  0  0  0  0
  8 13  1  0  0  0  0
  9  8  2  0  0  0  0
 10  9  1  0  0  0  0
 10 11  2  0  0  0  0
 11 12  1  0  0  0  0
 12 13  2  0  0  0  0
 12 16  1  0  0  0  0
 14  9  1  0  0  0  0
 15 10  1  0  0  0  0
 18 17  1  0  0  0  0
 19 20  1  0  0  0  0
M  END
>  <minimizedAffinity>
-4.76552916

>  <minimizedRMSD>
1.65310729

$$$$
