
 OpenBabel03212520513D

 37 40  0  0  1  0  0  0  0  0999 V2000
   41.6750   83.8560   61.4060 C   0  0  0  0  0  0  0  0  0  0  0  0
   41.1200   84.2240   62.5890 C   0  0  0  0  0  0  0  0  0  0  0  0
   40.6920   83.2740   63.5180 C   0  0  0  0  0  0  0  0  0  0  0  0
   40.8260   81.9610   63.2490 N   0  0  0  0  0  0  0  0  0  0  0  0
   41.3800   81.6110   62.0650 C   0  0  0  0  0  0  0  0  0  0  0  0
   41.7960   82.5230   61.1630 N   0  0  0  0  0  0  0  0  0  0  0  0
   41.0020   85.2690   62.8310 H   0  0  0  0  0  0  0  0  0  0  0  0
   40.2460   83.5310   64.4730 H   0  0  0  0  0  0  0  0  0  0  0  0
   43.6170   86.4510   59.7030 C   0  0  0  0  0  0  0  0  0  0  0  0
   42.9260   86.6020   58.5100 C   0  0  0  0  0  0  0  0  0  0  0  0
   41.7890   85.8210   58.2720 C   0  0  0  0  0  0  0  0  0  0  0  0
   41.4350   84.9460   59.2600 N   0  0  0  0  0  0  0  0  0  0  0  0
   42.1240   84.8200   60.4100 C   0  0  0  0  0  0  0  0  0  0  0  0
   43.2150   85.5630   60.6500 N   0  0  0  0  0  0  0  0  0  0  0  0
   44.7440   87.2880   59.7990 N   0  0  0  0  0  0  0  0  0  0  0  0
   43.1910   87.2850   57.7220 H   0  0  0  0  0  0  0  0  0  0  0  0
   41.1950   85.8730   57.3740 H   0  0  0  0  0  0  0  0  0  0  0  0
   45.6950   86.8950   59.6040 H   0  0  0  0  0  0  0  0  0  0  0  0
   44.3930   88.2530   60.0760 H   0  0  0  0  0  0  0  0  0  0  0  0
   41.4870   80.1370   61.8160 C   0  0  1  0  0  0  0  0  0  0  0  0
   40.7970   79.1750   62.6450 C   0  0  0  0  0  0  0  0  0  0  0  0
   40.1310   79.5440   61.3640 C   0  0  2  0  0  0  0  0  0  0  0  0
   42.3570   79.8160   61.2070 H   0  0  0  0  0  0  0  0  0  0  0  0
   40.2680   79.5300   63.5700 H   0  0  0  0  0  0  0  0  0  0  0  0
   41.2010   78.1540   62.7760 H   0  0  0  0  0  0  0  0  0  0  0  0
   39.2380   80.1700   61.4000 H   0  0  0  0  0  0  0  0  0  0  0  0
   40.1380   79.0680   58.8910 C   0  0  0  0  0  0  0  0  0  0  0  0
   40.2110   78.6290   60.1970 C   0  0  0  0  0  0  0  0  0  0  0  0
   40.3660   77.2610   60.4050 C   0  0  0  0  0  0  0  0  0  0  0  0
   40.4330   76.8170   61.3900 H   0  0  0  0  0  0  0  0  0  0  0  0
   40.4430   76.3840   59.3400 C   0  0  0  0  0  3  0  0  0  0  0  0
   40.3700   76.8180   58.0330 C   0  0  0  0  0  3  0  0  0  0  0  0
   40.2180   78.1670   57.8450 C   0  0  0  0  0  0  0  0  0  0  0  0
   39.9840   80.4280   58.6660 O   0  0  0  0  0  0  0  0  0  0  0  0
   40.8430   80.9500   58.4500 H   0  0  0  0  0  0  0  0  0  0  0  0
   40.1380   78.6660   56.5360 O   0  0  0  0  0  0  0  0  0  0  0  0
   40.9540   78.7940   55.9480 H   0  0  0  0  0  0  0  0  0  0  0  0
  1  2  1  0  0  0  0
  2  7  1  0  0  0  0
  2  3  2  0  0  0  0
  3  8  1  0  0  0  0
  4  3  1  0  0  0  0
  5  4  2  0  0  0  0
  6  1  2  0  0  0  0
  6  5  1  0  0  0  0
  9 15  1  0  0  0  0
  9 14  1  0  0  0  0
 10  9  2  0  0  0  0
 11 10  1  0  0  0  0
 11 12  2  0  0  0  0
 12 13  1  0  0  0  0
 13 14  2  0  0  0  0
 13  1  1  0  0  0  0
 15 19  1  0  0  0  0
 16 10  1  0  0  0  0
 17 11  1  0  0  0  0
 18 15  1  0  0  0  0
 20 23  1  6  0  0  0
 20  5  1  0  0  0  0
 20 21  1  0  0  0  0
 21 25  1  0  0  0  0
 21 24  1  0  0  0  0
 22 26  1  1  0  0  0
 22 20  1  0  0  0  0
 22 21  1  0  0  0  0
 27 28  1  0  0  0  0
 28 29  2  0  0  0  0
 28 22  1  0  0  0  0
 29 30  1  0  0  0  0
 31 29  1  0  0  0  0
 32 31  2  0  0  0  0
 33 32  1  0  0  0  0
 33 27  2  0  0  0  0
 34 27  1  0  0  0  0
 35 34  1  0  0  0  0
 36 33  1  0  0  0  0
 37 36  1  0  0  0  0
M  END
>  <minimizedAffinity>
-5.74236727

>  <minimizedRMSD>
0.922255516

$$$$
