
 OpenBabel03212521003D

 44 48  0  0  1  0  0  0  0  0999 V2000
   39.7620   77.3510   59.2170 C   0  0  0  0  0  0  0  0  0  0  0  0
   40.4480   76.2040   58.9470 C   0  0  0  0  0  0  0  0  0  0  0  0
   39.8910   75.4900   57.8710 C   0  0  0  0  0  0  0  0  0  0  0  0
   38.8050   75.8870   57.1810 N   0  0  0  0  0  0  0  0  0  0  0  0
   38.1950   77.0550   57.5390 C   0  0  0  0  0  0  0  0  0  0  0  0
   38.6850   77.7850   58.5650 N   0  0  0  0  0  0  0  0  0  0  0  0
   41.3230   75.8370   59.4640 H   0  0  0  0  0  0  0  0  0  0  0  0
   40.3400   74.5470   57.5420 H   0  0  0  0  0  0  0  0  0  0  0  0
   40.9840   80.3060   61.7460 C   0  0  0  0  0  0  0  0  0  0  0  0
   40.9960   79.0700   62.3540 C   0  0  0  0  0  0  0  0  0  0  0  0
   40.6060   78.0130   61.6070 C   0  0  0  0  0  0  0  0  0  0  0  0
   40.2220   78.1920   60.2960 C   0  0  0  0  0  0  0  0  0  0  0  0
   40.4090   80.0110   60.0500 S   0  0  0  0  0  0  0  0  0  0  0  0
   41.2990   78.9240   63.3870 H   0  0  0  0  0  0  0  0  0  0  0  0
   40.5460   76.9710   61.8950 H   0  0  0  0  0  0  0  0  0  0  0  0
   43.0540   83.1190   62.8760 C   0  0  0  0  0  0  0  0  0  0  0  0
   42.1460   83.8770   63.6630 C   0  0  0  0  0  0  0  0  0  0  0  0
   40.8350   83.4220   63.8010 C   0  0  0  0  0  0  0  0  0  0  0  0
   40.4900   82.2770   63.1750 N   0  0  0  0  0  0  0  0  0  0  0  0
   41.3780   81.5690   62.4260 C   0  0  0  0  0  0  0  0  0  0  0  0
   42.6190   81.9980   62.2960 N   0  0  0  0  0  0  0  0  0  0  0  0
   44.0650   83.4980   62.7880 H   0  0  0  0  0  0  0  0  0  0  0  0
   42.4760   84.7810   64.1380 H   0  0  0  0  0  0  0  0  0  0  0  0
   40.1050   83.9740   64.3970 H   0  0  0  0  0  0  0  0  0  0  0  0
   37.0360   77.4670   56.7820 C   0  0  0  0  0  0  0  0  0  0  0  0
   35.9280   77.0350   57.1500 O   0  0  0  0  0  0  0  0  0  0  0  0
   37.1240   78.3750   55.5790 C   0  0  1  0  0  0  0  0  0  0  0  0
   37.2640   79.8270   55.9530 C   0  0  0  0  0  0  0  0  0  0  0  0
   38.3540   79.0860   55.3180 C   0  0  2  0  0  0  0  0  0  0  0  0
   36.1990   78.2750   54.9690 H   0  0  0  0  0  0  0  0  0  0  0  0
   37.3690   80.1080   57.0360 H   0  0  0  0  0  0  0  0  0  0  0  0
   36.6900   80.5910   55.4010 H   0  0  0  0  0  0  0  0  0  0  0  0
   39.2360   78.8330   55.9720 H   0  0  0  0  0  0  0  0  0  0  0  0
   40.1300   79.8480   53.8840 C   0  0  0  0  0  0  0  0  0  0  0  0
   38.7780   79.5530   53.9880 C   0  0  0  0  0  0  0  0  0  0  0  0
   37.9630   79.7110   52.8870 C   0  0  0  0  0  0  0  0  0  0  0  0
   36.9150   79.4710   53.0060 H   0  0  0  0  0  0  0  0  0  0  0  0
   38.5340   80.1620   51.7150 C   0  0  0  0  0  3  0  0  0  0  0  0
   39.8710   80.4640   51.5810 C   0  0  0  0  0  3  0  0  0  0  0  0
   40.6750   80.2980   52.6980 C   0  0  0  0  0  0  0  0  0  0  0  0
   41.0230   79.7120   54.9630 O   0  0  0  0  0  0  0  0  0  0  0  0
   41.4370   78.7690   55.0170 H   0  0  0  0  0  0  0  0  0  0  0  0
   42.0270   80.5920   52.6060 O   0  0  0  0  0  0  0  0  0  0  0  0
   42.4830   80.3120   51.7380 H   0  0  0  0  0  0  0  0  0  0  0  0
  1 12  1  0  0  0  0
  2  1  1  0  0  0  0
  2  7  1  0  0  0  0
  3  2  2  0  0  0  0
  4  5  2  0  0  0  0
  4  3  1  0  0  0  0
  5  6  1  0  0  0  0
  6  1  2  0  0  0  0
  8  3  1  0  0  0  0
  9 10  2  0  0  0  0
  9 20  1  0  0  0  0
 10 14  1  0  0  0  0
 11 15  1  0  0  0  0
 11 10  1  0  0  0  0
 12 11  2  0  0  0  0
 13 12  1  0  0  0  0
 13  9  1  0  0  0  0
 16 17  1  0  0  0  0
 17 18  2  0  0  0  0
 17 23  1  0  0  0  0
 18 24  1  0  0  0  0
 19 18  1  0  0  0  0
 20 19  2  0  0  0  0
 21 20  1  0  0  0  0
 21 16  2  0  0  0  0
 22 16  1  0  0  0  0
 25 26  2  0  0  0  0
 25  5  1  0  0  0  0
 27 30  1  6  0  0  0
 27 28  1  0  0  0  0
 27 25  1  0  0  0  0
 28 31  1  0  0  0  0
 29 27  1  0  0  0  0
 29 28  1  0  0  0  0
 29 33  1  1  0  0  0
 32 28  1  0  0  0  0
 34 35  1  0  0  0  0
 34 41  1  0  0  0  0
 35 29  1  0  0  0  0
 36 37  1  0  0  0  0
 36 35  2  0  0  0  0
 38 36  1  0  0  0  0
 39 38  2  0  0  0  0
 39 40  1  0  0  0  0
 40 34  2  0  0  0  0
 41 42  1  0  0  0  0
 43 40  1  0  0  0  0
 44 43  1  0  0  0  0
M  END
>  <minimizedAffinity>
-6.53756905

>  <minimizedRMSD>
0.241392121

$$$$
