
 OpenBabel03212520303D

 30 32  0  0  0  0  0  0  0  0999 V2000
   41.0870   82.9950   60.2760 C   0  0  0  0  0  0  0  0  0  0  0  0
   41.9260   81.8990   60.4900 C   0  0  0  0  0  0  0  0  0  0  0  0
   43.3010   82.1510   60.5050 C   0  0  0  0  0  0  0  0  0  0  0  0
   43.7500   83.4160   60.3170 N   0  0  0  0  0  0  0  0  0  0  0  0
   42.9020   84.4460   60.1140 C   0  0  0  0  0  0  0  0  0  0  0  0
   41.5720   84.2250   60.0960 N   0  0  0  0  0  0  0  0  0  0  0  0
   40.0120   82.8410   60.2570 H   0  0  0  0  0  0  0  0  0  0  0  0
   43.9850   81.3340   60.6670 H   0  0  0  0  0  0  0  0  0  0  0  0
   41.3830   80.6020   60.6790 N   0  0  0  0  0  0  0  0  0  0  0  0
   41.2420   80.2580   61.9540 C   0  0  0  0  0  0  0  0  0  0  0  0
   40.7140   78.9960   62.2420 C   0  0  0  0  0  0  0  0  0  0  0  0
   40.3580   78.1490   61.1860 C   0  0  0  0  0  0  0  0  0  0  0  0
   39.8800   77.0060   61.3710 O   0  0  0  0  0  0  0  0  0  0  0  0
   40.5350   78.5750   59.9150 N   0  0  0  0  0  0  0  0  0  0  0  0
   41.0520   79.8100   59.6290 C   0  0  0  0  0  0  0  0  0  0  0  0
   41.2100   80.1940   58.4600 O   0  0  0  0  0  0  0  0  0  0  0  0
   41.5000   80.8740   62.7960 H   0  0  0  0  0  0  0  0  0  0  0  0
   40.5710   78.6520   63.2550 H   0  0  0  0  0  0  0  0  0  0  0  0
   40.2630   77.9290   59.1400 H   0  0  0  0  0  0  0  0  0  0  0  0
   43.7960   86.5460   60.9880 C   0  0  0  0  0  0  0  0  0  0  0  0
   43.3440   85.8170   59.9090 C   0  0  0  0  0  0  0  0  0  0  0  0
   43.3330   86.4360   58.6680 C   0  0  0  0  0  0  0  0  0  0  0  0
   42.9830   85.8850   57.8080 H   0  0  0  0  0  0  0  0  0  0  0  0
   43.7600   87.7400   58.5170 C   0  0  0  0  0  0  0  0  0  0  0  0
   44.2150   88.4780   59.5930 C   0  0  0  0  0  0  0  0  0  0  0  0
   44.2190   87.8440   60.8180 C   0  0  0  0  0  0  0  0  0  0  0  0
   43.8610   86.0500   62.2830 O   0  0  0  0  0  0  0  0  0  0  0  0
   44.6440   85.4730   62.5850 H   0  0  0  0  0  0  0  0  0  0  0  0
   44.6810   88.6050   61.8850 O   0  0  0  0  0  0  0  0  0  0  0  0
   45.6410   88.9790   61.8330 H   0  0  0  0  0  0  0  0  0  0  0  0
  1  2  1  0  0  0  0
  2  3  2  0  0  0  0
  2  9  1  0  0  0  0
  3  8  1  0  0  0  0
  4  3  1  0  0  0  0
  5  4  2  0  0  0  0
  6  5  1  0  0  0  0
  6  1  2  0  0  0  0
  7  1  1  0  0  0  0
  9 10  1  0  0  0  0
 10 11  2  0  0  0  0
 10 17  1  0  0  0  0
 11 18  1  0  0  0  0
 12 13  2  0  0  0  0
 12 11  1  0  0  0  0
 14 12  1  0  0  0  0
 15 14  1  0  0  0  0
 15  9  1  0  0  0  0
 16 15  2  0  0  0  0
 19 14  1  0  0  0  0
 20 27  1  0  0  0  0
 21  5  1  0  0  0  0
 21 20  2  0  0  0  0
 22 21  1  0  0  0  0
 23 22  1  0  0  0  0
 24 22  2  0  0  0  0
 24 25  1  0  0  0  0
 25 26  2  0  0  0  0
 26 20  1  0  0  0  0
 26 29  1  0  0  0  0
 27 28  1  0  0  0  0
 30 29  1  0  0  0  0
M  END
>  <minimizedAffinity>
-5.45518732

>  <minimizedRMSD>
5.99325895

$$$$
