
 OpenBabel03212520513D

 37 40  0  0  1  0  0  0  0  0999 V2000
   41.6740   83.8550   61.4050 C   0  0  0  0  0  0  0  0  0  0  0  0
   41.1200   84.2230   62.5890 C   0  0  0  0  0  0  0  0  0  0  0  0
   40.6920   83.2730   63.5180 C   0  0  0  0  0  0  0  0  0  0  0  0
   40.8260   81.9600   63.2490 N   0  0  0  0  0  0  0  0  0  0  0  0
   41.3790   81.6100   62.0650 C   0  0  0  0  0  0  0  0  0  0  0  0
   41.7950   82.5220   61.1630 N   0  0  0  0  0  0  0  0  0  0  0  0
   41.0020   85.2680   62.8310 H   0  0  0  0  0  0  0  0  0  0  0  0
   40.2460   83.5300   64.4730 H   0  0  0  0  0  0  0  0  0  0  0  0
   43.6160   86.4500   59.7030 C   0  0  0  0  0  0  0  0  0  0  0  0
   42.9250   86.6010   58.5100 C   0  0  0  0  0  0  0  0  0  0  0  0
   41.7880   85.8190   58.2720 C   0  0  0  0  0  0  0  0  0  0  0  0
   41.4340   84.9450   59.2600 N   0  0  0  0  0  0  0  0  0  0  0  0
   42.1240   84.8190   60.4090 C   0  0  0  0  0  0  0  0  0  0  0  0
   43.2150   85.5620   60.6490 N   0  0  0  0  0  0  0  0  0  0  0  0
   44.7430   87.2870   59.7980 N   0  0  0  0  0  0  0  0  0  0  0  0
   43.1900   87.2840   57.7220 H   0  0  0  0  0  0  0  0  0  0  0  0
   41.1940   85.8720   57.3740 H   0  0  0  0  0  0  0  0  0  0  0  0
   45.6940   86.8940   59.6040 H   0  0  0  0  0  0  0  0  0  0  0  0
   44.3920   88.2520   60.0750 H   0  0  0  0  0  0  0  0  0  0  0  0
   41.4870   80.1360   61.8160 C   0  0  1  0  0  0  0  0  0  0  0  0
   40.7970   79.1730   62.6450 C   0  0  0  0  0  0  0  0  0  0  0  0
   40.1310   79.5430   61.3640 C   0  0  2  0  0  0  0  0  0  0  0  0
   42.3570   79.8150   61.2070 H   0  0  0  0  0  0  0  0  0  0  0  0
   40.2670   79.5290   63.5690 H   0  0  0  0  0  0  0  0  0  0  0  0
   41.2000   78.1530   62.7760 H   0  0  0  0  0  0  0  0  0  0  0  0
   39.2380   80.1690   61.3990 H   0  0  0  0  0  0  0  0  0  0  0  0
   40.1400   79.0660   58.8910 C   0  0  0  0  0  0  0  0  0  0  0  0
   40.2110   78.6280   60.1960 C   0  0  0  0  0  0  0  0  0  0  0  0
   40.3660   77.2590   60.4050 C   0  0  0  0  0  0  0  0  0  0  0  0
   40.4320   76.8160   61.3900 H   0  0  0  0  0  0  0  0  0  0  0  0
   40.4430   76.3820   59.3410 C   0  0  0  0  0  3  0  0  0  0  0  0
   40.3710   76.8170   58.0330 C   0  0  0  0  0  3  0  0  0  0  0  0
   40.2200   78.1640   57.8440 C   0  0  0  0  0  0  0  0  0  0  0  0
   39.9860   80.4270   58.6640 O   0  0  0  0  0  0  0  0  0  0  0  0
   40.8460   80.9480   58.4480 H   0  0  0  0  0  0  0  0  0  0  0  0
   40.1420   78.6640   56.5350 O   0  0  0  0  0  0  0  0  0  0  0  0
   40.9580   78.7910   55.9480 H   0  0  0  0  0  0  0  0  0  0  0  0
  1  2  1  0  0  0  0
  2  7  1  0  0  0  0
  2  3  2  0  0  0  0
  3  8  1  0  0  0  0
  4  3  1  0  0  0  0
  5  4  2  0  0  0  0
  6  1  2  0  0  0  0
  6  5  1  0  0  0  0
  9 15  1  0  0  0  0
  9 14  1  0  0  0  0
 10  9  2  0  0  0  0
 11 10  1  0  0  0  0
 11 12  2  0  0  0  0
 12 13  1  0  0  0  0
 13 14  2  0  0  0  0
 13  1  1  0  0  0  0
 15 19  1  0  0  0  0
 16 10  1  0  0  0  0
 17 11  1  0  0  0  0
 18 15  1  0  0  0  0
 20 23  1  6  0  0  0
 20  5  1  0  0  0  0
 20 21  1  0  0  0  0
 21 25  1  0  0  0  0
 21 24  1  0  0  0  0
 22 26  1  1  0  0  0
 22 20  1  0  0  0  0
 22 21  1  0  0  0  0
 27 28  1  0  0  0  0
 28 29  2  0  0  0  0
 28 22  1  0  0  0  0
 29 30  1  0  0  0  0
 31 29  1  0  0  0  0
 32 31  2  0  0  0  0
 33 32  1  0  0  0  0
 33 27  2  0  0  0  0
 34 27  1  0  0  0  0
 35 34  1  0  0  0  0
 36 33  1  0  0  0  0
 37 36  1  0  0  0  0
M  END
>  <minimizedAffinity>
-5.74280596

>  <minimizedRMSD>
0.596144319

$$$$
