
 OpenBabel03212520053D

 43 47  0  0  0  0  0  0  0  0999 V2000
   40.2320   81.2440   57.2720 C   0  0  0  0  0  0  0  0  0  0  0  0
   41.4380   81.4020   56.5680 C   0  0  0  0  0  0  0  0  0  0  0  0
   42.4530   82.0900   57.1970 C   0  0  0  0  0  0  0  0  0  0  0  0
   42.2670   82.5800   58.4520 N   0  0  0  0  0  0  0  0  0  0  0  0
   41.0890   82.4060   59.1080 C   0  0  0  0  0  0  0  0  0  0  0  0
   40.0620   81.7360   58.5170 N   0  0  0  0  0  0  0  0  0  0  0  0
   39.3530   80.7330   56.9090 H   0  0  0  0  0  0  0  0  0  0  0  0
   41.3610   80.9050   55.6320 H   0  0  0  0  0  0  0  0  0  0  0  0
   39.6200   82.9660   60.9780 C   0  0  0  0  0  0  0  0  0  0  0  0
   40.9170   82.9030   60.4640 C   0  0  0  0  0  0  0  0  0  0  0  0
   42.0250   83.2840   61.2260 C   0  0  0  0  0  0  0  0  0  0  0  0
   41.8680   83.7380   62.5220 C   0  0  0  0  0  0  0  0  0  0  0  0
   42.6570   84.1730   63.5220 N   0  0  0  0  0  0  0  0  0  0  0  0
   41.9220   84.4930   64.6080 C   0  0  0  0  0  0  0  0  0  0  0  0
   40.6590   84.2430   64.2400 N   0  0  0  0  0  0  0  0  0  0  0  0
   40.5890   83.7820   62.9800 C   0  0  0  0  0  0  0  0  0  0  0  0
   39.4370   83.4230   62.2890 C   0  0  0  0  0  0  0  0  0  0  0  0
   38.7530   82.6800   60.4160 H   0  0  0  0  0  0  0  0  0  0  0  0
   43.0360   83.2350   60.8230 H   0  0  0  0  0  0  0  0  0  0  0  0
   43.7010   84.2450   63.4500 H   0  0  0  0  0  0  0  0  0  0  0  0
   42.2680   84.8690   65.5620 H   0  0  0  0  0  0  0  0  0  0  0  0
   38.4720   83.4910   62.7320 H   0  0  0  0  0  0  0  0  0  0  0  0
   42.4660   84.1680   55.0630 Cl  0  0  0  0  0  0  0  0  0  0  0  0
   43.8710   83.2190   55.5260 C   0  0  0  0  0  0  0  0  0  0  0  0
   43.7190   82.3050   56.5350 C   0  0  0  0  0  0  0  0  0  0  0  0
   44.8860   81.6140   56.8540 C   0  0  0  0  0  0  0  0  0  0  0  0
   46.0980   81.8100   56.2300 C   0  0  0  0  0  0  0  0  0  0  0  0
   46.1810   82.7550   55.2100 C   0  0  0  0  0  0  0  0  0  0  0  0
   47.6960   83.0320   54.3940 Cl  0  0  0  0  0  0  0  0  0  0  0  0
   45.0530   83.4630   54.8620 C   0  0  0  0  0  0  0  0  0  0  0  0
   44.8560   80.8730   57.6390 H   0  0  0  0  0  0  0  0  0  0  0  0
   46.9590   81.2370   56.5300 H   0  0  0  0  0  0  0  0  0  0  0  0
   45.4110   85.8020   53.8780 C   0  0  0  0  0  0  0  0  0  0  0  0
   45.1210   84.4570   53.7970 C   0  0  0  0  0  0  0  0  0  0  0  0
   44.8370   83.8680   52.5590 C   0  0  0  0  0  0  0  0  0  0  0  0
   44.5980   82.8320   52.3700 H   0  0  0  0  0  0  0  0  0  0  0  0
   44.8500   84.6560   51.4030 C   0  0  0  0  0  3  0  0  0  0  0  0
   45.1400   85.9960   51.4950 C   0  0  0  0  0  3  0  0  0  0  0  0
   45.4210   86.5690   52.7320 C   0  0  0  0  0  0  0  0  0  0  0  0
   45.6680   86.2430   55.1520 O   0  0  0  0  0  0  0  0  0  0  0  0
   45.4750   87.2180   55.3490 H   0  0  0  0  0  0  0  0  0  0  0  0
   45.7210   87.9180   52.8820 O   0  0  0  0  0  0  0  0  0  0  0  0
   46.2860   88.3500   52.1420 H   0  0  0  0  0  0  0  0  0  0  0  0
  1  6  1  0  0  0  0
  2  3  1  0  0  0  0
  2  1  2  0  0  0  0
  3  4  2  0  0  0  0
  4  5  1  0  0  0  0
  5 10  1  0  0  0  0
  6  5  2  0  0  0  0
  7  1  1  0  0  0  0
  8  2  1  0  0  0  0
  9 17  1  0  0  0  0
 10  9  2  0  0  0  0
 10 11  1  0  0  0  0
 11 12  2  0  0  0  0
 12 16  1  0  0  0  0
 12 13  1  0  0  0  0
 13 14  1  0  0  0  0
 14 21  1  0  0  0  0
 15 14  2  0  0  0  0
 16 15  1  0  0  0  0
 17 22  1  0  0  0  0
 17 16  2  0  0  0  0
 18  9  1  0  0  0  0
 19 11  1  0  0  0  0
 20 13  1  0  0  0  0
 23 24  1  0  0  0  0
 24 25  1  0  0  0  0
 25 26  2  0  0  0  0
 25  3  1  0  0  0  0
 26 31  1  0  0  0  0
 27 32  1  0  0  0  0
 27 26  1  0  0  0  0
 28 27  2  0  0  0  0
 29 28  1  0  0  0  0
 30 28  1  0  0  0  0
 30 24  2  0  0  0  0
 33 40  1  0  0  0  0
 34 33  1  0  0  0  0
 34 30  1  0  0  0  0
 35 34  2  0  0  0  0
 36 35  1  0  0  0  0
 37 38  2  0  0  0  0
 37 35  1  0  0  0  0
 38 39  1  0  0  0  0
 39 42  1  0  0  0  0
 39 33  2  0  0  0  0
 40 41  1  0  0  0  0
 43 42  1  0  0  0  0
M  END
>  <minimizedAffinity>
-4.94123697

>  <minimizedRMSD>
1.74883318

$$$$
