
 OpenBabel03212520443D

 20 21  0  0  0  0  0  0  0  0999 V2000
   40.4240   79.8400   59.8810 C   0  0  0  0  0  0  0  0  0  0  0  0
   40.5500   80.6260   61.0130 C   0  0  0  0  0  0  0  0  0  0  0  0
   41.1860   80.0380   62.0620 C   0  0  0  0  0  0  0  0  0  0  0  0
   41.3080   80.6140   62.9680 H   0  0  0  0  0  0  0  0  0  0  0  0
   41.6780   78.7470   62.0130 C   0  0  0  0  0  3  0  0  0  0  0  0
   41.5300   77.9930   60.8570 C   0  0  0  0  0  3  0  0  0  0  0  0
   40.8880   78.5460   59.7570 C   0  0  0  0  0  0  0  0  0  0  0  0
   40.0030   81.9770   60.9790 C   0  0  0  0  0  0  0  0  0  0  0  0
   40.2310   82.8020   59.8700 C   0  0  0  0  0  0  0  0  0  0  0  0
   39.7200   84.0960   59.8110 C   0  0  0  0  0  0  0  0  0  0  0  0
   38.9970   84.5020   60.8830 N   0  0  0  0  0  0  0  0  0  0  0  0
   38.7830   83.7050   61.9430 C   0  0  0  0  0  0  0  0  0  0  0  0
   39.2780   82.4640   61.9900 N   0  0  0  0  0  0  0  0  0  0  0  0
   40.7940   82.4940   59.0270 H   0  0  0  0  0  0  0  0  0  0  0  0
   39.9050   84.7230   58.9440 H   0  0  0  0  0  0  0  0  0  0  0  0
   38.2010   84.1150   62.7410 H   0  0  0  0  0  0  0  0  0  0  0  0
   39.7880   80.3480   58.7490 O   0  0  0  0  0  0  0  0  0  0  0  0
   38.7840   80.4230   58.7360 H   0  0  0  0  0  0  0  0  0  0  0  0
   40.7420   77.7970   58.6090 O   0  0  0  0  0  0  0  0  0  0  0  0
   40.1050   78.1760   57.9020 H   0  0  0  0  0  0  0  0  0  0  0  0
  1  2  1  0  0  0  0
  2  3  2  0  0  0  0
  3  4  1  0  0  0  0
  5  3  1  0  0  0  0
  6  5  2  0  0  0  0
  7  1  2  0  0  0  0
  7  6  1  0  0  0  0
  8  2  1  0  0  0  0
  8 13  1  0  0  0  0
  9  8  2  0  0  0  0
 10  9  1  0  0  0  0
 10 11  2  0  0  0  0
 11 12  1  0  0  0  0
 12 13  2  0  0  0  0
 12 16  1  0  0  0  0
 14  9  1  0  0  0  0
 15 10  1  0  0  0  0
 17  1  1  0  0  0  0
 18 17  1  0  0  0  0
 19  7  1  0  0  0  0
 20 19  1  0  0  0  0
M  END
>  <minimizedAffinity>
-4.68455982

>  <minimizedRMSD>
0.460113943

$$$$
