
 OpenBabel03212520053D

 43 47  0  0  0  0  0  0  0  0999 V2000
   40.5210   81.8290   57.1710 C   0  0  0  0  0  0  0  0  0  0  0  0
   41.5740   82.4100   56.4430 C   0  0  0  0  0  0  0  0  0  0  0  0
   42.3740   83.3170   57.1010 C   0  0  0  0  0  0  0  0  0  0  0  0
   42.1330   83.6170   58.4060 N   0  0  0  0  0  0  0  0  0  0  0  0
   41.1090   83.0350   59.0850 C   0  0  0  0  0  0  0  0  0  0  0  0
   40.2940   82.1360   58.4650 N   0  0  0  0  0  0  0  0  0  0  0  0
   39.8140   81.1080   56.7910 H   0  0  0  0  0  0  0  0  0  0  0  0
   41.5880   81.9960   55.4640 H   0  0  0  0  0  0  0  0  0  0  0  0
   39.6060   83.1270   61.0080 C   0  0  0  0  0  0  0  0  0  0  0  0
   40.8860   83.3360   60.4890 C   0  0  0  0  0  0  0  0  0  0  0  0
   41.9320   83.8000   61.2900 C   0  0  0  0  0  0  0  0  0  0  0  0
   41.7300   84.0690   62.6310 C   0  0  0  0  0  0  0  0  0  0  0  0
   42.4590   84.5070   63.6750 N   0  0  0  0  0  0  0  0  0  0  0  0
   41.7030   84.5750   64.7910 C   0  0  0  0  0  0  0  0  0  0  0  0
   40.4900   84.1670   64.3970 N   0  0  0  0  0  0  0  0  0  0  0  0
   40.4700   83.8510   63.0920 C   0  0  0  0  0  0  0  0  0  0  0  0
   39.3780   83.3920   62.3640 C   0  0  0  0  0  0  0  0  0  0  0  0
   38.7850   82.7710   60.4170 H   0  0  0  0  0  0  0  0  0  0  0  0
   42.9300   83.9640   60.8840 H   0  0  0  0  0  0  0  0  0  0  0  0
   43.4750   84.7560   63.6100 H   0  0  0  0  0  0  0  0  0  0  0  0
   42.0030   84.8880   65.7830 H   0  0  0  0  0  0  0  0  0  0  0  0
   38.4230   83.2510   62.8120 H   0  0  0  0  0  0  0  0  0  0  0  0
   42.4630   82.9470   54.1470 Cl  0  0  0  0  0  0  0  0  0  0  0  0
   43.6450   83.8720   55.0630 C   0  0  0  0  0  0  0  0  0  0  0  0
   43.4700   83.9660   56.4190 C   0  0  0  0  0  0  0  0  0  0  0  0
   44.4370   84.7350   57.0620 C   0  0  0  0  0  0  0  0  0  0  0  0
   45.4860   85.3570   56.4230 C   0  0  0  0  0  0  0  0  0  0  0  0
   45.6040   85.2180   55.0420 C   0  0  0  0  0  0  0  0  0  0  0  0
   46.9180   85.9870   54.1950 Cl  0  0  0  0  0  0  0  0  0  0  0  0
   44.6710   84.4680   54.3630 C   0  0  0  0  0  0  0  0  0  0  0  0
   44.3740   84.8620   58.1340 H   0  0  0  0  0  0  0  0  0  0  0  0
   46.1960   85.9360   56.9880 H   0  0  0  0  0  0  0  0  0  0  0  0
   44.2880   85.1200   51.9140 C   0  0  0  0  0  0  0  0  0  0  0  0
   44.7790   84.3120   52.9170 C   0  0  0  0  0  0  0  0  0  0  0  0
   45.4970   83.1520   52.6020 C   0  0  0  0  0  0  0  0  0  0  0  0
   45.9290   82.4450   53.2960 H   0  0  0  0  0  0  0  0  0  0  0  0
   45.7140   82.8180   51.2610 C   0  0  0  0  0  3  0  0  0  0  0  0
   45.2200   83.6320   50.2690 C   0  0  0  0  0  3  0  0  0  0  0  0
   44.5070   84.7820   50.5950 C   0  0  0  0  0  0  0  0  0  0  0  0
   43.6040   86.2210   52.3670 O   0  0  0  0  0  0  0  0  0  0  0  0
   42.8930   86.6030   51.7550 H   0  0  0  0  0  0  0  0  0  0  0  0
   43.9860   85.6380   49.6330 O   0  0  0  0  0  0  0  0  0  0  0  0
   44.5540   85.7860   48.7910 H   0  0  0  0  0  0  0  0  0  0  0  0
  1  6  1  0  0  0  0
  2  3  1  0  0  0  0
  2  1  2  0  0  0  0
  3  4  2  0  0  0  0
  4  5  1  0  0  0  0
  5 10  1  0  0  0  0
  6  5  2  0  0  0  0
  7  1  1  0  0  0  0
  8  2  1  0  0  0  0
  9 17  1  0  0  0  0
 10  9  2  0  0  0  0
 10 11  1  0  0  0  0
 11 12  2  0  0  0  0
 12 16  1  0  0  0  0
 12 13  1  0  0  0  0
 13 14  1  0  0  0  0
 14 21  1  0  0  0  0
 15 14  2  0  0  0  0
 16 15  1  0  0  0  0
 17 22  1  0  0  0  0
 17 16  2  0  0  0  0
 18  9  1  0  0  0  0
 19 11  1  0  0  0  0
 20 13  1  0  0  0  0
 23 24  1  0  0  0  0
 24 25  1  0  0  0  0
 25 26  2  0  0  0  0
 25  3  1  0  0  0  0
 26 31  1  0  0  0  0
 27 32  1  0  0  0  0
 27 26  1  0  0  0  0
 28 27  2  0  0  0  0
 29 28  1  0  0  0  0
 30 28  1  0  0  0  0
 30 24  2  0  0  0  0
 33 40  1  0  0  0  0
 33 34  1  0  0  0  0
 34 30  1  0  0  0  0
 35 34  2  0  0  0  0
 35 36  1  0  0  0  0
 37 35  1  0  0  0  0
 38 39  1  0  0  0  0
 38 37  2  0  0  0  0
 39 33  2  0  0  0  0
 41 40  1  0  0  0  0
 42 39  1  0  0  0  0
 43 42  1  0  0  0  0
M  END
>  <minimizedAffinity>
-5.48695278

>  <minimizedRMSD>
0.682349622

$$$$
