
 OpenBabel03212520593D

 44 48  0  0  1  0  0  0  0  0999 V2000
   39.7330   77.2120   59.2250 C   0  0  0  0  0  0  0  0  0  0  0  0
   40.4250   76.0640   58.9730 C   0  0  0  0  0  0  0  0  0  0  0  0
   39.8720   75.3330   57.9060 C   0  0  0  0  0  0  0  0  0  0  0  0
   38.7860   75.7160   57.2090 N   0  0  0  0  0  0  0  0  0  0  0  0
   38.1710   76.8860   57.5490 C   0  0  0  0  0  0  0  0  0  0  0  0
   38.6560   77.6330   58.5650 N   0  0  0  0  0  0  0  0  0  0  0  0
   41.3000   75.7080   59.4970 H   0  0  0  0  0  0  0  0  0  0  0  0
   40.3250   74.3870   57.5910 H   0  0  0  0  0  0  0  0  0  0  0  0
   40.9690   80.2030   61.7050 C   0  0  0  0  0  0  0  0  0  0  0  0
   40.9340   78.9840   62.3460 C   0  0  0  0  0  0  0  0  0  0  0  0
   40.5360   77.9180   61.6180 C   0  0  0  0  0  0  0  0  0  0  0  0
   40.1880   78.0700   60.2930 C   0  0  0  0  0  0  0  0  0  0  0  0
   40.4290   79.8770   60.0040 S   0  0  0  0  0  0  0  0  0  0  0  0
   41.2080   78.8590   63.3890 H   0  0  0  0  0  0  0  0  0  0  0  0
   40.4410   76.8860   61.9320 H   0  0  0  0  0  0  0  0  0  0  0  0
   43.0620   83.0320   62.7480 C   0  0  0  0  0  0  0  0  0  0  0  0
   42.1750   83.7960   63.5540 C   0  0  0  0  0  0  0  0  0  0  0  0
   40.8700   83.3380   63.7340 C   0  0  0  0  0  0  0  0  0  0  0  0
   40.5100   82.1860   63.1290 N   0  0  0  0  0  0  0  0  0  0  0  0
   41.3790   81.4740   62.3620 C   0  0  0  0  0  0  0  0  0  0  0  0
   42.6140   81.9050   62.1910 N   0  0  0  0  0  0  0  0  0  0  0  0
   44.0700   83.4130   62.6270 H   0  0  0  0  0  0  0  0  0  0  0  0
   42.5160   84.7050   64.0100 H   0  0  0  0  0  0  0  0  0  0  0  0
   40.1560   83.8940   64.3460 H   0  0  0  0  0  0  0  0  0  0  0  0
   37.0110   77.2830   56.7840 C   0  0  0  0  0  0  0  0  0  0  0  0
   35.8930   76.9990   57.2490 O   0  0  0  0  0  0  0  0  0  0  0  0
   37.1110   78.0050   55.4610 C   0  0  1  0  0  0  0  0  0  0  0  0
   37.2330   79.4980   55.6200 C   0  0  0  0  0  0  0  0  0  0  0  0
   38.3390   78.6830   55.1160 C   0  0  2  0  0  0  0  0  0  0  0  0
   36.1960   77.8080   54.8610 H   0  0  0  0  0  0  0  0  0  0  0  0
   37.3200   79.9360   56.6510 H   0  0  0  0  0  0  0  0  0  0  0  0
   36.6620   80.1670   54.9540 H   0  0  0  0  0  0  0  0  0  0  0  0
   39.2120   78.5380   55.8130 H   0  0  0  0  0  0  0  0  0  0  0  0
   39.6940   79.9910   53.6180 C   0  0  0  0  0  0  0  0  0  0  0  0
   38.7790   78.9530   53.7380 C   0  0  0  0  0  0  0  0  0  0  0  0
   38.3670   78.2800   52.6070 C   0  0  0  0  0  0  0  0  0  0  0  0
   37.6540   77.4790   52.7410 H   0  0  0  0  0  0  0  0  0  0  0  0
   38.8880   78.6730   51.3910 C   0  0  0  0  0  3  0  0  0  0  0  0
   39.7950   79.6970   51.2420 C   0  0  0  0  0  3  0  0  0  0  0  0
   40.1980   80.3620   52.3890 C   0  0  0  0  0  0  0  0  0  0  0  0
   40.1610   80.7240   54.7260 O   0  0  0  0  0  0  0  0  0  0  0  0
   40.9980   80.3010   55.1560 H   0  0  0  0  0  0  0  0  0  0  0  0
   41.1110   81.4010   52.2810 O   0  0  0  0  0  0  0  0  0  0  0  0
   41.8670   81.2590   51.6120 H   0  0  0  0  0  0  0  0  0  0  0  0
  1 12  1  0  0  0  0
  2  1  1  0  0  0  0
  2  7  1  0  0  0  0
  3  2  2  0  0  0  0
  4  5  2  0  0  0  0
  4  3  1  0  0  0  0
  5  6  1  0  0  0  0
  6  1  2  0  0  0  0
  8  3  1  0  0  0  0
  9 10  2  0  0  0  0
  9 20  1  0  0  0  0
 10 14  1  0  0  0  0
 11 15  1  0  0  0  0
 11 10  1  0  0  0  0
 12 11  2  0  0  0  0
 13 12  1  0  0  0  0
 13  9  1  0  0  0  0
 16 17  1  0  0  0  0
 17 18  2  0  0  0  0
 17 23  1  0  0  0  0
 18 24  1  0  0  0  0
 19 18  1  0  0  0  0
 20 19  2  0  0  0  0
 21 20  1  0  0  0  0
 21 16  2  0  0  0  0
 22 16  1  0  0  0  0
 25 26  2  0  0  0  0
 25  5  1  0  0  0  0
 27 30  1  6  0  0  0
 27 28  1  0  0  0  0
 27 25  1  0  0  0  0
 28 31  1  0  0  0  0
 29 27  1  0  0  0  0
 29 28  1  0  0  0  0
 29 33  1  1  0  0  0
 32 28  1  0  0  0  0
 34 35  1  0  0  0  0
 34 41  1  0  0  0  0
 35 29  1  0  0  0  0
 36 37  1  0  0  0  0
 36 35  2  0  0  0  0
 38 36  1  0  0  0  0
 39 38  2  0  0  0  0
 39 40  1  0  0  0  0
 40 34  2  0  0  0  0
 41 42  1  0  0  0  0
 43 40  1  0  0  0  0
 44 43  1  0  0  0  0
M  END
>  <minimizedAffinity>
-6.69462395

>  <minimizedRMSD>
0.780333519

$$$$
