
 OpenBabel03212520513D

 37 40  0  0  1  0  0  0  0  0999 V2000
   41.6080   83.7810   61.2570 C   0  0  0  0  0  0  0  0  0  0  0  0
   41.0810   84.1240   62.4600 C   0  0  0  0  0  0  0  0  0  0  0  0
   40.7130   83.1550   63.3950 C   0  0  0  0  0  0  0  0  0  0  0  0
   40.8770   81.8480   63.1120 N   0  0  0  0  0  0  0  0  0  0  0  0
   41.4020   81.5240   61.9080 C   0  0  0  0  0  0  0  0  0  0  0  0
   41.7610   82.4540   61.0000 N   0  0  0  0  0  0  0  0  0  0  0  0
   40.9390   85.1630   62.7140 H   0  0  0  0  0  0  0  0  0  0  0  0
   40.2900   83.3910   64.3660 H   0  0  0  0  0  0  0  0  0  0  0  0
   43.4380   86.4170   59.4940 C   0  0  0  0  0  0  0  0  0  0  0  0
   42.6790   86.5850   58.3450 C   0  0  0  0  0  0  0  0  0  0  0  0
   41.5340   85.8020   58.1590 C   0  0  0  0  0  0  0  0  0  0  0  0
   41.2410   84.9080   59.1490 N   0  0  0  0  0  0  0  0  0  0  0  0
   41.9950   84.7650   60.2550 C   0  0  0  0  0  0  0  0  0  0  0  0
   43.0950   85.5100   60.4460 N   0  0  0  0  0  0  0  0  0  0  0  0
   44.5650   87.2580   59.5400 N   0  0  0  0  0  0  0  0  0  0  0  0
   42.8950   87.2840   57.5560 H   0  0  0  0  0  0  0  0  0  0  0  0
   40.8890   85.8670   57.2970 H   0  0  0  0  0  0  0  0  0  0  0  0
   45.5050   86.8730   59.2850 H   0  0  0  0  0  0  0  0  0  0  0  0
   44.2260   88.2160   59.8540 H   0  0  0  0  0  0  0  0  0  0  0  0
   41.5460   80.0550   61.6440 C   0  0  1  0  0  0  0  0  0  0  0  0
   40.9800   79.0650   62.5320 C   0  0  0  0  0  0  0  0  0  0  0  0
   40.1790   79.4060   61.3230 C   0  0  2  0  0  0  0  0  0  0  0  0
   42.3660   79.7710   60.9520 H   0  0  0  0  0  0  0  0  0  0  0  0
   40.5290   79.3980   63.5050 H   0  0  0  0  0  0  0  0  0  0  0  0
   41.4360   78.0620   62.6190 H   0  0  0  0  0  0  0  0  0  0  0  0
   39.2680   79.9940   61.4470 H   0  0  0  0  0  0  0  0  0  0  0  0
   39.9710   77.1370   60.2520 C   0  0  0  0  0  0  0  0  0  0  0  0
   40.1830   78.4950   60.1500 C   0  0  0  0  0  0  0  0  0  0  0  0
   40.4080   79.0150   58.8770 C   0  0  0  0  0  0  0  0  0  0  0  0
   40.5840   80.0660   58.6900 H   0  0  0  0  0  0  0  0  0  0  0  0
   40.4170   78.1940   57.7660 C   0  0  0  0  0  3  0  0  0  0  0  0
   40.2060   76.8330   57.8650 C   0  0  0  0  0  3  0  0  0  0  0  0
   39.9860   76.3380   59.1220 C   0  0  0  0  0  0  0  0  0  0  0  0
   39.7460   76.6010   61.5130 O   0  0  0  0  0  0  0  0  0  0  0  0
   38.7620   76.4440   61.7660 H   0  0  0  0  0  0  0  0  0  0  0  0
   39.7660   74.9620   59.2820 O   0  0  0  0  0  0  0  0  0  0  0  0
   38.8750   74.5230   59.0800 H   0  0  0  0  0  0  0  0  0  0  0  0
  1  2  1  0  0  0  0
  2  7  1  0  0  0  0
  2  3  2  0  0  0  0
  3  8  1  0  0  0  0
  4  3  1  0  0  0  0
  5  4  2  0  0  0  0
  6  1  2  0  0  0  0
  6  5  1  0  0  0  0
  9 15  1  0  0  0  0
  9 14  1  0  0  0  0
 10  9  2  0  0  0  0
 11 10  1  0  0  0  0
 11 12  2  0  0  0  0
 12 13  1  0  0  0  0
 13 14  2  0  0  0  0
 13  1  1  0  0  0  0
 15 19  1  0  0  0  0
 16 10  1  0  0  0  0
 17 11  1  0  0  0  0
 18 15  1  0  0  0  0
 20 23  1  6  0  0  0
 20  5  1  0  0  0  0
 20 21  1  0  0  0  0
 21 25  1  0  0  0  0
 21 24  1  0  0  0  0
 22 26  1  1  0  0  0
 22 20  1  0  0  0  0
 22 21  1  0  0  0  0
 27 34  1  0  0  0  0
 28 27  1  0  0  0  0
 28 22  1  0  0  0  0
 29 28  2  0  0  0  0
 30 29  1  0  0  0  0
 31 32  2  0  0  0  0
 31 29  1  0  0  0  0
 32 33  1  0  0  0  0
 33 36  1  0  0  0  0
 33 27  2  0  0  0  0
 34 35  1  0  0  0  0
 37 36  1  0  0  0  0
M  END
>  <minimizedAffinity>
-6.06929398

>  <minimizedRMSD>
1.27734673

$$$$
