
 OpenBabel03212520103D

 20 21  0  0  0  0  0  0  0  0999 V2000
   40.3130   81.7260   57.4010 C   0  0  0  0  0  0  0  0  0  0  0  0
   40.6710   82.7060   58.3060 C   0  0  0  0  0  0  0  0  0  0  0  0
   41.7250   83.5190   57.9050 C   0  0  0  0  0  0  0  0  0  0  0  0
   42.1170   84.3370   58.5170 H   0  0  0  0  0  0  0  0  0  0  0  0
   42.3490   83.3420   56.6900 C   0  0  0  0  0  0  0  0  0  0  0  0
   41.9590   82.3480   55.8140 C   0  0  0  0  0  0  0  0  0  0  0  0
   40.9240   81.5300   56.1790 C   0  0  0  0  0  0  0  0  0  0  0  0
   40.1200   82.0260   60.6150 C   0  0  0  0  0  0  0  0  0  0  0  0
   40.0910   82.9680   59.5790 C   0  0  0  0  0  0  0  0  0  0  0  0
   39.4670   84.2030   59.8190 C   0  0  0  0  0  0  0  0  0  0  0  0
   38.9290   84.4040   61.0500 N   0  0  0  0  0  0  0  0  0  0  0  0
   38.9710   83.4830   62.0290 C   0  0  0  0  0  0  0  0  0  0  0  0
   39.5660   82.2870   61.8200 N   0  0  0  0  0  0  0  0  0  0  0  0
   40.6050   81.0580   60.4410 H   0  0  0  0  0  0  0  0  0  0  0  0
   39.4310   84.9440   59.0360 H   0  0  0  0  0  0  0  0  0  0  0  0
   38.5010   83.7800   62.9600 H   0  0  0  0  0  0  0  0  0  0  0  0
   39.2530   80.8990   57.7930 O   0  0  0  0  0  0  0  0  0  0  0  0
   38.3990   80.9940   57.2220 H   0  0  0  0  0  0  0  0  0  0  0  0
   40.5200   80.5290   55.3140 O   0  0  0  0  0  0  0  0  0  0  0  0
   39.9260   79.7550   55.5460 H   0  0  0  0  0  0  0  0  0  0  0  0
  1 17  1  0  0  0  0
  1  2  1  0  0  0  0
  2  9  1  0  0  0  0
  3  2  2  0  0  0  0
  3  4  1  0  0  0  0
  5  3  1  0  0  0  0
  6  7  1  0  0  0  0
  6  5  2  0  0  0  0
  7  1  2  0  0  0  0
  8 13  1  0  0  0  0
  9 10  1  0  0  0  0
  9  8  2  0  0  0  0
 10 11  2  0  0  0  0
 11 12  1  0  0  0  0
 12 16  1  0  0  0  0
 13 12  2  0  0  0  0
 14  8  1  0  0  0  0
 15 10  1  0  0  0  0
 18 17  1  0  0  0  0
 19 20  1  0  0  0  0
 19  7  1  0  0  0  0
M  END
>  <minimizedAffinity>
-4.89692116

>  <minimizedRMSD>
0.792007506

$$$$
