
 OpenBabel03212520513D

 37 40  0  0  1  0  0  0  0  0999 V2000
   41.6750   83.8570   61.4050 C   0  0  0  0  0  0  0  0  0  0  0  0
   41.1200   84.2250   62.5880 C   0  0  0  0  0  0  0  0  0  0  0  0
   40.6910   83.2750   63.5170 C   0  0  0  0  0  0  0  0  0  0  0  0
   40.8250   81.9620   63.2480 N   0  0  0  0  0  0  0  0  0  0  0  0
   41.3800   81.6120   62.0650 C   0  0  0  0  0  0  0  0  0  0  0  0
   41.7960   82.5240   61.1620 N   0  0  0  0  0  0  0  0  0  0  0  0
   41.0010   85.2700   62.8300 H   0  0  0  0  0  0  0  0  0  0  0  0
   40.2450   83.5310   64.4720 H   0  0  0  0  0  0  0  0  0  0  0  0
   43.6170   86.4530   59.7040 C   0  0  0  0  0  0  0  0  0  0  0  0
   42.9270   86.6030   58.5110 C   0  0  0  0  0  0  0  0  0  0  0  0
   41.7900   85.8210   58.2720 C   0  0  0  0  0  0  0  0  0  0  0  0
   41.4360   84.9470   59.2590 N   0  0  0  0  0  0  0  0  0  0  0  0
   42.1250   84.8210   60.4100 C   0  0  0  0  0  0  0  0  0  0  0  0
   43.2150   85.5650   60.6500 N   0  0  0  0  0  0  0  0  0  0  0  0
   44.7440   87.2900   59.8010 N   0  0  0  0  0  0  0  0  0  0  0  0
   43.1920   87.2860   57.7230 H   0  0  0  0  0  0  0  0  0  0  0  0
   41.1970   85.8740   57.3730 H   0  0  0  0  0  0  0  0  0  0  0  0
   45.6950   86.8970   59.6070 H   0  0  0  0  0  0  0  0  0  0  0  0
   44.3920   88.2550   60.0770 H   0  0  0  0  0  0  0  0  0  0  0  0
   41.4870   80.1380   61.8160 C   0  0  1  0  0  0  0  0  0  0  0  0
   40.7990   79.1750   62.6450 C   0  0  0  0  0  0  0  0  0  0  0  0
   40.1320   79.5450   61.3650 C   0  0  2  0  0  0  0  0  0  0  0  0
   42.3570   79.8170   61.2050 H   0  0  0  0  0  0  0  0  0  0  0  0
   40.2700   79.5300   63.5700 H   0  0  0  0  0  0  0  0  0  0  0  0
   41.2030   78.1540   62.7750 H   0  0  0  0  0  0  0  0  0  0  0  0
   39.2390   80.1700   61.4000 H   0  0  0  0  0  0  0  0  0  0  0  0
   40.1390   79.0680   58.8920 C   0  0  0  0  0  0  0  0  0  0  0  0
   40.2110   78.6300   60.1970 C   0  0  0  0  0  0  0  0  0  0  0  0
   40.3660   77.2610   60.4060 C   0  0  0  0  0  0  0  0  0  0  0  0
   40.4330   76.8170   61.3910 H   0  0  0  0  0  0  0  0  0  0  0  0
   40.4430   76.3840   59.3410 C   0  0  0  0  0  3  0  0  0  0  0  0
   40.3710   76.8190   58.0340 C   0  0  0  0  0  3  0  0  0  0  0  0
   40.2190   78.1660   57.8450 C   0  0  0  0  0  0  0  0  0  0  0  0
   39.9850   80.4290   58.6660 O   0  0  0  0  0  0  0  0  0  0  0  0
   40.8450   80.9510   58.4490 H   0  0  0  0  0  0  0  0  0  0  0  0
   40.1410   78.6650   56.5370 O   0  0  0  0  0  0  0  0  0  0  0  0
   40.9560   78.7930   55.9490 H   0  0  0  0  0  0  0  0  0  0  0  0
  1  2  1  0  0  0  0
  2  7  1  0  0  0  0
  2  3  2  0  0  0  0
  3  8  1  0  0  0  0
  4  3  1  0  0  0  0
  5  4  2  0  0  0  0
  6  1  2  0  0  0  0
  6  5  1  0  0  0  0
  9 15  1  0  0  0  0
  9 14  1  0  0  0  0
 10  9  2  0  0  0  0
 11 10  1  0  0  0  0
 11 12  2  0  0  0  0
 12 13  1  0  0  0  0
 13 14  2  0  0  0  0
 13  1  1  0  0  0  0
 15 19  1  0  0  0  0
 16 10  1  0  0  0  0
 17 11  1  0  0  0  0
 18 15  1  0  0  0  0
 20 23  1  6  0  0  0
 20  5  1  0  0  0  0
 20 21  1  0  0  0  0
 21 25  1  0  0  0  0
 21 24  1  0  0  0  0
 22 26  1  1  0  0  0
 22 20  1  0  0  0  0
 22 21  1  0  0  0  0
 27 28  1  0  0  0  0
 28 29  2  0  0  0  0
 28 22  1  0  0  0  0
 29 30  1  0  0  0  0
 31 29  1  0  0  0  0
 32 31  2  0  0  0  0
 33 32  1  0  0  0  0
 33 27  2  0  0  0  0
 34 27  1  0  0  0  0
 35 34  1  0  0  0  0
 36 33  1  0  0  0  0
 37 36  1  0  0  0  0
M  END
>  <minimizedAffinity>
-5.74272394

>  <minimizedRMSD>
1.19063938

$$$$
