
 OpenBabel03212520453D

 20 21  0  0  0  0  0  0  0  0999 V2000
   40.7670   79.9100   61.6830 C   0  0  0  0  0  0  0  0  0  0  0  0
   40.3040   80.5590   60.5530 C   0  0  0  0  0  0  0  0  0  0  0  0
   40.3090   79.8190   59.4110 C   0  0  0  0  0  0  0  0  0  0  0  0
   39.9560   80.2840   58.5030 H   0  0  0  0  0  0  0  0  0  0  0  0
   40.7440   78.5070   59.3720 C   0  0  0  0  0  0  0  0  0  0  0  0
   41.2010   77.8930   60.5290 C   0  0  0  0  0  0  0  0  0  0  0  0
   41.2170   78.6050   61.7210 C   0  0  0  0  0  0  0  0  0  0  0  0
   39.8640   81.9440   60.6850 C   0  0  0  0  0  0  0  0  0  0  0  0
   40.0700   82.8520   59.6390 C   0  0  0  0  0  0  0  0  0  0  0  0
   39.6610   84.1790   59.7390 C   0  0  0  0  0  0  0  0  0  0  0  0
   39.0550   84.5310   60.8990 N   0  0  0  0  0  0  0  0  0  0  0  0
   38.8610   83.6540   61.8980 C   0  0  0  0  0  0  0  0  0  0  0  0
   39.2580   82.3820   61.7920 N   0  0  0  0  0  0  0  0  0  0  0  0
   40.5420   82.5870   58.7280 H   0  0  0  0  0  0  0  0  0  0  0  0
   39.8280   84.8710   58.9190 H   0  0  0  0  0  0  0  0  0  0  0  0
   38.3740   84.0260   62.7740 H   0  0  0  0  0  0  0  0  0  0  0  0
   40.8040   80.5810   62.9050 O   0  0  0  0  0  0  0  0  0  0  0  0
   41.5230   81.2630   63.0760 H   0  0  0  0  0  0  0  0  0  0  0  0
   41.6710   77.9940   62.8700 O   0  0  0  0  0  0  0  0  0  0  0  0
   41.8370   78.6100   63.6720 H   0  0  0  0  0  0  0  0  0  0  0  0
  1  7  1  0  0  0  0
  1 17  1  0  0  0  0
  2  8  1  0  0  0  0
  2  1  2  0  0  0  0
  3  2  1  0  0  0  0
  4  3  1  0  0  0  0
  5  3  2  0  0  0  0
  5  6  1  0  0  0  0
  6  7  2  0  0  0  0
  7 19  1  0  0  0  0
  8 13  1  0  0  0  0
  9 10  1  0  0  0  0
  9  8  2  0  0  0  0
 10 11  2  0  0  0  0
 11 12  1  0  0  0  0
 12 16  1  0  0  0  0
 13 12  2  0  0  0  0
 14  9  1  0  0  0  0
 15 10  1  0  0  0  0
 17 18  1  0  0  0  0
 19 20  1  0  0  0  0
M  END
>  <minimizedAffinity>
-5.08588648

>  <minimizedRMSD>
0.845615327

$$$$
