
 OpenBabel03212520453D

 20 21  0  0  0  0  0  0  0  0999 V2000
   41.9890   80.4930   61.6520 C   0  0  0  0  0  0  0  0  0  0  0  0
   40.7400   80.6110   61.0700 C   0  0  0  0  0  0  0  0  0  0  0  0
   40.2140   79.4550   60.5800 C   0  0  0  0  0  0  0  0  0  0  0  0
   39.2400   79.4980   60.1170 H   0  0  0  0  0  0  0  0  0  0  0  0
   40.8730   78.2430   60.6540 C   0  0  0  0  0  3  0  0  0  0  0  0
   42.1240   78.1690   61.2460 C   0  0  0  0  0  3  0  0  0  0  0  0
   42.7070   79.3190   61.7620 C   0  0  0  0  0  0  0  0  0  0  0  0
   40.1160   81.9290   61.0350 C   0  0  0  0  0  0  0  0  0  0  0  0
   40.1970   82.7160   59.8790 C   0  0  0  0  0  0  0  0  0  0  0  0
   39.6110   83.9780   59.8180 C   0  0  0  0  0  0  0  0  0  0  0  0
   38.9650   84.3910   60.9360 N   0  0  0  0  0  0  0  0  0  0  0  0
   38.8930   83.6300   62.0400 C   0  0  0  0  0  0  0  0  0  0  0  0
   39.4590   82.4200   62.0890 N   0  0  0  0  0  0  0  0  0  0  0  0
   40.6980   82.4020   58.9990 H   0  0  0  0  0  0  0  0  0  0  0  0
   39.6820   84.5750   58.9140 H   0  0  0  0  0  0  0  0  0  0  0  0
   38.3620   84.0430   62.8720 H   0  0  0  0  0  0  0  0  0  0  0  0
   42.6170   81.6190   62.1850 O   0  0  0  0  0  0  0  0  0  0  0  0
   43.0350   82.2940   61.5650 H   0  0  0  0  0  0  0  0  0  0  0  0
   43.9510   79.2460   62.3510 O   0  0  0  0  0  0  0  0  0  0  0  0
   44.4120   80.1390   62.5450 H   0  0  0  0  0  0  0  0  0  0  0  0
  1  7  1  0  0  0  0
  1 17  1  0  0  0  0
  2  1  2  0  0  0  0
  3  5  2  0  0  0  0
  3  2  1  0  0  0  0
  4  3  1  0  0  0  0
  5  6  1  0  0  0  0
  6  7  2  0  0  0  0
  7 19  1  0  0  0  0
  8  2  1  0  0  0  0
  8 13  1  0  0  0  0
  9  8  2  0  0  0  0
 10  9  1  0  0  0  0
 10 11  2  0  0  0  0
 11 12  1  0  0  0  0
 12 13  2  0  0  0  0
 12 16  1  0  0  0  0
 14  9  1  0  0  0  0
 15 10  1  0  0  0  0
 18 17  1  0  0  0  0
 19 20  1  0  0  0  0
M  END
>  <minimizedAffinity>
-4.76693535

>  <minimizedRMSD>
0.614905119

$$$$
