
 OpenBabel03212521003D

 44 48  0  0  1  0  0  0  0  0999 V2000
   39.7350   77.2140   59.2270 C   0  0  0  0  0  0  0  0  0  0  0  0
   40.4260   76.0660   58.9750 C   0  0  0  0  0  0  0  0  0  0  0  0
   39.8740   75.3350   57.9080 C   0  0  0  0  0  0  0  0  0  0  0  0
   38.7880   75.7170   57.2100 N   0  0  0  0  0  0  0  0  0  0  0  0
   38.1720   76.8870   57.5510 C   0  0  0  0  0  0  0  0  0  0  0  0
   38.6570   77.6340   58.5670 N   0  0  0  0  0  0  0  0  0  0  0  0
   41.3010   75.7100   59.4990 H   0  0  0  0  0  0  0  0  0  0  0  0
   40.3270   74.3880   57.5930 H   0  0  0  0  0  0  0  0  0  0  0  0
   40.9700   80.2050   61.7070 C   0  0  0  0  0  0  0  0  0  0  0  0
   40.9350   78.9860   62.3480 C   0  0  0  0  0  0  0  0  0  0  0  0
   40.5370   77.9190   61.6200 C   0  0  0  0  0  0  0  0  0  0  0  0
   40.1890   78.0720   60.2950 C   0  0  0  0  0  0  0  0  0  0  0  0
   40.4290   79.8790   60.0060 S   0  0  0  0  0  0  0  0  0  0  0  0
   41.2080   78.8600   63.3910 H   0  0  0  0  0  0  0  0  0  0  0  0
   40.4420   76.8880   61.9340 H   0  0  0  0  0  0  0  0  0  0  0  0
   43.0620   83.0340   62.7500 C   0  0  0  0  0  0  0  0  0  0  0  0
   42.1740   83.7980   63.5560 C   0  0  0  0  0  0  0  0  0  0  0  0
   40.8690   83.3400   63.7350 C   0  0  0  0  0  0  0  0  0  0  0  0
   40.5100   82.1880   63.1300 N   0  0  0  0  0  0  0  0  0  0  0  0
   41.3790   81.4760   62.3640 C   0  0  0  0  0  0  0  0  0  0  0  0
   42.6140   81.9070   62.1930 N   0  0  0  0  0  0  0  0  0  0  0  0
   44.0690   83.4150   62.6290 H   0  0  0  0  0  0  0  0  0  0  0  0
   42.5150   84.7070   64.0120 H   0  0  0  0  0  0  0  0  0  0  0  0
   40.1550   83.8970   64.3470 H   0  0  0  0  0  0  0  0  0  0  0  0
   37.0120   77.2830   56.7860 C   0  0  0  0  0  0  0  0  0  0  0  0
   35.8950   76.9990   57.2510 O   0  0  0  0  0  0  0  0  0  0  0  0
   37.1120   78.0050   55.4630 C   0  0  1  0  0  0  0  0  0  0  0  0
   37.2330   79.4980   55.6210 C   0  0  0  0  0  0  0  0  0  0  0  0
   38.3400   78.6830   55.1180 C   0  0  2  0  0  0  0  0  0  0  0  0
   36.1970   77.8070   54.8620 H   0  0  0  0  0  0  0  0  0  0  0  0
   37.3200   79.9360   56.6520 H   0  0  0  0  0  0  0  0  0  0  0  0
   36.6620   80.1660   54.9550 H   0  0  0  0  0  0  0  0  0  0  0  0
   39.2130   78.5390   55.8140 H   0  0  0  0  0  0  0  0  0  0  0  0
   39.6930   79.9910   53.6200 C   0  0  0  0  0  0  0  0  0  0  0  0
   38.7800   78.9530   53.7390 C   0  0  0  0  0  0  0  0  0  0  0  0
   38.3680   78.2800   52.6090 C   0  0  0  0  0  0  0  0  0  0  0  0
   37.6550   77.4770   52.7420 H   0  0  0  0  0  0  0  0  0  0  0  0
   38.8880   78.6720   51.3930 C   0  0  0  0  0  3  0  0  0  0  0  0
   39.7950   79.6970   51.2420 C   0  0  0  0  0  3  0  0  0  0  0  0
   40.1980   80.3630   52.3890 C   0  0  0  0  0  0  0  0  0  0  0  0
   40.1620   80.7250   54.7270 O   0  0  0  0  0  0  0  0  0  0  0  0
   41.0000   80.3020   55.1560 H   0  0  0  0  0  0  0  0  0  0  0  0
   41.1110   81.4010   52.2820 O   0  0  0  0  0  0  0  0  0  0  0  0
   41.8670   81.2600   51.6130 H   0  0  0  0  0  0  0  0  0  0  0  0
  1 12  1  0  0  0  0
  2  1  1  0  0  0  0
  2  7  1  0  0  0  0
  3  2  2  0  0  0  0
  4  5  2  0  0  0  0
  4  3  1  0  0  0  0
  5  6  1  0  0  0  0
  6  1  2  0  0  0  0
  8  3  1  0  0  0  0
  9 10  2  0  0  0  0
  9 20  1  0  0  0  0
 10 14  1  0  0  0  0
 11 15  1  0  0  0  0
 11 10  1  0  0  0  0
 12 11  2  0  0  0  0
 13 12  1  0  0  0  0
 13  9  1  0  0  0  0
 16 17  1  0  0  0  0
 17 18  2  0  0  0  0
 17 23  1  0  0  0  0
 18 24  1  0  0  0  0
 19 18  1  0  0  0  0
 20 19  2  0  0  0  0
 21 20  1  0  0  0  0
 21 16  2  0  0  0  0
 22 16  1  0  0  0  0
 25 26  2  0  0  0  0
 25  5  1  0  0  0  0
 27 30  1  6  0  0  0
 27 28  1  0  0  0  0
 27 25  1  0  0  0  0
 28 31  1  0  0  0  0
 29 27  1  0  0  0  0
 29 28  1  0  0  0  0
 29 33  1  1  0  0  0
 32 28  1  0  0  0  0
 34 35  1  0  0  0  0
 34 41  1  0  0  0  0
 35 29  1  0  0  0  0
 36 37  1  0  0  0  0
 36 35  2  0  0  0  0
 38 36  1  0  0  0  0
 39 38  2  0  0  0  0
 39 40  1  0  0  0  0
 40 34  2  0  0  0  0
 41 42  1  0  0  0  0
 43 40  1  0  0  0  0
 44 43  1  0  0  0  0
M  END
>  <minimizedAffinity>
-6.69709682

>  <minimizedRMSD>
0.685718238

$$$$
