
 OpenBabel03212520513D

 37 40  0  0  1  0  0  0  0  0999 V2000
   41.6510   83.8090   61.3910 C   0  0  0  0  0  0  0  0  0  0  0  0
   41.0840   84.1760   62.5680 C   0  0  0  0  0  0  0  0  0  0  0  0
   40.6630   83.2250   63.5000 C   0  0  0  0  0  0  0  0  0  0  0  0
   40.8170   81.9130   63.2390 N   0  0  0  0  0  0  0  0  0  0  0  0
   41.3840   81.5640   62.0610 C   0  0  0  0  0  0  0  0  0  0  0  0
   41.7930   82.4770   61.1560 N   0  0  0  0  0  0  0  0  0  0  0  0
   40.9490   85.2210   62.8040 H   0  0  0  0  0  0  0  0  0  0  0  0
   40.2070   83.4800   64.4510 H   0  0  0  0  0  0  0  0  0  0  0  0
   43.5820   86.4050   59.6770 C   0  0  0  0  0  0  0  0  0  0  0  0
   42.8820   86.5580   58.4900 C   0  0  0  0  0  0  0  0  0  0  0  0
   41.7420   85.7780   58.2600 C   0  0  0  0  0  0  0  0  0  0  0  0
   41.3960   84.9020   59.2490 N   0  0  0  0  0  0  0  0  0  0  0  0
   42.0940   84.7750   60.3930 C   0  0  0  0  0  0  0  0  0  0  0  0
   43.1870   85.5160   60.6250 N   0  0  0  0  0  0  0  0  0  0  0  0
   44.7110   87.2410   59.7640 N   0  0  0  0  0  0  0  0  0  0  0  0
   43.1410   87.2420   57.7000 H   0  0  0  0  0  0  0  0  0  0  0  0
   41.1410   85.8320   57.3660 H   0  0  0  0  0  0  0  0  0  0  0  0
   45.6590   86.8470   59.5620 H   0  0  0  0  0  0  0  0  0  0  0  0
   44.3620   88.2060   60.0460 H   0  0  0  0  0  0  0  0  0  0  0  0
   41.5140   80.0900   61.8210 C   0  0  1  0  0  0  0  0  0  0  0  0
   40.8660   79.1220   62.6750 C   0  0  0  0  0  0  0  0  0  0  0  0
   40.1590   79.4670   61.4090 C   0  0  2  0  0  0  0  0  0  0  0  0
   42.3750   79.7820   61.1910 H   0  0  0  0  0  0  0  0  0  0  0  0
   40.3530   79.4740   63.6100 H   0  0  0  0  0  0  0  0  0  0  0  0
   41.2930   78.1100   62.8030 H   0  0  0  0  0  0  0  0  0  0  0  0
   39.2550   80.0760   61.4630 H   0  0  0  0  0  0  0  0  0  0  0  0
   39.9200   77.2020   60.3340 C   0  0  0  0  0  0  0  0  0  0  0  0
   40.2270   78.5440   60.2470 C   0  0  0  0  0  0  0  0  0  0  0  0
   40.6150   79.0330   59.0020 C   0  0  0  0  0  0  0  0  0  0  0  0
   40.8760   80.0690   58.8290 H   0  0  0  0  0  0  0  0  0  0  0  0
   40.6870   78.2000   57.9020 C   0  0  0  0  0  3  0  0  0  0  0  0
   40.3810   76.8570   57.9860 C   0  0  0  0  0  3  0  0  0  0  0  0
   40.0020   76.3920   59.2170 C   0  0  0  0  0  0  0  0  0  0  0  0
   39.5310   76.6990   61.5690 O   0  0  0  0  0  0  0  0  0  0  0  0
   38.5180   76.6050   61.7190 H   0  0  0  0  0  0  0  0  0  0  0  0
   39.6790   75.0340   59.3610 O   0  0  0  0  0  0  0  0  0  0  0  0
   38.7870   74.6500   59.0690 H   0  0  0  0  0  0  0  0  0  0  0  0
  1  2  1  0  0  0  0
  2  7  1  0  0  0  0
  2  3  2  0  0  0  0
  3  8  1  0  0  0  0
  4  3  1  0  0  0  0
  5  4  2  0  0  0  0
  6  1  2  0  0  0  0
  6  5  1  0  0  0  0
  9 15  1  0  0  0  0
  9 14  1  0  0  0  0
 10  9  2  0  0  0  0
 11 10  1  0  0  0  0
 11 12  2  0  0  0  0
 12 13  1  0  0  0  0
 13 14  2  0  0  0  0
 13  1  1  0  0  0  0
 15 19  1  0  0  0  0
 16 10  1  0  0  0  0
 17 11  1  0  0  0  0
 18 15  1  0  0  0  0
 20 23  1  6  0  0  0
 20  5  1  0  0  0  0
 20 21  1  0  0  0  0
 21 25  1  0  0  0  0
 21 24  1  0  0  0  0
 22 26  1  1  0  0  0
 22 20  1  0  0  0  0
 22 21  1  0  0  0  0
 27 34  1  0  0  0  0
 28 27  1  0  0  0  0
 28 22  1  0  0  0  0
 29 28  2  0  0  0  0
 30 29  1  0  0  0  0
 31 32  2  0  0  0  0
 31 29  1  0  0  0  0
 32 33  1  0  0  0  0
 33 36  1  0  0  0  0
 33 27  2  0  0  0  0
 34 35  1  0  0  0  0
 37 36  1  0  0  0  0
M  END
>  <minimizedAffinity>
-6.08082485

>  <minimizedRMSD>
0.650747299

$$$$
