
 OpenBabel03212520513D

 37 40  0  0  1  0  0  0  0  0999 V2000
   41.6640   83.8280   61.3950 C   0  0  0  0  0  0  0  0  0  0  0  0
   41.0940   84.1910   62.5720 C   0  0  0  0  0  0  0  0  0  0  0  0
   40.6710   83.2370   63.5000 C   0  0  0  0  0  0  0  0  0  0  0  0
   40.8260   81.9260   63.2350 N   0  0  0  0  0  0  0  0  0  0  0  0
   41.3950   81.5810   62.0570 C   0  0  0  0  0  0  0  0  0  0  0  0
   41.8060   82.4960   61.1560 N   0  0  0  0  0  0  0  0  0  0  0  0
   40.9590   85.2350   62.8100 H   0  0  0  0  0  0  0  0  0  0  0  0
   40.2130   83.4900   64.4500 H   0  0  0  0  0  0  0  0  0  0  0  0
   43.5960   86.4330   59.6950 C   0  0  0  0  0  0  0  0  0  0  0  0
   42.9020   86.5850   58.5040 C   0  0  0  0  0  0  0  0  0  0  0  0
   41.7660   85.8020   58.2670 C   0  0  0  0  0  0  0  0  0  0  0  0
   41.4170   84.9240   59.2530 N   0  0  0  0  0  0  0  0  0  0  0  0
   42.1090   84.7960   60.4000 C   0  0  0  0  0  0  0  0  0  0  0  0
   43.1990   85.5410   60.6400 N   0  0  0  0  0  0  0  0  0  0  0  0
   44.7210   87.2720   59.7900 N   0  0  0  0  0  0  0  0  0  0  0  0
   43.1630   87.2720   57.7170 H   0  0  0  0  0  0  0  0  0  0  0  0
   41.1690   85.8560   57.3700 H   0  0  0  0  0  0  0  0  0  0  0  0
   45.6720   86.8820   59.5920 H   0  0  0  0  0  0  0  0  0  0  0  0
   44.3680   88.2360   60.0710 H   0  0  0  0  0  0  0  0  0  0  0  0
   41.5260   80.1080   61.8130 C   0  0  1  0  0  0  0  0  0  0  0  0
   40.8700   79.1360   62.6580 C   0  0  0  0  0  0  0  0  0  0  0  0
   40.1730   79.4880   61.3880 C   0  0  2  0  0  0  0  0  0  0  0  0
   42.3910   79.8010   61.1880 H   0  0  0  0  0  0  0  0  0  0  0  0
   40.3510   79.4860   63.5910 H   0  0  0  0  0  0  0  0  0  0  0  0
   41.2950   78.1240   62.7860 H   0  0  0  0  0  0  0  0  0  0  0  0
   39.2700   80.0970   61.4370 H   0  0  0  0  0  0  0  0  0  0  0  0
   40.0550   77.2070   60.3260 C   0  0  0  0  0  0  0  0  0  0  0  0
   40.2490   78.5690   60.2230 C   0  0  0  0  0  0  0  0  0  0  0  0
   40.5270   79.0830   58.9590 C   0  0  0  0  0  0  0  0  0  0  0  0
   40.6950   80.1350   58.7720 H   0  0  0  0  0  0  0  0  0  0  0  0
   40.6040   78.2540   57.8570 C   0  0  0  0  0  3  0  0  0  0  0  0
   40.4100   76.8920   57.9550 C   0  0  0  0  0  3  0  0  0  0  0  0
   40.1380   76.4020   59.2040 C   0  0  0  0  0  0  0  0  0  0  0  0
   39.7780   76.6780   61.5790 O   0  0  0  0  0  0  0  0  0  0  0  0
   38.7850   76.5050   61.7860 H   0  0  0  0  0  0  0  0  0  0  0  0
   39.9320   75.0240   59.3640 O   0  0  0  0  0  0  0  0  0  0  0  0
   39.0590   74.5670   59.1230 H   0  0  0  0  0  0  0  0  0  0  0  0
  1  2  1  0  0  0  0
  2  7  1  0  0  0  0
  2  3  2  0  0  0  0
  3  8  1  0  0  0  0
  4  3  1  0  0  0  0
  5  4  2  0  0  0  0
  6  1  2  0  0  0  0
  6  5  1  0  0  0  0
  9 15  1  0  0  0  0
  9 14  1  0  0  0  0
 10  9  2  0  0  0  0
 11 10  1  0  0  0  0
 11 12  2  0  0  0  0
 12 13  1  0  0  0  0
 13 14  2  0  0  0  0
 13  1  1  0  0  0  0
 15 19  1  0  0  0  0
 16 10  1  0  0  0  0
 17 11  1  0  0  0  0
 18 15  1  0  0  0  0
 20 23  1  6  0  0  0
 20  5  1  0  0  0  0
 20 21  1  0  0  0  0
 21 25  1  0  0  0  0
 21 24  1  0  0  0  0
 22 26  1  1  0  0  0
 22 20  1  0  0  0  0
 22 21  1  0  0  0  0
 27 34  1  0  0  0  0
 28 27  1  0  0  0  0
 28 22  1  0  0  0  0
 29 28  2  0  0  0  0
 30 29  1  0  0  0  0
 31 32  2  0  0  0  0
 31 29  1  0  0  0  0
 32 33  1  0  0  0  0
 33 36  1  0  0  0  0
 33 27  2  0  0  0  0
 34 35  1  0  0  0  0
 37 36  1  0  0  0  0
M  END
>  <minimizedAffinity>
-6.10465479

>  <minimizedRMSD>
1.05255163

$$$$
