
 OpenBabel03212520443D

 20 21  0  0  0  0  0  0  0  0999 V2000
   44.5890   81.4200   62.7460 C   0  0  0  0  0  0  0  0  0  0  0  0
   43.3690   81.1560   62.1500 C   0  0  0  0  0  0  0  0  0  0  0  0
   43.1950   79.8790   61.7170 C   0  0  0  0  0  0  0  0  0  0  0  0
   42.2560   79.6260   61.2450 H   0  0  0  0  0  0  0  0  0  0  0  0
   44.1640   78.9020   61.8550 C   0  0  0  0  0  3  0  0  0  0  0  0
   45.3750   79.2090   62.4590 C   0  0  0  0  0  3  0  0  0  0  0  0
   45.6030   80.4990   62.9200 C   0  0  0  0  0  0  0  0  0  0  0  0
   42.4040   82.2450   62.0450 C   0  0  0  0  0  0  0  0  0  0  0  0
   41.2430   82.2360   62.8290 C   0  0  0  0  0  0  0  0  0  0  0  0
   40.3050   83.2620   62.7480 C   0  0  0  0  0  0  0  0  0  0  0  0
   40.5850   84.2600   61.8730 N   0  0  0  0  0  0  0  0  0  0  0  0
   41.7000   84.2600   61.1250 C   0  0  0  0  0  0  0  0  0  0  0  0
   42.5950   83.2700   61.2090 N   0  0  0  0  0  0  0  0  0  0  0  0
   41.0150   81.4620   63.5160 H   0  0  0  0  0  0  0  0  0  0  0  0
   39.4100   83.2410   63.3620 H   0  0  0  0  0  0  0  0  0  0  0  0
   41.8330   85.0900   60.4630 H   0  0  0  0  0  0  0  0  0  0  0  0
   44.8680   82.7000   63.2250 O   0  0  0  0  0  0  0  0  0  0  0  0
   45.0940   83.4340   62.5750 H   0  0  0  0  0  0  0  0  0  0  0  0
   46.8060   80.8020   63.5190 O   0  0  0  0  0  0  0  0  0  0  0  0
   46.9970   81.7970   63.6700 H   0  0  0  0  0  0  0  0  0  0  0  0
  1  7  1  0  0  0  0
  1 17  1  0  0  0  0
  2  1  2  0  0  0  0
  3  5  2  0  0  0  0
  3  2  1  0  0  0  0
  4  3  1  0  0  0  0
  5  6  1  0  0  0  0
  6  7  2  0  0  0  0
  7 19  1  0  0  0  0
  8  2  1  0  0  0  0
  8  9  1  0  0  0  0
  9 14  1  0  0  0  0
 10  9  2  0  0  0  0
 10 15  1  0  0  0  0
 11 10  1  0  0  0  0
 12 13  1  0  0  0  0
 12 11  2  0  0  0  0
 13  8  2  0  0  0  0
 16 12  1  0  0  0  0
 18 17  1  0  0  0  0
 19 20  1  0  0  0  0
M  END
>  <minimizedAffinity>
-3.9105525

>  <minimizedRMSD>
4.48254585

$$$$
