
 OpenBabel03212520593D

 44 48  0  0  1  0  0  0  0  0999 V2000
   39.7380   77.2160   59.2280 C   0  0  0  0  0  0  0  0  0  0  0  0
   40.4310   76.0690   58.9760 C   0  0  0  0  0  0  0  0  0  0  0  0
   39.8790   75.3380   57.9090 C   0  0  0  0  0  0  0  0  0  0  0  0
   38.7920   75.7190   57.2120 N   0  0  0  0  0  0  0  0  0  0  0  0
   38.1750   76.8890   57.5530 C   0  0  0  0  0  0  0  0  0  0  0  0
   38.6600   77.6360   58.5690 N   0  0  0  0  0  0  0  0  0  0  0  0
   41.3060   75.7140   59.4990 H   0  0  0  0  0  0  0  0  0  0  0  0
   40.3330   74.3920   57.5940 H   0  0  0  0  0  0  0  0  0  0  0  0
   40.9710   80.2080   61.7090 C   0  0  0  0  0  0  0  0  0  0  0  0
   40.9380   78.9890   62.3500 C   0  0  0  0  0  0  0  0  0  0  0  0
   40.5410   77.9220   61.6210 C   0  0  0  0  0  0  0  0  0  0  0  0
   40.1920   78.0750   60.2970 C   0  0  0  0  0  0  0  0  0  0  0  0
   40.4300   79.8820   60.0080 S   0  0  0  0  0  0  0  0  0  0  0  0
   41.2120   78.8630   63.3930 H   0  0  0  0  0  0  0  0  0  0  0  0
   40.4480   76.8900   61.9350 H   0  0  0  0  0  0  0  0  0  0  0  0
   43.0610   83.0380   62.7560 C   0  0  0  0  0  0  0  0  0  0  0  0
   42.1730   83.8010   63.5590 C   0  0  0  0  0  0  0  0  0  0  0  0
   40.8670   83.3440   63.7360 C   0  0  0  0  0  0  0  0  0  0  0  0
   40.5090   82.1920   63.1310 N   0  0  0  0  0  0  0  0  0  0  0  0
   41.3790   81.4790   62.3660 C   0  0  0  0  0  0  0  0  0  0  0  0
   42.6150   81.9100   62.1980 N   0  0  0  0  0  0  0  0  0  0  0  0
   44.0690   83.4180   62.6360 H   0  0  0  0  0  0  0  0  0  0  0  0
   42.5120   84.7110   64.0160 H   0  0  0  0  0  0  0  0  0  0  0  0
   40.1520   83.9000   64.3460 H   0  0  0  0  0  0  0  0  0  0  0  0
   37.0150   77.2850   56.7880 C   0  0  0  0  0  0  0  0  0  0  0  0
   35.8980   77.0010   57.2550 O   0  0  0  0  0  0  0  0  0  0  0  0
   37.1140   78.0050   55.4650 C   0  0  1  0  0  0  0  0  0  0  0  0
   37.2330   79.4980   55.6210 C   0  0  0  0  0  0  0  0  0  0  0  0
   38.3410   78.6850   55.1190 C   0  0  2  0  0  0  0  0  0  0  0  0
   36.1990   77.8050   54.8640 H   0  0  0  0  0  0  0  0  0  0  0  0
   37.3190   79.9380   56.6520 H   0  0  0  0  0  0  0  0  0  0  0  0
   36.6610   80.1660   54.9540 H   0  0  0  0  0  0  0  0  0  0  0  0
   39.2140   78.5420   55.8160 H   0  0  0  0  0  0  0  0  0  0  0  0
   39.6940   79.9930   53.6190 C   0  0  0  0  0  0  0  0  0  0  0  0
   38.7810   78.9550   53.7400 C   0  0  0  0  0  0  0  0  0  0  0  0
   38.3680   78.2800   52.6110 C   0  0  0  0  0  0  0  0  0  0  0  0
   37.6560   77.4780   52.7450 H   0  0  0  0  0  0  0  0  0  0  0  0
   38.8880   78.6720   51.3940 C   0  0  0  0  0  3  0  0  0  0  0  0
   39.7960   79.6970   51.2430 C   0  0  0  0  0  3  0  0  0  0  0  0
   40.1990   80.3620   52.3890 C   0  0  0  0  0  0  0  0  0  0  0  0
   40.1620   80.7270   54.7260 O   0  0  0  0  0  0  0  0  0  0  0  0
   41.0000   80.3040   55.1550 H   0  0  0  0  0  0  0  0  0  0  0  0
   41.1110   81.4020   52.2810 O   0  0  0  0  0  0  0  0  0  0  0  0
   41.8670   81.2600   51.6120 H   0  0  0  0  0  0  0  0  0  0  0  0
  1 12  1  0  0  0  0
  2  1  1  0  0  0  0
  2  7  1  0  0  0  0
  3  2  2  0  0  0  0
  4  5  2  0  0  0  0
  4  3  1  0  0  0  0
  5  6  1  0  0  0  0
  6  1  2  0  0  0  0
  8  3  1  0  0  0  0
  9 10  2  0  0  0  0
  9 20  1  0  0  0  0
 10 14  1  0  0  0  0
 11 15  1  0  0  0  0
 11 10  1  0  0  0  0
 12 11  2  0  0  0  0
 13 12  1  0  0  0  0
 13  9  1  0  0  0  0
 16 17  1  0  0  0  0
 17 18  2  0  0  0  0
 17 23  1  0  0  0  0
 18 24  1  0  0  0  0
 19 18  1  0  0  0  0
 20 19  2  0  0  0  0
 21 20  1  0  0  0  0
 21 16  2  0  0  0  0
 22 16  1  0  0  0  0
 25 26  2  0  0  0  0
 25  5  1  0  0  0  0
 27 30  1  6  0  0  0
 27 28  1  0  0  0  0
 27 25  1  0  0  0  0
 28 31  1  0  0  0  0
 29 27  1  0  0  0  0
 29 28  1  0  0  0  0
 29 33  1  1  0  0  0
 32 28  1  0  0  0  0
 34 35  1  0  0  0  0
 34 41  1  0  0  0  0
 35 29  1  0  0  0  0
 36 37  1  0  0  0  0
 36 35  2  0  0  0  0
 38 36  1  0  0  0  0
 39 38  2  0  0  0  0
 39 40  1  0  0  0  0
 40 34  2  0  0  0  0
 41 42  1  0  0  0  0
 43 40  1  0  0  0  0
 44 43  1  0  0  0  0
M  END
>  <minimizedAffinity>
-6.69433928

>  <minimizedRMSD>
0.618011296

$$$$
