
 OpenBabel03212520443D

 20 21  0  0  0  0  0  0  0  0999 V2000
   40.4130   79.8320   59.8820 C   0  0  0  0  0  0  0  0  0  0  0  0
   40.5320   80.6140   61.0160 C   0  0  0  0  0  0  0  0  0  0  0  0
   41.1550   80.0220   62.0700 C   0  0  0  0  0  0  0  0  0  0  0  0
   41.2700   80.5950   62.9780 H   0  0  0  0  0  0  0  0  0  0  0  0
   41.6400   78.7280   62.0240 C   0  0  0  0  0  3  0  0  0  0  0  0
   41.5010   77.9770   60.8650 C   0  0  0  0  0  3  0  0  0  0  0  0
   40.8720   78.5350   59.7600 C   0  0  0  0  0  0  0  0  0  0  0  0
   39.9920   81.9690   60.9790 C   0  0  0  0  0  0  0  0  0  0  0  0
   40.2150   82.7860   59.8640 C   0  0  0  0  0  0  0  0  0  0  0  0
   39.7120   84.0830   59.8020 C   0  0  0  0  0  0  0  0  0  0  0  0
   38.9990   84.4990   60.8780 N   0  0  0  0  0  0  0  0  0  0  0  0
   38.7900   83.7080   61.9430 C   0  0  0  0  0  0  0  0  0  0  0  0
   39.2780   82.4650   61.9930 N   0  0  0  0  0  0  0  0  0  0  0  0
   40.7700   82.4710   59.0180 H   0  0  0  0  0  0  0  0  0  0  0  0
   39.8930   84.7040   58.9300 H   0  0  0  0  0  0  0  0  0  0  0  0
   38.2160   84.1260   62.7430 H   0  0  0  0  0  0  0  0  0  0  0  0
   39.7910   80.3450   58.7450 O   0  0  0  0  0  0  0  0  0  0  0  0
   38.7870   80.4250   58.7220 H   0  0  0  0  0  0  0  0  0  0  0  0
   40.7340   77.7890   58.6090 O   0  0  0  0  0  0  0  0  0  0  0  0
   40.1070   78.1720   57.8960 H   0  0  0  0  0  0  0  0  0  0  0  0
  1  2  1  0  0  0  0
  2  3  2  0  0  0  0
  3  4  1  0  0  0  0
  5  3  1  0  0  0  0
  6  5  2  0  0  0  0
  7  1  2  0  0  0  0
  7  6  1  0  0  0  0
  8  2  1  0  0  0  0
  8 13  1  0  0  0  0
  9  8  2  0  0  0  0
 10  9  1  0  0  0  0
 10 11  2  0  0  0  0
 11 12  1  0  0  0  0
 12 13  2  0  0  0  0
 12 16  1  0  0  0  0
 14  9  1  0  0  0  0
 15 10  1  0  0  0  0
 17  1  1  0  0  0  0
 18 17  1  0  0  0  0
 19  7  1  0  0  0  0
 20 19  1  0  0  0  0
M  END
>  <minimizedAffinity>
-4.69841814

>  <minimizedRMSD>
0.323484689

$$$$
