
 OpenBabel03212520593D

 44 48  0  0  1  0  0  0  0  0999 V2000
   39.6120   77.1150   59.1800 C   0  0  0  0  0  0  0  0  0  0  0  0
   40.2410   75.9270   58.9500 C   0  0  0  0  0  0  0  0  0  0  0  0
   39.6530   75.2080   57.8940 C   0  0  0  0  0  0  0  0  0  0  0  0
   38.5910   75.6360   57.1860 N   0  0  0  0  0  0  0  0  0  0  0  0
   38.0390   76.8440   57.5040 C   0  0  0  0  0  0  0  0  0  0  0  0
   38.5610   77.5810   58.5080 N   0  0  0  0  0  0  0  0  0  0  0  0
   41.0940   75.5340   59.4840 H   0  0  0  0  0  0  0  0  0  0  0  0
   40.0550   74.2330   57.5980 H   0  0  0  0  0  0  0  0  0  0  0  0
   40.9510   80.0880   61.6270 C   0  0  0  0  0  0  0  0  0  0  0  0
   40.9350   78.8660   62.2630 C   0  0  0  0  0  0  0  0  0  0  0  0
   40.5050   77.8050   61.5440 C   0  0  0  0  0  0  0  0  0  0  0  0
   40.1100   77.9660   60.2340 C   0  0  0  0  0  0  0  0  0  0  0  0
   40.3470   79.7730   59.9450 S   0  0  0  0  0  0  0  0  0  0  0  0
   41.2460   78.7350   63.2950 H   0  0  0  0  0  0  0  0  0  0  0  0
   40.4180   76.7720   61.8570 H   0  0  0  0  0  0  0  0  0  0  0  0
   43.1150   82.8640   62.6680 C   0  0  0  0  0  0  0  0  0  0  0  0
   42.2400   83.6650   63.4500 C   0  0  0  0  0  0  0  0  0  0  0  0
   40.9180   83.2520   63.6130 C   0  0  0  0  0  0  0  0  0  0  0  0
   40.5320   82.1040   63.0180 N   0  0  0  0  0  0  0  0  0  0  0  0
   41.3900   81.3540   62.2740 C   0  0  0  0  0  0  0  0  0  0  0  0
   42.6410   81.7440   62.1180 N   0  0  0  0  0  0  0  0  0  0  0  0
   44.1360   83.2120   62.5580 H   0  0  0  0  0  0  0  0  0  0  0  0
   42.6010   84.5700   63.9000 H   0  0  0  0  0  0  0  0  0  0  0  0
   40.2120   83.8380   64.2070 H   0  0  0  0  0  0  0  0  0  0  0  0
   36.9050   77.2890   56.7270 C   0  0  0  0  0  0  0  0  0  0  0  0
   35.7760   77.1500   57.2310 O   0  0  0  0  0  0  0  0  0  0  0  0
   37.0420   77.8940   55.3510 C   0  0  1  0  0  0  0  0  0  0  0  0
   37.4540   79.3420   55.3880 C   0  0  0  0  0  0  0  0  0  0  0  0
   38.3470   78.2990   54.8830 C   0  0  2  0  0  0  0  0  0  0  0  0
   36.0650   77.8390   54.8220 H   0  0  0  0  0  0  0  0  0  0  0  0
   37.6960   79.8190   56.3760 H   0  0  0  0  0  0  0  0  0  0  0  0
   36.9710   80.0660   54.7090 H   0  0  0  0  0  0  0  0  0  0  0  0
   39.2260   78.0330   55.5350 H   0  0  0  0  0  0  0  0  0  0  0  0
   39.2330   77.2190   52.9230 C   0  0  0  0  0  0  0  0  0  0  0  0
   38.7290   78.3930   53.4640 C   0  0  0  0  0  0  0  0  0  0  0  0
   38.6250   79.5150   52.6690 C   0  0  0  0  0  0  0  0  0  0  0  0
   38.2280   80.4110   53.1270 H   0  0  0  0  0  0  0  0  0  0  0  0
   39.0330   79.4200   51.3550 C   0  0  0  0  0  3  0  0  0  0  0  0
   39.5380   78.2690   50.7900 C   0  0  0  0  0  3  0  0  0  0  0  0
   39.6340   77.1520   51.6040 C   0  0  0  0  0  0  0  0  0  0  0  0
   39.3680   76.0340   53.6720 O   0  0  0  0  0  0  0  0  0  0  0  0
   38.5200   75.4480   53.6420 H   0  0  0  0  0  0  0  0  0  0  0  0
   40.1370   75.9730   51.0750 O   0  0  0  0  0  0  0  0  0  0  0  0
   39.8440   75.7530   50.1240 H   0  0  0  0  0  0  0  0  0  0  0  0
  1 12  1  0  0  0  0
  2  1  1  0  0  0  0
  2  7  1  0  0  0  0
  3  2  2  0  0  0  0
  4  5  2  0  0  0  0
  4  3  1  0  0  0  0
  5  6  1  0  0  0  0
  6  1  2  0  0  0  0
  8  3  1  0  0  0  0
  9 10  2  0  0  0  0
  9 20  1  0  0  0  0
 10 14  1  0  0  0  0
 11 15  1  0  0  0  0
 11 10  1  0  0  0  0
 12 11  2  0  0  0  0
 13 12  1  0  0  0  0
 13  9  1  0  0  0  0
 16 17  1  0  0  0  0
 17 18  2  0  0  0  0
 17 23  1  0  0  0  0
 18 24  1  0  0  0  0
 19 18  1  0  0  0  0
 20 19  2  0  0  0  0
 21 20  1  0  0  0  0
 21 16  2  0  0  0  0
 22 16  1  0  0  0  0
 25 26  2  0  0  0  0
 25  5  1  0  0  0  0
 27 30  1  6  0  0  0
 27 28  1  0  0  0  0
 27 25  1  0  0  0  0
 28 31  1  0  0  0  0
 29 27  1  0  0  0  0
 29 28  1  0  0  0  0
 29 33  1  1  0  0  0
 32 28  1  0  0  0  0
 34 35  1  0  0  0  0
 34 41  1  0  0  0  0
 35 29  1  0  0  0  0
 36 37  1  0  0  0  0
 36 35  2  0  0  0  0
 38 36  1  0  0  0  0
 39 38  2  0  0  0  0
 39 40  1  0  0  0  0
 40 34  2  0  0  0  0
 42 41  1  0  0  0  0
 43 40  1  0  0  0  0
 44 43  1  0  0  0  0
M  END
>  <minimizedAffinity>
-6.522264

>  <minimizedRMSD>
1.01642323

$$$$
