
 OpenBabel03212520053D

 43 47  0  0  0  0  0  0  0  0999 V2000
   40.5220   81.8270   57.1730 C   0  0  0  0  0  0  0  0  0  0  0  0
   41.5740   82.4080   56.4440 C   0  0  0  0  0  0  0  0  0  0  0  0
   42.3740   83.3160   57.1030 C   0  0  0  0  0  0  0  0  0  0  0  0
   42.1330   83.6160   58.4070 N   0  0  0  0  0  0  0  0  0  0  0  0
   41.1090   83.0340   59.0860 C   0  0  0  0  0  0  0  0  0  0  0  0
   40.2950   82.1340   58.4670 N   0  0  0  0  0  0  0  0  0  0  0  0
   39.8150   81.1050   56.7930 H   0  0  0  0  0  0  0  0  0  0  0  0
   41.5880   81.9940   55.4660 H   0  0  0  0  0  0  0  0  0  0  0  0
   39.6060   83.1280   61.0090 C   0  0  0  0  0  0  0  0  0  0  0  0
   40.8860   83.3350   60.4910 C   0  0  0  0  0  0  0  0  0  0  0  0
   41.9320   83.7990   61.2910 C   0  0  0  0  0  0  0  0  0  0  0  0
   41.7300   84.0680   62.6320 C   0  0  0  0  0  0  0  0  0  0  0  0
   42.4590   84.5060   63.6760 N   0  0  0  0  0  0  0  0  0  0  0  0
   41.7030   84.5750   64.7930 C   0  0  0  0  0  0  0  0  0  0  0  0
   40.4900   84.1680   64.3980 N   0  0  0  0  0  0  0  0  0  0  0  0
   40.4700   83.8520   63.0930 C   0  0  0  0  0  0  0  0  0  0  0  0
   39.3770   83.3930   62.3650 C   0  0  0  0  0  0  0  0  0  0  0  0
   38.7850   82.7730   60.4180 H   0  0  0  0  0  0  0  0  0  0  0  0
   42.9300   83.9620   60.8860 H   0  0  0  0  0  0  0  0  0  0  0  0
   43.4760   84.7540   63.6120 H   0  0  0  0  0  0  0  0  0  0  0  0
   42.0030   84.8880   65.7850 H   0  0  0  0  0  0  0  0  0  0  0  0
   38.4220   83.2540   62.8130 H   0  0  0  0  0  0  0  0  0  0  0  0
   42.4630   82.9450   54.1490 Cl  0  0  0  0  0  0  0  0  0  0  0  0
   43.6450   83.8710   55.0640 C   0  0  0  0  0  0  0  0  0  0  0  0
   43.4690   83.9650   56.4200 C   0  0  0  0  0  0  0  0  0  0  0  0
   44.4360   84.7350   57.0630 C   0  0  0  0  0  0  0  0  0  0  0  0
   45.4850   85.3570   56.4230 C   0  0  0  0  0  0  0  0  0  0  0  0
   45.6030   85.2170   55.0420 C   0  0  0  0  0  0  0  0  0  0  0  0
   46.9170   85.9870   54.1950 Cl  0  0  0  0  0  0  0  0  0  0  0  0
   44.6700   84.4670   54.3640 C   0  0  0  0  0  0  0  0  0  0  0  0
   44.3730   84.8620   58.1340 H   0  0  0  0  0  0  0  0  0  0  0  0
   46.1950   85.9360   56.9880 H   0  0  0  0  0  0  0  0  0  0  0  0
   44.2870   85.1180   51.9150 C   0  0  0  0  0  0  0  0  0  0  0  0
   44.7780   84.3100   52.9180 C   0  0  0  0  0  0  0  0  0  0  0  0
   45.4960   83.1500   52.6040 C   0  0  0  0  0  0  0  0  0  0  0  0
   45.9270   82.4430   53.2980 H   0  0  0  0  0  0  0  0  0  0  0  0
   45.7130   82.8160   51.2620 C   0  0  0  0  0  0  0  0  0  0  0  0
   45.2190   83.6290   50.2700 C   0  0  0  0  0  0  0  0  0  0  0  0
   44.5060   84.7790   50.5970 C   0  0  0  0  0  0  0  0  0  0  0  0
   43.6040   86.2190   52.3680 O   0  0  0  0  0  0  0  0  0  0  0  0
   42.8920   86.6010   51.7550 H   0  0  0  0  0  0  0  0  0  0  0  0
   43.9850   85.6350   49.6330 O   0  0  0  0  0  0  0  0  0  0  0  0
   44.5540   85.7830   48.7910 H   0  0  0  0  0  0  0  0  0  0  0  0
  1  6  1  0  0  0  0
  2  3  1  0  0  0  0
  2  1  2  0  0  0  0
  3  4  2  0  0  0  0
  4  5  1  0  0  0  0
  5 10  1  0  0  0  0
  6  5  2  0  0  0  0
  7  1  1  0  0  0  0
  8  2  1  0  0  0  0
  9 17  1  0  0  0  0
 10  9  2  0  0  0  0
 10 11  1  0  0  0  0
 11 12  2  0  0  0  0
 12 16  1  0  0  0  0
 12 13  1  0  0  0  0
 13 14  1  0  0  0  0
 14 21  1  0  0  0  0
 15 14  2  0  0  0  0
 16 15  1  0  0  0  0
 17 22  1  0  0  0  0
 17 16  2  0  0  0  0
 18  9  1  0  0  0  0
 19 11  1  0  0  0  0
 20 13  1  0  0  0  0
 23 24  1  0  0  0  0
 24 25  1  0  0  0  0
 25 26  2  0  0  0  0
 25  3  1  0  0  0  0
 26 31  1  0  0  0  0
 27 32  1  0  0  0  0
 27 26  1  0  0  0  0
 28 27  2  0  0  0  0
 29 28  1  0  0  0  0
 30 28  1  0  0  0  0
 30 24  2  0  0  0  0
 33 40  1  0  0  0  0
 33 34  1  0  0  0  0
 34 30  1  0  0  0  0
 35 34  2  0  0  0  0
 35 36  1  0  0  0  0
 37 35  1  0  0  0  0
 38 39  1  0  0  0  0
 38 37  2  0  0  0  0
 39 33  2  0  0  0  0
 41 40  1  0  0  0  0
 42 39  1  0  0  0  0
 43 42  1  0  0  0  0
M  END
>  <minimizedAffinity>
-5.48705816

>  <minimizedRMSD>
0.671804011

$$$$
