
 OpenBabel03212520593D

 44 48  0  0  1  0  0  0  0  0999 V2000
   39.9620   77.5900   59.1810 C   0  0  0  0  0  0  0  0  0  0  0  0
   40.7810   76.5670   58.8020 C   0  0  0  0  0  0  0  0  0  0  0  0
   40.2720   75.8570   57.7000 C   0  0  0  0  0  0  0  0  0  0  0  0
   39.1110   76.1480   57.0830 N   0  0  0  0  0  0  0  0  0  0  0  0
   38.3690   77.1960   57.5480 C   0  0  0  0  0  0  0  0  0  0  0  0
   38.8070   77.9160   58.6040 N   0  0  0  0  0  0  0  0  0  0  0  0
   41.7200   76.2890   59.2570 H   0  0  0  0  0  0  0  0  0  0  0  0
   40.8260   75.0070   57.2870 H   0  0  0  0  0  0  0  0  0  0  0  0
   41.0240   80.5020   61.8290 C   0  0  0  0  0  0  0  0  0  0  0  0
   41.0180   79.2540   62.4120 C   0  0  0  0  0  0  0  0  0  0  0  0
   40.6780   78.2090   61.6240 C   0  0  0  0  0  0  0  0  0  0  0  0
   40.3580   78.4120   60.2990 C   0  0  0  0  0  0  0  0  0  0  0  0
   40.5380   80.2380   60.1010 S   0  0  0  0  0  0  0  0  0  0  0  0
   41.2700   79.0890   63.4550 H   0  0  0  0  0  0  0  0  0  0  0  0
   40.6140   77.1610   61.8870 H   0  0  0  0  0  0  0  0  0  0  0  0
   42.9890   83.3410   63.0740 C   0  0  0  0  0  0  0  0  0  0  0  0
   42.0490   84.0440   63.8740 C   0  0  0  0  0  0  0  0  0  0  0  0
   40.7520   83.5430   63.9820 C   0  0  0  0  0  0  0  0  0  0  0  0
   40.4510   82.4090   63.3150 N   0  0  0  0  0  0  0  0  0  0  0  0
   41.3690   81.7540   62.5550 C   0  0  0  0  0  0  0  0  0  0  0  0
   42.5970   82.2270   62.4520 N   0  0  0  0  0  0  0  0  0  0  0  0
   43.9890   83.7550   63.0090 H   0  0  0  0  0  0  0  0  0  0  0  0
   42.3440   84.9420   64.3820 H   0  0  0  0  0  0  0  0  0  0  0  0
   39.9980   84.0520   64.5870 H   0  0  0  0  0  0  0  0  0  0  0  0
   37.1300   77.4950   56.8690 C   0  0  0  0  0  0  0  0  0  0  0  0
   36.0950   76.9570   57.3000 O   0  0  0  0  0  0  0  0  0  0  0  0
   37.0550   78.4120   55.6710 C   0  0  1  0  0  0  0  0  0  0  0  0
   37.2790   79.8580   56.0290 C   0  0  0  0  0  0  0  0  0  0  0  0
   38.2450   79.1010   55.2320 C   0  0  2  0  0  0  0  0  0  0  0  0
   36.0460   78.3370   55.2090 H   0  0  0  0  0  0  0  0  0  0  0  0
   37.5530   80.1270   57.0850 H   0  0  0  0  0  0  0  0  0  0  0  0
   36.6450   80.6380   55.5750 H   0  0  0  0  0  0  0  0  0  0  0  0
   39.2100   78.8250   55.7430 H   0  0  0  0  0  0  0  0  0  0  0  0
   39.8080   79.7040   53.5040 C   0  0  0  0  0  0  0  0  0  0  0  0
   38.4730   79.5720   53.8550 C   0  0  0  0  0  0  0  0  0  0  0  0
   37.4960   79.8790   52.9310 C   0  0  0  0  0  0  0  0  0  0  0  0
   36.4660   79.7630   53.2430 H   0  0  0  0  0  0  0  0  0  0  0  0
   37.8950   80.3080   51.6830 C   0  0  0  0  0  3  0  0  0  0  0  0
   39.2110   80.4480   51.3050 C   0  0  0  0  0  3  0  0  0  0  0  0
   40.1780   80.1350   52.2460 C   0  0  0  0  0  0  0  0  0  0  0  0
   40.8610   79.4100   54.3920 O   0  0  0  0  0  0  0  0  0  0  0  0
   41.1530   78.4210   54.3460 H   0  0  0  0  0  0  0  0  0  0  0  0
   41.5180   80.2630   51.9070 O   0  0  0  0  0  0  0  0  0  0  0  0
   41.7650   79.9690   50.9620 H   0  0  0  0  0  0  0  0  0  0  0  0
  1 12  1  0  0  0  0
  2  1  1  0  0  0  0
  2  7  1  0  0  0  0
  3  2  2  0  0  0  0
  4  5  2  0  0  0  0
  4  3  1  0  0  0  0
  5  6  1  0  0  0  0
  6  1  2  0  0  0  0
  8  3  1  0  0  0  0
  9 10  2  0  0  0  0
  9 20  1  0  0  0  0
 10 14  1  0  0  0  0
 11 15  1  0  0  0  0
 11 10  1  0  0  0  0
 12 11  2  0  0  0  0
 13 12  1  0  0  0  0
 13  9  1  0  0  0  0
 16 17  1  0  0  0  0
 17 18  2  0  0  0  0
 17 23  1  0  0  0  0
 18 24  1  0  0  0  0
 19 18  1  0  0  0  0
 20 19  2  0  0  0  0
 21 20  1  0  0  0  0
 21 16  2  0  0  0  0
 22 16  1  0  0  0  0
 25 26  2  0  0  0  0
 25  5  1  0  0  0  0
 27 30  1  6  0  0  0
 27 28  1  0  0  0  0
 27 25  1  0  0  0  0
 28 31  1  0  0  0  0
 29 27  1  0  0  0  0
 29 33  1  1  0  0  0
 29 28  1  0  0  0  0
 32 28  1  0  0  0  0
 34 35  1  0  0  0  0
 34 41  1  0  0  0  0
 35 29  1  0  0  0  0
 36 37  1  0  0  0  0
 36 35  2  0  0  0  0
 38 36  1  0  0  0  0
 39 38  2  0  0  0  0
 39 40  1  0  0  0  0
 40 34  2  0  0  0  0
 42 41  1  0  0  0  0
 43 40  1  0  0  0  0
 44 43  1  0  0  0  0
M  END
>  <minimizedAffinity>
-6.58664608

>  <minimizedRMSD>
0.559704781

$$$$
