
 OpenBabel03212520053D

 43 47  0  0  0  0  0  0  0  0999 V2000
   40.6570   81.8300   57.0890 C   0  0  0  0  0  0  0  0  0  0  0  0
   41.7300   82.4060   56.3870 C   0  0  0  0  0  0  0  0  0  0  0  0
   42.5220   83.3030   57.0690 C   0  0  0  0  0  0  0  0  0  0  0  0
   42.2540   83.5990   58.3690 N   0  0  0  0  0  0  0  0  0  0  0  0
   41.2100   83.0210   59.0210 C   0  0  0  0  0  0  0  0  0  0  0  0
   40.4020   82.1320   58.3790 N   0  0  0  0  0  0  0  0  0  0  0  0
   39.9530   81.1160   56.6880 H   0  0  0  0  0  0  0  0  0  0  0  0
   41.7640   81.9960   55.4070 H   0  0  0  0  0  0  0  0  0  0  0  0
   39.6640   83.1170   60.9100 C   0  0  0  0  0  0  0  0  0  0  0  0
   40.9570   83.3170   60.4220 C   0  0  0  0  0  0  0  0  0  0  0  0
   41.9880   83.7690   61.2490 C   0  0  0  0  0  0  0  0  0  0  0  0
   41.7580   84.0320   62.5860 C   0  0  0  0  0  0  0  0  0  0  0  0
   42.4660   84.4590   63.6480 N   0  0  0  0  0  0  0  0  0  0  0  0
   41.6850   84.5280   64.7480 C   0  0  0  0  0  0  0  0  0  0  0  0
   40.4780   84.1330   64.3240 N   0  0  0  0  0  0  0  0  0  0  0  0
   40.4860   83.8230   63.0160 C   0  0  0  0  0  0  0  0  0  0  0  0
   39.4060   83.3770   62.2610 C   0  0  0  0  0  0  0  0  0  0  0  0
   38.8540   82.7720   60.2980 H   0  0  0  0  0  0  0  0  0  0  0  0
   42.9970   83.9260   60.8670 H   0  0  0  0  0  0  0  0  0  0  0  0
   43.4850   84.7000   63.6090 H   0  0  0  0  0  0  0  0  0  0  0  0
   41.9650   84.8340   65.7480 H   0  0  0  0  0  0  0  0  0  0  0  0
   38.4400   83.2430   62.6870 H   0  0  0  0  0  0  0  0  0  0  0  0
   42.4390   83.3360   54.0920 Cl  0  0  0  0  0  0  0  0  0  0  0  0
   43.7410   84.0250   55.0510 C   0  0  0  0  0  0  0  0  0  0  0  0
   43.6390   83.9460   56.4150 C   0  0  0  0  0  0  0  0  0  0  0  0
   44.7000   84.5370   57.0970 C   0  0  0  0  0  0  0  0  0  0  0  0
   45.7700   85.1520   56.4840 C   0  0  0  0  0  0  0  0  0  0  0  0
   45.8100   85.1940   55.0930 C   0  0  0  0  0  0  0  0  0  0  0  0
   47.1470   85.9610   54.2790 Cl  0  0  0  0  0  0  0  0  0  0  0  0
   44.7820   84.6240   54.3760 C   0  0  0  0  0  0  0  0  0  0  0  0
   44.7000   84.5210   58.1770 H   0  0  0  0  0  0  0  0  0  0  0  0
   46.5550   85.5870   57.0790 H   0  0  0  0  0  0  0  0  0  0  0  0
   45.2820   83.7160   52.0330 C   0  0  0  0  0  0  0  0  0  0  0  0
   44.8070   84.6600   52.9190 C   0  0  0  0  0  0  0  0  0  0  0  0
   44.2510   85.8550   52.4490 C   0  0  0  0  0  0  0  0  0  0  0  0
   43.8490   86.6640   53.0420 H   0  0  0  0  0  0  0  0  0  0  0  0
   44.1800   86.0870   51.0710 C   0  0  0  0  0  3  0  0  0  0  0  0
   44.6570   85.1400   50.1960 C   0  0  0  0  0  3  0  0  0  0  0  0
   45.2070   83.9560   50.6770 C   0  0  0  0  0  0  0  0  0  0  0  0
   45.7990   82.5950   52.6320 O   0  0  0  0  0  0  0  0  0  0  0  0
   46.5100   82.0870   52.1180 H   0  0  0  0  0  0  0  0  0  0  0  0
   45.7030   82.9660   49.8360 O   0  0  0  0  0  0  0  0  0  0  0  0
   45.1900   82.8030   48.9620 H   0  0  0  0  0  0  0  0  0  0  0  0
  1  6  1  0  0  0  0
  2  3  1  0  0  0  0
  2  1  2  0  0  0  0
  3  4  2  0  0  0  0
  4  5  1  0  0  0  0
  5 10  1  0  0  0  0
  6  5  2  0  0  0  0
  7  1  1  0  0  0  0
  8  2  1  0  0  0  0
  9 17  1  0  0  0  0
 10  9  2  0  0  0  0
 10 11  1  0  0  0  0
 11 12  2  0  0  0  0
 12 16  1  0  0  0  0
 12 13  1  0  0  0  0
 13 14  1  0  0  0  0
 14 21  1  0  0  0  0
 15 14  2  0  0  0  0
 16 15  1  0  0  0  0
 17 22  1  0  0  0  0
 17 16  2  0  0  0  0
 18  9  1  0  0  0  0
 19 11  1  0  0  0  0
 20 13  1  0  0  0  0
 23 24  1  0  0  0  0
 24 25  1  0  0  0  0
 25  3  1  0  0  0  0
 25 26  2  0  0  0  0
 26 31  1  0  0  0  0
 27 32  1  0  0  0  0
 27 26  1  0  0  0  0
 28 27  2  0  0  0  0
 29 28  1  0  0  0  0
 30 24  2  0  0  0  0
 30 28  1  0  0  0  0
 33 40  1  0  0  0  0
 33 34  1  0  0  0  0
 34 30  1  0  0  0  0
 35 34  2  0  0  0  0
 35 36  1  0  0  0  0
 37 35  1  0  0  0  0
 38 39  1  0  0  0  0
 38 37  2  0  0  0  0
 39 33  2  0  0  0  0
 41 40  1  0  0  0  0
 42 39  1  0  0  0  0
 43 42  1  0  0  0  0
M  END
>  <minimizedAffinity>
-5.15426302

>  <minimizedRMSD>
0.501288056

$$$$
