
 OpenBabel03212520453D

 20 21  0  0  0  0  0  0  0  0999 V2000
   41.9900   80.5060   61.6430 C   0  0  0  0  0  0  0  0  0  0  0  0
   40.7450   80.6240   61.0500 C   0  0  0  0  0  0  0  0  0  0  0  0
   40.2280   79.4730   60.5450 C   0  0  0  0  0  0  0  0  0  0  0  0
   39.2570   79.5170   60.0730 H   0  0  0  0  0  0  0  0  0  0  0  0
   40.8890   78.2610   60.6120 C   0  0  0  0  0  3  0  0  0  0  0  0
   42.1350   78.1850   61.2160 C   0  0  0  0  0  3  0  0  0  0  0  0
   42.7100   79.3320   61.7480 C   0  0  0  0  0  0  0  0  0  0  0  0
   40.1170   81.9410   61.0220 C   0  0  0  0  0  0  0  0  0  0  0  0
   40.1960   82.7340   59.8700 C   0  0  0  0  0  0  0  0  0  0  0  0
   39.6070   83.9950   59.8160 C   0  0  0  0  0  0  0  0  0  0  0  0
   38.9590   84.4000   60.9360 N   0  0  0  0  0  0  0  0  0  0  0  0
   38.8900   83.6330   62.0360 C   0  0  0  0  0  0  0  0  0  0  0  0
   39.4590   82.4250   62.0790 N   0  0  0  0  0  0  0  0  0  0  0  0
   40.6980   82.4270   58.9890 H   0  0  0  0  0  0  0  0  0  0  0  0
   39.6760   84.5980   58.9150 H   0  0  0  0  0  0  0  0  0  0  0  0
   38.3570   84.0400   62.8700 H   0  0  0  0  0  0  0  0  0  0  0  0
   42.6090   81.6270   62.1910 O   0  0  0  0  0  0  0  0  0  0  0  0
   43.0300   82.3100   61.5830 H   0  0  0  0  0  0  0  0  0  0  0  0
   43.9480   79.2570   62.3480 O   0  0  0  0  0  0  0  0  0  0  0  0
   44.4040   80.1500   62.5530 H   0  0  0  0  0  0  0  0  0  0  0  0
  1  7  1  0  0  0  0
  1 17  1  0  0  0  0
  2  1  2  0  0  0  0
  3  5  2  0  0  0  0
  3  2  1  0  0  0  0
  4  3  1  0  0  0  0
  5  6  1  0  0  0  0
  6  7  2  0  0  0  0
  7 19  1  0  0  0  0
  8  2  1  0  0  0  0
  8 13  1  0  0  0  0
  9  8  2  0  0  0  0
 10  9  1  0  0  0  0
 10 11  2  0  0  0  0
 11 12  1  0  0  0  0
 12 13  2  0  0  0  0
 12 16  1  0  0  0  0
 14  9  1  0  0  0  0
 15 10  1  0  0  0  0
 18 17  1  0  0  0  0
 19 20  1  0  0  0  0
M  END
>  <minimizedAffinity>
-4.76437187

>  <minimizedRMSD>
0.297013402

$$$$
