
 OpenBabel03212520063D

 43 47  0  0  0  0  0  0  0  0999 V2000
   42.3620   73.2710   56.5310 C   0  0  0  0  0  0  0  0  0  0  0  0
   42.2700   71.9490   57.0010 C   0  0  0  0  0  0  0  0  0  0  0  0
   41.7930   71.7650   58.2800 C   0  0  0  0  0  0  0  0  0  0  0  0
   41.4310   72.8370   59.0330 N   0  0  0  0  0  0  0  0  0  0  0  0
   41.5280   74.1040   58.5480 C   0  0  0  0  0  0  0  0  0  0  0  0
   41.9990   74.3260   57.2900 N   0  0  0  0  0  0  0  0  0  0  0  0
   42.7170   73.5700   55.5560 H   0  0  0  0  0  0  0  0  0  0  0  0
   42.5700   71.2840   56.2280 H   0  0  0  0  0  0  0  0  0  0  0  0
   39.9940   75.0700   60.1850 C   0  0  0  0  0  0  0  0  0  0  0  0
   41.1010   75.2390   59.3500 C   0  0  0  0  0  0  0  0  0  0  0  0
   41.7960   76.4490   59.2940 C   0  0  0  0  0  0  0  0  0  0  0  0
   41.4070   77.5250   60.0690 C   0  0  0  0  0  0  0  0  0  0  0  0
   41.8080   78.7920   60.2800 N   0  0  0  0  0  0  0  0  0  0  0  0
   41.0170   79.4010   61.1890 C   0  0  0  0  0  0  0  0  0  0  0  0
   40.1190   78.4670   61.5260 N   0  0  0  0  0  0  0  0  0  0  0  0
   40.3250   77.3150   60.8660 C   0  0  0  0  0  0  0  0  0  0  0  0
   39.5810   76.1460   60.9800 C   0  0  0  0  0  0  0  0  0  0  0  0
   39.4430   74.1530   60.2480 H   0  0  0  0  0  0  0  0  0  0  0  0
   42.6600   76.5790   58.6410 H   0  0  0  0  0  0  0  0  0  0  0  0
   42.6280   79.2300   59.7950 H   0  0  0  0  0  0  0  0  0  0  0  0
   41.0870   80.4140   61.5640 H   0  0  0  0  0  0  0  0  0  0  0  0
   38.7450   76.0740   61.6340 H   0  0  0  0  0  0  0  0  0  0  0  0
   42.6930   71.4650   61.1040 Cl  0  0  0  0  0  0  0  0  0  0  0  0
   42.0650   70.1480   60.1220 C   0  0  0  0  0  0  0  0  0  0  0  0
   41.6790   70.4370   58.8400 C   0  0  0  0  0  0  0  0  0  0  0  0
   41.1730   69.3430   58.1410 C   0  0  0  0  0  0  0  0  0  0  0  0
   41.0590   68.0740   58.6640 C   0  0  0  0  0  0  0  0  0  0  0  0
   41.4730   67.8510   59.9740 C   0  0  0  0  0  0  0  0  0  0  0  0
   41.3480   66.2590   60.6730 Cl  0  0  0  0  0  0  0  0  0  0  0  0
   41.9790   68.9030   60.7040 C   0  0  0  0  0  0  0  0  0  0  0  0
   40.8430   69.4830   57.1220 H   0  0  0  0  0  0  0  0  0  0  0  0
   40.6580   67.2760   58.0620 H   0  0  0  0  0  0  0  0  0  0  0  0
   43.6880   68.4640   62.5630 C   0  0  0  0  0  0  0  0  0  0  0  0
   42.4170   68.6880   62.0780 C   0  0  0  0  0  0  0  0  0  0  0  0
   41.3250   68.7330   62.9530 C   0  0  0  0  0  0  0  0  0  0  0  0
   40.2890   68.9000   62.6940 H   0  0  0  0  0  0  0  0  0  0  0  0
   41.5320   68.5490   64.3250 C   0  0  0  0  0  3  0  0  0  0  0  0
   42.8040   68.3270   64.7970 C   0  0  0  0  0  3  0  0  0  0  0  0
   43.8810   68.2840   63.9160 C   0  0  0  0  0  0  0  0  0  0  0  0
   44.6610   68.4460   61.5940 O   0  0  0  0  0  0  0  0  0  0  0  0
   45.4910   67.8980   61.7880 H   0  0  0  0  0  0  0  0  0  0  0  0
   45.1860   68.0630   64.3400 O   0  0  0  0  0  0  0  0  0  0  0  0
   45.4600   68.4880   65.2340 H   0  0  0  0  0  0  0  0  0  0  0  0
  1  2  2  0  0  0  0
  1  6  1  0  0  0  0
  2  3  1  0  0  0  0
  3 25  1  0  0  0  0
  3  4  2  0  0  0  0
  5  4  1  0  0  0  0
  5 10  1  0  0  0  0
  6  5  2  0  0  0  0
  7  1  1  0  0  0  0
  8  2  1  0  0  0  0
  9 18  1  0  0  0  0
  9 17  1  0  0  0  0
 10  9  2  0  0  0  0
 11 10  1  0  0  0  0
 11 12  2  0  0  0  0
 12 13  1  0  0  0  0
 12 16  1  0  0  0  0
 13 14  1  0  0  0  0
 14 15  2  0  0  0  0
 14 21  1  0  0  0  0
 16 17  2  0  0  0  0
 16 15  1  0  0  0  0
 17 22  1  0  0  0  0
 19 11  1  0  0  0  0
 20 13  1  0  0  0  0
 24 30  1  0  0  0  0
 24 23  1  0  0  0  0
 25 24  2  0  0  0  0
 26 27  2  0  0  0  0
 26 25  1  0  0  0  0
 27 28  1  0  0  0  0
 28 29  1  0  0  0  0
 28 30  2  0  0  0  0
 30 34  1  0  0  0  0
 31 26  1  0  0  0  0
 32 27  1  0  0  0  0
 33 39  1  0  0  0  0
 34 33  2  0  0  0  0
 34 35  1  0  0  0  0
 35 37  2  0  0  0  0
 36 35  1  0  0  0  0
 37 38  1  0  0  0  0
 39 42  1  0  0  0  0
 39 38  2  0  0  0  0
 40 41  1  0  0  0  0
 40 33  1  0  0  0  0
 42 43  1  0  0  0  0
M  END
>  <minimizedAffinity>
-8.746315

$$$$

 OpenBabel03212520063D

 43 47  0  0  0  0  0  0  0  0999 V2000
   44.0430   70.5460   58.3780 C   0  0  0  0  0  0  0  0  0  0  0  0
   43.1980   71.6420   58.1320 C   0  0  0  0  0  0  0  0  0  0  0  0
   41.9170   71.5780   58.6350 C   0  0  0  0  0  0  0  0  0  0  0  0
   41.5150   70.4870   59.3400 N   0  0  0  0  0  0  0  0  0  0  0  0
   42.3580   69.4440   59.5630 C   0  0  0  0  0  0  0  0  0  0  0  0
   43.6300   69.4690   59.0790 N   0  0  0  0  0  0  0  0  0  0  0  0
   45.0660   70.4520   58.0470 H   0  0  0  0  0  0  0  0  0  0  0  0
   43.7400   72.3850   57.6000 H   0  0  0  0  0  0  0  0  0  0  0  0
   41.7530   67.0810   59.6920 C   0  0  0  0  0  0  0  0  0  0  0  0
   41.9270   68.3000   60.3510 C   0  0  0  0  0  0  0  0  0  0  0  0
   41.7160   68.4250   61.7260 C   0  0  0  0  0  0  0  0  0  0  0  0
   41.3260   67.3360   62.4830 C   0  0  0  0  0  0  0  0  0  0  0  0
   41.0400   67.0750   63.7720 N   0  0  0  0  0  0  0  0  0  0  0  0
   40.7070   65.7780   63.9370 C   0  0  0  0  0  0  0  0  0  0  0  0
   40.7950   65.2530   62.7080 N   0  0  0  0  0  0  0  0  0  0  0  0
   41.1690   66.1710   61.8000 C   0  0  0  0  0  0  0  0  0  0  0  0
   41.3580   65.9630   60.4380 C   0  0  0  0  0  0  0  0  0  0  0  0
   41.9080   66.9570   58.6390 H   0  0  0  0  0  0  0  0  0  0  0  0
   41.8510   69.3770   62.2390 H   0  0  0  0  0  0  0  0  0  0  0  0
   41.0790   67.7960   64.5330 H   0  0  0  0  0  0  0  0  0  0  0  0
   40.4290   65.2700   64.8520 H   0  0  0  0  0  0  0  0  0  0  0  0
   41.2100   65.0100   59.9890 H   0  0  0  0  0  0  0  0  0  0  0  0
   42.2120   73.9300   60.4390 Cl  0  0  0  0  0  0  0  0  0  0  0  0
   40.9940   73.7990   59.1780 C   0  0  0  0  0  0  0  0  0  0  0  0
   40.9850   72.6610   58.4160 C   0  0  0  0  0  0  0  0  0  0  0  0
   40.0040   72.6500   57.4270 C   0  0  0  0  0  0  0  0  0  0  0  0
   39.1100   73.6750   57.2100 C   0  0  0  0  0  0  0  0  0  0  0  0
   39.1750   74.8030   58.0240 C   0  0  0  0  0  0  0  0  0  0  0  0
   38.0610   76.1210   57.7830 Cl  0  0  0  0  0  0  0  0  0  0  0  0
   40.1290   74.8590   59.0140 C   0  0  0  0  0  0  0  0  0  0  0  0
   39.9260   71.7890   56.7790 H   0  0  0  0  0  0  0  0  0  0  0  0
   38.3770   73.5950   56.4250 H   0  0  0  0  0  0  0  0  0  0  0  0
   39.6260   76.2560   61.1030 C   0  0  0  0  0  0  0  0  0  0  0  0
   40.2130   76.0320   59.8750 C   0  0  0  0  0  0  0  0  0  0  0  0
   41.0210   77.0130   59.2890 C   0  0  0  0  0  0  0  0  0  0  0  0
   41.5310   76.9540   58.3380 H   0  0  0  0  0  0  0  0  0  0  0  0
   41.2320   78.2240   59.9590 C   0  0  0  0  0  3  0  0  0  0  0  0
   40.6420   78.4360   61.1830 C   0  0  0  0  0  3  0  0  0  0  0  0
   39.8400   77.4520   61.7530 C   0  0  0  0  0  0  0  0  0  0  0  0
   38.8610   75.2100   61.5560 O   0  0  0  0  0  0  0  0  0  0  0  0
   38.1020   75.4380   62.1890 H   0  0  0  0  0  0  0  0  0  0  0  0
   39.2200   77.6150   62.9880 O   0  0  0  0  0  0  0  0  0  0  0  0
   39.7510   78.1190   63.7080 H   0  0  0  0  0  0  0  0  0  0  0  0
  1  6  1  0  0  0  0
  2  1  2  0  0  0  0
  2  3  1  0  0  0  0
  3  4  2  0  0  0  0
  4  5  1  0  0  0  0
  5 10  1  0  0  0  0
  6  5  2  0  0  0  0
  7  1  1  0  0  0  0
  8  2  1  0  0  0  0
  9 10  2  0  0  0  0
  9 17  1  0  0  0  0
 10 11  1  0  0  0  0
 11 19  1  0  0  0  0
 11 12  2  0  0  0  0
 12 13  1  0  0  0  0
 13 14  1  0  0  0  0
 13 20  1  0  0  0  0
 14 21  1  0  0  0  0
 15 14  2  0  0  0  0
 16 12  1  0  0  0  0
 16 15  1  0  0  0  0
 17 16  2  0  0  0  0
 18  9  1  0  0  0  0
 22 17  1  0  0  0  0
 24 23  1  0  0  0  0
 25  3  1  0  0  0  0
 25 24  2  0  0  0  0
 26 25  1  0  0  0  0
 27 26  2  0  0  0  0
 27 28  1  0  0  0  0
 28 30  2  0  0  0  0
 29 28  1  0  0  0  0
 30 24  1  0  0  0  0
 30 34  1  0  0  0  0
 31 26  1  0  0  0  0
 32 27  1  0  0  0  0
 33 40  1  0  0  0  0
 33 39  1  0  0  0  0
 34 33  2  0  0  0  0
 35 34  1  0  0  0  0
 35 37  2  0  0  0  0
 36 35  1  0  0  0  0
 37 38  1  0  0  0  0
 38 39  2  0  0  0  0
 39 42  1  0  0  0  0
 40 41  1  0  0  0  0
 42 43  1  0  0  0  0
M  END
>  <minimizedAffinity>
-8.42911434

$$$$

 OpenBabel03212520063D

 43 47  0  0  0  0  0  0  0  0999 V2000
   43.5540   69.8700   58.1210 C   0  0  0  0  0  0  0  0  0  0  0  0
   42.7550   70.9790   57.7920 C   0  0  0  0  0  0  0  0  0  0  0  0
   41.6710   71.2400   58.6010 C   0  0  0  0  0  0  0  0  0  0  0  0
   41.4110   70.4420   59.6710 N   0  0  0  0  0  0  0  0  0  0  0  0
   42.2060   69.3780   59.9650 C   0  0  0  0  0  0  0  0  0  0  0  0
   43.2840   69.0860   59.1860 N   0  0  0  0  0  0  0  0  0  0  0  0
   44.4290   69.5420   57.5820 H   0  0  0  0  0  0  0  0  0  0  0  0
   43.1730   71.4680   56.9470 H   0  0  0  0  0  0  0  0  0  0  0  0
   42.4930   68.9510   62.3530 C   0  0  0  0  0  0  0  0  0  0  0  0
   41.9390   68.5560   61.1340 C   0  0  0  0  0  0  0  0  0  0  0  0
   41.1350   67.4170   61.0320 C   0  0  0  0  0  0  0  0  0  0  0  0
   40.8620   66.6430   62.1440 C   0  0  0  0  0  0  0  0  0  0  0  0
   40.1620   65.5290   62.4280 N   0  0  0  0  0  0  0  0  0  0  0  0
   40.2560   65.2260   63.7410 C   0  0  0  0  0  0  0  0  0  0  0  0
   41.0360   66.1880   64.2490 N   0  0  0  0  0  0  0  0  0  0  0  0
   41.4220   67.0660   63.3080 C   0  0  0  0  0  0  0  0  0  0  0  0
   42.2300   68.1820   63.4930 C   0  0  0  0  0  0  0  0  0  0  0  0
   43.1130   69.8190   62.4600 H   0  0  0  0  0  0  0  0  0  0  0  0
   40.7040   67.1090   60.0800 H   0  0  0  0  0  0  0  0  0  0  0  0
   39.6220   64.9830   61.7140 H   0  0  0  0  0  0  0  0  0  0  0  0
   39.8060   64.3950   64.2680 H   0  0  0  0  0  0  0  0  0  0  0  0
   42.6260   68.4370   64.4480 H   0  0  0  0  0  0  0  0  0  0  0  0
   42.1840   73.7160   60.1740 Cl  0  0  0  0  0  0  0  0  0  0  0  0
   40.9060   73.5530   58.9790 C   0  0  0  0  0  0  0  0  0  0  0  0
   40.7950   72.3550   58.3230 C   0  0  0  0  0  0  0  0  0  0  0  0
   39.7720   72.3200   57.3780 C   0  0  0  0  0  0  0  0  0  0  0  0
   38.9320   73.3760   57.1050 C   0  0  0  0  0  0  0  0  0  0  0  0
   39.0990   74.5640   57.8110 C   0  0  0  0  0  0  0  0  0  0  0  0
   38.0550   75.9230   57.4970 Cl  0  0  0  0  0  0  0  0  0  0  0  0
   40.0980   74.6460   58.7550 C   0  0  0  0  0  0  0  0  0  0  0  0
   39.6150   71.4120   56.8140 H   0  0  0  0  0  0  0  0  0  0  0  0
   38.1610   73.2740   56.3590 H   0  0  0  0  0  0  0  0  0  0  0  0
   41.0480   76.9880   59.1820 C   0  0  0  0  0  0  0  0  0  0  0  0
   40.2890   75.8830   59.5030 C   0  0  0  0  0  0  0  0  0  0  0  0
   39.5610   75.8480   60.6990 C   0  0  0  0  0  0  0  0  0  0  0  0
   38.9350   75.0430   61.0570 H   0  0  0  0  0  0  0  0  0  0  0  0
   39.6090   76.9450   61.5670 C   0  0  0  0  0  3  0  0  0  0  0  0
   40.3690   78.0420   61.2360 C   0  0  0  0  0  3  0  0  0  0  0  0
   41.0880   78.0620   60.0440 C   0  0  0  0  0  0  0  0  0  0  0  0
   41.7070   76.8840   57.9820 O   0  0  0  0  0  0  0  0  0  0  0  0
   42.5620   77.4190   57.8810 H   0  0  0  0  0  0  0  0  0  0  0  0
   41.8710   79.1460   59.6620 O   0  0  0  0  0  0  0  0  0  0  0  0
   41.5100   80.0800   59.8890 H   0  0  0  0  0  0  0  0  0  0  0  0
  1  6  1  0  0  0  0
  2  1  2  0  0  0  0
  2  3  1  0  0  0  0
  3  4  2  0  0  0  0
  4  5  1  0  0  0  0
  5 10  1  0  0  0  0
  6  5  2  0  0  0  0
  7  1  1  0  0  0  0
  8  2  1  0  0  0  0
  9 18  1  0  0  0  0
  9 17  1  0  0  0  0
 10  9  2  0  0  0  0
 11 10  1  0  0  0  0
 11 12  2  0  0  0  0
 12 13  1  0  0  0  0
 12 16  1  0  0  0  0
 13 14  1  0  0  0  0
 14 15  2  0  0  0  0
 14 21  1  0  0  0  0
 16 17  2  0  0  0  0
 16 15  1  0  0  0  0
 17 22  1  0  0  0  0
 19 11  1  0  0  0  0
 20 13  1  0  0  0  0
 24 23  1  0  0  0  0
 25  3  1  0  0  0  0
 25 24  2  0  0  0  0
 26 25  1  0  0  0  0
 27 26  2  0  0  0  0
 27 28  1  0  0  0  0
 28 30  2  0  0  0  0
 29 28  1  0  0  0  0
 30 24  1  0  0  0  0
 30 34  1  0  0  0  0
 31 26  1  0  0  0  0
 32 27  1  0  0  0  0
 33 34  2  0  0  0  0
 33 39  1  0  0  0  0
 34 35  1  0  0  0  0
 35 36  1  0  0  0  0
 35 37  2  0  0  0  0
 38 37  1  0  0  0  0
 39 38  2  0  0  0  0
 40 33  1  0  0  0  0
 41 40  1  0  0  0  0
 42 43  1  0  0  0  0
 42 39  1  0  0  0  0
M  END
>  <minimizedAffinity>
-7.99964476

$$$$

 OpenBabel03212520063D

 43 47  0  0  0  0  0  0  0  0999 V2000
   45.1150   73.7290   58.5430 C   0  0  0  0  0  0  0  0  0  0  0  0
   44.2530   74.8240   58.3540 C   0  0  0  0  0  0  0  0  0  0  0  0
   43.0230   74.7740   58.9730 C   0  0  0  0  0  0  0  0  0  0  0  0
   42.6850   73.6980   59.7330 N   0  0  0  0  0  0  0  0  0  0  0  0
   43.5430   72.6570   59.8990 C   0  0  0  0  0  0  0  0  0  0  0  0
   44.7660   72.6680   59.3000 N   0  0  0  0  0  0  0  0  0  0  0  0
   46.1030   73.6260   58.1220 H   0  0  0  0  0  0  0  0  0  0  0  0
   44.7450   75.5550   57.7600 H   0  0  0  0  0  0  0  0  0  0  0  0
   43.6610   70.2660   60.3880 C   0  0  0  0  0  0  0  0  0  0  0  0
   43.1850   71.5300   60.7450 C   0  0  0  0  0  0  0  0  0  0  0  0
   42.4030   71.7200   61.8870 C   0  0  0  0  0  0  0  0  0  0  0  0
   42.0760   70.6550   62.7050 C   0  0  0  0  0  0  0  0  0  0  0  0
   41.3780   70.4540   63.8380 N   0  0  0  0  0  0  0  0  0  0  0  0
   41.4030   69.1510   64.1910 C   0  0  0  0  0  0  0  0  0  0  0  0
   42.1360   68.5630   63.2380 N   0  0  0  0  0  0  0  0  0  0  0  0
   42.5620   69.4460   62.3190 C   0  0  0  0  0  0  0  0  0  0  0  0
   43.3430   69.1720   61.2020 C   0  0  0  0  0  0  0  0  0  0  0  0
   44.2630   70.0920   59.5180 H   0  0  0  0  0  0  0  0  0  0  0  0
   42.0310   72.7070   62.1640 H   0  0  0  0  0  0  0  0  0  0  0  0
   40.8880   71.2180   64.3630 H   0  0  0  0  0  0  0  0  0  0  0  0
   40.9380   68.6820   65.0490 H   0  0  0  0  0  0  0  0  0  0  0  0
   43.6790   68.1880   60.9790 H   0  0  0  0  0  0  0  0  0  0  0  0
   40.9660   74.4060   56.8510 Cl  0  0  0  0  0  0  0  0  0  0  0  0
   41.0830   75.8290   57.8760 C   0  0  0  0  0  0  0  0  0  0  0  0
   42.0760   75.8550   58.8200 C   0  0  0  0  0  0  0  0  0  0  0  0
   42.0830   77.0070   59.6020 C   0  0  0  0  0  0  0  0  0  0  0  0
   41.1860   78.0440   59.4650 C   0  0  0  0  0  0  0  0  0  0  0  0
   40.2030   77.9520   58.4830 C   0  0  0  0  0  0  0  0  0  0  0  0
   39.0500   79.2420   58.2760 Cl  0  0  0  0  0  0  0  0  0  0  0  0
   40.1560   76.8300   57.6860 C   0  0  0  0  0  0  0  0  0  0  0  0
   42.8330   77.1100   60.3730 H   0  0  0  0  0  0  0  0  0  0  0  0
   41.2540   78.9050   60.1080 H   0  0  0  0  0  0  0  0  0  0  0  0
   39.1640   77.1490   55.3450 C   0  0  0  0  0  0  0  0  0  0  0  0
   39.1340   76.7170   56.6540 C   0  0  0  0  0  0  0  0  0  0  0  0
   38.0010   76.0640   57.1560 C   0  0  0  0  0  0  0  0  0  0  0  0
   37.8610   75.6820   58.1570 H   0  0  0  0  0  0  0  0  0  0  0  0
   36.9000   75.8520   56.3200 C   0  0  0  0  0  3  0  0  0  0  0  0
   36.9410   76.2880   55.0160 C   0  0  0  0  0  3  0  0  0  0  0  0
   38.0730   76.9360   54.5300 C   0  0  0  0  0  0  0  0  0  0  0  0
   40.3350   77.7720   54.9890 O   0  0  0  0  0  0  0  0  0  0  0  0
   40.2820   78.4540   54.2410 H   0  0  0  0  0  0  0  0  0  0  0  0
   38.1670   77.3960   53.2210 O   0  0  0  0  0  0  0  0  0  0  0  0
   37.7380   76.8110   52.4940 H   0  0  0  0  0  0  0  0  0  0  0  0
  1  6  1  0  0  0  0
  2  1  2  0  0  0  0
  2  3  1  0  0  0  0
  3  4  2  0  0  0  0
  4  5  1  0  0  0  0
  5 10  1  0  0  0  0
  6  5  2  0  0  0  0
  7  1  1  0  0  0  0
  8  2  1  0  0  0  0
  9 10  2  0  0  0  0
  9 17  1  0  0  0  0
 10 11  1  0  0  0  0
 11 19  1  0  0  0  0
 11 12  2  0  0  0  0
 12 13  1  0  0  0  0
 13 14  1  0  0  0  0
 13 20  1  0  0  0  0
 14 21  1  0  0  0  0
 15 14  2  0  0  0  0
 16 12  1  0  0  0  0
 16 15  1  0  0  0  0
 17 16  2  0  0  0  0
 18  9  1  0  0  0  0
 22 17  1  0  0  0  0
 23 24  1  0  0  0  0
 24 25  1  0  0  0  0
 25  3  1  0  0  0  0
 25 26  2  0  0  0  0
 26 31  1  0  0  0  0
 27 26  1  0  0  0  0
 27 32  1  0  0  0  0
 28 27  2  0  0  0  0
 29 28  1  0  0  0  0
 30 24  2  0  0  0  0
 30 28  1  0  0  0  0
 33 34  1  0  0  0  0
 34 35  2  0  0  0  0
 34 30  1  0  0  0  0
 35 36  1  0  0  0  0
 37 35  1  0  0  0  0
 38 37  2  0  0  0  0
 39 38  1  0  0  0  0
 39 33  2  0  0  0  0
 40 33  1  0  0  0  0
 41 40  1  0  0  0  0
 42 39  1  0  0  0  0
 43 42  1  0  0  0  0
M  END
>  <minimizedAffinity>
-7.82871056

$$$$

 OpenBabel03212520063D

 43 47  0  0  0  0  0  0  0  0999 V2000
   43.6700   74.5480   59.5790 C   0  0  0  0  0  0  0  0  0  0  0  0
   43.6150   73.4000   60.3900 C   0  0  0  0  0  0  0  0  0  0  0  0
   42.3850   72.8030   60.5570 C   0  0  0  0  0  0  0  0  0  0  0  0
   41.2860   73.3230   59.9470 N   0  0  0  0  0  0  0  0  0  0  0  0
   41.3740   74.4320   59.1650 C   0  0  0  0  0  0  0  0  0  0  0  0
   42.5720   75.0520   58.9800 N   0  0  0  0  0  0  0  0  0  0  0  0
   44.5580   75.1210   59.3590 H   0  0  0  0  0  0  0  0  0  0  0  0
   44.5960   73.1630   60.7220 H   0  0  0  0  0  0  0  0  0  0  0  0
   39.9230   76.3180   58.6140 C   0  0  0  0  0  0  0  0  0  0  0  0
   40.1980   74.9550   58.4880 C   0  0  0  0  0  0  0  0  0  0  0  0
   39.3870   74.1130   57.7230 C   0  0  0  0  0  0  0  0  0  0  0  0
   38.2800   74.6090   57.0610 C   0  0  0  0  0  0  0  0  0  0  0  0
   37.3050   74.1320   56.2640 N   0  0  0  0  0  0  0  0  0  0  0  0
   36.4600   75.1200   55.8980 C   0  0  0  0  0  0  0  0  0  0  0  0
   36.9470   76.2130   56.4970 N   0  0  0  0  0  0  0  0  0  0  0  0
   38.0520   75.9410   57.2120 C   0  0  0  0  0  0  0  0  0  0  0  0
   38.8070   76.8440   57.9520 C   0  0  0  0  0  0  0  0  0  0  0  0
   40.5280   76.9860   59.1940 H   0  0  0  0  0  0  0  0  0  0  0  0
   39.6020   73.0490   57.6270 H   0  0  0  0  0  0  0  0  0  0  0  0
   37.2300   73.1270   55.9760 H   0  0  0  0  0  0  0  0  0  0  0  0
   35.5850   75.0490   55.2640 H   0  0  0  0  0  0  0  0  0  0  0  0
   38.5490   77.8740   58.0120 H   0  0  0  0  0  0  0  0  0  0  0  0
   43.1870   70.2270   59.2960 Cl  0  0  0  0  0  0  0  0  0  0  0  0
   42.5610   70.3720   60.9320 C   0  0  0  0  0  0  0  0  0  0  0  0
   42.2430   71.6260   61.3840 C   0  0  0  0  0  0  0  0  0  0  0  0
   41.7780   71.6540   62.6970 C   0  0  0  0  0  0  0  0  0  0  0  0
   41.6380   70.5390   63.4930 C   0  0  0  0  0  0  0  0  0  0  0  0
   41.9780   69.2950   62.9690 C   0  0  0  0  0  0  0  0  0  0  0  0
   41.8140   67.8600   63.9440 Cl  0  0  0  0  0  0  0  0  0  0  0  0
   42.4440   69.2190   61.6760 C   0  0  0  0  0  0  0  0  0  0  0  0
   41.5040   72.6030   63.1330 H   0  0  0  0  0  0  0  0  0  0  0  0
   41.2700   70.6380   64.5010 H   0  0  0  0  0  0  0  0  0  0  0  0
   44.0310   67.2940   61.0910 C   0  0  0  0  0  0  0  0  0  0  0  0
   42.8060   67.9250   61.1100 C   0  0  0  0  0  0  0  0  0  0  0  0
   41.6880   67.3160   60.5280 C   0  0  0  0  0  0  0  0  0  0  0  0
   40.6830   67.7090   60.4800 H   0  0  0  0  0  0  0  0  0  0  0  0
   41.8230   66.0590   59.9260 C   0  0  0  0  0  3  0  0  0  0  0  0
   43.0500   65.4390   59.9140 C   0  0  0  0  0  3  0  0  0  0  0  0
   44.1530   66.0570   60.4960 C   0  0  0  0  0  0  0  0  0  0  0  0
   45.0370   68.0060   61.6980 O   0  0  0  0  0  0  0  0  0  0  0  0
   45.9810   67.8330   61.3730 H   0  0  0  0  0  0  0  0  0  0  0  0
   45.4150   65.4730   60.5100 O   0  0  0  0  0  0  0  0  0  0  0  0
   45.4520   64.4560   60.6420 H   0  0  0  0  0  0  0  0  0  0  0  0
  1  2  1  0  0  0  0
  2  3  2  0  0  0  0
  2  8  1  0  0  0  0
  3 25  1  0  0  0  0
  4  3  1  0  0  0  0
  5  4  2  0  0  0  0
  6  5  1  0  0  0  0
  6  1  2  0  0  0  0
  7  1  1  0  0  0  0
  9 18  1  0  0  0  0
 10  9  1  0  0  0  0
 10  5  1  0  0  0  0
 11 10  2  0  0  0  0
 12 16  2  0  0  0  0
 12 11  1  0  0  0  0
 13 12  1  0  0  0  0
 14 13  1  0  0  0  0
 14 15  2  0  0  0  0
 15 16  1  0  0  0  0
 16 17  1  0  0  0  0
 17 22  1  0  0  0  0
 17  9  2  0  0  0  0
 19 11  1  0  0  0  0
 20 13  1  0  0  0  0
 21 14  1  0  0  0  0
 23 24  1  0  0  0  0
 24 25  2  0  0  0  0
 24 30  1  0  0  0  0
 25 26  1  0  0  0  0
 26 31  1  0  0  0  0
 26 27  2  0  0  0  0
 27 32  1  0  0  0  0
 28 27  1  0  0  0  0
 28 29  1  0  0  0  0
 30 28  2  0  0  0  0
 33 34  1  0  0  0  0
 33 40  1  0  0  0  0
 34 30  1  0  0  0  0
 35 34  2  0  0  0  0
 36 35  1  0  0  0  0
 37 35  1  0  0  0  0
 38 37  2  0  0  0  0
 38 39  1  0  0  0  0
 39 42  1  0  0  0  0
 39 33  2  0  0  0  0
 41 40  1  0  0  0  0
 42 43  1  0  0  0  0
M  END
>  <minimizedAffinity>
-7.77306795

$$$$

 OpenBabel03212520063D

 43 47  0  0  0  0  0  0  0  0999 V2000
   44.3100   74.2600   60.0240 C   0  0  0  0  0  0  0  0  0  0  0  0
   43.3450   75.0260   59.3480 C   0  0  0  0  0  0  0  0  0  0  0  0
   42.0600   74.5310   59.3050 C   0  0  0  0  0  0  0  0  0  0  0  0
   41.7660   73.3470   59.9050 N   0  0  0  0  0  0  0  0  0  0  0  0
   42.7220   72.6310   60.5550 C   0  0  0  0  0  0  0  0  0  0  0  0
   44.0040   73.0860   60.6150 N   0  0  0  0  0  0  0  0  0  0  0  0
   45.3520   74.5170   60.1380 H   0  0  0  0  0  0  0  0  0  0  0  0
   43.7970   75.9220   58.9980 H   0  0  0  0  0  0  0  0  0  0  0  0
   42.4380   70.2060   60.4790 C   0  0  0  0  0  0  0  0  0  0  0  0
   42.3850   71.3850   61.2250 C   0  0  0  0  0  0  0  0  0  0  0  0
   42.0400   71.3780   62.5790 C   0  0  0  0  0  0  0  0  0  0  0  0
   41.7390   70.1940   63.2250 C   0  0  0  0  0  0  0  0  0  0  0  0
   41.3810   69.8030   64.4630 N   0  0  0  0  0  0  0  0  0  0  0  0
   41.2150   68.4640   64.5130 C   0  0  0  0  0  0  0  0  0  0  0  0
   41.4810   68.0490   63.2690 N   0  0  0  0  0  0  0  0  0  0  0  0
   41.8030   69.0730   62.4600 C   0  0  0  0  0  0  0  0  0  0  0  0
   42.1370   68.9940   61.1120 C   0  0  0  0  0  0  0  0  0  0  0  0
   42.7000   70.1820   59.4390 H   0  0  0  0  0  0  0  0  0  0  0  0
   41.9980   72.2990   63.1600 H   0  0  0  0  0  0  0  0  0  0  0  0
   41.2530   70.4640   65.2670 H   0  0  0  0  0  0  0  0  0  0  0  0
   40.9310   67.8580   65.3640 H   0  0  0  0  0  0  0  0  0  0  0  0
   42.1610   68.0660   60.5930 H   0  0  0  0  0  0  0  0  0  0  0  0
   41.9760   74.2000   56.3460 Cl  0  0  0  0  0  0  0  0  0  0  0  0
   40.8610   75.2070   57.2590 C   0  0  0  0  0  0  0  0  0  0  0  0
   41.0140   75.2550   58.6200 C   0  0  0  0  0  0  0  0  0  0  0  0
   40.0760   76.0570   59.2670 C   0  0  0  0  0  0  0  0  0  0  0  0
   39.0750   76.7510   58.6250 C   0  0  0  0  0  0  0  0  0  0  0  0
   38.9790   76.6590   57.2390 C   0  0  0  0  0  0  0  0  0  0  0  0
   37.7280   77.5240   56.3880 Cl  0  0  0  0  0  0  0  0  0  0  0  0
   39.8840   75.8770   56.5570 C   0  0  0  0  0  0  0  0  0  0  0  0
   40.1220   76.1510   60.3420 H   0  0  0  0  0  0  0  0  0  0  0  0
   38.3850   77.3530   59.1930 H   0  0  0  0  0  0  0  0  0  0  0  0
   39.0660   74.8880   54.3390 C   0  0  0  0  0  0  0  0  0  0  0  0
   39.7990   75.7680   55.1050 C   0  0  0  0  0  0  0  0  0  0  0  0
   40.6090   76.7330   54.4940 C   0  0  0  0  0  0  0  0  0  0  0  0
   41.2260   77.4720   54.9850 H   0  0  0  0  0  0  0  0  0  0  0  0
   40.6690   76.7980   53.0970 C   0  0  0  0  0  3  0  0  0  0  0  0
   39.9330   75.9150   52.3430 C   0  0  0  0  0  3  0  0  0  0  0  0
   39.1330   74.9600   52.9640 C   0  0  0  0  0  0  0  0  0  0  0  0
   38.3180   73.9980   55.0700 O   0  0  0  0  0  0  0  0  0  0  0  0
   38.1090   73.1080   54.6330 H   0  0  0  0  0  0  0  0  0  0  0  0
   38.3700   74.0440   52.2480 O   0  0  0  0  0  0  0  0  0  0  0  0
   37.9330   74.3830   51.3830 H   0  0  0  0  0  0  0  0  0  0  0  0
  1  7  1  0  0  0  0
  1  6  1  0  0  0  0
  2  1  2  0  0  0  0
  3  2  1  0  0  0  0
  3  4  2  0  0  0  0
  4  5  1  0  0  0  0
  5  6  2  0  0  0  0
  5 10  1  0  0  0  0
  8  2  1  0  0  0  0
  9 17  2  0  0  0  0
  9 10  1  0  0  0  0
 10 11  2  0  0  0  0
 11 19  1  0  0  0  0
 11 12  1  0  0  0  0
 12 13  1  0  0  0  0
 13 14  1  0  0  0  0
 13 20  1  0  0  0  0
 14 21  1  0  0  0  0
 15 14  2  0  0  0  0
 16 12  2  0  0  0  0
 16 15  1  0  0  0  0
 17 16  1  0  0  0  0
 18  9  1  0  0  0  0
 22 17  1  0  0  0  0
 23 24  1  0  0  0  0
 24 25  1  0  0  0  0
 25 26  2  0  0  0  0
 25  3  1  0  0  0  0
 26 31  1  0  0  0  0
 27 32  1  0  0  0  0
 27 26  1  0  0  0  0
 28 27  2  0  0  0  0
 29 28  1  0  0  0  0
 30 28  1  0  0  0  0
 30 24  2  0  0  0  0
 33 40  1  0  0  0  0
 33 34  1  0  0  0  0
 34 30  1  0  0  0  0
 35 36  1  0  0  0  0
 35 34  2  0  0  0  0
 37 35  1  0  0  0  0
 38 39  1  0  0  0  0
 38 37  2  0  0  0  0
 39 33  2  0  0  0  0
 41 40  1  0  0  0  0
 42 39  1  0  0  0  0
 43 42  1  0  0  0  0
M  END
>  <minimizedAffinity>
-7.76918411

$$$$

 OpenBabel03212520063D

 43 47  0  0  0  0  0  0  0  0999 V2000
   43.3760   72.7860   56.6810 C   0  0  0  0  0  0  0  0  0  0  0  0
   43.2940   71.5460   57.3360 C   0  0  0  0  0  0  0  0  0  0  0  0
   42.0660   71.1750   57.8380 C   0  0  0  0  0  0  0  0  0  0  0  0
   40.9930   71.9960   57.6870 N   0  0  0  0  0  0  0  0  0  0  0  0
   41.1040   73.1890   57.0440 C   0  0  0  0  0  0  0  0  0  0  0  0
   42.3030   73.5910   56.5380 N   0  0  0  0  0  0  0  0  0  0  0  0
   44.2670   73.2090   56.2400 H   0  0  0  0  0  0  0  0  0  0  0  0
   44.2430   71.0690   57.2970 H   0  0  0  0  0  0  0  0  0  0  0  0
   39.5750   74.8900   57.9020 C   0  0  0  0  0  0  0  0  0  0  0  0
   39.9400   74.0400   56.8560 C   0  0  0  0  0  0  0  0  0  0  0  0
   39.2280   74.0120   55.6540 C   0  0  0  0  0  0  0  0  0  0  0  0
   38.1320   74.8340   55.4630 C   0  0  0  0  0  0  0  0  0  0  0  0
   37.2370   75.0810   54.4890 N   0  0  0  0  0  0  0  0  0  0  0  0
   36.3560   76.0270   54.8770 C   0  0  0  0  0  0  0  0  0  0  0  0
   36.7390   76.3490   56.1190 N   0  0  0  0  0  0  0  0  0  0  0  0
   37.8150   75.6440   56.5070 C   0  0  0  0  0  0  0  0  0  0  0  0
   38.4690   75.7320   57.7310 C   0  0  0  0  0  0  0  0  0  0  0  0
   40.1030   74.9320   58.8340 H   0  0  0  0  0  0  0  0  0  0  0  0
   39.5120   73.3470   54.8390 H   0  0  0  0  0  0  0  0  0  0  0  0
   37.2400   74.5950   53.5590 H   0  0  0  0  0  0  0  0  0  0  0  0
   35.5250   76.4370   54.3160 H   0  0  0  0  0  0  0  0  0  0  0  0
   38.1460   76.4000   58.4940 H   0  0  0  0  0  0  0  0  0  0  0  0
   42.8170   71.1830   60.7210 Cl  0  0  0  0  0  0  0  0  0  0  0  0
   42.2190   69.7720   59.8600 C   0  0  0  0  0  0  0  0  0  0  0  0
   41.9020   69.9200   58.5350 C   0  0  0  0  0  0  0  0  0  0  0  0
   41.4150   68.7600   57.9370 C   0  0  0  0  0  0  0  0  0  0  0  0
   41.2550   67.5590   58.5900 C   0  0  0  0  0  0  0  0  0  0  0  0
   41.5990   67.4790   59.9370 C   0  0  0  0  0  0  0  0  0  0  0  0
   41.4130   65.9760   60.8000 Cl  0  0  0  0  0  0  0  0  0  0  0  0
   42.0840   68.6000   60.5710 C   0  0  0  0  0  0  0  0  0  0  0  0
   41.1390   68.7880   56.8920 H   0  0  0  0  0  0  0  0  0  0  0  0
   40.8720   66.7030   58.0600 H   0  0  0  0  0  0  0  0  0  0  0  0
   43.6940   68.3810   62.5530 C   0  0  0  0  0  0  0  0  0  0  0  0
   42.4490   68.5350   61.9810 C   0  0  0  0  0  0  0  0  0  0  0  0
   41.3110   68.6540   62.7870 C   0  0  0  0  0  0  0  0  0  0  0  0
   40.2890   68.7770   62.4580 H   0  0  0  0  0  0  0  0  0  0  0  0
   41.4450   68.6160   64.1800 C   0  0  0  0  0  3  0  0  0  0  0  0
   42.6920   68.4630   64.7390 C   0  0  0  0  0  3  0  0  0  0  0  0
   43.8150   68.3450   63.9250 C   0  0  0  0  0  0  0  0  0  0  0  0
   44.7180   68.2770   61.6440 O   0  0  0  0  0  0  0  0  0  0  0  0
   45.5410   67.7650   61.9380 H   0  0  0  0  0  0  0  0  0  0  0  0
   45.0970   68.1880   64.4390 O   0  0  0  0  0  0  0  0  0  0  0  0
   45.3180   68.7090   65.2970 H   0  0  0  0  0  0  0  0  0  0  0  0
  1  2  1  0  0  0  0
  2  3  2  0  0  0  0
  3 25  1  0  0  0  0
  4  3  1  0  0  0  0
  5  4  2  0  0  0  0
  6  1  2  0  0  0  0
  6  5  1  0  0  0  0
  7  1  1  0  0  0  0
  8  2  1  0  0  0  0
  9 18  1  0  0  0  0
 10  5  1  0  0  0  0
 10  9  2  0  0  0  0
 11 10  1  0  0  0  0
 12 11  2  0  0  0  0
 12 16  1  0  0  0  0
 13 14  1  0  0  0  0
 13 12  1  0  0  0  0
 14 15  2  0  0  0  0
 15 16  1  0  0  0  0
 16 17  2  0  0  0  0
 17  9  1  0  0  0  0
 17 22  1  0  0  0  0
 19 11  1  0  0  0  0
 20 13  1  0  0  0  0
 21 14  1  0  0  0  0
 24 30  1  0  0  0  0
 24 23  1  0  0  0  0
 25 24  2  0  0  0  0
 26 25  1  0  0  0  0
 26 27  2  0  0  0  0
 27 28  1  0  0  0  0
 28 30  2  0  0  0  0
 28 29  1  0  0  0  0
 30 34  1  0  0  0  0
 31 26  1  0  0  0  0
 32 27  1  0  0  0  0
 33 39  1  0  0  0  0
 34 33  2  0  0  0  0
 34 35  1  0  0  0  0
 35 37  2  0  0  0  0
 36 35  1  0  0  0  0
 37 38  1  0  0  0  0
 39 42  1  0  0  0  0
 39 38  2  0  0  0  0
 40 41  1  0  0  0  0
 40 33  1  0  0  0  0
 42 43  1  0  0  0  0
M  END
>  <minimizedAffinity>
-7.76710749

$$$$

 OpenBabel03212520063D

 43 47  0  0  0  0  0  0  0  0999 V2000
   44.8180   73.7330   58.9170 C   0  0  0  0  0  0  0  0  0  0  0  0
   44.0220   74.8590   58.6450 C   0  0  0  0  0  0  0  0  0  0  0  0
   42.7590   74.8890   59.1950 C   0  0  0  0  0  0  0  0  0  0  0  0
   42.3300   73.8570   59.9710 N   0  0  0  0  0  0  0  0  0  0  0  0
   43.1260   72.7840   60.2180 C   0  0  0  0  0  0  0  0  0  0  0  0
   44.3790   72.7170   59.6880 N   0  0  0  0  0  0  0  0  0  0  0  0
   45.8220   73.5690   58.5550 H   0  0  0  0  0  0  0  0  0  0  0  0
   44.5800   75.5450   58.0550 H   0  0  0  0  0  0  0  0  0  0  0  0
   42.1910   72.0400   62.3490 C   0  0  0  0  0  0  0  0  0  0  0  0
   42.6690   71.7060   61.0800 C   0  0  0  0  0  0  0  0  0  0  0  0
   42.6940   70.3820   60.6340 C   0  0  0  0  0  0  0  0  0  0  0  0
   42.2410   69.3560   61.4420 C   0  0  0  0  0  0  0  0  0  0  0  0
   42.1110   68.0180   61.3650 N   0  0  0  0  0  0  0  0  0  0  0  0
   41.5840   67.5220   62.5050 C   0  0  0  0  0  0  0  0  0  0  0  0
   41.3980   68.5970   63.2800 N   0  0  0  0  0  0  0  0  0  0  0  0
   41.7850   69.7280   62.6660 C   0  0  0  0  0  0  0  0  0  0  0  0
   41.7270   71.0170   63.1850 C   0  0  0  0  0  0  0  0  0  0  0  0
   42.1600   73.0470   62.7160 H   0  0  0  0  0  0  0  0  0  0  0  0
   43.0680   70.1220   59.6440 H   0  0  0  0  0  0  0  0  0  0  0  0
   42.3870   67.4540   60.5250 H   0  0  0  0  0  0  0  0  0  0  0  0
   41.3610   66.4900   62.7440 H   0  0  0  0  0  0  0  0  0  0  0  0
   41.3520   71.2140   64.1610 H   0  0  0  0  0  0  0  0  0  0  0  0
   40.8800   74.5860   56.9050 Cl  0  0  0  0  0  0  0  0  0  0  0  0
   40.9670   76.0120   57.9280 C   0  0  0  0  0  0  0  0  0  0  0  0
   41.8760   76.0060   58.9540 C   0  0  0  0  0  0  0  0  0  0  0  0
   41.8630   77.1650   59.7280 C   0  0  0  0  0  0  0  0  0  0  0  0
   41.0260   78.2360   59.5070 C   0  0  0  0  0  0  0  0  0  0  0  0
   40.1280   78.1750   58.4440 C   0  0  0  0  0  0  0  0  0  0  0  0
   39.0530   79.5100   58.1300 Cl  0  0  0  0  0  0  0  0  0  0  0  0
   40.1040   77.0500   57.6530 C   0  0  0  0  0  0  0  0  0  0  0  0
   42.5470   77.2440   60.5600 H   0  0  0  0  0  0  0  0  0  0  0  0
   41.0730   79.1000   60.1490 H   0  0  0  0  0  0  0  0  0  0  0  0
   39.3440   77.3560   55.2250 C   0  0  0  0  0  0  0  0  0  0  0  0
   39.1700   76.9680   56.5360 C   0  0  0  0  0  0  0  0  0  0  0  0
   37.9580   76.4060   56.9510 C   0  0  0  0  0  0  0  0  0  0  0  0
   37.7040   76.0650   57.9450 H   0  0  0  0  0  0  0  0  0  0  0  0
   36.9220   76.2380   56.0250 C   0  0  0  0  0  3  0  0  0  0  0  0
   37.1060   76.6280   54.7200 C   0  0  0  0  0  3  0  0  0  0  0  0
   38.3170   77.1870   54.3210 C   0  0  0  0  0  0  0  0  0  0  0  0
   40.5800   77.8920   54.9590 O   0  0  0  0  0  0  0  0  0  0  0  0
   40.6390   78.5510   54.1920 H   0  0  0  0  0  0  0  0  0  0  0  0
   38.5560   77.5990   53.0140 O   0  0  0  0  0  0  0  0  0  0  0  0
   38.1550   77.0200   52.2670 H   0  0  0  0  0  0  0  0  0  0  0  0
  1  6  1  0  0  0  0
  2  1  2  0  0  0  0
  2  3  1  0  0  0  0
  3  4  2  0  0  0  0
  4  5  1  0  0  0  0
  5 10  1  0  0  0  0
  6  5  2  0  0  0  0
  7  1  1  0  0  0  0
  8  2  1  0  0  0  0
  9 18  1  0  0  0  0
  9 17  1  0  0  0  0
 10  9  2  0  0  0  0
 11 10  1  0  0  0  0
 11 12  2  0  0  0  0
 12 16  1  0  0  0  0
 13 12  1  0  0  0  0
 13 14  1  0  0  0  0
 14 21  1  0  0  0  0
 14 15  2  0  0  0  0
 16 17  2  0  0  0  0
 16 15  1  0  0  0  0
 17 22  1  0  0  0  0
 19 11  1  0  0  0  0
 20 13  1  0  0  0  0
 23 24  1  0  0  0  0
 24 25  1  0  0  0  0
 25  3  1  0  0  0  0
 25 26  2  0  0  0  0
 26 31  1  0  0  0  0
 27 26  1  0  0  0  0
 27 32  1  0  0  0  0
 28 27  2  0  0  0  0
 29 28  1  0  0  0  0
 30 24  2  0  0  0  0
 30 28  1  0  0  0  0
 33 34  1  0  0  0  0
 34 35  2  0  0  0  0
 34 30  1  0  0  0  0
 35 36  1  0  0  0  0
 37 35  1  0  0  0  0
 38 37  2  0  0  0  0
 39 38  1  0  0  0  0
 39 33  2  0  0  0  0
 40 33  1  0  0  0  0
 41 40  1  0  0  0  0
 42 39  1  0  0  0  0
 43 42  1  0  0  0  0
M  END
>  <minimizedAffinity>
-7.7517457

$$$$

 OpenBabel03212520063D

 43 47  0  0  0  0  0  0  0  0999 V2000
   42.5500   69.9180   57.1300 C   0  0  0  0  0  0  0  0  0  0  0  0
   41.8080   71.0910   56.9040 C   0  0  0  0  0  0  0  0  0  0  0  0
   41.3740   71.7870   58.0110 C   0  0  0  0  0  0  0  0  0  0  0  0
   41.6700   71.3370   59.2590 N   0  0  0  0  0  0  0  0  0  0  0  0
   42.3940   70.2010   59.4440 C   0  0  0  0  0  0  0  0  0  0  0  0
   42.8370   69.4830   58.3750 N   0  0  0  0  0  0  0  0  0  0  0  0
   42.9530   69.2700   56.3670 H   0  0  0  0  0  0  0  0  0  0  0  0
   41.7380   71.2600   55.8580 H   0  0  0  0  0  0  0  0  0  0  0  0
   42.0430   70.3120   61.8590 C   0  0  0  0  0  0  0  0  0  0  0  0
   42.7360   69.7510   60.7840 C   0  0  0  0  0  0  0  0  0  0  0  0
   43.7160   68.7750   60.9760 C   0  0  0  0  0  0  0  0  0  0  0  0
   44.0310   68.3300   62.2460 C   0  0  0  0  0  0  0  0  0  0  0  0
   44.8760   67.4430   62.8050 N   0  0  0  0  0  0  0  0  0  0  0  0
   44.7370   67.4290   64.1480 C   0  0  0  0  0  0  0  0  0  0  0  0
   43.7830   68.3360   64.3920 N   0  0  0  0  0  0  0  0  0  0  0  0
   43.3310   68.9020   63.2610 C   0  0  0  0  0  0  0  0  0  0  0  0
   42.3440   69.8760   63.1550 C   0  0  0  0  0  0  0  0  0  0  0  0
   41.2860   71.0620   61.7410 H   0  0  0  0  0  0  0  0  0  0  0  0
   44.2570   68.3390   60.1360 H   0  0  0  0  0  0  0  0  0  0  0  0
   45.5430   66.8500   62.2550 H   0  0  0  0  0  0  0  0  0  0  0  0
   45.2720   66.8250   64.8690 H   0  0  0  0  0  0  0  0  0  0  0  0
   41.8480   70.2680   64.0110 H   0  0  0  0  0  0  0  0  0  0  0  0
   41.8720   73.9080   60.0420 Cl  0  0  0  0  0  0  0  0  0  0  0  0
   40.7110   74.0510   58.7300 C   0  0  0  0  0  0  0  0  0  0  0  0
   40.5970   72.9960   57.8620 C   0  0  0  0  0  0  0  0  0  0  0  0
   39.6720   73.2020   56.8400 C   0  0  0  0  0  0  0  0  0  0  0  0
   38.9260   74.3490   56.6890 C   0  0  0  0  0  0  0  0  0  0  0  0
   39.0920   75.3820   57.6090 C   0  0  0  0  0  0  0  0  0  0  0  0
   38.1650   76.8490   57.4540 Cl  0  0  0  0  0  0  0  0  0  0  0  0
   39.9950   75.2240   58.6360 C   0  0  0  0  0  0  0  0  0  0  0  0
   39.5190   72.4210   56.1100 H   0  0  0  0  0  0  0  0  0  0  0  0
   38.2290   74.4360   55.8730 H   0  0  0  0  0  0  0  0  0  0  0  0
   39.5930   76.4620   60.8420 C   0  0  0  0  0  0  0  0  0  0  0  0
   40.1820   76.2940   59.6080 C   0  0  0  0  0  0  0  0  0  0  0  0
   41.1060   77.2320   59.1320 C   0  0  0  0  0  0  0  0  0  0  0  0
   41.6300   77.2080   58.1870 H   0  0  0  0  0  0  0  0  0  0  0  0
   41.4280   78.3430   59.9190 C   0  0  0  0  0  3  0  0  0  0  0  0
   40.8340   78.5010   61.1490 C   0  0  0  0  0  3  0  0  0  0  0  0
   39.9170   77.5610   61.6090 C   0  0  0  0  0  0  0  0  0  0  0  0
   38.7080   75.4680   61.1810 O   0  0  0  0  0  0  0  0  0  0  0  0
   37.9630   75.7160   61.8210 H   0  0  0  0  0  0  0  0  0  0  0  0
   39.2880   77.6730   62.8450 O   0  0  0  0  0  0  0  0  0  0  0  0
   39.8520   78.0450   63.6180 H   0  0  0  0  0  0  0  0  0  0  0  0
  1  6  1  0  0  0  0
  2  1  2  0  0  0  0
  2  3  1  0  0  0  0
  3  4  2  0  0  0  0
  4  5  1  0  0  0  0
  5 10  1  0  0  0  0
  6  5  2  0  0  0  0
  7  1  1  0  0  0  0
  8  2  1  0  0  0  0
  9 17  1  0  0  0  0
 10 11  1  0  0  0  0
 10  9  2  0  0  0  0
 11 12  2  0  0  0  0
 12 13  1  0  0  0  0
 12 16  1  0  0  0  0
 13 14  1  0  0  0  0
 14 15  2  0  0  0  0
 14 21  1  0  0  0  0
 16 15  1  0  0  0  0
 17 16  2  0  0  0  0
 17 22  1  0  0  0  0
 18  9  1  0  0  0  0
 19 11  1  0  0  0  0
 20 13  1  0  0  0  0
 24 23  1  0  0  0  0
 25  3  1  0  0  0  0
 25 24  2  0  0  0  0
 26 25  1  0  0  0  0
 27 26  2  0  0  0  0
 27 28  1  0  0  0  0
 28 30  2  0  0  0  0
 29 28  1  0  0  0  0
 30 24  1  0  0  0  0
 30 34  1  0  0  0  0
 31 26  1  0  0  0  0
 32 27  1  0  0  0  0
 33 40  1  0  0  0  0
 33 39  1  0  0  0  0
 34 33  2  0  0  0  0
 35 34  1  0  0  0  0
 35 37  2  0  0  0  0
 36 35  1  0  0  0  0
 37 38  1  0  0  0  0
 38 39  2  0  0  0  0
 39 42  1  0  0  0  0
 40 41  1  0  0  0  0
 42 43  1  0  0  0  0
M  END
>  <minimizedAffinity>
-7.65891552

$$$$
