
 OpenBabel03212520593D

 44 48  0  0  1  0  0  0  0  0999 V2000
   39.7860   77.3350   59.1850 C   0  0  0  0  0  0  0  0  0  0  0  0
   40.5180   76.2290   58.8670 C   0  0  0  0  0  0  0  0  0  0  0  0
   39.9610   75.5130   57.7930 C   0  0  0  0  0  0  0  0  0  0  0  0
   38.8350   75.8700   57.1470 N   0  0  0  0  0  0  0  0  0  0  0  0
   38.1810   76.9980   57.5520 C   0  0  0  0  0  0  0  0  0  0  0  0
   38.6680   77.7290   58.5780 N   0  0  0  0  0  0  0  0  0  0  0  0
   41.4260   75.8950   59.3480 H   0  0  0  0  0  0  0  0  0  0  0  0
   40.4450   74.6000   57.4280 H   0  0  0  0  0  0  0  0  0  0  0  0
   40.9930   80.2850   61.7270 C   0  0  0  0  0  0  0  0  0  0  0  0
   41.0010   79.0480   62.3330 C   0  0  0  0  0  0  0  0  0  0  0  0
   40.6160   77.9920   61.5820 C   0  0  0  0  0  0  0  0  0  0  0  0
   40.2390   78.1740   60.2690 C   0  0  0  0  0  0  0  0  0  0  0  0
   40.4280   79.9930   60.0280 S   0  0  0  0  0  0  0  0  0  0  0  0
   41.2980   78.9000   63.3670 H   0  0  0  0  0  0  0  0  0  0  0  0
   40.5540   76.9500   61.8680 H   0  0  0  0  0  0  0  0  0  0  0  0
   43.0530   83.1010   62.8660 C   0  0  0  0  0  0  0  0  0  0  0  0
   42.1430   83.8530   63.6580 C   0  0  0  0  0  0  0  0  0  0  0  0
   40.8340   83.3920   63.7950 C   0  0  0  0  0  0  0  0  0  0  0  0
   40.4930   82.2480   63.1650 N   0  0  0  0  0  0  0  0  0  0  0  0
   41.3830   81.5470   62.4120 C   0  0  0  0  0  0  0  0  0  0  0  0
   42.6220   81.9810   62.2820 N   0  0  0  0  0  0  0  0  0  0  0  0
   44.0630   83.4850   62.7780 H   0  0  0  0  0  0  0  0  0  0  0  0
   42.4700   84.7560   64.1360 H   0  0  0  0  0  0  0  0  0  0  0  0
   40.1030   83.9390   64.3950 H   0  0  0  0  0  0  0  0  0  0  0  0
   36.9790   77.3680   56.8420 C   0  0  0  0  0  0  0  0  0  0  0  0
   35.8970   76.9420   57.2850 O   0  0  0  0  0  0  0  0  0  0  0  0
   36.9930   78.2270   55.6000 C   0  0  1  0  0  0  0  0  0  0  0  0
   37.2890   79.6740   55.8950 C   0  0  0  0  0  0  0  0  0  0  0  0
   38.2340   78.8260   55.1680 C   0  0  2  0  0  0  0  0  0  0  0  0
   35.9970   78.1850   55.1070 H   0  0  0  0  0  0  0  0  0  0  0  0
   37.5450   79.9800   56.9460 H   0  0  0  0  0  0  0  0  0  0  0  0
   36.7150   80.4650   55.3830 H   0  0  0  0  0  0  0  0  0  0  0  0
   39.1660   78.5220   55.7250 H   0  0  0  0  0  0  0  0  0  0  0  0
   39.7690   78.7930   53.3140 C   0  0  0  0  0  0  0  0  0  0  0  0
   38.5320   79.2140   53.7800 C   0  0  0  0  0  0  0  0  0  0  0  0
   37.7040   79.9360   52.9450 C   0  0  0  0  0  0  0  0  0  0  0  0
   36.7480   80.2470   53.3430 H   0  0  0  0  0  0  0  0  0  0  0  0
   38.1480   80.2100   51.6690 C   0  0  0  0  0  3  0  0  0  0  0  0
   39.3700   79.8060   51.1790 C   0  0  0  0  0  3  0  0  0  0  0  0
   40.1890   79.0820   52.0320 C   0  0  0  0  0  0  0  0  0  0  0  0
   40.6680   78.0540   54.1070 O   0  0  0  0  0  0  0  0  0  0  0  0
   40.5160   77.0350   54.0320 H   0  0  0  0  0  0  0  0  0  0  0  0
   41.4280   78.6560   51.5780 O   0  0  0  0  0  0  0  0  0  0  0  0
   41.4570   78.3230   50.6150 H   0  0  0  0  0  0  0  0  0  0  0  0
  1 12  1  0  0  0  0
  2  1  1  0  0  0  0
  2  7  1  0  0  0  0
  3  2  2  0  0  0  0
  4  5  2  0  0  0  0
  4  3  1  0  0  0  0
  5  6  1  0  0  0  0
  6  1  2  0  0  0  0
  8  3  1  0  0  0  0
  9 10  2  0  0  0  0
  9 20  1  0  0  0  0
 10 14  1  0  0  0  0
 11 15  1  0  0  0  0
 11 10  1  0  0  0  0
 12 11  2  0  0  0  0
 13 12  1  0  0  0  0
 13  9  1  0  0  0  0
 16 17  1  0  0  0  0
 17 18  2  0  0  0  0
 17 23  1  0  0  0  0
 18 24  1  0  0  0  0
 19 18  1  0  0  0  0
 20 19  2  0  0  0  0
 21 20  1  0  0  0  0
 21 16  2  0  0  0  0
 22 16  1  0  0  0  0
 25 26  2  0  0  0  0
 25  5  1  0  0  0  0
 27 30  1  6  0  0  0
 27 28  1  0  0  0  0
 27 25  1  0  0  0  0
 28 31  1  0  0  0  0
 29 27  1  0  0  0  0
 29 33  1  1  0  0  0
 29 28  1  0  0  0  0
 32 28  1  0  0  0  0
 34 35  1  0  0  0  0
 34 41  1  0  0  0  0
 35 29  1  0  0  0  0
 36 37  1  0  0  0  0
 36 35  2  0  0  0  0
 38 36  1  0  0  0  0
 39 38  2  0  0  0  0
 39 40  1  0  0  0  0
 40 34  2  0  0  0  0
 42 41  1  0  0  0  0
 43 40  1  0  0  0  0
 44 43  1  0  0  0  0
M  END
>  <minimizedAffinity>
-6.44129276

>  <minimizedRMSD>
0.511268497

$$$$
