
 OpenBabel03212520513D

 37 40  0  0  1  0  0  0  0  0999 V2000
   41.6760   83.8570   61.4060 C   0  0  0  0  0  0  0  0  0  0  0  0
   41.1210   84.2260   62.5900 C   0  0  0  0  0  0  0  0  0  0  0  0
   40.6930   83.2750   63.5190 C   0  0  0  0  0  0  0  0  0  0  0  0
   40.8260   81.9620   63.2490 N   0  0  0  0  0  0  0  0  0  0  0  0
   41.3800   81.6130   62.0650 C   0  0  0  0  0  0  0  0  0  0  0  0
   41.7970   82.5240   61.1630 N   0  0  0  0  0  0  0  0  0  0  0  0
   41.0030   85.2700   62.8320 H   0  0  0  0  0  0  0  0  0  0  0  0
   40.2460   83.5320   64.4740 H   0  0  0  0  0  0  0  0  0  0  0  0
   43.6170   86.4550   59.7060 C   0  0  0  0  0  0  0  0  0  0  0  0
   42.9280   86.6030   58.5120 C   0  0  0  0  0  0  0  0  0  0  0  0
   41.7920   85.8200   58.2720 C   0  0  0  0  0  0  0  0  0  0  0  0
   41.4380   84.9460   59.2600 N   0  0  0  0  0  0  0  0  0  0  0  0
   42.1250   84.8220   60.4110 C   0  0  0  0  0  0  0  0  0  0  0  0
   43.2150   85.5660   60.6520 N   0  0  0  0  0  0  0  0  0  0  0  0
   44.7430   87.2930   59.8030 N   0  0  0  0  0  0  0  0  0  0  0  0
   43.1930   87.2870   57.7240 H   0  0  0  0  0  0  0  0  0  0  0  0
   41.1990   85.8710   57.3730 H   0  0  0  0  0  0  0  0  0  0  0  0
   45.6940   86.9010   59.6100 H   0  0  0  0  0  0  0  0  0  0  0  0
   44.3890   88.2580   60.0790 H   0  0  0  0  0  0  0  0  0  0  0  0
   41.4870   80.1380   61.8160 C   0  0  1  0  0  0  0  0  0  0  0  0
   40.7980   79.1760   62.6450 C   0  0  0  0  0  0  0  0  0  0  0  0
   40.1320   79.5460   61.3650 C   0  0  2  0  0  0  0  0  0  0  0  0
   42.3570   79.8180   61.2060 H   0  0  0  0  0  0  0  0  0  0  0  0
   40.2690   79.5310   63.5700 H   0  0  0  0  0  0  0  0  0  0  0  0
   41.2010   78.1550   62.7760 H   0  0  0  0  0  0  0  0  0  0  0  0
   39.2390   80.1710   61.4000 H   0  0  0  0  0  0  0  0  0  0  0  0
   40.1390   79.0690   58.8920 C   0  0  0  0  0  0  0  0  0  0  0  0
   40.2110   78.6310   60.1970 C   0  0  0  0  0  0  0  0  0  0  0  0
   40.3660   77.2620   60.4050 C   0  0  0  0  0  0  0  0  0  0  0  0
   40.4340   76.8180   61.3900 H   0  0  0  0  0  0  0  0  0  0  0  0
   40.4430   76.3860   59.3410 C   0  0  0  0  0  3  0  0  0  0  0  0
   40.3720   76.8210   58.0330 C   0  0  0  0  0  3  0  0  0  0  0  0
   40.2190   78.1680   57.8440 C   0  0  0  0  0  0  0  0  0  0  0  0
   39.9840   80.4300   58.6650 O   0  0  0  0  0  0  0  0  0  0  0  0
   40.8440   80.9520   58.4500 H   0  0  0  0  0  0  0  0  0  0  0  0
   40.1400   78.6670   56.5350 O   0  0  0  0  0  0  0  0  0  0  0  0
   40.9560   78.7960   55.9490 H   0  0  0  0  0  0  0  0  0  0  0  0
  1  2  1  0  0  0  0
  2  7  1  0  0  0  0
  2  3  2  0  0  0  0
  3  8  1  0  0  0  0
  4  3  1  0  0  0  0
  5  4  2  0  0  0  0
  6  1  2  0  0  0  0
  6  5  1  0  0  0  0
  9 15  1  0  0  0  0
  9 14  1  0  0  0  0
 10  9  2  0  0  0  0
 11 10  1  0  0  0  0
 11 12  2  0  0  0  0
 12 13  1  0  0  0  0
 13 14  2  0  0  0  0
 13  1  1  0  0  0  0
 15 19  1  0  0  0  0
 16 10  1  0  0  0  0
 17 11  1  0  0  0  0
 18 15  1  0  0  0  0
 20 23  1  6  0  0  0
 20  5  1  0  0  0  0
 20 21  1  0  0  0  0
 21 25  1  0  0  0  0
 21 24  1  0  0  0  0
 22 26  1  1  0  0  0
 22 20  1  0  0  0  0
 22 21  1  0  0  0  0
 27 28  1  0  0  0  0
 28 29  2  0  0  0  0
 28 22  1  0  0  0  0
 29 30  1  0  0  0  0
 31 29  1  0  0  0  0
 32 31  2  0  0  0  0
 33 32  1  0  0  0  0
 33 27  2  0  0  0  0
 34 27  1  0  0  0  0
 35 34  1  0  0  0  0
 36 33  1  0  0  0  0
 37 36  1  0  0  0  0
M  END
>  <minimizedAffinity>
-5.74203873

>  <minimizedRMSD>
1.56461763

$$$$
