
 OpenBabel03212520303D

 30 32  0  0  0  0  0  0  0  0999 V2000
   39.8200   74.6600   57.0080 C   0  0  0  0  0  0  0  0  0  0  0  0
   38.9590   75.7240   57.2870 C   0  0  0  0  0  0  0  0  0  0  0  0
   38.8650   76.1250   58.6230 C   0  0  0  0  0  0  0  0  0  0  0  0
   39.5950   75.4820   59.5660 N   0  0  0  0  0  0  0  0  0  0  0  0
   40.4160   74.4590   59.2520 C   0  0  0  0  0  0  0  0  0  0  0  0
   40.5220   74.0560   57.9690 N   0  0  0  0  0  0  0  0  0  0  0  0
   39.9210   74.3180   55.9820 H   0  0  0  0  0  0  0  0  0  0  0  0
   38.2120   76.9430   58.8820 H   0  0  0  0  0  0  0  0  0  0  0  0
   38.2250   76.3490   56.2460 N   0  0  0  0  0  0  0  0  0  0  0  0
   38.8620   77.3640   55.6740 C   0  0  0  0  0  0  0  0  0  0  0  0
   38.2190   78.0450   54.6350 C   0  0  0  0  0  0  0  0  0  0  0  0
   36.9400   77.6340   54.2410 C   0  0  0  0  0  0  0  0  0  0  0  0
   36.3050   78.1980   53.3190 O   0  0  0  0  0  0  0  0  0  0  0  0
   36.3600   76.5910   54.8770 N   0  0  0  0  0  0  0  0  0  0  0  0
   36.9870   75.9220   55.8940 C   0  0  0  0  0  0  0  0  0  0  0  0
   36.4500   74.9650   56.4710 O   0  0  0  0  0  0  0  0  0  0  0  0
   39.8420   77.7140   55.9410 H   0  0  0  0  0  0  0  0  0  0  0  0
   38.6770   78.8780   54.1250 H   0  0  0  0  0  0  0  0  0  0  0  0
   35.4060   76.2990   54.5680 H   0  0  0  0  0  0  0  0  0  0  0  0
   40.5820   73.0790   61.2620 C   0  0  0  0  0  0  0  0  0  0  0  0
   41.2160   73.7450   60.2340 C   0  0  0  0  0  0  0  0  0  0  0  0
   42.6010   73.6980   60.1900 C   0  0  0  0  0  0  0  0  0  0  0  0
   43.1200   74.2110   59.3940 H   0  0  0  0  0  0  0  0  0  0  0  0
   43.3230   73.0080   61.1440 C   0  0  0  0  0  3  0  0  0  0  0  0
   42.6960   72.3380   62.1760 C   0  0  0  0  0  3  0  0  0  0  0  0
   41.3180   72.3960   62.2020 C   0  0  0  0  0  0  0  0  0  0  0  0
   39.2040   73.0430   61.4250 O   0  0  0  0  0  0  0  0  0  0  0  0
   38.6310   72.3870   60.8980 H   0  0  0  0  0  0  0  0  0  0  0  0
   40.7080   71.7160   63.2490 O   0  0  0  0  0  0  0  0  0  0  0  0
   40.8840   70.7020   63.3350 H   0  0  0  0  0  0  0  0  0  0  0  0
  1  2  2  0  0  0  0
  1  6  1  0  0  0  0
  2  3  1  0  0  0  0
  3  8  1  0  0  0  0
  3  4  2  0  0  0  0
  5  4  1  0  0  0  0
  5 21  1  0  0  0  0
  6  5  2  0  0  0  0
  7  1  1  0  0  0  0
  9  2  1  0  0  0  0
 10 17  1  0  0  0  0
 10  9  1  0  0  0  0
 11 10  2  0  0  0  0
 12 11  1  0  0  0  0
 12 14  1  0  0  0  0
 13 12  2  0  0  0  0
 14 15  1  0  0  0  0
 15  9  1  0  0  0  0
 15 16  2  0  0  0  0
 18 11  1  0  0  0  0
 19 14  1  0  0  0  0
 20 27  1  0  0  0  0
 20 26  1  0  0  0  0
 21 20  2  0  0  0  0
 22 21  1  0  0  0  0
 22 24  2  0  0  0  0
 23 22  1  0  0  0  0
 24 25  1  0  0  0  0
 25 26  2  0  0  0  0
 26 29  1  0  0  0  0
 28 27  1  0  0  0  0
 29 30  1  0  0  0  0
M  END
>  <minimizedAffinity>
-6.43836164

$$$$

 OpenBabel03212520303D

 30 32  0  0  0  0  0  0  0  0999 V2000
   40.0350   74.9040   58.4680 C   0  0  0  0  0  0  0  0  0  0  0  0
   39.7820   73.5900   58.8660 C   0  0  0  0  0  0  0  0  0  0  0  0
   38.8380   72.8760   58.1200 C   0  0  0  0  0  0  0  0  0  0  0  0
   38.2260   73.4760   57.0700 N   0  0  0  0  0  0  0  0  0  0  0  0
   38.5020   74.7490   56.7200 C   0  0  0  0  0  0  0  0  0  0  0  0
   39.4090   75.4550   57.4260 N   0  0  0  0  0  0  0  0  0  0  0  0
   40.7610   75.4920   59.0220 H   0  0  0  0  0  0  0  0  0  0  0  0
   38.6130   71.8580   58.3920 H   0  0  0  0  0  0  0  0  0  0  0  0
   40.4620   73.0290   59.9770 N   0  0  0  0  0  0  0  0  0  0  0  0
   41.6410   72.4970   59.6740 C   0  0  0  0  0  0  0  0  0  0  0  0
   42.3880   71.9190   60.7050 C   0  0  0  0  0  0  0  0  0  0  0  0
   41.8710   71.9220   62.0060 C   0  0  0  0  0  0  0  0  0  0  0  0
   42.4850   71.4220   62.9760 O   0  0  0  0  0  0  0  0  0  0  0  0
   40.6610   72.4830   62.2300 N   0  0  0  0  0  0  0  0  0  0  0  0
   39.9270   73.0500   61.2230 C   0  0  0  0  0  0  0  0  0  0  0  0
   38.8180   73.5640   61.4360 O   0  0  0  0  0  0  0  0  0  0  0  0
   42.0780   72.4720   58.6930 H   0  0  0  0  0  0  0  0  0  0  0  0
   43.3540   71.4700   60.5310 H   0  0  0  0  0  0  0  0  0  0  0  0
   40.2920   72.4760   63.2070 H   0  0  0  0  0  0  0  0  0  0  0  0
   37.9480   74.8680   54.3430 C   0  0  0  0  0  0  0  0  0  0  0  0
   37.8670   75.4260   55.6010 C   0  0  0  0  0  0  0  0  0  0  0  0
   37.1770   76.6210   55.7350 C   0  0  0  0  0  0  0  0  0  0  0  0
   37.0990   77.0780   56.7110 H   0  0  0  0  0  0  0  0  0  0  0  0
   36.5880   77.2330   54.6460 C   0  0  0  0  0  3  0  0  0  0  0  0
   36.6650   76.6800   53.3820 C   0  0  0  0  0  3  0  0  0  0  0  0
   37.3550   75.4910   53.2690 C   0  0  0  0  0  0  0  0  0  0  0  0
   38.6070   73.6780   54.0680 O   0  0  0  0  0  0  0  0  0  0  0  0
   38.1560   72.7790   54.2320 H   0  0  0  0  0  0  0  0  0  0  0  0
   37.4190   74.9530   51.9900 O   0  0  0  0  0  0  0  0  0  0  0  0
   36.5310   74.7320   51.5130 H   0  0  0  0  0  0  0  0  0  0  0  0
  1  2  1  0  0  0  0
  1  7  1  0  0  0  0
  2  9  1  0  0  0  0
  3  8  1  0  0  0  0
  3  2  2  0  0  0  0
  4  3  1  0  0  0  0
  5  4  2  0  0  0  0
  5  6  1  0  0  0  0
  6  1  2  0  0  0  0
  9 15  1  0  0  0  0
 10  9  1  0  0  0  0
 10 11  2  0  0  0  0
 11 12  1  0  0  0  0
 12 14  1  0  0  0  0
 12 13  2  0  0  0  0
 14 19  1  0  0  0  0
 15 16  2  0  0  0  0
 15 14  1  0  0  0  0
 17 10  1  0  0  0  0
 18 11  1  0  0  0  0
 20 21  1  0  0  0  0
 21 22  2  0  0  0  0
 21  5  1  0  0  0  0
 22 23  1  0  0  0  0
 24 22  1  0  0  0  0
 25 24  2  0  0  0  0
 26 25  1  0  0  0  0
 26 20  2  0  0  0  0
 27 28  1  0  0  0  0
 27 20  1  0  0  0  0
 29 26  1  0  0  0  0
 30 29  1  0  0  0  0
M  END
>  <minimizedAffinity>
-6.20732355

$$$$

 OpenBabel03212520303D

 30 32  0  0  0  0  0  0  0  0999 V2000
   41.4270   71.8400   59.9060 C   0  0  0  0  0  0  0  0  0  0  0  0
   41.1940   72.8530   60.8400 C   0  0  0  0  0  0  0  0  0  0  0  0
   41.5170   72.5690   62.1710 C   0  0  0  0  0  0  0  0  0  0  0  0
   42.0290   71.3550   62.4890 N   0  0  0  0  0  0  0  0  0  0  0  0
   42.2380   70.4060   61.5540 C   0  0  0  0  0  0  0  0  0  0  0  0
   41.9340   70.6590   60.2640 N   0  0  0  0  0  0  0  0  0  0  0  0
   41.1890   72.0210   58.8620 H   0  0  0  0  0  0  0  0  0  0  0  0
   41.3540   73.3230   62.9240 H   0  0  0  0  0  0  0  0  0  0  0  0
   40.6550   74.1000   60.4320 N   0  0  0  0  0  0  0  0  0  0  0  0
   41.5050   74.8550   59.7450 C   0  0  0  0  0  0  0  0  0  0  0  0
   41.0640   76.1040   59.2980 C   0  0  0  0  0  0  0  0  0  0  0  0
   39.7560   76.5090   59.5900 C   0  0  0  0  0  0  0  0  0  0  0  0
   39.2950   77.6150   59.2220 O   0  0  0  0  0  0  0  0  0  0  0  0
   38.9540   75.6810   60.2960 N   0  0  0  0  0  0  0  0  0  0  0  0
   39.3820   74.4570   60.7350 C   0  0  0  0  0  0  0  0  0  0  0  0
   38.6400   73.7020   61.3820 O   0  0  0  0  0  0  0  0  0  0  0  0
   42.5150   74.5860   59.4980 H   0  0  0  0  0  0  0  0  0  0  0  0
   41.7000   76.7680   58.7350 H   0  0  0  0  0  0  0  0  0  0  0  0
   37.9810   76.0010   60.5030 H   0  0  0  0  0  0  0  0  0  0  0  0
   42.0440   68.2130   62.6150 C   0  0  0  0  0  0  0  0  0  0  0  0
   42.7850   69.0930   61.8550 C   0  0  0  0  0  0  0  0  0  0  0  0
   44.0320   68.6750   61.4130 C   0  0  0  0  0  0  0  0  0  0  0  0
   44.6310   69.3460   60.8160 H   0  0  0  0  0  0  0  0  0  0  0  0
   44.5150   67.4190   61.7220 C   0  0  0  0  0  3  0  0  0  0  0  0
   43.7780   66.5310   62.4820 C   0  0  0  0  0  3  0  0  0  0  0  0
   42.5410   66.9650   62.9120 C   0  0  0  0  0  0  0  0  0  0  0  0
   40.7840   68.5020   63.1200 O   0  0  0  0  0  0  0  0  0  0  0  0
   39.9520   68.4080   62.5400 H   0  0  0  0  0  0  0  0  0  0  0  0
   41.8180   66.0570   63.6750 O   0  0  0  0  0  0  0  0  0  0  0  0
   41.5910   65.1430   63.2520 H   0  0  0  0  0  0  0  0  0  0  0  0
  1  6  2  0  0  0  0
  1  2  1  0  0  0  0
  2  3  2  0  0  0  0
  3  4  1  0  0  0  0
  3  8  1  0  0  0  0
  5 21  1  0  0  0  0
  5  4  2  0  0  0  0
  6  5  1  0  0  0  0
  7  1  1  0  0  0  0
  9 15  1  0  0  0  0
  9  2  1  0  0  0  0
 10  9  1  0  0  0  0
 11 12  1  0  0  0  0
 11 10  2  0  0  0  0
 12 14  1  0  0  0  0
 13 12  2  0  0  0  0
 14 19  1  0  0  0  0
 14 15  1  0  0  0  0
 15 16  2  0  0  0  0
 17 10  1  0  0  0  0
 18 11  1  0  0  0  0
 20 26  1  0  0  0  0
 20 27  1  0  0  0  0
 21 20  2  0  0  0  0
 22 24  2  0  0  0  0
 22 21  1  0  0  0  0
 23 22  1  0  0  0  0
 24 25  1  0  0  0  0
 25 26  2  0  0  0  0
 26 29  1  0  0  0  0
 28 27  1  0  0  0  0
 30 29  1  0  0  0  0
M  END
>  <minimizedAffinity>
-6.05210781

$$$$

 OpenBabel03212520303D

 30 32  0  0  0  0  0  0  0  0999 V2000
   41.4500   71.1640   59.8910 C   0  0  0  0  0  0  0  0  0  0  0  0
   41.4080   72.1100   60.9180 C   0  0  0  0  0  0  0  0  0  0  0  0
   41.7850   71.6740   62.1920 C   0  0  0  0  0  0  0  0  0  0  0  0
   42.1660   70.3860   62.3710 N   0  0  0  0  0  0  0  0  0  0  0  0
   42.1920   69.5060   61.3490 C   0  0  0  0  0  0  0  0  0  0  0  0
   41.8330   69.9060   60.1120 N   0  0  0  0  0  0  0  0  0  0  0  0
   41.1650   71.4630   58.8860 H   0  0  0  0  0  0  0  0  0  0  0  0
   41.7680   72.3720   63.0140 H   0  0  0  0  0  0  0  0  0  0  0  0
   40.9980   73.4430   60.6540 N   0  0  0  0  0  0  0  0  0  0  0  0
   39.7840   73.7320   61.1090 C   0  0  0  0  0  0  0  0  0  0  0  0
   39.2910   75.0230   60.8980 C   0  0  0  0  0  0  0  0  0  0  0  0
   40.0870   75.9540   60.2200 C   0  0  0  0  0  0  0  0  0  0  0  0
   39.7100   77.1270   59.9960 O   0  0  0  0  0  0  0  0  0  0  0  0
   41.3120   75.5780   59.7880 N   0  0  0  0  0  0  0  0  0  0  0  0
   41.7980   74.3150   59.9930 C   0  0  0  0  0  0  0  0  0  0  0  0
   42.9240   73.9780   59.5950 O   0  0  0  0  0  0  0  0  0  0  0  0
   39.1390   73.0520   61.6340 H   0  0  0  0  0  0  0  0  0  0  0  0
   38.3140   75.3270   61.2410 H   0  0  0  0  0  0  0  0  0  0  0  0
   41.8920   76.2870   59.2850 H   0  0  0  0  0  0  0  0  0  0  0  0
   41.8630   67.2900   62.3280 C   0  0  0  0  0  0  0  0  0  0  0  0
   42.5940   68.1170   61.5010 C   0  0  0  0  0  0  0  0  0  0  0  0
   43.6900   67.5720   60.8480 C   0  0  0  0  0  0  0  0  0  0  0  0
   44.2790   68.2000   60.1950 H   0  0  0  0  0  0  0  0  0  0  0  0
   44.0390   66.2470   61.0200 C   0  0  0  0  0  3  0  0  0  0  0  0
   43.3110   65.4130   61.8470 C   0  0  0  0  0  3  0  0  0  0  0  0
   42.2250   65.9730   62.4860 C   0  0  0  0  0  0  0  0  0  0  0  0
   40.7450   67.7040   63.0390 O   0  0  0  0  0  0  0  0  0  0  0  0
   39.8300   67.7550   62.5940 H   0  0  0  0  0  0  0  0  0  0  0  0
   41.5080   65.1160   63.3120 O   0  0  0  0  0  0  0  0  0  0  0  0
   41.0970   64.2680   62.8890 H   0  0  0  0  0  0  0  0  0  0  0  0
  1  6  2  0  0  0  0
  1  2  1  0  0  0  0
  2  3  2  0  0  0  0
  3  4  1  0  0  0  0
  3  8  1  0  0  0  0
  5 21  1  0  0  0  0
  5  4  2  0  0  0  0
  6  5  1  0  0  0  0
  7  1  1  0  0  0  0
  9  2  1  0  0  0  0
  9 10  1  0  0  0  0
 10 17  1  0  0  0  0
 11 10  2  0  0  0  0
 11 18  1  0  0  0  0
 12 11  1  0  0  0  0
 13 12  2  0  0  0  0
 14 15  1  0  0  0  0
 14 12  1  0  0  0  0
 15  9  1  0  0  0  0
 16 15  2  0  0  0  0
 19 14  1  0  0  0  0
 20 26  1  0  0  0  0
 20 27  1  0  0  0  0
 21 20  2  0  0  0  0
 22 24  2  0  0  0  0
 22 21  1  0  0  0  0
 23 22  1  0  0  0  0
 24 25  1  0  0  0  0
 25 26  2  0  0  0  0
 26 29  1  0  0  0  0
 28 27  1  0  0  0  0
 30 29  1  0  0  0  0
M  END
>  <minimizedAffinity>
-6.03655291

$$$$

 OpenBabel03212520303D

 30 32  0  0  0  0  0  0  0  0999 V2000
   42.0620   70.1540   60.5860 C   0  0  0  0  0  0  0  0  0  0  0  0
   42.3720   69.7270   61.8790 C   0  0  0  0  0  0  0  0  0  0  0  0
   42.0200   70.5820   62.9270 C   0  0  0  0  0  0  0  0  0  0  0  0
   41.4060   71.7590   62.6510 N   0  0  0  0  0  0  0  0  0  0  0  0
   41.1240   72.1320   61.3860 C   0  0  0  0  0  0  0  0  0  0  0  0
   41.4560   71.3210   60.3600 N   0  0  0  0  0  0  0  0  0  0  0  0
   42.3190   69.5180   59.7440 H   0  0  0  0  0  0  0  0  0  0  0  0
   42.2410   70.2910   63.9420 H   0  0  0  0  0  0  0  0  0  0  0  0
   43.0170   68.4810   62.0910 N   0  0  0  0  0  0  0  0  0  0  0  0
   44.2550   68.4270   61.6130 C   0  0  0  0  0  0  0  0  0  0  0  0
   44.9730   67.2380   61.7740 C   0  0  0  0  0  0  0  0  0  0  0  0
   44.3650   66.1580   62.4260 C   0  0  0  0  0  0  0  0  0  0  0  0
   44.9480   65.0640   62.6050 O   0  0  0  0  0  0  0  0  0  0  0  0
   43.0990   66.2950   62.8820 N   0  0  0  0  0  0  0  0  0  0  0  0
   42.3930   67.4570   62.7260 C   0  0  0  0  0  0  0  0  0  0  0  0
   41.2330   67.5760   63.1480 O   0  0  0  0  0  0  0  0  0  0  0  0
   44.7610   69.2280   61.1080 H   0  0  0  0  0  0  0  0  0  0  0  0
   45.9830   67.1250   61.4120 H   0  0  0  0  0  0  0  0  0  0  0  0
   42.6630   65.4780   63.3660 H   0  0  0  0  0  0  0  0  0  0  0  0
   41.1770   74.3570   60.3770 C   0  0  0  0  0  0  0  0  0  0  0  0
   40.4670   73.3840   61.0490 C   0  0  0  0  0  0  0  0  0  0  0  0
   39.1470   73.6560   61.3740 C   0  0  0  0  0  0  0  0  0  0  0  0
   38.5700   72.9100   61.9010 H   0  0  0  0  0  0  0  0  0  0  0  0
   38.5610   74.8600   61.0360 C   0  0  0  0  0  3  0  0  0  0  0  0
   39.2650   75.8390   60.3620 C   0  0  0  0  0  3  0  0  0  0  0  0
   40.5760   75.5490   60.0470 C   0  0  0  0  0  0  0  0  0  0  0  0
   42.5030   74.2160   59.9910 O   0  0  0  0  0  0  0  0  0  0  0  0
   42.7510   73.7130   59.1400 H   0  0  0  0  0  0  0  0  0  0  0  0
   41.2650   76.5480   59.3700 O   0  0  0  0  0  0  0  0  0  0  0  0
   40.8900   76.8640   58.4620 H   0  0  0  0  0  0  0  0  0  0  0  0
  1  2  1  0  0  0  0
  2  9  1  0  0  0  0
  2  3  2  0  0  0  0
  3  8  1  0  0  0  0
  4  3  1  0  0  0  0
  5  4  2  0  0  0  0
  6  1  2  0  0  0  0
  6  5  1  0  0  0  0
  7  1  1  0  0  0  0
  9 15  1  0  0  0  0
 10 11  2  0  0  0  0
 10  9  1  0  0  0  0
 11 12  1  0  0  0  0
 12 13  2  0  0  0  0
 12 14  1  0  0  0  0
 14 19  1  0  0  0  0
 15 14  1  0  0  0  0
 15 16  2  0  0  0  0
 17 10  1  0  0  0  0
 18 11  1  0  0  0  0
 20 21  1  0  0  0  0
 21 22  2  0  0  0  0
 21  5  1  0  0  0  0
 22 23  1  0  0  0  0
 24 22  1  0  0  0  0
 25 24  2  0  0  0  0
 26 25  1  0  0  0  0
 26 20  2  0  0  0  0
 27 20  1  0  0  0  0
 28 27  1  0  0  0  0
 29 26  1  0  0  0  0
 30 29  1  0  0  0  0
M  END
>  <minimizedAffinity>
-5.96360445

$$$$

 OpenBabel03212520303D

 30 32  0  0  0  0  0  0  0  0999 V2000
   39.6650   74.1370   57.6660 C   0  0  0  0  0  0  0  0  0  0  0  0
   38.9650   75.2670   58.0940 C   0  0  0  0  0  0  0  0  0  0  0  0
   38.9950   75.5460   59.4640 C   0  0  0  0  0  0  0  0  0  0  0  0
   39.6860   74.7290   60.2960 N   0  0  0  0  0  0  0  0  0  0  0  0
   40.3490   73.6470   59.8390 C   0  0  0  0  0  0  0  0  0  0  0  0
   40.3320   73.3610   58.5210 N   0  0  0  0  0  0  0  0  0  0  0  0
   39.6650   73.8860   56.6090 H   0  0  0  0  0  0  0  0  0  0  0  0
   38.4680   76.4100   59.8380 H   0  0  0  0  0  0  0  0  0  0  0  0
   38.2630   76.0770   57.1640 N   0  0  0  0  0  0  0  0  0  0  0  0
   37.4080   75.4030   56.4030 C   0  0  0  0  0  0  0  0  0  0  0  0
   36.6680   76.1150   55.4530 C   0  0  0  0  0  0  0  0  0  0  0  0
   36.8560   77.4980   55.3410 C   0  0  0  0  0  0  0  0  0  0  0  0
   36.2280   78.1970   54.5130 O   0  0  0  0  0  0  0  0  0  0  0  0
   37.7480   78.1070   56.1530 N   0  0  0  0  0  0  0  0  0  0  0  0
   38.4730   77.4140   57.0840 C   0  0  0  0  0  0  0  0  0  0  0  0
   39.2890   77.9800   57.8280 O   0  0  0  0  0  0  0  0  0  0  0  0
   37.2310   74.3450   56.4530 H   0  0  0  0  0  0  0  0  0  0  0  0
   35.9560   75.6320   54.8020 H   0  0  0  0  0  0  0  0  0  0  0  0
   37.8730   79.1400   56.0550 H   0  0  0  0  0  0  0  0  0  0  0  0
   42.2180   72.1140   60.1970 C   0  0  0  0  0  0  0  0  0  0  0  0
   41.1010   72.7470   60.6990 C   0  0  0  0  0  0  0  0  0  0  0  0
   40.7470   72.4890   62.0140 C   0  0  0  0  0  0  0  0  0  0  0  0
   39.8760   72.9730   62.4300 H   0  0  0  0  0  0  0  0  0  0  0  0
   41.4890   71.6260   62.7970 C   0  0  0  0  0  3  0  0  0  0  0  0
   42.6090   70.9890   62.3020 C   0  0  0  0  0  3  0  0  0  0  0  0
   42.9450   71.2590   60.9920 C   0  0  0  0  0  0  0  0  0  0  0  0
   42.6840   72.2830   58.9000 O   0  0  0  0  0  0  0  0  0  0  0  0
   43.2580   73.0860   58.6500 H   0  0  0  0  0  0  0  0  0  0  0  0
   44.0760   70.6070   60.5150 O   0  0  0  0  0  0  0  0  0  0  0  0
   44.9700   70.7680   61.0050 H   0  0  0  0  0  0  0  0  0  0  0  0
  1  2  2  0  0  0  0
  1  6  1  0  0  0  0
  2  3  1  0  0  0  0
  3  8  1  0  0  0  0
  3  4  2  0  0  0  0
  5  4  1  0  0  0  0
  5 21  1  0  0  0  0
  6  5  2  0  0  0  0
  7  1  1  0  0  0  0
  9  2  1  0  0  0  0
 10 17  1  0  0  0  0
 10  9  1  0  0  0  0
 11 10  2  0  0  0  0
 12 11  1  0  0  0  0
 12 14  1  0  0  0  0
 13 12  2  0  0  0  0
 14 15  1  0  0  0  0
 15  9  1  0  0  0  0
 15 16  2  0  0  0  0
 18 11  1  0  0  0  0
 19 14  1  0  0  0  0
 20 21  2  0  0  0  0
 20 26  1  0  0  0  0
 21 22  1  0  0  0  0
 22 23  1  0  0  0  0
 22 24  2  0  0  0  0
 25 24  1  0  0  0  0
 26 25  2  0  0  0  0
 27 20  1  0  0  0  0
 28 27  1  0  0  0  0
 29 26  1  0  0  0  0
 29 30  1  0  0  0  0
M  END
>  <minimizedAffinity>
-5.94534063

$$$$

 OpenBabel03212520303D

 30 32  0  0  0  0  0  0  0  0999 V2000
   41.2760   71.9160   60.0880 C   0  0  0  0  0  0  0  0  0  0  0  0
   41.1100   73.0320   60.9110 C   0  0  0  0  0  0  0  0  0  0  0  0
   41.4910   72.8910   62.2490 C   0  0  0  0  0  0  0  0  0  0  0  0
   41.9930   71.7080   62.6790 N   0  0  0  0  0  0  0  0  0  0  0  0
   42.1370   70.6550   61.8480 C   0  0  0  0  0  0  0  0  0  0  0  0
   41.7750   70.7690   60.5540 N   0  0  0  0  0  0  0  0  0  0  0  0
   40.9910   71.9840   59.0420 H   0  0  0  0  0  0  0  0  0  0  0  0
   41.3810   73.7290   62.9190 H   0  0  0  0  0  0  0  0  0  0  0  0
   40.5770   74.2390   60.3890 N   0  0  0  0  0  0  0  0  0  0  0  0
   41.4610   74.9740   59.7240 C   0  0  0  0  0  0  0  0  0  0  0  0
   41.0290   76.1840   59.1710 C   0  0  0  0  0  0  0  0  0  0  0  0
   39.6950   76.5720   59.3390 C   0  0  0  0  0  0  0  0  0  0  0  0
   39.2400   77.6410   58.8720 O   0  0  0  0  0  0  0  0  0  0  0  0
   38.8590   75.7660   60.0320 N   0  0  0  0  0  0  0  0  0  0  0  0
   39.2780   74.5810   60.5740 C   0  0  0  0  0  0  0  0  0  0  0  0
   38.5050   73.8450   61.2070 O   0  0  0  0  0  0  0  0  0  0  0  0
   42.4920   74.7180   59.5700 H   0  0  0  0  0  0  0  0  0  0  0  0
   41.6930   76.8300   58.6180 H   0  0  0  0  0  0  0  0  0  0  0  0
   37.8660   76.0720   60.1450 H   0  0  0  0  0  0  0  0  0  0  0  0
   43.8230   68.8940   61.6820 C   0  0  0  0  0  0  0  0  0  0  0  0
   42.6710   69.3700   62.2710 C   0  0  0  0  0  0  0  0  0  0  0  0
   42.0730   68.5880   63.2480 C   0  0  0  0  0  0  0  0  0  0  0  0
   41.1690   68.9400   63.7240 H   0  0  0  0  0  0  0  0  0  0  0  0
   42.6130   67.3730   63.6200 C   0  0  0  0  0  3  0  0  0  0  0  0
   43.7680   66.8890   63.0350 C   0  0  0  0  0  3  0  0  0  0  0  0
   44.3470   67.6820   62.0660 C   0  0  0  0  0  0  0  0  0  0  0  0
   44.5230   69.5730   60.6940 O   0  0  0  0  0  0  0  0  0  0  0  0
   45.1760   70.3170   60.9320 H   0  0  0  0  0  0  0  0  0  0  0  0
   45.5070   67.1750   61.4920 O   0  0  0  0  0  0  0  0  0  0  0  0
   46.3060   66.9740   62.1130 H   0  0  0  0  0  0  0  0  0  0  0  0
  1  6  2  0  0  0  0
  1  2  1  0  0  0  0
  2  3  2  0  0  0  0
  3  4  1  0  0  0  0
  3  8  1  0  0  0  0
  5 21  1  0  0  0  0
  5  4  2  0  0  0  0
  6  5  1  0  0  0  0
  7  1  1  0  0  0  0
  9 15  1  0  0  0  0
  9  2  1  0  0  0  0
 10  9  1  0  0  0  0
 11 12  1  0  0  0  0
 11 10  2  0  0  0  0
 12 14  1  0  0  0  0
 13 12  2  0  0  0  0
 14 19  1  0  0  0  0
 14 15  1  0  0  0  0
 15 16  2  0  0  0  0
 17 10  1  0  0  0  0
 18 11  1  0  0  0  0
 20 26  2  0  0  0  0
 20 21  1  0  0  0  0
 21 22  2  0  0  0  0
 22 24  1  0  0  0  0
 22 23  1  0  0  0  0
 25 24  2  0  0  0  0
 26 25  1  0  0  0  0
 27 28  1  0  0  0  0
 27 20  1  0  0  0  0
 29 26  1  0  0  0  0
 29 30  1  0  0  0  0
M  END
>  <minimizedAffinity>
-5.92544413

$$$$

 OpenBabel03212520303D

 30 32  0  0  0  0  0  0  0  0999 V2000
   40.3190   74.4560   58.4600 C   0  0  0  0  0  0  0  0  0  0  0  0
   39.9590   73.1770   58.8920 C   0  0  0  0  0  0  0  0  0  0  0  0
   38.8670   72.5800   58.2530 C   0  0  0  0  0  0  0  0  0  0  0  0
   38.2230   73.2500   57.2670 N   0  0  0  0  0  0  0  0  0  0  0  0
   38.6050   74.4840   56.8810 C   0  0  0  0  0  0  0  0  0  0  0  0
   39.6560   75.0780   57.4840 N   0  0  0  0  0  0  0  0  0  0  0  0
   41.1610   74.9540   58.9310 H   0  0  0  0  0  0  0  0  0  0  0  0
   38.5560   71.5930   58.5560 H   0  0  0  0  0  0  0  0  0  0  0  0
   40.6820   72.5370   59.9320 N   0  0  0  0  0  0  0  0  0  0  0  0
   40.2910   72.8870   61.1520 C   0  0  0  0  0  0  0  0  0  0  0  0
   40.9450   72.3080   62.2450 C   0  0  0  0  0  0  0  0  0  0  0  0
   41.9780   71.3920   62.0130 C   0  0  0  0  0  0  0  0  0  0  0  0
   42.6060   70.8360   62.9430 O   0  0  0  0  0  0  0  0  0  0  0  0
   42.3150   71.0910   60.7390 N   0  0  0  0  0  0  0  0  0  0  0  0
   41.6770   71.6550   59.6670 C   0  0  0  0  0  0  0  0  0  0  0  0
   41.9910   71.3740   58.5000 O   0  0  0  0  0  0  0  0  0  0  0  0
   39.5050   73.5840   61.3770 H   0  0  0  0  0  0  0  0  0  0  0  0
   40.6790   72.5460   63.2630 H   0  0  0  0  0  0  0  0  0  0  0  0
   43.0880   70.4050   60.5860 H   0  0  0  0  0  0  0  0  0  0  0  0
   38.0210   74.7850   54.5270 C   0  0  0  0  0  0  0  0  0  0  0  0
   37.9400   75.2350   55.8280 C   0  0  0  0  0  0  0  0  0  0  0  0
   37.2200   76.3960   56.0670 C   0  0  0  0  0  0  0  0  0  0  0  0
   37.1420   76.7680   57.0780 H   0  0  0  0  0  0  0  0  0  0  0  0
   36.6040   77.0790   55.0380 C   0  0  0  0  0  3  0  0  0  0  0  0
   36.6790   76.6340   53.7320 C   0  0  0  0  0  3  0  0  0  0  0  0
   37.3990   75.4780   53.5150 C   0  0  0  0  0  0  0  0  0  0  0  0
   38.7070   73.6390   54.1480 O   0  0  0  0  0  0  0  0  0  0  0  0
   38.2820   72.7190   54.2410 H   0  0  0  0  0  0  0  0  0  0  0  0
   37.4620   75.0500   52.1940 O   0  0  0  0  0  0  0  0  0  0  0  0
   36.5740   74.8460   51.7090 H   0  0  0  0  0  0  0  0  0  0  0  0
  1  2  1  0  0  0  0
  1  7  1  0  0  0  0
  2  9  1  0  0  0  0
  3  8  1  0  0  0  0
  3  2  2  0  0  0  0
  4  3  1  0  0  0  0
  5  4  2  0  0  0  0
  5  6  1  0  0  0  0
  6  1  2  0  0  0  0
  9 10  1  0  0  0  0
 10 17  1  0  0  0  0
 10 11  2  0  0  0  0
 11 18  1  0  0  0  0
 12 11  1  0  0  0  0
 12 13  2  0  0  0  0
 14 12  1  0  0  0  0
 15  9  1  0  0  0  0
 15 14  1  0  0  0  0
 16 15  2  0  0  0  0
 19 14  1  0  0  0  0
 20 21  1  0  0  0  0
 21 22  2  0  0  0  0
 21  5  1  0  0  0  0
 22 23  1  0  0  0  0
 24 22  1  0  0  0  0
 25 24  2  0  0  0  0
 26 25  1  0  0  0  0
 26 20  2  0  0  0  0
 27 28  1  0  0  0  0
 27 20  1  0  0  0  0
 29 26  1  0  0  0  0
 30 29  1  0  0  0  0
M  END
>  <minimizedAffinity>
-5.90754461

$$$$

 OpenBabel03212520303D

 30 32  0  0  0  0  0  0  0  0999 V2000
   41.3830   71.6450   60.4660 C   0  0  0  0  0  0  0  0  0  0  0  0
   41.7600   70.5190   59.7310 C   0  0  0  0  0  0  0  0  0  0  0  0
   41.2540   70.4150   58.4320 C   0  0  0  0  0  0  0  0  0  0  0  0
   40.4410   71.3880   57.9530 N   0  0  0  0  0  0  0  0  0  0  0  0
   40.1030   72.4610   58.6980 C   0  0  0  0  0  0  0  0  0  0  0  0
   40.5810   72.5800   59.9540 N   0  0  0  0  0  0  0  0  0  0  0  0
   41.7550   71.7620   61.4800 H   0  0  0  0  0  0  0  0  0  0  0  0
   41.5200   69.5610   57.8300 H   0  0  0  0  0  0  0  0  0  0  0  0
   42.6150   69.5400   60.3000 N   0  0  0  0  0  0  0  0  0  0  0  0
   41.9720   68.5000   60.8200 C   0  0  0  0  0  0  0  0  0  0  0  0
   42.7310   67.4820   61.4050 C   0  0  0  0  0  0  0  0  0  0  0  0
   44.1260   67.5950   61.4210 C   0  0  0  0  0  0  0  0  0  0  0  0
   44.8670   66.7210   61.9280 O   0  0  0  0  0  0  0  0  0  0  0  0
   44.7030   68.6870   60.8710 N   0  0  0  0  0  0  0  0  0  0  0  0
   43.9640   69.6860   60.2980 C   0  0  0  0  0  0  0  0  0  0  0  0
   44.4990   70.6850   59.7930 O   0  0  0  0  0  0  0  0  0  0  0  0
   40.9060   68.3710   60.8300 H   0  0  0  0  0  0  0  0  0  0  0  0
   42.2750   66.6080   61.8450 H   0  0  0  0  0  0  0  0  0  0  0  0
   45.7460   68.7530   60.8920 H   0  0  0  0  0  0  0  0  0  0  0  0
   38.1460   73.2040   57.4380 C   0  0  0  0  0  0  0  0  0  0  0  0
   39.2350   73.5250   58.2210 C   0  0  0  0  0  0  0  0  0  0  0  0
   39.4480   74.8630   58.5150 C   0  0  0  0  0  0  0  0  0  0  0  0
   40.2950   75.1390   59.1270 H   0  0  0  0  0  0  0  0  0  0  0  0
   38.5990   75.8430   58.0410 C   0  0  0  0  0  3  0  0  0  0  0  0
   37.5060   75.5300   57.2560 C   0  0  0  0  0  3  0  0  0  0  0  0
   37.3100   74.1940   56.9750 C   0  0  0  0  0  0  0  0  0  0  0  0
   37.8160   71.9080   57.0680 O   0  0  0  0  0  0  0  0  0  0  0  0
   37.3020   71.2970   57.7020 H   0  0  0  0  0  0  0  0  0  0  0  0
   36.2050   73.9030   56.1840 O   0  0  0  0  0  0  0  0  0  0  0  0
   35.2760   74.1890   56.5290 H   0  0  0  0  0  0  0  0  0  0  0  0
  1  7  1  0  0  0  0
  2  9  1  0  0  0  0
  2  1  2  0  0  0  0
  3  2  1  0  0  0  0
  4  3  2  0  0  0  0
  4  5  1  0  0  0  0
  5  6  2  0  0  0  0
  6  1  1  0  0  0  0
  8  3  1  0  0  0  0
  9 10  1  0  0  0  0
 10 17  1  0  0  0  0
 10 11  2  0  0  0  0
 11 12  1  0  0  0  0
 11 18  1  0  0  0  0
 12 13  2  0  0  0  0
 14 19  1  0  0  0  0
 14 12  1  0  0  0  0
 15  9  1  0  0  0  0
 15 14  1  0  0  0  0
 16 15  2  0  0  0  0
 20 21  1  0  0  0  0
 21 22  2  0  0  0  0
 21  5  1  0  0  0  0
 22 23  1  0  0  0  0
 24 22  1  0  0  0  0
 25 24  2  0  0  0  0
 26 25  1  0  0  0  0
 26 20  2  0  0  0  0
 27 20  1  0  0  0  0
 27 28  1  0  0  0  0
 29 30  1  0  0  0  0
 29 26  1  0  0  0  0
M  END
>  <minimizedAffinity>
-5.83226681

$$$$
