
 OpenBabel03212520513D

 37 40  0  0  1  0  0  0  0  0999 V2000
   41.6740   83.8620   61.4100 C   0  0  0  0  0  0  0  0  0  0  0  0
   41.1200   84.2330   62.5930 C   0  0  0  0  0  0  0  0  0  0  0  0
   40.6910   83.2840   63.5240 C   0  0  0  0  0  0  0  0  0  0  0  0
   40.8220   81.9700   63.2560 N   0  0  0  0  0  0  0  0  0  0  0  0
   41.3760   81.6190   62.0720 C   0  0  0  0  0  0  0  0  0  0  0  0
   41.7930   82.5280   61.1690 N   0  0  0  0  0  0  0  0  0  0  0  0
   41.0030   85.2780   62.8340 H   0  0  0  0  0  0  0  0  0  0  0  0
   40.2450   83.5420   64.4780 H   0  0  0  0  0  0  0  0  0  0  0  0
   43.6190   86.4540   59.7060 C   0  0  0  0  0  0  0  0  0  0  0  0
   42.9290   86.6030   58.5130 C   0  0  0  0  0  0  0  0  0  0  0  0
   41.7910   85.8230   58.2750 C   0  0  0  0  0  0  0  0  0  0  0  0
   41.4360   84.9500   59.2630 N   0  0  0  0  0  0  0  0  0  0  0  0
   42.1250   84.8250   60.4130 C   0  0  0  0  0  0  0  0  0  0  0  0
   43.2160   85.5670   60.6530 N   0  0  0  0  0  0  0  0  0  0  0  0
   44.7470   87.2900   59.8010 N   0  0  0  0  0  0  0  0  0  0  0  0
   43.1950   87.2860   57.7230 H   0  0  0  0  0  0  0  0  0  0  0  0
   41.1980   85.8750   57.3760 H   0  0  0  0  0  0  0  0  0  0  0  0
   45.6970   86.8960   59.6080 H   0  0  0  0  0  0  0  0  0  0  0  0
   44.3960   88.2560   60.0770 H   0  0  0  0  0  0  0  0  0  0  0  0
   41.4810   80.1440   61.8250 C   0  0  1  0  0  0  0  0  0  0  0  0
   40.7780   79.1840   62.6450 C   0  0  0  0  0  0  0  0  0  0  0  0
   40.1290   79.5560   61.3560 C   0  0  2  0  0  0  0  0  0  0  0  0
   42.3570   79.8200   61.2250 H   0  0  0  0  0  0  0  0  0  0  0  0
   40.2380   79.5410   63.5630 H   0  0  0  0  0  0  0  0  0  0  0  0
   41.1760   78.1620   62.7800 H   0  0  0  0  0  0  0  0  0  0  0  0
   39.2370   80.1850   61.3800 H   0  0  0  0  0  0  0  0  0  0  0  0
   40.1790   79.0800   58.8830 C   0  0  0  0  0  0  0  0  0  0  0  0
   40.2190   78.6400   60.1900 C   0  0  0  0  0  0  0  0  0  0  0  0
   40.3520   77.2700   60.4010 C   0  0  0  0  0  0  0  0  0  0  0  0
   40.3940   76.8250   61.3860 H   0  0  0  0  0  0  0  0  0  0  0  0
   40.4390   76.3930   59.3370 C   0  0  0  0  0  3  0  0  0  0  0  0
   40.3990   76.8290   58.0290 C   0  0  0  0  0  3  0  0  0  0  0  0
   40.2670   78.1780   57.8380 C   0  0  0  0  0  0  0  0  0  0  0  0
   40.0460   80.4430   58.6550 O   0  0  0  0  0  0  0  0  0  0  0  0
   40.9170   80.9530   58.4560 H   0  0  0  0  0  0  0  0  0  0  0  0
   40.2210   78.6780   56.5290 O   0  0  0  0  0  0  0  0  0  0  0  0
   41.0500   78.7960   55.9570 H   0  0  0  0  0  0  0  0  0  0  0  0
  1  2  1  0  0  0  0
  2  7  1  0  0  0  0
  2  3  2  0  0  0  0
  3  8  1  0  0  0  0
  4  3  1  0  0  0  0
  5  4  2  0  0  0  0
  6  1  2  0  0  0  0
  6  5  1  0  0  0  0
  9 15  1  0  0  0  0
  9 14  1  0  0  0  0
 10  9  2  0  0  0  0
 11 10  1  0  0  0  0
 11 12  2  0  0  0  0
 12 13  1  0  0  0  0
 13 14  2  0  0  0  0
 13  1  1  0  0  0  0
 15 19  1  0  0  0  0
 16 10  1  0  0  0  0
 17 11  1  0  0  0  0
 18 15  1  0  0  0  0
 20 23  1  6  0  0  0
 20  5  1  0  0  0  0
 20 21  1  0  0  0  0
 21 25  1  0  0  0  0
 21 24  1  0  0  0  0
 22 26  1  1  0  0  0
 22 20  1  0  0  0  0
 22 21  1  0  0  0  0
 27 28  1  0  0  0  0
 28 29  2  0  0  0  0
 28 22  1  0  0  0  0
 29 30  1  0  0  0  0
 31 29  1  0  0  0  0
 32 31  2  0  0  0  0
 33 32  1  0  0  0  0
 33 27  2  0  0  0  0
 34 27  1  0  0  0  0
 35 34  1  0  0  0  0
 36 33  1  0  0  0  0
 37 36  1  0  0  0  0
M  END
>  <minimizedAffinity>
-5.73167849

>  <minimizedRMSD>
1.01274407

$$$$
