
 OpenBabel03212520453D

 20 21  0  0  0  0  0  0  0  0999 V2000
   40.2630   79.8180   60.0790 C   0  0  0  0  0  0  0  0  0  0  0  0
   40.6320   80.5940   61.1640 C   0  0  0  0  0  0  0  0  0  0  0  0
   40.9240   79.9060   62.2990 C   0  0  0  0  0  0  0  0  0  0  0  0
   41.2160   80.4700   63.1740 H   0  0  0  0  0  0  0  0  0  0  0  0
   40.8610   78.5270   62.3780 C   0  0  0  0  0  3  0  0  0  0  0  0
   40.4870   77.7870   61.2670 C   0  0  0  0  0  3  0  0  0  0  0  0
   40.1780   78.4400   60.0810 C   0  0  0  0  0  0  0  0  0  0  0  0
   40.6720   82.0420   60.9930 C   0  0  0  0  0  0  0  0  0  0  0  0
   41.9010   82.7070   60.8980 C   0  0  0  0  0  0  0  0  0  0  0  0
   41.9680   84.0880   60.7360 C   0  0  0  0  0  0  0  0  0  0  0  0
   40.7810   84.7410   60.6760 N   0  0  0  0  0  0  0  0  0  0  0  0
   39.6070   84.0960   60.7680 C   0  0  0  0  0  0  0  0  0  0  0  0
   39.5530   82.7690   60.9240 N   0  0  0  0  0  0  0  0  0  0  0  0
   42.8340   82.2060   60.9440 H   0  0  0  0  0  0  0  0  0  0  0  0
   42.9290   84.5890   60.6630 H   0  0  0  0  0  0  0  0  0  0  0  0
   38.7240   84.6970   60.7100 H   0  0  0  0  0  0  0  0  0  0  0  0
   39.9440   80.4260   58.8650 O   0  0  0  0  0  0  0  0  0  0  0  0
   39.0550   80.8880   58.7610 H   0  0  0  0  0  0  0  0  0  0  0  0
   39.8060   77.7040   58.9760 O   0  0  0  0  0  0  0  0  0  0  0  0
   39.4130   78.2340   58.1930 H   0  0  0  0  0  0  0  0  0  0  0  0
  1  7  2  0  0  0  0
  1  2  1  0  0  0  0
  2  3  2  0  0  0  0
  3  5  1  0  0  0  0
  3  4  1  0  0  0  0
  6  5  2  0  0  0  0
  7  6  1  0  0  0  0
  8  2  1  0  0  0  0
  9 14  1  0  0  0  0
  9  8  2  0  0  0  0
 10  9  1  0  0  0  0
 11 10  2  0  0  0  0
 11 12  1  0  0  0  0
 12 13  2  0  0  0  0
 13  8  1  0  0  0  0
 15 10  1  0  0  0  0
 16 12  1  0  0  0  0
 17  1  1  0  0  0  0
 18 17  1  0  0  0  0
 19  7  1  0  0  0  0
 20 19  1  0  0  0  0
M  END
>  <minimizedAffinity>
-3.93306828

>  <minimizedRMSD>
1.40521944

$$$$
