
 OpenBabel03212521013D

 44 48  0  0  1  0  0  0  0  0999 V2000
   40.4890   73.4330   60.8940 C   0  0  0  0  0  0  0  0  0  0  0  0
   39.2080   73.6070   61.3270 C   0  0  0  0  0  0  0  0  0  0  0  0
   38.5940   74.7280   60.7380 C   0  0  0  0  0  0  0  0  0  0  0  0
   39.1960   75.5400   59.8490 N   0  0  0  0  0  0  0  0  0  0  0  0
   40.4850   75.2720   59.4880 C   0  0  0  0  0  0  0  0  0  0  0  0
   41.1270   74.2080   60.0190 N   0  0  0  0  0  0  0  0  0  0  0  0
   38.6750   72.9890   62.0350 H   0  0  0  0  0  0  0  0  0  0  0  0
   37.5620   74.9900   60.9930 H   0  0  0  0  0  0  0  0  0  0  0  0
   42.6780   70.0670   61.6000 C   0  0  0  0  0  0  0  0  0  0  0  0
   42.3780   70.7390   62.7650 C   0  0  0  0  0  0  0  0  0  0  0  0
   41.6540   71.8750   62.6490 C   0  0  0  0  0  0  0  0  0  0  0  0
   41.2450   72.3170   61.4100 C   0  0  0  0  0  0  0  0  0  0  0  0
   41.9270   71.0400   60.2650 S   0  0  0  0  0  0  0  0  0  0  0  0
   42.6970   70.3950   63.7440 H   0  0  0  0  0  0  0  0  0  0  0  0
   41.3180   72.5410   63.4340 H   0  0  0  0  0  0  0  0  0  0  0  0
   43.6730   66.5890   62.2200 C   0  0  0  0  0  0  0  0  0  0  0  0
   44.8880   66.4780   61.4930 C   0  0  0  0  0  0  0  0  0  0  0  0
   45.3580   67.5910   60.7970 C   0  0  0  0  0  0  0  0  0  0  0  0
   44.6300   68.7270   60.8470 N   0  0  0  0  0  0  0  0  0  0  0  0
   43.4680   68.8070   61.5510 C   0  0  0  0  0  0  0  0  0  0  0  0
   43.0230   67.7550   62.2100 N   0  0  0  0  0  0  0  0  0  0  0  0
   43.3340   65.7070   62.7510 H   0  0  0  0  0  0  0  0  0  0  0  0
   45.4260   65.5490   61.4880 H   0  0  0  0  0  0  0  0  0  0  0  0
   46.2880   67.5490   60.2250 H   0  0  0  0  0  0  0  0  0  0  0  0
   41.1100   76.1510   58.5270 C   0  0  0  0  0  0  0  0  0  0  0  0
   42.3180   76.4030   58.6830 O   0  0  0  0  0  0  0  0  0  0  0  0
   40.3580   76.7700   57.3730 C   0  0  1  0  0  0  0  0  0  0  0  0
   40.8190   76.2560   56.0340 C   0  0  0  0  0  0  0  0  0  0  0  0
   39.4930   75.9410   56.5660 C   0  0  2  0  0  0  0  0  0  0  0  0
   40.5110   77.8720   57.3780 H   0  0  0  0  0  0  0  0  0  0  0  0
   41.5870   75.4370   55.9950 H   0  0  0  0  0  0  0  0  0  0  0  0
   40.9490   76.9600   55.1940 H   0  0  0  0  0  0  0  0  0  0  0  0
   39.3330   74.8820   56.9170 H   0  0  0  0  0  0  0  0  0  0  0  0
   37.7630   75.5070   54.9510 C   0  0  0  0  0  0  0  0  0  0  0  0
   38.3410   76.4410   55.7980 C   0  0  0  0  0  0  0  0  0  0  0  0
   37.8190   77.7160   55.8580 C   0  0  0  0  0  0  0  0  0  0  0  0
   38.2960   78.4160   56.5300 H   0  0  0  0  0  0  0  0  0  0  0  0
   36.7310   78.0100   55.0620 C   0  0  0  0  0  3  0  0  0  0  0  0
   36.1360   77.1050   54.2120 C   0  0  0  0  0  3  0  0  0  0  0  0
   36.6750   75.8280   54.1660 C   0  0  0  0  0  0  0  0  0  0  0  0
   38.2400   74.1870   54.8370 O   0  0  0  0  0  0  0  0  0  0  0  0
   37.8020   73.5470   55.5170 H   0  0  0  0  0  0  0  0  0  0  0  0
   36.1060   74.8850   53.3230 O   0  0  0  0  0  0  0  0  0  0  0  0
   35.0880   74.8950   53.2710 H   0  0  0  0  0  0  0  0  0  0  0  0
  1  2  1  0  0  0  0
  1 12  1  0  0  0  0
  2  7  1  0  0  0  0
  3  8  1  0  0  0  0
  3  2  2  0  0  0  0
  4  3  1  0  0  0  0
  5  4  2  0  0  0  0
  5  6  1  0  0  0  0
  6  1  2  0  0  0  0
  9 10  2  0  0  0  0
 10 14  1  0  0  0  0
 11 10  1  0  0  0  0
 11 15  1  0  0  0  0
 12 11  2  0  0  0  0
 13 12  1  0  0  0  0
 13  9  1  0  0  0  0
 16 22  1  0  0  0  0
 17 16  2  0  0  0  0
 18 19  2  0  0  0  0
 18 17  1  0  0  0  0
 19 20  1  0  0  0  0
 20  9  1  0  0  0  0
 20 21  2  0  0  0  0
 21 16  1  0  0  0  0
 23 17  1  0  0  0  0
 24 18  1  0  0  0  0
 25 26  2  0  0  0  0
 25  5  1  0  0  0  0
 27 30  1  1  0  0  0
 27 25  1  0  0  0  0
 28 29  1  0  0  0  0
 28 27  1  0  0  0  0
 29 33  1  1  0  0  0
 29 27  1  0  0  0  0
 31 28  1  0  0  0  0
 32 28  1  0  0  0  0
 34 35  1  0  0  0  0
 35 36  2  0  0  0  0
 35 29  1  0  0  0  0
 36 37  1  0  0  0  0
 38 36  1  0  0  0  0
 39 38  2  0  0  0  0
 40 39  1  0  0  0  0
 40 34  2  0  0  0  0
 41 34  1  0  0  0  0
 41 42  1  0  0  0  0
 43 40  1  0  0  0  0
 44 43  1  0  0  0  0
M  END
>  <minimizedAffinity>
-7.22797251

$$$$

 OpenBabel03212521013D

 44 48  0  0  1  0  0  0  0  0999 V2000
   42.1770   73.5770   60.3520 C   0  0  0  0  0  0  0  0  0  0  0  0
   43.2760   73.7310   59.5580 C   0  0  0  0  0  0  0  0  0  0  0  0
   43.2540   74.9450   58.8490 C   0  0  0  0  0  0  0  0  0  0  0  0
   42.2660   75.8560   58.9380 N   0  0  0  0  0  0  0  0  0  0  0  0
   41.2120   75.5970   59.7650 C   0  0  0  0  0  0  0  0  0  0  0  0
   41.1770   74.4470   60.4730 N   0  0  0  0  0  0  0  0  0  0  0  0
   44.0960   73.0370   59.4480 H   0  0  0  0  0  0  0  0  0  0  0  0
   44.0740   75.2040   58.1710 H   0  0  0  0  0  0  0  0  0  0  0  0
   41.9190   69.8160   61.9060 C   0  0  0  0  0  0  0  0  0  0  0  0
   41.8380   70.7840   62.8830 C   0  0  0  0  0  0  0  0  0  0  0  0
   41.9140   72.0720   62.4810 C   0  0  0  0  0  0  0  0  0  0  0  0
   42.0640   72.3760   61.1450 C   0  0  0  0  0  0  0  0  0  0  0  0
   42.1090   70.7160   60.3410 S   0  0  0  0  0  0  0  0  0  0  0  0
   41.7200   70.5490   63.9370 H   0  0  0  0  0  0  0  0  0  0  0  0
   41.8720   72.9690   63.0850 H   0  0  0  0  0  0  0  0  0  0  0  0
   40.9960   66.6350   63.4870 C   0  0  0  0  0  0  0  0  0  0  0  0
   41.7200   65.6840   62.7190 C   0  0  0  0  0  0  0  0  0  0  0  0
   42.5150   66.1360   61.6670 C   0  0  0  0  0  0  0  0  0  0  0  0
   42.5590   67.4640   61.4270 N   0  0  0  0  0  0  0  0  0  0  0  0
   41.8570   68.3550   62.1780 C   0  0  0  0  0  0  0  0  0  0  0  0
   41.1040   67.9280   63.1740 N   0  0  0  0  0  0  0  0  0  0  0  0
   40.3870   66.2530   64.2980 H   0  0  0  0  0  0  0  0  0  0  0  0
   41.6460   64.6390   62.9540 H   0  0  0  0  0  0  0  0  0  0  0  0
   43.0880   65.4390   61.0510 H   0  0  0  0  0  0  0  0  0  0  0  0
   40.1660   76.5900   59.8530 C   0  0  0  0  0  0  0  0  0  0  0  0
   40.1420   77.3090   60.8670 O   0  0  0  0  0  0  0  0  0  0  0  0
   39.1190   76.7710   58.7800 C   0  0  1  0  0  0  0  0  0  0  0  0
   39.3400   78.0100   57.9530 C   0  0  0  0  0  0  0  0  0  0  0  0
   39.5020   76.6690   57.3920 C   0  0  2  0  0  0  0  0  0  0  0  0
   38.1150   76.8620   59.2530 H   0  0  0  0  0  0  0  0  0  0  0  0
   40.2600   78.6300   58.1270 H   0  0  0  0  0  0  0  0  0  0  0  0
   38.4810   78.6470   57.6810 H   0  0  0  0  0  0  0  0  0  0  0  0
   40.5580   76.3380   57.1790 H   0  0  0  0  0  0  0  0  0  0  0  0
   39.0140   75.2290   55.5260 C   0  0  0  0  0  0  0  0  0  0  0  0
   38.5850   76.2970   56.3020 C   0  0  0  0  0  0  0  0  0  0  0  0
   37.3830   76.9070   56.0090 C   0  0  0  0  0  0  0  0  0  0  0  0
   37.0830   77.7350   56.6360 H   0  0  0  0  0  0  0  0  0  0  0  0
   36.6510   76.4230   54.9440 C   0  0  0  0  0  3  0  0  0  0  0  0
   37.0510   75.3670   54.1570 C   0  0  0  0  0  3  0  0  0  0  0  0
   38.2610   74.7670   54.4660 C   0  0  0  0  0  0  0  0  0  0  0  0
   40.2280   74.5570   55.7630 O   0  0  0  0  0  0  0  0  0  0  0  0
   40.1230   73.7740   56.4270 H   0  0  0  0  0  0  0  0  0  0  0  0
   38.7010   73.6990   53.6980 O   0  0  0  0  0  0  0  0  0  0  0  0
   37.9830   73.0340   53.4110 H   0  0  0  0  0  0  0  0  0  0  0  0
  1  6  1  0  0  0  0
  1 12  1  0  0  0  0
  2  1  2  0  0  0  0
  3  4  2  0  0  0  0
  3  2  1  0  0  0  0
  4  5  1  0  0  0  0
  5 25  1  0  0  0  0
  5  6  2  0  0  0  0
  7  2  1  0  0  0  0
  8  3  1  0  0  0  0
  9 20  1  0  0  0  0
  9 10  2  0  0  0  0
 10 14  1  0  0  0  0
 11 10  1  0  0  0  0
 11 15  1  0  0  0  0
 12 11  2  0  0  0  0
 13 12  1  0  0  0  0
 13  9  1  0  0  0  0
 16 22  1  0  0  0  0
 17 23  1  0  0  0  0
 17 16  2  0  0  0  0
 18 17  1  0  0  0  0
 19 18  2  0  0  0  0
 19 20  1  0  0  0  0
 20 21  2  0  0  0  0
 21 16  1  0  0  0  0
 24 18  1  0  0  0  0
 25 26  2  0  0  0  0
 27 30  1  1  0  0  0
 27 25  1  0  0  0  0
 28 31  1  0  0  0  0
 28 27  1  0  0  0  0
 29 33  1  6  0  0  0
 29 28  1  0  0  0  0
 29 27  1  0  0  0  0
 32 28  1  0  0  0  0
 34 41  1  0  0  0  0
 34 35  1  0  0  0  0
 35 29  1  0  0  0  0
 36 35  2  0  0  0  0
 36 37  1  0  0  0  0
 38 36  1  0  0  0  0
 39 40  1  0  0  0  0
 39 38  2  0  0  0  0
 40 34  2  0  0  0  0
 41 42  1  0  0  0  0
 43 40  1  0  0  0  0
 44 43  1  0  0  0  0
M  END
>  <minimizedAffinity>
-7.16174936

$$$$

 OpenBabel03212521013D

 44 48  0  0  1  0  0  0  0  0999 V2000
   39.3640   75.8020   59.0960 C   0  0  0  0  0  0  0  0  0  0  0  0
   39.8960   77.0220   59.3930 C   0  0  0  0  0  0  0  0  0  0  0  0
   39.5100   78.0100   58.4700 C   0  0  0  0  0  0  0  0  0  0  0  0
   38.7080   77.7860   57.4120 N   0  0  0  0  0  0  0  0  0  0  0  0
   38.2320   76.5220   57.2100 C   0  0  0  0  0  0  0  0  0  0  0  0
   38.5680   75.5310   58.0640 N   0  0  0  0  0  0  0  0  0  0  0  0
   40.5420   77.2600   60.2250 H   0  0  0  0  0  0  0  0  0  0  0  0
   39.8630   79.0410   58.5830 H   0  0  0  0  0  0  0  0  0  0  0  0
   40.8810   72.6010   61.1130 C   0  0  0  0  0  0  0  0  0  0  0  0
   39.6620   72.9950   61.6180 C   0  0  0  0  0  0  0  0  0  0  0  0
   39.0640   74.0520   61.0240 C   0  0  0  0  0  0  0  0  0  0  0  0
   39.6700   74.6880   59.9620 C   0  0  0  0  0  0  0  0  0  0  0  0
   41.2370   73.7380   59.7450 S   0  0  0  0  0  0  0  0  0  0  0  0
   39.1800   72.4980   62.4540 H   0  0  0  0  0  0  0  0  0  0  0  0
   38.1150   74.5120   61.2670 H   0  0  0  0  0  0  0  0  0  0  0  0
   42.1260   70.0640   63.4570 C   0  0  0  0  0  0  0  0  0  0  0  0
   43.1050   69.3820   62.6860 C   0  0  0  0  0  0  0  0  0  0  0  0
   43.3320   69.7930   61.3730 C   0  0  0  0  0  0  0  0  0  0  0  0
   42.6050   70.8240   60.8940 N   0  0  0  0  0  0  0  0  0  0  0  0
   41.6720   71.4620   61.6530 C   0  0  0  0  0  0  0  0  0  0  0  0
   41.4570   71.0740   62.8960 N   0  0  0  0  0  0  0  0  0  0  0  0
   41.9720   69.7220   64.4740 H   0  0  0  0  0  0  0  0  0  0  0  0
   43.6540   68.5670   63.1180 H   0  0  0  0  0  0  0  0  0  0  0  0
   44.0760   69.2960   60.7460 H   0  0  0  0  0  0  0  0  0  0  0  0
   37.3670   76.3040   56.0730 C   0  0  0  0  0  0  0  0  0  0  0  0
   36.3810   77.0510   55.9520 O   0  0  0  0  0  0  0  0  0  0  0  0
   37.6120   75.2140   55.0570 C   0  0  1  0  0  0  0  0  0  0  0  0
   38.3170   75.7150   53.8230 C   0  0  0  0  0  0  0  0  0  0  0  0
   38.9670   74.8060   54.7690 C   0  0  2  0  0  0  0  0  0  0  0  0
   36.6380   74.7840   54.7320 H   0  0  0  0  0  0  0  0  0  0  0  0
   38.6650   76.7820   53.7850 H   0  0  0  0  0  0  0  0  0  0  0  0
   37.9890   75.3710   52.8280 H   0  0  0  0  0  0  0  0  0  0  0  0
   39.7780   75.2490   55.4120 H   0  0  0  0  0  0  0  0  0  0  0  0
   39.5670   72.5210   55.2300 C   0  0  0  0  0  0  0  0  0  0  0  0
   39.3430   73.4800   54.2510 C   0  0  0  0  0  0  0  0  0  0  0  0
   39.4840   73.1370   52.9230 C   0  0  0  0  0  0  0  0  0  0  0  0
   39.3000   73.9110   52.1900 H   0  0  0  0  0  0  0  0  0  0  0  0
   39.8450   71.8400   52.6220 C   0  0  0  0  0  3  0  0  0  0  0  0
   40.0730   70.8680   53.5700 C   0  0  0  0  0  3  0  0  0  0  0  0
   39.9270   71.2320   54.8990 C   0  0  0  0  0  0  0  0  0  0  0  0
   39.4430   72.7970   56.6060 O   0  0  0  0  0  0  0  0  0  0  0  0
   38.4850   72.6430   56.9550 H   0  0  0  0  0  0  0  0  0  0  0  0
   40.1480   70.2830   55.8870 O   0  0  0  0  0  0  0  0  0  0  0  0
   39.8030   69.3450   55.6850 H   0  0  0  0  0  0  0  0  0  0  0  0
  1  2  1  0  0  0  0
  1 12  1  0  0  0  0
  2  7  1  0  0  0  0
  3  8  1  0  0  0  0
  3  2  2  0  0  0  0
  4  3  1  0  0  0  0
  5  4  2  0  0  0  0
  5  6  1  0  0  0  0
  6  1  2  0  0  0  0
  9 10  2  0  0  0  0
  9 20  1  0  0  0  0
 10 14  1  0  0  0  0
 11 15  1  0  0  0  0
 11 10  1  0  0  0  0
 12 11  2  0  0  0  0
 13 12  1  0  0  0  0
 13  9  1  0  0  0  0
 16 22  1  0  0  0  0
 17 23  1  0  0  0  0
 17 16  2  0  0  0  0
 18 17  1  0  0  0  0
 19 18  2  0  0  0  0
 19 20  1  0  0  0  0
 20 21  2  0  0  0  0
 21 16  1  0  0  0  0
 24 18  1  0  0  0  0
 25  5  1  0  0  0  0
 26 25  2  0  0  0  0
 27 30  1  6  0  0  0
 27 25  1  0  0  0  0
 28 29  1  0  0  0  0
 28 27  1  0  0  0  0
 29 27  1  0  0  0  0
 29 33  1  1  0  0  0
 31 28  1  0  0  0  0
 32 28  1  0  0  0  0
 34 41  1  0  0  0  0
 35 29  1  0  0  0  0
 35 34  2  0  0  0  0
 36 35  1  0  0  0  0
 37 36  1  0  0  0  0
 38 36  2  0  0  0  0
 38 39  1  0  0  0  0
 39 40  2  0  0  0  0
 40 34  1  0  0  0  0
 40 43  1  0  0  0  0
 41 42  1  0  0  0  0
 44 43  1  0  0  0  0
M  END
>  <minimizedAffinity>
-7.15436745

$$$$

 OpenBabel03212521013D

 44 48  0  0  1  0  0  0  0  0999 V2000
   42.3610   71.0960   61.7290 C   0  0  0  0  0  0  0  0  0  0  0  0
   41.6630   70.9340   62.8900 C   0  0  0  0  0  0  0  0  0  0  0  0
   41.8990   69.6810   63.4830 C   0  0  0  0  0  0  0  0  0  0  0  0
   42.7180   68.7430   62.9700 N   0  0  0  0  0  0  0  0  0  0  0  0
   43.3660   69.0120   61.7990 C   0  0  0  0  0  0  0  0  0  0  0  0
   43.1800   70.1990   61.1830 N   0  0  0  0  0  0  0  0  0  0  0  0
   40.9950   71.6490   63.3470 H   0  0  0  0  0  0  0  0  0  0  0  0
   41.4040   69.4120   64.4220 H   0  0  0  0  0  0  0  0  0  0  0  0
   41.2060   74.5320   59.8640 C   0  0  0  0  0  0  0  0  0  0  0  0
   42.5640   74.3220   59.7620 C   0  0  0  0  0  0  0  0  0  0  0  0
   43.0590   73.2090   60.3470 C   0  0  0  0  0  0  0  0  0  0  0  0
   42.2210   72.3390   61.0090 C   0  0  0  0  0  0  0  0  0  0  0  0
   40.5640   73.1270   60.8150 S   0  0  0  0  0  0  0  0  0  0  0  0
   43.2280   75.0050   59.2410 H   0  0  0  0  0  0  0  0  0  0  0  0
   44.0860   72.8660   60.3790 H   0  0  0  0  0  0  0  0  0  0  0  0
   40.1690   78.0090   59.3090 C   0  0  0  0  0  0  0  0  0  0  0  0
   39.2300   77.8890   58.2500 C   0  0  0  0  0  0  0  0  0  0  0  0
   38.9590   76.6220   57.7340 C   0  0  0  0  0  0  0  0  0  0  0  0
   39.6070   75.5650   58.2680 N   0  0  0  0  0  0  0  0  0  0  0  0
   40.5030   75.7070   59.2820 C   0  0  0  0  0  0  0  0  0  0  0  0
   40.7600   76.9050   59.7720 N   0  0  0  0  0  0  0  0  0  0  0  0
   40.3590   79.0070   59.6890 H   0  0  0  0  0  0  0  0  0  0  0  0
   38.7440   78.7650   57.8630 H   0  0  0  0  0  0  0  0  0  0  0  0
   38.2440   76.4850   56.9190 H   0  0  0  0  0  0  0  0  0  0  0  0
   44.2460   67.9960   61.2700 C   0  0  0  0  0  0  0  0  0  0  0  0
   45.0800   67.4990   62.0470 O   0  0  0  0  0  0  0  0  0  0  0  0
   44.1940   67.5370   59.8320 C   0  0  1  0  0  0  0  0  0  0  0  0
   43.0930   66.5410   59.5780 C   0  0  0  0  0  0  0  0  0  0  0  0
   43.0560   67.8920   59.0170 C   0  0  2  0  0  0  0  0  0  0  0  0
   45.1550   67.0450   59.5650 H   0  0  0  0  0  0  0  0  0  0  0  0
   42.3780   66.2890   60.4070 H   0  0  0  0  0  0  0  0  0  0  0  0
   43.2880   65.6600   58.9430 H   0  0  0  0  0  0  0  0  0  0  0  0
   42.3090   68.6030   59.4690 H   0  0  0  0  0  0  0  0  0  0  0  0
   41.8490   68.2160   56.9600 C   0  0  0  0  0  0  0  0  0  0  0  0
   43.0860   67.9940   57.5480 C   0  0  0  0  0  0  0  0  0  0  0  0
   44.2060   67.8890   56.7500 C   0  0  0  0  0  0  0  0  0  0  0  0
   45.1520   67.7170   57.2450 H   0  0  0  0  0  0  0  0  0  0  0  0
   44.0440   68.0120   55.3850 C   0  0  0  0  0  3  0  0  0  0  0  0
   42.8310   68.2320   54.7740 C   0  0  0  0  0  3  0  0  0  0  0  0
   41.7170   68.3340   55.5930 C   0  0  0  0  0  0  0  0  0  0  0  0
   40.6620   68.3340   57.7100 O   0  0  0  0  0  0  0  0  0  0  0  0
   40.4740   69.3050   58.0030 H   0  0  0  0  0  0  0  0  0  0  0  0
   40.4740   68.5560   55.0170 O   0  0  0  0  0  0  0  0  0  0  0  0
   40.4590   69.2070   54.2330 H   0  0  0  0  0  0  0  0  0  0  0  0
  1  2  1  0  0  0  0
  2  7  1  0  0  0  0
  2  3  2  0  0  0  0
  3  8  1  0  0  0  0
  4  3  1  0  0  0  0
  5  4  2  0  0  0  0
  6  1  2  0  0  0  0
  6  5  1  0  0  0  0
  9 13  1  0  0  0  0
 10  9  2  0  0  0  0
 10 11  1  0  0  0  0
 11 15  1  0  0  0  0
 11 12  2  0  0  0  0
 12  1  1  0  0  0  0
 13 12  1  0  0  0  0
 14 10  1  0  0  0  0
 16 22  1  0  0  0  0
 16 21  1  0  0  0  0
 17 16  2  0  0  0  0
 18 17  1  0  0  0  0
 18 19  2  0  0  0  0
 19 20  1  0  0  0  0
 20 21  2  0  0  0  0
 20  9  1  0  0  0  0
 23 17  1  0  0  0  0
 24 18  1  0  0  0  0
 25  5  1  0  0  0  0
 25 26  2  0  0  0  0
 27 30  1  6  0  0  0
 27 25  1  0  0  0  0
 28 27  1  0  0  0  0
 28 31  1  0  0  0  0
 29 33  1  1  0  0  0
 29 28  1  0  0  0  0
 29 27  1  0  0  0  0
 32 28  1  0  0  0  0
 34 35  1  0  0  0  0
 34 41  1  0  0  0  0
 35 29  1  0  0  0  0
 36 37  1  0  0  0  0
 36 35  2  0  0  0  0
 38 36  1  0  0  0  0
 39 38  2  0  0  0  0
 39 40  1  0  0  0  0
 40 34  2  0  0  0  0
 41 42  1  0  0  0  0
 43 40  1  0  0  0  0
 44 43  1  0  0  0  0
M  END
>  <minimizedAffinity>
-6.44871569

$$$$

 OpenBabel03212521013D

 44 48  0  0  1  0  0  0  0  0999 V2000
   38.2210   75.1190   55.8340 C   0  0  0  0  0  0  0  0  0  0  0  0
   36.8950   75.4370   55.8380 C   0  0  0  0  0  0  0  0  0  0  0  0
   36.3560   75.4880   54.5400 C   0  0  0  0  0  0  0  0  0  0  0  0
   37.0610   75.2510   53.4180 N   0  0  0  0  0  0  0  0  0  0  0  0
   38.3850   74.9410   53.5320 C   0  0  0  0  0  0  0  0  0  0  0  0
   38.9600   74.8770   54.7530 N   0  0  0  0  0  0  0  0  0  0  0  0
   36.2800   75.6360   56.7040 H   0  0  0  0  0  0  0  0  0  0  0  0
   35.2990   75.7330   54.3900 H   0  0  0  0  0  0  0  0  0  0  0  0
   40.2570   74.1000   59.2160 C   0  0  0  0  0  0  0  0  0  0  0  0
   39.9140   75.4350   59.2040 C   0  0  0  0  0  0  0  0  0  0  0  0
   39.2350   75.8850   58.1260 C   0  0  0  0  0  0  0  0  0  0  0  0
   38.9110   75.0250   57.0990 C   0  0  0  0  0  0  0  0  0  0  0  0
   39.6140   73.4150   57.6640 S   0  0  0  0  0  0  0  0  0  0  0  0
   40.1670   76.1160   60.0110 H   0  0  0  0  0  0  0  0  0  0  0  0
   38.8770   76.8870   57.9270 H   0  0  0  0  0  0  0  0  0  0  0  0
   40.9240   72.2120   62.2920 C   0  0  0  0  0  0  0  0  0  0  0  0
   42.3420   72.2420   62.3750 C   0  0  0  0  0  0  0  0  0  0  0  0
   43.0590   72.9050   61.3790 C   0  0  0  0  0  0  0  0  0  0  0  0
   42.3660   73.4900   60.3790 N   0  0  0  0  0  0  0  0  0  0  0  0
   41.0080   73.4470   60.3230 C   0  0  0  0  0  0  0  0  0  0  0  0
   40.3280   72.8200   61.2640 N   0  0  0  0  0  0  0  0  0  0  0  0
   40.3960   71.6880   63.0800 H   0  0  0  0  0  0  0  0  0  0  0  0
   42.8410   71.7580   63.1930 H   0  0  0  0  0  0  0  0  0  0  0  0
   44.1500   72.9530   61.4050 H   0  0  0  0  0  0  0  0  0  0  0  0
   39.1230   74.6830   52.3170 C   0  0  0  0  0  0  0  0  0  0  0  0
   39.3450   75.6490   51.5660 O   0  0  0  0  0  0  0  0  0  0  0  0
   39.6110   73.3070   51.9330 C   0  0  1  0  0  0  0  0  0  0  0  0
   41.0780   73.1100   52.2110 C   0  0  0  0  0  0  0  0  0  0  0  0
   40.0470   72.3970   52.9660 C   0  0  2  0  0  0  0  0  0  0  0  0
   39.4550   73.1480   50.8430 H   0  0  0  0  0  0  0  0  0  0  0  0
   41.6530   73.9240   52.7300 H   0  0  0  0  0  0  0  0  0  0  0  0
   41.7100   72.5920   51.4700 H   0  0  0  0  0  0  0  0  0  0  0  0
   39.8900   72.7250   54.0320 H   0  0  0  0  0  0  0  0  0  0  0  0
   40.3810   70.2490   53.9990 C   0  0  0  0  0  0  0  0  0  0  0  0
   40.0380   70.9300   52.8400 C   0  0  0  0  0  0  0  0  0  0  0  0
   39.7260   70.2160   51.7020 C   0  0  0  0  0  0  0  0  0  0  0  0
   39.4630   70.7810   50.8190 H   0  0  0  0  0  0  0  0  0  0  0  0
   39.7700   68.8380   51.7680 C   0  0  0  0  0  3  0  0  0  0  0  0
   40.1070   68.1360   52.9030 C   0  0  0  0  0  3  0  0  0  0  0  0
   40.4170   68.8710   54.0360 C   0  0  0  0  0  0  0  0  0  0  0  0
   40.7120   70.9100   55.1980 O   0  0  0  0  0  0  0  0  0  0  0  0
   39.8870   71.0940   55.7890 H   0  0  0  0  0  0  0  0  0  0  0  0
   40.7620   68.2020   55.2010 O   0  0  0  0  0  0  0  0  0  0  0  0
   40.2270   67.3580   55.4030 H   0  0  0  0  0  0  0  0  0  0  0  0
  1  2  1  0  0  0  0
  1 12  1  0  0  0  0
  2  7  1  0  0  0  0
  3  2  2  0  0  0  0
  4  5  2  0  0  0  0
  4  3  1  0  0  0  0
  5  6  1  0  0  0  0
  6  1  2  0  0  0  0
  8  3  1  0  0  0  0
  9 20  1  0  0  0  0
 10  9  2  0  0  0  0
 10 14  1  0  0  0  0
 11 10  1  0  0  0  0
 12 13  1  0  0  0  0
 12 11  2  0  0  0  0
 13  9  1  0  0  0  0
 15 11  1  0  0  0  0
 16 17  1  0  0  0  0
 16 22  1  0  0  0  0
 17 23  1  0  0  0  0
 18 24  1  0  0  0  0
 18 17  2  0  0  0  0
 19 18  1  0  0  0  0
 20 19  2  0  0  0  0
 20 21  1  0  0  0  0
 21 16  2  0  0  0  0
 25  5  1  0  0  0  0
 26 25  2  0  0  0  0
 27 30  1  6  0  0  0
 27 28  1  0  0  0  0
 27 25  1  0  0  0  0
 27 29  1  0  0  0  0
 28 31  1  0  0  0  0
 28 29  1  0  0  0  0
 29 33  1  1  0  0  0
 32 28  1  0  0  0  0
 34 40  1  0  0  0  0
 34 41  1  0  0  0  0
 35 29  1  0  0  0  0
 35 34  2  0  0  0  0
 36 38  2  0  0  0  0
 36 35  1  0  0  0  0
 37 36  1  0  0  0  0
 38 39  1  0  0  0  0
 39 40  2  0  0  0  0
 40 43  1  0  0  0  0
 41 42  1  0  0  0  0
 43 44  1  0  0  0  0
M  END
>  <minimizedAffinity>
-6.31160307

$$$$

 OpenBabel03212521013D

 44 48  0  0  1  0  0  0  0  0999 V2000
   41.6990   68.5480   59.1550 C   0  0  0  0  0  0  0  0  0  0  0  0
   41.7910   67.2040   59.3680 C   0  0  0  0  0  0  0  0  0  0  0  0
   42.0380   66.8950   60.7180 C   0  0  0  0  0  0  0  0  0  0  0  0
   42.1710   67.8140   61.6930 N   0  0  0  0  0  0  0  0  0  0  0  0
   42.0620   69.1350   61.3650 C   0  0  0  0  0  0  0  0  0  0  0  0
   41.8240   69.4940   60.0850 N   0  0  0  0  0  0  0  0  0  0  0  0
   41.6920   66.4240   58.6280 H   0  0  0  0  0  0  0  0  0  0  0  0
   42.1350   65.8520   61.0370 H   0  0  0  0  0  0  0  0  0  0  0  0
   40.7350   70.5270   55.7240 C   0  0  0  0  0  0  0  0  0  0  0  0
   41.2170   69.2620   55.4700 C   0  0  0  0  0  0  0  0  0  0  0  0
   41.5710   68.5140   56.5380 C   0  0  0  0  0  0  0  0  0  0  0  0
   41.4430   69.0170   57.8140 C   0  0  0  0  0  0  0  0  0  0  0  0
   40.7630   70.7090   57.5290 S   0  0  0  0  0  0  0  0  0  0  0  0
   41.3190   68.8610   54.4660 H   0  0  0  0  0  0  0  0  0  0  0  0
   41.9670   67.5060   56.5520 H   0  0  0  0  0  0  0  0  0  0  0  0
   39.8050   71.8250   52.4190 C   0  0  0  0  0  0  0  0  0  0  0  0
   39.5300   73.1930   52.6870 C   0  0  0  0  0  0  0  0  0  0  0  0
   39.6630   73.6600   53.9940 C   0  0  0  0  0  0  0  0  0  0  0  0
   40.0490   72.7850   54.9470 N   0  0  0  0  0  0  0  0  0  0  0  0
   40.3060   71.4800   54.6640 C   0  0  0  0  0  0  0  0  0  0  0  0
   40.1810   71.0360   53.4280 N   0  0  0  0  0  0  0  0  0  0  0  0
   39.6930   71.4910   51.3940 H   0  0  0  0  0  0  0  0  0  0  0  0
   39.2260   73.8440   51.8900 H   0  0  0  0  0  0  0  0  0  0  0  0
   39.4620   74.7050   54.2440 H   0  0  0  0  0  0  0  0  0  0  0  0
   42.2000   70.1040   62.4270 C   0  0  0  0  0  0  0  0  0  0  0  0
   42.9440   69.8090   63.3780 O   0  0  0  0  0  0  0  0  0  0  0  0
   41.4770   71.4300   62.4230 C   0  0  1  0  0  0  0  0  0  0  0  0
   42.4130   72.6050   62.5300 C   0  0  0  0  0  0  0  0  0  0  0  0
   41.6560   72.3310   61.3090 C   0  0  2  0  0  0  0  0  0  0  0  0
   40.7840   71.4770   63.2920 H   0  0  0  0  0  0  0  0  0  0  0  0
   43.5220   72.4270   62.5210 H   0  0  0  0  0  0  0  0  0  0  0  0
   42.1550   73.4520   63.1890 H   0  0  0  0  0  0  0  0  0  0  0  0
   42.2440   71.9420   60.4300 H   0  0  0  0  0  0  0  0  0  0  0  0
   41.1670   74.2980   60.0110 C   0  0  0  0  0  0  0  0  0  0  0  0
   40.6770   73.3510   60.9000 C   0  0  0  0  0  0  0  0  0  0  0  0
   39.3650   73.4320   61.3180 C   0  0  0  0  0  0  0  0  0  0  0  0
   39.0190   72.6760   62.0100 H   0  0  0  0  0  0  0  0  0  0  0  0
   38.5890   74.4620   60.8280 C   0  0  0  0  0  3  0  0  0  0  0  0
   39.0480   75.4150   59.9470 C   0  0  0  0  0  3  0  0  0  0  0  0
   40.3680   75.3180   59.5370 C   0  0  0  0  0  0  0  0  0  0  0  0
   42.4950   74.2810   59.5390 O   0  0  0  0  0  0  0  0  0  0  0  0
   42.6040   73.7130   58.6850 H   0  0  0  0  0  0  0  0  0  0  0  0
   40.8710   76.2570   58.6500 O   0  0  0  0  0  0  0  0  0  0  0  0
   40.2380   76.5450   57.9030 H   0  0  0  0  0  0  0  0  0  0  0  0
  1  2  2  0  0  0  0
  1  6  1  0  0  0  0
  2  3  1  0  0  0  0
  3  8  1  0  0  0  0
  3  4  2  0  0  0  0
  5  4  1  0  0  0  0
  5 25  1  0  0  0  0
  6  5  2  0  0  0  0
  7  2  1  0  0  0  0
  9 13  1  0  0  0  0
 10  9  2  0  0  0  0
 10 11  1  0  0  0  0
 11 15  1  0  0  0  0
 11 12  2  0  0  0  0
 12  1  1  0  0  0  0
 13 12  1  0  0  0  0
 14 10  1  0  0  0  0
 16 17  2  0  0  0  0
 16 21  1  0  0  0  0
 17 18  1  0  0  0  0
 18 24  1  0  0  0  0
 18 19  2  0  0  0  0
 20 19  1  0  0  0  0
 20  9  1  0  0  0  0
 21 20  2  0  0  0  0
 22 16  1  0  0  0  0
 23 17  1  0  0  0  0
 25 26  2  0  0  0  0
 27 25  1  0  0  0  0
 27 28  1  0  0  0  0
 27 30  1  1  0  0  0
 28 32  1  0  0  0  0
 29 33  1  6  0  0  0
 29 27  1  0  0  0  0
 29 28  1  0  0  0  0
 31 28  1  0  0  0  0
 34 35  1  0  0  0  0
 35 29  1  0  0  0  0
 35 36  2  0  0  0  0
 36 37  1  0  0  0  0
 38 36  1  0  0  0  0
 39 38  2  0  0  0  0
 40 39  1  0  0  0  0
 40 34  2  0  0  0  0
 41 34  1  0  0  0  0
 42 41  1  0  0  0  0
 43 40  1  0  0  0  0
 44 43  1  0  0  0  0
M  END
>  <minimizedAffinity>
-6.3010869

$$$$

 OpenBabel03212521013D

 44 48  0  0  1  0  0  0  0  0999 V2000
   41.3600   71.4500   59.1540 C   0  0  0  0  0  0  0  0  0  0  0  0
   42.4860   71.6810   59.8880 C   0  0  0  0  0  0  0  0  0  0  0  0
   42.3410   72.7790   60.7540 C   0  0  0  0  0  0  0  0  0  0  0  0
   41.2230   73.5230   60.8540 N   0  0  0  0  0  0  0  0  0  0  0  0
   40.1530   73.2010   60.0680 C   0  0  0  0  0  0  0  0  0  0  0  0
   40.2320   72.1560   59.2160 N   0  0  0  0  0  0  0  0  0  0  0  0
   43.4080   71.1200   59.8510 H   0  0  0  0  0  0  0  0  0  0  0  0
   43.1670   73.0820   61.4060 H   0  0  0  0  0  0  0  0  0  0  0  0
   41.3580   68.8990   55.9740 C   0  0  0  0  0  0  0  0  0  0  0  0
   41.3540   68.2240   57.1750 C   0  0  0  0  0  0  0  0  0  0  0  0
   41.3560   68.9730   58.3000 C   0  0  0  0  0  0  0  0  0  0  0  0
   41.3590   70.3480   58.2210 C   0  0  0  0  0  0  0  0  0  0  0  0
   41.3630   70.6620   56.4030 S   0  0  0  0  0  0  0  0  0  0  0  0
   41.3510   67.1410   57.2430 H   0  0  0  0  0  0  0  0  0  0  0  0
   41.3530   68.6390   59.3300 H   0  0  0  0  0  0  0  0  0  0  0  0
   42.5100   66.9040   53.1160 C   0  0  0  0  0  0  0  0  0  0  0  0
   41.4140   66.9860   52.2160 C   0  0  0  0  0  0  0  0  0  0  0  0
   40.2900   67.7220   52.5930 C   0  0  0  0  0  0  0  0  0  0  0  0
   40.2990   68.3220   53.8020 N   0  0  0  0  0  0  0  0  0  0  0  0
   41.3610   68.2280   54.6460 C   0  0  0  0  0  0  0  0  0  0  0  0
   42.4250   67.5320   54.2910 N   0  0  0  0  0  0  0  0  0  0  0  0
   43.3680   66.3250   52.7960 H   0  0  0  0  0  0  0  0  0  0  0  0
   41.4620   66.4880   51.2670 H   0  0  0  0  0  0  0  0  0  0  0  0
   39.4260   67.8110   51.9310 H   0  0  0  0  0  0  0  0  0  0  0  0
   38.9600   74.0060   60.1950 C   0  0  0  0  0  0  0  0  0  0  0  0
   38.2960   73.8850   61.2390 O   0  0  0  0  0  0  0  0  0  0  0  0
   38.4990   74.9610   59.1190 C   0  0  1  0  0  0  0  0  0  0  0  0
   39.2000   76.2920   59.1810 C   0  0  0  0  0  0  0  0  0  0  0  0
   39.4210   75.3550   58.0800 C   0  0  2  0  0  0  0  0  0  0  0  0
   37.4090   75.1530   59.2350 H   0  0  0  0  0  0  0  0  0  0  0  0
   40.0270   76.4440   59.9270 H   0  0  0  0  0  0  0  0  0  0  0  0
   38.6230   77.2220   59.0390 H   0  0  0  0  0  0  0  0  0  0  0  0
   40.4180   74.8310   58.0600 H   0  0  0  0  0  0  0  0  0  0  0  0
   38.8600   74.7930   55.8080 C   0  0  0  0  0  0  0  0  0  0  0  0
   39.0170   75.8100   56.7390 C   0  0  0  0  0  0  0  0  0  0  0  0
   38.7940   77.1160   56.3590 C   0  0  0  0  0  0  0  0  0  0  0  0
   38.9260   77.8810   57.1120 H   0  0  0  0  0  0  0  0  0  0  0  0
   38.4200   77.3580   55.0530 C   0  0  0  0  0  3  0  0  0  0  0  0
   38.2560   76.3710   54.1080 C   0  0  0  0  0  3  0  0  0  0  0  0
   38.4850   75.0640   54.5090 C   0  0  0  0  0  0  0  0  0  0  0  0
   39.0700   73.4360   56.1220 O   0  0  0  0  0  0  0  0  0  0  0  0
   38.2170   72.9750   56.4740 H   0  0  0  0  0  0  0  0  0  0  0  0
   38.3310   74.0380   53.5870 O   0  0  0  0  0  0  0  0  0  0  0  0
   37.5420   74.1320   52.9480 H   0  0  0  0  0  0  0  0  0  0  0  0
  1  6  2  0  0  0  0
  1  2  1  0  0  0  0
  2  3  2  0  0  0  0
  3  4  1  0  0  0  0
  3  8  1  0  0  0  0
  5 25  1  0  0  0  0
  5  4  2  0  0  0  0
  6  5  1  0  0  0  0
  7  2  1  0  0  0  0
  9 13  1  0  0  0  0
  9 10  2  0  0  0  0
 10 14  1  0  0  0  0
 10 11  1  0  0  0  0
 11 15  1  0  0  0  0
 12 11  2  0  0  0  0
 12  1  1  0  0  0  0
 13 12  1  0  0  0  0
 16 21  1  0  0  0  0
 17 18  1  0  0  0  0
 17 16  2  0  0  0  0
 18 19  2  0  0  0  0
 19 20  1  0  0  0  0
 20  9  1  0  0  0  0
 21 20  2  0  0  0  0
 22 16  1  0  0  0  0
 23 17  1  0  0  0  0
 24 18  1  0  0  0  0
 25 26  2  0  0  0  0
 27 28  1  0  0  0  0
 27 30  1  6  0  0  0
 27 25  1  0  0  0  0
 28 31  1  0  0  0  0
 29 33  1  1  0  0  0
 29 27  1  0  0  0  0
 29 28  1  0  0  0  0
 32 28  1  0  0  0  0
 34 41  1  0  0  0  0
 34 35  1  0  0  0  0
 35 29  1  0  0  0  0
 36 35  2  0  0  0  0
 36 37  1  0  0  0  0
 38 36  1  0  0  0  0
 39 40  1  0  0  0  0
 39 38  2  0  0  0  0
 40 34  2  0  0  0  0
 41 42  1  0  0  0  0
 43 40  1  0  0  0  0
 44 43  1  0  0  0  0
M  END
>  <minimizedAffinity>
-6.21384192

$$$$

 OpenBabel03212521013D

 44 48  0  0  1  0  0  0  0  0999 V2000
   38.6220   74.6110   55.6730 C   0  0  0  0  0  0  0  0  0  0  0  0
   37.3770   75.0080   55.2850 C   0  0  0  0  0  0  0  0  0  0  0  0
   36.8860   76.0660   56.0720 C   0  0  0  0  0  0  0  0  0  0  0  0
   37.5610   76.6260   57.0930 N   0  0  0  0  0  0  0  0  0  0  0  0
   38.8040   76.1470   57.3950 C   0  0  0  0  0  0  0  0  0  0  0  0
   39.3290   75.1330   56.6740 N   0  0  0  0  0  0  0  0  0  0  0  0
   36.7900   74.5980   54.4770 H   0  0  0  0  0  0  0  0  0  0  0  0
   35.8950   76.4880   55.8740 H   0  0  0  0  0  0  0  0  0  0  0  0
   40.2800   71.1550   54.2840 C   0  0  0  0  0  0  0  0  0  0  0  0
   40.3480   72.1690   53.3540 C   0  0  0  0  0  0  0  0  0  0  0  0
   39.8260   73.3640   53.7070 C   0  0  0  0  0  0  0  0  0  0  0  0
   39.2580   73.5340   54.9510 C   0  0  0  0  0  0  0  0  0  0  0  0
   39.4550   71.8740   55.7310 S   0  0  0  0  0  0  0  0  0  0  0  0
   40.7960   72.0400   52.3730 H   0  0  0  0  0  0  0  0  0  0  0  0
   39.7810   74.2770   53.1270 H   0  0  0  0  0  0  0  0  0  0  0  0
   42.2960   68.1150   54.6880 C   0  0  0  0  0  0  0  0  0  0  0  0
   41.7960   67.2700   53.6610 C   0  0  0  0  0  0  0  0  0  0  0  0
   40.7750   67.7460   52.8400 C   0  0  0  0  0  0  0  0  0  0  0  0
   40.3070   68.9920   53.0620 N   0  0  0  0  0  0  0  0  0  0  0  0
   40.8030   69.7810   54.0530 C   0  0  0  0  0  0  0  0  0  0  0  0
   41.7700   69.3330   54.8310 N   0  0  0  0  0  0  0  0  0  0  0  0
   43.0900   67.7170   55.3100 H   0  0  0  0  0  0  0  0  0  0  0  0
   42.2060   66.2870   53.5300 H   0  0  0  0  0  0  0  0  0  0  0  0
   40.3620   67.1290   52.0370 H   0  0  0  0  0  0  0  0  0  0  0  0
   39.5150   76.7670   58.4890 C   0  0  0  0  0  0  0  0  0  0  0  0
   39.5360   78.0100   58.5270 O   0  0  0  0  0  0  0  0  0  0  0  0
   40.2270   75.9710   59.5570 C   0  0  1  0  0  0  0  0  0  0  0  0
   39.3880   75.7710   60.7920 C   0  0  0  0  0  0  0  0  0  0  0  0
   39.7370   74.6590   59.9070 C   0  0  2  0  0  0  0  0  0  0  0  0
   41.1510   76.5090   59.8660 H   0  0  0  0  0  0  0  0  0  0  0  0
   38.3240   76.1340   60.7980 H   0  0  0  0  0  0  0  0  0  0  0  0
   39.8470   75.8790   61.7890 H   0  0  0  0  0  0  0  0  0  0  0  0
   38.9040   74.2420   59.2730 H   0  0  0  0  0  0  0  0  0  0  0  0
   41.3960   72.9460   59.5850 C   0  0  0  0  0  0  0  0  0  0  0  0
   40.5650   73.5910   60.4910 C   0  0  0  0  0  0  0  0  0  0  0  0
   40.5730   73.2020   61.8140 C   0  0  0  0  0  0  0  0  0  0  0  0
   39.9130   73.7280   62.4890 H   0  0  0  0  0  0  0  0  0  0  0  0
   41.4190   72.1760   62.1840 C   0  0  0  0  0  3  0  0  0  0  0  0
   42.2530   71.5180   61.3090 C   0  0  0  0  0  3  0  0  0  0  0  0
   42.2310   71.9230   59.9840 C   0  0  0  0  0  0  0  0  0  0  0  0
   41.4420   73.2870   58.2200 O   0  0  0  0  0  0  0  0  0  0  0  0
   42.1310   74.0280   58.0200 H   0  0  0  0  0  0  0  0  0  0  0  0
   43.0570   71.2860   59.0690 O   0  0  0  0  0  0  0  0  0  0  0  0
   43.9920   71.0530   59.4030 H   0  0  0  0  0  0  0  0  0  0  0  0
  1  6  1  0  0  0  0
  2  1  2  0  0  0  0
  2  3  1  0  0  0  0
  3  4  2  0  0  0  0
  4  5  1  0  0  0  0
  5 25  1  0  0  0  0
  6  5  2  0  0  0  0
  7  2  1  0  0  0  0
  8  3  1  0  0  0  0
  9 13  1  0  0  0  0
 10 11  1  0  0  0  0
 10  9  2  0  0  0  0
 11 12  2  0  0  0  0
 12  1  1  0  0  0  0
 12 13  1  0  0  0  0
 14 10  1  0  0  0  0
 15 11  1  0  0  0  0
 16 21  1  0  0  0  0
 16 22  1  0  0  0  0
 17 16  2  0  0  0  0
 18 19  2  0  0  0  0
 18 17  1  0  0  0  0
 19 20  1  0  0  0  0
 20  9  1  0  0  0  0
 20 21  2  0  0  0  0
 23 17  1  0  0  0  0
 24 18  1  0  0  0  0
 25 26  2  0  0  0  0
 25 27  1  0  0  0  0
 27 30  1  1  0  0  0
 27 29  1  0  0  0  0
 27 28  1  0  0  0  0
 28 31  1  0  0  0  0
 28 32  1  0  0  0  0
 29 33  1  6  0  0  0
 29 35  1  0  0  0  0
 29 28  1  0  0  0  0
 34 40  2  0  0  0  0
 34 35  1  0  0  0  0
 35 36  2  0  0  0  0
 36 38  1  0  0  0  0
 36 37  1  0  0  0  0
 39 38  2  0  0  0  0
 40 39  1  0  0  0  0
 41 34  1  0  0  0  0
 42 41  1  0  0  0  0
 43 44  1  0  0  0  0
 43 40  1  0  0  0  0
M  END
>  <minimizedAffinity>
-6.19696236

$$$$

 OpenBabel03212521013D

 44 48  0  0  1  0  0  0  0  0999 V2000
   41.5040   73.4020   59.7230 C   0  0  0  0  0  0  0  0  0  0  0  0
   42.3620   74.4620   59.7330 C   0  0  0  0  0  0  0  0  0  0  0  0
   41.9080   75.5220   58.9280 C   0  0  0  0  0  0  0  0  0  0  0  0
   40.7600   75.5000   58.2240 N   0  0  0  0  0  0  0  0  0  0  0  0
   39.9770   74.3830   58.2870 C   0  0  0  0  0  0  0  0  0  0  0  0
   40.3600   73.3330   59.0450 N   0  0  0  0  0  0  0  0  0  0  0  0
   43.2920   74.5360   60.2770 H   0  0  0  0  0  0  0  0  0  0  0  0
   42.4970   76.4410   58.8400 H   0  0  0  0  0  0  0  0  0  0  0  0
   42.2740   69.7200   61.2950 C   0  0  0  0  0  0  0  0  0  0  0  0
   42.4780   70.7250   62.2150 C   0  0  0  0  0  0  0  0  0  0  0  0
   42.2530   71.9920   61.8010 C   0  0  0  0  0  0  0  0  0  0  0  0
   41.8370   72.2390   60.5110 C   0  0  0  0  0  0  0  0  0  0  0  0
   41.7420   70.5510   59.7720 S   0  0  0  0  0  0  0  0  0  0  0  0
   42.8040   70.5350   63.2330 H   0  0  0  0  0  0  0  0  0  0  0  0
   42.3540   72.9110   62.3640 H   0  0  0  0  0  0  0  0  0  0  0  0
   41.5790   66.1300   61.6200 C   0  0  0  0  0  0  0  0  0  0  0  0
   42.8080   65.6180   62.1140 C   0  0  0  0  0  0  0  0  0  0  0  0
   43.8650   66.5030   62.3310 C   0  0  0  0  0  0  0  0  0  0  0  0
   43.6670   67.8100   62.0590 N   0  0  0  0  0  0  0  0  0  0  0  0
   42.4790   68.2750   61.5860 C   0  0  0  0  0  0  0  0  0  0  0  0
   41.4780   67.4400   61.3810 N   0  0  0  0  0  0  0  0  0  0  0  0
   40.7770   65.4190   61.4610 H   0  0  0  0  0  0  0  0  0  0  0  0
   42.9100   64.5680   62.3120 H   0  0  0  0  0  0  0  0  0  0  0  0
   44.8270   66.1510   62.7100 H   0  0  0  0  0  0  0  0  0  0  0  0
   38.7460   74.3820   57.5310 C   0  0  0  0  0  0  0  0  0  0  0  0
   37.7710   74.9770   58.0230 O   0  0  0  0  0  0  0  0  0  0  0  0
   38.6060   73.6890   56.1970 C   0  0  1  0  0  0  0  0  0  0  0  0
   39.0450   74.5500   55.0420 C   0  0  0  0  0  0  0  0  0  0  0  0
   39.7920   73.3580   55.4430 C   0  0  2  0  0  0  0  0  0  0  0  0
   37.5390   73.4230   56.0270 H   0  0  0  0  0  0  0  0  0  0  0  0
   39.4980   75.5580   55.2490 H   0  0  0  0  0  0  0  0  0  0  0  0
   38.4470   74.5700   54.1150 H   0  0  0  0  0  0  0  0  0  0  0  0
   40.7820   73.5330   55.9510 H   0  0  0  0  0  0  0  0  0  0  0  0
   40.1330   71.0180   54.9940 C   0  0  0  0  0  0  0  0  0  0  0  0
   39.8720   72.2700   54.4540 C   0  0  0  0  0  0  0  0  0  0  0  0
   39.7140   72.4000   53.0900 C   0  0  0  0  0  0  0  0  0  0  0  0
   39.5110   73.3910   52.7080 H   0  0  0  0  0  0  0  0  0  0  0  0
   39.8230   71.2650   52.3130 C   0  0  0  0  0  3  0  0  0  0  0  0
   40.0810   70.0110   52.8190 C   0  0  0  0  0  3  0  0  0  0  0  0
   40.2370   69.9000   54.1920 C   0  0  0  0  0  0  0  0  0  0  0  0
   40.3060   70.8070   56.3750 O   0  0  0  0  0  0  0  0  0  0  0  0
   39.4180   70.6110   56.8600 H   0  0  0  0  0  0  0  0  0  0  0  0
   40.4980   68.6550   54.7430 O   0  0  0  0  0  0  0  0  0  0  0  0
   39.9900   67.8720   54.3310 H   0  0  0  0  0  0  0  0  0  0  0  0
  1  2  1  0  0  0  0
  1 12  1  0  0  0  0
  2  7  1  0  0  0  0
  3  2  2  0  0  0  0
  4  5  2  0  0  0  0
  4  3  1  0  0  0  0
  5  6  1  0  0  0  0
  6  1  2  0  0  0  0
  8  3  1  0  0  0  0
  9 20  1  0  0  0  0
  9 10  2  0  0  0  0
 10 14  1  0  0  0  0
 11 10  1  0  0  0  0
 11 15  1  0  0  0  0
 12 11  2  0  0  0  0
 13 12  1  0  0  0  0
 13  9  1  0  0  0  0
 16 17  1  0  0  0  0
 17 23  1  0  0  0  0
 17 18  2  0  0  0  0
 18 24  1  0  0  0  0
 19 18  1  0  0  0  0
 20 19  2  0  0  0  0
 21 20  1  0  0  0  0
 21 16  2  0  0  0  0
 22 16  1  0  0  0  0
 25 26  2  0  0  0  0
 25  5  1  0  0  0  0
 27 30  1  6  0  0  0
 27 25  1  0  0  0  0
 28 31  1  0  0  0  0
 28 29  1  0  0  0  0
 28 27  1  0  0  0  0
 29 33  1  1  0  0  0
 29 27  1  0  0  0  0
 32 28  1  0  0  0  0
 34 41  1  0  0  0  0
 35 34  1  0  0  0  0
 35 29  1  0  0  0  0
 36 35  2  0  0  0  0
 37 36  1  0  0  0  0
 38 39  2  0  0  0  0
 38 36  1  0  0  0  0
 39 40  1  0  0  0  0
 40 43  1  0  0  0  0
 40 34  2  0  0  0  0
 41 42  1  0  0  0  0
 44 43  1  0  0  0  0
M  END
>  <minimizedAffinity>
-6.16816568

$$$$
