
 OpenBabel03212520453D

 20 21  0  0  0  0  0  0  0  0999 V2000
   41.9940   80.5230   61.6270 C   0  0  0  0  0  0  0  0  0  0  0  0
   40.7590   80.6440   61.0140 C   0  0  0  0  0  0  0  0  0  0  0  0
   40.2580   79.4980   60.4800 C   0  0  0  0  0  0  0  0  0  0  0  0
   39.2950   79.5450   59.9920 H   0  0  0  0  0  0  0  0  0  0  0  0
   40.9250   78.2900   60.5390 C   0  0  0  0  0  3  0  0  0  0  0  0
   42.1630   78.2110   61.1630 C   0  0  0  0  0  3  0  0  0  0  0  0
   42.7200   79.3520   61.7230 C   0  0  0  0  0  0  0  0  0  0  0  0
   40.1240   81.9570   60.9980 C   0  0  0  0  0  0  0  0  0  0  0  0
   40.1960   82.7610   59.8530 C   0  0  0  0  0  0  0  0  0  0  0  0
   39.6000   84.0180   59.8100 C   0  0  0  0  0  0  0  0  0  0  0  0
   38.9510   84.4100   60.9340 N   0  0  0  0  0  0  0  0  0  0  0  0
   38.8870   83.6330   62.0280 C   0  0  0  0  0  0  0  0  0  0  0  0
   39.4630   82.4280   62.0590 N   0  0  0  0  0  0  0  0  0  0  0  0
   40.7000   82.4640   58.9690 H   0  0  0  0  0  0  0  0  0  0  0  0
   39.6640   84.6290   58.9140 H   0  0  0  0  0  0  0  0  0  0  0  0
   38.3530   84.0300   62.8660 H   0  0  0  0  0  0  0  0  0  0  0  0
   42.5960   81.6390   62.2050 O   0  0  0  0  0  0  0  0  0  0  0  0
   43.0240   82.3340   61.6160 H   0  0  0  0  0  0  0  0  0  0  0  0
   43.9490   79.2740   62.3430 O   0  0  0  0  0  0  0  0  0  0  0  0
   44.3950   80.1660   62.5730 H   0  0  0  0  0  0  0  0  0  0  0  0
  1  7  1  0  0  0  0
  1 17  1  0  0  0  0
  2  1  2  0  0  0  0
  3  5  2  0  0  0  0
  3  2  1  0  0  0  0
  4  3  1  0  0  0  0
  5  6  1  0  0  0  0
  6  7  2  0  0  0  0
  7 19  1  0  0  0  0
  8  2  1  0  0  0  0
  8 13  1  0  0  0  0
  9  8  2  0  0  0  0
 10  9  1  0  0  0  0
 10 11  2  0  0  0  0
 11 12  1  0  0  0  0
 12 13  2  0  0  0  0
 12 16  1  0  0  0  0
 14  9  1  0  0  0  0
 15 10  1  0  0  0  0
 18 17  1  0  0  0  0
 19 20  1  0  0  0  0
M  END
>  <minimizedAffinity>
-4.76259947

>  <minimizedRMSD>
0.352288425

$$$$
