
 OpenBabel03212520053D

 43 47  0  0  0  0  0  0  0  0999 V2000
   40.6550   81.8260   57.0920 C   0  0  0  0  0  0  0  0  0  0  0  0
   41.7280   82.4020   56.3900 C   0  0  0  0  0  0  0  0  0  0  0  0
   42.5200   83.3000   57.0710 C   0  0  0  0  0  0  0  0  0  0  0  0
   42.2520   83.5960   58.3710 N   0  0  0  0  0  0  0  0  0  0  0  0
   41.2080   83.0190   59.0230 C   0  0  0  0  0  0  0  0  0  0  0  0
   40.4010   82.1300   58.3820 N   0  0  0  0  0  0  0  0  0  0  0  0
   39.9510   81.1120   56.6930 H   0  0  0  0  0  0  0  0  0  0  0  0
   41.7610   81.9920   55.4100 H   0  0  0  0  0  0  0  0  0  0  0  0
   39.6630   83.1180   60.9120 C   0  0  0  0  0  0  0  0  0  0  0  0
   40.9560   83.3160   60.4240 C   0  0  0  0  0  0  0  0  0  0  0  0
   41.9880   83.7670   61.2510 C   0  0  0  0  0  0  0  0  0  0  0  0
   41.7580   84.0320   62.5880 C   0  0  0  0  0  0  0  0  0  0  0  0
   42.4660   84.4580   63.6500 N   0  0  0  0  0  0  0  0  0  0  0  0
   41.6860   84.5290   64.7490 C   0  0  0  0  0  0  0  0  0  0  0  0
   40.4790   84.1340   64.3260 N   0  0  0  0  0  0  0  0  0  0  0  0
   40.4860   83.8240   63.0180 C   0  0  0  0  0  0  0  0  0  0  0  0
   39.4060   83.3790   62.2640 C   0  0  0  0  0  0  0  0  0  0  0  0
   38.8530   82.7730   60.3010 H   0  0  0  0  0  0  0  0  0  0  0  0
   42.9960   83.9230   60.8680 H   0  0  0  0  0  0  0  0  0  0  0  0
   43.4860   84.6980   63.6100 H   0  0  0  0  0  0  0  0  0  0  0  0
   41.9660   84.8350   65.7490 H   0  0  0  0  0  0  0  0  0  0  0  0
   38.4400   83.2450   62.6900 H   0  0  0  0  0  0  0  0  0  0  0  0
   42.4340   83.3320   54.0930 Cl  0  0  0  0  0  0  0  0  0  0  0  0
   43.7370   84.0220   55.0510 C   0  0  0  0  0  0  0  0  0  0  0  0
   43.6360   83.9430   56.4160 C   0  0  0  0  0  0  0  0  0  0  0  0
   44.6980   84.5330   57.0970 C   0  0  0  0  0  0  0  0  0  0  0  0
   45.7670   85.1470   56.4830 C   0  0  0  0  0  0  0  0  0  0  0  0
   45.8070   85.1900   55.0920 C   0  0  0  0  0  0  0  0  0  0  0  0
   47.1430   85.9560   54.2770 Cl  0  0  0  0  0  0  0  0  0  0  0  0
   44.7780   84.6200   54.3760 C   0  0  0  0  0  0  0  0  0  0  0  0
   44.6990   84.5170   58.1770 H   0  0  0  0  0  0  0  0  0  0  0  0
   46.5540   85.5830   57.0770 H   0  0  0  0  0  0  0  0  0  0  0  0
   45.2750   83.7110   52.0320 C   0  0  0  0  0  0  0  0  0  0  0  0
   44.8020   84.6550   52.9190 C   0  0  0  0  0  0  0  0  0  0  0  0
   44.2470   85.8510   52.4490 C   0  0  0  0  0  0  0  0  0  0  0  0
   43.8470   86.6610   53.0430 H   0  0  0  0  0  0  0  0  0  0  0  0
   44.1750   86.0830   51.0720 C   0  0  0  0  0  3  0  0  0  0  0  0
   44.6500   85.1350   50.1950 C   0  0  0  0  0  3  0  0  0  0  0  0
   45.1990   83.9500   50.6760 C   0  0  0  0  0  0  0  0  0  0  0  0
   45.7910   82.5890   52.6320 O   0  0  0  0  0  0  0  0  0  0  0  0
   46.5010   82.0800   52.1180 H   0  0  0  0  0  0  0  0  0  0  0  0
   45.6930   82.9590   49.8350 O   0  0  0  0  0  0  0  0  0  0  0  0
   45.1790   82.7970   48.9620 H   0  0  0  0  0  0  0  0  0  0  0  0
  1  6  1  0  0  0  0
  2  3  1  0  0  0  0
  2  1  2  0  0  0  0
  3  4  2  0  0  0  0
  4  5  1  0  0  0  0
  5 10  1  0  0  0  0
  6  5  2  0  0  0  0
  7  1  1  0  0  0  0
  8  2  1  0  0  0  0
  9 17  1  0  0  0  0
 10  9  2  0  0  0  0
 10 11  1  0  0  0  0
 11 12  2  0  0  0  0
 12 16  1  0  0  0  0
 12 13  1  0  0  0  0
 13 14  1  0  0  0  0
 14 21  1  0  0  0  0
 15 14  2  0  0  0  0
 16 15  1  0  0  0  0
 17 22  1  0  0  0  0
 17 16  2  0  0  0  0
 18  9  1  0  0  0  0
 19 11  1  0  0  0  0
 20 13  1  0  0  0  0
 23 24  1  0  0  0  0
 24 25  1  0  0  0  0
 25  3  1  0  0  0  0
 25 26  2  0  0  0  0
 26 31  1  0  0  0  0
 27 32  1  0  0  0  0
 27 26  1  0  0  0  0
 28 27  2  0  0  0  0
 29 28  1  0  0  0  0
 30 24  2  0  0  0  0
 30 28  1  0  0  0  0
 33 40  1  0  0  0  0
 33 34  1  0  0  0  0
 34 30  1  0  0  0  0
 35 34  2  0  0  0  0
 35 36  1  0  0  0  0
 37 35  1  0  0  0  0
 38 39  1  0  0  0  0
 38 37  2  0  0  0  0
 39 33  2  0  0  0  0
 41 40  1  0  0  0  0
 42 39  1  0  0  0  0
 43 42  1  0  0  0  0
M  END
>  <minimizedAffinity>
-5.1530385

>  <minimizedRMSD>
0.649077654

$$$$
