
 OpenBabel03212520053D

 43 47  0  0  0  0  0  0  0  0999 V2000
   40.6560   81.8270   57.0940 C   0  0  0  0  0  0  0  0  0  0  0  0
   41.7290   82.4030   56.3920 C   0  0  0  0  0  0  0  0  0  0  0  0
   42.5210   83.3010   57.0720 C   0  0  0  0  0  0  0  0  0  0  0  0
   42.2530   83.5970   58.3720 N   0  0  0  0  0  0  0  0  0  0  0  0
   41.2090   83.0200   59.0250 C   0  0  0  0  0  0  0  0  0  0  0  0
   40.4020   82.1300   58.3840 N   0  0  0  0  0  0  0  0  0  0  0  0
   39.9530   81.1130   56.6950 H   0  0  0  0  0  0  0  0  0  0  0  0
   41.7630   81.9930   55.4120 H   0  0  0  0  0  0  0  0  0  0  0  0
   39.6640   83.1190   60.9140 C   0  0  0  0  0  0  0  0  0  0  0  0
   40.9570   83.3170   60.4260 C   0  0  0  0  0  0  0  0  0  0  0  0
   41.9890   83.7680   61.2520 C   0  0  0  0  0  0  0  0  0  0  0  0
   41.7590   84.0330   62.5890 C   0  0  0  0  0  0  0  0  0  0  0  0
   42.4670   84.4600   63.6520 N   0  0  0  0  0  0  0  0  0  0  0  0
   41.6860   84.5300   64.7510 C   0  0  0  0  0  0  0  0  0  0  0  0
   40.4790   84.1350   64.3270 N   0  0  0  0  0  0  0  0  0  0  0  0
   40.4860   83.8250   63.0200 C   0  0  0  0  0  0  0  0  0  0  0  0
   39.4070   83.3800   62.2660 C   0  0  0  0  0  0  0  0  0  0  0  0
   38.8540   82.7740   60.3020 H   0  0  0  0  0  0  0  0  0  0  0  0
   42.9970   83.9240   60.8700 H   0  0  0  0  0  0  0  0  0  0  0  0
   43.4870   84.6990   63.6120 H   0  0  0  0  0  0  0  0  0  0  0  0
   41.9670   84.8360   65.7510 H   0  0  0  0  0  0  0  0  0  0  0  0
   38.4410   83.2460   62.6910 H   0  0  0  0  0  0  0  0  0  0  0  0
   42.4370   83.3320   54.0950 Cl  0  0  0  0  0  0  0  0  0  0  0  0
   43.7390   84.0220   55.0530 C   0  0  0  0  0  0  0  0  0  0  0  0
   43.6380   83.9440   56.4180 C   0  0  0  0  0  0  0  0  0  0  0  0
   44.6990   84.5350   57.0990 C   0  0  0  0  0  0  0  0  0  0  0  0
   45.7680   85.1490   56.4850 C   0  0  0  0  0  0  0  0  0  0  0  0
   45.8080   85.1910   55.0940 C   0  0  0  0  0  0  0  0  0  0  0  0
   47.1440   85.9580   54.2790 Cl  0  0  0  0  0  0  0  0  0  0  0  0
   44.7800   84.6210   54.3780 C   0  0  0  0  0  0  0  0  0  0  0  0
   44.6990   84.5190   58.1790 H   0  0  0  0  0  0  0  0  0  0  0  0
   46.5540   85.5850   57.0790 H   0  0  0  0  0  0  0  0  0  0  0  0
   45.2790   83.7110   52.0340 C   0  0  0  0  0  0  0  0  0  0  0  0
   44.8040   84.6550   52.9210 C   0  0  0  0  0  0  0  0  0  0  0  0
   44.2480   85.8500   52.4500 C   0  0  0  0  0  0  0  0  0  0  0  0
   43.8460   86.6590   53.0440 H   0  0  0  0  0  0  0  0  0  0  0  0
   44.1770   86.0820   51.0730 C   0  0  0  0  0  3  0  0  0  0  0  0
   44.6520   85.1340   50.1970 C   0  0  0  0  0  3  0  0  0  0  0  0
   45.2030   83.9500   50.6780 C   0  0  0  0  0  0  0  0  0  0  0  0
   45.7950   82.5900   52.6340 O   0  0  0  0  0  0  0  0  0  0  0  0
   46.5050   82.0810   52.1210 H   0  0  0  0  0  0  0  0  0  0  0  0
   45.6980   82.9590   49.8380 O   0  0  0  0  0  0  0  0  0  0  0  0
   45.1840   82.7960   48.9640 H   0  0  0  0  0  0  0  0  0  0  0  0
  1  6  1  0  0  0  0
  2  3  1  0  0  0  0
  2  1  2  0  0  0  0
  3  4  2  0  0  0  0
  4  5  1  0  0  0  0
  5 10  1  0  0  0  0
  6  5  2  0  0  0  0
  7  1  1  0  0  0  0
  8  2  1  0  0  0  0
  9 17  1  0  0  0  0
 10  9  2  0  0  0  0
 10 11  1  0  0  0  0
 11 12  2  0  0  0  0
 12 16  1  0  0  0  0
 12 13  1  0  0  0  0
 13 14  1  0  0  0  0
 14 21  1  0  0  0  0
 15 14  2  0  0  0  0
 16 15  1  0  0  0  0
 17 22  1  0  0  0  0
 17 16  2  0  0  0  0
 18  9  1  0  0  0  0
 19 11  1  0  0  0  0
 20 13  1  0  0  0  0
 23 24  1  0  0  0  0
 24 25  1  0  0  0  0
 25  3  1  0  0  0  0
 25 26  2  0  0  0  0
 26 31  1  0  0  0  0
 27 32  1  0  0  0  0
 27 26  1  0  0  0  0
 28 27  2  0  0  0  0
 29 28  1  0  0  0  0
 30 24  2  0  0  0  0
 30 28  1  0  0  0  0
 33 40  1  0  0  0  0
 33 34  1  0  0  0  0
 34 30  1  0  0  0  0
 35 34  2  0  0  0  0
 35 36  1  0  0  0  0
 37 35  1  0  0  0  0
 38 39  1  0  0  0  0
 38 37  2  0  0  0  0
 39 33  2  0  0  0  0
 41 40  1  0  0  0  0
 42 39  1  0  0  0  0
 43 42  1  0  0  0  0
M  END
>  <minimizedAffinity>
-5.15527534

>  <minimizedRMSD>
0.379076153

$$$$
