
 OpenBabel03212520443D

 20 21  0  0  0  0  0  0  0  0999 V2000
   42.7700   81.3680   61.9310 C   0  0  0  0  0  0  0  0  0  0  0  0
   42.4930   82.6860   62.2470 C   0  0  0  0  0  0  0  0  0  0  0  0
   43.4800   83.3450   62.9130 C   0  0  0  0  0  0  0  0  0  0  0  0
   43.3080   84.3770   63.1790 H   0  0  0  0  0  0  0  0  0  0  0  0
   44.6790   82.7510   63.2550 C   0  0  0  0  0  3  0  0  0  0  0  0
   44.9170   81.4270   62.9190 C   0  0  0  0  0  3  0  0  0  0  0  0
   43.9430   80.7070   62.2390 C   0  0  0  0  0  0  0  0  0  0  0  0
   41.2020   83.2340   61.8470 C   0  0  0  0  0  0  0  0  0  0  0  0
   41.1210   84.1420   60.7840 C   0  0  0  0  0  0  0  0  0  0  0  0
   39.9010   84.6810   60.3810 C   0  0  0  0  0  0  0  0  0  0  0  0
   38.8100   84.2740   61.0760 N   0  0  0  0  0  0  0  0  0  0  0  0
   38.8970   83.4020   62.0940 C   0  0  0  0  0  0  0  0  0  0  0  0
   40.0730   82.8910   62.4730 N   0  0  0  0  0  0  0  0  0  0  0  0
   41.9670   84.4660   60.2340 H   0  0  0  0  0  0  0  0  0  0  0  0
   39.8550   85.3840   59.5550 H   0  0  0  0  0  0  0  0  0  0  0  0
   37.9810   83.1420   62.5810 H   0  0  0  0  0  0  0  0  0  0  0  0
   41.8260   80.6020   61.2490 O   0  0  0  0  0  0  0  0  0  0  0  0
   41.0200   80.2530   61.7410 H   0  0  0  0  0  0  0  0  0  0  0  0
   44.1790   79.3910   61.9060 O   0  0  0  0  0  0  0  0  0  0  0  0
   43.3700   78.8570   61.5770 H   0  0  0  0  0  0  0  0  0  0  0  0
  1  7  2  0  0  0  0
  1  2  1  0  0  0  0
  2  3  2  0  0  0  0
  3  4  1  0  0  0  0
  3  5  1  0  0  0  0
  6  5  2  0  0  0  0
  7  6  1  0  0  0  0
  8  2  1  0  0  0  0
  8 13  1  0  0  0  0
  9  8  2  0  0  0  0
 10  9  1  0  0  0  0
 10 11  2  0  0  0  0
 11 12  1  0  0  0  0
 12 13  2  0  0  0  0
 12 16  1  0  0  0  0
 14  9  1  0  0  0  0
 15 10  1  0  0  0  0
 17 18  1  0  0  0  0
 17  1  1  0  0  0  0
 19  7  1  0  0  0  0
 20 19  1  0  0  0  0
M  END
>  <minimizedAffinity>
-4.91766167

>  <minimizedRMSD>
3.42779064

$$$$
