
 OpenBabel03212520593D

 44 48  0  0  1  0  0  0  0  0999 V2000
   39.6140   77.1170   59.1780 C   0  0  0  0  0  0  0  0  0  0  0  0
   40.2430   75.9290   58.9480 C   0  0  0  0  0  0  0  0  0  0  0  0
   39.6550   75.2110   57.8920 C   0  0  0  0  0  0  0  0  0  0  0  0
   38.5920   75.6390   57.1840 N   0  0  0  0  0  0  0  0  0  0  0  0
   38.0400   76.8460   57.5020 C   0  0  0  0  0  0  0  0  0  0  0  0
   38.5620   77.5830   58.5070 N   0  0  0  0  0  0  0  0  0  0  0  0
   41.0960   75.5360   59.4810 H   0  0  0  0  0  0  0  0  0  0  0  0
   40.0570   74.2360   57.5950 H   0  0  0  0  0  0  0  0  0  0  0  0
   40.9520   80.0890   61.6270 C   0  0  0  0  0  0  0  0  0  0  0  0
   40.9360   78.8670   62.2620 C   0  0  0  0  0  0  0  0  0  0  0  0
   40.5070   77.8060   61.5430 C   0  0  0  0  0  0  0  0  0  0  0  0
   40.1110   77.9670   60.2330 C   0  0  0  0  0  0  0  0  0  0  0  0
   40.3470   79.7750   59.9450 S   0  0  0  0  0  0  0  0  0  0  0  0
   41.2470   78.7350   63.2940 H   0  0  0  0  0  0  0  0  0  0  0  0
   40.4200   76.7730   61.8550 H   0  0  0  0  0  0  0  0  0  0  0  0
   43.1150   82.8660   62.6690 C   0  0  0  0  0  0  0  0  0  0  0  0
   42.2390   83.6660   63.4510 C   0  0  0  0  0  0  0  0  0  0  0  0
   40.9180   83.2520   63.6140 C   0  0  0  0  0  0  0  0  0  0  0  0
   40.5320   82.1040   63.0180 N   0  0  0  0  0  0  0  0  0  0  0  0
   41.3900   81.3550   62.2740 C   0  0  0  0  0  0  0  0  0  0  0  0
   42.6410   81.7450   62.1190 N   0  0  0  0  0  0  0  0  0  0  0  0
   44.1360   83.2140   62.5600 H   0  0  0  0  0  0  0  0  0  0  0  0
   42.6010   84.5710   63.9010 H   0  0  0  0  0  0  0  0  0  0  0  0
   40.2110   83.8380   64.2070 H   0  0  0  0  0  0  0  0  0  0  0  0
   36.9060   77.2910   56.7270 C   0  0  0  0  0  0  0  0  0  0  0  0
   35.7770   77.1520   57.2310 O   0  0  0  0  0  0  0  0  0  0  0  0
   37.0420   77.8970   55.3500 C   0  0  1  0  0  0  0  0  0  0  0  0
   37.4550   79.3450   55.3880 C   0  0  0  0  0  0  0  0  0  0  0  0
   38.3470   78.3010   54.8810 C   0  0  2  0  0  0  0  0  0  0  0  0
   36.0640   77.8430   54.8220 H   0  0  0  0  0  0  0  0  0  0  0  0
   37.6980   79.8210   56.3760 H   0  0  0  0  0  0  0  0  0  0  0  0
   36.9730   80.0680   54.7090 H   0  0  0  0  0  0  0  0  0  0  0  0
   39.2260   78.0340   55.5330 H   0  0  0  0  0  0  0  0  0  0  0  0
   39.2340   77.2210   52.9220 C   0  0  0  0  0  0  0  0  0  0  0  0
   38.7280   78.3950   53.4620 C   0  0  0  0  0  0  0  0  0  0  0  0
   38.6220   79.5160   52.6670 C   0  0  0  0  0  0  0  0  0  0  0  0
   38.2230   80.4130   53.1250 H   0  0  0  0  0  0  0  0  0  0  0  0
   39.0300   79.4220   51.3530 C   0  0  0  0  0  3  0  0  0  0  0  0
   39.5350   78.2730   50.7880 C   0  0  0  0  0  3  0  0  0  0  0  0
   39.6340   77.1560   51.6030 C   0  0  0  0  0  0  0  0  0  0  0  0
   39.3720   76.0370   53.6700 O   0  0  0  0  0  0  0  0  0  0  0  0
   38.5250   75.4500   53.6410 H   0  0  0  0  0  0  0  0  0  0  0  0
   40.1390   75.9770   51.0740 O   0  0  0  0  0  0  0  0  0  0  0  0
   39.8460   75.7560   50.1220 H   0  0  0  0  0  0  0  0  0  0  0  0
  1 12  1  0  0  0  0
  2  1  1  0  0  0  0
  2  7  1  0  0  0  0
  3  2  2  0  0  0  0
  4  5  2  0  0  0  0
  4  3  1  0  0  0  0
  5  6  1  0  0  0  0
  6  1  2  0  0  0  0
  8  3  1  0  0  0  0
  9 10  2  0  0  0  0
  9 20  1  0  0  0  0
 10 14  1  0  0  0  0
 11 15  1  0  0  0  0
 11 10  1  0  0  0  0
 12 11  2  0  0  0  0
 13 12  1  0  0  0  0
 13  9  1  0  0  0  0
 16 17  1  0  0  0  0
 17 18  2  0  0  0  0
 17 23  1  0  0  0  0
 18 24  1  0  0  0  0
 19 18  1  0  0  0  0
 20 19  2  0  0  0  0
 21 20  1  0  0  0  0
 21 16  2  0  0  0  0
 22 16  1  0  0  0  0
 25 26  2  0  0  0  0
 25  5  1  0  0  0  0
 27 30  1  6  0  0  0
 27 28  1  0  0  0  0
 27 25  1  0  0  0  0
 28 31  1  0  0  0  0
 29 27  1  0  0  0  0
 29 28  1  0  0  0  0
 29 33  1  1  0  0  0
 32 28  1  0  0  0  0
 34 35  1  0  0  0  0
 34 41  1  0  0  0  0
 35 29  1  0  0  0  0
 36 37  1  0  0  0  0
 36 35  2  0  0  0  0
 38 36  1  0  0  0  0
 39 38  2  0  0  0  0
 39 40  1  0  0  0  0
 40 34  2  0  0  0  0
 42 41  1  0  0  0  0
 43 40  1  0  0  0  0
 44 43  1  0  0  0  0
M  END
>  <minimizedAffinity>
-6.52255964

>  <minimizedRMSD>
1.01292121

$$$$
