
 OpenBabel03212520513D

 37 40  0  0  1  0  0  0  0  0999 V2000
   41.6980   83.7800   61.3310 C   0  0  0  0  0  0  0  0  0  0  0  0
   41.1410   84.1150   62.5230 C   0  0  0  0  0  0  0  0  0  0  0  0
   40.7280   83.1390   63.4320 C   0  0  0  0  0  0  0  0  0  0  0  0
   40.8790   81.8340   63.1350 N   0  0  0  0  0  0  0  0  0  0  0  0
   41.4360   81.5180   61.9430 C   0  0  0  0  0  0  0  0  0  0  0  0
   41.8370   82.4540   61.0590 N   0  0  0  0  0  0  0  0  0  0  0  0
   41.0080   85.1530   62.7870 H   0  0  0  0  0  0  0  0  0  0  0  0
   40.2800   83.3690   64.3930 H   0  0  0  0  0  0  0  0  0  0  0  0
   43.5870   86.4530   59.6910 C   0  0  0  0  0  0  0  0  0  0  0  0
   42.9060   86.6040   58.4930 C   0  0  0  0  0  0  0  0  0  0  0  0
   41.7930   85.7960   58.2300 C   0  0  0  0  0  0  0  0  0  0  0  0
   41.4520   84.8970   59.2000 N   0  0  0  0  0  0  0  0  0  0  0  0
   42.1320   84.7720   60.3550 C   0  0  0  0  0  0  0  0  0  0  0  0
   43.2000   85.5400   60.6190 N   0  0  0  0  0  0  0  0  0  0  0  0
   44.6910   87.3180   59.8130 N   0  0  0  0  0  0  0  0  0  0  0  0
   43.1610   87.3060   57.7180 H   0  0  0  0  0  0  0  0  0  0  0  0
   41.2070   85.8470   57.3260 H   0  0  0  0  0  0  0  0  0  0  0  0
   45.6530   86.9540   59.6230 H   0  0  0  0  0  0  0  0  0  0  0  0
   44.3100   88.2690   60.1010 H   0  0  0  0  0  0  0  0  0  0  0  0
   41.5630   80.0510   61.6620 C   0  0  1  0  0  0  0  0  0  0  0  0
   40.9990   79.0560   62.5470 C   0  0  0  0  0  0  0  0  0  0  0  0
   40.1860   79.4170   61.3510 C   0  0  2  0  0  0  0  0  0  0  0  0
   42.3720   79.7660   60.9570 H   0  0  0  0  0  0  0  0  0  0  0  0
   40.5620   79.3830   63.5280 H   0  0  0  0  0  0  0  0  0  0  0  0
   41.4480   78.0480   62.6180 H   0  0  0  0  0  0  0  0  0  0  0  0
   39.2830   80.0120   61.4920 H   0  0  0  0  0  0  0  0  0  0  0  0
   39.9590   77.1580   60.2610 C   0  0  0  0  0  0  0  0  0  0  0  0
   40.1690   78.5180   60.1680 C   0  0  0  0  0  0  0  0  0  0  0  0
   40.3690   79.0500   58.8970 C   0  0  0  0  0  0  0  0  0  0  0  0
   40.5430   80.1040   58.7170 H   0  0  0  0  0  0  0  0  0  0  0  0
   40.3580   78.2410   57.7780 C   0  0  0  0  0  0  0  0  0  0  0  0
   40.1500   76.8800   57.8660 C   0  0  0  0  0  0  0  0  0  0  0  0
   39.9530   76.3720   59.1230 C   0  0  0  0  0  0  0  0  0  0  0  0
   39.7560   76.6110   61.5210 O   0  0  0  0  0  0  0  0  0  0  0  0
   38.7770   76.4510   61.7910 H   0  0  0  0  0  0  0  0  0  0  0  0
   39.7350   74.9940   59.2740 O   0  0  0  0  0  0  0  0  0  0  0  0
   38.8400   74.5570   59.0830 H   0  0  0  0  0  0  0  0  0  0  0  0
  1  2  1  0  0  0  0
  2  7  1  0  0  0  0
  2  3  2  0  0  0  0
  3  8  1  0  0  0  0
  4  3  1  0  0  0  0
  5  4  2  0  0  0  0
  6  1  2  0  0  0  0
  6  5  1  0  0  0  0
  9 15  1  0  0  0  0
  9 14  1  0  0  0  0
 10  9  2  0  0  0  0
 11 10  1  0  0  0  0
 11 12  2  0  0  0  0
 12 13  1  0  0  0  0
 13 14  2  0  0  0  0
 13  1  1  0  0  0  0
 15 19  1  0  0  0  0
 16 10  1  0  0  0  0
 17 11  1  0  0  0  0
 18 15  1  0  0  0  0
 20 23  1  6  0  0  0
 20  5  1  0  0  0  0
 20 21  1  0  0  0  0
 21 25  1  0  0  0  0
 21 24  1  0  0  0  0
 22 26  1  1  0  0  0
 22 20  1  0  0  0  0
 22 21  1  0  0  0  0
 27 34  1  0  0  0  0
 28 27  1  0  0  0  0
 28 22  1  0  0  0  0
 29 28  2  0  0  0  0
 30 29  1  0  0  0  0
 31 32  2  0  0  0  0
 31 29  1  0  0  0  0
 32 33  1  0  0  0  0
 33 36  1  0  0  0  0
 33 27  2  0  0  0  0
 34 35  1  0  0  0  0
 37 36  1  0  0  0  0
M  END
>  <minimizedAffinity>
-6.11132336

>  <minimizedRMSD>
0.80060488

$$$$
