
 OpenBabel03212520513D

 37 40  0  0  1  0  0  0  0  0999 V2000
   41.6620   83.8550   61.4140 C   0  0  0  0  0  0  0  0  0  0  0  0
   41.1310   84.2320   62.6050 C   0  0  0  0  0  0  0  0  0  0  0  0
   40.7060   83.2880   63.5420 C   0  0  0  0  0  0  0  0  0  0  0  0
   40.8190   81.9730   63.2720 N   0  0  0  0  0  0  0  0  0  0  0  0
   41.3510   81.6160   62.0810 C   0  0  0  0  0  0  0  0  0  0  0  0
   41.7640   82.5210   61.1710 N   0  0  0  0  0  0  0  0  0  0  0  0
   41.0290   85.2790   62.8470 H   0  0  0  0  0  0  0  0  0  0  0  0
   40.2770   83.5520   64.5030 H   0  0  0  0  0  0  0  0  0  0  0  0
   43.6070   86.4280   59.6790 C   0  0  0  0  0  0  0  0  0  0  0  0
   42.9030   86.5820   58.4950 C   0  0  0  0  0  0  0  0  0  0  0  0
   41.7540   85.8120   58.2750 C   0  0  0  0  0  0  0  0  0  0  0  0
   41.4050   84.9430   59.2690 N   0  0  0  0  0  0  0  0  0  0  0  0
   42.1080   84.8130   60.4090 C   0  0  0  0  0  0  0  0  0  0  0  0
   43.2100   85.5450   60.6330 N   0  0  0  0  0  0  0  0  0  0  0  0
   44.7440   87.2530   59.7580 N   0  0  0  0  0  0  0  0  0  0  0  0
   43.1630   87.2610   57.7020 H   0  0  0  0  0  0  0  0  0  0  0  0
   41.1490   85.8680   57.3840 H   0  0  0  0  0  0  0  0  0  0  0  0
   45.6880   86.8500   59.5520 H   0  0  0  0  0  0  0  0  0  0  0  0
   44.4060   88.2220   60.0370 H   0  0  0  0  0  0  0  0  0  0  0  0
   41.4360   80.1390   61.8330 C   0  0  1  0  0  0  0  0  0  0  0  0
   40.6300   79.1960   62.5740 C   0  0  0  0  0  0  0  0  0  0  0  0
   40.1190   79.5940   61.2320 C   0  0  2  0  0  0  0  0  0  0  0  0
   42.3570   79.7930   61.3180 H   0  0  0  0  0  0  0  0  0  0  0  0
   40.0160   79.5640   63.4390 H   0  0  0  0  0  0  0  0  0  0  0  0
   40.9840   78.1620   62.7390 H   0  0  0  0  0  0  0  0  0  0  0  0
   39.2480   80.2490   61.1760 H   0  0  0  0  0  0  0  0  0  0  0  0
   40.6320   79.1260   58.8110 C   0  0  0  0  0  0  0  0  0  0  0  0
   40.2950   78.6830   60.0720 C   0  0  0  0  0  0  0  0  0  0  0  0
   40.1150   77.3110   60.2420 C   0  0  0  0  0  0  0  0  0  0  0  0
   39.8500   76.8630   61.1920 H   0  0  0  0  0  0  0  0  0  0  0  0
   40.2710   76.4380   59.1840 C   0  0  0  0  0  3  0  0  0  0  0  0
   40.6090   76.8780   57.9200 C   0  0  0  0  0  3  0  0  0  0  0  0
   40.7810   78.2280   57.7690 C   0  0  0  0  0  0  0  0  0  0  0  0
   40.8150   80.4900   58.6230 O   0  0  0  0  0  0  0  0  0  0  0  0
   41.7890   80.8210   58.6450 H   0  0  0  0  0  0  0  0  0  0  0  0
   41.1260   78.7330   56.5070 O   0  0  0  0  0  0  0  0  0  0  0  0
   42.0690   78.6880   56.1370 H   0  0  0  0  0  0  0  0  0  0  0  0
  1  2  1  0  0  0  0
  2  7  1  0  0  0  0
  2  3  2  0  0  0  0
  3  8  1  0  0  0  0
  4  3  1  0  0  0  0
  5  4  2  0  0  0  0
  6  1  2  0  0  0  0
  6  5  1  0  0  0  0
  9 15  1  0  0  0  0
  9 14  1  0  0  0  0
 10  9  2  0  0  0  0
 11 10  1  0  0  0  0
 11 12  2  0  0  0  0
 12 13  1  0  0  0  0
 13 14  2  0  0  0  0
 13  1  1  0  0  0  0
 15 19  1  0  0  0  0
 16 10  1  0  0  0  0
 17 11  1  0  0  0  0
 18 15  1  0  0  0  0
 20 23  1  6  0  0  0
 20  5  1  0  0  0  0
 20 21  1  0  0  0  0
 21 25  1  0  0  0  0
 21 24  1  0  0  0  0
 22 26  1  6  0  0  0
 22 20  1  0  0  0  0
 22 21  1  0  0  0  0
 27 28  1  0  0  0  0
 28 29  2  0  0  0  0
 28 22  1  0  0  0  0
 29 30  1  0  0  0  0
 31 29  1  0  0  0  0
 32 31  2  0  0  0  0
 33 32  1  0  0  0  0
 33 27  2  0  0  0  0
 34 35  1  0  0  0  0
 34 27  1  0  0  0  0
 36 33  1  0  0  0  0
 37 36  1  0  0  0  0
M  END
>  <minimizedAffinity>
-5.6121006

>  <minimizedRMSD>
0.452570081

$$$$
