
 OpenBabel03212520443D

 20 21  0  0  0  0  0  0  0  0999 V2000
   40.2590   79.9060   59.7020 C   0  0  0  0  0  0  0  0  0  0  0  0
   40.4910   80.6680   60.8340 C   0  0  0  0  0  0  0  0  0  0  0  0
   41.2070   80.0530   61.8120 C   0  0  0  0  0  0  0  0  0  0  0  0
   41.4130   80.6100   62.7150 H   0  0  0  0  0  0  0  0  0  0  0  0
   41.6750   78.7580   61.6980 C   0  0  0  0  0  3  0  0  0  0  0  0
   41.4200   78.0280   60.5460 C   0  0  0  0  0  3  0  0  0  0  0  0
   40.6930   78.6090   59.5150 C   0  0  0  0  0  0  0  0  0  0  0  0
   39.9610   82.0260   60.8710 C   0  0  0  0  0  0  0  0  0  0  0  0
   40.1640   82.8910   59.7880 C   0  0  0  0  0  0  0  0  0  0  0  0
   39.6690   84.1930   59.7980 C   0  0  0  0  0  0  0  0  0  0  0  0
   38.9850   84.5640   60.9090 N   0  0  0  0  0  0  0  0  0  0  0  0
   38.7960   83.7280   61.9420 C   0  0  0  0  0  0  0  0  0  0  0  0
   39.2750   82.4800   61.9230 N   0  0  0  0  0  0  0  0  0  0  0  0
   40.6960   82.6110   58.9160 H   0  0  0  0  0  0  0  0  0  0  0  0
   39.8340   84.8520   58.9510 H   0  0  0  0  0  0  0  0  0  0  0  0
   38.2440   84.1120   62.7740 H   0  0  0  0  0  0  0  0  0  0  0  0
   39.5340   80.4430   58.6380 O   0  0  0  0  0  0  0  0  0  0  0  0
   38.5340   80.5300   58.7120 H   0  0  0  0  0  0  0  0  0  0  0  0
   40.4400   77.8840   58.3710 O   0  0  0  0  0  0  0  0  0  0  0  0
   39.7510   78.2830   57.7280 H   0  0  0  0  0  0  0  0  0  0  0  0
  1  2  1  0  0  0  0
  2  8  1  0  0  0  0
  2  3  2  0  0  0  0
  3  4  1  0  0  0  0
  5  3  1  0  0  0  0
  6  5  2  0  0  0  0
  7  1  2  0  0  0  0
  7  6  1  0  0  0  0
  8 13  1  0  0  0  0
  9 10  1  0  0  0  0
  9  8  2  0  0  0  0
 10 11  2  0  0  0  0
 11 12  1  0  0  0  0
 12 16  1  0  0  0  0
 13 12  2  0  0  0  0
 14  9  1  0  0  0  0
 15 10  1  0  0  0  0
 17 18  1  0  0  0  0
 17  1  1  0  0  0  0
 19  7  1  0  0  0  0
 20 19  1  0  0  0  0
M  END
>  <minimizedAffinity>
-4.61748791

>  <minimizedRMSD>
0.295343429

$$$$
