
 OpenBabel03212520243D

 20 21  0  0  0  0  0  0  0  0999 V2000
   40.2040   85.1850   59.3870 C   0  0  0  0  0  0  0  0  0  0  0  0
   41.2320   84.3920   59.8390 C   0  0  0  0  0  0  0  0  0  0  0  0
   42.3530   84.3160   59.0620 C   0  0  0  0  0  0  0  0  0  0  0  0
   43.1740   83.7180   59.3670 H   0  0  0  0  0  0  0  0  0  0  0  0
   42.4340   85.0160   57.8740 C   0  0  0  0  0  0  0  0  0  0  0  0
   41.3870   85.7940   57.4600 C   0  0  0  0  0  0  0  0  0  0  0  0
   40.2300   85.9060   58.2060 C   0  0  0  0  0  0  0  0  0  0  0  0
   41.1030   81.6840   62.4630 C   0  0  0  0  0  0  0  0  0  0  0  0
   41.2780   82.3340   61.2330 C   0  0  0  0  0  0  0  0  0  0  0  0
   41.0600   83.6980   61.0930 C   0  0  0  0  0  0  0  0  0  0  0  0
   40.6710   84.3340   62.2260 N   0  0  0  0  0  0  0  0  0  0  0  0
   40.5010   83.7190   63.4090 C   0  0  0  0  0  0  0  0  0  0  0  0
   40.7170   82.4040   63.5200 N   0  0  0  0  0  0  0  0  0  0  0  0
   41.2660   80.6400   62.5840 H   0  0  0  0  0  0  0  0  0  0  0  0
   41.5850   81.7450   60.4050 H   0  0  0  0  0  0  0  0  0  0  0  0
   40.1900   84.4110   64.1780 H   0  0  0  0  0  0  0  0  0  0  0  0
   39.0410   85.2930   60.1450 O   0  0  0  0  0  0  0  0  0  0  0  0
   39.0050   85.9990   60.8510 H   0  0  0  0  0  0  0  0  0  0  0  0
   39.1430   86.6860   57.8240 O   0  0  0  0  0  0  0  0  0  0  0  0
   38.6190   87.2030   58.4940 H   0  0  0  0  0  0  0  0  0  0  0  0
  1  2  1  0  0  0  0
  1 17  1  0  0  0  0
  2 10  1  0  0  0  0
  3  4  1  0  0  0  0
  3  2  2  0  0  0  0
  5  3  1  0  0  0  0
  6  5  2  0  0  0  0
  6  7  1  0  0  0  0
  7  1  2  0  0  0  0
  8 14  1  0  0  0  0
  8 13  1  0  0  0  0
  9  8  2  0  0  0  0
 10  9  1  0  0  0  0
 10 11  2  0  0  0  0
 11 12  1  0  0  0  0
 12 13  2  0  0  0  0
 12 16  1  0  0  0  0
 15  9  1  0  0  0  0
 17 18  1  0  0  0  0
 19  7  1  0  0  0  0
 19 20  1  0  0  0  0
M  END
>  <minimizedAffinity>
-5.17519522

>  <minimizedRMSD>
2.04095411

$$$$
