
 OpenBabel03212520593D

 44 48  0  0  1  0  0  0  0  0999 V2000
   39.7910   77.2220   59.1720 C   0  0  0  0  0  0  0  0  0  0  0  0
   40.5610   76.1450   58.8490 C   0  0  0  0  0  0  0  0  0  0  0  0
   40.0220   75.4070   57.7790 C   0  0  0  0  0  0  0  0  0  0  0  0
   38.8780   75.7220   57.1430 N   0  0  0  0  0  0  0  0  0  0  0  0
   38.1860   76.8250   57.5520 C   0  0  0  0  0  0  0  0  0  0  0  0
   38.6540   77.5740   58.5750 N   0  0  0  0  0  0  0  0  0  0  0  0
   41.4840   75.8440   59.3220 H   0  0  0  0  0  0  0  0  0  0  0  0
   40.5360   74.5120   57.4100 H   0  0  0  0  0  0  0  0  0  0  0  0
   40.9710   80.2080   61.6850 C   0  0  0  0  0  0  0  0  0  0  0  0
   40.9230   78.9870   62.3230 C   0  0  0  0  0  0  0  0  0  0  0  0
   40.5410   77.9220   61.5840 C   0  0  0  0  0  0  0  0  0  0  0  0
   40.2220   78.0780   60.2520 C   0  0  0  0  0  0  0  0  0  0  0  0
   40.4670   79.8850   59.9720 S   0  0  0  0  0  0  0  0  0  0  0  0
   41.1740   78.8600   63.3710 H   0  0  0  0  0  0  0  0  0  0  0  0
   40.4410   76.8900   61.8930 H   0  0  0  0  0  0  0  0  0  0  0  0
   43.0380   83.0390   62.7750 C   0  0  0  0  0  0  0  0  0  0  0  0
   42.1350   83.7970   63.5680 C   0  0  0  0  0  0  0  0  0  0  0  0
   40.8280   83.3360   63.7230 C   0  0  0  0  0  0  0  0  0  0  0  0
   40.4820   82.1850   63.1080 N   0  0  0  0  0  0  0  0  0  0  0  0
   41.3660   81.4770   62.3540 C   0  0  0  0  0  0  0  0  0  0  0  0
   42.6030   81.9120   62.2060 N   0  0  0  0  0  0  0  0  0  0  0  0
   44.0460   83.4230   62.6720 H   0  0  0  0  0  0  0  0  0  0  0  0
   42.4650   84.7060   64.0330 H   0  0  0  0  0  0  0  0  0  0  0  0
   40.1020   83.8870   64.3250 H   0  0  0  0  0  0  0  0  0  0  0  0
   36.9650   77.1510   56.8520 C   0  0  0  0  0  0  0  0  0  0  0  0
   35.8920   76.8320   57.3940 O   0  0  0  0  0  0  0  0  0  0  0  0
   36.9510   77.8390   55.5080 C   0  0  1  0  0  0  0  0  0  0  0  0
   37.1530   79.3280   55.6140 C   0  0  0  0  0  0  0  0  0  0  0  0
   38.1620   78.4530   55.0150 C   0  0  2  0  0  0  0  0  0  0  0  0
   35.9680   77.6710   55.0150 H   0  0  0  0  0  0  0  0  0  0  0  0
   37.3710   79.7830   56.6180 H   0  0  0  0  0  0  0  0  0  0  0  0
   36.5420   80.0080   54.9960 H   0  0  0  0  0  0  0  0  0  0  0  0
   39.0990   78.2830   55.6160 H   0  0  0  0  0  0  0  0  0  0  0  0
   38.0370   79.9000   53.0960 C   0  0  0  0  0  0  0  0  0  0  0  0
   38.4600   78.6740   53.5900 C   0  0  0  0  0  0  0  0  0  0  0  0
   39.1030   77.7900   52.7490 C   0  0  0  0  0  0  0  0  0  0  0  0
   39.4170   76.8450   53.1700 H   0  0  0  0  0  0  0  0  0  0  0  0
   39.2970   78.1680   51.4370 C   0  0  0  0  0  3  0  0  0  0  0  0
   38.8890   79.3750   50.9180 C   0  0  0  0  0  3  0  0  0  0  0  0
   38.2450   80.2510   51.7780 C   0  0  0  0  0  0  0  0  0  0  0  0
   37.3760   80.8530   53.8930 O   0  0  0  0  0  0  0  0  0  0  0  0
   38.0300   81.4950   54.3670 H   0  0  0  0  0  0  0  0  0  0  0  0
   37.8180   81.4790   51.2950 O   0  0  0  0  0  0  0  0  0  0  0  0
   38.4500   81.9450   50.6470 H   0  0  0  0  0  0  0  0  0  0  0  0
  1 12  1  0  0  0  0
  2  1  1  0  0  0  0
  2  7  1  0  0  0  0
  3  2  2  0  0  0  0
  4  5  2  0  0  0  0
  4  3  1  0  0  0  0
  5  6  1  0  0  0  0
  6  1  2  0  0  0  0
  8  3  1  0  0  0  0
  9 10  2  0  0  0  0
  9 20  1  0  0  0  0
 10 14  1  0  0  0  0
 11 15  1  0  0  0  0
 11 10  1  0  0  0  0
 12 11  2  0  0  0  0
 13 12  1  0  0  0  0
 13  9  1  0  0  0  0
 16 17  1  0  0  0  0
 17 18  2  0  0  0  0
 17 23  1  0  0  0  0
 18 24  1  0  0  0  0
 19 18  1  0  0  0  0
 20 19  2  0  0  0  0
 21 20  1  0  0  0  0
 21 16  2  0  0  0  0
 22 16  1  0  0  0  0
 25 26  2  0  0  0  0
 25  5  1  0  0  0  0
 27 30  1  6  0  0  0
 27 28  1  0  0  0  0
 27 25  1  0  0  0  0
 28 31  1  0  0  0  0
 29 27  1  0  0  0  0
 29 28  1  0  0  0  0
 29 33  1  1  0  0  0
 32 28  1  0  0  0  0
 34 35  1  0  0  0  0
 34 41  1  0  0  0  0
 35 29  1  0  0  0  0
 36 37  1  0  0  0  0
 36 35  2  0  0  0  0
 38 36  1  0  0  0  0
 39 38  2  0  0  0  0
 39 40  1  0  0  0  0
 40 34  2  0  0  0  0
 41 42  1  0  0  0  0
 43 40  1  0  0  0  0
 44 43  1  0  0  0  0
M  END
>  <minimizedAffinity>
-7.02781963

>  <minimizedRMSD>
0.866731346

$$$$
