
 OpenBabel03212520053D

 43 47  0  0  0  0  0  0  0  0999 V2000
   40.2400   81.2570   57.3010 C   0  0  0  0  0  0  0  0  0  0  0  0
   41.4490   81.4160   56.6010 C   0  0  0  0  0  0  0  0  0  0  0  0
   42.4610   82.1030   57.2350 C   0  0  0  0  0  0  0  0  0  0  0  0
   42.2700   82.5930   58.4900 N   0  0  0  0  0  0  0  0  0  0  0  0
   41.0890   82.4190   59.1410 C   0  0  0  0  0  0  0  0  0  0  0  0
   40.0650   81.7490   58.5450 N   0  0  0  0  0  0  0  0  0  0  0  0
   39.3620   80.7470   56.9340 H   0  0  0  0  0  0  0  0  0  0  0  0
   41.3760   80.9200   55.6650 H   0  0  0  0  0  0  0  0  0  0  0  0
   39.6140   82.9650   61.0100 C   0  0  0  0  0  0  0  0  0  0  0  0
   40.9120   82.9150   60.4960 C   0  0  0  0  0  0  0  0  0  0  0  0
   42.0140   83.3090   61.2580 C   0  0  0  0  0  0  0  0  0  0  0  0
   41.8530   83.7620   62.5540 C   0  0  0  0  0  0  0  0  0  0  0  0
   42.6370   84.2070   63.5530 N   0  0  0  0  0  0  0  0  0  0  0  0
   41.8980   84.5210   64.6390 C   0  0  0  0  0  0  0  0  0  0  0  0
   40.6380   84.2560   64.2710 N   0  0  0  0  0  0  0  0  0  0  0  0
   40.5730   83.7940   63.0110 C   0  0  0  0  0  0  0  0  0  0  0  0
   39.4250   83.4210   62.3200 C   0  0  0  0  0  0  0  0  0  0  0  0
   38.7500   82.6700   60.4480 H   0  0  0  0  0  0  0  0  0  0  0  0
   43.0270   83.2700   60.8560 H   0  0  0  0  0  0  0  0  0  0  0  0
   43.6800   84.2900   63.4810 H   0  0  0  0  0  0  0  0  0  0  0  0
   42.2400   84.9010   65.5930 H   0  0  0  0  0  0  0  0  0  0  0  0
   38.4590   83.4800   62.7630 H   0  0  0  0  0  0  0  0  0  0  0  0
   42.4870   84.1950   55.1150 Cl  0  0  0  0  0  0  0  0  0  0  0  0
   43.8880   83.2390   55.5770 C   0  0  0  0  0  0  0  0  0  0  0  0
   43.7300   82.3180   56.5790 C   0  0  0  0  0  0  0  0  0  0  0  0
   44.8940   81.6220   56.8970 C   0  0  0  0  0  0  0  0  0  0  0  0
   46.1080   81.8180   56.2780 C   0  0  0  0  0  0  0  0  0  0  0  0
   46.1970   82.7690   55.2650 C   0  0  0  0  0  0  0  0  0  0  0  0
   47.7160   83.0460   54.4560 Cl  0  0  0  0  0  0  0  0  0  0  0  0
   45.0730   83.4830   54.9170 C   0  0  0  0  0  0  0  0  0  0  0  0
   44.8590   80.8770   57.6780 H   0  0  0  0  0  0  0  0  0  0  0  0
   46.9670   81.2400   56.5780 H   0  0  0  0  0  0  0  0  0  0  0  0
   45.4450   85.8260   53.9490 C   0  0  0  0  0  0  0  0  0  0  0  0
   45.1470   84.4830   53.8590 C   0  0  0  0  0  0  0  0  0  0  0  0
   44.8610   83.9040   52.6170 C   0  0  0  0  0  0  0  0  0  0  0  0
   44.6150   82.8700   52.4210 H   0  0  0  0  0  0  0  0  0  0  0  0
   44.8790   84.6990   51.4650 C   0  0  0  0  0  3  0  0  0  0  0  0
   45.1780   86.0370   51.5670 C   0  0  0  0  0  3  0  0  0  0  0  0
   45.4610   86.5990   52.8070 C   0  0  0  0  0  0  0  0  0  0  0  0
   45.7050   86.2580   55.2260 O   0  0  0  0  0  0  0  0  0  0  0  0
   45.5180   87.2330   55.4270 H   0  0  0  0  0  0  0  0  0  0  0  0
   45.7690   87.9460   52.9650 O   0  0  0  0  0  0  0  0  0  0  0  0
   46.3370   88.3790   52.2280 H   0  0  0  0  0  0  0  0  0  0  0  0
  1  6  1  0  0  0  0
  2  3  1  0  0  0  0
  2  1  2  0  0  0  0
  3  4  2  0  0  0  0
  4  5  1  0  0  0  0
  5 10  1  0  0  0  0
  6  5  2  0  0  0  0
  7  1  1  0  0  0  0
  8  2  1  0  0  0  0
  9 17  1  0  0  0  0
 10  9  2  0  0  0  0
 10 11  1  0  0  0  0
 11 12  2  0  0  0  0
 12 16  1  0  0  0  0
 12 13  1  0  0  0  0
 13 14  1  0  0  0  0
 14 21  1  0  0  0  0
 15 14  2  0  0  0  0
 16 15  1  0  0  0  0
 17 22  1  0  0  0  0
 17 16  2  0  0  0  0
 18  9  1  0  0  0  0
 19 11  1  0  0  0  0
 20 13  1  0  0  0  0
 23 24  1  0  0  0  0
 24 25  1  0  0  0  0
 25 26  2  0  0  0  0
 25  3  1  0  0  0  0
 26 31  1  0  0  0  0
 27 32  1  0  0  0  0
 27 26  1  0  0  0  0
 28 27  2  0  0  0  0
 29 28  1  0  0  0  0
 30 28  1  0  0  0  0
 30 24  2  0  0  0  0
 33 40  1  0  0  0  0
 34 33  1  0  0  0  0
 34 30  1  0  0  0  0
 35 34  2  0  0  0  0
 36 35  1  0  0  0  0
 37 38  2  0  0  0  0
 37 35  1  0  0  0  0
 38 39  1  0  0  0  0
 39 42  1  0  0  0  0
 39 33  2  0  0  0  0
 40 41  1  0  0  0  0
 43 42  1  0  0  0  0
M  END
>  <minimizedAffinity>
-4.94204664

>  <minimizedRMSD>
1.48878694

$$$$
