
 OpenBabel03212520593D

 44 48  0  0  1  0  0  0  0  0999 V2000
   39.7130   77.3430   58.9730 C   0  0  0  0  0  0  0  0  0  0  0  0
   40.4150   76.2190   58.6520 C   0  0  0  0  0  0  0  0  0  0  0  0
   39.8580   75.5390   57.5540 C   0  0  0  0  0  0  0  0  0  0  0  0
   38.7580   75.9440   56.8920 N   0  0  0  0  0  0  0  0  0  0  0  0
   38.1330   77.0870   57.3010 C   0  0  0  0  0  0  0  0  0  0  0  0
   38.6220   77.7840   58.3500 N   0  0  0  0  0  0  0  0  0  0  0  0
   41.3010   75.8470   59.1450 H   0  0  0  0  0  0  0  0  0  0  0  0
   40.3180   74.6160   57.1840 H   0  0  0  0  0  0  0  0  0  0  0  0
   40.9580   80.2110   61.5900 C   0  0  0  0  0  0  0  0  0  0  0  0
   40.9230   78.9630   62.1730 C   0  0  0  0  0  0  0  0  0  0  0  0
   40.5220   77.9330   61.3950 C   0  0  0  0  0  0  0  0  0  0  0  0
   40.1720   78.1490   60.0800 C   0  0  0  0  0  0  0  0  0  0  0  0
   40.4130   79.9670   59.8770 S   0  0  0  0  0  0  0  0  0  0  0  0
   41.1990   78.7880   63.2080 H   0  0  0  0  0  0  0  0  0  0  0  0
   40.4270   76.8880   61.6600 H   0  0  0  0  0  0  0  0  0  0  0  0
   43.0730   82.9510   62.8120 C   0  0  0  0  0  0  0  0  0  0  0  0
   42.1720   83.7090   63.6070 C   0  0  0  0  0  0  0  0  0  0  0  0
   40.8500   83.2790   63.7180 C   0  0  0  0  0  0  0  0  0  0  0  0
   40.4880   82.1580   63.0610 N   0  0  0  0  0  0  0  0  0  0  0  0
   41.3700   81.4490   62.3060 C   0  0  0  0  0  0  0  0  0  0  0  0
   42.6210   81.8540   62.2000 N   0  0  0  0  0  0  0  0  0  0  0  0
   44.0930   83.3100   62.7450 H   0  0  0  0  0  0  0  0  0  0  0  0
   42.5150   84.5950   64.1070 H   0  0  0  0  0  0  0  0  0  0  0  0
   40.1240   83.8330   64.3200 H   0  0  0  0  0  0  0  0  0  0  0  0
   36.9590   77.5090   56.5730 C   0  0  0  0  0  0  0  0  0  0  0  0
   35.8610   77.0610   56.9480 O   0  0  0  0  0  0  0  0  0  0  0  0
   37.0220   78.4460   55.3910 C   0  0  1  0  0  0  0  0  0  0  0  0
   37.4580   79.8370   55.7720 C   0  0  0  0  0  0  0  0  0  0  0  0
   38.3020   78.9580   54.9610 C   0  0  2  0  0  0  0  0  0  0  0  0
   36.0140   78.5290   54.9280 H   0  0  0  0  0  0  0  0  0  0  0  0
   37.7680   80.0440   56.8320 H   0  0  0  0  0  0  0  0  0  0  0  0
   36.9480   80.7100   55.3310 H   0  0  0  0  0  0  0  0  0  0  0  0
   39.2150   78.5330   55.4670 H   0  0  0  0  0  0  0  0  0  0  0  0
   37.5410   79.2910   52.7030 C   0  0  0  0  0  0  0  0  0  0  0  0
   38.5990   79.4120   53.5930 C   0  0  0  0  0  0  0  0  0  0  0  0
   39.8010   79.9260   53.1520 C   0  0  0  0  0  0  0  0  0  0  0  0
   40.6010   80.0040   53.8740 H   0  0  0  0  0  0  0  0  0  0  0  0
   39.8980   80.3030   51.8280 C   0  0  0  0  0  3  0  0  0  0  0  0
   38.8670   80.1950   50.9220 C   0  0  0  0  0  3  0  0  0  0  0  0
   37.6680   79.6760   51.3830 C   0  0  0  0  0  0  0  0  0  0  0  0
   36.2860   78.7760   53.0790 O   0  0  0  0  0  0  0  0  0  0  0  0
   35.6470   79.5070   53.4300 H   0  0  0  0  0  0  0  0  0  0  0  0
   36.6040   79.5510   50.5030 O   0  0  0  0  0  0  0  0  0  0  0  0
   36.4820   80.3170   49.8420 H   0  0  0  0  0  0  0  0  0  0  0  0
  1 12  1  0  0  0  0
  2  1  1  0  0  0  0
  2  7  1  0  0  0  0
  3  2  2  0  0  0  0
  4  5  2  0  0  0  0
  4  3  1  0  0  0  0
  5  6  1  0  0  0  0
  6  1  2  0  0  0  0
  8  3  1  0  0  0  0
  9 10  2  0  0  0  0
  9 20  1  0  0  0  0
 10 14  1  0  0  0  0
 11 15  1  0  0  0  0
 11 10  1  0  0  0  0
 12 11  2  0  0  0  0
 13 12  1  0  0  0  0
 13  9  1  0  0  0  0
 16 17  1  0  0  0  0
 17 18  2  0  0  0  0
 17 23  1  0  0  0  0
 18 24  1  0  0  0  0
 19 18  1  0  0  0  0
 20 19  2  0  0  0  0
 21 20  1  0  0  0  0
 21 16  2  0  0  0  0
 22 16  1  0  0  0  0
 25 26  2  0  0  0  0
 25  5  1  0  0  0  0
 27 30  1  6  0  0  0
 27 28  1  0  0  0  0
 27 25  1  0  0  0  0
 28 31  1  0  0  0  0
 29 27  1  0  0  0  0
 29 33  1  1  0  0  0
 29 28  1  0  0  0  0
 32 28  1  0  0  0  0
 34 41  1  0  0  0  0
 34 35  1  0  0  0  0
 35 29  1  0  0  0  0
 36 35  2  0  0  0  0
 36 37  1  0  0  0  0
 38 36  1  0  0  0  0
 39 40  1  0  0  0  0
 39 38  2  0  0  0  0
 40 34  2  0  0  0  0
 41 42  1  0  0  0  0
 43 40  1  0  0  0  0
 44 43  1  0  0  0  0
M  END
>  <minimizedAffinity>
-7.19534492

>  <minimizedRMSD>
0.528135002

$$$$
