
 OpenBabel03212520443D

 20 21  0  0  0  0  0  0  0  0999 V2000
   41.3090   80.0880   61.8400 C   0  0  0  0  0  0  0  0  0  0  0  0
   41.7380   81.3680   61.5400 C   0  0  0  0  0  0  0  0  0  0  0  0
   43.0870   81.5260   61.4600 C   0  0  0  0  0  0  0  0  0  0  0  0
   43.4690   82.5090   61.2270 H   0  0  0  0  0  0  0  0  0  0  0  0
   43.9760   80.4880   61.6620 C   0  0  0  0  0  3  0  0  0  0  0  0
   43.5040   79.2190   61.9610 C   0  0  0  0  0  3  0  0  0  0  0  0
   42.1350   79.0030   62.0550 C   0  0  0  0  0  0  0  0  0  0  0  0
   40.7310   82.4050   61.3420 C   0  0  0  0  0  0  0  0  0  0  0  0
   40.7270   83.1680   60.1670 C   0  0  0  0  0  0  0  0  0  0  0  0
   39.7780   84.1640   59.9520 C   0  0  0  0  0  0  0  0  0  0  0  0
   38.8680   84.3450   60.9410 N   0  0  0  0  0  0  0  0  0  0  0  0
   38.8800   83.6090   62.0650 C   0  0  0  0  0  0  0  0  0  0  0  0
   39.7950   82.6550   62.2620 N   0  0  0  0  0  0  0  0  0  0  0  0
   41.4330   83.0340   59.3880 H   0  0  0  0  0  0  0  0  0  0  0  0
   39.7880   84.7470   59.0360 H   0  0  0  0  0  0  0  0  0  0  0  0
   38.1210   83.8260   62.7870 H   0  0  0  0  0  0  0  0  0  0  0  0
   39.9440   79.8190   61.9460 O   0  0  0  0  0  0  0  0  0  0  0  0
   39.4430   80.1160   62.7660 H   0  0  0  0  0  0  0  0  0  0  0  0
   41.6650   77.7420   62.3530 O   0  0  0  0  0  0  0  0  0  0  0  0
   40.6720   77.6760   62.5930 H   0  0  0  0  0  0  0  0  0  0  0  0
  1 17  1  0  0  0  0
  1  7  1  0  0  0  0
  2  1  2  0  0  0  0
  3  2  1  0  0  0  0
  3  5  2  0  0  0  0
  4  3  1  0  0  0  0
  5  6  1  0  0  0  0
  6  7  2  0  0  0  0
  7 19  1  0  0  0  0
  8  2  1  0  0  0  0
  8 13  1  0  0  0  0
  9  8  2  0  0  0  0
 10  9  1  0  0  0  0
 10 11  2  0  0  0  0
 11 12  1  0  0  0  0
 12 13  2  0  0  0  0
 12 16  1  0  0  0  0
 14  9  1  0  0  0  0
 15 10  1  0  0  0  0
 17 18  1  0  0  0  0
 19 20  1  0  0  0  0
M  END
>  <minimizedAffinity>
-4.9842391

>  <minimizedRMSD>
1.5085026

$$$$
