
 OpenBabel03212520593D

 44 48  0  0  1  0  0  0  0  0999 V2000
   39.7020   77.2010   59.1110 C   0  0  0  0  0  0  0  0  0  0  0  0
   40.4090   76.0760   58.8040 C   0  0  0  0  0  0  0  0  0  0  0  0
   39.8370   75.3620   57.7360 C   0  0  0  0  0  0  0  0  0  0  0  0
   38.7200   75.7400   57.0850 N   0  0  0  0  0  0  0  0  0  0  0  0
   38.0910   76.8860   57.4790 C   0  0  0  0  0  0  0  0  0  0  0  0
   38.5940   77.6150   58.4990 N   0  0  0  0  0  0  0  0  0  0  0  0
   41.3080   75.7250   59.2890 H   0  0  0  0  0  0  0  0  0  0  0  0
   40.2990   74.4350   57.3790 H   0  0  0  0  0  0  0  0  0  0  0  0
   40.9770   80.1440   61.6270 C   0  0  0  0  0  0  0  0  0  0  0  0
   40.9510   78.9140   62.2460 C   0  0  0  0  0  0  0  0  0  0  0  0
   40.5410   77.8610   61.5040 C   0  0  0  0  0  0  0  0  0  0  0  0
   40.1730   78.0390   60.1880 C   0  0  0  0  0  0  0  0  0  0  0  0
   40.4100   79.8500   59.9290 S   0  0  0  0  0  0  0  0  0  0  0  0
   41.2400   78.7690   63.2830 H   0  0  0  0  0  0  0  0  0  0  0  0
   40.4510   76.8240   61.8000 H   0  0  0  0  0  0  0  0  0  0  0  0
   43.1040   82.9200   62.7410 C   0  0  0  0  0  0  0  0  0  0  0  0
   42.2130   83.7010   63.5260 C   0  0  0  0  0  0  0  0  0  0  0  0
   40.8930   83.2730   63.6670 C   0  0  0  0  0  0  0  0  0  0  0  0
   40.5240   82.1320   63.0470 N   0  0  0  0  0  0  0  0  0  0  0  0
   41.3970   81.4030   62.3010 C   0  0  0  0  0  0  0  0  0  0  0  0
   42.6460   81.8060   62.1670 N   0  0  0  0  0  0  0  0  0  0  0  0
   44.1230   83.2780   62.6500 H   0  0  0  0  0  0  0  0  0  0  0  0
   42.5610   84.6000   63.9960 H   0  0  0  0  0  0  0  0  0  0  0  0
   40.1750   83.8430   64.2620 H   0  0  0  0  0  0  0  0  0  0  0  0
   36.8990   77.2780   56.7640 C   0  0  0  0  0  0  0  0  0  0  0  0
   35.8030   77.0020   57.2830 O   0  0  0  0  0  0  0  0  0  0  0  0
   36.9400   77.9860   55.4300 C   0  0  1  0  0  0  0  0  0  0  0  0
   37.3170   79.4390   55.5520 C   0  0  0  0  0  0  0  0  0  0  0  0
   38.2040   78.4610   54.9200 C   0  0  2  0  0  0  0  0  0  0  0  0
   35.9340   77.9420   54.9560 H   0  0  0  0  0  0  0  0  0  0  0  0
   37.6060   79.8490   56.5580 H   0  0  0  0  0  0  0  0  0  0  0  0
   36.7780   80.1960   54.9580 H   0  0  0  0  0  0  0  0  0  0  0  0
   39.1260   78.1730   55.4990 H   0  0  0  0  0  0  0  0  0  0  0  0
   39.1160   77.5960   52.8680 C   0  0  0  0  0  0  0  0  0  0  0  0
   38.4990   78.6700   53.4930 C   0  0  0  0  0  0  0  0  0  0  0  0
   38.2180   79.8070   52.7650 C   0  0  0  0  0  0  0  0  0  0  0  0
   37.7370   80.6220   53.2860 H   0  0  0  0  0  0  0  0  0  0  0  0
   38.5670   79.8270   51.4300 C   0  0  0  0  0  3  0  0  0  0  0  0
   39.1800   78.7770   50.7830 C   0  0  0  0  0  3  0  0  0  0  0  0
   39.4540   77.6430   51.5310 C   0  0  0  0  0  0  0  0  0  0  0  0
   39.4330   76.4020   53.5450 O   0  0  0  0  0  0  0  0  0  0  0  0
   38.6630   75.7170   53.5210 H   0  0  0  0  0  0  0  0  0  0  0  0
   40.0710   76.5620   50.9170 O   0  0  0  0  0  0  0  0  0  0  0  0
   39.7600   76.3540   49.9690 H   0  0  0  0  0  0  0  0  0  0  0  0
  1 12  1  0  0  0  0
  2  1  1  0  0  0  0
  2  7  1  0  0  0  0
  3  2  2  0  0  0  0
  4  5  2  0  0  0  0
  4  3  1  0  0  0  0
  5  6  1  0  0  0  0
  6  1  2  0  0  0  0
  8  3  1  0  0  0  0
  9 10  2  0  0  0  0
  9 20  1  0  0  0  0
 10 14  1  0  0  0  0
 11 15  1  0  0  0  0
 11 10  1  0  0  0  0
 12 11  2  0  0  0  0
 13 12  1  0  0  0  0
 13  9  1  0  0  0  0
 16 17  1  0  0  0  0
 17 18  2  0  0  0  0
 17 23  1  0  0  0  0
 18 24  1  0  0  0  0
 19 18  1  0  0  0  0
 20 19  2  0  0  0  0
 21 20  1  0  0  0  0
 21 16  2  0  0  0  0
 22 16  1  0  0  0  0
 25 26  2  0  0  0  0
 25  5  1  0  0  0  0
 27 30  1  6  0  0  0
 27 28  1  0  0  0  0
 27 25  1  0  0  0  0
 28 31  1  0  0  0  0
 29 27  1  0  0  0  0
 29 33  1  1  0  0  0
 29 28  1  0  0  0  0
 32 28  1  0  0  0  0
 34 35  1  0  0  0  0
 34 41  1  0  0  0  0
 35 29  1  0  0  0  0
 36 37  1  0  0  0  0
 36 35  2  0  0  0  0
 38 36  1  0  0  0  0
 39 38  2  0  0  0  0
 39 40  1  0  0  0  0
 40 34  2  0  0  0  0
 42 41  1  0  0  0  0
 43 40  1  0  0  0  0
 44 43  1  0  0  0  0
M  END
>  <minimizedAffinity>
-6.52947807

>  <minimizedRMSD>
1.02956426

$$$$
