
 OpenBabel03212520053D

 43 47  0  0  0  0  0  0  0  0999 V2000
   41.8640   81.4640   57.4650 C   0  0  0  0  0  0  0  0  0  0  0  0
   43.1320   81.8910   57.0340 C   0  0  0  0  0  0  0  0  0  0  0  0
   43.8290   82.7400   57.8650 C   0  0  0  0  0  0  0  0  0  0  0  0
   43.2890   83.1290   59.0510 N   0  0  0  0  0  0  0  0  0  0  0  0
   42.0620   82.6940   59.4410 C   0  0  0  0  0  0  0  0  0  0  0  0
   41.3410   81.8570   58.6440 N   0  0  0  0  0  0  0  0  0  0  0  0
   41.2040   80.8040   56.9230 H   0  0  0  0  0  0  0  0  0  0  0  0
   43.3550   81.4300   56.1030 H   0  0  0  0  0  0  0  0  0  0  0  0
   40.1380   82.9380   60.9270 C   0  0  0  0  0  0  0  0  0  0  0  0
   41.5120   83.0870   60.7290 C   0  0  0  0  0  0  0  0  0  0  0  0
   42.3460   83.5790   61.7360 C   0  0  0  0  0  0  0  0  0  0  0  0
   41.8320   83.9350   62.9680 C   0  0  0  0  0  0  0  0  0  0  0  0
   42.2980   84.4220   64.1330 N   0  0  0  0  0  0  0  0  0  0  0  0
   41.2940   84.5760   65.0240 C   0  0  0  0  0  0  0  0  0  0  0  0
   40.2010   84.1690   64.3660 N   0  0  0  0  0  0  0  0  0  0  0  0
   40.4910   83.7730   63.1150 C   0  0  0  0  0  0  0  0  0  0  0  0
   39.5940   83.2920   62.1670 C   0  0  0  0  0  0  0  0  0  0  0  0
   39.4750   82.5630   60.1720 H   0  0  0  0  0  0  0  0  0  0  0  0
   43.4190   83.6960   61.5800 H   0  0  0  0  0  0  0  0  0  0  0  0
   43.3070   84.6450   64.3080 H   0  0  0  0  0  0  0  0  0  0  0  0
   41.3540   84.9440   66.0400 H   0  0  0  0  0  0  0  0  0  0  0  0
   38.5540   83.1990   62.3740 H   0  0  0  0  0  0  0  0  0  0  0  0
   46.0820   81.9350   59.6400 Cl  0  0  0  0  0  0  0  0  0  0  0  0
   46.2600   82.9530   58.2180 C   0  0  0  0  0  0  0  0  0  0  0  0
   45.1350   83.2330   57.4880 C   0  0  0  0  0  0  0  0  0  0  0  0
   45.3690   84.0250   56.3670 C   0  0  0  0  0  0  0  0  0  0  0  0
   46.6080   84.5000   55.9990 C   0  0  0  0  0  0  0  0  0  0  0  0
   47.7100   84.1790   56.7880 C   0  0  0  0  0  0  0  0  0  0  0  0
   49.2950   84.7620   56.3570 Cl  0  0  0  0  0  0  0  0  0  0  0  0
   47.5260   83.3970   57.9050 C   0  0  0  0  0  0  0  0  0  0  0  0
   44.5360   84.2930   55.7340 H   0  0  0  0  0  0  0  0  0  0  0  0
   46.7120   85.1100   55.1160 H   0  0  0  0  0  0  0  0  0  0  0  0
   49.4730   81.9320   58.7000 C   0  0  0  0  0  0  0  0  0  0  0  0
   48.6680   83.0500   58.7430 C   0  0  0  0  0  0  0  0  0  0  0  0
   48.9010   84.0530   59.6920 C   0  0  0  0  0  0  0  0  0  0  0  0
   48.3430   84.9680   59.8230 H   0  0  0  0  0  0  0  0  0  0  0  0
   49.9580   83.9120   60.5980 C   0  0  0  0  0  3  0  0  0  0  0  0
   50.7540   82.7920   60.5460 C   0  0  0  0  0  3  0  0  0  0  0  0
   50.5120   81.8030   59.5980 C   0  0  0  0  0  0  0  0  0  0  0  0
   49.1290   81.0330   57.7200 O   0  0  0  0  0  0  0  0  0  0  0  0
   49.3700   80.0620   57.8850 H   0  0  0  0  0  0  0  0  0  0  0  0
   51.2850   80.6520   59.5020 O   0  0  0  0  0  0  0  0  0  0  0  0
   52.2920   80.7570   59.6710 H   0  0  0  0  0  0  0  0  0  0  0  0
  1  6  1  0  0  0  0
  2  1  2  0  0  0  0
  2  3  1  0  0  0  0
  3  4  2  0  0  0  0
  4  5  1  0  0  0  0
  5 10  1  0  0  0  0
  6  5  2  0  0  0  0
  7  1  1  0  0  0  0
  8  2  1  0  0  0  0
  9 17  1  0  0  0  0
 10  9  2  0  0  0  0
 10 11  1  0  0  0  0
 11 12  2  0  0  0  0
 12 16  1  0  0  0  0
 12 13  1  0  0  0  0
 13 20  1  0  0  0  0
 13 14  1  0  0  0  0
 14 21  1  0  0  0  0
 15 14  2  0  0  0  0
 16 15  1  0  0  0  0
 17 22  1  0  0  0  0
 17 16  2  0  0  0  0
 18  9  1  0  0  0  0
 19 11  1  0  0  0  0
 24 23  1  0  0  0  0
 25  3  1  0  0  0  0
 25 24  2  0  0  0  0
 26 25  1  0  0  0  0
 27 26  2  0  0  0  0
 27 28  1  0  0  0  0
 28 30  2  0  0  0  0
 29 28  1  0  0  0  0
 30 24  1  0  0  0  0
 30 34  1  0  0  0  0
 31 26  1  0  0  0  0
 32 27  1  0  0  0  0
 33 34  2  0  0  0  0
 33 39  1  0  0  0  0
 34 35  1  0  0  0  0
 35 36  1  0  0  0  0
 35 37  2  0  0  0  0
 38 37  1  0  0  0  0
 39 38  2  0  0  0  0
 40 41  1  0  0  0  0
 40 33  1  0  0  0  0
 42 39  1  0  0  0  0
 42 43  1  0  0  0  0
M  END
>  <minimizedAffinity>
-4.33362436

>  <minimizedRMSD>
5.6045785

$$$$
