
 OpenBabel03212520513D

 37 40  0  0  1  0  0  0  0  0999 V2000
   41.6520   83.8080   61.3920 C   0  0  0  0  0  0  0  0  0  0  0  0
   41.0860   84.1750   62.5700 C   0  0  0  0  0  0  0  0  0  0  0  0
   40.6660   83.2240   63.5010 C   0  0  0  0  0  0  0  0  0  0  0  0
   40.8190   81.9120   63.2400 N   0  0  0  0  0  0  0  0  0  0  0  0
   41.3850   81.5640   62.0610 C   0  0  0  0  0  0  0  0  0  0  0  0
   41.7930   82.4760   61.1570 N   0  0  0  0  0  0  0  0  0  0  0  0
   40.9520   85.2200   62.8050 H   0  0  0  0  0  0  0  0  0  0  0  0
   40.2100   83.4800   64.4530 H   0  0  0  0  0  0  0  0  0  0  0  0
   43.5800   86.4070   59.6780 C   0  0  0  0  0  0  0  0  0  0  0  0
   42.8820   86.5570   58.4890 C   0  0  0  0  0  0  0  0  0  0  0  0
   41.7440   85.7740   58.2580 C   0  0  0  0  0  0  0  0  0  0  0  0
   41.3980   84.8990   59.2480 N   0  0  0  0  0  0  0  0  0  0  0  0
   42.0940   84.7740   60.3930 C   0  0  0  0  0  0  0  0  0  0  0  0
   43.1860   85.5180   60.6270 N   0  0  0  0  0  0  0  0  0  0  0  0
   44.7070   87.2450   59.7670 N   0  0  0  0  0  0  0  0  0  0  0  0
   43.1400   87.2410   57.7000 H   0  0  0  0  0  0  0  0  0  0  0  0
   41.1440   85.8260   57.3630 H   0  0  0  0  0  0  0  0  0  0  0  0
   45.6570   86.8530   59.5660 H   0  0  0  0  0  0  0  0  0  0  0  0
   44.3560   88.2100   60.0460 H   0  0  0  0  0  0  0  0  0  0  0  0
   41.5140   80.0890   61.8210 C   0  0  1  0  0  0  0  0  0  0  0  0
   40.8640   79.1210   62.6750 C   0  0  0  0  0  0  0  0  0  0  0  0
   40.1590   79.4670   61.4090 C   0  0  2  0  0  0  0  0  0  0  0  0
   42.3740   79.7810   61.1920 H   0  0  0  0  0  0  0  0  0  0  0  0
   40.3520   79.4730   63.6100 H   0  0  0  0  0  0  0  0  0  0  0  0
   41.2900   78.1090   62.8030 H   0  0  0  0  0  0  0  0  0  0  0  0
   39.2550   80.0760   61.4620 H   0  0  0  0  0  0  0  0  0  0  0  0
   39.9200   77.2030   60.3340 C   0  0  0  0  0  0  0  0  0  0  0  0
   40.2260   78.5450   60.2470 C   0  0  0  0  0  0  0  0  0  0  0  0
   40.6140   79.0340   59.0010 C   0  0  0  0  0  0  0  0  0  0  0  0
   40.8740   80.0700   58.8280 H   0  0  0  0  0  0  0  0  0  0  0  0
   40.6860   78.2010   57.9020 C   0  0  0  0  0  3  0  0  0  0  0  0
   40.3800   76.8580   57.9850 C   0  0  0  0  0  3  0  0  0  0  0  0
   40.0010   76.3920   59.2150 C   0  0  0  0  0  0  0  0  0  0  0  0
   39.5310   76.6990   61.5670 O   0  0  0  0  0  0  0  0  0  0  0  0
   38.5190   76.6050   61.7180 H   0  0  0  0  0  0  0  0  0  0  0  0
   39.6790   75.0340   59.3600 O   0  0  0  0  0  0  0  0  0  0  0  0
   38.7870   74.6490   59.0680 H   0  0  0  0  0  0  0  0  0  0  0  0
  1  2  1  0  0  0  0
  2  7  1  0  0  0  0
  2  3  2  0  0  0  0
  3  8  1  0  0  0  0
  4  3  1  0  0  0  0
  5  4  2  0  0  0  0
  6  1  2  0  0  0  0
  6  5  1  0  0  0  0
  9 15  1  0  0  0  0
  9 14  1  0  0  0  0
 10  9  2  0  0  0  0
 11 10  1  0  0  0  0
 11 12  2  0  0  0  0
 12 13  1  0  0  0  0
 13 14  2  0  0  0  0
 13  1  1  0  0  0  0
 15 19  1  0  0  0  0
 16 10  1  0  0  0  0
 17 11  1  0  0  0  0
 18 15  1  0  0  0  0
 20 23  1  6  0  0  0
 20  5  1  0  0  0  0
 20 21  1  0  0  0  0
 21 25  1  0  0  0  0
 21 24  1  0  0  0  0
 22 26  1  1  0  0  0
 22 20  1  0  0  0  0
 22 21  1  0  0  0  0
 27 34  1  0  0  0  0
 28 27  1  0  0  0  0
 28 22  1  0  0  0  0
 29 28  2  0  0  0  0
 30 29  1  0  0  0  0
 31 32  2  0  0  0  0
 31 29  1  0  0  0  0
 32 33  1  0  0  0  0
 33 36  1  0  0  0  0
 33 27  2  0  0  0  0
 34 35  1  0  0  0  0
 37 36  1  0  0  0  0
M  END
>  <minimizedAffinity>
-6.08036566

>  <minimizedRMSD>
0.553366601

$$$$
