
 OpenBabel03212520203D

 39 42  0  0  0  0  0  0  0  0999 V2000
   43.1930   83.9160   58.7110 Cl  0  0  0  0  0  0  0  0  0  0  0  0
   41.9470   82.7680   58.2880 C   0  0  0  0  0  0  0  0  0  0  0  0
   41.0320   82.2610   59.2100 C   0  0  0  0  0  0  0  0  0  0  0  0
   40.1020   81.3570   58.7240 C   0  0  0  0  0  0  0  0  0  0  0  0
   39.9890   80.9120   57.4290 C   0  0  0  0  0  0  0  0  0  0  0  0
   40.9000   81.4280   56.5520 C   0  0  0  0  0  0  0  0  0  0  0  0
   40.8850   80.9540   54.8560 Cl  0  0  0  0  0  0  0  0  0  0  0  0
   41.8690   82.3460   56.9780 C   0  0  0  0  0  0  0  0  0  0  0  0
   39.4210   81.0040   59.4960 H   0  0  0  0  0  0  0  0  0  0  0  0
   39.2380   80.2100   57.1320 H   0  0  0  0  0  0  0  0  0  0  0  0
   41.9180   82.1540   61.5930 C   0  0  0  0  0  0  0  0  0  0  0  0
   41.1130   82.6960   60.5600 C   0  0  0  0  0  0  0  0  0  0  0  0
   40.3020   83.7780   60.8930 C   0  0  0  0  0  0  0  0  0  0  0  0
   40.3570   84.2190   62.1870 N   0  0  0  0  0  0  0  0  0  0  0  0
   41.1270   83.6850   63.1320 C   0  0  0  0  0  0  0  0  0  0  0  0
   41.9230   82.6320   62.8310 N   0  0  0  0  0  0  0  0  0  0  0  0
   42.5300   81.3150   61.2850 H   0  0  0  0  0  0  0  0  0  0  0  0
   39.6460   84.2720   60.1850 H   0  0  0  0  0  0  0  0  0  0  0  0
   41.0240   84.3290   64.4700 C   0  0  0  0  0  0  0  0  0  0  0  0
   40.6640   85.6560   64.3920 F   0  0  0  0  0  0  0  0  0  0  0  0
   40.0830   83.6550   65.2480 F   0  0  0  0  0  0  0  0  0  0  0  0
   42.2750   84.3050   65.1230 F   0  0  0  0  0  0  0  0  0  0  0  0
   42.7710   82.8410   56.0510 O   0  0  0  0  0  0  0  0  0  0  0  0
   42.5350   83.9130   55.1990 C   0  0  0  0  0  0  0  0  0  0  0  0
   42.6310   83.6570   54.1240 H   0  0  0  0  0  0  0  0  0  0  0  0
   41.5440   84.3950   55.3140 H   0  0  0  0  0  0  0  0  0  0  0  0
   43.5020   84.9060   55.4440 O   0  0  0  0  0  0  0  0  0  0  0  0
   44.8640   84.7220   55.4990 C   0  0  0  0  0  0  0  0  0  0  0  0
   45.6940   83.9710   54.6980 C   0  0  0  0  0  0  0  0  0  0  0  0
   45.1610   83.4600   53.9130 H   0  0  0  0  0  0  0  0  0  0  0  0
   47.0360   83.8950   54.8890 C   0  0  0  0  0  3  0  0  0  0  0  0
   47.5730   84.6220   55.9580 C   0  0  0  0  0  0  0  0  0  0  0  0
   48.9190   84.5540   56.1590 N   0  0  0  0  0  0  0  0  0  0  0  0
   49.5330   85.2150   57.1580 C   0  0  0  0  0  0  0  0  0  0  0  0
   50.6070   85.1640   57.3240 H   0  0  0  0  0  0  0  0  0  0  0  0
   48.7680   85.9990   58.0170 C   0  0  0  0  0  3  0  0  0  0  0  0
   47.4020   86.0830   57.8300 C   0  0  0  0  0  3  0  0  0  0  0  0
   46.7990   85.3940   56.7990 C   0  0  0  0  0  0  0  0  0  0  0  0
   45.4200   85.4430   56.5630 C   0  0  0  0  0  3  0  0  0  0  0  0
  2  1  1  0  0  0  0
  2  3  1  0  0  0  0
  3 12  1  0  0  0  0
  4  3  2  0  0  0  0
  4  9  1  0  0  0  0
  5  4  1  0  0  0  0
  6  8  1  0  0  0  0
  6  5  2  0  0  0  0
  7  6  1  0  0  0  0
  8  2  2  0  0  0  0
 10  5  1  0  0  0  0
 11 16  1  0  0  0  0
 12 13  1  0  0  0  0
 12 11  2  0  0  0  0
 13 14  2  0  0  0  0
 14 15  1  0  0  0  0
 15 19  1  0  0  0  0
 16 15  2  0  0  0  0
 17 11  1  0  0  0  0
 18 13  1  0  0  0  0
 19 22  1  0  0  0  0
 19 21  1  0  0  0  0
 20 19  1  0  0  0  0
 23  8  1  0  0  0  0
 24 26  1  0  0  0  0
 24 27  1  0  0  0  0
 24 23  1  0  0  0  0
 25 24  1  0  0  0  0
 27 28  1  0  0  0  0
 28 39  1  0  0  0  0
 29 31  1  0  0  0  0
 29 28  2  0  0  0  0
 30 29  1  0  0  0  0
 31 32  2  0  0  0  0
 32 33  1  0  0  0  0
 32 38  1  0  0  0  0
 33 34  2  0  0  0  0
 34 35  1  0  0  0  0
 34 36  1  0  0  0  0
 37 36  2  0  0  0  0
 38 37  1  0  0  0  0
 39 38  2  0  0  0  0
M  END
>  <minimizedAffinity>
-4.99472475

>  <minimizedRMSD>
1.07611811

$$$$
