
 OpenBabel03212520333D

 44 48  0  0  0  0  0  0  0  0999 V2000
   38.6680   76.1740   57.0090 C   0  0  0  0  0  0  0  0  0  0  0  0
   38.4380   74.9800   56.3410 C   0  0  0  0  0  0  0  0  0  0  0  0
   37.5210   74.9060   55.3120 C   0  0  0  0  0  0  0  0  0  0  0  0
   36.7790   76.0050   54.8830 C   0  0  0  0  0  0  0  0  0  0  0  0
   36.9870   77.1990   55.5270 C   0  0  0  0  0  0  0  0  0  0  0  0
   37.9070   77.2730   56.5580 C   0  0  0  0  0  0  0  0  0  0  0  0
   37.3680   73.9540   54.8140 H   0  0  0  0  0  0  0  0  0  0  0  0
   36.0860   75.8450   54.0700 H   0  0  0  0  0  0  0  0  0  0  0  0
   36.4310   78.0620   55.2200 H   0  0  0  0  0  0  0  0  0  0  0  0
   38.0660   78.2200   57.0620 H   0  0  0  0  0  0  0  0  0  0  0  0
   41.1080   72.4580   56.7250 C   0  0  0  0  0  0  0  0  0  0  0  0
   40.4670   71.4470   57.4120 C   0  0  0  0  0  0  0  0  0  0  0  0
   39.1220   71.6590   57.7280 C   0  0  0  0  0  0  0  0  0  0  0  0
   38.5230   72.8280   57.3500 N   0  0  0  0  0  0  0  0  0  0  0  0
   39.1740   73.7720   56.6920 C   0  0  0  0  0  0  0  0  0  0  0  0
   40.4620   73.5760   56.3870 N   0  0  0  0  0  0  0  0  0  0  0  0
   42.1590   72.2950   56.4780 H   0  0  0  0  0  0  0  0  0  0  0  0
   38.5780   70.9020   58.2620 H   0  0  0  0  0  0  0  0  0  0  0  0
   41.1380   70.2530   57.7820 N   0  0  0  0  0  0  0  0  0  0  0  0
   41.4590   70.2080   59.0840 C   0  0  0  0  0  0  0  0  0  0  0  0
   42.1260   69.0640   59.5410 C   0  0  0  0  0  0  0  0  0  0  0  0
   42.4280   68.0380   58.6630 C   0  0  0  0  0  0  0  0  0  0  0  0
   43.0220   66.9850   59.0000 O   0  0  0  0  0  0  0  0  0  0  0  0
   42.0620   68.1690   57.3580 N   0  0  0  0  0  0  0  0  0  0  0  0
   41.4150   69.2740   56.9030 C   0  0  0  0  0  0  0  0  0  0  0  0
   41.0780   69.4020   55.7080 O   0  0  0  0  0  0  0  0  0  0  0  0
   41.2480   70.9720   59.7970 H   0  0  0  0  0  0  0  0  0  0  0  0
   42.4270   68.9220   60.5500 H   0  0  0  0  0  0  0  0  0  0  0  0
   42.2520   67.4490   56.6430 H   0  0  0  0  0  0  0  0  0  0  0  0
   39.7980   76.3020   58.3060 S   0  0  0  0  0  0  0  0  0  0  0  0
   39.6300   77.6350   59.0050 O   0  0  0  0  0  0  0  0  0  0  0  0
   41.1860   76.4160   57.6640 O   0  0  0  0  0  0  0  0  0  0  0  0
   39.7650   75.1010   59.5320 C   0  0  0  0  0  0  0  0  0  0  0  0
   38.7930   74.4920   60.3280 C   0  0  0  0  0  0  0  0  0  0  0  0
   37.8380   74.9520   60.0380 H   0  0  0  0  0  0  0  0  0  0  0  0
   39.0560   73.5230   61.2630 C   0  0  0  0  0  3  0  0  0  0  0  0
   40.3460   73.0900   61.4650 C   0  0  0  0  0  0  0  0  0  0  0  0
   40.4780   72.1440   62.4000 N   0  0  0  0  0  0  0  0  0  0  0  0
   41.7130   71.6590   62.6660 C   0  0  0  0  0  0  0  0  0  0  0  0
   41.8810   70.9010   63.4020 H   0  0  0  0  0  0  0  0  0  0  0  0
   42.7710   72.1720   61.9500 C   0  0  0  0  0  3  0  0  0  0  0  0
   42.6070   73.1470   60.9890 C   0  0  0  0  0  3  0  0  0  0  0  0
   41.3550   73.6500   60.7100 C   0  0  0  0  0  0  0  0  0  0  0  0
   41.0630   74.6390   59.7610 C   0  0  0  0  0  3  0  0  0  0  0  0
  1 30  1  0  0  0  0
  2 15  1  0  0  0  0
  2  1  2  0  0  0  0
  3  2  1  0  0  0  0
  4  3  2  0  0  0  0
  4  5  1  0  0  0  0
  5  6  2  0  0  0  0
  6  1  1  0  0  0  0
  6 10  1  0  0  0  0
  7  3  1  0  0  0  0
  8  4  1  0  0  0  0
  9  5  1  0  0  0  0
 11 12  1  0  0  0  0
 12 13  2  0  0  0  0
 12 19  1  0  0  0  0
 13 18  1  0  0  0  0
 14 13  1  0  0  0  0
 15 14  2  0  0  0  0
 16 15  1  0  0  0  0
 16 11  2  0  0  0  0
 17 11  1  0  0  0  0
 19 20  1  0  0  0  0
 20 21  2  0  0  0  0
 20 27  1  0  0  0  0
 21 28  1  0  0  0  0
 22 23  2  0  0  0  0
 22 21  1  0  0  0  0
 24 22  1  0  0  0  0
 25 24  1  0  0  0  0
 25 19  1  0  0  0  0
 26 25  2  0  0  0  0
 29 24  1  0  0  0  0
 30 31  2  0  0  0  0
 30 33  1  0  0  0  0
 32 30  2  0  0  0  0
 33 44  2  0  0  0  0
 33 34  1  0  0  0  0
 34 36  2  0  0  0  0
 35 34  1  0  0  0  0
 36 37  1  0  0  0  0
 37 38  1  0  0  0  0
 38 39  2  0  0  0  0
 39 40  1  0  0  0  0
 41 39  1  0  0  0  0
 42 41  2  0  0  0  0
 43 42  1  0  0  0  0
 43 37  2  0  0  0  0
 44 43  1  0  0  0  0
M  END
>  <minimizedAffinity>
-7.21782827

$$$$

 OpenBabel03212520333D

 44 48  0  0  0  0  0  0  0  0999 V2000
   42.3980   70.7020   61.2340 C   0  0  0  0  0  0  0  0  0  0  0  0
   41.9040   70.0290   60.1260 C   0  0  0  0  0  0  0  0  0  0  0  0
   41.7960   68.6540   60.1190 C   0  0  0  0  0  0  0  0  0  0  0  0
   42.1680   67.8620   61.2050 C   0  0  0  0  0  0  0  0  0  0  0  0
   42.6590   68.5030   62.3140 C   0  0  0  0  0  0  0  0  0  0  0  0
   42.7680   69.8820   62.3210 C   0  0  0  0  0  0  0  0  0  0  0  0
   41.4060   68.1630   59.2330 H   0  0  0  0  0  0  0  0  0  0  0  0
   42.0450   66.7940   61.1010 H   0  0  0  0  0  0  0  0  0  0  0  0
   42.9540   67.9220   63.1650 H   0  0  0  0  0  0  0  0  0  0  0  0
   43.1570   70.3810   63.2020 H   0  0  0  0  0  0  0  0  0  0  0  0
   41.8690   71.9520   56.9730 C   0  0  0  0  0  0  0  0  0  0  0  0
   40.5190   72.1100   56.7350 C   0  0  0  0  0  0  0  0  0  0  0  0
   39.6470   71.5480   57.6730 C   0  0  0  0  0  0  0  0  0  0  0  0
   40.1630   70.8870   58.7510 N   0  0  0  0  0  0  0  0  0  0  0  0
   41.4650   70.7570   58.9420 C   0  0  0  0  0  0  0  0  0  0  0  0
   42.3050   71.2920   58.0480 N   0  0  0  0  0  0  0  0  0  0  0  0
   42.5520   72.3890   56.2420 H   0  0  0  0  0  0  0  0  0  0  0  0
   38.5870   71.6450   57.5330 H   0  0  0  0  0  0  0  0  0  0  0  0
   40.0370   72.8060   55.5970 N   0  0  0  0  0  0  0  0  0  0  0  0
   39.9810   74.1350   55.7730 C   0  0  0  0  0  0  0  0  0  0  0  0
   39.5160   74.9050   54.7000 C   0  0  0  0  0  0  0  0  0  0  0  0
   39.1370   74.2930   53.5180 C   0  0  0  0  0  0  0  0  0  0  0  0
   38.7110   74.9180   52.5160 O   0  0  0  0  0  0  0  0  0  0  0  0
   39.2280   72.9390   53.4280 N   0  0  0  0  0  0  0  0  0  0  0  0
   39.6780   72.1790   54.4620 C   0  0  0  0  0  0  0  0  0  0  0  0
   39.7630   70.9370   54.3870 O   0  0  0  0  0  0  0  0  0  0  0  0
   40.2610   74.6490   56.6630 H   0  0  0  0  0  0  0  0  0  0  0  0
   39.4310   75.9640   54.7290 H   0  0  0  0  0  0  0  0  0  0  0  0
   38.9640   72.4100   52.5810 H   0  0  0  0  0  0  0  0  0  0  0  0
   42.5580   72.4190   61.2750 S   0  0  0  0  0  0  0  0  0  0  0  0
   43.7820   72.8400   60.4910 O   0  0  0  0  0  0  0  0  0  0  0  0
   42.9230   72.7870   62.7190 O   0  0  0  0  0  0  0  0  0  0  0  0
   41.2530   73.3680   60.6920 C   0  0  0  0  0  0  0  0  0  0  0  0
   39.8670   73.3950   60.8550 C   0  0  0  0  0  0  0  0  0  0  0  0
   39.6310   72.5710   61.5420 H   0  0  0  0  0  0  0  0  0  0  0  0
   39.0340   74.2990   60.2460 C   0  0  0  0  0  3  0  0  0  0  0  0
   39.5510   75.2620   59.4110 C   0  0  0  0  0  0  0  0  0  0  0  0
   38.6440   76.0850   58.8760 N   0  0  0  0  0  0  0  0  0  0  0  0
   39.0650   77.0640   58.0420 C   0  0  0  0  0  0  0  0  0  0  0  0
   38.3860   77.7530   57.5840 H   0  0  0  0  0  0  0  0  0  0  0  0
   40.4150   77.1560   57.7900 C   0  0  0  0  0  3  0  0  0  0  0  0
   41.3310   76.2940   58.3560 C   0  0  0  0  0  3  0  0  0  0  0  0
   40.9150   75.2930   59.2060 C   0  0  0  0  0  0  0  0  0  0  0  0
   41.7470   74.3590   59.8390 C   0  0  0  0  0  3  0  0  0  0  0  0
  1 30  1  0  0  0  0
  1  6  1  0  0  0  0
  2  1  2  0  0  0  0
  3  2  1  0  0  0  0
  3  4  2  0  0  0  0
  4  5  1  0  0  0  0
  5  6  2  0  0  0  0
  5  9  1  0  0  0  0
  6 10  1  0  0  0  0
  7  3  1  0  0  0  0
  8  4  1  0  0  0  0
 11 16  1  0  0  0  0
 12 11  2  0  0  0  0
 12 13  1  0  0  0  0
 13 14  2  0  0  0  0
 14 15  1  0  0  0  0
 15  2  1  0  0  0  0
 16 15  2  0  0  0  0
 17 11  1  0  0  0  0
 18 13  1  0  0  0  0
 19 20  1  0  0  0  0
 19 12  1  0  0  0  0
 20 27  1  0  0  0  0
 21 28  1  0  0  0  0
 21 20  2  0  0  0  0
 22 21  1  0  0  0  0
 23 22  2  0  0  0  0
 24 22  1  0  0  0  0
 24 25  1  0  0  0  0
 25 19  1  0  0  0  0
 26 25  2  0  0  0  0
 29 24  1  0  0  0  0
 30 32  2  0  0  0  0
 31 30  2  0  0  0  0
 33 34  1  0  0  0  0
 33 30  1  0  0  0  0
 34 35  1  0  0  0  0
 36 34  2  0  0  0  0
 37 36  1  0  0  0  0
 38 37  2  0  0  0  0
 39 38  1  0  0  0  0
 40 39  1  0  0  0  0
 41 39  2  0  0  0  0
 41 42  1  0  0  0  0
 42 43  2  0  0  0  0
 43 37  1  0  0  0  0
 43 44  1  0  0  0  0
 44 33  2  0  0  0  0
M  END
>  <minimizedAffinity>
-6.9528513

$$$$

 OpenBabel03212520333D

 44 48  0  0  0  0  0  0  0  0999 V2000
   42.5400   68.9060   56.0270 C   0  0  0  0  0  0  0  0  0  0  0  0
   41.4630   69.7540   55.8150 C   0  0  0  0  0  0  0  0  0  0  0  0
   40.6060   69.5640   54.7510 C   0  0  0  0  0  0  0  0  0  0  0  0
   40.7630   68.5250   53.8330 C   0  0  0  0  0  0  0  0  0  0  0  0
   41.8200   67.6720   54.0200 C   0  0  0  0  0  0  0  0  0  0  0  0
   42.6790   67.8630   55.0880 C   0  0  0  0  0  0  0  0  0  0  0  0
   39.7750   70.2480   54.6170 H   0  0  0  0  0  0  0  0  0  0  0  0
   40.0390   68.4610   53.0330 H   0  0  0  0  0  0  0  0  0  0  0  0
   41.9670   66.8640   53.3310 H   0  0  0  0  0  0  0  0  0  0  0  0
   43.5120   67.1840   55.2280 H   0  0  0  0  0  0  0  0  0  0  0  0
   41.5670   73.0230   57.5320 C   0  0  0  0  0  0  0  0  0  0  0  0
   40.5860   72.8860   58.4930 C   0  0  0  0  0  0  0  0  0  0  0  0
   39.9090   71.6640   58.5280 C   0  0  0  0  0  0  0  0  0  0  0  0
   40.2430   70.6890   57.6310 N   0  0  0  0  0  0  0  0  0  0  0  0
   41.1900   70.8600   56.7240 C   0  0  0  0  0  0  0  0  0  0  0  0
   41.8420   72.0280   56.6850 N   0  0  0  0  0  0  0  0  0  0  0  0
   42.0970   73.9760   57.5020 H   0  0  0  0  0  0  0  0  0  0  0  0
   39.1370   71.5080   59.2590 H   0  0  0  0  0  0  0  0  0  0  0  0
   40.2780   73.9330   59.3990 N   0  0  0  0  0  0  0  0  0  0  0  0
   39.8560   75.0520   58.7920 C   0  0  0  0  0  0  0  0  0  0  0  0
   39.5290   76.1410   59.6100 C   0  0  0  0  0  0  0  0  0  0  0  0
   39.6450   76.0380   60.9850 C   0  0  0  0  0  0  0  0  0  0  0  0
   39.3700   76.9700   61.7790 O   0  0  0  0  0  0  0  0  0  0  0  0
   40.0810   74.8620   61.5140 N   0  0  0  0  0  0  0  0  0  0  0  0
   40.4020   73.7980   60.7320 C   0  0  0  0  0  0  0  0  0  0  0  0
   40.8030   72.7180   61.2100 O   0  0  0  0  0  0  0  0  0  0  0  0
   39.7510   75.1790   57.7390 H   0  0  0  0  0  0  0  0  0  0  0  0
   39.1840   77.0750   59.2370 H   0  0  0  0  0  0  0  0  0  0  0  0
   40.1940   74.7070   62.5290 H   0  0  0  0  0  0  0  0  0  0  0  0
   43.6370   69.1200   57.3400 S   0  0  0  0  0  0  0  0  0  0  0  0
   44.3370   70.4560   57.2140 O   0  0  0  0  0  0  0  0  0  0  0  0
   44.7720   68.1090   57.1280 O   0  0  0  0  0  0  0  0  0  0  0  0
   43.0150   69.0430   58.9380 C   0  0  0  0  0  0  0  0  0  0  0  0
   42.9270   69.9040   60.0330 C   0  0  0  0  0  0  0  0  0  0  0  0
   43.3960   70.8440   59.7130 H   0  0  0  0  0  0  0  0  0  0  0  0
   42.3550   69.5700   61.2350 C   0  0  0  0  0  3  0  0  0  0  0  0
   41.8200   68.3170   61.4210 C   0  0  0  0  0  0  0  0  0  0  0  0
   41.2910   68.1090   62.6310 N   0  0  0  0  0  0  0  0  0  0  0  0
   40.7410   66.9020   62.9020 C   0  0  0  0  0  0  0  0  0  0  0  0
   40.3030   66.6760   63.8510 H   0  0  0  0  0  0  0  0  0  0  0  0
   40.7570   65.9520   61.9070 C   0  0  0  0  0  3  0  0  0  0  0  0
   41.3080   66.1930   60.6660 C   0  0  0  0  0  3  0  0  0  0  0  0
   41.8720   67.4170   60.3770 C   0  0  0  0  0  0  0  0  0  0  0  0
   42.4620   67.7790   59.1590 C   0  0  0  0  0  3  0  0  0  0  0  0
  1 30  1  0  0  0  0
  2  1  1  0  0  0  0
  2 15  1  0  0  0  0
  3  2  2  0  0  0  0
  4  5  2  0  0  0  0
  4  3  1  0  0  0  0
  5  6  1  0  0  0  0
  6 10  1  0  0  0  0
  6  1  2  0  0  0  0
  7  3  1  0  0  0  0
  8  4  1  0  0  0  0
  9  5  1  0  0  0  0
 11 12  1  0  0  0  0
 12 13  2  0  0  0  0
 12 19  1  0  0  0  0
 13 18  1  0  0  0  0
 14 13  1  0  0  0  0
 15 14  2  0  0  0  0
 16 15  1  0  0  0  0
 16 11  2  0  0  0  0
 17 11  1  0  0  0  0
 19 25  1  0  0  0  0
 20 19  1  0  0  0  0
 20 21  2  0  0  0  0
 21 22  1  0  0  0  0
 22 24  1  0  0  0  0
 22 23  2  0  0  0  0
 24 29  1  0  0  0  0
 25 26  2  0  0  0  0
 25 24  1  0  0  0  0
 27 20  1  0  0  0  0
 28 21  1  0  0  0  0
 30 33  1  0  0  0  0
 31 30  2  0  0  0  0
 32 30  2  0  0  0  0
 33 44  2  0  0  0  0
 33 34  1  0  0  0  0
 34 36  2  0  0  0  0
 35 34  1  0  0  0  0
 36 37  1  0  0  0  0
 37 38  1  0  0  0  0
 38 39  2  0  0  0  0
 39 40  1  0  0  0  0
 41 39  1  0  0  0  0
 42 41  2  0  0  0  0
 43 42  1  0  0  0  0
 43 37  2  0  0  0  0
 44 43  1  0  0  0  0
M  END
>  <minimizedAffinity>
-6.72193384

$$$$

 OpenBabel03212520333D

 44 48  0  0  0  0  0  0  0  0999 V2000
   41.4710   74.7670   59.6750 C   0  0  0  0  0  0  0  0  0  0  0  0
   40.8610   73.9160   60.5860 C   0  0  0  0  0  0  0  0  0  0  0  0
   39.7270   74.3010   61.2700 C   0  0  0  0  0  0  0  0  0  0  0  0
   39.1290   75.5490   61.0960 C   0  0  0  0  0  0  0  0  0  0  0  0
   39.7120   76.4100   60.2010 C   0  0  0  0  0  0  0  0  0  0  0  0
   40.8490   76.0220   59.5150 C   0  0  0  0  0  0  0  0  0  0  0  0
   39.2780   73.6090   61.9750 H   0  0  0  0  0  0  0  0  0  0  0  0
   38.2440   75.7570   61.6790 H   0  0  0  0  0  0  0  0  0  0  0  0
   39.2760   77.3760   60.0460 H   0  0  0  0  0  0  0  0  0  0  0  0
   41.3040   76.7090   58.8090 H   0  0  0  0  0  0  0  0  0  0  0  0
   41.7100   70.3370   60.2470 C   0  0  0  0  0  0  0  0  0  0  0  0
   42.4360   70.0930   61.3940 C   0  0  0  0  0  0  0  0  0  0  0  0
   42.6160   71.1720   62.2640 C   0  0  0  0  0  0  0  0  0  0  0  0
   42.0770   72.3870   61.9420 N   0  0  0  0  0  0  0  0  0  0  0  0
   41.3870   72.5790   60.8300 C   0  0  0  0  0  0  0  0  0  0  0  0
   41.2120   71.5500   59.9930 N   0  0  0  0  0  0  0  0  0  0  0  0
   41.5690   69.4960   59.5660 H   0  0  0  0  0  0  0  0  0  0  0  0
   43.1730   71.0330   63.1720 H   0  0  0  0  0  0  0  0  0  0  0  0
   42.9740   68.8120   61.6790 N   0  0  0  0  0  0  0  0  0  0  0  0
   44.1940   68.6210   61.1530 C   0  0  0  0  0  0  0  0  0  0  0  0
   44.8050   67.3830   61.3820 C   0  0  0  0  0  0  0  0  0  0  0  0
   44.1550   66.4130   62.1260 C   0  0  0  0  0  0  0  0  0  0  0  0
   44.6400   65.2820   62.3720 O   0  0  0  0  0  0  0  0  0  0  0  0
   42.9190   66.6940   62.6220 N   0  0  0  0  0  0  0  0  0  0  0  0
   42.3150   67.8930   62.4070 C   0  0  0  0  0  0  0  0  0  0  0  0
   41.1820   68.1570   62.8580 O   0  0  0  0  0  0  0  0  0  0  0  0
   44.7330   69.3360   60.5750 H   0  0  0  0  0  0  0  0  0  0  0  0
   45.7680   67.1240   61.0140 H   0  0  0  0  0  0  0  0  0  0  0  0
   42.3710   66.0240   63.1850 H   0  0  0  0  0  0  0  0  0  0  0  0
   42.8950   74.3220   58.8090 S   0  0  0  0  0  0  0  0  0  0  0  0
   43.9870   73.9300   59.7820 O   0  0  0  0  0  0  0  0  0  0  0  0
   43.4370   75.6090   58.1740 O   0  0  0  0  0  0  0  0  0  0  0  0
   42.7830   73.0510   57.6620 C   0  0  0  0  0  0  0  0  0  0  0  0
   43.5840   71.9840   57.2500 C   0  0  0  0  0  0  0  0  0  0  0  0
   44.4970   72.0430   57.8600 H   0  0  0  0  0  0  0  0  0  0  0  0
   43.2340   71.0860   56.2750 C   0  0  0  0  0  3  0  0  0  0  0  0
   42.0250   71.2020   55.6310 C   0  0  0  0  0  0  0  0  0  0  0  0
   41.7940   70.2700   54.7010 N   0  0  0  0  0  0  0  0  0  0  0  0
   40.6270   70.3070   54.0160 C   0  0  0  0  0  0  0  0  0  0  0  0
   40.3860   69.5890   53.2610 H   0  0  0  0  0  0  0  0  0  0  0  0
   39.7370   71.3110   54.3220 C   0  0  0  0  0  3  0  0  0  0  0  0
   39.9980   72.2600   55.2870 C   0  0  0  0  0  3  0  0  0  0  0  0
   41.1830   72.2340   55.9900 C   0  0  0  0  0  0  0  0  0  0  0  0
   41.5620   73.1400   56.9900 C   0  0  0  0  0  3  0  0  0  0  0  0
  1  2  1  0  0  0  0
  2 15  1  0  0  0  0
  2  3  2  0  0  0  0
  3  7  1  0  0  0  0
  4  3  1  0  0  0  0
  4  8  1  0  0  0  0
  5  4  2  0  0  0  0
  6  1  2  0  0  0  0
  6  5  1  0  0  0  0
  9  5  1  0  0  0  0
 10  6  1  0  0  0  0
 11 12  1  0  0  0  0
 12 19  1  0  0  0  0
 12 13  2  0  0  0  0
 13 18  1  0  0  0  0
 14 13  1  0  0  0  0
 15 14  2  0  0  0  0
 16 11  2  0  0  0  0
 16 15  1  0  0  0  0
 17 11  1  0  0  0  0
 19 25  1  0  0  0  0
 20 21  2  0  0  0  0
 20 19  1  0  0  0  0
 21 22  1  0  0  0  0
 22 23  2  0  0  0  0
 22 24  1  0  0  0  0
 24 29  1  0  0  0  0
 25 24  1  0  0  0  0
 25 26  2  0  0  0  0
 27 20  1  0  0  0  0
 28 21  1  0  0  0  0
 30  1  1  0  0  0  0
 30 31  2  0  0  0  0
 32 30  2  0  0  0  0
 33 30  1  0  0  0  0
 34 33  1  0  0  0  0
 34 35  1  0  0  0  0
 36 34  2  0  0  0  0
 37 43  1  0  0  0  0
 37 36  1  0  0  0  0
 38 37  2  0  0  0  0
 39 41  2  0  0  0  0
 39 38  1  0  0  0  0
 40 39  1  0  0  0  0
 41 42  1  0  0  0  0
 42 43  2  0  0  0  0
 43 44  1  0  0  0  0
 44 33  2  0  0  0  0
M  END
>  <minimizedAffinity>
-6.56757641

$$$$

 OpenBabel03212520333D

 44 48  0  0  0  0  0  0  0  0999 V2000
   41.0820   72.7670   60.7550 C   0  0  0  0  0  0  0  0  0  0  0  0
   40.6380   72.3640   59.5040 C   0  0  0  0  0  0  0  0  0  0  0  0
   39.4590   72.8500   58.9770 C   0  0  0  0  0  0  0  0  0  0  0  0
   38.6510   73.7630   59.6540 C   0  0  0  0  0  0  0  0  0  0  0  0
   39.0680   74.1780   60.8930 C   0  0  0  0  0  0  0  0  0  0  0  0
   40.2500   73.6900   61.4200 C   0  0  0  0  0  0  0  0  0  0  0  0
   39.1440   72.5110   57.9960 H   0  0  0  0  0  0  0  0  0  0  0  0
   37.7470   74.0830   59.1570 H   0  0  0  0  0  0  0  0  0  0  0  0
   38.4680   74.8790   61.4380 H   0  0  0  0  0  0  0  0  0  0  0  0
   40.5720   74.0230   62.4010 H   0  0  0  0  0  0  0  0  0  0  0  0
   43.2200   70.8870   57.3140 C   0  0  0  0  0  0  0  0  0  0  0  0
   42.8060   69.5750   57.2080 C   0  0  0  0  0  0  0  0  0  0  0  0
   41.6400   69.2280   57.8960 C   0  0  0  0  0  0  0  0  0  0  0  0
   40.9840   70.1820   58.6220 N   0  0  0  0  0  0  0  0  0  0  0  0
   41.4140   71.4300   58.6980 C   0  0  0  0  0  0  0  0  0  0  0  0
   42.5300   71.7680   58.0420 N   0  0  0  0  0  0  0  0  0  0  0  0
   44.1310   71.1610   56.7790 H   0  0  0  0  0  0  0  0  0  0  0  0
   41.2760   68.2190   57.8440 H   0  0  0  0  0  0  0  0  0  0  0  0
   43.5270   68.6240   56.4410 N   0  0  0  0  0  0  0  0  0  0  0  0
   44.5030   68.0160   57.1330 C   0  0  0  0  0  0  0  0  0  0  0  0
   45.2700   67.0600   56.4550 C   0  0  0  0  0  0  0  0  0  0  0  0
   45.0090   66.7740   55.1270 C   0  0  0  0  0  0  0  0  0  0  0  0
   45.6530   65.9300   54.4570 O   0  0  0  0  0  0  0  0  0  0  0  0
   43.9990   67.4400   54.5040 N   0  0  0  0  0  0  0  0  0  0  0  0
   43.2470   68.3700   55.1510 C   0  0  0  0  0  0  0  0  0  0  0  0
   42.3200   68.9850   54.5860 O   0  0  0  0  0  0  0  0  0  0  0  0
   44.7400   68.2030   58.1550 H   0  0  0  0  0  0  0  0  0  0  0  0
   46.0650   66.5180   56.9050 H   0  0  0  0  0  0  0  0  0  0  0  0
   43.7430   67.2830   53.5160 H   0  0  0  0  0  0  0  0  0  0  0  0
   42.5450   72.1720   61.4490 S   0  0  0  0  0  0  0  0  0  0  0  0
   42.6350   72.5940   62.9000 O   0  0  0  0  0  0  0  0  0  0  0  0
   43.6880   72.9500   60.7870 O   0  0  0  0  0  0  0  0  0  0  0  0
   42.8290   70.4800   61.4150 C   0  0  0  0  0  0  0  0  0  0  0  0
   43.7680   69.6210   60.8400 C   0  0  0  0  0  0  0  0  0  0  0  0
   44.4640   70.2670   60.2870 H   0  0  0  0  0  0  0  0  0  0  0  0
   43.7570   68.2570   60.9820 C   0  0  0  0  0  3  0  0  0  0  0  0
   42.7770   67.6480   61.7300 C   0  0  0  0  0  0  0  0  0  0  0  0
   42.8700   66.3160   61.7960 N   0  0  0  0  0  0  0  0  0  0  0  0
   41.9470   65.6340   62.5120 C   0  0  0  0  0  0  0  0  0  0  0  0
   41.9690   64.5680   62.6020 H   0  0  0  0  0  0  0  0  0  0  0  0
   40.9570   66.3570   63.1370 C   0  0  0  0  0  3  0  0  0  0  0  0
   40.8840   67.7310   63.0540 C   0  0  0  0  0  3  0  0  0  0  0  0
   41.8170   68.4380   62.3280 C   0  0  0  0  0  0  0  0  0  0  0  0
   41.8480   69.8300   62.1690 C   0  0  0  0  0  3  0  0  0  0  0  0
  1  6  1  0  0  0  0
  1 30  1  0  0  0  0
  2  1  2  0  0  0  0
  3  2  1  0  0  0  0
  3  4  2  0  0  0  0
  4  5  1  0  0  0  0
  5  6  2  0  0  0  0
  5  9  1  0  0  0  0
  6 10  1  0  0  0  0
  7  3  1  0  0  0  0
  8  4  1  0  0  0  0
 11 16  1  0  0  0  0
 12 11  2  0  0  0  0
 12 13  1  0  0  0  0
 13 14  2  0  0  0  0
 14 15  1  0  0  0  0
 15  2  1  0  0  0  0
 16 15  2  0  0  0  0
 17 11  1  0  0  0  0
 18 13  1  0  0  0  0
 19 20  1  0  0  0  0
 19 12  1  0  0  0  0
 20 27  1  0  0  0  0
 21 28  1  0  0  0  0
 21 20  2  0  0  0  0
 22 21  1  0  0  0  0
 23 22  2  0  0  0  0
 24 22  1  0  0  0  0
 24 25  1  0  0  0  0
 25 19  1  0  0  0  0
 26 25  2  0  0  0  0
 29 24  1  0  0  0  0
 30 31  2  0  0  0  0
 32 30  2  0  0  0  0
 33 30  1  0  0  0  0
 33 44  1  0  0  0  0
 34 36  1  0  0  0  0
 34 33  2  0  0  0  0
 35 34  1  0  0  0  0
 36 37  2  0  0  0  0
 37 38  1  0  0  0  0
 37 43  1  0  0  0  0
 38 39  2  0  0  0  0
 39 40  1  0  0  0  0
 39 41  1  0  0  0  0
 42 41  2  0  0  0  0
 43 42  1  0  0  0  0
 44 43  2  0  0  0  0
M  END
>  <minimizedAffinity>
-6.4817524

$$$$

 OpenBabel03212520333D

 44 48  0  0  0  0  0  0  0  0999 V2000
   41.1860   73.9460   58.8530 C   0  0  0  0  0  0  0  0  0  0  0  0
   41.4850   74.0580   57.5030 C   0  0  0  0  0  0  0  0  0  0  0  0
   42.0960   75.1890   57.0010 C   0  0  0  0  0  0  0  0  0  0  0  0
   42.4480   76.2740   57.8030 C   0  0  0  0  0  0  0  0  0  0  0  0
   42.1650   76.1890   59.1420 C   0  0  0  0  0  0  0  0  0  0  0  0
   41.5520   75.0550   59.6440 C   0  0  0  0  0  0  0  0  0  0  0  0
   42.3130   75.2400   55.9390 H   0  0  0  0  0  0  0  0  0  0  0  0
   42.9230   77.1130   57.3150 H   0  0  0  0  0  0  0  0  0  0  0  0
   42.4240   77.0070   59.7840 H   0  0  0  0  0  0  0  0  0  0  0  0
   41.3310   74.9950   60.7050 H   0  0  0  0  0  0  0  0  0  0  0  0
   39.7080   71.7280   55.2550 C   0  0  0  0  0  0  0  0  0  0  0  0
   40.7230   70.9000   54.8210 C   0  0  0  0  0  0  0  0  0  0  0  0
   42.0030   71.1640   55.3170 C   0  0  0  0  0  0  0  0  0  0  0  0
   42.1810   72.2050   56.1850 N   0  0  0  0  0  0  0  0  0  0  0  0
   41.1810   72.9750   56.5760 C   0  0  0  0  0  0  0  0  0  0  0  0
   39.9530   72.7280   56.1040 N   0  0  0  0  0  0  0  0  0  0  0  0
   38.7080   71.5240   54.8680 H   0  0  0  0  0  0  0  0  0  0  0  0
   42.8270   70.5480   55.0100 H   0  0  0  0  0  0  0  0  0  0  0  0
   40.4830   69.8340   53.9160 N   0  0  0  0  0  0  0  0  0  0  0  0
   40.0580   70.2470   52.7120 C   0  0  0  0  0  0  0  0  0  0  0  0
   39.7940   69.2620   51.7530 C   0  0  0  0  0  0  0  0  0  0  0  0
   39.9730   67.9250   52.0610 C   0  0  0  0  0  0  0  0  0  0  0  0
   39.7580   66.9890   51.2530 O   0  0  0  0  0  0  0  0  0  0  0  0
   40.4090   67.5980   53.3080 N   0  0  0  0  0  0  0  0  0  0  0  0
   40.6690   68.5440   54.2490 C   0  0  0  0  0  0  0  0  0  0  0  0
   41.0670   68.2520   55.3940 O   0  0  0  0  0  0  0  0  0  0  0  0
   39.9050   71.2630   52.4290 H   0  0  0  0  0  0  0  0  0  0  0  0
   39.4540   69.4750   50.7690 H   0  0  0  0  0  0  0  0  0  0  0  0
   40.5670   66.6240   53.6140 H   0  0  0  0  0  0  0  0  0  0  0  0
   40.4130   72.5530   59.5140 S   0  0  0  0  0  0  0  0  0  0  0  0
   39.1440   72.2550   58.7440 O   0  0  0  0  0  0  0  0  0  0  0  0
   39.8950   72.9590   60.8990 O   0  0  0  0  0  0  0  0  0  0  0  0
   41.3020   71.0860   59.5770 C   0  0  0  0  0  0  0  0  0  0  0  0
   41.6280   70.0600   58.6890 C   0  0  0  0  0  0  0  0  0  0  0  0
   41.1620   70.3330   57.7320 H   0  0  0  0  0  0  0  0  0  0  0  0
   42.3830   68.9630   59.0180 C   0  0  0  0  0  3  0  0  0  0  0  0
   42.8730   68.8200   60.2960 C   0  0  0  0  0  0  0  0  0  0  0  0
   43.5940   67.7120   60.4970 N   0  0  0  0  0  0  0  0  0  0  0  0
   44.1160   67.4900   61.7260 C   0  0  0  0  0  0  0  0  0  0  0  0
   44.7010   66.6230   61.9480 H   0  0  0  0  0  0  0  0  0  0  0  0
   43.8730   68.4260   62.7050 C   0  0  0  0  0  3  0  0  0  0  0  0
   43.1260   69.5620   62.4700 C   0  0  0  0  0  3  0  0  0  0  0  0
   42.5880   69.7990   61.2240 C   0  0  0  0  0  0  0  0  0  0  0  0
   41.8150   70.9120   60.8650 C   0  0  0  0  0  3  0  0  0  0  0  0
  1 30  1  0  0  0  0
  1  6  1  0  0  0  0
  2  1  2  0  0  0  0
  3  2  1  0  0  0  0
  3  4  2  0  0  0  0
  4  5  1  0  0  0  0
  5  6  2  0  0  0  0
  5  9  1  0  0  0  0
  6 10  1  0  0  0  0
  7  3  1  0  0  0  0
  8  4  1  0  0  0  0
 11 16  1  0  0  0  0
 12 11  2  0  0  0  0
 12 13  1  0  0  0  0
 13 14  2  0  0  0  0
 14 15  1  0  0  0  0
 15  2  1  0  0  0  0
 16 15  2  0  0  0  0
 17 11  1  0  0  0  0
 18 13  1  0  0  0  0
 19 25  1  0  0  0  0
 19 12  1  0  0  0  0
 20 19  1  0  0  0  0
 21 22  1  0  0  0  0
 21 20  2  0  0  0  0
 22 24  1  0  0  0  0
 23 22  2  0  0  0  0
 24 29  1  0  0  0  0
 24 25  1  0  0  0  0
 25 26  2  0  0  0  0
 27 20  1  0  0  0  0
 28 21  1  0  0  0  0
 30 33  1  0  0  0  0
 30 32  2  0  0  0  0
 31 30  2  0  0  0  0
 33 44  1  0  0  0  0
 34 36  1  0  0  0  0
 34 33  2  0  0  0  0
 35 34  1  0  0  0  0
 36 37  2  0  0  0  0
 37 38  1  0  0  0  0
 37 43  1  0  0  0  0
 38 39  2  0  0  0  0
 39 40  1  0  0  0  0
 39 41  1  0  0  0  0
 42 41  2  0  0  0  0
 43 42  1  0  0  0  0
 44 43  2  0  0  0  0
M  END
>  <minimizedAffinity>
-6.43940973

$$$$

 OpenBabel03212520333D

 44 48  0  0  0  0  0  0  0  0999 V2000
   41.5540   75.2940   58.8010 C   0  0  0  0  0  0  0  0  0  0  0  0
   40.4610   74.9010   58.0430 C   0  0  0  0  0  0  0  0  0  0  0  0
   39.3110   75.6620   58.0030 C   0  0  0  0  0  0  0  0  0  0  0  0
   39.1740   76.8570   58.7100 C   0  0  0  0  0  0  0  0  0  0  0  0
   40.2400   77.2690   59.4680 C   0  0  0  0  0  0  0  0  0  0  0  0
   41.3930   76.5050   59.5060 C   0  0  0  0  0  0  0  0  0  0  0  0
   38.4770   75.3220   57.4000 H   0  0  0  0  0  0  0  0  0  0  0  0
   38.2330   77.3800   58.6150 H   0  0  0  0  0  0  0  0  0  0  0  0
   40.1650   78.1830   60.0220 H   0  0  0  0  0  0  0  0  0  0  0  0
   42.2320   76.8380   60.1080 H   0  0  0  0  0  0  0  0  0  0  0  0
   39.9800   71.4320   56.8690 C   0  0  0  0  0  0  0  0  0  0  0  0
   40.6390   71.4340   55.6560 C   0  0  0  0  0  0  0  0  0  0  0  0
   41.2370   72.6370   55.2690 C   0  0  0  0  0  0  0  0  0  0  0  0
   41.1430   73.7240   56.0920 N   0  0  0  0  0  0  0  0  0  0  0  0
   40.5020   73.6810   57.2470 C   0  0  0  0  0  0  0  0  0  0  0  0
   39.9260   72.5320   57.6220 N   0  0  0  0  0  0  0  0  0  0  0  0
   39.5120   70.4950   57.1730 H   0  0  0  0  0  0  0  0  0  0  0  0
   41.7630   72.6890   54.3340 H   0  0  0  0  0  0  0  0  0  0  0  0
   40.7050   70.2750   54.8400 N   0  0  0  0  0  0  0  0  0  0  0  0
   41.3400   69.2500   55.4270 C   0  0  0  0  0  0  0  0  0  0  0  0
   41.4550   68.0620   54.6940 C   0  0  0  0  0  0  0  0  0  0  0  0
   40.9250   67.9780   53.4190 C   0  0  0  0  0  0  0  0  0  0  0  0
   40.9890   66.9470   52.7050 O   0  0  0  0  0  0  0  0  0  0  0  0
   40.2950   69.0680   52.9030 N   0  0  0  0  0  0  0  0  0  0  0  0
   40.1770   70.2270   53.6040 C   0  0  0  0  0  0  0  0  0  0  0  0
   39.6020   71.2310   53.1370 O   0  0  0  0  0  0  0  0  0  0  0  0
   41.7650   69.2680   56.4050 H   0  0  0  0  0  0  0  0  0  0  0  0
   41.9370   67.1890   55.0610 H   0  0  0  0  0  0  0  0  0  0  0  0
   39.8740   69.0840   51.9600 H   0  0  0  0  0  0  0  0  0  0  0  0
   43.0030   74.3630   58.8820 S   0  0  0  0  0  0  0  0  0  0  0  0
   44.0040   75.0460   59.7890 O   0  0  0  0  0  0  0  0  0  0  0  0
   43.6610   74.4600   57.5000 O   0  0  0  0  0  0  0  0  0  0  0  0
   42.8920   72.7350   59.4150 C   0  0  0  0  0  0  0  0  0  0  0  0
   43.1040   71.4710   58.8620 C   0  0  0  0  0  0  0  0  0  0  0  0
   43.4160   71.6480   57.8240 H   0  0  0  0  0  0  0  0  0  0  0  0
   42.9340   70.2910   59.5420 C   0  0  0  0  0  3  0  0  0  0  0  0
   42.5300   70.3040   60.8570 C   0  0  0  0  0  0  0  0  0  0  0  0
   42.3990   69.0950   61.4130 N   0  0  0  0  0  0  0  0  0  0  0  0
   42.0060   69.0120   62.7050 C   0  0  0  0  0  0  0  0  0  0  0  0
   41.8840   68.0740   63.2040 H   0  0  0  0  0  0  0  0  0  0  0  0
   41.7610   70.1880   63.3780 C   0  0  0  0  0  3  0  0  0  0  0  0
   41.9050   71.4220   62.7810 C   0  0  0  0  0  3  0  0  0  0  0  0
   42.3040   71.5210   61.4650 C   0  0  0  0  0  0  0  0  0  0  0  0
   42.4840   72.7130   60.7510 C   0  0  0  0  0  3  0  0  0  0  0  0
  1 30  1  0  0  0  0
  1  6  1  0  0  0  0
  2  1  2  0  0  0  0
  3  2  1  0  0  0  0
  3  4  2  0  0  0  0
  4  5  1  0  0  0  0
  5  6  2  0  0  0  0
  5  9  1  0  0  0  0
  6 10  1  0  0  0  0
  7  3  1  0  0  0  0
  8  4  1  0  0  0  0
 11 17  1  0  0  0  0
 11 16  1  0  0  0  0
 12 11  2  0  0  0  0
 13 12  1  0  0  0  0
 13 14  2  0  0  0  0
 14 15  1  0  0  0  0
 15 16  2  0  0  0  0
 15  2  1  0  0  0  0
 18 13  1  0  0  0  0
 19 20  1  0  0  0  0
 19 12  1  0  0  0  0
 20 27  1  0  0  0  0
 21 28  1  0  0  0  0
 21 20  2  0  0  0  0
 22 21  1  0  0  0  0
 23 22  2  0  0  0  0
 24 22  1  0  0  0  0
 24 25  1  0  0  0  0
 25 19  1  0  0  0  0
 26 25  2  0  0  0  0
 29 24  1  0  0  0  0
 30 33  1  0  0  0  0
 30 31  2  0  0  0  0
 32 30  2  0  0  0  0
 33 44  1  0  0  0  0
 34 33  2  0  0  0  0
 34 36  1  0  0  0  0
 35 34  1  0  0  0  0
 36 37  2  0  0  0  0
 37 38  1  0  0  0  0
 37 43  1  0  0  0  0
 38 39  2  0  0  0  0
 39 40  1  0  0  0  0
 39 41  1  0  0  0  0
 42 41  2  0  0  0  0
 43 42  1  0  0  0  0
 44 43  2  0  0  0  0
M  END
>  <minimizedAffinity>
-6.428092

$$$$

 OpenBabel03212520333D

 44 48  0  0  0  0  0  0  0  0999 V2000
   42.4790   71.4650   60.1450 C   0  0  0  0  0  0  0  0  0  0  0  0
   41.2830   72.1400   60.3440 C   0  0  0  0  0  0  0  0  0  0  0  0
   40.7280   72.2510   61.6030 C   0  0  0  0  0  0  0  0  0  0  0  0
   41.3230   71.7010   62.7390 C   0  0  0  0  0  0  0  0  0  0  0  0
   42.5060   71.0290   62.5700 C   0  0  0  0  0  0  0  0  0  0  0  0
   43.0610   70.9190   61.3080 C   0  0  0  0  0  0  0  0  0  0  0  0
   39.7920   72.7850   61.7190 H   0  0  0  0  0  0  0  0  0  0  0  0
   40.8100   71.8410   63.6790 H   0  0  0  0  0  0  0  0  0  0  0  0
   42.9870   70.5960   63.4240 H   0  0  0  0  0  0  0  0  0  0  0  0
   43.9980   70.3860   61.1830 H   0  0  0  0  0  0  0  0  0  0  0  0
   40.1640   74.5770   57.8030 C   0  0  0  0  0  0  0  0  0  0  0  0
   39.2100   73.8640   57.1070 C   0  0  0  0  0  0  0  0  0  0  0  0
   38.9710   72.5540   57.5320 C   0  0  0  0  0  0  0  0  0  0  0  0
   39.6780   72.0560   58.5900 N   0  0  0  0  0  0  0  0  0  0  0  0
   40.5860   72.7730   59.2310 C   0  0  0  0  0  0  0  0  0  0  0  0
   40.8190   74.0270   58.8290 N   0  0  0  0  0  0  0  0  0  0  0  0
   40.3530   75.5990   57.4730 H   0  0  0  0  0  0  0  0  0  0  0  0
   38.2370   71.9580   57.0230 H   0  0  0  0  0  0  0  0  0  0  0  0
   38.5060   74.4300   56.0130 N   0  0  0  0  0  0  0  0  0  0  0  0
   39.0650   74.1570   54.8250 C   0  0  0  0  0  0  0  0  0  0  0  0
   38.4380   74.6760   53.6860 C   0  0  0  0  0  0  0  0  0  0  0  0
   37.2880   75.4360   53.8100 C   0  0  0  0  0  0  0  0  0  0  0  0
   36.6720   75.9320   52.8360 O   0  0  0  0  0  0  0  0  0  0  0  0
   36.7890   75.6610   55.0560 N   0  0  0  0  0  0  0  0  0  0  0  0
   37.3890   75.1630   56.1700 C   0  0  0  0  0  0  0  0  0  0  0  0
   36.9380   75.3660   57.3150 O   0  0  0  0  0  0  0  0  0  0  0  0
   39.9490   73.5780   54.6790 H   0  0  0  0  0  0  0  0  0  0  0  0
   38.7940   74.5230   52.6960 H   0  0  0  0  0  0  0  0  0  0  0  0
   35.9370   76.2170   55.2320 H   0  0  0  0  0  0  0  0  0  0  0  0
   43.1950   71.2990   58.5850 S   0  0  0  0  0  0  0  0  0  0  0  0
   44.6320   70.8430   58.7250 O   0  0  0  0  0  0  0  0  0  0  0  0
   43.3310   72.7170   58.0160 O   0  0  0  0  0  0  0  0  0  0  0  0
   42.4530   70.2360   57.4610 C   0  0  0  0  0  0  0  0  0  0  0  0
   42.1100   68.8830   57.4200 C   0  0  0  0  0  0  0  0  0  0  0  0
   42.4300   68.4640   58.3840 H   0  0  0  0  0  0  0  0  0  0  0  0
   41.5010   68.2720   56.3540 C   0  0  0  0  0  3  0  0  0  0  0  0
   41.1860   68.9980   55.2290 C   0  0  0  0  0  0  0  0  0  0  0  0
   40.5950   68.2960   54.2570 N   0  0  0  0  0  0  0  0  0  0  0  0
   40.2500   68.9300   53.1130 C   0  0  0  0  0  0  0  0  0  0  0  0
   39.7740   68.4220   52.3010 H   0  0  0  0  0  0  0  0  0  0  0  0
   40.5280   70.2750   53.0160 C   0  0  0  0  0  3  0  0  0  0  0  0
   41.1380   70.9770   54.0340 C   0  0  0  0  0  3  0  0  0  0  0  0
   41.4960   70.3420   55.2040 C   0  0  0  0  0  0  0  0  0  0  0  0
   42.1190   70.9450   56.3050 C   0  0  0  0  0  3  0  0  0  0  0  0
  1  2  2  0  0  0  0
  1  6  1  0  0  0  0
  2  3  1  0  0  0  0
  3  7  1  0  0  0  0
  3  4  2  0  0  0  0
  4  8  1  0  0  0  0
  5  4  1  0  0  0  0
  5  9  1  0  0  0  0
  6  5  2  0  0  0  0
 10  6  1  0  0  0  0
 11 16  1  0  0  0  0
 12 13  1  0  0  0  0
 12 11  2  0  0  0  0
 13 14  2  0  0  0  0
 14 15  1  0  0  0  0
 15  2  1  0  0  0  0
 16 15  2  0  0  0  0
 17 11  1  0  0  0  0
 18 13  1  0  0  0  0
 19 25  1  0  0  0  0
 19 12  1  0  0  0  0
 20 19  1  0  0  0  0
 21 22  1  0  0  0  0
 21 20  2  0  0  0  0
 22 24  1  0  0  0  0
 23 22  2  0  0  0  0
 24 29  1  0  0  0  0
 24 25  1  0  0  0  0
 25 26  2  0  0  0  0
 27 20  1  0  0  0  0
 28 21  1  0  0  0  0
 30 31  2  0  0  0  0
 30  1  1  0  0  0  0
 32 30  2  0  0  0  0
 33 30  1  0  0  0  0
 34 33  1  0  0  0  0
 34 35  1  0  0  0  0
 36 34  2  0  0  0  0
 37 36  1  0  0  0  0
 38 37  2  0  0  0  0
 39 38  1  0  0  0  0
 40 39  1  0  0  0  0
 41 39  2  0  0  0  0
 41 42  1  0  0  0  0
 42 43  2  0  0  0  0
 43 37  1  0  0  0  0
 43 44  1  0  0  0  0
 44 33  2  0  0  0  0
M  END
>  <minimizedAffinity>
-6.37875891

$$$$

 OpenBabel03212520333D

 44 48  0  0  0  0  0  0  0  0999 V2000
   42.4250   68.7380   55.5760 C   0  0  0  0  0  0  0  0  0  0  0  0
   41.3040   69.5250   55.3540 C   0  0  0  0  0  0  0  0  0  0  0  0
   40.4770   69.2970   54.2740 C   0  0  0  0  0  0  0  0  0  0  0  0
   40.7080   68.2780   53.3500 C   0  0  0  0  0  0  0  0  0  0  0  0
   41.8100   67.4840   53.5470 C   0  0  0  0  0  0  0  0  0  0  0  0
   42.6380   67.7140   54.6310 C   0  0  0  0  0  0  0  0  0  0  0  0
   39.6110   69.9340   54.1320 H   0  0  0  0  0  0  0  0  0  0  0  0
   40.0030   68.1810   52.5370 H   0  0  0  0  0  0  0  0  0  0  0  0
   42.0140   66.6930   52.8530 H   0  0  0  0  0  0  0  0  0  0  0  0
   43.5070   67.0820   54.7790 H   0  0  0  0  0  0  0  0  0  0  0  0
   41.0300   72.8350   56.9710 C   0  0  0  0  0  0  0  0  0  0  0  0
   40.2240   72.5690   58.0590 C   0  0  0  0  0  0  0  0  0  0  0  0
   39.7920   71.2480   58.2120 C   0  0  0  0  0  0  0  0  0  0  0  0
   40.1800   70.3090   57.2980 N   0  0  0  0  0  0  0  0  0  0  0  0
   40.9540   70.6050   56.2680 C   0  0  0  0  0  0  0  0  0  0  0  0
   41.3710   71.8680   56.1160 N   0  0  0  0  0  0  0  0  0  0  0  0
   41.3680   73.8650   56.8500 H   0  0  0  0  0  0  0  0  0  0  0  0
   39.1630   70.9900   59.0440 H   0  0  0  0  0  0  0  0  0  0  0  0
   39.8500   73.5830   58.9770 N   0  0  0  0  0  0  0  0  0  0  0  0
   40.6870   73.6890   60.0200 C   0  0  0  0  0  0  0  0  0  0  0  0
   40.3960   74.6660   60.9800 C   0  0  0  0  0  0  0  0  0  0  0  0
   39.2830   75.4750   60.8340 C   0  0  0  0  0  0  0  0  0  0  0  0
   38.9610   76.3710   61.6520 O   0  0  0  0  0  0  0  0  0  0  0  0
   38.4890   75.2980   59.7430 N   0  0  0  0  0  0  0  0  0  0  0  0
   38.7610   74.3540   58.8030 C   0  0  0  0  0  0  0  0  0  0  0  0
   38.0370   74.1850   57.8020 O   0  0  0  0  0  0  0  0  0  0  0  0
   41.5540   73.0900   60.1760 H   0  0  0  0  0  0  0  0  0  0  0  0
   40.9900   74.8370   61.8450 H   0  0  0  0  0  0  0  0  0  0  0  0
   37.6420   75.8610   59.5630 H   0  0  0  0  0  0  0  0  0  0  0  0
   43.4870   69.0010   56.9100 S   0  0  0  0  0  0  0  0  0  0  0  0
   44.0550   70.4030   56.8470 O   0  0  0  0  0  0  0  0  0  0  0  0
   44.7150   68.1150   56.6690 O   0  0  0  0  0  0  0  0  0  0  0  0
   42.8620   68.7980   58.4960 C   0  0  0  0  0  0  0  0  0  0  0  0
   42.1990   67.7930   59.2030 C   0  0  0  0  0  0  0  0  0  0  0  0
   42.0840   66.9580   58.4980 H   0  0  0  0  0  0  0  0  0  0  0  0
   41.8010   67.9020   60.5110 C   0  0  0  0  0  3  0  0  0  0  0  0
   42.0500   69.0570   61.2150 C   0  0  0  0  0  0  0  0  0  0  0  0
   41.6170   69.0460   62.4790 N   0  0  0  0  0  0  0  0  0  0  0  0
   41.8200   70.1420   63.2470 C   0  0  0  0  0  0  0  0  0  0  0  0
   41.4970   70.1920   64.2660 H   0  0  0  0  0  0  0  0  0  0  0  0
   42.4670   71.2140   62.6760 C   0  0  0  0  0  3  0  0  0  0  0  0
   42.9050   71.1990   61.3690 C   0  0  0  0  0  3  0  0  0  0  0  0
   42.7040   70.0900   60.5760 C   0  0  0  0  0  0  0  0  0  0  0  0
   43.1010   69.9570   59.2390 C   0  0  0  0  0  3  0  0  0  0  0  0
  1 30  1  0  0  0  0
  2  1  1  0  0  0  0
  2 15  1  0  0  0  0
  3  2  2  0  0  0  0
  4  5  2  0  0  0  0
  4  3  1  0  0  0  0
  5  6  1  0  0  0  0
  6 10  1  0  0  0  0
  6  1  2  0  0  0  0
  7  3  1  0  0  0  0
  8  4  1  0  0  0  0
  9  5  1  0  0  0  0
 11 12  1  0  0  0  0
 12 13  2  0  0  0  0
 12 19  1  0  0  0  0
 13 18  1  0  0  0  0
 14 13  1  0  0  0  0
 15 14  2  0  0  0  0
 16 15  1  0  0  0  0
 16 11  2  0  0  0  0
 17 11  1  0  0  0  0
 19 20  1  0  0  0  0
 20 27  1  0  0  0  0
 20 21  2  0  0  0  0
 21 28  1  0  0  0  0
 22 21  1  0  0  0  0
 22 23  2  0  0  0  0
 24 22  1  0  0  0  0
 25 19  1  0  0  0  0
 25 24  1  0  0  0  0
 26 25  2  0  0  0  0
 29 24  1  0  0  0  0
 30 33  1  0  0  0  0
 31 30  2  0  0  0  0
 32 30  2  0  0  0  0
 33 34  2  0  0  0  0
 33 44  1  0  0  0  0
 34 36  1  0  0  0  0
 35 34  1  0  0  0  0
 36 37  2  0  0  0  0
 37 38  1  0  0  0  0
 38 39  2  0  0  0  0
 39 40  1  0  0  0  0
 41 39  1  0  0  0  0
 42 41  2  0  0  0  0
 43 37  1  0  0  0  0
 43 42  1  0  0  0  0
 44 43  2  0  0  0  0
M  END
>  <minimizedAffinity>
-6.35744858

$$$$
