
 OpenBabel03212521013D

 45 50  0  0  1  0  0  0  0  0999 V2000
   41.9030   74.7710   59.5440 C   0  0  0  0  0  0  0  0  0  0  0  0
   43.1930   75.0450   59.1750 C   0  0  0  0  0  0  0  0  0  0  0  0
   44.1260   74.2250   59.8370 C   0  0  0  0  0  0  0  0  0  0  0  0
   43.8020   73.2760   60.7320 N   0  0  0  0  0  0  0  0  0  0  0  0
   42.4820   73.0790   61.0320 C   0  0  0  0  0  0  0  0  0  0  0  0
   41.5520   73.8380   60.4260 N   0  0  0  0  0  0  0  0  0  0  0  0
   43.4960   75.7910   58.4660 H   0  0  0  0  0  0  0  0  0  0  0  0
   45.1920   74.3740   59.6040 H   0  0  0  0  0  0  0  0  0  0  0  0
   39.2080   76.7200   57.2010 C   0  0  0  0  0  0  0  0  0  0  0  0
   38.9140   76.8230   58.5350 C   0  0  0  0  0  0  0  0  0  0  0  0
   39.7260   76.2280   59.4210 C   0  0  0  0  0  0  0  0  0  0  0  0
   40.8320   75.5280   58.9520 C   0  0  0  0  0  0  0  0  0  0  0  0
   40.7250   75.7230   57.1210 S   0  0  0  0  0  0  0  0  0  0  0  0
   38.0350   77.3750   58.9020 H   0  0  0  0  0  0  0  0  0  0  0  0
   39.6650   76.1960   60.5020 H   0  0  0  0  0  0  0  0  0  0  0  0
   38.3790   78.4740   54.0870 C   0  0  0  0  0  0  0  0  0  0  0  0
   36.9770   78.4830   54.0910 C   0  0  0  0  0  0  0  0  0  0  0  0
   36.3020   77.8870   55.1670 C   0  0  0  0  0  0  0  0  0  0  0  0
   37.0520   77.3320   56.1430 N   0  0  0  0  0  0  0  0  0  0  0  0
   38.4010   77.3360   56.1140 C   0  0  0  0  0  0  0  0  0  0  0  0
   39.0520   77.9020   55.0950 N   0  0  0  0  0  0  0  0  0  0  0  0
   38.9290   78.9310   53.2660 H   0  0  0  0  0  0  0  0  0  0  0  0
   36.4000   78.9320   53.2980 H   0  0  0  0  0  0  0  0  0  0  0  0
   35.2270   77.8500   55.2500 H   0  0  0  0  0  0  0  0  0  0  0  0
   42.1580   72.0480   61.9950 C   0  0  0  0  0  0  0  0  0  0  0  0
   41.3120   72.3290   62.8630 O   0  0  0  0  0  0  0  0  0  0  0  0
   42.8150   70.6850   61.9680 C   0  0  1  0  0  0  0  0  0  0  0  0
   42.4810   69.8690   63.1980 C   0  0  0  0  0  0  0  0  0  0  0  0
   42.0060   69.5030   61.8290 C   0  0  2  0  0  0  0  0  0  0  0  0
   43.9290   70.7750   61.8450 H   0  0  0  0  0  0  0  0  0  0  0  0
   41.7990   70.2900   63.9510 H   0  0  0  0  0  0  0  0  0  0  0  0
   43.2970   69.2820   63.6440 H   0  0  0  0  0  0  0  0  0  0  0  0
   40.9020   69.6790   61.7130 H   0  0  0  0  0  0  0  0  0  0  0  0
   42.4320   68.1800   61.3750 C   0  0  0  0  0  0  0  0  0  0  0  0
   41.6860   67.1310   61.8790 C   0  0  0  0  0  0  0  0  0  0  0  0
   40.8340   67.2810   62.5640 H   0  0  0  0  0  0  0  0  0  0  0  0
   41.9160   65.7930   61.5860 C   0  0  0  0  0  3  0  0  0  0  0  0
   42.9770   65.5850   60.7310 C   0  0  0  0  0  0  0  0  0  0  0  0
   43.2350   64.2780   60.4310 N   0  0  0  0  0  0  0  0  0  0  0  0
   44.2530   63.9480   59.6090 C   0  0  0  0  0  0  0  0  0  0  0  0
   44.4220   62.8990   59.4000 H   0  0  0  0  0  0  0  0  0  0  0  0
   45.0770   64.9240   59.0370 C   0  0  0  0  0  3  0  0  0  0  0  0
   44.8310   66.2700   59.3310 C   0  0  0  0  0  3  0  0  0  0  0  0
   43.7860   66.5510   60.1690 C   0  0  0  0  0  0  0  0  0  0  0  0
   43.4860   67.8690   60.5160 C   0  0  0  0  0  3  0  0  0  0  0  0
  1  6  1  0  0  0  0
  2  1  2  0  0  0  0
  2  3  1  0  0  0  0
  3  4  2  0  0  0  0
  4  5  1  0  0  0  0
  5 25  1  0  0  0  0
  6  5  2  0  0  0  0
  7  2  1  0  0  0  0
  8  3  1  0  0  0  0
  9 10  2  0  0  0  0
 10 14  1  0  0  0  0
 10 11  1  0  0  0  0
 11 15  1  0  0  0  0
 12 11  2  0  0  0  0
 12  1  1  0  0  0  0
 13  9  1  0  0  0  0
 13 12  1  0  0  0  0
 16 17  2  0  0  0  0
 16 21  1  0  0  0  0
 17 18  1  0  0  0  0
 18 24  1  0  0  0  0
 18 19  2  0  0  0  0
 20 19  1  0  0  0  0
 20  9  1  0  0  0  0
 21 20  2  0  0  0  0
 22 16  1  0  0  0  0
 23 17  1  0  0  0  0
 25 26  2  0  0  0  0
 27 30  1  6  0  0  0
 27 25  1  0  0  0  0
 27 28  1  0  0  0  0
 28 32  1  0  0  0  0
 28 31  1  0  0  0  0
 29 33  1  6  0  0  0
 29 27  1  0  0  0  0
 29 28  1  0  0  0  0
 34 29  1  0  0  0  0
 34 35  1  0  0  0  0
 35 36  1  0  0  0  0
 37 35  2  0  0  0  0
 38 37  1  0  0  0  0
 39 38  1  0  0  0  0
 40 39  2  0  0  0  0
 41 40  1  0  0  0  0
 42 43  2  0  0  0  0
 42 40  1  0  0  0  0
 43 44  1  0  0  0  0
 44 45  1  0  0  0  0
 44 38  2  0  0  0  0
 45 34  2  0  0  0  0
M  END
>  <minimizedAffinity>
-7.60733175

$$$$

 OpenBabel03212521013D

 45 50  0  0  1  0  0  0  0  0999 V2000
   39.1900   76.4490   58.7960 C   0  0  0  0  0  0  0  0  0  0  0  0
   39.7750   77.6600   59.0560 C   0  0  0  0  0  0  0  0  0  0  0  0
   39.4190   78.6410   58.1120 C   0  0  0  0  0  0  0  0  0  0  0  0
   38.5990   78.4300   57.0700 N   0  0  0  0  0  0  0  0  0  0  0  0
   38.0630   77.1830   56.8980 C   0  0  0  0  0  0  0  0  0  0  0  0
   38.3730   76.2100   57.7720 N   0  0  0  0  0  0  0  0  0  0  0  0
   40.4350   77.8720   59.8750 H   0  0  0  0  0  0  0  0  0  0  0  0
   39.8440   79.6490   58.2400 H   0  0  0  0  0  0  0  0  0  0  0  0
   40.6210   73.2840   60.9140 C   0  0  0  0  0  0  0  0  0  0  0  0
   39.3710   73.6660   61.3230 C   0  0  0  0  0  0  0  0  0  0  0  0
   38.7780   74.6980   60.7050 C   0  0  0  0  0  0  0  0  0  0  0  0
   39.4560   75.3420   59.6750 C   0  0  0  0  0  0  0  0  0  0  0  0
   41.0520   74.4220   59.5640 S   0  0  0  0  0  0  0  0  0  0  0  0
   38.8390   73.1570   62.1410 H   0  0  0  0  0  0  0  0  0  0  0  0
   37.8070   75.1440   60.8800 H   0  0  0  0  0  0  0  0  0  0  0  0
   41.6860   70.7070   63.2980 C   0  0  0  0  0  0  0  0  0  0  0  0
   42.7590   70.0880   62.6390 C   0  0  0  0  0  0  0  0  0  0  0  0
   43.1260   70.5520   61.3670 C   0  0  0  0  0  0  0  0  0  0  0  0
   42.4170   71.5780   60.8480 N   0  0  0  0  0  0  0  0  0  0  0  0
   41.3890   72.1540   61.5040 C   0  0  0  0  0  0  0  0  0  0  0  0
   41.0310   71.7200   62.7140 N   0  0  0  0  0  0  0  0  0  0  0  0
   41.3790   70.3680   64.2860 H   0  0  0  0  0  0  0  0  0  0  0  0
   43.3090   69.2700   63.0750 H   0  0  0  0  0  0  0  0  0  0  0  0
   43.9380   70.1350   60.7920 H   0  0  0  0  0  0  0  0  0  0  0  0
   37.1780   76.9800   55.7700 C   0  0  0  0  0  0  0  0  0  0  0  0
   36.1980   77.7420   55.6750 O   0  0  0  0  0  0  0  0  0  0  0  0
   37.4110   75.8880   54.7480 C   0  0  1  0  0  0  0  0  0  0  0  0
   38.1530   76.3980   53.5310 C   0  0  0  0  0  0  0  0  0  0  0  0
   38.7480   75.4210   54.4940 C   0  0  2  0  0  0  0  0  0  0  0  0
   36.4440   75.4030   54.4460 H   0  0  0  0  0  0  0  0  0  0  0  0
   38.4760   77.4480   53.5030 H   0  0  0  0  0  0  0  0  0  0  0  0
   37.8170   76.0300   52.5520 H   0  0  0  0  0  0  0  0  0  0  0  0
   39.5570   75.8940   55.1160 H   0  0  0  0  0  0  0  0  0  0  0  0
   39.1480   74.1500   53.8930 C   0  0  0  0  0  0  0  0  0  0  0  0
   39.2380   74.1680   52.5140 C   0  0  0  0  0  0  0  0  0  0  0  0
   39.0300   75.0710   51.9150 H   0  0  0  0  0  0  0  0  0  0  0  0
   39.5960   73.0740   51.7360 C   0  0  0  0  0  3  0  0  0  0  0  0
   39.8620   71.9350   52.4670 C   0  0  0  0  0  0  0  0  0  0  0  0
   40.2080   70.8390   51.7300 N   0  0  0  0  0  0  0  0  0  0  0  0
   40.4850   69.6640   52.3320 C   0  0  0  0  0  0  0  0  0  0  0  0
   40.7530   68.8200   51.7090 H   0  0  0  0  0  0  0  0  0  0  0  0
   40.4280   69.5240   53.7250 C   0  0  0  0  0  3  0  0  0  0  0  0
   40.0760   70.6350   54.4980 C   0  0  0  0  0  3  0  0  0  0  0  0
   39.8050   71.8040   53.8390 C   0  0  0  0  0  0  0  0  0  0  0  0
   39.4380   72.9500   54.5430 C   0  0  0  0  0  3  0  0  0  0  0  0
  1  2  1  0  0  0  0
  1 12  1  0  0  0  0
  2  7  1  0  0  0  0
  3  8  1  0  0  0  0
  3  2  2  0  0  0  0
  4  3  1  0  0  0  0
  5  4  2  0  0  0  0
  5  6  1  0  0  0  0
  6  1  2  0  0  0  0
  9 10  2  0  0  0  0
  9 20  1  0  0  0  0
 10 14  1  0  0  0  0
 11 15  1  0  0  0  0
 11 10  1  0  0  0  0
 12 11  2  0  0  0  0
 13 12  1  0  0  0  0
 13  9  1  0  0  0  0
 16 22  1  0  0  0  0
 17 23  1  0  0  0  0
 17 16  2  0  0  0  0
 18 17  1  0  0  0  0
 19 18  2  0  0  0  0
 19 20  1  0  0  0  0
 20 21  2  0  0  0  0
 21 16  1  0  0  0  0
 24 18  1  0  0  0  0
 25  5  1  0  0  0  0
 26 25  2  0  0  0  0
 27 30  1  6  0  0  0
 27 25  1  0  0  0  0
 28 29  1  0  0  0  0
 28 27  1  0  0  0  0
 29 27  1  0  0  0  0
 29 33  1  1  0  0  0
 31 28  1  0  0  0  0
 32 28  1  0  0  0  0
 34 29  1  0  0  0  0
 34 45  1  0  0  0  0
 35 34  2  0  0  0  0
 36 35  1  0  0  0  0
 37 38  2  0  0  0  0
 37 35  1  0  0  0  0
 38 44  1  0  0  0  0
 39 40  2  0  0  0  0
 39 38  1  0  0  0  0
 40 42  1  0  0  0  0
 41 40  1  0  0  0  0
 42 43  2  0  0  0  0
 44 43  1  0  0  0  0
 44 45  2  0  0  0  0
M  END
>  <minimizedAffinity>
-7.53544855

$$$$

 OpenBabel03212521013D

 45 50  0  0  1  0  0  0  0  0999 V2000
   39.2980   77.1210   58.2840 C   0  0  0  0  0  0  0  0  0  0  0  0
   39.8440   78.1880   58.9480 C   0  0  0  0  0  0  0  0  0  0  0  0
   40.1350   77.8920   60.2920 C   0  0  0  0  0  0  0  0  0  0  0  0
   39.9110   76.7010   60.8740 N   0  0  0  0  0  0  0  0  0  0  0  0
   39.3630   75.6980   60.1240 C   0  0  0  0  0  0  0  0  0  0  0  0
   39.0650   75.9300   58.8330 N   0  0  0  0  0  0  0  0  0  0  0  0
   40.0390   79.1540   58.5230 H   0  0  0  0  0  0  0  0  0  0  0  0
   40.5770   78.6920   60.9060 H   0  0  0  0  0  0  0  0  0  0  0  0
   38.6900   76.8750   54.2700 C   0  0  0  0  0  0  0  0  0  0  0  0
   38.0900   77.9740   54.8240 C   0  0  0  0  0  0  0  0  0  0  0  0
   38.2140   78.1790   56.1440 C   0  0  0  0  0  0  0  0  0  0  0  0
   38.9450   77.2670   56.8980 C   0  0  0  0  0  0  0  0  0  0  0  0
   39.5050   76.0240   55.6540 S   0  0  0  0  0  0  0  0  0  0  0  0
   37.5090   78.6920   54.2250 H   0  0  0  0  0  0  0  0  0  0  0  0
   37.8200   78.9770   56.7600 H   0  0  0  0  0  0  0  0  0  0  0  0
   38.5080   77.2880   50.6290 C   0  0  0  0  0  0  0  0  0  0  0  0
   38.5440   75.9670   50.1570 C   0  0  0  0  0  0  0  0  0  0  0  0
   38.6300   74.9210   51.0880 C   0  0  0  0  0  0  0  0  0  0  0  0
   38.6760   75.2520   52.3960 N   0  0  0  0  0  0  0  0  0  0  0  0
   38.6400   76.5320   52.8230 C   0  0  0  0  0  0  0  0  0  0  0  0
   38.5570   77.5340   51.9450 N   0  0  0  0  0  0  0  0  0  0  0  0
   38.4400   78.1190   49.9290 H   0  0  0  0  0  0  0  0  0  0  0  0
   38.5070   75.7280   49.1060 H   0  0  0  0  0  0  0  0  0  0  0  0
   38.6620   73.8780   50.8120 H   0  0  0  0  0  0  0  0  0  0  0  0
   39.1350   74.4220   60.7700 C   0  0  0  0  0  0  0  0  0  0  0  0
   38.0890   74.3020   61.4340 O   0  0  0  0  0  0  0  0  0  0  0  0
   40.1200   73.2780   60.6640 C   0  0  1  0  0  0  0  0  0  0  0  0
   41.5530   73.7630   60.6170 C   0  0  0  0  0  0  0  0  0  0  0  0
   40.9980   72.9850   61.7660 C   0  0  2  0  0  0  0  0  0  0  0  0
   39.8940   72.6290   59.7740 H   0  0  0  0  0  0  0  0  0  0  0  0
   41.7550   74.8410   60.6950 H   0  0  0  0  0  0  0  0  0  0  0  0
   42.2290   73.2520   59.9170 H   0  0  0  0  0  0  0  0  0  0  0  0
   40.8680   73.6300   62.6780 H   0  0  0  0  0  0  0  0  0  0  0  0
   41.6970   71.7310   62.0400 C   0  0  0  0  0  0  0  0  0  0  0  0
   42.6010   71.3520   61.0650 C   0  0  0  0  0  0  0  0  0  0  0  0
   42.7850   71.9500   60.1570 H   0  0  0  0  0  0  0  0  0  0  0  0
   43.3710   70.1970   61.1160 C   0  0  0  0  0  3  0  0  0  0  0  0
   43.1570   69.4350   62.2450 C   0  0  0  0  0  0  0  0  0  0  0  0
   43.8930   68.2870   62.3200 N   0  0  0  0  0  0  0  0  0  0  0  0
   43.7660   67.4550   63.3750 C   0  0  0  0  0  0  0  0  0  0  0  0
   44.3680   66.5550   63.3920 H   0  0  0  0  0  0  0  0  0  0  0  0
   42.8820   67.7340   64.4250 C   0  0  0  0  0  3  0  0  0  0  0  0
   42.1190   68.9050   64.3670 C   0  0  0  0  0  3  0  0  0  0  0  0
   42.2860   69.7150   63.2770 C   0  0  0  0  0  0  0  0  0  0  0  0
   41.5510   70.8940   63.1460 C   0  0  0  0  0  3  0  0  0  0  0  0
  1  6  2  0  0  0  0
  1  2  1  0  0  0  0
  2  3  2  0  0  0  0
  3  4  1  0  0  0  0
  3  8  1  0  0  0  0
  5 25  1  0  0  0  0
  5  4  2  0  0  0  0
  6  5  1  0  0  0  0
  7  2  1  0  0  0  0
  9 10  2  0  0  0  0
  9 13  1  0  0  0  0
 10 11  1  0  0  0  0
 11 15  1  0  0  0  0
 11 12  2  0  0  0  0
 12  1  1  0  0  0  0
 13 12  1  0  0  0  0
 14 10  1  0  0  0  0
 16 21  1  0  0  0  0
 17 16  2  0  0  0  0
 17 18  1  0  0  0  0
 18 19  2  0  0  0  0
 19 20  1  0  0  0  0
 20  9  1  0  0  0  0
 21 20  2  0  0  0  0
 22 16  1  0  0  0  0
 23 17  1  0  0  0  0
 24 18  1  0  0  0  0
 25 26  2  0  0  0  0
 27 30  1  6  0  0  0
 27 25  1  0  0  0  0
 27 29  1  0  0  0  0
 28 27  1  0  0  0  0
 28 31  1  0  0  0  0
 28 29  1  0  0  0  0
 29 34  1  0  0  0  0
 29 33  1  1  0  0  0
 32 28  1  0  0  0  0
 34 45  1  0  0  0  0
 35 37  1  0  0  0  0
 35 34  2  0  0  0  0
 36 35  1  0  0  0  0
 37 38  2  0  0  0  0
 38 39  1  0  0  0  0
 38 44  1  0  0  0  0
 39 40  2  0  0  0  0
 40 41  1  0  0  0  0
 40 42  1  0  0  0  0
 43 42  2  0  0  0  0
 44 43  1  0  0  0  0
 45 44  2  0  0  0  0
M  END
>  <minimizedAffinity>
-7.3612957

$$$$

 OpenBabel03212521013D

 45 50  0  0  1  0  0  0  0  0999 V2000
   42.1010   73.6260   60.3170 C   0  0  0  0  0  0  0  0  0  0  0  0
   43.1320   73.7480   59.4240 C   0  0  0  0  0  0  0  0  0  0  0  0
   43.0790   74.9570   58.7050 C   0  0  0  0  0  0  0  0  0  0  0  0
   42.1320   75.8960   58.8670 N   0  0  0  0  0  0  0  0  0  0  0  0
   41.1430   75.6790   59.7870 C   0  0  0  0  0  0  0  0  0  0  0  0
   41.1480   74.5390   60.5000 N   0  0  0  0  0  0  0  0  0  0  0  0
   43.9080   73.0240   59.2620 H   0  0  0  0  0  0  0  0  0  0  0  0
   43.8690   75.1420   57.9600 H   0  0  0  0  0  0  0  0  0  0  0  0
   41.8850   69.9030   61.9410 C   0  0  0  0  0  0  0  0  0  0  0  0
   41.8920   70.8890   62.8910 C   0  0  0  0  0  0  0  0  0  0  0  0
   41.9560   72.1680   62.4920 C   0  0  0  0  0  0  0  0  0  0  0  0
   42.0170   72.4420   61.1300 C   0  0  0  0  0  0  0  0  0  0  0  0
   41.9760   70.7720   60.3470 S   0  0  0  0  0  0  0  0  0  0  0  0
   41.8480   70.6680   63.9690 H   0  0  0  0  0  0  0  0  0  0  0  0
   41.9720   73.0760   63.0810 H   0  0  0  0  0  0  0  0  0  0  0  0
   40.8820   66.7570   63.5420 C   0  0  0  0  0  0  0  0  0  0  0  0
   41.6250   65.7940   62.8430 C   0  0  0  0  0  0  0  0  0  0  0  0
   42.4780   66.2180   61.8130 C   0  0  0  0  0  0  0  0  0  0  0  0
   42.5340   67.5420   61.5540 N   0  0  0  0  0  0  0  0  0  0  0  0
   41.8080   68.4480   62.2420 C   0  0  0  0  0  0  0  0  0  0  0  0
   40.9930   68.0550   63.2240 N   0  0  0  0  0  0  0  0  0  0  0  0
   40.2130   66.4570   64.3460 H   0  0  0  0  0  0  0  0  0  0  0  0
   41.5620   64.7420   63.0680 H   0  0  0  0  0  0  0  0  0  0  0  0
   43.0850   65.5460   61.2260 H   0  0  0  0  0  0  0  0  0  0  0  0
   40.1370   76.7070   59.9480 C   0  0  0  0  0  0  0  0  0  0  0  0
   39.9750   77.1690   61.0930 O   0  0  0  0  0  0  0  0  0  0  0  0
   39.3000   77.2040   58.7880 C   0  0  1  0  0  0  0  0  0  0  0  0
   39.5270   78.6750   58.5130 C   0  0  0  0  0  0  0  0  0  0  0  0
   39.9410   77.5990   57.5620 C   0  0  2  0  0  0  0  0  0  0  0  0
   38.2090   76.9980   58.9580 H   0  0  0  0  0  0  0  0  0  0  0  0
   40.2620   79.2250   59.1170 H   0  0  0  0  0  0  0  0  0  0  0  0
   38.6410   79.2790   58.2680 H   0  0  0  0  0  0  0  0  0  0  0  0
   41.0590   77.4800   57.5350 H   0  0  0  0  0  0  0  0  0  0  0  0
   39.3380   77.7030   56.2340 C   0  0  0  0  0  0  0  0  0  0  0  0
   40.2330   77.5930   55.1860 C   0  0  0  0  0  0  0  0  0  0  0  0
   41.3130   77.4350   55.3390 H   0  0  0  0  0  0  0  0  0  0  0  0
   39.8810   77.6660   53.8440 C   0  0  0  0  0  3  0  0  0  0  0  0
   38.5330   77.8620   53.6320 C   0  0  0  0  0  0  0  0  0  0  0  0
   38.1560   77.9480   52.3220 N   0  0  0  0  0  0  0  0  0  0  0  0
   36.8640   78.1460   51.9880 C   0  0  0  0  0  0  0  0  0  0  0  0
   36.6110   78.2090   50.9380 H   0  0  0  0  0  0  0  0  0  0  0  0
   35.8670   78.2710   52.9640 C   0  0  0  0  0  3  0  0  0  0  0  0
   36.2320   78.1870   54.3120 C   0  0  0  0  0  3  0  0  0  0  0  0
   37.5550   77.9840   54.5970 C   0  0  0  0  0  0  0  0  0  0  0  0
   37.9940   77.8990   55.9190 C   0  0  0  0  0  3  0  0  0  0  0  0
  1  6  1  0  0  0  0
  1 12  1  0  0  0  0
  2  1  2  0  0  0  0
  3  4  2  0  0  0  0
  3  2  1  0  0  0  0
  4  5  1  0  0  0  0
  5 25  1  0  0  0  0
  5  6  2  0  0  0  0
  7  2  1  0  0  0  0
  8  3  1  0  0  0  0
  9 20  1  0  0  0  0
  9 10  2  0  0  0  0
 10 14  1  0  0  0  0
 11 10  1  0  0  0  0
 11 15  1  0  0  0  0
 12 11  2  0  0  0  0
 13 12  1  0  0  0  0
 13  9  1  0  0  0  0
 16 22  1  0  0  0  0
 17 23  1  0  0  0  0
 17 16  2  0  0  0  0
 18 17  1  0  0  0  0
 19 18  2  0  0  0  0
 19 20  1  0  0  0  0
 20 21  2  0  0  0  0
 21 16  1  0  0  0  0
 24 18  1  0  0  0  0
 25 26  2  0  0  0  0
 27 30  1  6  0  0  0
 27 25  1  0  0  0  0
 28 27  1  0  0  0  0
 28 31  1  0  0  0  0
 29 33  1  6  0  0  0
 29 28  1  0  0  0  0
 29 27  1  0  0  0  0
 32 28  1  0  0  0  0
 34 29  1  0  0  0  0
 35 36  1  0  0  0  0
 35 34  2  0  0  0  0
 37 35  1  0  0  0  0
 38 37  2  0  0  0  0
 38 44  1  0  0  0  0
 39 38  1  0  0  0  0
 40 39  2  0  0  0  0
 40 42  1  0  0  0  0
 41 40  1  0  0  0  0
 42 43  2  0  0  0  0
 43 44  1  0  0  0  0
 44 45  2  0  0  0  0
 45 34  1  0  0  0  0
M  END
>  <minimizedAffinity>
-7.35536766

$$$$

 OpenBabel03212521013D

 45 50  0  0  1  0  0  0  0  0999 V2000
   39.1570   76.8150   58.4830 C   0  0  0  0  0  0  0  0  0  0  0  0
   39.5870   78.1070   58.6380 C   0  0  0  0  0  0  0  0  0  0  0  0
   39.1460   78.9470   57.5990 C   0  0  0  0  0  0  0  0  0  0  0  0
   38.3880   78.5430   56.5650 N   0  0  0  0  0  0  0  0  0  0  0  0
   38.0090   77.2300   56.5030 C   0  0  0  0  0  0  0  0  0  0  0  0
   38.4050   76.3860   57.4710 N   0  0  0  0  0  0  0  0  0  0  0  0
   40.1920   78.4720   59.4450 H   0  0  0  0  0  0  0  0  0  0  0  0
   39.4450   80.0060   57.6380 H   0  0  0  0  0  0  0  0  0  0  0  0
   40.6060   73.7220   60.6930 C   0  0  0  0  0  0  0  0  0  0  0  0
   39.8110   74.5630   61.4260 C   0  0  0  0  0  0  0  0  0  0  0  0
   39.2640   75.6260   60.8180 C   0  0  0  0  0  0  0  0  0  0  0  0
   39.5260   75.8340   59.4670 C   0  0  0  0  0  0  0  0  0  0  0  0
   40.6260   74.4240   59.0160 S   0  0  0  0  0  0  0  0  0  0  0  0
   39.6090   74.3980   62.4950 H   0  0  0  0  0  0  0  0  0  0  0  0
   38.6160   76.3950   61.2190 H   0  0  0  0  0  0  0  0  0  0  0  0
   41.6840   71.1560   63.0830 C   0  0  0  0  0  0  0  0  0  0  0  0
   42.4560   70.2910   62.2930 C   0  0  0  0  0  0  0  0  0  0  0  0
   42.6140   70.5830   60.9300 C   0  0  0  0  0  0  0  0  0  0  0  0
   42.0050   71.6910   60.4540 N   0  0  0  0  0  0  0  0  0  0  0  0
   41.2670   72.5060   61.2370 C   0  0  0  0  0  0  0  0  0  0  0  0
   41.1120   72.2370   62.5350 N   0  0  0  0  0  0  0  0  0  0  0  0
   41.5460   70.9550   64.1430 H   0  0  0  0  0  0  0  0  0  0  0  0
   42.9320   69.4110   62.6960 H   0  0  0  0  0  0  0  0  0  0  0  0
   43.1910   69.9730   60.2520 H   0  0  0  0  0  0  0  0  0  0  0  0
   37.1880   76.8200   55.3830 C   0  0  0  0  0  0  0  0  0  0  0  0
   36.2460   77.5700   55.0650 O   0  0  0  0  0  0  0  0  0  0  0  0
   37.4410   75.5330   54.6270 C   0  0  1  0  0  0  0  0  0  0  0  0
   38.2330   75.7660   53.3580 C   0  0  0  0  0  0  0  0  0  0  0  0
   38.7790   75.0130   54.5280 C   0  0  2  0  0  0  0  0  0  0  0  0
   36.4780   75.0010   54.3990 H   0  0  0  0  0  0  0  0  0  0  0  0
   38.5720   76.7840   53.1180 H   0  0  0  0  0  0  0  0  0  0  0  0
   37.9250   75.1990   52.4680 H   0  0  0  0  0  0  0  0  0  0  0  0
   39.5720   75.6030   55.0650 H   0  0  0  0  0  0  0  0  0  0  0  0
   39.1820   73.6400   54.2280 C   0  0  0  0  0  0  0  0  0  0  0  0
   39.2900   72.8180   55.3330 C   0  0  0  0  0  0  0  0  0  0  0  0
   39.0830   73.1670   56.3590 H   0  0  0  0  0  0  0  0  0  0  0  0
   39.6610   71.4800   55.2820 C   0  0  0  0  0  3  0  0  0  0  0  0
   39.9230   71.0240   54.0080 C   0  0  0  0  0  0  0  0  0  0  0  0
   40.3000   69.7140   53.9250 N   0  0  0  0  0  0  0  0  0  0  0  0
   40.5890   69.1540   52.7320 C   0  0  0  0  0  0  0  0  0  0  0  0
   40.8860   68.1130   52.7130 H   0  0  0  0  0  0  0  0  0  0  0  0
   40.5140   69.8890   51.5420 C   0  0  0  0  0  3  0  0  0  0  0  0
   40.1300   71.2330   51.6040 C   0  0  0  0  0  3  0  0  0  0  0  0
   39.8460   71.7520   52.8390 C   0  0  0  0  0  0  0  0  0  0  0  0
   39.4660   73.0870   52.9800 C   0  0  0  0  0  3  0  0  0  0  0  0
  1  2  1  0  0  0  0
  1 12  1  0  0  0  0
  2  7  1  0  0  0  0
  3  8  1  0  0  0  0
  3  2  2  0  0  0  0
  4  3  1  0  0  0  0
  5  4  2  0  0  0  0
  5  6  1  0  0  0  0
  6  1  2  0  0  0  0
  9 20  1  0  0  0  0
  9 10  2  0  0  0  0
 10 14  1  0  0  0  0
 11 15  1  0  0  0  0
 11 10  1  0  0  0  0
 12 11  2  0  0  0  0
 13 12  1  0  0  0  0
 13  9  1  0  0  0  0
 16 22  1  0  0  0  0
 17 23  1  0  0  0  0
 17 16  2  0  0  0  0
 18 17  1  0  0  0  0
 19 18  2  0  0  0  0
 19 20  1  0  0  0  0
 20 21  2  0  0  0  0
 21 16  1  0  0  0  0
 24 18  1  0  0  0  0
 25  5  1  0  0  0  0
 26 25  2  0  0  0  0
 27 30  1  6  0  0  0
 27 25  1  0  0  0  0
 28 29  1  0  0  0  0
 28 27  1  0  0  0  0
 29 27  1  0  0  0  0
 29 33  1  1  0  0  0
 31 28  1  0  0  0  0
 32 28  1  0  0  0  0
 34 29  1  0  0  0  0
 34 35  1  0  0  0  0
 35 36  1  0  0  0  0
 37 35  2  0  0  0  0
 38 37  1  0  0  0  0
 39 38  1  0  0  0  0
 40 39  2  0  0  0  0
 41 40  1  0  0  0  0
 42 43  2  0  0  0  0
 42 40  1  0  0  0  0
 43 44  1  0  0  0  0
 44 45  1  0  0  0  0
 44 38  2  0  0  0  0
 45 34  2  0  0  0  0
M  END
>  <minimizedAffinity>
-7.28358555

$$$$

 OpenBabel03212521013D

 45 50  0  0  1  0  0  0  0  0999 V2000
   38.3820   75.2390   55.3950 C   0  0  0  0  0  0  0  0  0  0  0  0
   37.2380   75.7850   54.8770 C   0  0  0  0  0  0  0  0  0  0  0  0
   36.8400   76.9480   55.5620 C   0  0  0  0  0  0  0  0  0  0  0  0
   37.4990   77.4760   56.6070 N   0  0  0  0  0  0  0  0  0  0  0  0
   38.6350   76.8550   57.0490 C   0  0  0  0  0  0  0  0  0  0  0  0
   39.0570   75.7400   56.4280 N   0  0  0  0  0  0  0  0  0  0  0  0
   36.6800   75.3970   54.0460 H   0  0  0  0  0  0  0  0  0  0  0  0
   35.9270   77.4570   55.2160 H   0  0  0  0  0  0  0  0  0  0  0  0
   39.8890   71.5850   54.4330 C   0  0  0  0  0  0  0  0  0  0  0  0
   39.7290   72.3900   53.3370 C   0  0  0  0  0  0  0  0  0  0  0  0
   39.2420   73.6280   53.5130 C   0  0  0  0  0  0  0  0  0  0  0  0
   38.9170   74.0440   54.8000 C   0  0  0  0  0  0  0  0  0  0  0  0
   39.3290   72.5820   55.8460 S   0  0  0  0  0  0  0  0  0  0  0  0
   39.9840   72.0570   52.3200 H   0  0  0  0  0  0  0  0  0  0  0  0
   39.0470   74.4040   52.7840 H   0  0  0  0  0  0  0  0  0  0  0  0
   41.6490   68.5260   55.4380 C   0  0  0  0  0  0  0  0  0  0  0  0
   41.4330   67.6650   54.3520 C   0  0  0  0  0  0  0  0  0  0  0  0
   40.6800   68.1280   53.2630 C   0  0  0  0  0  0  0  0  0  0  0  0
   40.2020   69.3890   53.3260 N   0  0  0  0  0  0  0  0  0  0  0  0
   40.4240   70.1970   54.3840 C   0  0  0  0  0  0  0  0  0  0  0  0
   41.1400   69.7660   55.4250 N   0  0  0  0  0  0  0  0  0  0  0  0
   42.2300   68.1940   56.2950 H   0  0  0  0  0  0  0  0  0  0  0  0
   41.8250   66.6600   54.3250 H   0  0  0  0  0  0  0  0  0  0  0  0
   40.4670   67.5330   52.3880 H   0  0  0  0  0  0  0  0  0  0  0  0
   39.3310   77.4460   58.1730 C   0  0  0  0  0  0  0  0  0  0  0  0
   39.1230   78.6520   58.3980 O   0  0  0  0  0  0  0  0  0  0  0  0
   40.2820   76.6490   59.0410 C   0  0  1  0  0  0  0  0  0  0  0  0
   39.8750   76.6720   60.4980 C   0  0  0  0  0  0  0  0  0  0  0  0
   39.8320   75.4330   59.6640 C   0  0  2  0  0  0  0  0  0  0  0  0
   41.3390   77.0100   58.9210 H   0  0  0  0  0  0  0  0  0  0  0  0
   38.9570   77.2020   60.7900 H   0  0  0  0  0  0  0  0  0  0  0  0
   40.6810   76.7770   61.2390 H   0  0  0  0  0  0  0  0  0  0  0  0
   38.7750   75.1270   59.4310 H   0  0  0  0  0  0  0  0  0  0  0  0
   40.6540   74.3350   60.1710 C   0  0  0  0  0  0  0  0  0  0  0  0
   41.8240   74.1200   59.4680 C   0  0  0  0  0  0  0  0  0  0  0  0
   42.1180   74.7300   58.5970 H   0  0  0  0  0  0  0  0  0  0  0  0
   42.7500   73.1300   59.7710 C   0  0  0  0  0  3  0  0  0  0  0  0
   42.4020   72.3550   60.8570 C   0  0  0  0  0  0  0  0  0  0  0  0
   43.2880   71.3660   61.1750 N   0  0  0  0  0  0  0  0  0  0  0  0
   43.0540   70.5390   62.2140 C   0  0  0  0  0  0  0  0  0  0  0  0
   43.7830   69.7680   62.4290 H   0  0  0  0  0  0  0  0  0  0  0  0
   41.9020   70.6610   63.0010 C   0  0  0  0  0  3  0  0  0  0  0  0
   40.9810   71.6680   62.6930 C   0  0  0  0  0  3  0  0  0  0  0  0
   41.2660   72.4810   61.6290 C   0  0  0  0  0  0  0  0  0  0  0  0
   40.3890   73.5000   61.2560 C   0  0  0  0  0  3  0  0  0  0  0  0
  1  6  1  0  0  0  0
  2  1  2  0  0  0  0
  2  3  1  0  0  0  0
  3  4  2  0  0  0  0
  4  5  1  0  0  0  0
  5 25  1  0  0  0  0
  6  5  2  0  0  0  0
  7  2  1  0  0  0  0
  8  3  1  0  0  0  0
  9 13  1  0  0  0  0
 10 11  1  0  0  0  0
 10  9  2  0  0  0  0
 11 12  2  0  0  0  0
 12  1  1  0  0  0  0
 12 13  1  0  0  0  0
 14 10  1  0  0  0  0
 15 11  1  0  0  0  0
 16 22  1  0  0  0  0
 17 16  2  0  0  0  0
 18 19  2  0  0  0  0
 18 17  1  0  0  0  0
 19 20  1  0  0  0  0
 20  9  1  0  0  0  0
 20 21  2  0  0  0  0
 21 16  1  0  0  0  0
 23 17  1  0  0  0  0
 24 18  1  0  0  0  0
 25 26  2  0  0  0  0
 25 27  1  0  0  0  0
 27 30  1  6  0  0  0
 27 29  1  0  0  0  0
 27 28  1  0  0  0  0
 28 31  1  0  0  0  0
 28 32  1  0  0  0  0
 29 33  1  6  0  0  0
 29 34  1  0  0  0  0
 29 28  1  0  0  0  0
 34 45  1  0  0  0  0
 35 37  1  0  0  0  0
 35 34  2  0  0  0  0
 36 35  1  0  0  0  0
 37 38  2  0  0  0  0
 38 39  1  0  0  0  0
 38 44  1  0  0  0  0
 39 40  2  0  0  0  0
 40 41  1  0  0  0  0
 40 42  1  0  0  0  0
 43 42  2  0  0  0  0
 44 43  1  0  0  0  0
 45 44  2  0  0  0  0
M  END
>  <minimizedAffinity>
-7.20602512

$$$$

 OpenBabel03212521013D

 45 50  0  0  1  0  0  0  0  0999 V2000
   40.5320   75.3190   59.4870 C   0  0  0  0  0  0  0  0  0  0  0  0
   40.7080   76.5960   59.9520 C   0  0  0  0  0  0  0  0  0  0  0  0
   39.8910   77.5270   59.2850 C   0  0  0  0  0  0  0  0  0  0  0  0
   39.0290   77.2150   58.3020 N   0  0  0  0  0  0  0  0  0  0  0  0
   38.9260   75.9090   57.9100 C   0  0  0  0  0  0  0  0  0  0  0  0
   39.6860   74.9800   58.5160 N   0  0  0  0  0  0  0  0  0  0  0  0
   41.3830   76.8890   60.7330 H   0  0  0  0  0  0  0  0  0  0  0  0
   39.9650   78.5820   59.5920 H   0  0  0  0  0  0  0  0  0  0  0  0
   42.0210   72.0690   61.4270 C   0  0  0  0  0  0  0  0  0  0  0  0
   42.9870   72.7590   60.7430 C   0  0  0  0  0  0  0  0  0  0  0  0
   42.6320   73.8570   60.0600 C   0  0  0  0  0  0  0  0  0  0  0  0
   41.2980   74.2510   60.0710 C   0  0  0  0  0  0  0  0  0  0  0  0
   40.4770   72.9800   61.1270 S   0  0  0  0  0  0  0  0  0  0  0  0
   44.0410   72.4420   60.7340 H   0  0  0  0  0  0  0  0  0  0  0  0
   43.2390   74.5290   59.4670 H   0  0  0  0  0  0  0  0  0  0  0  0
   43.5320   68.9070   62.5160 C   0  0  0  0  0  0  0  0  0  0  0  0
   42.7900   68.5790   63.6600 C   0  0  0  0  0  0  0  0  0  0  0  0
   41.7620   69.4420   64.0680 C   0  0  0  0  0  0  0  0  0  0  0  0
   41.5470   70.5500   63.3280 N   0  0  0  0  0  0  0  0  0  0  0  0
   42.2760   70.8430   62.2310 C   0  0  0  0  0  0  0  0  0  0  0  0
   43.2560   70.0270   61.8340 N   0  0  0  0  0  0  0  0  0  0  0  0
   44.3340   68.2560   62.1750 H   0  0  0  0  0  0  0  0  0  0  0  0
   42.9820   67.6870   64.2360 H   0  0  0  0  0  0  0  0  0  0  0  0
   41.1440   69.2650   64.9350 H   0  0  0  0  0  0  0  0  0  0  0  0
   37.9880   75.5960   56.8520 C   0  0  0  0  0  0  0  0  0  0  0  0
   37.0480   76.3930   56.6740 O   0  0  0  0  0  0  0  0  0  0  0  0
   38.1220   74.3530   55.9980 C   0  0  1  0  0  0  0  0  0  0  0  0
   38.5630   74.6780   54.5870 C   0  0  0  0  0  0  0  0  0  0  0  0
   39.4220   73.9280   55.5540 C   0  0  2  0  0  0  0  0  0  0  0  0
   37.1640   73.7650   55.9860 H   0  0  0  0  0  0  0  0  0  0  0  0
   38.7750   75.7240   54.3200 H   0  0  0  0  0  0  0  0  0  0  0  0
   38.0800   74.1200   53.7730 H   0  0  0  0  0  0  0  0  0  0  0  0
   40.2880   74.5520   55.9090 H   0  0  0  0  0  0  0  0  0  0  0  0
   39.8170   72.5950   55.1010 C   0  0  0  0  0  0  0  0  0  0  0  0
   39.5900   72.3520   53.7590 C   0  0  0  0  0  0  0  0  0  0  0  0
   39.1510   73.1050   53.0830 H   0  0  0  0  0  0  0  0  0  0  0  0
   39.8840   71.1560   53.1170 C   0  0  0  0  0  3  0  0  0  0  0  0
   40.4350   70.2010   53.9460 C   0  0  0  0  0  0  0  0  0  0  0  0
   40.7270   69.0100   53.3460 N   0  0  0  0  0  0  0  0  0  0  0  0
   41.2630   67.9950   54.0550 C   0  0  0  0  0  0  0  0  0  0  0  0
   41.4770   67.0670   53.5400 H   0  0  0  0  0  0  0  0  0  0  0  0
   41.5390   68.1230   55.4220 C   0  0  0  0  0  3  0  0  0  0  0  0
   41.2480   69.3360   56.0560 C   0  0  0  0  0  3  0  0  0  0  0  0
   40.7050   70.3340   55.2920 C   0  0  0  0  0  0  0  0  0  0  0  0
   40.3800   71.5670   55.8570 C   0  0  0  0  0  3  0  0  0  0  0  0
  1  2  1  0  0  0  0
  1 12  1  0  0  0  0
  2  7  1  0  0  0  0
  3  8  1  0  0  0  0
  3  2  2  0  0  0  0
  4  3  1  0  0  0  0
  5  4  2  0  0  0  0
  5  6  1  0  0  0  0
  6  1  2  0  0  0  0
  9 20  1  0  0  0  0
 10  9  2  0  0  0  0
 11 12  2  0  0  0  0
 11 10  1  0  0  0  0
 12 13  1  0  0  0  0
 13  9  1  0  0  0  0
 14 10  1  0  0  0  0
 15 11  1  0  0  0  0
 16 17  1  0  0  0  0
 17 18  2  0  0  0  0
 17 23  1  0  0  0  0
 18 24  1  0  0  0  0
 19 18  1  0  0  0  0
 20 19  2  0  0  0  0
 21 20  1  0  0  0  0
 21 16  2  0  0  0  0
 22 16  1  0  0  0  0
 25  5  1  0  0  0  0
 26 25  2  0  0  0  0
 27 30  1  1  0  0  0
 27 25  1  0  0  0  0
 28 29  1  0  0  0  0
 28 27  1  0  0  0  0
 29 33  1  1  0  0  0
 29 27  1  0  0  0  0
 31 28  1  0  0  0  0
 32 28  1  0  0  0  0
 34 29  1  0  0  0  0
 34 45  1  0  0  0  0
 35 34  2  0  0  0  0
 36 35  1  0  0  0  0
 37 35  1  0  0  0  0
 37 38  2  0  0  0  0
 38 44  1  0  0  0  0
 39 38  1  0  0  0  0
 39 40  2  0  0  0  0
 40 42  1  0  0  0  0
 41 40  1  0  0  0  0
 42 43  2  0  0  0  0
 44 45  2  0  0  0  0
 44 43  1  0  0  0  0
M  END
>  <minimizedAffinity>
-7.15528345

$$$$

 OpenBabel03212521013D

 45 50  0  0  1  0  0  0  0  0999 V2000
   39.9750   74.3840   59.6520 C   0  0  0  0  0  0  0  0  0  0  0  0
   39.3780   74.1380   60.8600 C   0  0  0  0  0  0  0  0  0  0  0  0
   40.0210   73.1120   61.5780 C   0  0  0  0  0  0  0  0  0  0  0  0
   41.1010   72.4420   61.1420 N   0  0  0  0  0  0  0  0  0  0  0  0
   41.6240   72.7640   59.9200 C   0  0  0  0  0  0  0  0  0  0  0  0
   41.0450   73.7360   59.1940 N   0  0  0  0  0  0  0  0  0  0  0  0
   38.5170   74.6480   61.2470 H   0  0  0  0  0  0  0  0  0  0  0  0
   39.6090   72.8440   62.5640 H   0  0  0  0  0  0  0  0  0  0  0  0
   38.0950   76.6920   56.8800 C   0  0  0  0  0  0  0  0  0  0  0  0
   38.8330   77.4320   57.7650 C   0  0  0  0  0  0  0  0  0  0  0  0
   39.5100   76.7950   58.7320 C   0  0  0  0  0  0  0  0  0  0  0  0
   39.4320   75.4070   58.8000 C   0  0  0  0  0  0  0  0  0  0  0  0
   38.3250   74.9630   57.3930 S   0  0  0  0  0  0  0  0  0  0  0  0
   38.8890   78.5300   57.7100 H   0  0  0  0  0  0  0  0  0  0  0  0
   40.1410   77.1960   59.5150 H   0  0  0  0  0  0  0  0  0  0  0  0
   36.6320   77.0950   53.5400 C   0  0  0  0  0  0  0  0  0  0  0  0
   35.8810   78.2740   53.6630 C   0  0  0  0  0  0  0  0  0  0  0  0
   35.8710   78.9410   54.8960 C   0  0  0  0  0  0  0  0  0  0  0  0
   36.5920   78.4030   55.9030 N   0  0  0  0  0  0  0  0  0  0  0  0
   37.3060   77.2670   55.7580 C   0  0  0  0  0  0  0  0  0  0  0  0
   37.3220   76.6250   54.5880 N   0  0  0  0  0  0  0  0  0  0  0  0
   36.6590   76.5570   52.5940 H   0  0  0  0  0  0  0  0  0  0  0  0
   35.3120   78.6830   52.8430 H   0  0  0  0  0  0  0  0  0  0  0  0
   35.3220   79.8530   55.0770 H   0  0  0  0  0  0  0  0  0  0  0  0
   42.7900   72.0310   59.4730 C   0  0  0  0  0  0  0  0  0  0  0  0
   43.8270   72.1480   60.1510 O   0  0  0  0  0  0  0  0  0  0  0  0
   42.7710   71.1640   58.2330 C   0  0  1  0  0  0  0  0  0  0  0  0
   42.5000   69.7110   58.5590 C   0  0  0  0  0  0  0  0  0  0  0  0
   41.5370   70.5650   57.7980 C   0  0  2  0  0  0  0  0  0  0  0  0
   43.7270   71.2660   57.6520 H   0  0  0  0  0  0  0  0  0  0  0  0
   42.3140   69.4230   59.6030 H   0  0  0  0  0  0  0  0  0  0  0  0
   43.0820   68.9590   58.0070 H   0  0  0  0  0  0  0  0  0  0  0  0
   40.6300   70.8140   58.4140 H   0  0  0  0  0  0  0  0  0  0  0  0
   41.2100   70.0640   56.4640 C   0  0  0  0  0  0  0  0  0  0  0  0
   41.4740   68.7210   56.2730 C   0  0  0  0  0  0  0  0  0  0  0  0
   41.8930   68.0770   57.0650 H   0  0  0  0  0  0  0  0  0  0  0  0
   41.2460   68.0380   55.0850 C   0  0  0  0  0  3  0  0  0  0  0  0
   40.7220   68.8260   54.0820 C   0  0  0  0  0  0  0  0  0  0  0  0
   40.4950   68.1850   52.8980 N   0  0  0  0  0  0  0  0  0  0  0  0
   39.9900   68.8530   51.8390 C   0  0  0  0  0  0  0  0  0  0  0  0
   39.8270   68.3050   50.9200 H   0  0  0  0  0  0  0  0  0  0  0  0
   39.6820   70.2170   51.9140 C   0  0  0  0  0  3  0  0  0  0  0  0
   39.9060   70.8920   53.1180 C   0  0  0  0  0  3  0  0  0  0  0  0
   40.4190   70.1690   54.1610 C   0  0  0  0  0  0  0  0  0  0  0  0
   40.6790   70.7780   55.3900 C   0  0  0  0  0  3  0  0  0  0  0  0
  1  2  1  0  0  0  0
  2  7  1  0  0  0  0
  2  3  2  0  0  0  0
  3  8  1  0  0  0  0
  4  3  1  0  0  0  0
  5  4  2  0  0  0  0
  6  1  2  0  0  0  0
  6  5  1  0  0  0  0
  9 13  1  0  0  0  0
  9 10  2  0  0  0  0
 10 11  1  0  0  0  0
 11 12  2  0  0  0  0
 11 15  1  0  0  0  0
 12  1  1  0  0  0  0
 13 12  1  0  0  0  0
 14 10  1  0  0  0  0
 16 17  2  0  0  0  0
 16 21  1  0  0  0  0
 17 18  1  0  0  0  0
 18 24  1  0  0  0  0
 18 19  2  0  0  0  0
 20 19  1  0  0  0  0
 20  9  1  0  0  0  0
 21 20  2  0  0  0  0
 22 16  1  0  0  0  0
 23 17  1  0  0  0  0
 25  5  1  0  0  0  0
 25 26  2  0  0  0  0
 27 30  1  6  0  0  0
 27 28  1  0  0  0  0
 27 25  1  0  0  0  0
 28 31  1  0  0  0  0
 29 27  1  0  0  0  0
 29 33  1  1  0  0  0
 29 28  1  0  0  0  0
 32 28  1  0  0  0  0
 34 29  1  0  0  0  0
 35 34  1  0  0  0  0
 35 36  1  0  0  0  0
 37 35  2  0  0  0  0
 38 44  1  0  0  0  0
 38 37  1  0  0  0  0
 39 38  2  0  0  0  0
 40 42  2  0  0  0  0
 40 39  1  0  0  0  0
 41 40  1  0  0  0  0
 42 43  1  0  0  0  0
 43 44  2  0  0  0  0
 44 45  1  0  0  0  0
 45 34  2  0  0  0  0
M  END
>  <minimizedAffinity>
-7.09403229

$$$$

 OpenBabel03212521013D

 45 50  0  0  1  0  0  0  0  0999 V2000
   41.1790   72.1790   61.1640 C   0  0  0  0  0  0  0  0  0  0  0  0
   41.0810   71.9920   62.5180 C   0  0  0  0  0  0  0  0  0  0  0  0
   41.8750   70.9230   62.9710 C   0  0  0  0  0  0  0  0  0  0  0  0
   42.6490   70.1620   62.1780 N   0  0  0  0  0  0  0  0  0  0  0  0
   42.6790   70.4300   60.8370 C   0  0  0  0  0  0  0  0  0  0  0  0
   41.9370   71.4420   60.3540 N   0  0  0  0  0  0  0  0  0  0  0  0
   40.4770   72.5750   63.1870 H   0  0  0  0  0  0  0  0  0  0  0  0
   41.8590   70.6960   64.0490 H   0  0  0  0  0  0  0  0  0  0  0  0
   39.0180   74.7000   58.8150 C   0  0  0  0  0  0  0  0  0  0  0  0
   39.2610   75.2220   60.0580 C   0  0  0  0  0  0  0  0  0  0  0  0
   39.9690   74.4940   60.9350 C   0  0  0  0  0  0  0  0  0  0  0  0
   40.4250   73.2380   60.5490 C   0  0  0  0  0  0  0  0  0  0  0  0
   39.8150   73.0670   58.8160 S   0  0  0  0  0  0  0  0  0  0  0  0
   38.8950   76.2150   60.3610 H   0  0  0  0  0  0  0  0  0  0  0  0
   40.2630   74.7280   61.9500 H   0  0  0  0  0  0  0  0  0  0  0  0
   37.8990   77.3630   56.5520 C   0  0  0  0  0  0  0  0  0  0  0  0
   36.8940   76.7380   55.7990 C   0  0  0  0  0  0  0  0  0  0  0  0
   36.5920   75.3940   56.0630 C   0  0  0  0  0  0  0  0  0  0  0  0
   37.2940   74.7750   57.0360 N   0  0  0  0  0  0  0  0  0  0  0  0
   38.2560   75.4000   57.7460 C   0  0  0  0  0  0  0  0  0  0  0  0
   38.5520   76.6790   57.5030 N   0  0  0  0  0  0  0  0  0  0  0  0
   38.1540   78.4050   56.3710 H   0  0  0  0  0  0  0  0  0  0  0  0
   36.3480   77.2540   55.0260 H   0  0  0  0  0  0  0  0  0  0  0  0
   35.8340   74.8380   55.5320 H   0  0  0  0  0  0  0  0  0  0  0  0
   43.5230   69.6010   60.0040 C   0  0  0  0  0  0  0  0  0  0  0  0
   44.4280   68.9610   60.5720 O   0  0  0  0  0  0  0  0  0  0  0  0
   43.3370   69.5100   58.5050 C   0  0  1  0  0  0  0  0  0  0  0  0
   43.2370   68.0770   58.0300 C   0  0  0  0  0  0  0  0  0  0  0  0
   42.0900   69.0340   57.9670 C   0  0  2  0  0  0  0  0  0  0  0  0
   44.1590   70.0500   57.9610 H   0  0  0  0  0  0  0  0  0  0  0  0
   43.2690   67.2650   58.7700 H   0  0  0  0  0  0  0  0  0  0  0  0
   43.7590   67.8230   57.0960 H   0  0  0  0  0  0  0  0  0  0  0  0
   41.2980   68.7800   58.7230 H   0  0  0  0  0  0  0  0  0  0  0  0
   41.5590   69.2510   56.6220 C   0  0  0  0  0  0  0  0  0  0  0  0
   41.5200   68.1200   55.8290 C   0  0  0  0  0  0  0  0  0  0  0  0
   41.8590   67.1320   56.1830 H   0  0  0  0  0  0  0  0  0  0  0  0
   41.0590   68.0960   54.5190 C   0  0  0  0  0  3  0  0  0  0  0  0
   40.6300   69.3220   54.0570 C   0  0  0  0  0  0  0  0  0  0  0  0
   40.1790   69.3340   52.7690 N   0  0  0  0  0  0  0  0  0  0  0  0
   39.7390   70.4770   52.2030 C   0  0  0  0  0  0  0  0  0  0  0  0
   39.3920   70.4390   51.1780 H   0  0  0  0  0  0  0  0  0  0  0  0
   39.7290   71.6860   52.9090 C   0  0  0  0  0  3  0  0  0  0  0  0
   40.1870   71.6960   54.2310 C   0  0  0  0  0  3  0  0  0  0  0  0
   40.6220   70.5100   54.7580 C   0  0  0  0  0  0  0  0  0  0  0  0
   41.1020   70.4460   56.0660 C   0  0  0  0  0  3  0  0  0  0  0  0
  1  2  1  0  0  0  0
  2  3  2  0  0  0  0
  2  7  1  0  0  0  0
  3  8  1  0  0  0  0
  4  3  1  0  0  0  0
  5  4  2  0  0  0  0
  6  5  1  0  0  0  0
  6  1  2  0  0  0  0
  9 13  1  0  0  0  0
  9 10  2  0  0  0  0
 10 14  1  0  0  0  0
 10 11  1  0  0  0  0
 11 15  1  0  0  0  0
 12 11  2  0  0  0  0
 12  1  1  0  0  0  0
 13 12  1  0  0  0  0
 16 21  1  0  0  0  0
 17 18  1  0  0  0  0
 17 16  2  0  0  0  0
 18 19  2  0  0  0  0
 19 20  1  0  0  0  0
 20  9  1  0  0  0  0
 21 20  2  0  0  0  0
 22 16  1  0  0  0  0
 23 17  1  0  0  0  0
 24 18  1  0  0  0  0
 25 26  2  0  0  0  0
 25  5  1  0  0  0  0
 27 30  1  6  0  0  0
 27 25  1  0  0  0  0
 28 27  1  0  0  0  0
 28 31  1  0  0  0  0
 29 28  1  0  0  0  0
 29 27  1  0  0  0  0
 29 33  1  1  0  0  0
 32 28  1  0  0  0  0
 34 29  1  0  0  0  0
 35 36  1  0  0  0  0
 35 34  2  0  0  0  0
 37 35  1  0  0  0  0
 38 37  2  0  0  0  0
 38 44  1  0  0  0  0
 39 38  1  0  0  0  0
 40 39  2  0  0  0  0
 40 42  1  0  0  0  0
 41 40  1  0  0  0  0
 42 43  2  0  0  0  0
 43 44  1  0  0  0  0
 44 45  2  0  0  0  0
 45 34  1  0  0  0  0
M  END
>  <minimizedAffinity>
-6.90083408

$$$$
