
 OpenBabel03212520273D

 31 34  0  0  0  0  0  0  0  0999 V2000
   42.4410   84.7990   61.2520 C   0  0  0  0  0  0  0  0  0  0  0  0
   43.3000   85.2550   62.2420 C   0  0  0  0  0  0  0  0  0  0  0  0
   44.0920   86.1660   61.5170 C   0  0  0  0  0  0  0  0  0  0  0  0
   43.7110   86.2180   60.2300 N   0  0  0  0  0  0  0  0  0  0  0  0
   42.6990   85.3740   60.0870 N   0  0  0  0  0  0  0  0  0  0  0  0
   43.3860   85.0140   63.2930 H   0  0  0  0  0  0  0  0  0  0  0  0
   44.9080   86.7410   61.9790 H   0  0  0  0  0  0  0  0  0  0  0  0
   40.6280   81.5750   61.7070 C   0  0  0  0  0  0  0  0  0  0  0  0
   41.6860   82.4610   61.4820 C   0  0  0  0  0  0  0  0  0  0  0  0
   41.3940   83.8150   61.4800 C   0  0  0  0  0  0  0  0  0  0  0  0
   40.1100   84.2330   61.6950 N   0  0  0  0  0  0  0  0  0  0  0  0
   39.1220   83.3220   61.9090 C   0  0  0  0  0  0  0  0  0  0  0  0
   39.3870   82.0100   61.9140 N   0  0  0  0  0  0  0  0  0  0  0  0
   40.7790   80.5130   61.7230 H   0  0  0  0  0  0  0  0  0  0  0  0
   42.6850   82.0830   61.3160 H   0  0  0  0  0  0  0  0  0  0  0  0
   38.1720   83.8020   62.0620 H   0  0  0  0  0  0  0  0  0  0  0  0
   44.3130   87.0520   59.2030 C   0  0  0  0  0  0  0  0  0  0  0  0
   44.8250   87.9310   59.6320 H   0  0  0  0  0  0  0  0  0  0  0  0
   43.4940   87.4090   58.5160 H   0  0  0  0  0  0  0  0  0  0  0  0
   45.3080   86.2370   58.4820 C   0  0  0  0  0  0  0  0  0  0  0  0
   44.9940   85.7420   57.2290 C   0  0  0  0  0  0  0  0  0  0  0  0
   44.0050   85.9760   56.8110 H   0  0  0  0  0  0  0  0  0  0  0  0
   45.8040   84.9670   56.4240 C   0  0  0  0  0  3  0  0  0  0  0  0
   47.0450   84.6630   56.9280 C   0  0  0  0  0  0  0  0  0  0  0  0
   47.8580   83.9110   56.1700 N   0  0  0  0  0  0  0  0  0  0  0  0
   49.0970   83.5580   56.5770 C   0  0  0  0  0  0  0  0  0  0  0  0
   49.7960   82.9570   56.0140 H   0  0  0  0  0  0  0  0  0  0  0  0
   49.4720   84.0200   57.8180 C   0  0  0  0  0  3  0  0  0  0  0  0
   48.6820   84.7940   58.6410 C   0  0  0  0  0  3  0  0  0  0  0  0
   47.4150   85.1280   58.1710 C   0  0  0  0  0  0  0  0  0  0  0  0
   46.5680   85.8990   58.9360 C   0  0  0  0  0  3  0  0  0  0  0  0
  1 10  1  0  0  0  0
  1  2  1  0  0  0  0
  2  6  1  0  0  0  0
  3  7  1  0  0  0  0
  3  2  2  0  0  0  0
  4  3  1  0  0  0  0
  5  4  1  0  0  0  0
  5  1  2  0  0  0  0
  8 14  1  0  0  0  0
  8 13  1  0  0  0  0
  9  8  2  0  0  0  0
 10  9  1  0  0  0  0
 10 11  2  0  0  0  0
 11 12  1  0  0  0  0
 12 13  2  0  0  0  0
 12 16  1  0  0  0  0
 15  9  1  0  0  0  0
 17 18  1  0  0  0  0
 17  4  1  0  0  0  0
 19 17  1  0  0  0  0
 20 31  1  0  0  0  0
 20 17  1  0  0  0  0
 21 20  2  0  0  0  0
 22 21  1  0  0  0  0
 23 24  2  0  0  0  0
 23 21  1  0  0  0  0
 24 30  1  0  0  0  0
 25 26  2  0  0  0  0
 25 24  1  0  0  0  0
 26 28  1  0  0  0  0
 27 26  1  0  0  0  0
 28 29  2  0  0  0  0
 30 29  1  0  0  0  0
 30 31  2  0  0  0  0
M  END
>  <minimizedAffinity>
-4.18085861

>  <minimizedRMSD>
0.710675895

$$$$
