
 OpenBabel03212521003D

 45 50  0  0  1  0  0  0  0  0999 V2000
   39.9610   77.5800   59.2010 C   0  0  0  0  0  0  0  0  0  0  0  0
   40.7710   76.5390   58.8300 C   0  0  0  0  0  0  0  0  0  0  0  0
   40.2570   75.8250   57.7320 C   0  0  0  0  0  0  0  0  0  0  0  0
   39.1050   76.1190   57.1060 N   0  0  0  0  0  0  0  0  0  0  0  0
   38.3680   77.1810   57.5540 C   0  0  0  0  0  0  0  0  0  0  0  0
   38.8150   77.8950   58.6010 N   0  0  0  0  0  0  0  0  0  0  0  0
   41.6970   76.2690   59.3000 H   0  0  0  0  0  0  0  0  0  0  0  0
   40.8410   74.9670   57.3620 H   0  0  0  0  0  0  0  0  0  0  0  0
   41.0020   80.4980   61.8370 C   0  0  0  0  0  0  0  0  0  0  0  0
   40.9840   79.2560   62.4120 C   0  0  0  0  0  0  0  0  0  0  0  0
   40.6590   78.1990   61.6520 C   0  0  0  0  0  0  0  0  0  0  0  0
   40.3520   78.4060   60.3110 C   0  0  0  0  0  0  0  0  0  0  0  0
   40.5360   80.2300   60.1000 S   0  0  0  0  0  0  0  0  0  0  0  0
   41.2230   79.0950   63.4740 H   0  0  0  0  0  0  0  0  0  0  0  0
   40.5890   77.1510   61.9170 H   0  0  0  0  0  0  0  0  0  0  0  0
   42.9730   83.3390   63.0660 C   0  0  0  0  0  0  0  0  0  0  0  0
   42.0540   84.0430   63.8580 C   0  0  0  0  0  0  0  0  0  0  0  0
   40.7470   83.5480   63.9760 C   0  0  0  0  0  0  0  0  0  0  0  0
   40.4480   82.4100   63.3130 N   0  0  0  0  0  0  0  0  0  0  0  0
   41.3520   81.7520   62.5580 C   0  0  0  0  0  0  0  0  0  0  0  0
   42.5980   82.2150   62.4390 N   0  0  0  0  0  0  0  0  0  0  0  0
   43.9940   83.6990   62.9580 H   0  0  0  0  0  0  0  0  0  0  0  0
   42.3160   84.9510   64.3770 H   0  0  0  0  0  0  0  0  0  0  0  0
   39.9780   84.0260   64.5640 H   0  0  0  0  0  0  0  0  0  0  0  0
   37.1320   77.4820   56.8610 C   0  0  0  0  0  0  0  0  0  0  0  0
   36.0880   76.9860   57.3230 O   0  0  0  0  0  0  0  0  0  0  0  0
   37.0940   78.3500   55.6220 C   0  0  1  0  0  0  0  0  0  0  0  0
   37.3110   79.8130   55.9470 C   0  0  0  0  0  0  0  0  0  0  0  0
   38.2940   79.0000   55.1670 C   0  0  2  0  0  0  0  0  0  0  0  0
   36.1320   78.2100   55.0590 H   0  0  0  0  0  0  0  0  0  0  0  0
   37.5040   80.1070   56.9880 H   0  0  0  0  0  0  0  0  0  0  0  0
   36.6890   80.5410   55.4070 H   0  0  0  0  0  0  0  0  0  0  0  0
   39.2220   78.7870   55.7660 H   0  0  0  0  0  0  0  0  0  0  0  0
   38.5760   79.5150   53.8280 C   0  0  0  0  0  0  0  0  0  0  0  0
   37.4530   79.8180   53.0800 C   0  0  0  0  0  0  0  0  0  0  0  0
   36.4270   79.6850   53.4640 H   0  0  0  0  0  0  0  0  0  0  0  0
   37.4860   80.3140   51.7830 C   0  0  0  0  0  3  0  0  0  0  0  0
   38.7600   80.4880   51.2860 C   0  0  0  0  0  0  0  0  0  0  0  0
   38.8250   80.9680   50.0090 N   0  0  0  0  0  0  0  0  0  0  0  0
   40.0150   81.1730   49.4090 C   0  0  0  0  0  0  0  0  0  0  0  0
   40.0210   81.5530   48.3960 H   0  0  0  0  0  0  0  0  0  0  0  0
   41.2220   80.9040   50.0680 C   0  0  0  0  0  3  0  0  0  0  0  0
   41.1780   80.4130   51.3780 C   0  0  0  0  0  3  0  0  0  0  0  0
   39.9440   80.2240   51.9400 C   0  0  0  0  0  0  0  0  0  0  0  0
   39.8220   79.7270   53.2380 C   0  0  0  0  0  3  0  0  0  0  0  0
  1 12  1  0  0  0  0
  2  1  1  0  0  0  0
  2  7  1  0  0  0  0
  3  2  2  0  0  0  0
  4  5  2  0  0  0  0
  4  3  1  0  0  0  0
  5  6  1  0  0  0  0
  6  1  2  0  0  0  0
  8  3  1  0  0  0  0
  9 10  2  0  0  0  0
  9 20  1  0  0  0  0
 10 14  1  0  0  0  0
 11 15  1  0  0  0  0
 11 10  1  0  0  0  0
 12 11  2  0  0  0  0
 13 12  1  0  0  0  0
 13  9  1  0  0  0  0
 16 17  1  0  0  0  0
 17 18  2  0  0  0  0
 17 23  1  0  0  0  0
 18 24  1  0  0  0  0
 19 18  1  0  0  0  0
 20 19  2  0  0  0  0
 21 20  1  0  0  0  0
 21 16  2  0  0  0  0
 22 16  1  0  0  0  0
 25 26  2  0  0  0  0
 25  5  1  0  0  0  0
 27 30  1  6  0  0  0
 27 28  1  0  0  0  0
 27 25  1  0  0  0  0
 28 31  1  0  0  0  0
 29 27  1  0  0  0  0
 29 33  1  1  0  0  0
 29 28  1  0  0  0  0
 32 28  1  0  0  0  0
 34 29  1  0  0  0  0
 35 36  1  0  0  0  0
 35 34  2  0  0  0  0
 37 35  1  0  0  0  0
 38 37  2  0  0  0  0
 38 44  1  0  0  0  0
 39 38  1  0  0  0  0
 40 39  2  0  0  0  0
 40 42  1  0  0  0  0
 41 40  1  0  0  0  0
 42 43  2  0  0  0  0
 43 44  1  0  0  0  0
 44 45  2  0  0  0  0
 45 34  1  0  0  0  0
M  END
>  <minimizedAffinity>
-6.85490656

>  <minimizedRMSD>
0.703033328

$$$$
