
 OpenBabel03212520053D

 44 49  0  0  0  0  0  0  0  0999 V2000
   40.6810   81.8020   57.0980 C   0  0  0  0  0  0  0  0  0  0  0  0
   41.7720   82.3530   56.4080 C   0  0  0  0  0  0  0  0  0  0  0  0
   42.5760   83.2470   57.0980 C   0  0  0  0  0  0  0  0  0  0  0  0
   42.2960   83.5550   58.3860 N   0  0  0  0  0  0  0  0  0  0  0  0
   41.2320   83.0000   59.0270 C   0  0  0  0  0  0  0  0  0  0  0  0
   40.4160   82.1190   58.3820 N   0  0  0  0  0  0  0  0  0  0  0  0
   39.9700   81.0980   56.6960 H   0  0  0  0  0  0  0  0  0  0  0  0
   41.8120   81.9350   55.4330 H   0  0  0  0  0  0  0  0  0  0  0  0
   39.6700   83.1090   60.9070 C   0  0  0  0  0  0  0  0  0  0  0  0
   40.9690   83.3050   60.4230 C   0  0  0  0  0  0  0  0  0  0  0  0
   41.9970   83.7560   61.2520 C   0  0  0  0  0  0  0  0  0  0  0  0
   41.7700   84.0270   62.5870 C   0  0  0  0  0  0  0  0  0  0  0  0
   42.4720   84.4530   63.6490 N   0  0  0  0  0  0  0  0  0  0  0  0
   41.6850   84.5280   64.7460 C   0  0  0  0  0  0  0  0  0  0  0  0
   40.4770   84.1360   64.3210 N   0  0  0  0  0  0  0  0  0  0  0  0
   40.4880   83.8240   63.0230 C   0  0  0  0  0  0  0  0  0  0  0  0
   39.4300   83.3820   62.2600 C   0  0  0  0  0  0  0  0  0  0  0  0
   38.8670   82.7630   60.2830 H   0  0  0  0  0  0  0  0  0  0  0  0
   43.0030   83.9060   60.8730 H   0  0  0  0  0  0  0  0  0  0  0  0
   43.4900   84.6860   63.6030 H   0  0  0  0  0  0  0  0  0  0  0  0
   42.0260   84.8480   65.7300 H   0  0  0  0  0  0  0  0  0  0  0  0
   38.4380   83.2450   62.6740 H   0  0  0  0  0  0  0  0  0  0  0  0
   42.4190   83.4780   54.1280 Cl  0  0  0  0  0  0  0  0  0  0  0  0
   43.7890   84.0130   55.0870 C   0  0  0  0  0  0  0  0  0  0  0  0
   43.7090   83.8600   56.4460 C   0  0  0  0  0  0  0  0  0  0  0  0
   44.8210   84.3430   57.1350 C   0  0  0  0  0  0  0  0  0  0  0  0
   45.9130   84.9250   56.5350 C   0  0  0  0  0  0  0  0  0  0  0  0
   45.9220   85.0450   55.1440 C   0  0  0  0  0  0  0  0  0  0  0  0
   47.2880   85.7780   54.3480 Cl  0  0  0  0  0  0  0  0  0  0  0  0
   44.8430   84.5810   54.4160 C   0  0  0  0  0  0  0  0  0  0  0  0
   44.8440   84.2650   58.2110 H   0  0  0  0  0  0  0  0  0  0  0  0
   46.7370   85.2760   57.1400 H   0  0  0  0  0  0  0  0  0  0  0  0
   44.8960   84.7280   52.9650 C   0  0  0  0  0  0  0  0  0  0  0  0
   45.3680   83.8600   52.0340 C   0  0  0  0  0  0  0  0  0  0  0  0
   45.7510   82.9490   52.4300 H   0  0  0  0  0  0  0  0  0  0  0  0
   45.3190   84.2120   50.6810 C   0  0  0  0  0  3  0  0  0  0  0  0
   44.7980   85.4300   50.2730 C   0  0  0  0  0  0  0  0  0  0  0  0
   44.7590   85.7520   48.9580 N   0  0  0  0  0  0  0  0  0  0  0  0
   44.2450   86.9450   48.5950 C   0  0  0  0  0  0  0  0  0  0  0  0
   44.2210   87.1890   47.5250 H   0  0  0  0  0  0  0  0  0  0  0  0
   43.7440   87.8840   49.4730 C   0  0  0  0  0  3  0  0  0  0  0  0
   43.7930   87.5340   50.8070 C   0  0  0  0  0  3  0  0  0  0  0  0
   44.3150   86.3140   51.2310 C   0  0  0  0  0  0  0  0  0  0  0  0
   44.3650   85.9630   52.5780 C   0  0  0  0  0  3  0  0  0  0  0  0
  1  6  1  0  0  0  0
  2  3  1  0  0  0  0
  2  1  2  0  0  0  0
  3  4  2  0  0  0  0
  4  5  1  0  0  0  0
  5 10  1  0  0  0  0
  6  5  2  0  0  0  0
  7  1  1  0  0  0  0
  8  2  1  0  0  0  0
  9 17  1  0  0  0  0
 10  9  2  0  0  0  0
 10 11  1  0  0  0  0
 11 12  2  0  0  0  0
 12 16  1  0  0  0  0
 12 13  1  0  0  0  0
 13 14  1  0  0  0  0
 14 21  1  0  0  0  0
 15 14  2  0  0  0  0
 16 15  1  0  0  0  0
 17 22  1  0  0  0  0
 17 16  2  0  0  0  0
 18  9  1  0  0  0  0
 19 11  1  0  0  0  0
 20 13  1  0  0  0  0
 23 24  1  0  0  0  0
 24 25  1  0  0  0  0
 25  3  1  0  0  0  0
 25 26  2  0  0  0  0
 26 31  1  0  0  0  0
 27 26  1  0  0  0  0
 27 32  1  0  0  0  0
 28 27  2  0  0  0  0
 29 28  1  0  0  0  0
 30 24  2  0  0  0  0
 30 28  1  0  0  0  0
 33 30  1  0  0  0  0
 34 35  1  0  0  0  0
 34 33  2  0  0  0  0
 36 34  1  0  0  0  0
 37 36  2  0  0  0  0
 37 43  1  0  0  0  0
 38 37  1  0  0  0  0
 39 38  2  0  0  0  0
 39 41  1  0  0  0  0
 40 39  1  0  0  0  0
 41 42  2  0  0  0  0
 42 43  1  0  0  0  0
 43 44  2  0  0  0  0
 44 33  1  0  0  0  0
M  END
>  <minimizedAffinity>
-5.26847839

>  <minimizedRMSD>
0.691152155

$$$$
