
 OpenBabel03212520273D

 31 34  0  0  0  0  0  0  0  0999 V2000
   42.4770   84.8280   61.1780 C   0  0  0  0  0  0  0  0  0  0  0  0
   43.4830   85.1690   62.0710 C   0  0  0  0  0  0  0  0  0  0  0  0
   44.1550   86.1760   61.3520 C   0  0  0  0  0  0  0  0  0  0  0  0
   43.5770   86.3830   60.1570 N   0  0  0  0  0  0  0  0  0  0  0  0
   42.5510   85.5490   60.0700 N   0  0  0  0  0  0  0  0  0  0  0  0
   43.7320   84.8000   63.0570 H   0  0  0  0  0  0  0  0  0  0  0  0
   45.0370   86.7020   61.7490 H   0  0  0  0  0  0  0  0  0  0  0  0
   40.8150   81.5480   61.7880 C   0  0  0  0  0  0  0  0  0  0  0  0
   41.8330   82.4720   61.5330 C   0  0  0  0  0  0  0  0  0  0  0  0
   41.4750   83.8070   61.4420 C   0  0  0  0  0  0  0  0  0  0  0  0
   40.1660   84.1700   61.6000 N   0  0  0  0  0  0  0  0  0  0  0  0
   39.2190   83.2240   61.8460 C   0  0  0  0  0  0  0  0  0  0  0  0
   39.5490   81.9310   61.9380 N   0  0  0  0  0  0  0  0  0  0  0  0
   41.0190   80.4980   61.8720 H   0  0  0  0  0  0  0  0  0  0  0  0
   42.8550   82.1360   61.4150 H   0  0  0  0  0  0  0  0  0  0  0  0
   38.2430   83.6630   61.9460 H   0  0  0  0  0  0  0  0  0  0  0  0
   44.0130   87.3480   59.1620 C   0  0  0  0  0  0  0  0  0  0  0  0
   44.4410   88.2560   59.6260 H   0  0  0  0  0  0  0  0  0  0  0  0
   43.1180   87.6440   58.5440 H   0  0  0  0  0  0  0  0  0  0  0  0
   45.0550   86.7100   58.3380 C   0  0  0  0  0  0  0  0  0  0  0  0
   45.6500   87.4370   57.3230 C   0  0  0  0  0  0  0  0  0  0  0  0
   45.3230   88.4730   57.1650 H   0  0  0  0  0  0  0  0  0  0  0  0
   46.6350   86.9940   56.4620 C   0  0  0  0  0  3  0  0  0  0  0  0
   47.0600   85.7000   56.6420 C   0  0  0  0  0  0  0  0  0  0  0  0
   48.0150   85.2390   55.8210 N   0  0  0  0  0  0  0  0  0  0  0  0
   48.4990   83.9810   55.9180 C   0  0  0  0  0  0  0  0  0  0  0  0
   49.2650   83.5530   55.2890 H   0  0  0  0  0  0  0  0  0  0  0  0
   47.9460   83.2030   56.9110 C   0  0  0  0  0  3  0  0  0  0  0  0
   46.9640   83.6210   57.7810 C   0  0  0  0  0  3  0  0  0  0  0  0
   46.5020   84.9260   57.6380 C   0  0  0  0  0  0  0  0  0  0  0  0
   45.5200   85.4170   58.4710 C   0  0  0  0  0  3  0  0  0  0  0  0
  1 10  1  0  0  0  0
  1  2  1  0  0  0  0
  2  6  1  0  0  0  0
  3  7  1  0  0  0  0
  3  2  2  0  0  0  0
  4  3  1  0  0  0  0
  5  4  1  0  0  0  0
  5  1  2  0  0  0  0
  8 14  1  0  0  0  0
  8 13  1  0  0  0  0
  9  8  2  0  0  0  0
 10  9  1  0  0  0  0
 10 11  2  0  0  0  0
 11 12  1  0  0  0  0
 12 13  2  0  0  0  0
 12 16  1  0  0  0  0
 15  9  1  0  0  0  0
 17 18  1  0  0  0  0
 17  4  1  0  0  0  0
 19 17  1  0  0  0  0
 20 31  1  0  0  0  0
 20 17  1  0  0  0  0
 21 20  2  0  0  0  0
 22 21  1  0  0  0  0
 23 24  2  0  0  0  0
 23 21  1  0  0  0  0
 24 30  1  0  0  0  0
 25 26  2  0  0  0  0
 25 24  1  0  0  0  0
 26 28  1  0  0  0  0
 27 26  1  0  0  0  0
 28 29  2  0  0  0  0
 30 29  1  0  0  0  0
 30 31  2  0  0  0  0
M  END
>  <minimizedAffinity>
-4.2216959

>  <minimizedRMSD>
0.300739557

$$$$
