
 OpenBabel03212520053D

 44 49  0  0  0  0  0  0  0  0999 V2000
   40.0930   80.9400   57.4820 C   0  0  0  0  0  0  0  0  0  0  0  0
   41.2670   81.0930   56.7270 C   0  0  0  0  0  0  0  0  0  0  0  0
   42.2920   81.8400   57.2880 C   0  0  0  0  0  0  0  0  0  0  0  0
   42.1370   82.3870   58.5170 N   0  0  0  0  0  0  0  0  0  0  0  0
   40.9880   82.2170   59.2230 C   0  0  0  0  0  0  0  0  0  0  0  0
   39.9560   81.4910   58.7050 N   0  0  0  0  0  0  0  0  0  0  0  0
   39.2160   80.3910   57.1790 H   0  0  0  0  0  0  0  0  0  0  0  0
   41.1710   80.5460   55.8230 H   0  0  0  0  0  0  0  0  0  0  0  0
   39.5630   82.9140   61.0860 C   0  0  0  0  0  0  0  0  0  0  0  0
   40.8520   82.7700   60.5600 C   0  0  0  0  0  0  0  0  0  0  0  0
   41.9850   83.1230   61.2950 C   0  0  0  0  0  0  0  0  0  0  0  0
   41.8750   83.6280   62.5760 C   0  0  0  0  0  0  0  0  0  0  0  0
   42.6930   84.0550   63.5500 N   0  0  0  0  0  0  0  0  0  0  0  0
   41.9870   84.4490   64.6330 C   0  0  0  0  0  0  0  0  0  0  0  0
   40.7080   84.2490   64.2910 N   0  0  0  0  0  0  0  0  0  0  0  0
   40.5990   83.7540   63.0550 C   0  0  0  0  0  0  0  0  0  0  0  0
   39.4410   83.4270   62.3840 C   0  0  0  0  0  0  0  0  0  0  0  0
   38.6800   82.6490   60.5340 H   0  0  0  0  0  0  0  0  0  0  0  0
   42.9820   83.0080   60.8830 H   0  0  0  0  0  0  0  0  0  0  0  0
   43.7340   84.0690   63.4540 H   0  0  0  0  0  0  0  0  0  0  0  0
   42.4280   84.8350   65.5520 H   0  0  0  0  0  0  0  0  0  0  0  0
   38.4620   83.5550   62.8290 H   0  0  0  0  0  0  0  0  0  0  0  0
   42.5910   84.4790   55.9270 Cl  0  0  0  0  0  0  0  0  0  0  0  0
   43.7920   83.1990   55.8710 C   0  0  0  0  0  0  0  0  0  0  0  0
   43.5230   82.0470   56.5630 C   0  0  0  0  0  0  0  0  0  0  0  0
   44.5420   81.0980   56.4960 C   0  0  0  0  0  0  0  0  0  0  0  0
   45.7190   81.2700   55.8080 C   0  0  0  0  0  0  0  0  0  0  0  0
   45.9210   82.4720   55.1250 C   0  0  0  0  0  0  0  0  0  0  0  0
   47.4020   82.7270   54.2430 Cl  0  0  0  0  0  0  0  0  0  0  0  0
   44.9400   83.4440   55.1610 C   0  0  0  0  0  0  0  0  0  0  0  0
   44.4160   80.1580   57.0130 H   0  0  0  0  0  0  0  0  0  0  0  0
   46.4620   80.4840   55.8050 H   0  0  0  0  0  0  0  0  0  0  0  0
   45.1940   84.6830   54.4330 C   0  0  0  0  0  0  0  0  0  0  0  0
   45.9440   85.7530   54.7980 C   0  0  0  0  0  0  0  0  0  0  0  0
   46.4070   85.6650   55.7530 H   0  0  0  0  0  0  0  0  0  0  0  0
   46.0500   86.8470   53.9320 C   0  0  0  0  0  3  0  0  0  0  0  0
   45.4030   86.8580   52.7070 C   0  0  0  0  0  0  0  0  0  0  0  0
   45.5160   87.9260   51.8810 N   0  0  0  0  0  0  0  0  0  0  0  0
   44.8750   87.9050   50.6970 C   0  0  0  0  0  0  0  0  0  0  0  0
   44.9770   88.7800   50.0410 H   0  0  0  0  0  0  0  0  0  0  0  0
   44.0920   86.8610   50.2450 C   0  0  0  0  0  3  0  0  0  0  0  0
   43.9910   85.7840   51.1020 C   0  0  0  0  0  3  0  0  0  0  0  0
   44.6350   85.7580   52.3370 C   0  0  0  0  0  0  0  0  0  0  0  0
   44.5310   84.6700   53.2000 C   0  0  0  0  0  3  0  0  0  0  0  0
  1  6  1  0  0  0  0
  2  3  1  0  0  0  0
  2  1  2  0  0  0  0
  3  4  2  0  0  0  0
  4  5  1  0  0  0  0
  5 10  1  0  0  0  0
  6  5  2  0  0  0  0
  7  1  1  0  0  0  0
  8  2  1  0  0  0  0
  9 17  1  0  0  0  0
 10  9  2  0  0  0  0
 10 11  1  0  0  0  0
 11 12  2  0  0  0  0
 12 16  1  0  0  0  0
 12 13  1  0  0  0  0
 13 14  1  0  0  0  0
 14 21  1  0  0  0  0
 15 14  2  0  0  0  0
 16 15  1  0  0  0  0
 17 22  1  0  0  0  0
 17 16  2  0  0  0  0
 18  9  1  0  0  0  0
 19 11  1  0  0  0  0
 20 13  1  0  0  0  0
 24 23  1  0  0  0  0
 24 25  1  0  0  0  0
 25  3  1  0  0  0  0
 26 25  2  0  0  0  0
 26 31  1  0  0  0  0
 27 26  1  0  0  0  0
 28 30  1  0  0  0  0
 28 27  2  0  0  0  0
 29 28  1  0  0  0  0
 30 24  2  0  0  0  0
 32 27  1  0  0  0  0
 33 34  1  0  0  0  0
 33 30  1  0  0  0  0
 34 35  1  0  0  0  0
 36 34  2  0  0  0  0
 37 36  1  0  0  0  0
 38 37  2  0  0  0  0
 39 38  1  0  0  0  0
 40 39  1  0  0  0  0
 41 39  2  0  0  0  0
 41 42  1  0  0  0  0
 42 43  2  0  0  0  0
 43 37  1  0  0  0  0
 43 44  1  0  0  0  0
 44 33  2  0  0  0  0
M  END
>  <minimizedAffinity>
-4.9295578

>  <minimizedRMSD>
2.20149159

$$$$
