
 OpenBabel03212520203D

 39 42  0  0  0  0  0  0  0  0999 V2000
   43.2600   83.8700   58.5680 Cl  0  0  0  0  0  0  0  0  0  0  0  0
   41.9840   82.7530   58.1480 C   0  0  0  0  0  0  0  0  0  0  0  0
   41.0640   82.2630   59.0740 C   0  0  0  0  0  0  0  0  0  0  0  0
   40.1100   81.3830   58.5900 C   0  0  0  0  0  0  0  0  0  0  0  0
   39.9790   80.9470   57.2930 C   0  0  0  0  0  0  0  0  0  0  0  0
   40.8950   81.4460   56.4120 C   0  0  0  0  0  0  0  0  0  0  0  0
   40.8590   80.9820   54.7150 Cl  0  0  0  0  0  0  0  0  0  0  0  0
   41.8880   82.3400   56.8360 C   0  0  0  0  0  0  0  0  0  0  0  0
   39.4260   81.0420   59.3650 H   0  0  0  0  0  0  0  0  0  0  0  0
   39.2090   80.2640   56.9980 H   0  0  0  0  0  0  0  0  0  0  0  0
   42.0150   82.1700   61.4320 C   0  0  0  0  0  0  0  0  0  0  0  0
   41.1640   82.6890   60.4250 C   0  0  0  0  0  0  0  0  0  0  0  0
   40.3220   83.7380   60.7890 C   0  0  0  0  0  0  0  0  0  0  0  0
   40.3950   84.1690   62.0850 N   0  0  0  0  0  0  0  0  0  0  0  0
   41.2080   83.6560   63.0050 C   0  0  0  0  0  0  0  0  0  0  0  0
   42.0350   82.6370   62.6740 N   0  0  0  0  0  0  0  0  0  0  0  0
   42.6500   81.3560   61.1010 H   0  0  0  0  0  0  0  0  0  0  0  0
   39.6300   84.2120   60.1030 H   0  0  0  0  0  0  0  0  0  0  0  0
   41.1160   84.2850   64.3520 C   0  0  0  0  0  0  0  0  0  0  0  0
   40.7170   85.6020   64.2940 F   0  0  0  0  0  0  0  0  0  0  0  0
   40.2120   83.5770   65.1430 F   0  0  0  0  0  0  0  0  0  0  0  0
   42.3810   84.2910   64.9780 F   0  0  0  0  0  0  0  0  0  0  0  0
   42.7950   82.8190   55.9060 O   0  0  0  0  0  0  0  0  0  0  0  0
   42.5810   83.9030   55.0640 C   0  0  0  0  0  0  0  0  0  0  0  0
   42.3290   83.6170   54.0230 H   0  0  0  0  0  0  0  0  0  0  0  0
   41.7840   84.6020   55.3920 H   0  0  0  0  0  0  0  0  0  0  0  0
   43.7700   84.6510   54.9800 O   0  0  0  0  0  0  0  0  0  0  0  0
   44.5930   84.7550   53.8840 C   0  0  0  0  0  0  0  0  0  0  0  0
   45.5830   85.6670   53.5960 C   0  0  0  0  0  0  0  0  0  0  0  0
   45.7070   86.4020   54.3740 H   0  0  0  0  0  0  0  0  0  0  0  0
   46.3140   85.6290   52.4530 C   0  0  0  0  0  3  0  0  0  0  0  0
   46.0260   84.6050   51.5420 C   0  0  0  0  0  0  0  0  0  0  0  0
   46.7530   84.5570   50.3900 N   0  0  0  0  0  0  0  0  0  0  0  0
   46.5550   83.6140   49.4520 C   0  0  0  0  0  0  0  0  0  0  0  0
   47.1320   83.5700   48.5310 H   0  0  0  0  0  0  0  0  0  0  0  0
   45.5730   82.6510   49.6610 C   0  0  0  0  0  3  0  0  0  0  0  0
   44.8230   82.6810   50.8210 C   0  0  0  0  0  3  0  0  0  0  0  0
   45.0480   83.6590   51.7680 C   0  0  0  0  0  0  0  0  0  0  0  0
   44.3200   83.7380   52.9600 C   0  0  0  0  0  3  0  0  0  0  0  0
  2  1  1  0  0  0  0
  2  3  1  0  0  0  0
  3 12  1  0  0  0  0
  4  3  2  0  0  0  0
  4  9  1  0  0  0  0
  5  4  1  0  0  0  0
  6  8  1  0  0  0  0
  6  5  2  0  0  0  0
  7  6  1  0  0  0  0
  8  2  2  0  0  0  0
 10  5  1  0  0  0  0
 11 16  1  0  0  0  0
 12 13  1  0  0  0  0
 12 11  2  0  0  0  0
 13 14  2  0  0  0  0
 14 15  1  0  0  0  0
 15 19  1  0  0  0  0
 16 15  2  0  0  0  0
 17 11  1  0  0  0  0
 18 13  1  0  0  0  0
 19 22  1  0  0  0  0
 19 21  1  0  0  0  0
 20 19  1  0  0  0  0
 23  8  1  0  0  0  0
 24 26  1  0  0  0  0
 24 23  1  0  0  0  0
 25 24  1  0  0  0  0
 27 24  1  0  0  0  0
 28 27  1  0  0  0  0
 29 28  1  0  0  0  0
 29 30  1  0  0  0  0
 31 29  2  0  0  0  0
 32 38  1  0  0  0  0
 32 31  1  0  0  0  0
 33 32  2  0  0  0  0
 34 36  2  0  0  0  0
 34 33  1  0  0  0  0
 35 34  1  0  0  0  0
 36 37  1  0  0  0  0
 37 38  2  0  0  0  0
 38 39  1  0  0  0  0
 39 28  2  0  0  0  0
M  END
>  <minimizedAffinity>
-4.82747221

>  <minimizedRMSD>
2.02305317

$$$$
