
 OpenBabel03212521003D

 45 50  0  0  1  0  0  0  0  0999 V2000
   39.6190   77.0830   59.1780 C   0  0  0  0  0  0  0  0  0  0  0  0
   40.2600   75.8950   58.9440 C   0  0  0  0  0  0  0  0  0  0  0  0
   39.6740   75.1670   57.8920 C   0  0  0  0  0  0  0  0  0  0  0  0
   38.6070   75.5780   57.1860 N   0  0  0  0  0  0  0  0  0  0  0  0
   38.0390   76.7830   57.4970 C   0  0  0  0  0  0  0  0  0  0  0  0
   38.5610   77.5170   58.4950 N   0  0  0  0  0  0  0  0  0  0  0  0
   41.1130   75.5280   59.4820 H   0  0  0  0  0  0  0  0  0  0  0  0
   40.1220   74.1950   57.6320 H   0  0  0  0  0  0  0  0  0  0  0  0
   40.9200   80.0710   61.6120 C   0  0  0  0  0  0  0  0  0  0  0  0
   40.8790   78.8590   62.2470 C   0  0  0  0  0  0  0  0  0  0  0  0
   40.4710   77.7830   61.5570 C   0  0  0  0  0  0  0  0  0  0  0  0
   40.1020   77.9420   60.2250 C   0  0  0  0  0  0  0  0  0  0  0  0
   40.3520   79.7440   59.9170 S   0  0  0  0  0  0  0  0  0  0  0  0
   41.1680   78.7370   63.3020 H   0  0  0  0  0  0  0  0  0  0  0  0
   40.3710   76.7540   61.8760 H   0  0  0  0  0  0  0  0  0  0  0  0
   43.0810   82.8550   62.6330 C   0  0  0  0  0  0  0  0  0  0  0  0
   42.2250   83.6550   63.4040 C   0  0  0  0  0  0  0  0  0  0  0  0
   40.8950   83.2440   63.5810 C   0  0  0  0  0  0  0  0  0  0  0  0
   40.5150   82.0910   62.9900 N   0  0  0  0  0  0  0  0  0  0  0  0
   41.3600   81.3400   62.2530 C   0  0  0  0  0  0  0  0  0  0  0  0
   42.6270   81.7220   62.0790 N   0  0  0  0  0  0  0  0  0  0  0  0
   44.1180   83.1490   62.4800 H   0  0  0  0  0  0  0  0  0  0  0  0
   42.5530   84.5730   63.8650 H   0  0  0  0  0  0  0  0  0  0  0  0
   40.1710   83.7980   64.1580 H   0  0  0  0  0  0  0  0  0  0  0  0
   36.8930   77.2080   56.7200 C   0  0  0  0  0  0  0  0  0  0  0  0
   35.7850   77.1900   57.2870 O   0  0  0  0  0  0  0  0  0  0  0  0
   37.0160   77.6470   55.2770 C   0  0  1  0  0  0  0  0  0  0  0  0
   37.3910   79.1080   55.1580 C   0  0  0  0  0  0  0  0  0  0  0  0
   38.3060   78.0000   54.7450 C   0  0  2  0  0  0  0  0  0  0  0  0
   36.0720   77.4340   54.7060 H   0  0  0  0  0  0  0  0  0  0  0  0
   37.5690   79.6910   56.0720 H   0  0  0  0  0  0  0  0  0  0  0  0
   36.8860   79.6900   54.3730 H   0  0  0  0  0  0  0  0  0  0  0  0
   39.1720   77.8930   55.4530 H   0  0  0  0  0  0  0  0  0  0  0  0
   38.7090   78.0420   53.3400 C   0  0  0  0  0  0  0  0  0  0  0  0
   38.4880   79.2560   52.7140 C   0  0  0  0  0  0  0  0  0  0  0  0
   38.0480   80.1230   53.2340 H   0  0  0  0  0  0  0  0  0  0  0  0
   38.7910   79.5180   51.3850 C   0  0  0  0  0  3  0  0  0  0  0  0
   39.3450   78.4460   50.7170 C   0  0  0  0  0  0  0  0  0  0  0  0
   39.6440   78.6710   49.4050 N   0  0  0  0  0  0  0  0  0  0  0  0
   40.1840   77.6960   48.6450 C   0  0  0  0  0  0  0  0  0  0  0  0
   40.4050   77.9160   47.6080 H   0  0  0  0  0  0  0  0  0  0  0  0
   40.4550   76.4250   49.1690 C   0  0  0  0  0  3  0  0  0  0  0  0
   40.1550   76.1740   50.5120 C   0  0  0  0  0  3  0  0  0  0  0  0
   39.6090   77.1970   51.2390 C   0  0  0  0  0  0  0  0  0  0  0  0
   39.2750   77.0190   52.5810 C   0  0  0  0  0  3  0  0  0  0  0  0
  1 12  1  0  0  0  0
  2  1  1  0  0  0  0
  2  7  1  0  0  0  0
  3  2  2  0  0  0  0
  4  5  2  0  0  0  0
  4  3  1  0  0  0  0
  5  6  1  0  0  0  0
  6  1  2  0  0  0  0
  8  3  1  0  0  0  0
  9 10  2  0  0  0  0
  9 20  1  0  0  0  0
 10 14  1  0  0  0  0
 11 15  1  0  0  0  0
 11 10  1  0  0  0  0
 12 11  2  0  0  0  0
 13 12  1  0  0  0  0
 13  9  1  0  0  0  0
 16 17  1  0  0  0  0
 17 18  2  0  0  0  0
 17 23  1  0  0  0  0
 18 24  1  0  0  0  0
 19 18  1  0  0  0  0
 20 19  2  0  0  0  0
 21 20  1  0  0  0  0
 21 16  2  0  0  0  0
 22 16  1  0  0  0  0
 25 26  2  0  0  0  0
 25  5  1  0  0  0  0
 27 30  1  6  0  0  0
 27 25  1  0  0  0  0
 28 27  1  0  0  0  0
 28 31  1  0  0  0  0
 29 28  1  0  0  0  0
 29 27  1  0  0  0  0
 29 33  1  1  0  0  0
 32 28  1  0  0  0  0
 34 29  1  0  0  0  0
 35 36  1  0  0  0  0
 35 34  1  0  0  0  0
 37 35  2  0  0  0  0
 38 44  1  0  0  0  0
 38 37  1  0  0  0  0
 39 38  2  0  0  0  0
 40 42  2  0  0  0  0
 40 39  1  0  0  0  0
 41 40  1  0  0  0  0
 42 43  1  0  0  0  0
 43 44  2  0  0  0  0
 44 45  1  0  0  0  0
 45 34  2  0  0  0  0
M  END
>  <minimizedAffinity>
-6.76018667

>  <minimizedRMSD>
1.77150357

$$$$
