
 OpenBabel03212520323D

 44 48  0  0  0  0  0  0  0  0999 V2000
   43.2900   81.9150   62.3210 C   0  0  0  0  0  0  0  0  0  0  0  0
   43.4360   80.6160   61.8560 C   0  0  0  0  0  0  0  0  0  0  0  0
   44.5870   79.8970   62.1030 C   0  0  0  0  0  0  0  0  0  0  0  0
   45.6610   80.4190   62.8230 C   0  0  0  0  0  0  0  0  0  0  0  0
   45.5430   81.7010   63.2950 C   0  0  0  0  0  0  0  0  0  0  0  0
   44.3870   82.4210   63.0470 C   0  0  0  0  0  0  0  0  0  0  0  0
   44.6650   78.8840   61.7230 H   0  0  0  0  0  0  0  0  0  0  0  0
   46.5190   79.7770   62.9630 H   0  0  0  0  0  0  0  0  0  0  0  0
   46.3520   82.1300   63.8520 H   0  0  0  0  0  0  0  0  0  0  0  0
   44.3020   83.4350   63.4230 H   0  0  0  0  0  0  0  0  0  0  0  0
   40.3650   78.7610   60.9770 C   0  0  0  0  0  0  0  0  0  0  0  0
   40.3980   78.7660   59.5980 C   0  0  0  0  0  0  0  0  0  0  0  0
   41.4850   79.4100   58.9990 C   0  0  0  0  0  0  0  0  0  0  0  0
   42.4360   79.9900   59.7910 N   0  0  0  0  0  0  0  0  0  0  0  0
   42.3670   79.9630   61.1100 C   0  0  0  0  0  0  0  0  0  0  0  0
   41.3290   79.3480   61.6900 N   0  0  0  0  0  0  0  0  0  0  0  0
   39.5180   78.2590   61.4470 H   0  0  0  0  0  0  0  0  0  0  0  0
   41.5570   79.4400   57.9280 H   0  0  0  0  0  0  0  0  0  0  0  0
   39.3820   78.1490   58.8240 N   0  0  0  0  0  0  0  0  0  0  0  0
   39.0700   78.8370   57.7150 C   0  0  0  0  0  0  0  0  0  0  0  0
   38.0730   78.3040   56.8890 C   0  0  0  0  0  0  0  0  0  0  0  0
   37.4540   77.1130   57.2250 C   0  0  0  0  0  0  0  0  0  0  0  0
   36.5550   76.5760   56.5330 O   0  0  0  0  0  0  0  0  0  0  0  0
   37.8350   76.4820   58.3690 N   0  0  0  0  0  0  0  0  0  0  0  0
   38.8010   76.9900   59.1800 C   0  0  0  0  0  0  0  0  0  0  0  0
   39.1550   76.4170   60.2310 O   0  0  0  0  0  0  0  0  0  0  0  0
   39.5180   79.7560   57.4150 H   0  0  0  0  0  0  0  0  0  0  0  0
   37.7480   78.7640   55.9870 H   0  0  0  0  0  0  0  0  0  0  0  0
   37.4210   75.5920   58.6880 H   0  0  0  0  0  0  0  0  0  0  0  0
   41.8690   82.8470   62.0220 S   0  0  0  0  0  0  0  0  0  0  0  0
   41.8180   84.0250   62.9710 O   0  0  0  0  0  0  0  0  0  0  0  0
   40.6820   81.9850   62.4700 O   0  0  0  0  0  0  0  0  0  0  0  0
   41.6310   83.4800   60.4450 C   0  0  0  0  0  0  0  0  0  0  0  0
   40.6070   84.1380   59.7610 C   0  0  0  0  0  0  0  0  0  0  0  0
   39.7830   84.2370   60.4810 H   0  0  0  0  0  0  0  0  0  0  0  0
   40.6890   84.5470   58.4540 C   0  0  0  0  0  0  0  0  0  0  0  0
   41.8340   84.3150   57.7280 C   0  0  0  0  0  0  0  0  0  0  0  0
   41.7960   84.7590   56.4680 N   0  0  0  0  0  0  0  0  0  0  0  0
   42.8800   84.5740   55.6800 C   0  0  0  0  0  0  0  0  0  0  0  0
   42.9090   84.9070   54.6630 H   0  0  0  0  0  0  0  0  0  0  0  0
   43.9700   83.9360   56.2270 C   0  0  0  0  0  0  0  0  0  0  0  0
   43.9840   83.4890   57.5320 C   0  0  0  0  0  0  0  0  0  0  0  0
   42.8850   83.6700   58.3440 C   0  0  0  0  0  0  0  0  0  0  0  0
   42.7800   83.2610   59.6810 C   0  0  0  0  0  0  0  0  0  0  0  0
  1  6  1  0  0  0  0
  2  3  1  0  0  0  0
  2  1  2  0  0  0  0
  3  4  2  0  0  0  0
  4  8  1  0  0  0  0
  4  5  1  0  0  0  0
  5  9  1  0  0  0  0
  6  5  2  0  0  0  0
  6 10  1  0  0  0  0
  7  3  1  0  0  0  0
 11 17  1  0  0  0  0
 11 16  1  0  0  0  0
 12 11  2  0  0  0  0
 13 12  1  0  0  0  0
 13 14  2  0  0  0  0
 14 15  1  0  0  0  0
 15 16  2  0  0  0  0
 15  2  1  0  0  0  0
 18 13  1  0  0  0  0
 19 25  1  0  0  0  0
 19 12  1  0  0  0  0
 20 19  1  0  0  0  0
 21 22  1  0  0  0  0
 21 20  2  0  0  0  0
 22 24  1  0  0  0  0
 23 22  2  0  0  0  0
 24 29  1  0  0  0  0
 24 25  1  0  0  0  0
 25 26  2  0  0  0  0
 27 20  1  0  0  0  0
 28 21  1  0  0  0  0
 30  1  1  0  0  0  0
 30 32  2  0  0  0  0
 30 31  2  0  0  0  0
 33 30  1  0  0  0  0
 34 33  1  0  0  0  0
 34 35  1  0  0  0  0
 36 34  2  0  0  0  0
 37 43  1  0  0  0  0
 37 36  1  0  0  0  0
 38 37  2  0  0  0  0
 39 41  2  0  0  0  0
 39 38  1  0  0  0  0
 40 39  1  0  0  0  0
 41 42  1  0  0  0  0
 42 43  2  0  0  0  0
 43 44  1  0  0  0  0
 44 33  2  0  0  0  0
M  END
>  <minimizedAffinity>
-6.85299158

>  <minimizedRMSD>
3.18857837

$$$$
