
 OpenBabel03212521003D

 45 50  0  0  1  0  0  0  0  0999 V2000
   39.7980   77.4070   59.1860 C   0  0  0  0  0  0  0  0  0  0  0  0
   40.5210   76.2880   58.8680 C   0  0  0  0  0  0  0  0  0  0  0  0
   39.9640   75.5780   57.7880 C   0  0  0  0  0  0  0  0  0  0  0  0
   38.8490   75.9430   57.1330 N   0  0  0  0  0  0  0  0  0  0  0  0
   38.1990   77.0800   57.5280 C   0  0  0  0  0  0  0  0  0  0  0  0
   38.6910   77.7940   58.5550 N   0  0  0  0  0  0  0  0  0  0  0  0
   41.4150   75.9600   59.3630 H   0  0  0  0  0  0  0  0  0  0  0  0
   40.4780   74.6610   57.4610 H   0  0  0  0  0  0  0  0  0  0  0  0
   40.9730   80.3400   61.7470 C   0  0  0  0  0  0  0  0  0  0  0  0
   40.9700   79.1030   62.3340 C   0  0  0  0  0  0  0  0  0  0  0  0
   40.6050   78.0420   61.5990 C   0  0  0  0  0  0  0  0  0  0  0  0
   40.2420   78.2400   60.2710 C   0  0  0  0  0  0  0  0  0  0  0  0
   40.4300   80.0600   60.0360 S   0  0  0  0  0  0  0  0  0  0  0  0
   41.2540   78.9500   63.3870 H   0  0  0  0  0  0  0  0  0  0  0  0
   40.5390   76.9980   61.8760 H   0  0  0  0  0  0  0  0  0  0  0  0
   43.0300   83.1490   62.9070 C   0  0  0  0  0  0  0  0  0  0  0  0
   42.1370   83.8930   63.6920 C   0  0  0  0  0  0  0  0  0  0  0  0
   40.8180   83.4360   63.8300 C   0  0  0  0  0  0  0  0  0  0  0  0
   40.4830   82.2940   63.1910 N   0  0  0  0  0  0  0  0  0  0  0  0
   41.3620   81.5970   62.4420 C   0  0  0  0  0  0  0  0  0  0  0  0
   42.6200   82.0240   62.3050 N   0  0  0  0  0  0  0  0  0  0  0  0
   44.0590   83.4790   62.7830 H   0  0  0  0  0  0  0  0  0  0  0  0
   42.4280   84.8040   64.1910 H   0  0  0  0  0  0  0  0  0  0  0  0
   40.0680   83.9460   64.4140 H   0  0  0  0  0  0  0  0  0  0  0  0
   37.0030   77.4570   56.8040 C   0  0  0  0  0  0  0  0  0  0  0  0
   35.9190   77.0160   57.2310 O   0  0  0  0  0  0  0  0  0  0  0  0
   37.0490   78.3380   55.5740 C   0  0  1  0  0  0  0  0  0  0  0  0
   37.2920   79.7900   55.9250 C   0  0  0  0  0  0  0  0  0  0  0  0
   38.2880   78.9570   55.1850 C   0  0  2  0  0  0  0  0  0  0  0  0
   36.1120   78.2310   54.9630 H   0  0  0  0  0  0  0  0  0  0  0  0
   37.4420   80.0690   56.9770 H   0  0  0  0  0  0  0  0  0  0  0  0
   36.7170   80.5410   55.3630 H   0  0  0  0  0  0  0  0  0  0  0  0
   39.1790   78.7120   55.8250 H   0  0  0  0  0  0  0  0  0  0  0  0
   38.6490   79.4760   53.8660 C   0  0  0  0  0  0  0  0  0  0  0  0
   37.5830   79.6440   53.0010 C   0  0  0  0  0  0  0  0  0  0  0  0
   36.5430   79.4080   53.2860 H   0  0  0  0  0  0  0  0  0  0  0  0
   37.6950   80.1190   51.7020 C   0  0  0  0  0  3  0  0  0  0  0  0
   38.9880   80.4210   51.3290 C   0  0  0  0  0  0  0  0  0  0  0  0
   39.1320   80.8810   50.0520 N   0  0  0  0  0  0  0  0  0  0  0  0
   40.3500   81.2030   49.5690 C   0  0  0  0  0  0  0  0  0  0  0  0
   40.4180   81.5650   48.5510 H   0  0  0  0  0  0  0  0  0  0  0  0
   41.5040   81.0780   50.3520 C   0  0  0  0  0  3  0  0  0  0  0  0
   41.3790   80.6070   51.6640 C   0  0  0  0  0  3  0  0  0  0  0  0
   40.1210   80.2950   52.1050 C   0  0  0  0  0  0  0  0  0  0  0  0
   39.9190   79.8100   53.3970 C   0  0  0  0  0  3  0  0  0  0  0  0
  1 12  1  0  0  0  0
  2  1  1  0  0  0  0
  2  7  1  0  0  0  0
  3  2  2  0  0  0  0
  4  5  2  0  0  0  0
  4  3  1  0  0  0  0
  5  6  1  0  0  0  0
  6  1  2  0  0  0  0
  8  3  1  0  0  0  0
  9 10  2  0  0  0  0
  9 20  1  0  0  0  0
 10 14  1  0  0  0  0
 11 15  1  0  0  0  0
 11 10  1  0  0  0  0
 12 11  2  0  0  0  0
 13 12  1  0  0  0  0
 13  9  1  0  0  0  0
 16 17  1  0  0  0  0
 17 18  2  0  0  0  0
 17 23  1  0  0  0  0
 18 24  1  0  0  0  0
 19 18  1  0  0  0  0
 20 19  2  0  0  0  0
 21 20  1  0  0  0  0
 21 16  2  0  0  0  0
 22 16  1  0  0  0  0
 25 26  2  0  0  0  0
 25  5  1  0  0  0  0
 27 30  1  6  0  0  0
 27 28  1  0  0  0  0
 27 25  1  0  0  0  0
 28 31  1  0  0  0  0
 29 27  1  0  0  0  0
 29 33  1  1  0  0  0
 29 28  1  0  0  0  0
 32 28  1  0  0  0  0
 34 29  1  0  0  0  0
 35 36  1  0  0  0  0
 35 34  2  0  0  0  0
 37 35  1  0  0  0  0
 38 37  2  0  0  0  0
 38 44  1  0  0  0  0
 39 38  1  0  0  0  0
 40 39  2  0  0  0  0
 40 42  1  0  0  0  0
 41 40  1  0  0  0  0
 42 43  2  0  0  0  0
 43 44  1  0  0  0  0
 44 45  2  0  0  0  0
 45 34  1  0  0  0  0
M  END
>  <minimizedAffinity>
-6.82229948

>  <minimizedRMSD>
0.654582739

$$$$
