
 OpenBabel03212520323D

 44 48  0  0  0  0  0  0  0  0999 V2000
   42.6900   81.7160   61.4650 C   0  0  0  0  0  0  0  0  0  0  0  0
   42.8790   80.6450   60.6040 C   0  0  0  0  0  0  0  0  0  0  0  0
   43.9400   79.7790   60.7670 C   0  0  0  0  0  0  0  0  0  0  0  0
   44.8770   79.9200   61.7900 C   0  0  0  0  0  0  0  0  0  0  0  0
   44.7140   80.9710   62.6570 C   0  0  0  0  0  0  0  0  0  0  0  0
   43.6480   81.8380   62.4920 C   0  0  0  0  0  0  0  0  0  0  0  0
   44.0560   78.9530   60.0730 H   0  0  0  0  0  0  0  0  0  0  0  0
   45.6730   79.1910   61.8340 H   0  0  0  0  0  0  0  0  0  0  0  0
   45.4180   81.1060   63.4530 H   0  0  0  0  0  0  0  0  0  0  0  0
   43.5260   82.6670   63.1820 H   0  0  0  0  0  0  0  0  0  0  0  0
   40.1270   79.2730   58.5560 C   0  0  0  0  0  0  0  0  0  0  0  0
   40.2400   79.9930   57.3850 C   0  0  0  0  0  0  0  0  0  0  0  0
   41.2680   80.9390   57.3260 C   0  0  0  0  0  0  0  0  0  0  0  0
   42.0900   81.0990   58.4070 N   0  0  0  0  0  0  0  0  0  0  0  0
   41.9480   80.3890   59.5120 C   0  0  0  0  0  0  0  0  0  0  0  0
   40.9650   79.4820   59.5740 N   0  0  0  0  0  0  0  0  0  0  0  0
   39.3250   78.5350   58.6050 H   0  0  0  0  0  0  0  0  0  0  0  0
   41.3980   81.5250   56.4350 H   0  0  0  0  0  0  0  0  0  0  0  0
   39.3580   79.7870   56.2930 N   0  0  0  0  0  0  0  0  0  0  0  0
   38.2410   80.5270   56.3680 C   0  0  0  0  0  0  0  0  0  0  0  0
   37.3090   80.3880   55.3320 C   0  0  0  0  0  0  0  0  0  0  0  0
   37.5570   79.5170   54.2860 C   0  0  0  0  0  0  0  0  0  0  0  0
   36.7690   79.3420   53.3240 O   0  0  0  0  0  0  0  0  0  0  0  0
   38.7180   78.8070   54.2920 N   0  0  0  0  0  0  0  0  0  0  0  0
   39.6310   78.9330   55.2910 C   0  0  0  0  0  0  0  0  0  0  0  0
   40.6960   78.2840   55.3040 O   0  0  0  0  0  0  0  0  0  0  0  0
   38.0070   81.2090   57.1520 H   0  0  0  0  0  0  0  0  0  0  0  0
   36.3920   80.9240   55.2900 H   0  0  0  0  0  0  0  0  0  0  0  0
   38.9750   78.1380   53.5480 H   0  0  0  0  0  0  0  0  0  0  0  0
   41.3800   82.8240   61.2860 S   0  0  0  0  0  0  0  0  0  0  0  0
   41.0670   83.4710   62.6170 O   0  0  0  0  0  0  0  0  0  0  0  0
   40.1310   81.9790   61.0050 O   0  0  0  0  0  0  0  0  0  0  0  0
   41.5470   84.1000   60.1500 C   0  0  0  0  0  0  0  0  0  0  0  0
   40.8820   84.5260   58.9990 C   0  0  0  0  0  0  0  0  0  0  0  0
   40.0590   83.8140   58.8500 H   0  0  0  0  0  0  0  0  0  0  0  0
   41.2440   85.6230   58.2580 C   0  0  0  0  0  3  0  0  0  0  0  0
   42.3260   86.3830   58.6350 C   0  0  0  0  0  0  0  0  0  0  0  0
   42.5810   87.4260   57.8360 N   0  0  0  0  0  0  0  0  0  0  0  0
   43.6280   88.2300   58.1310 C   0  0  0  0  0  0  0  0  0  0  0  0
   43.8820   89.0780   57.5300 H   0  0  0  0  0  0  0  0  0  0  0  0
   44.3760   87.9270   59.2460 C   0  0  0  0  0  3  0  0  0  0  0  0
   44.0920   86.8460   60.0540 C   0  0  0  0  0  3  0  0  0  0  0  0
   43.0280   86.0180   59.7640 C   0  0  0  0  0  0  0  0  0  0  0  0
   42.6410   84.8950   60.5060 C   0  0  0  0  0  3  0  0  0  0  0  0
  1  6  1  0  0  0  0
  2  3  1  0  0  0  0
  2  1  2  0  0  0  0
  3  4  2  0  0  0  0
  4  8  1  0  0  0  0
  4  5  1  0  0  0  0
  5  9  1  0  0  0  0
  6  5  2  0  0  0  0
  6 10  1  0  0  0  0
  7  3  1  0  0  0  0
 11 17  1  0  0  0  0
 11 16  1  0  0  0  0
 12 11  2  0  0  0  0
 13 12  1  0  0  0  0
 13 14  2  0  0  0  0
 14 15  1  0  0  0  0
 15 16  2  0  0  0  0
 15  2  1  0  0  0  0
 18 13  1  0  0  0  0
 19 20  1  0  0  0  0
 19 12  1  0  0  0  0
 20 27  1  0  0  0  0
 21 20  2  0  0  0  0
 22 24  1  0  0  0  0
 22 21  1  0  0  0  0
 23 22  2  0  0  0  0
 24 25  1  0  0  0  0
 25 26  2  0  0  0  0
 25 19  1  0  0  0  0
 28 21  1  0  0  0  0
 29 24  1  0  0  0  0
 30  1  1  0  0  0  0
 30 31  2  0  0  0  0
 32 30  2  0  0  0  0
 33 44  1  0  0  0  0
 33 30  1  0  0  0  0
 34 33  2  0  0  0  0
 35 34  1  0  0  0  0
 36 37  2  0  0  0  0
 36 34  1  0  0  0  0
 37 43  1  0  0  0  0
 38 39  2  0  0  0  0
 38 37  1  0  0  0  0
 39 41  1  0  0  0  0
 40 39  1  0  0  0  0
 41 42  2  0  0  0  0
 43 42  1  0  0  0  0
 43 44  2  0  0  0  0
M  END
>  <minimizedAffinity>
-6.36114645

>  <minimizedRMSD>
2.07398367

$$$$
