
 OpenBabel03212520273D

 31 34  0  0  0  0  0  0  0  0999 V2000
   42.4520   84.7980   61.2530 C   0  0  0  0  0  0  0  0  0  0  0  0
   43.3110   85.2530   62.2430 C   0  0  0  0  0  0  0  0  0  0  0  0
   44.1090   86.1580   61.5160 C   0  0  0  0  0  0  0  0  0  0  0  0
   43.7310   86.2070   60.2280 N   0  0  0  0  0  0  0  0  0  0  0  0
   42.7150   85.3680   60.0870 N   0  0  0  0  0  0  0  0  0  0  0  0
   43.3930   85.0160   63.2950 H   0  0  0  0  0  0  0  0  0  0  0  0
   44.9270   86.7310   61.9780 H   0  0  0  0  0  0  0  0  0  0  0  0
   40.6230   81.5830   61.7190 C   0  0  0  0  0  0  0  0  0  0  0  0
   41.6860   82.4640   61.4920 C   0  0  0  0  0  0  0  0  0  0  0  0
   41.4000   83.8190   61.4820 C   0  0  0  0  0  0  0  0  0  0  0  0
   40.1170   84.2440   61.6910 N   0  0  0  0  0  0  0  0  0  0  0  0
   39.1250   83.3380   61.9060 C   0  0  0  0  0  0  0  0  0  0  0  0
   39.3830   82.0250   61.9190 N   0  0  0  0  0  0  0  0  0  0  0  0
   40.7700   80.5220   61.7410 H   0  0  0  0  0  0  0  0  0  0  0  0
   42.6850   82.0810   61.3320 H   0  0  0  0  0  0  0  0  0  0  0  0
   38.1760   83.8230   62.0530 H   0  0  0  0  0  0  0  0  0  0  0  0
   44.3390   87.0340   59.2000 C   0  0  0  0  0  0  0  0  0  0  0  0
   44.8870   87.8920   59.6290 H   0  0  0  0  0  0  0  0  0  0  0  0
   43.5180   87.4250   58.5330 H   0  0  0  0  0  0  0  0  0  0  0  0
   45.2940   86.1970   58.4500 C   0  0  0  0  0  0  0  0  0  0  0  0
   44.9300   85.7070   57.2090 C   0  0  0  0  0  0  0  0  0  0  0  0
   43.9350   85.9600   56.8220 H   0  0  0  0  0  0  0  0  0  0  0  0
   45.7000   84.9140   56.3820 C   0  0  0  0  0  3  0  0  0  0  0  0
   46.9490   84.5860   56.8460 C   0  0  0  0  0  0  0  0  0  0  0  0
   47.7220   83.8160   56.0640 N   0  0  0  0  0  0  0  0  0  0  0  0
   48.9650   83.4380   56.4330 C   0  0  0  0  0  0  0  0  0  0  0  0
   49.6340   82.8220   55.8500 H   0  0  0  0  0  0  0  0  0  0  0  0
   49.3890   83.8950   57.6620 C   0  0  0  0  0  3  0  0  0  0  0  0
   48.6410   84.6870   58.5060 C   0  0  0  0  0  3  0  0  0  0  0  0
   47.3680   85.0450   58.0760 C   0  0  0  0  0  0  0  0  0  0  0  0
   46.5600   85.8350   58.8660 C   0  0  0  0  0  3  0  0  0  0  0  0
  1 10  1  0  0  0  0
  1  2  1  0  0  0  0
  2  6  1  0  0  0  0
  3  7  1  0  0  0  0
  3  2  2  0  0  0  0
  4  3  1  0  0  0  0
  5  4  1  0  0  0  0
  5  1  2  0  0  0  0
  8 14  1  0  0  0  0
  8 13  1  0  0  0  0
  9  8  2  0  0  0  0
 10  9  1  0  0  0  0
 10 11  2  0  0  0  0
 11 12  1  0  0  0  0
 12 13  2  0  0  0  0
 12 16  1  0  0  0  0
 15  9  1  0  0  0  0
 17 18  1  0  0  0  0
 17  4  1  0  0  0  0
 19 17  1  0  0  0  0
 20 31  1  0  0  0  0
 20 17  1  0  0  0  0
 21 20  2  0  0  0  0
 22 21  1  0  0  0  0
 23 24  2  0  0  0  0
 23 21  1  0  0  0  0
 24 30  1  0  0  0  0
 25 26  2  0  0  0  0
 25 24  1  0  0  0  0
 26 28  1  0  0  0  0
 27 26  1  0  0  0  0
 28 29  2  0  0  0  0
 30 29  1  0  0  0  0
 30 31  2  0  0  0  0
M  END
>  <minimizedAffinity>
-4.16347122

>  <minimizedRMSD>
0.429353774

$$$$
