
 OpenBabel03212520273D

 31 34  0  0  0  0  0  0  0  0999 V2000
   42.4320   84.8440   60.9970 C   0  0  0  0  0  0  0  0  0  0  0  0
   43.5080   85.1820   61.8050 C   0  0  0  0  0  0  0  0  0  0  0  0
   44.1260   86.1830   61.0310 C   0  0  0  0  0  0  0  0  0  0  0  0
   43.4550   86.3900   59.8850 N   0  0  0  0  0  0  0  0  0  0  0  0
   42.4210   85.5600   59.8830 N   0  0  0  0  0  0  0  0  0  0  0  0
   43.8330   84.8150   62.7690 H   0  0  0  0  0  0  0  0  0  0  0  0
   45.0390   86.7060   61.3540 H   0  0  0  0  0  0  0  0  0  0  0  0
   40.8200   81.5820   61.8080 C   0  0  0  0  0  0  0  0  0  0  0  0
   41.8200   82.5010   61.4730 C   0  0  0  0  0  0  0  0  0  0  0  0
   41.4490   83.8290   61.3430 C   0  0  0  0  0  0  0  0  0  0  0  0
   40.1450   84.1910   61.5420 N   0  0  0  0  0  0  0  0  0  0  0  0
   39.2170   83.2510   61.8650 C   0  0  0  0  0  0  0  0  0  0  0  0
   39.5580   81.9640   61.9960 N   0  0  0  0  0  0  0  0  0  0  0  0
   41.0340   80.5380   61.9250 H   0  0  0  0  0  0  0  0  0  0  0  0
   42.8380   82.1660   61.3260 H   0  0  0  0  0  0  0  0  0  0  0  0
   38.2420   83.6880   61.9890 H   0  0  0  0  0  0  0  0  0  0  0  0
   43.8150   87.3490   58.8550 C   0  0  0  0  0  0  0  0  0  0  0  0
   44.2200   88.2830   59.2840 H   0  0  0  0  0  0  0  0  0  0  0  0
   42.8870   87.5940   58.2640 H   0  0  0  0  0  0  0  0  0  0  0  0
   44.8530   86.7350   58.0070 C   0  0  0  0  0  0  0  0  0  0  0  0
   46.0560   87.3950   57.8310 C   0  0  0  0  0  0  0  0  0  0  0  0
   46.1980   88.3600   58.3330 H   0  0  0  0  0  0  0  0  0  0  0  0
   47.1270   86.9620   57.0730 C   0  0  0  0  0  3  0  0  0  0  0  0
   46.9710   85.7560   56.4350 C   0  0  0  0  0  0  0  0  0  0  0  0
   47.9940   85.3090   55.6910 N   0  0  0  0  0  0  0  0  0  0  0  0
   47.9370   84.1340   55.0250 C   0  0  0  0  0  0  0  0  0  0  0  0
   48.7250   83.7220   54.4130 H   0  0  0  0  0  0  0  0  0  0  0  0
   46.7620   83.4270   55.1600 C   0  0  0  0  0  3  0  0  0  0  0  0
   45.6810   83.8370   55.9090 C   0  0  0  0  0  3  0  0  0  0  0  0
   45.7930   85.0530   56.5730 C   0  0  0  0  0  0  0  0  0  0  0  0
   44.7530   85.5290   57.3410 C   0  0  0  0  0  3  0  0  0  0  0  0
  1 10  1  0  0  0  0
  1  2  1  0  0  0  0
  2  6  1  0  0  0  0
  3  7  1  0  0  0  0
  3  2  2  0  0  0  0
  4  3  1  0  0  0  0
  5  4  1  0  0  0  0
  5  1  2  0  0  0  0
  8 14  1  0  0  0  0
  8 13  1  0  0  0  0
  9  8  2  0  0  0  0
 10  9  1  0  0  0  0
 10 11  2  0  0  0  0
 11 12  1  0  0  0  0
 12 16  1  0  0  0  0
 12 13  2  0  0  0  0
 15  9  1  0  0  0  0
 17 18  1  0  0  0  0
 17  4  1  0  0  0  0
 19 17  1  0  0  0  0
 20 17  1  0  0  0  0
 21 20  1  0  0  0  0
 21 22  1  0  0  0  0
 23 21  2  0  0  0  0
 24 30  1  0  0  0  0
 24 23  1  0  0  0  0
 25 24  2  0  0  0  0
 26 28  2  0  0  0  0
 26 25  1  0  0  0  0
 27 26  1  0  0  0  0
 28 29  1  0  0  0  0
 29 30  2  0  0  0  0
 30 31  1  0  0  0  0
 31 20  2  0  0  0  0
M  END
>  <minimizedAffinity>
-4.29517937

>  <minimizedRMSD>
0.4451783

$$$$
