
 OpenBabel03212520323D

 44 48  0  0  0  0  0  0  0  0999 V2000
   43.0840   82.2320   62.1690 C   0  0  0  0  0  0  0  0  0  0  0  0
   43.5490   80.9380   61.9850 C   0  0  0  0  0  0  0  0  0  0  0  0
   44.7630   80.5370   62.5040 C   0  0  0  0  0  0  0  0  0  0  0  0
   45.5880   81.3910   63.2360 C   0  0  0  0  0  0  0  0  0  0  0  0
   45.1510   82.6760   63.4330 C   0  0  0  0  0  0  0  0  0  0  0  0
   43.9340   83.0770   62.9120 C   0  0  0  0  0  0  0  0  0  0  0  0
   45.0930   79.5170   62.3390 H   0  0  0  0  0  0  0  0  0  0  0  0
   46.5190   80.9830   63.6000 H   0  0  0  0  0  0  0  0  0  0  0  0
   45.7640   83.3560   63.9920 H   0  0  0  0  0  0  0  0  0  0  0  0
   43.5960   84.0950   63.0720 H   0  0  0  0  0  0  0  0  0  0  0  0
   40.9880   78.4370   61.0730 C   0  0  0  0  0  0  0  0  0  0  0  0
   41.3330   78.1160   59.7760 C   0  0  0  0  0  0  0  0  0  0  0  0
   42.4470   78.7720   59.2430 C   0  0  0  0  0  0  0  0  0  0  0  0
   43.1220   79.6760   60.0150 N   0  0  0  0  0  0  0  0  0  0  0  0
   42.7580   79.9550   61.2540 C   0  0  0  0  0  0  0  0  0  0  0  0
   41.6930   79.3310   61.7700 N   0  0  0  0  0  0  0  0  0  0  0  0
   40.1190   77.9270   61.4920 H   0  0  0  0  0  0  0  0  0  0  0  0
   42.7560   78.5560   58.2370 H   0  0  0  0  0  0  0  0  0  0  0  0
   40.5960   77.1700   59.0190 N   0  0  0  0  0  0  0  0  0  0  0  0
   39.5330   77.7030   58.3960 C   0  0  0  0  0  0  0  0  0  0  0  0
   38.7440   76.8420   57.6250 C   0  0  0  0  0  0  0  0  0  0  0  0
   39.0700   75.5010   57.5250 C   0  0  0  0  0  0  0  0  0  0  0  0
   38.4100   74.6720   56.8530 O   0  0  0  0  0  0  0  0  0  0  0  0
   40.1660   75.0470   58.1910 N   0  0  0  0  0  0  0  0  0  0  0  0
   40.9410   75.8730   58.9440 C   0  0  0  0  0  0  0  0  0  0  0  0
   41.9470   75.4640   59.5580 O   0  0  0  0  0  0  0  0  0  0  0  0
   39.2430   78.7280   58.4430 H   0  0  0  0  0  0  0  0  0  0  0  0
   37.8810   77.1560   57.0890 H   0  0  0  0  0  0  0  0  0  0  0  0
   40.4740   74.0620   58.1680 H   0  0  0  0  0  0  0  0  0  0  0  0
   41.5770   82.7710   61.5250 S   0  0  0  0  0  0  0  0  0  0  0  0
   41.4830   84.2780   61.6280 O   0  0  0  0  0  0  0  0  0  0  0  0
   40.4920   82.2860   62.4940 O   0  0  0  0  0  0  0  0  0  0  0  0
   41.1990   82.3680   59.9000 C   0  0  0  0  0  0  0  0  0  0  0  0
   40.1790   81.6830   59.2370 C   0  0  0  0  0  0  0  0  0  0  0  0
   39.4850   81.3500   60.0210 H   0  0  0  0  0  0  0  0  0  0  0  0
   40.1240   81.5040   57.8780 C   0  0  0  0  0  3  0  0  0  0  0  0
   41.1160   82.0150   57.0730 C   0  0  0  0  0  0  0  0  0  0  0  0
   40.9550   81.7780   55.7670 N   0  0  0  0  0  0  0  0  0  0  0  0
   41.8850   82.2440   54.9030 C   0  0  0  0  0  0  0  0  0  0  0  0
   41.8110   82.0850   53.8470 H   0  0  0  0  0  0  0  0  0  0  0  0
   42.9510   82.9420   55.4210 C   0  0  0  0  0  3  0  0  0  0  0  0
   43.0940   83.1730   56.7730 C   0  0  0  0  0  3  0  0  0  0  0  0
   42.1550   82.7040   57.6650 C   0  0  0  0  0  0  0  0  0  0  0  0
   42.1900   82.8740   59.0560 C   0  0  0  0  0  3  0  0  0  0  0  0
  1  6  1  0  0  0  0
  2  1  2  0  0  0  0
  2  3  1  0  0  0  0
  3  4  2  0  0  0  0
  4  5  1  0  0  0  0
  4  8  1  0  0  0  0
  5  9  1  0  0  0  0
  6 10  1  0  0  0  0
  6  5  2  0  0  0  0
  7  3  1  0  0  0  0
 11 17  1  0  0  0  0
 11 16  1  0  0  0  0
 12 11  2  0  0  0  0
 13 12  1  0  0  0  0
 13 14  2  0  0  0  0
 14 15  1  0  0  0  0
 15 16  2  0  0  0  0
 15  2  1  0  0  0  0
 18 13  1  0  0  0  0
 19 12  1  0  0  0  0
 20 27  1  0  0  0  0
 20 19  1  0  0  0  0
 21 20  2  0  0  0  0
 22 21  1  0  0  0  0
 22 24  1  0  0  0  0
 23 22  2  0  0  0  0
 24 25  1  0  0  0  0
 25 19  1  0  0  0  0
 25 26  2  0  0  0  0
 28 21  1  0  0  0  0
 29 24  1  0  0  0  0
 30 31  2  0  0  0  0
 30  1  1  0  0  0  0
 30 32  2  0  0  0  0
 33 30  1  0  0  0  0
 34 33  1  0  0  0  0
 34 35  1  0  0  0  0
 36 34  2  0  0  0  0
 37 43  1  0  0  0  0
 37 36  1  0  0  0  0
 38 37  2  0  0  0  0
 39 41  2  0  0  0  0
 39 38  1  0  0  0  0
 40 39  1  0  0  0  0
 41 42  1  0  0  0  0
 42 43  2  0  0  0  0
 43 44  1  0  0  0  0
 44 33  2  0  0  0  0
M  END
>  <minimizedAffinity>
-6.19573164

>  <minimizedRMSD>
4.10846663

$$$$
