
 OpenBabel03212520053D

 44 49  0  0  0  0  0  0  0  0999 V2000
   40.7260   81.7580   57.1260 C   0  0  0  0  0  0  0  0  0  0  0  0
   41.8190   82.3110   56.4390 C   0  0  0  0  0  0  0  0  0  0  0  0
   42.6120   83.2150   57.1280 C   0  0  0  0  0  0  0  0  0  0  0  0
   42.3220   83.5300   58.4130 N   0  0  0  0  0  0  0  0  0  0  0  0
   41.2570   82.9740   59.0500 C   0  0  0  0  0  0  0  0  0  0  0  0
   40.4510   82.0830   58.4060 N   0  0  0  0  0  0  0  0  0  0  0  0
   40.0220   81.0470   56.7240 H   0  0  0  0  0  0  0  0  0  0  0  0
   41.8680   81.8860   55.4680 H   0  0  0  0  0  0  0  0  0  0  0  0
   39.6800   83.0970   60.9160 C   0  0  0  0  0  0  0  0  0  0  0  0
   40.9830   83.2860   60.4420 C   0  0  0  0  0  0  0  0  0  0  0  0
   42.0050   83.7400   61.2780 C   0  0  0  0  0  0  0  0  0  0  0  0
   41.7680   84.0190   62.6090 C   0  0  0  0  0  0  0  0  0  0  0  0
   42.4610   84.4480   63.6750 N   0  0  0  0  0  0  0  0  0  0  0  0
   41.6650   84.5310   64.7650 C   0  0  0  0  0  0  0  0  0  0  0  0
   40.4600   84.1400   64.3320 N   0  0  0  0  0  0  0  0  0  0  0  0
   40.4820   83.8210   63.0350 C   0  0  0  0  0  0  0  0  0  0  0  0
   39.4280   83.3780   62.2650 C   0  0  0  0  0  0  0  0  0  0  0  0
   38.8810   82.7490   60.2880 H   0  0  0  0  0  0  0  0  0  0  0  0
   43.0150   83.8840   60.9060 H   0  0  0  0  0  0  0  0  0  0  0  0
   43.4800   84.6790   63.6360 H   0  0  0  0  0  0  0  0  0  0  0  0
   41.9990   84.8560   65.7500 H   0  0  0  0  0  0  0  0  0  0  0  0
   38.4330   83.2450   62.6720 H   0  0  0  0  0  0  0  0  0  0  0  0
   42.3460   83.7020   54.1970 Cl  0  0  0  0  0  0  0  0  0  0  0  0
   43.7780   84.0940   55.1360 C   0  0  0  0  0  0  0  0  0  0  0  0
   43.7460   83.8300   56.4800 C   0  0  0  0  0  0  0  0  0  0  0  0
   44.9060   84.2040   57.1560 C   0  0  0  0  0  0  0  0  0  0  0  0
   45.9990   84.7860   56.5580 C   0  0  0  0  0  0  0  0  0  0  0  0
   45.9580   85.0230   55.1820 C   0  0  0  0  0  0  0  0  0  0  0  0
   47.3240   85.7590   54.3910 Cl  0  0  0  0  0  0  0  0  0  0  0  0
   44.8300   84.6690   54.4680 C   0  0  0  0  0  0  0  0  0  0  0  0
   44.9700   84.0340   58.2200 H   0  0  0  0  0  0  0  0  0  0  0  0
   46.8640   85.0480   57.1540 H   0  0  0  0  0  0  0  0  0  0  0  0
   44.8310   84.9350   53.0330 C   0  0  0  0  0  0  0  0  0  0  0  0
   44.4520   86.0560   52.3690 C   0  0  0  0  0  0  0  0  0  0  0  0
   44.1070   86.8470   52.9940 H   0  0  0  0  0  0  0  0  0  0  0  0
   44.5390   86.0910   50.9740 C   0  0  0  0  0  3  0  0  0  0  0  0
   45.0040   85.0010   50.2550 C   0  0  0  0  0  0  0  0  0  0  0  0
   45.0810   85.0530   48.9030 N   0  0  0  0  0  0  0  0  0  0  0  0
   45.5390   83.9760   48.2360 C   0  0  0  0  0  0  0  0  0  0  0  0
   45.5940   84.0360   47.1390 H   0  0  0  0  0  0  0  0  0  0  0  0
   45.9450   82.7980   48.8280 C   0  0  0  0  0  3  0  0  0  0  0  0
   45.8580   82.7660   50.2050 C   0  0  0  0  0  3  0  0  0  0  0  0
   45.3920   83.8550   50.9400 C   0  0  0  0  0  0  0  0  0  0  0  0
   45.3050   83.8210   52.3300 C   0  0  0  0  0  3  0  0  0  0  0  0
  1  6  1  0  0  0  0
  2  1  2  0  0  0  0
  2  3  1  0  0  0  0
  3  4  2  0  0  0  0
  4  5  1  0  0  0  0
  5 10  1  0  0  0  0
  6  5  2  0  0  0  0
  7  1  1  0  0  0  0
  8  2  1  0  0  0  0
  9 17  1  0  0  0  0
 10  9  2  0  0  0  0
 10 11  1  0  0  0  0
 11 12  2  0  0  0  0
 12 16  1  0  0  0  0
 12 13  1  0  0  0  0
 13 14  1  0  0  0  0
 14 21  1  0  0  0  0
 15 14  2  0  0  0  0
 16 15  1  0  0  0  0
 17 22  1  0  0  0  0
 17 16  2  0  0  0  0
 18  9  1  0  0  0  0
 19 11  1  0  0  0  0
 20 13  1  0  0  0  0
 23 24  1  0  0  0  0
 24 25  1  0  0  0  0
 25  3  1  0  0  0  0
 25 26  2  0  0  0  0
 26 31  1  0  0  0  0
 27 32  1  0  0  0  0
 27 26  1  0  0  0  0
 28 27  2  0  0  0  0
 29 28  1  0  0  0  0
 30 24  2  0  0  0  0
 30 28  1  0  0  0  0
 33 30  1  0  0  0  0
 34 35  1  0  0  0  0
 34 33  1  0  0  0  0
 36 34  2  0  0  0  0
 37 43  1  0  0  0  0
 37 36  1  0  0  0  0
 38 37  2  0  0  0  0
 39 41  2  0  0  0  0
 39 38  1  0  0  0  0
 40 39  1  0  0  0  0
 41 42  1  0  0  0  0
 42 43  2  0  0  0  0
 43 44  1  0  0  0  0
 44 33  2  0  0  0  0
M  END
>  <minimizedAffinity>
-5.0835886

>  <minimizedRMSD>
0.294892728

$$$$
