
 OpenBabel03212520053D

 44 49  0  0  0  0  0  0  0  0999 V2000
   40.6830   81.8000   57.0990 C   0  0  0  0  0  0  0  0  0  0  0  0
   41.7740   82.3520   56.4080 C   0  0  0  0  0  0  0  0  0  0  0  0
   42.5770   83.2470   57.0980 C   0  0  0  0  0  0  0  0  0  0  0  0
   42.2970   83.5550   58.3870 N   0  0  0  0  0  0  0  0  0  0  0  0
   41.2340   83.0000   59.0270 C   0  0  0  0  0  0  0  0  0  0  0  0
   40.4180   82.1180   58.3820 N   0  0  0  0  0  0  0  0  0  0  0  0
   39.9730   81.0960   56.6960 H   0  0  0  0  0  0  0  0  0  0  0  0
   41.8150   81.9330   55.4340 H   0  0  0  0  0  0  0  0  0  0  0  0
   39.6710   83.1100   60.9070 C   0  0  0  0  0  0  0  0  0  0  0  0
   40.9700   83.3050   60.4230 C   0  0  0  0  0  0  0  0  0  0  0  0
   41.9980   83.7560   61.2530 C   0  0  0  0  0  0  0  0  0  0  0  0
   41.7710   84.0270   62.5870 C   0  0  0  0  0  0  0  0  0  0  0  0
   42.4720   84.4530   63.6500 N   0  0  0  0  0  0  0  0  0  0  0  0
   41.6850   84.5280   64.7460 C   0  0  0  0  0  0  0  0  0  0  0  0
   40.4770   84.1360   64.3210 N   0  0  0  0  0  0  0  0  0  0  0  0
   40.4890   83.8250   63.0230 C   0  0  0  0  0  0  0  0  0  0  0  0
   39.4300   83.3820   62.2600 C   0  0  0  0  0  0  0  0  0  0  0  0
   38.8680   82.7630   60.2830 H   0  0  0  0  0  0  0  0  0  0  0  0
   43.0040   83.9050   60.8730 H   0  0  0  0  0  0  0  0  0  0  0  0
   43.4900   84.6860   63.6030 H   0  0  0  0  0  0  0  0  0  0  0  0
   42.0260   84.8480   65.7310 H   0  0  0  0  0  0  0  0  0  0  0  0
   38.4380   83.2460   62.6740 H   0  0  0  0  0  0  0  0  0  0  0  0
   42.4200   83.4770   54.1280 Cl  0  0  0  0  0  0  0  0  0  0  0  0
   43.7900   84.0130   55.0870 C   0  0  0  0  0  0  0  0  0  0  0  0
   43.7100   83.8600   56.4460 C   0  0  0  0  0  0  0  0  0  0  0  0
   44.8210   84.3440   57.1350 C   0  0  0  0  0  0  0  0  0  0  0  0
   45.9130   84.9270   56.5350 C   0  0  0  0  0  0  0  0  0  0  0  0
   45.9230   85.0470   55.1440 C   0  0  0  0  0  0  0  0  0  0  0  0
   47.2880   85.7800   54.3480 Cl  0  0  0  0  0  0  0  0  0  0  0  0
   44.8440   84.5820   54.4160 C   0  0  0  0  0  0  0  0  0  0  0  0
   44.8450   84.2660   58.2120 H   0  0  0  0  0  0  0  0  0  0  0  0
   46.7380   85.2780   57.1410 H   0  0  0  0  0  0  0  0  0  0  0  0
   44.8970   84.7280   52.9650 C   0  0  0  0  0  0  0  0  0  0  0  0
   45.3690   83.8620   52.0340 C   0  0  0  0  0  0  0  0  0  0  0  0
   45.7510   82.9500   52.4290 H   0  0  0  0  0  0  0  0  0  0  0  0
   45.3190   84.2130   50.6810 C   0  0  0  0  0  3  0  0  0  0  0  0
   44.7970   85.4310   50.2730 C   0  0  0  0  0  0  0  0  0  0  0  0
   44.7580   85.7540   48.9580 N   0  0  0  0  0  0  0  0  0  0  0  0
   44.2450   86.9450   48.5960 C   0  0  0  0  0  0  0  0  0  0  0  0
   44.2210   87.1900   47.5250 H   0  0  0  0  0  0  0  0  0  0  0  0
   43.7440   87.8850   49.4730 C   0  0  0  0  0  3  0  0  0  0  0  0
   43.7940   87.5350   50.8070 C   0  0  0  0  0  3  0  0  0  0  0  0
   44.3150   86.3150   51.2320 C   0  0  0  0  0  0  0  0  0  0  0  0
   44.3650   85.9640   52.5780 C   0  0  0  0  0  3  0  0  0  0  0  0
  1  6  1  0  0  0  0
  2  3  1  0  0  0  0
  2  1  2  0  0  0  0
  3  4  2  0  0  0  0
  4  5  1  0  0  0  0
  5 10  1  0  0  0  0
  6  5  2  0  0  0  0
  7  1  1  0  0  0  0
  8  2  1  0  0  0  0
  9 17  1  0  0  0  0
 10  9  2  0  0  0  0
 10 11  1  0  0  0  0
 11 12  2  0  0  0  0
 12 16  1  0  0  0  0
 12 13  1  0  0  0  0
 13 14  1  0  0  0  0
 14 21  1  0  0  0  0
 15 14  2  0  0  0  0
 16 15  1  0  0  0  0
 17 22  1  0  0  0  0
 17 16  2  0  0  0  0
 18  9  1  0  0  0  0
 19 11  1  0  0  0  0
 20 13  1  0  0  0  0
 23 24  1  0  0  0  0
 24 25  1  0  0  0  0
 25  3  1  0  0  0  0
 25 26  2  0  0  0  0
 26 31  1  0  0  0  0
 27 26  1  0  0  0  0
 27 32  1  0  0  0  0
 28 27  2  0  0  0  0
 29 28  1  0  0  0  0
 30 24  2  0  0  0  0
 30 28  1  0  0  0  0
 33 30  1  0  0  0  0
 34 35  1  0  0  0  0
 34 33  2  0  0  0  0
 36 34  1  0  0  0  0
 37 36  2  0  0  0  0
 37 43  1  0  0  0  0
 38 37  1  0  0  0  0
 39 38  2  0  0  0  0
 39 41  1  0  0  0  0
 40 39  1  0  0  0  0
 41 42  2  0  0  0  0
 42 43  1  0  0  0  0
 43 44  2  0  0  0  0
 44 33  1  0  0  0  0
M  END
>  <minimizedAffinity>
-5.26854849

>  <minimizedRMSD>
1.06256258

$$$$
