
 OpenBabel03212520203D

 39 42  0  0  0  0  0  0  0  0999 V2000
   43.0500   83.9720   58.5860 Cl  0  0  0  0  0  0  0  0  0  0  0  0
   41.8480   82.7610   58.2120 C   0  0  0  0  0  0  0  0  0  0  0  0
   40.9930   82.2150   59.1680 C   0  0  0  0  0  0  0  0  0  0  0  0
   40.0920   81.2630   58.7180 C   0  0  0  0  0  0  0  0  0  0  0  0
   39.9560   80.8050   57.4300 C   0  0  0  0  0  0  0  0  0  0  0  0
   40.8080   81.3610   56.5190 C   0  0  0  0  0  0  0  0  0  0  0  0
   40.7580   80.8780   54.8270 Cl  0  0  0  0  0  0  0  0  0  0  0  0
   41.7450   82.3290   56.9070 C   0  0  0  0  0  0  0  0  0  0  0  0
   39.4570   80.8810   59.5150 H   0  0  0  0  0  0  0  0  0  0  0  0
   39.2310   80.0650   57.1630 H   0  0  0  0  0  0  0  0  0  0  0  0
   41.9570   82.1580   61.5210 C   0  0  0  0  0  0  0  0  0  0  0  0
   41.0990   82.6600   60.5120 C   0  0  0  0  0  0  0  0  0  0  0  0
   40.2560   83.7120   60.8650 C   0  0  0  0  0  0  0  0  0  0  0  0
   40.3350   84.1620   62.1550 N   0  0  0  0  0  0  0  0  0  0  0  0
   41.1550   83.6650   63.0770 C   0  0  0  0  0  0  0  0  0  0  0  0
   41.9830   82.6430   62.7560 N   0  0  0  0  0  0  0  0  0  0  0  0
   42.5930   81.3420   61.1980 H   0  0  0  0  0  0  0  0  0  0  0  0
   39.5580   84.1740   60.1770 H   0  0  0  0  0  0  0  0  0  0  0  0
   41.0690   84.3130   64.4160 C   0  0  0  0  0  0  0  0  0  0  0  0
   40.7320   85.6450   64.3370 F   0  0  0  0  0  0  0  0  0  0  0  0
   40.1200   83.6560   65.1990 F   0  0  0  0  0  0  0  0  0  0  0  0
   42.3220   84.2680   65.0630 F   0  0  0  0  0  0  0  0  0  0  0  0
   42.5880   82.8630   55.9470 O   0  0  0  0  0  0  0  0  0  0  0  0
   42.3710   84.0530   55.2640 C   0  0  0  0  0  0  0  0  0  0  0  0
   42.0800   83.9110   54.2030 H   0  0  0  0  0  0  0  0  0  0  0  0
   41.6000   84.7150   55.7080 H   0  0  0  0  0  0  0  0  0  0  0  0
   43.5720   84.7850   55.2380 O   0  0  0  0  0  0  0  0  0  0  0  0
   44.5930   84.6460   54.3260 C   0  0  0  0  0  0  0  0  0  0  0  0
   45.9430   84.4620   54.5220 C   0  0  0  0  0  0  0  0  0  0  0  0
   46.2080   84.4240   55.5660 H   0  0  0  0  0  0  0  0  0  0  0  0
   46.8280   84.3420   53.5000 C   0  0  0  0  0  3  0  0  0  0  0  0
   46.3190   84.4120   52.1980 C   0  0  0  0  0  0  0  0  0  0  0  0
   47.1980   84.2920   51.1650 N   0  0  0  0  0  0  0  0  0  0  0  0
   46.8090   84.3460   49.8780 C   0  0  0  0  0  0  0  0  0  0  0  0
   47.5060   84.2510   49.0480 H   0  0  0  0  0  0  0  0  0  0  0  0
   45.4600   84.5300   49.5890 C   0  0  0  0  0  3  0  0  0  0  0  0
   44.5510   84.6530   50.6210 C   0  0  0  0  0  3  0  0  0  0  0  0
   44.9770   84.5950   51.9310 C   0  0  0  0  0  0  0  0  0  0  0  0
   44.1000   84.7140   53.0160 C   0  0  0  0  0  3  0  0  0  0  0  0
  2  1  1  0  0  0  0
  2  3  1  0  0  0  0
  3 12  1  0  0  0  0
  4  3  2  0  0  0  0
  4  9  1  0  0  0  0
  5  4  1  0  0  0  0
  6  8  1  0  0  0  0
  6  5  2  0  0  0  0
  7  6  1  0  0  0  0
  8  2  2  0  0  0  0
 10  5  1  0  0  0  0
 11 16  1  0  0  0  0
 12 13  1  0  0  0  0
 12 11  2  0  0  0  0
 13 14  2  0  0  0  0
 14 15  1  0  0  0  0
 15 19  1  0  0  0  0
 16 15  2  0  0  0  0
 17 11  1  0  0  0  0
 18 13  1  0  0  0  0
 19 22  1  0  0  0  0
 19 21  1  0  0  0  0
 20 19  1  0  0  0  0
 23  8  1  0  0  0  0
 24 26  1  0  0  0  0
 24 23  1  0  0  0  0
 25 24  1  0  0  0  0
 27 24  1  0  0  0  0
 28 29  1  0  0  0  0
 28 27  1  0  0  0  0
 29 30  1  0  0  0  0
 31 29  2  0  0  0  0
 32 31  1  0  0  0  0
 33 32  2  0  0  0  0
 34 33  1  0  0  0  0
 35 34  1  0  0  0  0
 36 34  2  0  0  0  0
 36 37  1  0  0  0  0
 37 38  2  0  0  0  0
 38 32  1  0  0  0  0
 38 39  1  0  0  0  0
 39 28  2  0  0  0  0
M  END
>  <minimizedAffinity>
-4.9015584

>  <minimizedRMSD>
1.54248822

$$$$
