
 OpenBabel03212520273D

 31 34  0  0  0  0  0  0  0  0999 V2000
   42.5250   84.8830   61.2340 C   0  0  0  0  0  0  0  0  0  0  0  0
   43.4320   85.2880   62.2040 C   0  0  0  0  0  0  0  0  0  0  0  0
   44.1330   86.2970   61.5170 C   0  0  0  0  0  0  0  0  0  0  0  0
   43.6630   86.4460   60.2670 N   0  0  0  0  0  0  0  0  0  0  0  0
   42.6790   85.5720   60.1130 N   0  0  0  0  0  0  0  0  0  0  0  0
   43.5990   84.9580   63.2200 H   0  0  0  0  0  0  0  0  0  0  0  0
   44.9550   86.8660   61.9760 H   0  0  0  0  0  0  0  0  0  0  0  0
   40.9170   81.5510   61.6880 C   0  0  0  0  0  0  0  0  0  0  0  0
   41.9210   82.5040   61.4900 C   0  0  0  0  0  0  0  0  0  0  0  0
   41.5380   83.8340   61.4370 C   0  0  0  0  0  0  0  0  0  0  0  0
   40.2190   84.1660   61.5780 N   0  0  0  0  0  0  0  0  0  0  0  0
   39.2870   83.1930   61.7670 C   0  0  0  0  0  0  0  0  0  0  0  0
   39.6400   81.9040   61.8210 N   0  0  0  0  0  0  0  0  0  0  0  0
   41.1390   80.5040   61.7390 H   0  0  0  0  0  0  0  0  0  0  0  0
   42.9520   82.1920   61.3840 H   0  0  0  0  0  0  0  0  0  0  0  0
   38.2990   83.6090   61.8600 H   0  0  0  0  0  0  0  0  0  0  0  0
   44.1580   87.3960   59.2850 C   0  0  0  0  0  0  0  0  0  0  0  0
   44.5570   88.3110   59.7590 H   0  0  0  0  0  0  0  0  0  0  0  0
   43.3020   87.6810   58.6100 H   0  0  0  0  0  0  0  0  0  0  0  0
   45.2470   86.7460   58.5340 C   0  0  0  0  0  0  0  0  0  0  0  0
   45.5980   87.2430   57.2920 C   0  0  0  0  0  0  0  0  0  0  0  0
   45.0500   88.1120   56.9050 H   0  0  0  0  0  0  0  0  0  0  0  0
   46.5890   86.7550   56.4620 C   0  0  0  0  0  3  0  0  0  0  0  0
   47.2890   85.6690   56.9250 C   0  0  0  0  0  0  0  0  0  0  0  0
   48.2570   85.1710   56.1420 N   0  0  0  0  0  0  0  0  0  0  0  0
   49.0000   84.1040   56.5090 C   0  0  0  0  0  0  0  0  0  0  0  0
   49.7920   83.6590   55.9240 H   0  0  0  0  0  0  0  0  0  0  0  0
   48.6990   83.5620   57.7380 C   0  0  0  0  0  3  0  0  0  0  0  0
   47.7170   84.0280   58.5850 C   0  0  0  0  0  3  0  0  0  0  0  0
   46.9830   85.1290   58.1570 C   0  0  0  0  0  0  0  0  0  0  0  0
   45.9840   85.6530   58.9480 C   0  0  0  0  0  3  0  0  0  0  0  0
  1 10  1  0  0  0  0
  1  2  1  0  0  0  0
  2  6  1  0  0  0  0
  3  7  1  0  0  0  0
  3  2  2  0  0  0  0
  4  3  1  0  0  0  0
  5  4  1  0  0  0  0
  5  1  2  0  0  0  0
  8 14  1  0  0  0  0
  8 13  1  0  0  0  0
  9  8  2  0  0  0  0
 10  9  1  0  0  0  0
 10 11  2  0  0  0  0
 11 12  1  0  0  0  0
 12 13  2  0  0  0  0
 12 16  1  0  0  0  0
 15  9  1  0  0  0  0
 17 18  1  0  0  0  0
 17  4  1  0  0  0  0
 19 17  1  0  0  0  0
 20 31  1  0  0  0  0
 20 17  1  0  0  0  0
 21 20  2  0  0  0  0
 22 21  1  0  0  0  0
 23 24  2  0  0  0  0
 23 21  1  0  0  0  0
 24 30  1  0  0  0  0
 25 26  2  0  0  0  0
 25 24  1  0  0  0  0
 26 28  1  0  0  0  0
 27 26  1  0  0  0  0
 28 29  2  0  0  0  0
 30 29  1  0  0  0  0
 30 31  2  0  0  0  0
M  END
>  <minimizedAffinity>
-4.21817064

>  <minimizedRMSD>
0.527719736

$$$$
