
 OpenBabel03212521003D

 45 50  0  0  1  0  0  0  0  0999 V2000
   39.9160   77.5360   59.2230 C   0  0  0  0  0  0  0  0  0  0  0  0
   40.7020   76.4710   58.8700 C   0  0  0  0  0  0  0  0  0  0  0  0
   40.1760   75.7550   57.7780 C   0  0  0  0  0  0  0  0  0  0  0  0
   39.0340   76.0690   57.1430 N   0  0  0  0  0  0  0  0  0  0  0  0
   38.3210   77.1540   57.5720 C   0  0  0  0  0  0  0  0  0  0  0  0
   38.7800   77.8710   58.6130 N   0  0  0  0  0  0  0  0  0  0  0  0
   41.6190   76.1850   59.3480 H   0  0  0  0  0  0  0  0  0  0  0  0
   40.7410   74.8790   57.4230 H   0  0  0  0  0  0  0  0  0  0  0  0
   40.9930   80.4660   61.8310 C   0  0  0  0  0  0  0  0  0  0  0  0
   40.9780   79.2260   62.4130 C   0  0  0  0  0  0  0  0  0  0  0  0
   40.6420   78.1660   61.6620 C   0  0  0  0  0  0  0  0  0  0  0  0
   40.3210   78.3680   60.3240 C   0  0  0  0  0  0  0  0  0  0  0  0
   40.5070   80.1890   60.1010 S   0  0  0  0  0  0  0  0  0  0  0  0
   41.2300   79.0710   63.4730 H   0  0  0  0  0  0  0  0  0  0  0  0
   40.5740   77.1210   61.9340 H   0  0  0  0  0  0  0  0  0  0  0  0
   42.9870   83.3020   63.0320 C   0  0  0  0  0  0  0  0  0  0  0  0
   42.0750   84.0190   63.8220 C   0  0  0  0  0  0  0  0  0  0  0  0
   40.7650   83.5330   63.9480 C   0  0  0  0  0  0  0  0  0  0  0  0
   40.4570   82.3930   63.2950 N   0  0  0  0  0  0  0  0  0  0  0  0
   41.3540   81.7230   62.5410 C   0  0  0  0  0  0  0  0  0  0  0  0
   42.6030   82.1760   62.4150 N   0  0  0  0  0  0  0  0  0  0  0  0
   44.0100   83.6550   62.9180 H   0  0  0  0  0  0  0  0  0  0  0  0
   42.3460   84.9290   64.3330 H   0  0  0  0  0  0  0  0  0  0  0  0
   40.0020   84.0210   64.5350 H   0  0  0  0  0  0  0  0  0  0  0  0
   37.0970   77.4750   56.8690 C   0  0  0  0  0  0  0  0  0  0  0  0
   36.0420   76.9890   57.3170 O   0  0  0  0  0  0  0  0  0  0  0  0
   37.0820   78.3540   55.6370 C   0  0  1  0  0  0  0  0  0  0  0  0
   37.3030   79.8130   55.9760 C   0  0  0  0  0  0  0  0  0  0  0  0
   38.2930   79.0000   55.2050 C   0  0  2  0  0  0  0  0  0  0  0  0
   36.1280   78.2240   55.0580 H   0  0  0  0  0  0  0  0  0  0  0  0
   37.4820   80.0970   57.0230 H   0  0  0  0  0  0  0  0  0  0  0  0
   36.6930   80.5480   55.4330 H   0  0  0  0  0  0  0  0  0  0  0  0
   39.2100   78.7770   55.8160 H   0  0  0  0  0  0  0  0  0  0  0  0
   38.5980   79.5240   53.8750 C   0  0  0  0  0  0  0  0  0  0  0  0
   37.4880   79.8170   53.1030 C   0  0  0  0  0  0  0  0  0  0  0  0
   36.4560   79.6720   53.4650 H   0  0  0  0  0  0  0  0  0  0  0  0
   37.5440   80.3200   51.8100 C   0  0  0  0  0  3  0  0  0  0  0  0
   38.8260   80.5110   51.3400 C   0  0  0  0  0  0  0  0  0  0  0  0
   38.9130   80.9950   50.0680 N   0  0  0  0  0  0  0  0  0  0  0  0
   40.1150   81.2160   49.4950 C   0  0  0  0  0  0  0  0  0  0  0  0
   40.1370   81.6020   48.4830 H   0  0  0  0  0  0  0  0  0  0  0  0
   41.3100   80.9600   50.1790 C   0  0  0  0  0  3  0  0  0  0  0  0
   41.2430   80.4620   51.4860 C   0  0  0  0  0  3  0  0  0  0  0  0
   39.9990   80.2550   52.0190 C   0  0  0  0  0  0  0  0  0  0  0  0
   39.8530   79.7520   53.3120 C   0  0  0  0  0  3  0  0  0  0  0  0
  1 12  1  0  0  0  0
  2  1  1  0  0  0  0
  2  7  1  0  0  0  0
  3  2  2  0  0  0  0
  4  5  2  0  0  0  0
  4  3  1  0  0  0  0
  5  6  1  0  0  0  0
  6  1  2  0  0  0  0
  8  3  1  0  0  0  0
  9 10  2  0  0  0  0
  9 20  1  0  0  0  0
 10 14  1  0  0  0  0
 11 15  1  0  0  0  0
 11 10  1  0  0  0  0
 12 11  2  0  0  0  0
 13 12  1  0  0  0  0
 13  9  1  0  0  0  0
 16 17  1  0  0  0  0
 17 18  2  0  0  0  0
 17 23  1  0  0  0  0
 18 24  1  0  0  0  0
 19 18  1  0  0  0  0
 20 19  2  0  0  0  0
 21 20  1  0  0  0  0
 21 16  2  0  0  0  0
 22 16  1  0  0  0  0
 25 26  2  0  0  0  0
 25  5  1  0  0  0  0
 27 30  1  6  0  0  0
 27 28  1  0  0  0  0
 27 25  1  0  0  0  0
 28 31  1  0  0  0  0
 29 27  1  0  0  0  0
 29 33  1  1  0  0  0
 29 28  1  0  0  0  0
 32 28  1  0  0  0  0
 34 29  1  0  0  0  0
 35 36  1  0  0  0  0
 35 34  2  0  0  0  0
 37 35  1  0  0  0  0
 38 37  2  0  0  0  0
 38 44  1  0  0  0  0
 39 38  1  0  0  0  0
 40 39  2  0  0  0  0
 40 42  1  0  0  0  0
 41 40  1  0  0  0  0
 42 43  2  0  0  0  0
 43 44  1  0  0  0  0
 44 45  2  0  0  0  0
 45 34  1  0  0  0  0
M  END
>  <minimizedAffinity>
-6.8618083

>  <minimizedRMSD>
0.620620131

$$$$
