
 OpenBabel03212520303D

 31 34  0  0  0  0  0  0  0  0999 V2000
   40.6620   84.3660   64.5870 C   0  0  0  0  0  0  0  0  0  0  0  0
   41.6140   83.8760   63.6850 C   0  0  0  0  0  0  0  0  0  0  0  0
   42.9500   83.8960   64.0910 C   0  0  0  0  0  0  0  0  0  0  0  0
   43.2430   84.3820   65.3180 N   0  0  0  0  0  0  0  0  0  0  0  0
   42.3070   84.8420   66.1550 C   0  0  0  0  0  0  0  0  0  0  0  0
   41.0200   84.8320   65.7840 N   0  0  0  0  0  0  0  0  0  0  0  0
   39.6180   84.3420   64.2500 H   0  0  0  0  0  0  0  0  0  0  0  0
   43.6850   83.5120   63.3820 H   0  0  0  0  0  0  0  0  0  0  0  0
   42.7190   85.3480   67.4600 C   0  0  0  0  0  0  0  0  0  0  0  0
   41.7630   85.8860   68.2970 C   0  0  0  0  0  0  0  0  0  0  0  0
   40.7140   85.9460   68.0160 H   0  0  0  0  0  0  0  0  0  0  0  0
   42.1610   86.3620   69.5310 C   0  0  0  0  0  3  0  0  0  0  0  0
   43.4900   86.3070   69.9320 C   0  0  0  0  0  0  0  0  0  0  0  0
   43.9090   86.7700   71.1430 N   0  0  0  0  0  0  0  0  0  0  0  0
   45.2200   86.6890   71.4820 C   0  0  0  0  0  0  0  0  0  0  0  0
   45.5120   87.0640   72.4450 H   0  0  0  0  0  0  0  0  0  0  0  0
   46.1500   86.1440   70.6170 C   0  0  0  0  0  3  0  0  0  0  0  0
   45.7560   85.6670   69.3840 C   0  0  0  0  0  3  0  0  0  0  0  0
   44.4010   85.7570   69.0510 C   0  0  0  0  0  0  0  0  0  0  0  0
   44.0600   85.2670   67.8070 C   0  0  0  0  0  3  0  0  0  0  0  0
   41.2100   83.3820   62.4090 N   0  0  0  0  0  0  0  0  0  0  0  0
   40.4640   82.2690   62.4830 C   0  0  0  0  0  0  0  0  0  0  0  0
   40.0100   81.6940   61.2930 C   0  0  0  0  0  0  0  0  0  0  0  0
   40.3520   82.3000   60.0820 C   0  0  0  0  0  0  0  0  0  0  0  0
   39.9890   81.8520   58.9670 O   0  0  0  0  0  0  0  0  0  0  0  0
   41.1110   83.4230   60.1000 N   0  0  0  0  0  0  0  0  0  0  0  0
   41.5540   83.9840   61.2640 C   0  0  0  0  0  0  0  0  0  0  0  0
   42.2530   85.0170   61.2840 O   0  0  0  0  0  0  0  0  0  0  0  0
   40.1780   81.7730   63.4000 H   0  0  0  0  0  0  0  0  0  0  0  0
   39.4050   80.8000   61.2810 H   0  0  0  0  0  0  0  0  0  0  0  0
   41.3670   83.8750   59.1900 H   0  0  0  0  0  0  0  0  0  0  0  0
  1  6  1  0  0  0  0
  2  3  1  0  0  0  0
  2  1  2  0  0  0  0
  3  4  2  0  0  0  0
  4  5  1  0  0  0  0
  5  9  1  0  0  0  0
  6  5  2  0  0  0  0
  7  1  1  0  0  0  0
  8  3  1  0  0  0  0
  9 20  2  0  0  0  0
  9 10  1  0  0  0  0
 10 12  2  0  0  0  0
 11 10  1  0  0  0  0
 12 13  1  0  0  0  0
 13 14  1  0  0  0  0
 14 15  2  0  0  0  0
 15 16  1  0  0  0  0
 17 15  1  0  0  0  0
 18 17  2  0  0  0  0
 19 18  1  0  0  0  0
 19 13  2  0  0  0  0
 20 19  1  0  0  0  0
 21 22  1  0  0  0  0
 21  2  1  0  0  0  0
 22 29  1  0  0  0  0
 23 22  2  0  0  0  0
 24 26  1  0  0  0  0
 24 23  1  0  0  0  0
 25 24  2  0  0  0  0
 26 27  1  0  0  0  0
 27 28  2  0  0  0  0
 27 21  1  0  0  0  0
 30 23  1  0  0  0  0
 31 26  1  0  0  0  0
M  END
>  <minimizedAffinity>
19.9274712

>  <minimizedRMSD>
1.87116992

$$$$
