
 OpenBabel03212521003D

 45 50  0  0  1  0  0  0  0  0999 V2000
   39.6420   76.8730   59.4900 C   0  0  0  0  0  0  0  0  0  0  0  0
   40.2450   75.6450   59.4140 C   0  0  0  0  0  0  0  0  0  0  0  0
   39.7070   74.8450   58.3890 C   0  0  0  0  0  0  0  0  0  0  0  0
   38.7140   75.2280   57.5690 N   0  0  0  0  0  0  0  0  0  0  0  0
   38.1790   76.4770   57.7250 C   0  0  0  0  0  0  0  0  0  0  0  0
   38.6580   77.2800   58.6910 N   0  0  0  0  0  0  0  0  0  0  0  0
   41.0390   75.2980   60.0480 H   0  0  0  0  0  0  0  0  0  0  0  0
   40.1290   73.8370   58.2540 H   0  0  0  0  0  0  0  0  0  0  0  0
   40.8830   80.0260   61.7400 C   0  0  0  0  0  0  0  0  0  0  0  0
   40.7540   78.8770   62.4740 C   0  0  0  0  0  0  0  0  0  0  0  0
   40.3540   77.7570   61.8530 C   0  0  0  0  0  0  0  0  0  0  0  0
   40.0840   77.8070   60.4900 C   0  0  0  0  0  0  0  0  0  0  0  0
   40.4200   79.5650   60.0440 S   0  0  0  0  0  0  0  0  0  0  0  0
   40.9650   78.8420   63.5540 H   0  0  0  0  0  0  0  0  0  0  0  0
   40.1960   76.7640   62.2530 H   0  0  0  0  0  0  0  0  0  0  0  0
   43.0420   82.8760   62.5640 C   0  0  0  0  0  0  0  0  0  0  0  0
   42.1920   83.7170   63.2970 C   0  0  0  0  0  0  0  0  0  0  0  0
   40.8660   83.3120   63.5140 C   0  0  0  0  0  0  0  0  0  0  0  0
   40.4840   82.1240   62.9990 N   0  0  0  0  0  0  0  0  0  0  0  0
   41.3240   81.3330   62.2980 C   0  0  0  0  0  0  0  0  0  0  0  0
   42.5870   81.7090   62.0860 N   0  0  0  0  0  0  0  0  0  0  0  0
   44.0750   83.1640   62.3820 H   0  0  0  0  0  0  0  0  0  0  0  0
   42.5200   84.6630   63.6970 H   0  0  0  0  0  0  0  0  0  0  0  0
   40.1460   83.8970   64.0660 H   0  0  0  0  0  0  0  0  0  0  0  0
   37.1140   76.8700   56.8260 C   0  0  0  0  0  0  0  0  0  0  0  0
   36.0440   77.2430   57.3420 O   0  0  0  0  0  0  0  0  0  0  0  0
   37.2730   76.8260   55.3210 C   0  0  1  0  0  0  0  0  0  0  0  0
   37.2800   78.2110   54.7100 C   0  0  0  0  0  0  0  0  0  0  0  0
   38.4810   77.3200   54.7150 C   0  0  2  0  0  0  0  0  0  0  0  0
   36.4760   76.1900   54.8480 H   0  0  0  0  0  0  0  0  0  0  0  0
   37.2110   79.0870   55.3690 H   0  0  0  0  0  0  0  0  0  0  0  0
   36.7300   78.3420   53.7670 H   0  0  0  0  0  0  0  0  0  0  0  0
   39.2680   77.6910   55.4270 H   0  0  0  0  0  0  0  0  0  0  0  0
   39.0040   77.0050   53.3860 C   0  0  0  0  0  0  0  0  0  0  0  0
   39.1200   78.0940   52.5410 C   0  0  0  0  0  0  0  0  0  0  0  0
   38.8450   79.1180   52.8460 H   0  0  0  0  0  0  0  0  0  0  0  0
   39.5900   78.0260   51.2370 C   0  0  0  0  0  3  0  0  0  0  0  0
   39.9410   76.7540   50.8350 C   0  0  0  0  0  0  0  0  0  0  0  0
   40.3970   76.6530   49.5530 N   0  0  0  0  0  0  0  0  0  0  0  0
   40.7640   75.4600   49.0440 C   0  0  0  0  0  0  0  0  0  0  0  0
   41.1190   75.4260   48.0220 H   0  0  0  0  0  0  0  0  0  0  0  0
   40.6920   74.2860   49.8060 C   0  0  0  0  0  3  0  0  0  0  0  0
   40.2270   74.3670   51.1230 C   0  0  0  0  0  3  0  0  0  0  0  0
   39.8680   75.6030   51.5910 C   0  0  0  0  0  0  0  0  0  0  0  0
   39.3860   75.7590   52.8900 C   0  0  0  0  0  3  0  0  0  0  0  0
  1 12  1  0  0  0  0
  2  1  1  0  0  0  0
  2  7  1  0  0  0  0
  3  2  2  0  0  0  0
  4  5  2  0  0  0  0
  4  3  1  0  0  0  0
  5  6  1  0  0  0  0
  6  1  2  0  0  0  0
  8  3  1  0  0  0  0
  9 20  1  0  0  0  0
  9 10  2  0  0  0  0
 10 14  1  0  0  0  0
 11 15  1  0  0  0  0
 11 10  1  0  0  0  0
 12 11  2  0  0  0  0
 13 12  1  0  0  0  0
 13  9  1  0  0  0  0
 16 17  1  0  0  0  0
 17 18  2  0  0  0  0
 17 23  1  0  0  0  0
 18 24  1  0  0  0  0
 19 18  1  0  0  0  0
 20 19  2  0  0  0  0
 21 20  1  0  0  0  0
 21 16  2  0  0  0  0
 22 16  1  0  0  0  0
 25 26  2  0  0  0  0
 25  5  1  0  0  0  0
 27 30  1  6  0  0  0
 27 25  1  0  0  0  0
 28 29  1  0  0  0  0
 28 27  1  0  0  0  0
 28 31  1  0  0  0  0
 29 27  1  0  0  0  0
 29 33  1  1  0  0  0
 32 28  1  0  0  0  0
 34 29  1  0  0  0  0
 35 36  1  0  0  0  0
 35 34  2  0  0  0  0
 37 35  1  0  0  0  0
 38 37  2  0  0  0  0
 38 44  1  0  0  0  0
 39 38  1  0  0  0  0
 40 39  2  0  0  0  0
 40 42  1  0  0  0  0
 41 40  1  0  0  0  0
 42 43  2  0  0  0  0
 43 44  1  0  0  0  0
 44 45  2  0  0  0  0
 45 34  1  0  0  0  0
M  END
>  <minimizedAffinity>
-6.84690571

>  <minimizedRMSD>
2.71379089

$$$$
