
 OpenBabel03212520203D

 39 42  0  0  0  0  0  0  0  0999 V2000
   43.1970   83.9150   58.7120 Cl  0  0  0  0  0  0  0  0  0  0  0  0
   41.9490   82.7690   58.2880 C   0  0  0  0  0  0  0  0  0  0  0  0
   41.0340   82.2630   59.2090 C   0  0  0  0  0  0  0  0  0  0  0  0
   40.1030   81.3600   58.7230 C   0  0  0  0  0  0  0  0  0  0  0  0
   39.9900   80.9150   57.4280 C   0  0  0  0  0  0  0  0  0  0  0  0
   40.9020   81.4300   56.5510 C   0  0  0  0  0  0  0  0  0  0  0  0
   40.8880   80.9570   54.8550 Cl  0  0  0  0  0  0  0  0  0  0  0  0
   41.8720   82.3480   56.9780 C   0  0  0  0  0  0  0  0  0  0  0  0
   39.4210   81.0080   59.4940 H   0  0  0  0  0  0  0  0  0  0  0  0
   39.2380   80.2130   57.1300 H   0  0  0  0  0  0  0  0  0  0  0  0
   41.9190   82.1560   61.5920 C   0  0  0  0  0  0  0  0  0  0  0  0
   41.1140   82.6970   60.5600 C   0  0  0  0  0  0  0  0  0  0  0  0
   40.3030   83.7790   60.8920 C   0  0  0  0  0  0  0  0  0  0  0  0
   40.3580   84.2190   62.1870 N   0  0  0  0  0  0  0  0  0  0  0  0
   41.1270   83.6860   63.1320 C   0  0  0  0  0  0  0  0  0  0  0  0
   41.9240   82.6330   62.8300 N   0  0  0  0  0  0  0  0  0  0  0  0
   42.5320   81.3170   61.2850 H   0  0  0  0  0  0  0  0  0  0  0  0
   39.6460   84.2730   60.1850 H   0  0  0  0  0  0  0  0  0  0  0  0
   41.0240   84.3300   64.4700 C   0  0  0  0  0  0  0  0  0  0  0  0
   40.6640   85.6560   64.3920 F   0  0  0  0  0  0  0  0  0  0  0  0
   40.0830   83.6550   65.2480 F   0  0  0  0  0  0  0  0  0  0  0  0
   42.2740   84.3060   65.1230 F   0  0  0  0  0  0  0  0  0  0  0  0
   42.7740   82.8420   56.0520 O   0  0  0  0  0  0  0  0  0  0  0  0
   42.5410   83.9140   55.2000 C   0  0  0  0  0  0  0  0  0  0  0  0
   42.6400   83.6590   54.1250 H   0  0  0  0  0  0  0  0  0  0  0  0
   41.5480   84.3950   55.3120 H   0  0  0  0  0  0  0  0  0  0  0  0
   43.5060   84.9080   55.4490 O   0  0  0  0  0  0  0  0  0  0  0  0
   44.8690   84.7270   55.5010 C   0  0  0  0  0  0  0  0  0  0  0  0
   45.7000   83.9800   54.6970 C   0  0  0  0  0  0  0  0  0  0  0  0
   45.1660   83.4690   53.9130 H   0  0  0  0  0  0  0  0  0  0  0  0
   47.0420   83.9070   54.8860 C   0  0  0  0  0  3  0  0  0  0  0  0
   47.5790   84.6340   55.9550 C   0  0  0  0  0  0  0  0  0  0  0  0
   48.9250   84.5680   56.1540 N   0  0  0  0  0  0  0  0  0  0  0  0
   49.5390   85.2290   57.1520 C   0  0  0  0  0  0  0  0  0  0  0  0
   50.6130   85.1810   57.3170 H   0  0  0  0  0  0  0  0  0  0  0  0
   48.7730   86.0090   58.0140 C   0  0  0  0  0  3  0  0  0  0  0  0
   47.4070   86.0910   57.8300 C   0  0  0  0  0  3  0  0  0  0  0  0
   46.8030   85.4030   56.7980 C   0  0  0  0  0  0  0  0  0  0  0  0
   45.4240   85.4480   56.5650 C   0  0  0  0  0  3  0  0  0  0  0  0
  2  1  1  0  0  0  0
  2  3  1  0  0  0  0
  3 12  1  0  0  0  0
  4  3  2  0  0  0  0
  4  9  1  0  0  0  0
  5  4  1  0  0  0  0
  6  8  1  0  0  0  0
  6  5  2  0  0  0  0
  7  6  1  0  0  0  0
  8  2  2  0  0  0  0
 10  5  1  0  0  0  0
 11 16  1  0  0  0  0
 12 13  1  0  0  0  0
 12 11  2  0  0  0  0
 13 14  2  0  0  0  0
 14 15  1  0  0  0  0
 15 19  1  0  0  0  0
 16 15  2  0  0  0  0
 17 11  1  0  0  0  0
 18 13  1  0  0  0  0
 19 22  1  0  0  0  0
 19 21  1  0  0  0  0
 20 19  1  0  0  0  0
 23  8  1  0  0  0  0
 24 26  1  0  0  0  0
 24 27  1  0  0  0  0
 24 23  1  0  0  0  0
 25 24  1  0  0  0  0
 27 28  1  0  0  0  0
 28 39  1  0  0  0  0
 29 31  1  0  0  0  0
 29 28  2  0  0  0  0
 30 29  1  0  0  0  0
 31 32  2  0  0  0  0
 32 33  1  0  0  0  0
 32 38  1  0  0  0  0
 33 34  2  0  0  0  0
 34 35  1  0  0  0  0
 34 36  1  0  0  0  0
 37 36  2  0  0  0  0
 38 37  1  0  0  0  0
 39 38  2  0  0  0  0
M  END
>  <minimizedAffinity>
-4.99412203

>  <minimizedRMSD>
1.32272255

$$$$
