
 OpenBabel03212520143D

 34 37  0  0  0  0  0  0  0  0999 V2000
   40.4010   81.9420   57.2340 Cl  0  0  0  0  0  0  0  0  0  0  0  0
   40.2570   80.4770   58.2110 C   0  0  0  0  0  0  0  0  0  0  0  0
   40.8370   80.3660   59.4620 C   0  0  0  0  0  0  0  0  0  0  0  0
   40.6340   79.1480   60.1090 C   0  0  0  0  0  0  0  0  0  0  0  0
   39.9200   78.0800   59.6080 C   0  0  0  0  0  0  0  0  0  0  0  0
   39.3720   78.2430   58.3760 C   0  0  0  0  0  0  0  0  0  0  0  0
   38.4380   76.9440   57.6340 Cl  0  0  0  0  0  0  0  0  0  0  0  0
   39.5360   79.4250   57.6850 C   0  0  0  0  0  0  0  0  0  0  0  0
   41.0830   79.0430   61.0930 H   0  0  0  0  0  0  0  0  0  0  0  0
   39.8190   77.1730   60.1890 H   0  0  0  0  0  0  0  0  0  0  0  0
   38.9270   79.5520   56.3610 C   0  0  0  0  0  0  0  0  0  0  0  0
   37.6460   80.0860   56.1840 C   0  0  0  0  0  0  0  0  0  0  0  0
   37.0850   80.4160   57.0500 H   0  0  0  0  0  0  0  0  0  0  0  0
   37.1500   80.1670   54.9000 C   0  0  0  0  0  0  0  0  0  0  0  0
   37.8640   79.7470   53.7970 C   0  0  0  0  0  0  0  0  0  0  0  0
   37.4080   79.8150   52.5350 N   0  0  0  0  0  0  0  0  0  0  0  0
   38.0820   79.4130   51.4530 C   0  0  0  0  0  0  0  0  0  0  0  0
   37.6720   79.4870   50.4430 H   0  0  0  0  0  0  0  0  0  0  0  0
   39.3510   78.8830   51.6020 C   0  0  0  0  0  0  0  0  0  0  0  0
   39.8770   78.7870   52.8760 C   0  0  0  0  0  0  0  0  0  0  0  0
   39.1270   79.2200   53.9540 C   0  0  0  0  0  0  0  0  0  0  0  0
   39.6250   79.1370   55.2410 C   0  0  0  0  0  0  0  0  0  0  0  0
   42.9420   81.7250   59.8370 C   0  0  0  0  0  0  0  0  0  0  0  0
   41.5780   81.4570   59.9970 C   0  0  0  0  0  0  0  0  0  0  0  0
   40.8330   82.3590   60.7750 C   0  0  0  0  0  0  0  0  0  0  0  0
   41.4860   83.4200   61.3130 N   0  0  0  0  0  0  0  0  0  0  0  0
   42.8040   83.6400   61.1310 C   0  0  0  0  0  0  0  0  0  0  0  0
   43.5260   82.7870   60.3910 N   0  0  0  0  0  0  0  0  0  0  0  0
   43.4440   81.0010   59.2360 H   0  0  0  0  0  0  0  0  0  0  0  0
   39.7860   82.2720   60.9760 H   0  0  0  0  0  0  0  0  0  0  0  0
   43.3500   84.8550   61.7970 C   0  0  0  0  0  0  0  0  0  0  0  0
   43.2320   85.9740   60.9960 F   0  0  0  0  0  0  0  0  0  0  0  0
   42.6640   85.0870   62.9800 F   0  0  0  0  0  0  0  0  0  0  0  0
   44.7130   84.7220   62.0490 F   0  0  0  0  0  0  0  0  0  0  0  0
  1  2  1  0  0  0  0
  2  3  1  0  0  0  0
  3 24  1  0  0  0  0
  3  4  2  0  0  0  0
  4  9  1  0  0  0  0
  5  4  1  0  0  0  0
  5 10  1  0  0  0  0
  6  5  2  0  0  0  0
  7  6  1  0  0  0  0
  8  2  2  0  0  0  0
  8  6  1  0  0  0  0
 11  8  1  0  0  0  0
 12 11  1  0  0  0  0
 12 13  1  0  0  0  0
 14 12  2  0  0  0  0
 15 21  1  0  0  0  0
 15 14  1  0  0  0  0
 16 15  2  0  0  0  0
 17 19  2  0  0  0  0
 17 16  1  0  0  0  0
 18 17  1  0  0  0  0
 19 20  1  0  0  0  0
 20 21  2  0  0  0  0
 21 22  1  0  0  0  0
 22 11  2  0  0  0  0
 23 24  2  0  0  0  0
 23 28  1  0  0  0  0
 24 25  1  0  0  0  0
 25 30  1  0  0  0  0
 25 26  2  0  0  0  0
 27 26  1  0  0  0  0
 27 31  1  0  0  0  0
 28 27  2  0  0  0  0
 29 23  1  0  0  0  0
 31 34  1  0  0  0  0
 31 33  1  0  0  0  0
 32 31  1  0  0  0  0
M  END
>  <minimizedAffinity>
-5.9011178

>  <minimizedRMSD>
4.15369606

$$$$
