
 OpenBabel03212520203D

 39 42  0  0  0  0  0  0  0  0999 V2000
   43.0850   84.0290   58.6060 Cl  0  0  0  0  0  0  0  0  0  0  0  0
   41.8910   82.8160   58.2140 C   0  0  0  0  0  0  0  0  0  0  0  0
   41.0320   82.2590   59.1590 C   0  0  0  0  0  0  0  0  0  0  0  0
   40.1380   81.3060   58.6960 C   0  0  0  0  0  0  0  0  0  0  0  0
   40.0140   80.8580   57.4030 C   0  0  0  0  0  0  0  0  0  0  0  0
   40.8710   81.4240   56.5030 C   0  0  0  0  0  0  0  0  0  0  0  0
   40.8350   80.9530   54.8070 Cl  0  0  0  0  0  0  0  0  0  0  0  0
   41.8000   82.3930   56.9050 C   0  0  0  0  0  0  0  0  0  0  0  0
   39.4990   80.9160   59.4850 H   0  0  0  0  0  0  0  0  0  0  0  0
   39.2940   80.1160   57.1250 H   0  0  0  0  0  0  0  0  0  0  0  0
   41.9730   82.1840   61.5210 C   0  0  0  0  0  0  0  0  0  0  0  0
   41.1260   82.6950   60.5080 C   0  0  0  0  0  0  0  0  0  0  0  0
   40.2820   83.7460   60.8600 C   0  0  0  0  0  0  0  0  0  0  0  0
   40.3500   84.1870   62.1540 N   0  0  0  0  0  0  0  0  0  0  0  0
   41.1600   83.6820   63.0800 C   0  0  0  0  0  0  0  0  0  0  0  0
   41.9880   82.6600   62.7600 N   0  0  0  0  0  0  0  0  0  0  0  0
   42.6100   81.3680   61.1990 H   0  0  0  0  0  0  0  0  0  0  0  0
   39.5920   84.2150   60.1680 H   0  0  0  0  0  0  0  0  0  0  0  0
   41.0620   84.3210   64.4220 C   0  0  0  0  0  0  0  0  0  0  0  0
   40.7180   85.6520   64.3490 F   0  0  0  0  0  0  0  0  0  0  0  0
   40.1130   83.6540   65.1950 F   0  0  0  0  0  0  0  0  0  0  0  0
   42.3120   84.2790   65.0760 F   0  0  0  0  0  0  0  0  0  0  0  0
   42.6480   82.9380   55.9550 O   0  0  0  0  0  0  0  0  0  0  0  0
   42.4000   84.0970   55.2320 C   0  0  0  0  0  0  0  0  0  0  0  0
   41.9480   83.9130   54.2360 H   0  0  0  0  0  0  0  0  0  0  0  0
   41.7420   84.8340   55.7370 H   0  0  0  0  0  0  0  0  0  0  0  0
   43.6240   84.7460   54.9850 O   0  0  0  0  0  0  0  0  0  0  0  0
   44.4140   84.6000   53.8690 C   0  0  0  0  0  0  0  0  0  0  0  0
   45.7690   84.7800   53.7070 C   0  0  0  0  0  0  0  0  0  0  0  0
   46.2570   85.0830   54.6190 H   0  0  0  0  0  0  0  0  0  0  0  0
   46.4040   84.5910   52.5220 C   0  0  0  0  0  3  0  0  0  0  0  0
   45.6210   84.1950   51.4320 C   0  0  0  0  0  0  0  0  0  0  0  0
   46.2480   84.0020   50.2380 N   0  0  0  0  0  0  0  0  0  0  0  0
   45.5870   83.6220   49.1290 C   0  0  0  0  0  0  0  0  0  0  0  0
   46.0810   83.4670   48.1730 H   0  0  0  0  0  0  0  0  0  0  0  0
   44.2120   83.4170   49.2030 C   0  0  0  0  0  3  0  0  0  0  0  0
   43.5560   83.6070   50.4030 C   0  0  0  0  0  3  0  0  0  0  0  0
   44.2600   83.9970   51.5240 C   0  0  0  0  0  0  0  0  0  0  0  0
   43.6470   84.2030   52.7670 C   0  0  0  0  0  3  0  0  0  0  0  0
  2  1  1  0  0  0  0
  2  3  1  0  0  0  0
  3 12  1  0  0  0  0
  4  3  2  0  0  0  0
  4  9  1  0  0  0  0
  5  4  1  0  0  0  0
  6  8  1  0  0  0  0
  6  5  2  0  0  0  0
  7  6  1  0  0  0  0
  8  2  2  0  0  0  0
 10  5  1  0  0  0  0
 11 16  1  0  0  0  0
 12 13  1  0  0  0  0
 12 11  2  0  0  0  0
 13 14  2  0  0  0  0
 14 15  1  0  0  0  0
 15 19  1  0  0  0  0
 16 15  2  0  0  0  0
 17 11  1  0  0  0  0
 18 13  1  0  0  0  0
 19 22  1  0  0  0  0
 19 21  1  0  0  0  0
 20 19  1  0  0  0  0
 23  8  1  0  0  0  0
 24 26  1  0  0  0  0
 24 23  1  0  0  0  0
 25 24  1  0  0  0  0
 27 24  1  0  0  0  0
 28 27  1  0  0  0  0
 29 28  1  0  0  0  0
 29 30  1  0  0  0  0
 31 29  2  0  0  0  0
 32 38  1  0  0  0  0
 32 31  1  0  0  0  0
 33 32  2  0  0  0  0
 34 36  2  0  0  0  0
 34 33  1  0  0  0  0
 35 34  1  0  0  0  0
 36 37  1  0  0  0  0
 37 38  2  0  0  0  0
 38 39  1  0  0  0  0
 39 28  2  0  0  0  0
M  END
>  <minimizedAffinity>
-4.92596006

>  <minimizedRMSD>
2.00092912

$$$$
