
 OpenBabel03212520213D

 39 42  0  0  0  0  0  0  0  0999 V2000
   43.1920   83.9150   58.7130 Cl  0  0  0  0  0  0  0  0  0  0  0  0
   41.9460   82.7670   58.2890 C   0  0  0  0  0  0  0  0  0  0  0  0
   41.0320   82.2610   59.2110 C   0  0  0  0  0  0  0  0  0  0  0  0
   40.1010   81.3560   58.7250 C   0  0  0  0  0  0  0  0  0  0  0  0
   39.9880   80.9110   57.4300 C   0  0  0  0  0  0  0  0  0  0  0  0
   40.8990   81.4270   56.5530 C   0  0  0  0  0  0  0  0  0  0  0  0
   40.8850   80.9540   54.8580 Cl  0  0  0  0  0  0  0  0  0  0  0  0
   41.8680   82.3460   56.9790 C   0  0  0  0  0  0  0  0  0  0  0  0
   39.4200   81.0040   59.4970 H   0  0  0  0  0  0  0  0  0  0  0  0
   39.2370   80.2090   57.1330 H   0  0  0  0  0  0  0  0  0  0  0  0
   41.9140   82.1520   61.5950 C   0  0  0  0  0  0  0  0  0  0  0  0
   41.1120   82.6950   60.5610 C   0  0  0  0  0  0  0  0  0  0  0  0
   40.3040   83.7800   60.8930 C   0  0  0  0  0  0  0  0  0  0  0  0
   40.3590   84.2200   62.1880 N   0  0  0  0  0  0  0  0  0  0  0  0
   41.1260   83.6840   63.1330 C   0  0  0  0  0  0  0  0  0  0  0  0
   41.9200   82.6290   62.8330 N   0  0  0  0  0  0  0  0  0  0  0  0
   42.5250   81.3100   61.2880 H   0  0  0  0  0  0  0  0  0  0  0  0
   39.6490   84.2750   60.1850 H   0  0  0  0  0  0  0  0  0  0  0  0
   41.0230   84.3290   64.4720 C   0  0  0  0  0  0  0  0  0  0  0  0
   40.6620   85.6550   64.3930 F   0  0  0  0  0  0  0  0  0  0  0  0
   40.0840   83.6540   65.2510 F   0  0  0  0  0  0  0  0  0  0  0  0
   42.2750   84.3070   65.1230 F   0  0  0  0  0  0  0  0  0  0  0  0
   42.7700   82.8410   56.0530 O   0  0  0  0  0  0  0  0  0  0  0  0
   42.5350   83.9130   55.2010 C   0  0  0  0  0  0  0  0  0  0  0  0
   42.6310   83.6570   54.1260 H   0  0  0  0  0  0  0  0  0  0  0  0
   41.5430   84.3950   55.3160 H   0  0  0  0  0  0  0  0  0  0  0  0
   43.5020   84.9060   55.4470 O   0  0  0  0  0  0  0  0  0  0  0  0
   44.8640   84.7230   55.5010 C   0  0  0  0  0  0  0  0  0  0  0  0
   45.6940   83.9730   54.6990 C   0  0  0  0  0  0  0  0  0  0  0  0
   45.1590   83.4620   53.9140 H   0  0  0  0  0  0  0  0  0  0  0  0
   47.0360   83.8970   54.8890 C   0  0  0  0  0  3  0  0  0  0  0  0
   47.5730   84.6240   55.9570 C   0  0  0  0  0  0  0  0  0  0  0  0
   48.9190   84.5550   56.1580 N   0  0  0  0  0  0  0  0  0  0  0  0
   49.5330   85.2170   57.1560 C   0  0  0  0  0  0  0  0  0  0  0  0
   50.6070   85.1670   57.3210 H   0  0  0  0  0  0  0  0  0  0  0  0
   48.7690   86.0000   58.0150 C   0  0  0  0  0  3  0  0  0  0  0  0
   47.4030   86.0830   57.8300 C   0  0  0  0  0  3  0  0  0  0  0  0
   46.7990   85.3960   56.7990 C   0  0  0  0  0  0  0  0  0  0  0  0
   45.4200   85.4440   56.5640 C   0  0  0  0  0  3  0  0  0  0  0  0
  2  1  1  0  0  0  0
  2  3  1  0  0  0  0
  3 12  1  0  0  0  0
  4  3  2  0  0  0  0
  4  9  1  0  0  0  0
  5  4  1  0  0  0  0
  6  8  1  0  0  0  0
  6  5  2  0  0  0  0
  7  6  1  0  0  0  0
  8  2  2  0  0  0  0
 10  5  1  0  0  0  0
 11 16  1  0  0  0  0
 12 13  1  0  0  0  0
 12 11  2  0  0  0  0
 13 14  2  0  0  0  0
 14 15  1  0  0  0  0
 15 19  1  0  0  0  0
 16 15  2  0  0  0  0
 17 11  1  0  0  0  0
 18 13  1  0  0  0  0
 19 22  1  0  0  0  0
 19 21  1  0  0  0  0
 20 19  1  0  0  0  0
 23  8  1  0  0  0  0
 24 26  1  0  0  0  0
 24 27  1  0  0  0  0
 24 23  1  0  0  0  0
 25 24  1  0  0  0  0
 27 28  1  0  0  0  0
 28 39  1  0  0  0  0
 29 31  1  0  0  0  0
 29 28  2  0  0  0  0
 30 29  1  0  0  0  0
 31 32  2  0  0  0  0
 32 33  1  0  0  0  0
 32 38  1  0  0  0  0
 33 34  2  0  0  0  0
 34 35  1  0  0  0  0
 34 36  1  0  0  0  0
 37 36  2  0  0  0  0
 38 37  1  0  0  0  0
 39 38  2  0  0  0  0
M  END
>  <minimizedAffinity>
-4.99399519

>  <minimizedRMSD>
0.962541103

$$$$
