
 OpenBabel03212520203D

 39 42  0  0  0  0  0  0  0  0999 V2000
   43.0900   83.9510   58.5970 Cl  0  0  0  0  0  0  0  0  0  0  0  0
   41.8730   82.7580   58.2130 C   0  0  0  0  0  0  0  0  0  0  0  0
   41.0030   82.2240   59.1610 C   0  0  0  0  0  0  0  0  0  0  0  0
   40.0910   81.2860   58.7040 C   0  0  0  0  0  0  0  0  0  0  0  0
   39.9590   80.8320   57.4140 C   0  0  0  0  0  0  0  0  0  0  0  0
   40.8260   81.3750   56.5100 C   0  0  0  0  0  0  0  0  0  0  0  0
   40.7820   80.8950   54.8170 Cl  0  0  0  0  0  0  0  0  0  0  0  0
   41.7740   82.3290   56.9070 C   0  0  0  0  0  0  0  0  0  0  0  0
   39.4440   80.9130   59.4960 H   0  0  0  0  0  0  0  0  0  0  0  0
   39.2240   80.1030   57.1410 H   0  0  0  0  0  0  0  0  0  0  0  0
   41.9530   82.1550   61.5200 C   0  0  0  0  0  0  0  0  0  0  0  0
   41.1050   82.6670   60.5070 C   0  0  0  0  0  0  0  0  0  0  0  0
   40.2700   83.7250   60.8570 C   0  0  0  0  0  0  0  0  0  0  0  0
   40.3460   84.1720   62.1480 N   0  0  0  0  0  0  0  0  0  0  0  0
   41.1560   83.6670   63.0740 C   0  0  0  0  0  0  0  0  0  0  0  0
   41.9760   82.6380   62.7560 N   0  0  0  0  0  0  0  0  0  0  0  0
   42.5840   81.3340   61.2000 H   0  0  0  0  0  0  0  0  0  0  0  0
   39.5800   84.1950   60.1660 H   0  0  0  0  0  0  0  0  0  0  0  0
   41.0680   84.3140   64.4130 C   0  0  0  0  0  0  0  0  0  0  0  0
   40.7290   85.6460   64.3350 F   0  0  0  0  0  0  0  0  0  0  0  0
   40.1190   83.6550   65.1950 F   0  0  0  0  0  0  0  0  0  0  0  0
   42.3210   84.2690   65.0610 F   0  0  0  0  0  0  0  0  0  0  0  0
   42.6320   82.8510   55.9540 O   0  0  0  0  0  0  0  0  0  0  0  0
   42.3820   83.9800   55.1840 C   0  0  0  0  0  0  0  0  0  0  0  0
   42.3540   83.7790   54.0940 H   0  0  0  0  0  0  0  0  0  0  0  0
   41.4380   84.5120   55.4230 H   0  0  0  0  0  0  0  0  0  0  0  0
   43.4290   84.9010   55.3780 O   0  0  0  0  0  0  0  0  0  0  0  0
   44.7740   84.6450   55.2510 C   0  0  0  0  0  0  0  0  0  0  0  0
   45.7560   84.5440   56.2110 C   0  0  0  0  0  0  0  0  0  0  0  0
   45.3750   84.6940   57.2080 H   0  0  0  0  0  0  0  0  0  0  0  0
   47.0540   84.2820   55.9170 C   0  0  0  0  0  3  0  0  0  0  0  0
   47.3820   84.1120   54.5670 C   0  0  0  0  0  0  0  0  0  0  0  0
   48.6840   83.8490   54.2590 N   0  0  0  0  0  0  0  0  0  0  0  0
   49.1030   83.6680   52.9930 C   0  0  0  0  0  0  0  0  0  0  0  0
   50.1390   83.4580   52.7410 H   0  0  0  0  0  0  0  0  0  0  0  0
   48.1750   83.7530   51.9590 C   0  0  0  0  0  3  0  0  0  0  0  0
   46.8510   84.0190   52.2480 C   0  0  0  0  0  3  0  0  0  0  0  0
   46.4490   84.2000   53.5550 C   0  0  0  0  0  0  0  0  0  0  0  0
   45.1220   84.4700   53.9060 C   0  0  0  0  0  3  0  0  0  0  0  0
  2  1  1  0  0  0  0
  2  3  1  0  0  0  0
  3 12  1  0  0  0  0
  4  3  2  0  0  0  0
  4  9  1  0  0  0  0
  5  4  1  0  0  0  0
  6  8  1  0  0  0  0
  6  5  2  0  0  0  0
  7  6  1  0  0  0  0
  8  2  2  0  0  0  0
 10  5  1  0  0  0  0
 11 16  1  0  0  0  0
 12 13  1  0  0  0  0
 12 11  2  0  0  0  0
 13 14  2  0  0  0  0
 14 15  1  0  0  0  0
 15 19  1  0  0  0  0
 16 15  2  0  0  0  0
 17 11  1  0  0  0  0
 18 13  1  0  0  0  0
 19 22  1  0  0  0  0
 19 21  1  0  0  0  0
 20 19  1  0  0  0  0
 23  8  1  0  0  0  0
 24 27  1  0  0  0  0
 24 26  1  0  0  0  0
 24 23  1  0  0  0  0
 25 24  1  0  0  0  0
 28 27  1  0  0  0  0
 28 29  1  0  0  0  0
 29 30  1  0  0  0  0
 31 29  2  0  0  0  0
 32 31  1  0  0  0  0
 33 32  1  0  0  0  0
 34 33  2  0  0  0  0
 35 34  1  0  0  0  0
 36 37  2  0  0  0  0
 36 34  1  0  0  0  0
 37 38  1  0  0  0  0
 38 39  1  0  0  0  0
 38 32  2  0  0  0  0
 39 28  2  0  0  0  0
M  END
>  <minimizedAffinity>
-4.80885506

>  <minimizedRMSD>
0.562360108

$$$$
