
 OpenBabel03212520053D

 44 49  0  0  0  0  0  0  0  0999 V2000
   40.7250   81.7610   57.1260 C   0  0  0  0  0  0  0  0  0  0  0  0
   41.8180   82.3130   56.4400 C   0  0  0  0  0  0  0  0  0  0  0  0
   42.6130   83.2160   57.1290 C   0  0  0  0  0  0  0  0  0  0  0  0
   42.3230   83.5310   58.4140 N   0  0  0  0  0  0  0  0  0  0  0  0
   41.2580   82.9750   59.0500 C   0  0  0  0  0  0  0  0  0  0  0  0
   40.4500   82.0850   58.4060 N   0  0  0  0  0  0  0  0  0  0  0  0
   40.0200   81.0510   56.7240 H   0  0  0  0  0  0  0  0  0  0  0  0
   41.8670   81.8880   55.4680 H   0  0  0  0  0  0  0  0  0  0  0  0
   39.6800   83.0970   60.9170 C   0  0  0  0  0  0  0  0  0  0  0  0
   40.9830   83.2870   60.4430 C   0  0  0  0  0  0  0  0  0  0  0  0
   42.0050   83.7410   61.2780 C   0  0  0  0  0  0  0  0  0  0  0  0
   41.7680   84.0200   62.6100 C   0  0  0  0  0  0  0  0  0  0  0  0
   42.4610   84.4500   63.6750 N   0  0  0  0  0  0  0  0  0  0  0  0
   41.6660   84.5330   64.7650 C   0  0  0  0  0  0  0  0  0  0  0  0
   40.4610   84.1400   64.3330 N   0  0  0  0  0  0  0  0  0  0  0  0
   40.4820   83.8220   63.0360 C   0  0  0  0  0  0  0  0  0  0  0  0
   39.4290   83.3770   62.2670 C   0  0  0  0  0  0  0  0  0  0  0  0
   38.8810   82.7480   60.2890 H   0  0  0  0  0  0  0  0  0  0  0  0
   43.0140   83.8870   60.9060 H   0  0  0  0  0  0  0  0  0  0  0  0
   43.4800   84.6820   63.6360 H   0  0  0  0  0  0  0  0  0  0  0  0
   41.9990   84.8570   65.7500 H   0  0  0  0  0  0  0  0  0  0  0  0
   38.4340   83.2440   62.6740 H   0  0  0  0  0  0  0  0  0  0  0  0
   42.3480   83.7040   54.1980 Cl  0  0  0  0  0  0  0  0  0  0  0  0
   43.7790   84.0940   55.1370 C   0  0  0  0  0  0  0  0  0  0  0  0
   43.7480   83.8300   56.4810 C   0  0  0  0  0  0  0  0  0  0  0  0
   44.9080   84.2030   57.1570 C   0  0  0  0  0  0  0  0  0  0  0  0
   46.0020   84.7840   56.5600 C   0  0  0  0  0  0  0  0  0  0  0  0
   45.9610   85.0210   55.1850 C   0  0  0  0  0  0  0  0  0  0  0  0
   47.3280   85.7560   54.3930 Cl  0  0  0  0  0  0  0  0  0  0  0  0
   44.8320   84.6690   54.4690 C   0  0  0  0  0  0  0  0  0  0  0  0
   44.9710   84.0320   58.2220 H   0  0  0  0  0  0  0  0  0  0  0  0
   46.8660   85.0440   57.1560 H   0  0  0  0  0  0  0  0  0  0  0  0
   44.8340   84.9360   53.0350 C   0  0  0  0  0  0  0  0  0  0  0  0
   44.4550   86.0580   52.3720 C   0  0  0  0  0  0  0  0  0  0  0  0
   44.1100   86.8470   52.9970 H   0  0  0  0  0  0  0  0  0  0  0  0
   44.5410   86.0930   50.9760 C   0  0  0  0  0  3  0  0  0  0  0  0
   45.0060   85.0030   50.2570 C   0  0  0  0  0  0  0  0  0  0  0  0
   45.0830   85.0560   48.9050 N   0  0  0  0  0  0  0  0  0  0  0  0
   45.5400   83.9790   48.2360 C   0  0  0  0  0  0  0  0  0  0  0  0
   45.5960   84.0400   47.1410 H   0  0  0  0  0  0  0  0  0  0  0  0
   45.9460   82.8000   48.8280 C   0  0  0  0  0  3  0  0  0  0  0  0
   45.8600   82.7680   50.2050 C   0  0  0  0  0  3  0  0  0  0  0  0
   45.3930   83.8560   50.9420 C   0  0  0  0  0  0  0  0  0  0  0  0
   45.3070   83.8210   52.3300 C   0  0  0  0  0  3  0  0  0  0  0  0
  1  6  1  0  0  0  0
  2  1  2  0  0  0  0
  2  3  1  0  0  0  0
  3  4  2  0  0  0  0
  4  5  1  0  0  0  0
  5 10  1  0  0  0  0
  6  5  2  0  0  0  0
  7  1  1  0  0  0  0
  8  2  1  0  0  0  0
  9 17  1  0  0  0  0
 10  9  2  0  0  0  0
 10 11  1  0  0  0  0
 11 12  2  0  0  0  0
 12 16  1  0  0  0  0
 12 13  1  0  0  0  0
 13 14  1  0  0  0  0
 14 21  1  0  0  0  0
 15 14  2  0  0  0  0
 16 15  1  0  0  0  0
 17 22  1  0  0  0  0
 17 16  2  0  0  0  0
 18  9  1  0  0  0  0
 19 11  1  0  0  0  0
 20 13  1  0  0  0  0
 23 24  1  0  0  0  0
 24 25  1  0  0  0  0
 25  3  1  0  0  0  0
 25 26  2  0  0  0  0
 26 31  1  0  0  0  0
 27 32  1  0  0  0  0
 27 26  1  0  0  0  0
 28 27  2  0  0  0  0
 29 28  1  0  0  0  0
 30 24  2  0  0  0  0
 30 28  1  0  0  0  0
 33 30  1  0  0  0  0
 34 35  1  0  0  0  0
 34 33  1  0  0  0  0
 36 34  2  0  0  0  0
 37 43  1  0  0  0  0
 37 36  1  0  0  0  0
 38 37  2  0  0  0  0
 39 41  2  0  0  0  0
 39 38  1  0  0  0  0
 40 39  1  0  0  0  0
 41 42  1  0  0  0  0
 42 43  2  0  0  0  0
 43 44  1  0  0  0  0
 44 33  2  0  0  0  0
M  END
>  <minimizedAffinity>
-5.08312893

>  <minimizedRMSD>
1.13660014

$$$$
