
 OpenBabel03212520213D

 39 42  0  0  0  0  0  0  0  0999 V2000
   43.2090   83.7990   58.5540 Cl  0  0  0  0  0  0  0  0  0  0  0  0
   41.9240   82.6960   58.1280 C   0  0  0  0  0  0  0  0  0  0  0  0
   40.9990   82.2110   59.0520 C   0  0  0  0  0  0  0  0  0  0  0  0
   40.0370   81.3410   58.5630 C   0  0  0  0  0  0  0  0  0  0  0  0
   39.9030   80.9110   57.2650 C   0  0  0  0  0  0  0  0  0  0  0  0
   40.8240   81.4050   56.3870 C   0  0  0  0  0  0  0  0  0  0  0  0
   40.7860   80.9480   54.6880 Cl  0  0  0  0  0  0  0  0  0  0  0  0
   41.8250   82.2890   56.8150 C   0  0  0  0  0  0  0  0  0  0  0  0
   39.3490   81.0040   59.3360 H   0  0  0  0  0  0  0  0  0  0  0  0
   39.1270   80.2360   56.9670 H   0  0  0  0  0  0  0  0  0  0  0  0
   41.9220   82.0790   61.4190 C   0  0  0  0  0  0  0  0  0  0  0  0
   41.1010   82.6310   60.4050 C   0  0  0  0  0  0  0  0  0  0  0  0
   40.2940   83.7080   60.7620 C   0  0  0  0  0  0  0  0  0  0  0  0
   40.3700   84.1350   62.0600 N   0  0  0  0  0  0  0  0  0  0  0  0
   41.1550   83.5910   62.9870 C   0  0  0  0  0  0  0  0  0  0  0  0
   41.9470   82.5430   62.6610 N   0  0  0  0  0  0  0  0  0  0  0  0
   42.5310   81.2430   61.0920 H   0  0  0  0  0  0  0  0  0  0  0  0
   39.6260   84.2090   60.0710 H   0  0  0  0  0  0  0  0  0  0  0  0
   41.0730   84.2210   64.3340 C   0  0  0  0  0  0  0  0  0  0  0  0
   40.6320   85.5240   64.2820 F   0  0  0  0  0  0  0  0  0  0  0  0
   40.2100   83.4870   65.1470 F   0  0  0  0  0  0  0  0  0  0  0  0
   42.3510   84.2690   64.9310 F   0  0  0  0  0  0  0  0  0  0  0  0
   42.7370   82.7630   55.8880 O   0  0  0  0  0  0  0  0  0  0  0  0
   42.5150   83.8200   55.0150 C   0  0  0  0  0  0  0  0  0  0  0  0
   42.5200   83.5240   53.9460 H   0  0  0  0  0  0  0  0  0  0  0  0
   41.5660   84.3710   55.1770 H   0  0  0  0  0  0  0  0  0  0  0  0
   43.5580   84.7530   55.1600 O   0  0  0  0  0  0  0  0  0  0  0  0
   44.8980   84.5170   54.9580 C   0  0  0  0  0  0  0  0  0  0  0  0
   45.5330   83.7450   54.0120 C   0  0  0  0  0  0  0  0  0  0  0  0
   44.8410   83.2650   53.3380 H   0  0  0  0  0  0  0  0  0  0  0  0
   46.8830   83.6150   53.9480 C   0  0  0  0  0  3  0  0  0  0  0  0
   47.6380   84.3080   54.9010 C   0  0  0  0  0  0  0  0  0  0  0  0
   48.9940   84.1850   54.8470 N   0  0  0  0  0  0  0  0  0  0  0  0
   49.8100   84.8090   55.7160 C   0  0  0  0  0  0  0  0  0  0  0  0
   50.8930   84.7150   55.6780 H   0  0  0  0  0  0  0  0  0  0  0  0
   49.2510   85.6100   56.7070 C   0  0  0  0  0  3  0  0  0  0  0  0
   47.8790   85.7500   56.7800 C   0  0  0  0  0  3  0  0  0  0  0  0
   47.0660   85.0980   55.8760 C   0  0  0  0  0  0  0  0  0  0  0  0
   45.6700   85.2020   55.9030 C   0  0  0  0  0  3  0  0  0  0  0  0
  2  1  1  0  0  0  0
  2  3  1  0  0  0  0
  3 12  1  0  0  0  0
  4  3  2  0  0  0  0
  4  9  1  0  0  0  0
  5  4  1  0  0  0  0
  6  8  1  0  0  0  0
  6  5  2  0  0  0  0
  7  6  1  0  0  0  0
  8  2  2  0  0  0  0
 10  5  1  0  0  0  0
 11 16  1  0  0  0  0
 12 13  1  0  0  0  0
 12 11  2  0  0  0  0
 13 14  2  0  0  0  0
 14 15  1  0  0  0  0
 15 19  1  0  0  0  0
 16 15  2  0  0  0  0
 17 11  1  0  0  0  0
 18 13  1  0  0  0  0
 19 22  1  0  0  0  0
 19 21  1  0  0  0  0
 20 19  1  0  0  0  0
 23  8  1  0  0  0  0
 24 27  1  0  0  0  0
 24 26  1  0  0  0  0
 24 23  1  0  0  0  0
 25 24  1  0  0  0  0
 28 27  1  0  0  0  0
 28 39  1  0  0  0  0
 29 28  2  0  0  0  0
 30 29  1  0  0  0  0
 31 29  1  0  0  0  0
 31 32  2  0  0  0  0
 32 38  1  0  0  0  0
 33 32  1  0  0  0  0
 33 34  2  0  0  0  0
 34 36  1  0  0  0  0
 35 34  1  0  0  0  0
 36 37  2  0  0  0  0
 38 39  2  0  0  0  0
 38 37  1  0  0  0  0
M  END
>  <minimizedAffinity>
-4.83390713

>  <minimizedRMSD>
0.954002559

$$$$
