
 OpenBabel03212520213D

 39 42  0  0  0  0  0  0  0  0999 V2000
   43.0900   83.9490   58.5960 Cl  0  0  0  0  0  0  0  0  0  0  0  0
   41.8720   82.7570   58.2120 C   0  0  0  0  0  0  0  0  0  0  0  0
   41.0020   82.2230   59.1610 C   0  0  0  0  0  0  0  0  0  0  0  0
   40.0900   81.2850   58.7030 C   0  0  0  0  0  0  0  0  0  0  0  0
   39.9570   80.8310   57.4140 C   0  0  0  0  0  0  0  0  0  0  0  0
   40.8250   81.3740   56.5100 C   0  0  0  0  0  0  0  0  0  0  0  0
   40.7800   80.8940   54.8170 Cl  0  0  0  0  0  0  0  0  0  0  0  0
   41.7730   82.3280   56.9060 C   0  0  0  0  0  0  0  0  0  0  0  0
   39.4430   80.9130   59.4950 H   0  0  0  0  0  0  0  0  0  0  0  0
   39.2230   80.1020   57.1400 H   0  0  0  0  0  0  0  0  0  0  0  0
   41.9540   82.1560   61.5190 C   0  0  0  0  0  0  0  0  0  0  0  0
   41.1050   82.6660   60.5060 C   0  0  0  0  0  0  0  0  0  0  0  0
   40.2680   83.7230   60.8570 C   0  0  0  0  0  0  0  0  0  0  0  0
   40.3440   84.1710   62.1480 N   0  0  0  0  0  0  0  0  0  0  0  0
   41.1560   83.6660   63.0730 C   0  0  0  0  0  0  0  0  0  0  0  0
   41.9770   82.6380   62.7550 N   0  0  0  0  0  0  0  0  0  0  0  0
   42.5850   81.3350   61.1980 H   0  0  0  0  0  0  0  0  0  0  0  0
   39.5780   84.1920   60.1660 H   0  0  0  0  0  0  0  0  0  0  0  0
   41.0680   84.3130   64.4120 C   0  0  0  0  0  0  0  0  0  0  0  0
   40.7300   85.6450   64.3340 F   0  0  0  0  0  0  0  0  0  0  0  0
   40.1190   83.6550   65.1940 F   0  0  0  0  0  0  0  0  0  0  0  0
   42.3210   84.2680   65.0610 F   0  0  0  0  0  0  0  0  0  0  0  0
   42.6310   82.8500   55.9530 O   0  0  0  0  0  0  0  0  0  0  0  0
   42.3810   83.9790   55.1830 C   0  0  0  0  0  0  0  0  0  0  0  0
   42.3540   83.7780   54.0930 H   0  0  0  0  0  0  0  0  0  0  0  0
   41.4370   84.5100   55.4220 H   0  0  0  0  0  0  0  0  0  0  0  0
   43.4270   84.8990   55.3780 O   0  0  0  0  0  0  0  0  0  0  0  0
   44.7730   84.6450   55.2510 C   0  0  0  0  0  0  0  0  0  0  0  0
   45.7550   84.5450   56.2110 C   0  0  0  0  0  0  0  0  0  0  0  0
   45.3740   84.6970   57.2080 H   0  0  0  0  0  0  0  0  0  0  0  0
   47.0530   84.2840   55.9150 C   0  0  0  0  0  3  0  0  0  0  0  0
   47.3810   84.1130   54.5650 C   0  0  0  0  0  0  0  0  0  0  0  0
   48.6820   83.8510   54.2560 N   0  0  0  0  0  0  0  0  0  0  0  0
   49.1000   83.6700   52.9910 C   0  0  0  0  0  0  0  0  0  0  0  0
   50.1370   83.4600   52.7370 H   0  0  0  0  0  0  0  0  0  0  0  0
   48.1730   83.7530   51.9560 C   0  0  0  0  0  3  0  0  0  0  0  0
   46.8490   84.0180   52.2470 C   0  0  0  0  0  3  0  0  0  0  0  0
   46.4470   84.1990   53.5540 C   0  0  0  0  0  0  0  0  0  0  0  0
   45.1200   84.4690   53.9060 C   0  0  0  0  0  3  0  0  0  0  0  0
  2  1  1  0  0  0  0
  2  3  1  0  0  0  0
  3 12  1  0  0  0  0
  4  3  2  0  0  0  0
  4  9  1  0  0  0  0
  5  4  1  0  0  0  0
  6  8  1  0  0  0  0
  6  5  2  0  0  0  0
  7  6  1  0  0  0  0
  8  2  2  0  0  0  0
 10  5  1  0  0  0  0
 11 16  1  0  0  0  0
 12 13  1  0  0  0  0
 12 11  2  0  0  0  0
 13 14  2  0  0  0  0
 14 15  1  0  0  0  0
 15 19  1  0  0  0  0
 16 15  2  0  0  0  0
 17 11  1  0  0  0  0
 18 13  1  0  0  0  0
 19 22  1  0  0  0  0
 19 21  1  0  0  0  0
 20 19  1  0  0  0  0
 23  8  1  0  0  0  0
 24 27  1  0  0  0  0
 24 26  1  0  0  0  0
 24 23  1  0  0  0  0
 25 24  1  0  0  0  0
 28 27  1  0  0  0  0
 28 29  1  0  0  0  0
 29 30  1  0  0  0  0
 31 29  2  0  0  0  0
 32 31  1  0  0  0  0
 33 32  1  0  0  0  0
 34 33  2  0  0  0  0
 35 34  1  0  0  0  0
 36 37  2  0  0  0  0
 36 34  1  0  0  0  0
 37 38  1  0  0  0  0
 38 39  1  0  0  0  0
 38 32  2  0  0  0  0
 39 28  2  0  0  0  0
M  END
>  <minimizedAffinity>
-4.80892944

>  <minimizedRMSD>
0.541742504

$$$$
