
 OpenBabel03212521003D

 45 50  0  0  1  0  0  0  0  0999 V2000
   39.6070   77.0560   59.1940 C   0  0  0  0  0  0  0  0  0  0  0  0
   40.2360   75.8590   58.9750 C   0  0  0  0  0  0  0  0  0  0  0  0
   39.6470   75.1280   57.9270 C   0  0  0  0  0  0  0  0  0  0  0  0
   38.5880   75.5440   57.2120 N   0  0  0  0  0  0  0  0  0  0  0  0
   38.0320   76.7570   57.5090 C   0  0  0  0  0  0  0  0  0  0  0  0
   38.5570   77.4950   58.5030 N   0  0  0  0  0  0  0  0  0  0  0  0
   41.0820   75.4880   59.5200 H   0  0  0  0  0  0  0  0  0  0  0  0
   40.0860   74.1480   57.6780 H   0  0  0  0  0  0  0  0  0  0  0  0
   40.9150   80.0550   61.6110 C   0  0  0  0  0  0  0  0  0  0  0  0
   40.8810   78.8450   62.2500 C   0  0  0  0  0  0  0  0  0  0  0  0
   40.4720   77.7660   61.5660 C   0  0  0  0  0  0  0  0  0  0  0  0
   40.0940   77.9200   60.2360 C   0  0  0  0  0  0  0  0  0  0  0  0
   40.3370   79.7210   59.9200 S   0  0  0  0  0  0  0  0  0  0  0  0
   41.1770   78.7270   63.3040 H   0  0  0  0  0  0  0  0  0  0  0  0
   40.3770   76.7370   61.8890 H   0  0  0  0  0  0  0  0  0  0  0  0
   43.0790   82.8400   62.6230 C   0  0  0  0  0  0  0  0  0  0  0  0
   42.2220   83.6480   63.3850 C   0  0  0  0  0  0  0  0  0  0  0  0
   40.8900   83.2420   63.5570 C   0  0  0  0  0  0  0  0  0  0  0  0
   40.5090   82.0860   62.9730 N   0  0  0  0  0  0  0  0  0  0  0  0
   41.3550   81.3270   62.2450 C   0  0  0  0  0  0  0  0  0  0  0  0
   42.6240   81.7040   62.0750 N   0  0  0  0  0  0  0  0  0  0  0  0
   44.1170   83.1290   62.4740 H   0  0  0  0  0  0  0  0  0  0  0  0
   42.5500   84.5680   63.8410 H   0  0  0  0  0  0  0  0  0  0  0  0
   40.1650   83.8020   64.1270 H   0  0  0  0  0  0  0  0  0  0  0  0
   36.8950   77.1870   56.7220 C   0  0  0  0  0  0  0  0  0  0  0  0
   35.7920   77.2330   57.2970 O   0  0  0  0  0  0  0  0  0  0  0  0
   37.0210   77.5590   55.2600 C   0  0  1  0  0  0  0  0  0  0  0  0
   37.4100   79.0090   55.0730 C   0  0  0  0  0  0  0  0  0  0  0  0
   38.3130   77.8750   54.7110 C   0  0  2  0  0  0  0  0  0  0  0  0
   36.0740   77.3290   54.7000 H   0  0  0  0  0  0  0  0  0  0  0  0
   37.5940   79.6320   55.9600 H   0  0  0  0  0  0  0  0  0  0  0  0
   36.9100   79.5600   54.2640 H   0  0  0  0  0  0  0  0  0  0  0  0
   39.1790   77.7920   55.4230 H   0  0  0  0  0  0  0  0  0  0  0  0
   38.7150   77.8480   53.3060 C   0  0  0  0  0  0  0  0  0  0  0  0
   38.4810   79.0260   52.6190 C   0  0  0  0  0  0  0  0  0  0  0  0
   38.0310   79.9140   53.0930 H   0  0  0  0  0  0  0  0  0  0  0  0
   38.7810   79.2220   51.2760 C   0  0  0  0  0  3  0  0  0  0  0  0
   39.3450   78.1230   50.6650 C   0  0  0  0  0  0  0  0  0  0  0  0
   39.6410   78.2830   49.3430 N   0  0  0  0  0  0  0  0  0  0  0  0
   40.1910   77.2750   48.6330 C   0  0  0  0  0  0  0  0  0  0  0  0
   40.4100   77.4450   47.5860 H   0  0  0  0  0  0  0  0  0  0  0  0
   40.4760   76.0360   49.2220 C   0  0  0  0  0  3  0  0  0  0  0  0
   40.1800   75.8520   50.5760 C   0  0  0  0  0  3  0  0  0  0  0  0
   39.6240   76.9060   51.2500 C   0  0  0  0  0  0  0  0  0  0  0  0
   39.2920   76.7930   52.6000 C   0  0  0  0  0  3  0  0  0  0  0  0
  1 12  1  0  0  0  0
  2  1  1  0  0  0  0
  2  7  1  0  0  0  0
  3  2  2  0  0  0  0
  4  5  2  0  0  0  0
  4  3  1  0  0  0  0
  5  6  1  0  0  0  0
  6  1  2  0  0  0  0
  8  3  1  0  0  0  0
  9 20  1  0  0  0  0
  9 10  2  0  0  0  0
 10 14  1  0  0  0  0
 11 15  1  0  0  0  0
 11 10  1  0  0  0  0
 12 11  2  0  0  0  0
 13 12  1  0  0  0  0
 13  9  1  0  0  0  0
 16 17  1  0  0  0  0
 17 18  2  0  0  0  0
 17 23  1  0  0  0  0
 18 24  1  0  0  0  0
 19 18  1  0  0  0  0
 20 19  2  0  0  0  0
 21 20  1  0  0  0  0
 21 16  2  0  0  0  0
 22 16  1  0  0  0  0
 25 26  2  0  0  0  0
 25  5  1  0  0  0  0
 27 30  1  6  0  0  0
 27 25  1  0  0  0  0
 28 27  1  0  0  0  0
 28 31  1  0  0  0  0
 29 28  1  0  0  0  0
 29 27  1  0  0  0  0
 29 33  1  1  0  0  0
 32 28  1  0  0  0  0
 34 29  1  0  0  0  0
 35 36  1  0  0  0  0
 35 34  1  0  0  0  0
 37 35  2  0  0  0  0
 38 44  1  0  0  0  0
 38 37  1  0  0  0  0
 39 38  2  0  0  0  0
 40 42  2  0  0  0  0
 40 39  1  0  0  0  0
 41 40  1  0  0  0  0
 42 43  1  0  0  0  0
 43 44  2  0  0  0  0
 44 45  1  0  0  0  0
 45 34  2  0  0  0  0
M  END
>  <minimizedAffinity>
-6.78235292

>  <minimizedRMSD>
1.91610706

$$$$
