
 OpenBabel03212521003D

 45 50  0  0  1  0  0  0  0  0999 V2000
   39.9780   77.6080   59.0940 C   0  0  0  0  0  0  0  0  0  0  0  0
   40.8290   76.6280   58.6560 C   0  0  0  0  0  0  0  0  0  0  0  0
   40.3130   75.9210   57.5540 C   0  0  0  0  0  0  0  0  0  0  0  0
   39.1210   76.1680   56.9850 N   0  0  0  0  0  0  0  0  0  0  0  0
   38.3430   77.1700   57.4970 C   0  0  0  0  0  0  0  0  0  0  0  0
   38.7920   77.8750   58.5500 N   0  0  0  0  0  0  0  0  0  0  0  0
   41.7880   76.3980   59.0800 H   0  0  0  0  0  0  0  0  0  0  0  0
   40.9290   75.1110   57.1330 H   0  0  0  0  0  0  0  0  0  0  0  0
   41.0020   80.4930   61.7730 C   0  0  0  0  0  0  0  0  0  0  0  0
   41.0010   79.2400   62.3270 C   0  0  0  0  0  0  0  0  0  0  0  0
   40.6830   78.1930   61.5510 C   0  0  0  0  0  0  0  0  0  0  0  0
   40.3660   78.4200   60.2160 C   0  0  0  0  0  0  0  0  0  0  0  0
   40.5290   80.2480   60.0350 S   0  0  0  0  0  0  0  0  0  0  0  0
   41.2490   79.0640   63.3850 H   0  0  0  0  0  0  0  0  0  0  0  0
   40.6270   77.1400   61.7990 H   0  0  0  0  0  0  0  0  0  0  0  0
   42.9590   83.3110   63.0720 C   0  0  0  0  0  0  0  0  0  0  0  0
   42.0270   84.0130   63.8500 C   0  0  0  0  0  0  0  0  0  0  0  0
   40.7150   83.5230   63.9350 C   0  0  0  0  0  0  0  0  0  0  0  0
   40.4260   82.3930   63.2550 N   0  0  0  0  0  0  0  0  0  0  0  0
   41.3420   81.7370   62.5130 C   0  0  0  0  0  0  0  0  0  0  0  0
   42.5930   82.1950   62.4260 N   0  0  0  0  0  0  0  0  0  0  0  0
   43.9840   83.6680   62.9880 H   0  0  0  0  0  0  0  0  0  0  0  0
   42.2820   84.9150   64.3830 H   0  0  0  0  0  0  0  0  0  0  0  0
   39.9370   83.9990   64.5110 H   0  0  0  0  0  0  0  0  0  0  0  0
   37.0660   77.4210   56.8640 C   0  0  0  0  0  0  0  0  0  0  0  0
   36.0700   76.8550   57.3520 O   0  0  0  0  0  0  0  0  0  0  0  0
   36.9280   78.3200   55.6540 C   0  0  1  0  0  0  0  0  0  0  0  0
   37.3280   79.7480   55.9590 C   0  0  0  0  0  0  0  0  0  0  0  0
   38.1050   78.8680   55.0330 C   0  0  2  0  0  0  0  0  0  0  0  0
   35.8850   78.2830   55.2380 H   0  0  0  0  0  0  0  0  0  0  0  0
   37.6980   79.9970   56.9640 H   0  0  0  0  0  0  0  0  0  0  0  0
   36.7050   80.5430   55.5260 H   0  0  0  0  0  0  0  0  0  0  0  0
   39.0860   78.5560   55.4860 H   0  0  0  0  0  0  0  0  0  0  0  0
   38.2350   79.3880   53.6730 C   0  0  0  0  0  0  0  0  0  0  0  0
   39.5350   79.6390   53.2740 C   0  0  0  0  0  0  0  0  0  0  0  0
   40.4050   79.4540   53.9280 H   0  0  0  0  0  0  0  0  0  0  0  0
   39.8910   80.1380   52.0280 C   0  0  0  0  0  3  0  0  0  0  0  0
   38.8180   80.3720   51.1960 C   0  0  0  0  0  0  0  0  0  0  0  0
   39.1340   80.8740   49.9660 N   0  0  0  0  0  0  0  0  0  0  0  0
   38.1690   81.1510   49.0660 C   0  0  0  0  0  0  0  0  0  0  0  0
   38.4650   81.5470   48.1020 H   0  0  0  0  0  0  0  0  0  0  0  0
   36.8150   80.9380   49.3540 C   0  0  0  0  0  3  0  0  0  0  0  0
   36.4690   80.4260   50.6100 C   0  0  0  0  0  3  0  0  0  0  0  0
   37.4870   80.1610   51.4870 C   0  0  0  0  0  0  0  0  0  0  0  0
   37.2170   79.6570   52.7590 C   0  0  0  0  0  3  0  0  0  0  0  0
  1 12  1  0  0  0  0
  2  7  1  0  0  0  0
  2  1  1  0  0  0  0
  3  2  2  0  0  0  0
  4  5  2  0  0  0  0
  4  3  1  0  0  0  0
  5  6  1  0  0  0  0
  6  1  2  0  0  0  0
  8  3  1  0  0  0  0
  9 10  2  0  0  0  0
  9 20  1  0  0  0  0
 10 14  1  0  0  0  0
 11 15  1  0  0  0  0
 11 10  1  0  0  0  0
 12 11  2  0  0  0  0
 13 12  1  0  0  0  0
 13  9  1  0  0  0  0
 16 17  1  0  0  0  0
 17 18  2  0  0  0  0
 17 23  1  0  0  0  0
 18 24  1  0  0  0  0
 19 18  1  0  0  0  0
 20 19  2  0  0  0  0
 21 20  1  0  0  0  0
 21 16  2  0  0  0  0
 22 16  1  0  0  0  0
 25 26  2  0  0  0  0
 25  5  1  0  0  0  0
 27 30  1  6  0  0  0
 27 28  1  0  0  0  0
 27 25  1  0  0  0  0
 28 31  1  0  0  0  0
 29 33  1  1  0  0  0
 29 27  1  0  0  0  0
 29 28  1  0  0  0  0
 32 28  1  0  0  0  0
 34 29  1  0  0  0  0
 35 34  1  0  0  0  0
 35 36  1  0  0  0  0
 37 35  2  0  0  0  0
 38 44  1  0  0  0  0
 38 37  1  0  0  0  0
 39 38  2  0  0  0  0
 40 42  2  0  0  0  0
 40 39  1  0  0  0  0
 41 40  1  0  0  0  0
 42 43  1  0  0  0  0
 43 44  2  0  0  0  0
 44 45  1  0  0  0  0
 45 34  2  0  0  0  0
M  END
>  <minimizedAffinity>
-7.18637085

>  <minimizedRMSD>
1.18280816

$$$$
