
 OpenBabel03212521003D

 45 50  0  0  1  0  0  0  0  0999 V2000
   39.7980   77.4070   59.1850 C   0  0  0  0  0  0  0  0  0  0  0  0
   40.5220   76.2880   58.8670 C   0  0  0  0  0  0  0  0  0  0  0  0
   39.9640   75.5780   57.7870 C   0  0  0  0  0  0  0  0  0  0  0  0
   38.8490   75.9440   57.1320 N   0  0  0  0  0  0  0  0  0  0  0  0
   38.1990   77.0800   57.5280 C   0  0  0  0  0  0  0  0  0  0  0  0
   38.6910   77.7940   58.5550 N   0  0  0  0  0  0  0  0  0  0  0  0
   41.4160   75.9600   59.3620 H   0  0  0  0  0  0  0  0  0  0  0  0
   40.4790   74.6610   57.4600 H   0  0  0  0  0  0  0  0  0  0  0  0
   40.9730   80.3400   61.7470 C   0  0  0  0  0  0  0  0  0  0  0  0
   40.9720   79.1030   62.3330 C   0  0  0  0  0  0  0  0  0  0  0  0
   40.6070   78.0420   61.5980 C   0  0  0  0  0  0  0  0  0  0  0  0
   40.2430   78.2400   60.2700 C   0  0  0  0  0  0  0  0  0  0  0  0
   40.4290   80.0610   60.0350 S   0  0  0  0  0  0  0  0  0  0  0  0
   41.2570   78.9490   63.3850 H   0  0  0  0  0  0  0  0  0  0  0  0
   40.5430   76.9970   61.8750 H   0  0  0  0  0  0  0  0  0  0  0  0
   43.0290   83.1490   62.9080 C   0  0  0  0  0  0  0  0  0  0  0  0
   42.1360   83.8930   63.6920 C   0  0  0  0  0  0  0  0  0  0  0  0
   40.8170   83.4360   63.8290 C   0  0  0  0  0  0  0  0  0  0  0  0
   40.4820   82.2940   63.1910 N   0  0  0  0  0  0  0  0  0  0  0  0
   41.3620   81.5970   62.4420 C   0  0  0  0  0  0  0  0  0  0  0  0
   42.6190   82.0240   62.3050 N   0  0  0  0  0  0  0  0  0  0  0  0
   44.0590   83.4790   62.7850 H   0  0  0  0  0  0  0  0  0  0  0  0
   42.4270   84.8040   64.1920 H   0  0  0  0  0  0  0  0  0  0  0  0
   40.0660   83.9460   64.4130 H   0  0  0  0  0  0  0  0  0  0  0  0
   37.0030   77.4570   56.8040 C   0  0  0  0  0  0  0  0  0  0  0  0
   35.9190   77.0170   57.2310 O   0  0  0  0  0  0  0  0  0  0  0  0
   37.0490   78.3380   55.5740 C   0  0  1  0  0  0  0  0  0  0  0  0
   37.2890   79.7910   55.9230 C   0  0  0  0  0  0  0  0  0  0  0  0
   38.2870   78.9580   55.1850 C   0  0  2  0  0  0  0  0  0  0  0  0
   36.1130   78.2290   54.9620 H   0  0  0  0  0  0  0  0  0  0  0  0
   37.4380   80.0700   56.9760 H   0  0  0  0  0  0  0  0  0  0  0  0
   36.7140   80.5400   55.3610 H   0  0  0  0  0  0  0  0  0  0  0  0
   39.1780   78.7150   55.8260 H   0  0  0  0  0  0  0  0  0  0  0  0
   38.6490   79.4780   53.8670 C   0  0  0  0  0  0  0  0  0  0  0  0
   37.5830   79.6470   53.0030 C   0  0  0  0  0  0  0  0  0  0  0  0
   36.5420   79.4140   53.2870 H   0  0  0  0  0  0  0  0  0  0  0  0
   37.6950   80.1230   51.7030 C   0  0  0  0  0  3  0  0  0  0  0  0
   38.9880   80.4230   51.3290 C   0  0  0  0  0  0  0  0  0  0  0  0
   39.1330   80.8840   50.0530 N   0  0  0  0  0  0  0  0  0  0  0  0
   40.3500   81.2040   49.5700 C   0  0  0  0  0  0  0  0  0  0  0  0
   40.4190   81.5650   48.5510 H   0  0  0  0  0  0  0  0  0  0  0  0
   41.5050   81.0760   50.3510 C   0  0  0  0  0  3  0  0  0  0  0  0
   41.3800   80.6050   51.6630 C   0  0  0  0  0  3  0  0  0  0  0  0
   40.1210   80.2940   52.1050 C   0  0  0  0  0  0  0  0  0  0  0  0
   39.9200   79.8100   53.3970 C   0  0  0  0  0  3  0  0  0  0  0  0
  1 12  1  0  0  0  0
  2  1  1  0  0  0  0
  2  7  1  0  0  0  0
  3  2  2  0  0  0  0
  4  5  2  0  0  0  0
  4  3  1  0  0  0  0
  5  6  1  0  0  0  0
  6  1  2  0  0  0  0
  8  3  1  0  0  0  0
  9 10  2  0  0  0  0
  9 20  1  0  0  0  0
 10 14  1  0  0  0  0
 11 15  1  0  0  0  0
 11 10  1  0  0  0  0
 12 11  2  0  0  0  0
 13 12  1  0  0  0  0
 13  9  1  0  0  0  0
 16 17  1  0  0  0  0
 17 18  2  0  0  0  0
 17 23  1  0  0  0  0
 18 24  1  0  0  0  0
 19 18  1  0  0  0  0
 20 19  2  0  0  0  0
 21 20  1  0  0  0  0
 21 16  2  0  0  0  0
 22 16  1  0  0  0  0
 25 26  2  0  0  0  0
 25  5  1  0  0  0  0
 27 30  1  6  0  0  0
 27 28  1  0  0  0  0
 27 25  1  0  0  0  0
 28 31  1  0  0  0  0
 29 27  1  0  0  0  0
 29 33  1  1  0  0  0
 29 28  1  0  0  0  0
 32 28  1  0  0  0  0
 34 29  1  0  0  0  0
 35 36  1  0  0  0  0
 35 34  2  0  0  0  0
 37 35  1  0  0  0  0
 38 37  2  0  0  0  0
 38 44  1  0  0  0  0
 39 38  1  0  0  0  0
 40 39  2  0  0  0  0
 40 42  1  0  0  0  0
 41 40  1  0  0  0  0
 42 43  2  0  0  0  0
 43 44  1  0  0  0  0
 44 45  2  0  0  0  0
 45 34  1  0  0  0  0
M  END
>  <minimizedAffinity>
-6.82229805

>  <minimizedRMSD>
0.582686663

$$$$
