
 OpenBabel03212520203D

 39 42  0  0  0  0  0  0  0  0999 V2000
   43.0350   84.0790   58.6480 Cl  0  0  0  0  0  0  0  0  0  0  0  0
   41.8620   82.8450   58.2570 C   0  0  0  0  0  0  0  0  0  0  0  0
   41.0160   82.2710   59.2040 C   0  0  0  0  0  0  0  0  0  0  0  0
   40.1380   81.3020   58.7410 C   0  0  0  0  0  0  0  0  0  0  0  0
   40.0190   80.8540   57.4480 C   0  0  0  0  0  0  0  0  0  0  0  0
   40.8630   81.4370   56.5470 C   0  0  0  0  0  0  0  0  0  0  0  0
   40.8310   80.9680   54.8500 Cl  0  0  0  0  0  0  0  0  0  0  0  0
   41.7750   82.4220   56.9480 C   0  0  0  0  0  0  0  0  0  0  0  0
   39.5090   80.8990   59.5320 H   0  0  0  0  0  0  0  0  0  0  0  0
   39.3120   80.1000   57.1710 H   0  0  0  0  0  0  0  0  0  0  0  0
   41.9540   82.1990   61.5670 C   0  0  0  0  0  0  0  0  0  0  0  0
   41.1050   82.7060   60.5530 C   0  0  0  0  0  0  0  0  0  0  0  0
   40.2550   83.7520   60.9050 C   0  0  0  0  0  0  0  0  0  0  0  0
   40.3180   84.1920   62.1990 N   0  0  0  0  0  0  0  0  0  0  0  0
   41.1300   83.6910   63.1260 C   0  0  0  0  0  0  0  0  0  0  0  0
   41.9650   82.6740   62.8060 N   0  0  0  0  0  0  0  0  0  0  0  0
   42.5960   81.3870   61.2450 H   0  0  0  0  0  0  0  0  0  0  0  0
   39.5630   84.2170   60.2120 H   0  0  0  0  0  0  0  0  0  0  0  0
   41.0270   84.3280   64.4680 C   0  0  0  0  0  0  0  0  0  0  0  0
   40.6630   85.6540   64.3970 F   0  0  0  0  0  0  0  0  0  0  0  0
   40.0900   83.6470   65.2440 F   0  0  0  0  0  0  0  0  0  0  0  0
   42.2790   84.3050   65.1190 F   0  0  0  0  0  0  0  0  0  0  0  0
   42.6100   82.9840   55.9970 O   0  0  0  0  0  0  0  0  0  0  0  0
   42.3670   84.1730   55.3200 C   0  0  0  0  0  0  0  0  0  0  0  0
   41.7640   84.0450   54.3980 H   0  0  0  0  0  0  0  0  0  0  0  0
   41.8560   84.9560   55.9160 H   0  0  0  0  0  0  0  0  0  0  0  0
   43.5970   84.7150   54.9030 O   0  0  0  0  0  0  0  0  0  0  0  0
   44.8420   84.3750   55.3780 C   0  0  0  0  0  0  0  0  0  0  0  0
   45.7140   83.3930   54.9690 C   0  0  0  0  0  0  0  0  0  0  0  0
   45.3290   82.8170   54.1420 H   0  0  0  0  0  0  0  0  0  0  0  0
   46.9220   83.1850   55.5520 C   0  0  0  0  0  0  0  0  0  0  0  0
   47.2710   84.0240   56.6170 C   0  0  0  0  0  0  0  0  0  0  0  0
   48.4810   83.8250   57.2100 N   0  0  0  0  0  0  0  0  0  0  0  0
   48.9100   84.5760   58.2420 C   0  0  0  0  0  0  0  0  0  0  0  0
   49.8740   84.4220   58.7200 H   0  0  0  0  0  0  0  0  0  0  0  0
   48.0900   85.5930   58.7210 C   0  0  0  0  0  0  0  0  0  0  0  0
   46.8590   85.8120   58.1350 C   0  0  0  0  0  0  0  0  0  0  0  0
   46.4450   85.0270   57.0780 C   0  0  0  0  0  0  0  0  0  0  0  0
   45.2080   85.2040   56.4460 C   0  0  0  0  0  0  0  0  0  0  0  0
  2  1  1  0  0  0  0
  2  3  1  0  0  0  0
  3 12  1  0  0  0  0
  4  3  2  0  0  0  0
  4  9  1  0  0  0  0
  5  4  1  0  0  0  0
  6  8  1  0  0  0  0
  6  5  2  0  0  0  0
  7  6  1  0  0  0  0
  8  2  2  0  0  0  0
 10  5  1  0  0  0  0
 11 16  1  0  0  0  0
 12 13  1  0  0  0  0
 12 11  2  0  0  0  0
 13 14  2  0  0  0  0
 14 15  1  0  0  0  0
 15 19  1  0  0  0  0
 16 15  2  0  0  0  0
 17 11  1  0  0  0  0
 18 13  1  0  0  0  0
 19 22  1  0  0  0  0
 19 21  1  0  0  0  0
 20 19  1  0  0  0  0
 23  8  1  0  0  0  0
 24 26  1  0  0  0  0
 24 23  1  0  0  0  0
 25 24  1  0  0  0  0
 27 24  1  0  0  0  0
 27 28  1  0  0  0  0
 28 39  1  0  0  0  0
 29 28  2  0  0  0  0
 29 31  1  0  0  0  0
 30 29  1  0  0  0  0
 31 32  2  0  0  0  0
 32 38  1  0  0  0  0
 32 33  1  0  0  0  0
 33 34  2  0  0  0  0
 34 35  1  0  0  0  0
 34 36  1  0  0  0  0
 37 36  2  0  0  0  0
 38 37  1  0  0  0  0
 39 38  2  0  0  0  0
M  END
>  <minimizedAffinity>
-5.06394005

>  <minimizedRMSD>
2.00862408

$$$$
