
 OpenBabel03212520053D

 44 49  0  0  0  0  0  0  0  0999 V2000
   40.7280   81.7540   57.1300 C   0  0  0  0  0  0  0  0  0  0  0  0
   41.8040   82.3280   56.4350 C   0  0  0  0  0  0  0  0  0  0  0  0
   42.5840   83.2490   57.1170 C   0  0  0  0  0  0  0  0  0  0  0  0
   42.2970   83.5600   58.4030 N   0  0  0  0  0  0  0  0  0  0  0  0
   41.2480   82.9830   59.0480 C   0  0  0  0  0  0  0  0  0  0  0  0
   40.4550   82.0760   58.4110 N   0  0  0  0  0  0  0  0  0  0  0  0
   40.0350   81.0290   56.7330 H   0  0  0  0  0  0  0  0  0  0  0  0
   41.8550   81.9030   55.4640 H   0  0  0  0  0  0  0  0  0  0  0  0
   39.6760   83.0980   60.9200 C   0  0  0  0  0  0  0  0  0  0  0  0
   40.9760   83.2920   60.4420 C   0  0  0  0  0  0  0  0  0  0  0  0
   42.0000   83.7470   61.2750 C   0  0  0  0  0  0  0  0  0  0  0  0
   41.7660   84.0230   62.6080 C   0  0  0  0  0  0  0  0  0  0  0  0
   42.4610   84.4530   63.6720 N   0  0  0  0  0  0  0  0  0  0  0  0
   41.6690   84.5310   64.7650 C   0  0  0  0  0  0  0  0  0  0  0  0
   40.4630   84.1360   64.3350 N   0  0  0  0  0  0  0  0  0  0  0  0
   40.4820   83.8200   63.0370 C   0  0  0  0  0  0  0  0  0  0  0  0
   39.4270   83.3750   62.2700 C   0  0  0  0  0  0  0  0  0  0  0  0
   38.8760   82.7490   60.2930 H   0  0  0  0  0  0  0  0  0  0  0  0
   43.0080   83.8960   60.9010 H   0  0  0  0  0  0  0  0  0  0  0  0
   43.4790   84.6870   63.6300 H   0  0  0  0  0  0  0  0  0  0  0  0
   42.0040   84.8550   65.7500 H   0  0  0  0  0  0  0  0  0  0  0  0
   38.4340   83.2380   62.6800 H   0  0  0  0  0  0  0  0  0  0  0  0
   42.3280   83.6390   54.1700 Cl  0  0  0  0  0  0  0  0  0  0  0  0
   43.7360   84.1100   55.1090 C   0  0  0  0  0  0  0  0  0  0  0  0
   43.7010   83.8850   56.4600 C   0  0  0  0  0  0  0  0  0  0  0  0
   44.8410   84.3210   57.1340 C   0  0  0  0  0  0  0  0  0  0  0  0
   45.9180   84.9250   56.5290 C   0  0  0  0  0  0  0  0  0  0  0  0
   45.8810   85.1190   55.1460 C   0  0  0  0  0  0  0  0  0  0  0  0
   47.2260   85.8810   54.3440 Cl  0  0  0  0  0  0  0  0  0  0  0  0
   44.7720   84.7040   54.4330 C   0  0  0  0  0  0  0  0  0  0  0  0
   44.9000   84.1850   58.2040 H   0  0  0  0  0  0  0  0  0  0  0  0
   46.7660   85.2350   57.1230 H   0  0  0  0  0  0  0  0  0  0  0  0
   44.7780   84.9280   52.9910 C   0  0  0  0  0  0  0  0  0  0  0  0
   44.3770   86.0190   52.2920 C   0  0  0  0  0  0  0  0  0  0  0  0
   44.0100   86.8190   52.8910 H   0  0  0  0  0  0  0  0  0  0  0  0
   44.4730   86.0140   50.8960 C   0  0  0  0  0  3  0  0  0  0  0  0
   44.9690   84.9160   50.2130 C   0  0  0  0  0  0  0  0  0  0  0  0
   45.0550   84.9290   48.8620 N   0  0  0  0  0  0  0  0  0  0  0  0
   45.5420   83.8440   48.2280 C   0  0  0  0  0  0  0  0  0  0  0  0
   45.6030   83.8730   47.1320 H   0  0  0  0  0  0  0  0  0  0  0  0
   45.9710   82.6940   48.8580 C   0  0  0  0  0  3  0  0  0  0  0  0
   45.8760   82.7020   50.2350 C   0  0  0  0  0  3  0  0  0  0  0  0
   45.3790   83.8000   50.9340 C   0  0  0  0  0  0  0  0  0  0  0  0
   45.2830   83.8040   52.3240 C   0  0  0  0  0  3  0  0  0  0  0  0
  1  6  1  0  0  0  0
  2  3  1  0  0  0  0
  2  1  2  0  0  0  0
  3  4  2  0  0  0  0
  4  5  1  0  0  0  0
  5 10  1  0  0  0  0
  6  5  2  0  0  0  0
  7  1  1  0  0  0  0
  8  2  1  0  0  0  0
  9 17  1  0  0  0  0
 10  9  2  0  0  0  0
 10 11  1  0  0  0  0
 11 12  2  0  0  0  0
 12 16  1  0  0  0  0
 12 13  1  0  0  0  0
 13 14  1  0  0  0  0
 14 21  1  0  0  0  0
 15 14  2  0  0  0  0
 16 15  1  0  0  0  0
 17 22  1  0  0  0  0
 17 16  2  0  0  0  0
 18  9  1  0  0  0  0
 19 11  1  0  0  0  0
 20 13  1  0  0  0  0
 23 24  1  0  0  0  0
 24 25  1  0  0  0  0
 25  3  1  0  0  0  0
 25 26  2  0  0  0  0
 26 31  1  0  0  0  0
 27 32  1  0  0  0  0
 27 26  1  0  0  0  0
 28 27  2  0  0  0  0
 29 28  1  0  0  0  0
 30 24  2  0  0  0  0
 30 28  1  0  0  0  0
 33 30  1  0  0  0  0
 34 35  1  0  0  0  0
 34 33  2  0  0  0  0
 36 34  1  0  0  0  0
 37 36  2  0  0  0  0
 37 43  1  0  0  0  0
 38 37  1  0  0  0  0
 39 41  1  0  0  0  0
 39 38  2  0  0  0  0
 40 39  1  0  0  0  0
 41 42  2  0  0  0  0
 42 43  1  0  0  0  0
 43 44  2  0  0  0  0
 44 33  1  0  0  0  0
M  END
>  <minimizedAffinity>
-5.10420179

>  <minimizedRMSD>
0.0656982288

$$$$
