
 OpenBabel03212520213D

 39 42  0  0  0  0  0  0  0  0999 V2000
   43.0880   83.9480   58.5900 Cl  0  0  0  0  0  0  0  0  0  0  0  0
   41.8710   82.7560   58.2070 C   0  0  0  0  0  0  0  0  0  0  0  0
   41.0010   82.2220   59.1570 C   0  0  0  0  0  0  0  0  0  0  0  0
   40.0880   81.2840   58.7000 C   0  0  0  0  0  0  0  0  0  0  0  0
   39.9550   80.8300   57.4110 C   0  0  0  0  0  0  0  0  0  0  0  0
   40.8220   81.3730   56.5060 C   0  0  0  0  0  0  0  0  0  0  0  0
   40.7760   80.8920   54.8140 Cl  0  0  0  0  0  0  0  0  0  0  0  0
   41.7700   82.3260   56.9010 C   0  0  0  0  0  0  0  0  0  0  0  0
   39.4420   80.9110   59.4930 H   0  0  0  0  0  0  0  0  0  0  0  0
   39.2200   80.1010   57.1380 H   0  0  0  0  0  0  0  0  0  0  0  0
   41.9570   82.1570   61.5130 C   0  0  0  0  0  0  0  0  0  0  0  0
   41.1050   82.6650   60.5020 C   0  0  0  0  0  0  0  0  0  0  0  0
   40.2650   83.7190   60.8550 C   0  0  0  0  0  0  0  0  0  0  0  0
   40.3420   84.1670   62.1450 N   0  0  0  0  0  0  0  0  0  0  0  0
   41.1570   83.6650   63.0690 C   0  0  0  0  0  0  0  0  0  0  0  0
   41.9810   82.6400   62.7490 N   0  0  0  0  0  0  0  0  0  0  0  0
   42.5900   81.3390   61.1910 H   0  0  0  0  0  0  0  0  0  0  0  0
   39.5720   84.1860   60.1650 H   0  0  0  0  0  0  0  0  0  0  0  0
   41.0690   84.3120   64.4080 C   0  0  0  0  0  0  0  0  0  0  0  0
   40.7330   85.6440   64.3310 F   0  0  0  0  0  0  0  0  0  0  0  0
   40.1190   83.6540   65.1890 F   0  0  0  0  0  0  0  0  0  0  0  0
   42.3210   84.2650   65.0580 F   0  0  0  0  0  0  0  0  0  0  0  0
   42.6280   82.8480   55.9480 O   0  0  0  0  0  0  0  0  0  0  0  0
   42.3770   83.9760   55.1770 C   0  0  0  0  0  0  0  0  0  0  0  0
   42.3490   83.7750   54.0870 H   0  0  0  0  0  0  0  0  0  0  0  0
   41.4330   84.5070   55.4160 H   0  0  0  0  0  0  0  0  0  0  0  0
   43.4230   84.8970   55.3710 O   0  0  0  0  0  0  0  0  0  0  0  0
   44.7680   84.6430   55.2430 C   0  0  0  0  0  0  0  0  0  0  0  0
   45.7510   84.5470   56.2030 C   0  0  0  0  0  0  0  0  0  0  0  0
   45.3720   84.7000   57.1990 H   0  0  0  0  0  0  0  0  0  0  0  0
   47.0500   84.2860   55.9070 C   0  0  0  0  0  3  0  0  0  0  0  0
   47.3770   84.1130   54.5570 C   0  0  0  0  0  0  0  0  0  0  0  0
   48.6780   83.8510   54.2480 N   0  0  0  0  0  0  0  0  0  0  0  0
   49.0960   83.6680   52.9820 C   0  0  0  0  0  0  0  0  0  0  0  0
   50.1320   83.4600   52.7280 H   0  0  0  0  0  0  0  0  0  0  0  0
   48.1670   83.7480   51.9480 C   0  0  0  0  0  3  0  0  0  0  0  0
   46.8420   84.0130   52.2380 C   0  0  0  0  0  3  0  0  0  0  0  0
   46.4420   84.1960   53.5460 C   0  0  0  0  0  0  0  0  0  0  0  0
   45.1140   84.4660   53.8980 C   0  0  0  0  0  3  0  0  0  0  0  0
  2  1  1  0  0  0  0
  2  3  1  0  0  0  0
  3 12  1  0  0  0  0
  4  3  2  0  0  0  0
  4  9  1  0  0  0  0
  5  4  1  0  0  0  0
  6  8  1  0  0  0  0
  6  5  2  0  0  0  0
  7  6  1  0  0  0  0
  8  2  2  0  0  0  0
 10  5  1  0  0  0  0
 11 16  1  0  0  0  0
 12 13  1  0  0  0  0
 12 11  2  0  0  0  0
 13 14  2  0  0  0  0
 14 15  1  0  0  0  0
 15 19  1  0  0  0  0
 16 15  2  0  0  0  0
 17 11  1  0  0  0  0
 18 13  1  0  0  0  0
 19 22  1  0  0  0  0
 19 21  1  0  0  0  0
 20 19  1  0  0  0  0
 23  8  1  0  0  0  0
 24 27  1  0  0  0  0
 24 26  1  0  0  0  0
 24 23  1  0  0  0  0
 25 24  1  0  0  0  0
 28 27  1  0  0  0  0
 28 29  1  0  0  0  0
 29 30  1  0  0  0  0
 31 29  2  0  0  0  0
 32 31  1  0  0  0  0
 33 32  1  0  0  0  0
 34 33  2  0  0  0  0
 35 34  1  0  0  0  0
 36 37  2  0  0  0  0
 36 34  1  0  0  0  0
 37 38  1  0  0  0  0
 38 39  1  0  0  0  0
 38 32  2  0  0  0  0
 39 28  2  0  0  0  0
M  END
>  <minimizedAffinity>
-4.80894327

>  <minimizedRMSD>
0.799095333

$$$$
