
 OpenBabel03212521003D

 45 50  0  0  1  0  0  0  0  0999 V2000
   39.6200   77.0800   59.1760 C   0  0  0  0  0  0  0  0  0  0  0  0
   40.2580   75.8910   58.9420 C   0  0  0  0  0  0  0  0  0  0  0  0
   39.6700   75.1640   57.8910 C   0  0  0  0  0  0  0  0  0  0  0  0
   38.6040   75.5760   57.1850 N   0  0  0  0  0  0  0  0  0  0  0  0
   38.0380   76.7820   57.4960 C   0  0  0  0  0  0  0  0  0  0  0  0
   38.5620   77.5150   58.4940 N   0  0  0  0  0  0  0  0  0  0  0  0
   41.1110   75.5230   59.4800 H   0  0  0  0  0  0  0  0  0  0  0  0
   40.1170   74.1910   57.6310 H   0  0  0  0  0  0  0  0  0  0  0  0
   40.9210   80.0690   61.6090 C   0  0  0  0  0  0  0  0  0  0  0  0
   40.8870   78.8550   62.2430 C   0  0  0  0  0  0  0  0  0  0  0  0
   40.4790   77.7790   61.5530 C   0  0  0  0  0  0  0  0  0  0  0  0
   40.1040   77.9390   60.2220 C   0  0  0  0  0  0  0  0  0  0  0  0
   40.3470   79.7420   59.9160 S   0  0  0  0  0  0  0  0  0  0  0  0
   41.1800   78.7330   63.2970 H   0  0  0  0  0  0  0  0  0  0  0  0
   40.3840   76.7490   61.8700 H   0  0  0  0  0  0  0  0  0  0  0  0
   43.0800   82.8530   62.6330 C   0  0  0  0  0  0  0  0  0  0  0  0
   42.2230   83.6530   63.4020 C   0  0  0  0  0  0  0  0  0  0  0  0
   40.8930   83.2430   63.5760 C   0  0  0  0  0  0  0  0  0  0  0  0
   40.5130   82.0890   62.9850 N   0  0  0  0  0  0  0  0  0  0  0  0
   41.3590   81.3380   62.2500 C   0  0  0  0  0  0  0  0  0  0  0  0
   42.6270   81.7190   62.0800 N   0  0  0  0  0  0  0  0  0  0  0  0
   44.1180   83.1460   62.4830 H   0  0  0  0  0  0  0  0  0  0  0  0
   42.5500   84.5720   63.8630 H   0  0  0  0  0  0  0  0  0  0  0  0
   40.1670   83.7980   64.1510 H   0  0  0  0  0  0  0  0  0  0  0  0
   36.8930   77.2080   56.7190 C   0  0  0  0  0  0  0  0  0  0  0  0
   35.7840   77.1920   57.2860 O   0  0  0  0  0  0  0  0  0  0  0  0
   37.0160   77.6470   55.2760 C   0  0  1  0  0  0  0  0  0  0  0  0
   37.3910   79.1090   55.1560 C   0  0  0  0  0  0  0  0  0  0  0  0
   38.3060   78.0000   54.7440 C   0  0  2  0  0  0  0  0  0  0  0  0
   36.0720   77.4340   54.7050 H   0  0  0  0  0  0  0  0  0  0  0  0
   37.5690   79.6920   56.0710 H   0  0  0  0  0  0  0  0  0  0  0  0
   36.8860   79.6900   54.3720 H   0  0  0  0  0  0  0  0  0  0  0  0
   39.1720   77.8930   55.4530 H   0  0  0  0  0  0  0  0  0  0  0  0
   38.7090   78.0420   53.3390 C   0  0  0  0  0  0  0  0  0  0  0  0
   38.4890   79.2560   52.7130 C   0  0  0  0  0  0  0  0  0  0  0  0
   38.0480   80.1230   53.2330 H   0  0  0  0  0  0  0  0  0  0  0  0
   38.7910   79.5180   51.3830 C   0  0  0  0  0  3  0  0  0  0  0  0
   39.3460   78.4460   50.7160 C   0  0  0  0  0  0  0  0  0  0  0  0
   39.6450   78.6700   49.4040 N   0  0  0  0  0  0  0  0  0  0  0  0
   40.1840   77.6960   48.6440 C   0  0  0  0  0  0  0  0  0  0  0  0
   40.4060   77.9160   47.6070 H   0  0  0  0  0  0  0  0  0  0  0  0
   40.4560   76.4240   49.1670 C   0  0  0  0  0  3  0  0  0  0  0  0
   40.1560   76.1730   50.5120 C   0  0  0  0  0  3  0  0  0  0  0  0
   39.6090   77.1980   51.2390 C   0  0  0  0  0  0  0  0  0  0  0  0
   39.2750   77.0180   52.5800 C   0  0  0  0  0  3  0  0  0  0  0  0
  1 12  1  0  0  0  0
  2  1  1  0  0  0  0
  2  7  1  0  0  0  0
  3  2  2  0  0  0  0
  4  5  2  0  0  0  0
  4  3  1  0  0  0  0
  5  6  1  0  0  0  0
  6  1  2  0  0  0  0
  8  3  1  0  0  0  0
  9 10  2  0  0  0  0
  9 20  1  0  0  0  0
 10 14  1  0  0  0  0
 11 15  1  0  0  0  0
 11 10  1  0  0  0  0
 12 11  2  0  0  0  0
 13 12  1  0  0  0  0
 13  9  1  0  0  0  0
 16 17  1  0  0  0  0
 17 18  2  0  0  0  0
 17 23  1  0  0  0  0
 18 24  1  0  0  0  0
 19 18  1  0  0  0  0
 20 19  2  0  0  0  0
 21 20  1  0  0  0  0
 21 16  2  0  0  0  0
 22 16  1  0  0  0  0
 25 26  2  0  0  0  0
 25  5  1  0  0  0  0
 27 30  1  6  0  0  0
 27 25  1  0  0  0  0
 28 27  1  0  0  0  0
 28 31  1  0  0  0  0
 29 28  1  0  0  0  0
 29 27  1  0  0  0  0
 29 33  1  1  0  0  0
 32 28  1  0  0  0  0
 34 29  1  0  0  0  0
 35 36  1  0  0  0  0
 35 34  1  0  0  0  0
 37 35  2  0  0  0  0
 38 44  1  0  0  0  0
 38 37  1  0  0  0  0
 39 38  2  0  0  0  0
 40 42  2  0  0  0  0
 40 39  1  0  0  0  0
 41 40  1  0  0  0  0
 42 43  1  0  0  0  0
 43 44  2  0  0  0  0
 44 45  1  0  0  0  0
 45 34  2  0  0  0  0
M  END
>  <minimizedAffinity>
-6.76269627

>  <minimizedRMSD>
1.74127722

$$$$
