
 OpenBabel03212520203D

 39 42  0  0  0  0  0  0  0  0999 V2000
   43.1440   83.9430   58.6730 Cl  0  0  0  0  0  0  0  0  0  0  0  0
   41.9150   82.7700   58.2670 C   0  0  0  0  0  0  0  0  0  0  0  0
   41.0230   82.2470   59.2020 C   0  0  0  0  0  0  0  0  0  0  0  0
   40.1040   81.3240   58.7280 C   0  0  0  0  0  0  0  0  0  0  0  0
   39.9840   80.8740   57.4360 C   0  0  0  0  0  0  0  0  0  0  0  0
   40.8740   81.4060   56.5460 C   0  0  0  0  0  0  0  0  0  0  0  0
   40.8480   80.9300   54.8520 Cl  0  0  0  0  0  0  0  0  0  0  0  0
   41.8290   82.3450   56.9590 C   0  0  0  0  0  0  0  0  0  0  0  0
   39.4400   80.9590   59.5090 H   0  0  0  0  0  0  0  0  0  0  0  0
   39.2430   80.1560   57.1500 H   0  0  0  0  0  0  0  0  0  0  0  0
   41.9310   82.1550   61.5760 C   0  0  0  0  0  0  0  0  0  0  0  0
   41.1110   82.6850   60.5500 C   0  0  0  0  0  0  0  0  0  0  0  0
   40.2920   83.7600   60.8870 C   0  0  0  0  0  0  0  0  0  0  0  0
   40.3550   84.2040   62.1800 N   0  0  0  0  0  0  0  0  0  0  0  0
   41.1380   83.6810   63.1190 C   0  0  0  0  0  0  0  0  0  0  0  0
   41.9430   82.6350   62.8130 N   0  0  0  0  0  0  0  0  0  0  0  0
   42.5490   81.3210   61.2650 H   0  0  0  0  0  0  0  0  0  0  0  0
   39.6250   84.2460   60.1850 H   0  0  0  0  0  0  0  0  0  0  0  0
   41.0410   84.3270   64.4570 C   0  0  0  0  0  0  0  0  0  0  0  0
   40.6880   85.6560   64.3780 F   0  0  0  0  0  0  0  0  0  0  0  0
   40.0980   83.6590   65.2380 F   0  0  0  0  0  0  0  0  0  0  0  0
   42.2930   84.2970   65.1080 F   0  0  0  0  0  0  0  0  0  0  0  0
   42.7100   82.8560   56.0210 O   0  0  0  0  0  0  0  0  0  0  0  0
   42.4730   83.9680   55.2230 C   0  0  0  0  0  0  0  0  0  0  0  0
   42.5210   83.7550   54.1360 H   0  0  0  0  0  0  0  0  0  0  0  0
   41.4990   84.4700   55.3950 H   0  0  0  0  0  0  0  0  0  0  0  0
   43.4740   84.9240   55.4720 O   0  0  0  0  0  0  0  0  0  0  0  0
   44.8320   84.7250   55.3880 C   0  0  0  0  0  0  0  0  0  0  0  0
   45.7910   84.7020   56.3760 C   0  0  0  0  0  0  0  0  0  0  0  0
   45.3790   84.8720   57.3570 H   0  0  0  0  0  0  0  0  0  0  0  0
   47.1080   84.4890   56.1240 C   0  0  0  0  0  3  0  0  0  0  0  0
   47.4800   84.2840   54.7890 C   0  0  0  0  0  0  0  0  0  0  0  0
   48.7980   84.0690   54.5240 N   0  0  0  0  0  0  0  0  0  0  0  0
   49.2580   83.8630   53.2770 C   0  0  0  0  0  0  0  0  0  0  0  0
   50.3100   83.6910   53.0570 H   0  0  0  0  0  0  0  0  0  0  0  0
   48.3560   83.8700   52.2160 C   0  0  0  0  0  3  0  0  0  0  0  0
   47.0140   84.0850   52.4630 C   0  0  0  0  0  3  0  0  0  0  0  0
   46.5700   84.2950   53.7520 C   0  0  0  0  0  0  0  0  0  0  0  0
   45.2230   84.5180   54.0600 C   0  0  0  0  0  3  0  0  0  0  0  0
  2  1  1  0  0  0  0
  2  3  1  0  0  0  0
  3 12  1  0  0  0  0
  4  3  2  0  0  0  0
  4  9  1  0  0  0  0
  5  4  1  0  0  0  0
  6  8  1  0  0  0  0
  6  5  2  0  0  0  0
  7  6  1  0  0  0  0
  8  2  2  0  0  0  0
 10  5  1  0  0  0  0
 11 16  1  0  0  0  0
 12 13  1  0  0  0  0
 12 11  2  0  0  0  0
 13 14  2  0  0  0  0
 14 15  1  0  0  0  0
 15 19  1  0  0  0  0
 16 15  2  0  0  0  0
 17 11  1  0  0  0  0
 18 13  1  0  0  0  0
 19 22  1  0  0  0  0
 19 21  1  0  0  0  0
 20 19  1  0  0  0  0
 23  8  1  0  0  0  0
 24 26  1  0  0  0  0
 24 27  1  0  0  0  0
 24 23  1  0  0  0  0
 25 24  1  0  0  0  0
 28 27  1  0  0  0  0
 28 29  1  0  0  0  0
 29 30  1  0  0  0  0
 31 29  2  0  0  0  0
 32 31  1  0  0  0  0
 33 32  1  0  0  0  0
 34 33  2  0  0  0  0
 35 34  1  0  0  0  0
 36 37  2  0  0  0  0
 36 34  1  0  0  0  0
 37 38  1  0  0  0  0
 38 39  1  0  0  0  0
 38 32  2  0  0  0  0
 39 28  2  0  0  0  0
M  END
>  <minimizedAffinity>
-4.79903889

>  <minimizedRMSD>
0.700823903

$$$$
