
 OpenBabel03212520063D

 44 49  0  0  0  0  0  0  0  0999 V2000
   39.3550   74.3470   57.6390 C   0  0  0  0  0  0  0  0  0  0  0  0
   40.1710   73.2430   57.9350 C   0  0  0  0  0  0  0  0  0  0  0  0
   41.1170   73.4020   58.9360 C   0  0  0  0  0  0  0  0  0  0  0  0
   41.2250   74.5860   59.5850 N   0  0  0  0  0  0  0  0  0  0  0  0
   40.4160   75.6340   59.2750 C   0  0  0  0  0  0  0  0  0  0  0  0
   39.4750   75.5180   58.2950 N   0  0  0  0  0  0  0  0  0  0  0  0
   38.5810   74.3750   56.8890 H   0  0  0  0  0  0  0  0  0  0  0  0
   39.8770   72.4230   57.3300 H   0  0  0  0  0  0  0  0  0  0  0  0
   41.1520   77.9640   59.3930 C   0  0  0  0  0  0  0  0  0  0  0  0
   40.5110   76.8840   60.0100 C   0  0  0  0  0  0  0  0  0  0  0  0
   39.9540   76.9960   61.2850 C   0  0  0  0  0  0  0  0  0  0  0  0
   40.0140   78.1840   61.9880 C   0  0  0  0  0  0  0  0  0  0  0  0
   39.6110   78.6570   63.1770 N   0  0  0  0  0  0  0  0  0  0  0  0
   39.9640   79.9540   63.3220 C   0  0  0  0  0  0  0  0  0  0  0  0
   40.5980   80.2600   62.1830 N   0  0  0  0  0  0  0  0  0  0  0  0
   40.6480   79.2170   61.3510 C   0  0  0  0  0  0  0  0  0  0  0  0
   41.2190   79.1730   60.0980 C   0  0  0  0  0  0  0  0  0  0  0  0
   41.5870   77.8960   58.4130 H   0  0  0  0  0  0  0  0  0  0  0  0
   39.4580   76.1560   61.7590 H   0  0  0  0  0  0  0  0  0  0  0  0
   39.0940   78.0760   63.8750 H   0  0  0  0  0  0  0  0  0  0  0  0
   39.7470   80.5590   64.2030 H   0  0  0  0  0  0  0  0  0  0  0  0
   41.7070   80.0340   59.6570 H   0  0  0  0  0  0  0  0  0  0  0  0
   40.3500   71.8130   61.3420 Cl  0  0  0  0  0  0  0  0  0  0  0  0
   41.7850   71.5100   60.3760 C   0  0  0  0  0  0  0  0  0  0  0  0
   41.9970   72.3120   59.2860 C   0  0  0  0  0  0  0  0  0  0  0  0
   43.1360   71.9810   58.5540 C   0  0  0  0  0  0  0  0  0  0  0  0
   43.9900   70.9510   58.8710 C   0  0  0  0  0  0  0  0  0  0  0  0
   43.7100   70.1770   59.9990 C   0  0  0  0  0  0  0  0  0  0  0  0
   44.7680   68.8630   60.4320 Cl  0  0  0  0  0  0  0  0  0  0  0  0
   42.5910   70.4660   60.7570 C   0  0  0  0  0  0  0  0  0  0  0  0
   43.3810   72.5610   57.6760 H   0  0  0  0  0  0  0  0  0  0  0  0
   44.8550   70.7580   58.2510 H   0  0  0  0  0  0  0  0  0  0  0  0
   42.3370   69.6310   61.9270 C   0  0  0  0  0  0  0  0  0  0  0  0
   42.7110   69.8270   63.2170 C   0  0  0  0  0  0  0  0  0  0  0  0
   43.2680   70.7200   63.3870 H   0  0  0  0  0  0  0  0  0  0  0  0
   42.3550   68.8860   64.1870 C   0  0  0  0  0  3  0  0  0  0  0  0
   41.6260   67.7540   63.8570 C   0  0  0  0  0  0  0  0  0  0  0  0
   41.2900   66.8530   64.8100 N   0  0  0  0  0  0  0  0  0  0  0  0
   40.5800   65.7640   64.4550 C   0  0  0  0  0  0  0  0  0  0  0  0
   40.3170   65.0440   65.2420 H   0  0  0  0  0  0  0  0  0  0  0  0
   40.1590   65.4850   63.1710 C   0  0  0  0  0  3  0  0  0  0  0  0
   40.5130   66.4160   62.2160 C   0  0  0  0  0  3  0  0  0  0  0  0
   41.2460   67.5570   62.5340 C   0  0  0  0  0  0  0  0  0  0  0  0
   41.6010   68.4960   61.5680 C   0  0  0  0  0  3  0  0  0  0  0  0
  1  2  2  0  0  0  0
  1  6  1  0  0  0  0
  2  3  1  0  0  0  0
  3 25  1  0  0  0  0
  3  4  2  0  0  0  0
  5  4  1  0  0  0  0
  5 10  1  0  0  0  0
  6  5  2  0  0  0  0
  7  1  1  0  0  0  0
  8  2  1  0  0  0  0
  9 10  2  0  0  0  0
  9 17  1  0  0  0  0
 10 11  1  0  0  0  0
 11 19  1  0  0  0  0
 11 12  2  0  0  0  0
 12 13  1  0  0  0  0
 13 14  1  0  0  0  0
 13 20  1  0  0  0  0
 14 21  1  0  0  0  0
 15 14  2  0  0  0  0
 16 12  1  0  0  0  0
 16 15  1  0  0  0  0
 17 16  2  0  0  0  0
 18  9  1  0  0  0  0
 22 17  1  0  0  0  0
 24 30  1  0  0  0  0
 24 23  1  0  0  0  0
 25 24  2  0  0  0  0
 26 27  2  0  0  0  0
 26 25  1  0  0  0  0
 27 28  1  0  0  0  0
 28 29  1  0  0  0  0
 28 30  2  0  0  0  0
 30 33  1  0  0  0  0
 31 26  1  0  0  0  0
 32 27  1  0  0  0  0
 33 34  1  0  0  0  0
 34 35  1  0  0  0  0
 34 36  2  0  0  0  0
 37 36  1  0  0  0  0
 37 38  1  0  0  0  0
 39 38  2  0  0  0  0
 39 40  1  0  0  0  0
 41 39  1  0  0  0  0
 42 43  1  0  0  0  0
 42 41  2  0  0  0  0
 43 37  2  0  0  0  0
 44 33  2  0  0  0  0
 44 43  1  0  0  0  0
M  END
>  <minimizedAffinity>
-8.61066532

$$$$

 OpenBabel03212520063D

 44 49  0  0  0  0  0  0  0  0999 V2000
   42.0390   72.7330   56.3990 C   0  0  0  0  0  0  0  0  0  0  0  0
   42.6680   71.6530   57.0380 C   0  0  0  0  0  0  0  0  0  0  0  0
   42.8720   71.7540   58.4060 C   0  0  0  0  0  0  0  0  0  0  0  0
   42.4670   72.8610   59.0720 N   0  0  0  0  0  0  0  0  0  0  0  0
   41.8580   73.8890   58.4220 C   0  0  0  0  0  0  0  0  0  0  0  0
   41.6420   73.8290   57.0770 N   0  0  0  0  0  0  0  0  0  0  0  0
   41.8150   72.8000   55.3460 H   0  0  0  0  0  0  0  0  0  0  0  0
   42.8540   70.8900   56.3250 H   0  0  0  0  0  0  0  0  0  0  0  0
   40.2250   74.9230   59.9230 C   0  0  0  0  0  0  0  0  0  0  0  0
   41.3880   75.0520   59.1550 C   0  0  0  0  0  0  0  0  0  0  0  0
   42.1000   76.2520   59.1050 C   0  0  0  0  0  0  0  0  0  0  0  0
   41.6820   77.3600   59.8140 C   0  0  0  0  0  0  0  0  0  0  0  0
   42.0830   78.6260   60.0100 N   0  0  0  0  0  0  0  0  0  0  0  0
   41.2410   79.2730   60.8470 C   0  0  0  0  0  0  0  0  0  0  0  0
   40.3090   78.3630   61.1560 N   0  0  0  0  0  0  0  0  0  0  0  0
   40.5410   77.1950   60.5520 C   0  0  0  0  0  0  0  0  0  0  0  0
   39.7920   76.0420   60.6460 C   0  0  0  0  0  0  0  0  0  0  0  0
   39.6640   74.0080   59.9730 H   0  0  0  0  0  0  0  0  0  0  0  0
   43.0020   76.3470   58.5090 H   0  0  0  0  0  0  0  0  0  0  0  0
   42.9380   79.0270   59.5620 H   0  0  0  0  0  0  0  0  0  0  0  0
   41.3570   80.3110   61.1580 H   0  0  0  0  0  0  0  0  0  0  0  0
   38.8950   75.9840   61.2520 H   0  0  0  0  0  0  0  0  0  0  0  0
   41.4920   70.7960   60.8710 Cl  0  0  0  0  0  0  0  0  0  0  0  0
   43.0190   70.1570   60.2850 C   0  0  0  0  0  0  0  0  0  0  0  0
   43.5230   70.6840   59.1250 C   0  0  0  0  0  0  0  0  0  0  0  0
   44.7170   70.0980   58.7110 C   0  0  0  0  0  0  0  0  0  0  0  0
   45.3570   69.0820   59.3820 C   0  0  0  0  0  0  0  0  0  0  0  0
   44.7830   68.5980   60.5590 C   0  0  0  0  0  0  0  0  0  0  0  0
   45.5650   67.3110   61.4360 Cl  0  0  0  0  0  0  0  0  0  0  0  0
   43.5990   69.1470   61.0110 C   0  0  0  0  0  0  0  0  0  0  0  0
   45.1870   70.4500   57.8040 H   0  0  0  0  0  0  0  0  0  0  0  0
   46.2830   68.6790   58.9940 H   0  0  0  0  0  0  0  0  0  0  0  0
   43.0350   68.6090   62.2450 C   0  0  0  0  0  0  0  0  0  0  0  0
   43.2420   69.0090   63.5260 C   0  0  0  0  0  0  0  0  0  0  0  0
   43.9120   69.8310   63.6320 H   0  0  0  0  0  0  0  0  0  0  0  0
   42.5900   68.3420   64.5680 C   0  0  0  0  0  3  0  0  0  0  0  0
   41.7360   67.2790   64.3170 C   0  0  0  0  0  0  0  0  0  0  0  0
   41.1130   66.6450   65.3400 N   0  0  0  0  0  0  0  0  0  0  0  0
   40.2890   65.6160   65.0610 C   0  0  0  0  0  0  0  0  0  0  0  0
   39.7930   65.1130   65.9030 H   0  0  0  0  0  0  0  0  0  0  0  0
   40.0220   65.1440   63.7920 C   0  0  0  0  0  3  0  0  0  0  0  0
   40.6670   65.8050   62.7670 C   0  0  0  0  0  3  0  0  0  0  0  0
   41.5280   66.8730   63.0040 C   0  0  0  0  0  0  0  0  0  0  0  0
   42.1780   67.5390   61.9670 C   0  0  0  0  0  3  0  0  0  0  0  0
  1  2  2  0  0  0  0
  1  6  1  0  0  0  0
  2  3  1  0  0  0  0
  3  4  2  0  0  0  0
  3 25  1  0  0  0  0
  5  4  1  0  0  0  0
  5 10  1  0  0  0  0
  6  5  2  0  0  0  0
  7  1  1  0  0  0  0
  8  2  1  0  0  0  0
  9 18  1  0  0  0  0
  9 17  1  0  0  0  0
 10  9  2  0  0  0  0
 11 10  1  0  0  0  0
 11 12  2  0  0  0  0
 12 13  1  0  0  0  0
 12 16  1  0  0  0  0
 13 14  1  0  0  0  0
 14 15  2  0  0  0  0
 14 21  1  0  0  0  0
 16 17  2  0  0  0  0
 16 15  1  0  0  0  0
 17 22  1  0  0  0  0
 19 11  1  0  0  0  0
 20 13  1  0  0  0  0
 24 23  1  0  0  0  0
 24 30  1  0  0  0  0
 25 24  2  0  0  0  0
 26 25  1  0  0  0  0
 26 27  2  0  0  0  0
 27 28  1  0  0  0  0
 28 30  2  0  0  0  0
 28 29  1  0  0  0  0
 30 33  1  0  0  0  0
 31 26  1  0  0  0  0
 32 27  1  0  0  0  0
 33 34  1  0  0  0  0
 34 35  1  0  0  0  0
 34 36  2  0  0  0  0
 37 36  1  0  0  0  0
 37 38  1  0  0  0  0
 39 38  2  0  0  0  0
 39 40  1  0  0  0  0
 41 39  1  0  0  0  0
 42 43  1  0  0  0  0
 42 41  2  0  0  0  0
 43 37  2  0  0  0  0
 44 33  2  0  0  0  0
 44 43  1  0  0  0  0
M  END
>  <minimizedAffinity>
-8.34683895

$$$$

 OpenBabel03212520063D

 44 49  0  0  0  0  0  0  0  0999 V2000
   43.9270   74.9620   59.3710 C   0  0  0  0  0  0  0  0  0  0  0  0
   44.2010   73.6060   59.6110 C   0  0  0  0  0  0  0  0  0  0  0  0
   43.1700   72.7020   59.4040 C   0  0  0  0  0  0  0  0  0  0  0  0
   41.9590   73.1400   58.9860 N   0  0  0  0  0  0  0  0  0  0  0  0
   41.7280   74.4610   58.7600 C   0  0  0  0  0  0  0  0  0  0  0  0
   42.7150   75.3810   58.9540 N   0  0  0  0  0  0  0  0  0  0  0  0
   44.6240   75.7770   59.4890 H   0  0  0  0  0  0  0  0  0  0  0  0
   45.2200   73.5020   59.8890 H   0  0  0  0  0  0  0  0  0  0  0  0
   39.9510   76.1430   58.7260 C   0  0  0  0  0  0  0  0  0  0  0  0
   40.4380   74.9130   58.2680 C   0  0  0  0  0  0  0  0  0  0  0  0
   39.7260   74.1430   57.3460 C   0  0  0  0  0  0  0  0  0  0  0  0
   38.5090   74.5680   56.8500 C   0  0  0  0  0  0  0  0  0  0  0  0
   37.5760   74.1290   55.9910 N   0  0  0  0  0  0  0  0  0  0  0  0
   36.5560   75.0100   55.8970 C   0  0  0  0  0  0  0  0  0  0  0  0
   36.8930   76.0050   56.7270 N   0  0  0  0  0  0  0  0  0  0  0  0
   38.0670   75.7750   57.3220 C   0  0  0  0  0  0  0  0  0  0  0  0
   38.7170   76.5830   58.2290 C   0  0  0  0  0  0  0  0  0  0  0  0
   40.4850   76.7480   59.4350 H   0  0  0  0  0  0  0  0  0  0  0  0
   40.1070   73.1900   56.9940 H   0  0  0  0  0  0  0  0  0  0  0  0
   37.6580   73.2210   55.4780 H   0  0  0  0  0  0  0  0  0  0  0  0
   35.6800   74.8760   55.2620 H   0  0  0  0  0  0  0  0  0  0  0  0
   38.3040   77.5280   58.5580 H   0  0  0  0  0  0  0  0  0  0  0  0
   42.3430   71.6820   62.0840 Cl  0  0  0  0  0  0  0  0  0  0  0  0
   43.0680   70.6880   60.8310 C   0  0  0  0  0  0  0  0  0  0  0  0
   43.3780   71.2940   59.6420 C   0  0  0  0  0  0  0  0  0  0  0  0
   43.9150   70.4270   58.6900 C   0  0  0  0  0  0  0  0  0  0  0  0
   44.1270   69.0840   58.8950 C   0  0  0  0  0  0  0  0  0  0  0  0
   43.7880   68.5390   60.1350 C   0  0  0  0  0  0  0  0  0  0  0  0
   44.0410   66.8410   60.4320 Cl  0  0  0  0  0  0  0  0  0  0  0  0
   43.2520   69.3570   61.1120 C   0  0  0  0  0  0  0  0  0  0  0  0
   44.1880   70.8180   57.7210 H   0  0  0  0  0  0  0  0  0  0  0  0
   44.5490   68.4780   58.1050 H   0  0  0  0  0  0  0  0  0  0  0  0
   42.9120   68.7440   62.3910 C   0  0  0  0  0  0  0  0  0  0  0  0
   43.6730   68.6120   63.5070 C   0  0  0  0  0  0  0  0  0  0  0  0
   44.6560   69.0170   63.4240 H   0  0  0  0  0  0  0  0  0  0  0  0
   43.1380   67.9830   64.6350 C   0  0  0  0  0  3  0  0  0  0  0  0
   41.8430   67.4890   64.6350 C   0  0  0  0  0  0  0  0  0  0  0  0
   41.3410   66.8820   65.7370 N   0  0  0  0  0  0  0  0  0  0  0  0
   40.0770   66.4150   65.7040 C   0  0  0  0  0  0  0  0  0  0  0  0
   39.6870   65.9250   66.6070 H   0  0  0  0  0  0  0  0  0  0  0  0
   39.2340   66.5060   64.6160 C   0  0  0  0  0  3  0  0  0  0  0  0
   39.7660   67.1270   63.5050 C   0  0  0  0  0  3  0  0  0  0  0  0
   41.0670   67.6270   63.4900 C   0  0  0  0  0  0  0  0  0  0  0  0
   41.6010   68.2550   62.3670 C   0  0  0  0  0  3  0  0  0  0  0  0
  1  7  1  0  0  0  0
  1  2  1  0  0  0  0
  2  8  1  0  0  0  0
  3  2  2  0  0  0  0
  3 25  1  0  0  0  0
  4  3  1  0  0  0  0
  5  6  1  0  0  0  0
  5  4  2  0  0  0  0
  6  1  2  0  0  0  0
  9 18  1  0  0  0  0
 10  9  1  0  0  0  0
 10  5  1  0  0  0  0
 11 10  2  0  0  0  0
 12 16  2  0  0  0  0
 12 11  1  0  0  0  0
 13 12  1  0  0  0  0
 14 13  1  0  0  0  0
 14 15  2  0  0  0  0
 15 16  1  0  0  0  0
 16 17  1  0  0  0  0
 17 22  1  0  0  0  0
 17  9  2  0  0  0  0
 19 11  1  0  0  0  0
 20 13  1  0  0  0  0
 21 14  1  0  0  0  0
 24 30  1  0  0  0  0
 24 23  1  0  0  0  0
 25 24  2  0  0  0  0
 26 27  2  0  0  0  0
 26 25  1  0  0  0  0
 27 28  1  0  0  0  0
 28 29  1  0  0  0  0
 28 30  2  0  0  0  0
 30 33  1  0  0  0  0
 31 26  1  0  0  0  0
 32 27  1  0  0  0  0
 33 34  1  0  0  0  0
 34 36  2  0  0  0  0
 35 34  1  0  0  0  0
 36 37  1  0  0  0  0
 37 38  1  0  0  0  0
 39 38  2  0  0  0  0
 39 40  1  0  0  0  0
 41 39  1  0  0  0  0
 42 41  2  0  0  0  0
 43 42  1  0  0  0  0
 43 37  2  0  0  0  0
 44 33  2  0  0  0  0
 44 43  1  0  0  0  0
M  END
>  <minimizedAffinity>
-8.30122566

$$$$

 OpenBabel03212520063D

 44 49  0  0  0  0  0  0  0  0999 V2000
   45.1170   73.5870   58.3700 C   0  0  0  0  0  0  0  0  0  0  0  0
   44.2810   74.7070   58.2310 C   0  0  0  0  0  0  0  0  0  0  0  0
   43.0810   74.6940   58.9250 C   0  0  0  0  0  0  0  0  0  0  0  0
   42.7570   73.6320   59.7000 N   0  0  0  0  0  0  0  0  0  0  0  0
   43.5910   72.5650   59.8150 C   0  0  0  0  0  0  0  0  0  0  0  0
   44.7790   72.5380   59.1460 N   0  0  0  0  0  0  0  0  0  0  0  0
   46.0750   73.4520   57.8940 H   0  0  0  0  0  0  0  0  0  0  0  0
   44.7610   75.4220   57.6120 H   0  0  0  0  0  0  0  0  0  0  0  0
   43.7510   70.1850   60.3590 C   0  0  0  0  0  0  0  0  0  0  0  0
   43.2520   71.4510   60.6840 C   0  0  0  0  0  0  0  0  0  0  0  0
   42.4700   71.6580   61.8220 C   0  0  0  0  0  0  0  0  0  0  0  0
   42.1580   70.6160   62.6730 C   0  0  0  0  0  0  0  0  0  0  0  0
   41.4690   70.4320   63.8100 N   0  0  0  0  0  0  0  0  0  0  0  0
   41.5170   69.1370   64.1960 C   0  0  0  0  0  0  0  0  0  0  0  0
   42.2580   68.5330   63.2580 N   0  0  0  0  0  0  0  0  0  0  0  0
   42.6640   69.3930   62.3210 C   0  0  0  0  0  0  0  0  0  0  0  0
   43.4400   69.1210   61.2150 C   0  0  0  0  0  0  0  0  0  0  0  0
   44.3540   70.0070   59.4880 H   0  0  0  0  0  0  0  0  0  0  0  0
   42.0860   72.6420   62.0710 H   0  0  0  0  0  0  0  0  0  0  0  0
   40.9730   71.2060   64.3060 H   0  0  0  0  0  0  0  0  0  0  0  0
   41.0350   68.7410   65.0890 H   0  0  0  0  0  0  0  0  0  0  0  0
   43.8050   68.1240   60.9990 H   0  0  0  0  0  0  0  0  0  0  0  0
   40.8830   74.4100   56.9270 Cl  0  0  0  0  0  0  0  0  0  0  0  0
   41.1250   75.8300   57.9320 C   0  0  0  0  0  0  0  0  0  0  0  0
   42.1680   75.8080   58.8190 C   0  0  0  0  0  0  0  0  0  0  0  0
   42.2670   76.9570   59.6030 C   0  0  0  0  0  0  0  0  0  0  0  0
   41.4130   78.0310   59.5160 C   0  0  0  0  0  0  0  0  0  0  0  0
   40.3730   77.9810   58.5850 C   0  0  0  0  0  0  0  0  0  0  0  0
   39.2700   79.3230   58.4470 Cl  0  0  0  0  0  0  0  0  0  0  0  0
   40.2330   76.8630   57.7850 C   0  0  0  0  0  0  0  0  0  0  0  0
   43.0600   77.0270   60.3320 H   0  0  0  0  0  0  0  0  0  0  0  0
   41.5570   78.8880   60.1610 H   0  0  0  0  0  0  0  0  0  0  0  0
   39.1320   76.8540   56.8270 C   0  0  0  0  0  0  0  0  0  0  0  0
   37.8740   76.3660   56.9720 C   0  0  0  0  0  0  0  0  0  0  0  0
   37.6740   75.9300   57.9240 H   0  0  0  0  0  0  0  0  0  0  0  0
   36.9720   76.4660   55.9100 C   0  0  0  0  0  3  0  0  0  0  0  0
   37.3370   77.0540   54.7090 C   0  0  0  0  0  0  0  0  0  0  0  0
   36.4480   77.1420   53.6900 N   0  0  0  0  0  0  0  0  0  0  0  0
   36.8360   77.7210   52.5370 C   0  0  0  0  0  0  0  0  0  0  0  0
   36.1020   77.7830   51.7210 H   0  0  0  0  0  0  0  0  0  0  0  0
   38.0920   78.2420   52.3020 C   0  0  0  0  0  3  0  0  0  0  0  0
   38.9800   78.1420   53.3530 C   0  0  0  0  0  3  0  0  0  0  0  0
   38.6270   77.5520   54.5650 C   0  0  0  0  0  0  0  0  0  0  0  0
   39.5260   77.4530   55.6250 C   0  0  0  0  0  3  0  0  0  0  0  0
  1  6  1  0  0  0  0
  2  1  2  0  0  0  0
  2  3  1  0  0  0  0
  3  4  2  0  0  0  0
  4  5  1  0  0  0  0
  5 10  1  0  0  0  0
  6  5  2  0  0  0  0
  7  1  1  0  0  0  0
  8  2  1  0  0  0  0
  9 10  2  0  0  0  0
  9 17  1  0  0  0  0
 10 11  1  0  0  0  0
 11 19  1  0  0  0  0
 11 12  2  0  0  0  0
 12 13  1  0  0  0  0
 13 14  1  0  0  0  0
 13 20  1  0  0  0  0
 14 21  1  0  0  0  0
 15 14  2  0  0  0  0
 16 12  1  0  0  0  0
 16 15  1  0  0  0  0
 17 16  2  0  0  0  0
 18  9  1  0  0  0  0
 22 17  1  0  0  0  0
 23 24  1  0  0  0  0
 24 25  1  0  0  0  0
 25  3  1  0  0  0  0
 25 26  2  0  0  0  0
 26 31  1  0  0  0  0
 27 26  1  0  0  0  0
 27 32  1  0  0  0  0
 28 27  2  0  0  0  0
 29 28  1  0  0  0  0
 30 24  2  0  0  0  0
 30 28  1  0  0  0  0
 33 34  1  0  0  0  0
 33 30  1  0  0  0  0
 34 35  1  0  0  0  0
 36 34  2  0  0  0  0
 37 36  1  0  0  0  0
 38 37  2  0  0  0  0
 39 38  1  0  0  0  0
 40 39  1  0  0  0  0
 41 39  2  0  0  0  0
 41 42  1  0  0  0  0
 42 43  2  0  0  0  0
 43 37  1  0  0  0  0
 43 44  1  0  0  0  0
 44 33  2  0  0  0  0
M  END
>  <minimizedAffinity>
-8.24720287

$$$$

 OpenBabel03212520063D

 44 49  0  0  0  0  0  0  0  0999 V2000
   43.6670   74.4090   59.3960 C   0  0  0  0  0  0  0  0  0  0  0  0
   43.5740   73.2830   60.2300 C   0  0  0  0  0  0  0  0  0  0  0  0
   42.3110   72.7510   60.4420 C   0  0  0  0  0  0  0  0  0  0  0  0
   41.2310   73.3150   59.8520 N   0  0  0  0  0  0  0  0  0  0  0  0
   41.3570   74.4040   59.0480 C   0  0  0  0  0  0  0  0  0  0  0  0
   42.5810   74.9580   58.8170 N   0  0  0  0  0  0  0  0  0  0  0  0
   44.5760   74.9310   59.1400 H   0  0  0  0  0  0  0  0  0  0  0  0
   44.5490   73.0000   60.5390 H   0  0  0  0  0  0  0  0  0  0  0  0
   39.8590   76.3020   58.6680 C   0  0  0  0  0  0  0  0  0  0  0  0
   40.1950   74.9730   58.3850 C   0  0  0  0  0  0  0  0  0  0  0  0
   39.4580   74.2100   57.4770 C   0  0  0  0  0  0  0  0  0  0  0  0
   38.3660   74.7420   56.8210 C   0  0  0  0  0  0  0  0  0  0  0  0
   37.4550   74.3420   55.9190 N   0  0  0  0  0  0  0  0  0  0  0  0
   36.5890   75.3410   55.6360 C   0  0  0  0  0  0  0  0  0  0  0  0
   36.9980   76.3660   56.3940 N   0  0  0  0  0  0  0  0  0  0  0  0
   38.0690   76.0440   57.1230 C   0  0  0  0  0  0  0  0  0  0  0  0
   38.7520   76.8500   58.0070 C   0  0  0  0  0  0  0  0  0  0  0  0
   40.4150   76.9030   59.3640 H   0  0  0  0  0  0  0  0  0  0  0  0
   39.7220   73.1800   57.2610 H   0  0  0  0  0  0  0  0  0  0  0  0
   37.4440   73.3810   55.5100 H   0  0  0  0  0  0  0  0  0  0  0  0
   35.7610   75.2590   54.9320 H   0  0  0  0  0  0  0  0  0  0  0  0
   38.4580   77.8750   58.1980 H   0  0  0  0  0  0  0  0  0  0  0  0
   42.6700   70.0870   59.1480 Cl  0  0  0  0  0  0  0  0  0  0  0  0
   42.2530   70.3140   60.8390 C   0  0  0  0  0  0  0  0  0  0  0  0
   42.1410   71.6000   61.2970 C   0  0  0  0  0  0  0  0  0  0  0  0
   41.8440   71.6920   62.6550 C   0  0  0  0  0  0  0  0  0  0  0  0
   41.6720   70.6100   63.4870 C   0  0  0  0  0  0  0  0  0  0  0  0
   41.8000   69.3290   62.9470 C   0  0  0  0  0  0  0  0  0  0  0  0
   41.5910   67.9340   63.9700 Cl  0  0  0  0  0  0  0  0  0  0  0  0
   42.0940   69.1860   61.6040 C   0  0  0  0  0  0  0  0  0  0  0  0
   41.7380   72.6690   63.1040 H   0  0  0  0  0  0  0  0  0  0  0  0
   41.4430   70.7650   64.5330 H   0  0  0  0  0  0  0  0  0  0  0  0
   42.2190   67.8280   61.0830 C   0  0  0  0  0  0  0  0  0  0  0  0
   41.3060   67.0820   60.4110 C   0  0  0  0  0  0  0  0  0  0  0  0
   40.3710   67.5660   60.2470 H   0  0  0  0  0  0  0  0  0  0  0  0
   41.6440   65.7890   60.0010 C   0  0  0  0  0  3  0  0  0  0  0  0
   42.8940   65.2530   60.2680 C   0  0  0  0  0  0  0  0  0  0  0  0
   43.2040   63.9990   59.8630 N   0  0  0  0  0  0  0  0  0  0  0  0
   44.4280   63.5090   60.1380 C   0  0  0  0  0  0  0  0  0  0  0  0
   44.6610   62.4890   59.8010 H   0  0  0  0  0  0  0  0  0  0  0  0
   45.4150   64.1960   60.8140 C   0  0  0  0  0  3  0  0  0  0  0  0
   45.0780   65.4720   61.2180 C   0  0  0  0  0  3  0  0  0  0  0  0
   43.8260   66.0220   60.9570 C   0  0  0  0  0  0  0  0  0  0  0  0
   43.4880   67.3110   61.3650 C   0  0  0  0  0  3  0  0  0  0  0  0
  1  2  1  0  0  0  0
  2  3  2  0  0  0  0
  2  8  1  0  0  0  0
  3 25  1  0  0  0  0
  4  3  1  0  0  0  0
  5  4  2  0  0  0  0
  6  5  1  0  0  0  0
  6  1  2  0  0  0  0
  7  1  1  0  0  0  0
  9 18  1  0  0  0  0
 10  9  1  0  0  0  0
 10  5  1  0  0  0  0
 11 10  2  0  0  0  0
 12 16  2  0  0  0  0
 12 11  1  0  0  0  0
 13 12  1  0  0  0  0
 14 13  1  0  0  0  0
 14 15  2  0  0  0  0
 15 16  1  0  0  0  0
 16 17  1  0  0  0  0
 17 22  1  0  0  0  0
 17  9  2  0  0  0  0
 19 11  1  0  0  0  0
 20 13  1  0  0  0  0
 21 14  1  0  0  0  0
 23 24  1  0  0  0  0
 24 25  2  0  0  0  0
 24 30  1  0  0  0  0
 25 26  1  0  0  0  0
 26 31  1  0  0  0  0
 26 27  2  0  0  0  0
 27 32  1  0  0  0  0
 28 27  1  0  0  0  0
 28 29  1  0  0  0  0
 30 28  2  0  0  0  0
 33 44  1  0  0  0  0
 33 30  1  0  0  0  0
 34 33  2  0  0  0  0
 35 34  1  0  0  0  0
 36 37  2  0  0  0  0
 36 34  1  0  0  0  0
 37 43  1  0  0  0  0
 38 39  2  0  0  0  0
 38 37  1  0  0  0  0
 39 41  1  0  0  0  0
 40 39  1  0  0  0  0
 41 42  2  0  0  0  0
 43 42  1  0  0  0  0
 43 44  2  0  0  0  0
M  END
>  <minimizedAffinity>
-8.19299793

$$$$

 OpenBabel03212520063D

 44 49  0  0  0  0  0  0  0  0999 V2000
   39.8470   76.3510   60.7490 C   0  0  0  0  0  0  0  0  0  0  0  0
   40.7280   75.2610   60.8350 C   0  0  0  0  0  0  0  0  0  0  0  0
   40.7960   74.4090   59.7430 C   0  0  0  0  0  0  0  0  0  0  0  0
   40.0320   74.6470   58.6500 N   0  0  0  0  0  0  0  0  0  0  0  0
   39.1910   75.7140   58.5980 C   0  0  0  0  0  0  0  0  0  0  0  0
   39.0940   76.5730   59.6530 N   0  0  0  0  0  0  0  0  0  0  0  0
   39.6850   77.0930   61.5140 H   0  0  0  0  0  0  0  0  0  0  0  0
   41.2440   75.3050   61.7610 H   0  0  0  0  0  0  0  0  0  0  0  0
   37.6310   74.9470   56.8770 C   0  0  0  0  0  0  0  0  0  0  0  0
   38.4110   75.9830   57.4020 C   0  0  0  0  0  0  0  0  0  0  0  0
   38.4300   77.2520   56.8190 C   0  0  0  0  0  0  0  0  0  0  0  0
   37.6760   77.5320   55.6960 C   0  0  0  0  0  0  0  0  0  0  0  0
   37.4420   78.5800   54.8910 N   0  0  0  0  0  0  0  0  0  0  0  0
   36.5700   78.2490   53.9130 C   0  0  0  0  0  0  0  0  0  0  0  0
   36.2790   76.9620   54.1430 N   0  0  0  0  0  0  0  0  0  0  0  0
   36.9270   76.4930   55.2120 C   0  0  0  0  0  0  0  0  0  0  0  0
   36.8620   75.2210   55.7380 C   0  0  0  0  0  0  0  0  0  0  0  0
   37.6040   73.9650   57.3120 H   0  0  0  0  0  0  0  0  0  0  0  0
   39.0360   78.0520   57.2300 H   0  0  0  0  0  0  0  0  0  0  0  0
   37.8880   79.5150   55.0300 H   0  0  0  0  0  0  0  0  0  0  0  0
   36.2240   78.9310   53.1370 H   0  0  0  0  0  0  0  0  0  0  0  0
   36.2450   74.4470   55.2980 H   0  0  0  0  0  0  0  0  0  0  0  0
   40.2800   72.4040   61.8900 Cl  0  0  0  0  0  0  0  0  0  0  0  0
   41.5710   72.2720   60.7080 C   0  0  0  0  0  0  0  0  0  0  0  0
   41.6730   73.2630   59.7670 C   0  0  0  0  0  0  0  0  0  0  0  0
   42.6990   73.0630   58.8460 C   0  0  0  0  0  0  0  0  0  0  0  0
   43.5490   71.9820   58.8520 C   0  0  0  0  0  0  0  0  0  0  0  0
   43.3850   71.0130   59.8440 C   0  0  0  0  0  0  0  0  0  0  0  0
   44.4420   69.6290   59.8850 Cl  0  0  0  0  0  0  0  0  0  0  0  0
   42.3810   71.1660   60.7810 C   0  0  0  0  0  0  0  0  0  0  0  0
   42.8530   73.7950   58.0660 H   0  0  0  0  0  0  0  0  0  0  0  0
   44.3230   71.9000   58.1010 H   0  0  0  0  0  0  0  0  0  0  0  0
   42.2460   70.1290   61.7990 C   0  0  0  0  0  0  0  0  0  0  0  0
   42.6470   70.1440   63.0960 C   0  0  0  0  0  0  0  0  0  0  0  0
   43.1260   71.0450   63.4020 H   0  0  0  0  0  0  0  0  0  0  0  0
   42.4120   69.0250   63.9000 C   0  0  0  0  0  3  0  0  0  0  0  0
   41.7780   67.8990   63.3990 C   0  0  0  0  0  0  0  0  0  0  0  0
   41.5600   66.8240   64.1940 N   0  0  0  0  0  0  0  0  0  0  0  0
   40.9400   65.7460   63.6750 C   0  0  0  0  0  0  0  0  0  0  0  0
   40.7710   64.8840   64.3350 H   0  0  0  0  0  0  0  0  0  0  0  0
   40.5000   65.6450   62.3720 C   0  0  0  0  0  3  0  0  0  0  0  0
   40.7330   66.7510   61.5800 C   0  0  0  0  0  3  0  0  0  0  0  0
   41.3700   67.8880   62.0700 C   0  0  0  0  0  0  0  0  0  0  0  0
   41.6040   69.0040   61.2690 C   0  0  0  0  0  3  0  0  0  0  0  0
  1  2  1  0  0  0  0
  1  7  1  0  0  0  0
  2  8  1  0  0  0  0
  3 25  1  0  0  0  0
  3  2  2  0  0  0  0
  4  3  1  0  0  0  0
  5  4  2  0  0  0  0
  5  6  1  0  0  0  0
  6  1  2  0  0  0  0
  9 18  1  0  0  0  0
  9 10  1  0  0  0  0
 10  5  1  0  0  0  0
 11 19  1  0  0  0  0
 11 10  2  0  0  0  0
 12 11  1  0  0  0  0
 13 20  1  0  0  0  0
 13 12  1  0  0  0  0
 14 15  2  0  0  0  0
 14 13  1  0  0  0  0
 15 16  1  0  0  0  0
 16 12  2  0  0  0  0
 16 17  1  0  0  0  0
 17  9  2  0  0  0  0
 21 14  1  0  0  0  0
 22 17  1  0  0  0  0
 24 30  1  0  0  0  0
 24 23  1  0  0  0  0
 25 24  2  0  0  0  0
 26 27  2  0  0  0  0
 26 25  1  0  0  0  0
 27 28  1  0  0  0  0
 28 29  1  0  0  0  0
 28 30  2  0  0  0  0
 30 33  1  0  0  0  0
 31 26  1  0  0  0  0
 32 27  1  0  0  0  0
 33 34  1  0  0  0  0
 34 35  1  0  0  0  0
 34 36  2  0  0  0  0
 37 36  1  0  0  0  0
 37 38  1  0  0  0  0
 39 38  2  0  0  0  0
 39 40  1  0  0  0  0
 41 39  1  0  0  0  0
 42 43  1  0  0  0  0
 42 41  2  0  0  0  0
 43 37  2  0  0  0  0
 44 33  2  0  0  0  0
 44 43  1  0  0  0  0
M  END
>  <minimizedAffinity>
-8.10283661

$$$$

 OpenBabel03212520063D

 44 49  0  0  0  0  0  0  0  0999 V2000
   43.2850   68.1610   58.3830 C   0  0  0  0  0  0  0  0  0  0  0  0
   43.3420   69.5610   58.2880 C   0  0  0  0  0  0  0  0  0  0  0  0
   42.7550   70.2920   59.3100 C   0  0  0  0  0  0  0  0  0  0  0  0
   42.1610   69.6540   60.3450 N   0  0  0  0  0  0  0  0  0  0  0  0
   42.1270   68.2960   60.4080 C   0  0  0  0  0  0  0  0  0  0  0  0
   42.6900   67.5410   59.4220 N   0  0  0  0  0  0  0  0  0  0  0  0
   43.6930   67.4640   57.6690 H   0  0  0  0  0  0  0  0  0  0  0  0
   43.8880   69.8280   57.4180 H   0  0  0  0  0  0  0  0  0  0  0  0
   41.2850   66.2480   61.4490 C   0  0  0  0  0  0  0  0  0  0  0  0
   41.5260   67.6230   61.5470 C   0  0  0  0  0  0  0  0  0  0  0  0
   41.2240   68.3360   62.7080 C   0  0  0  0  0  0  0  0  0  0  0  0
   40.6750   67.7090   63.8090 C   0  0  0  0  0  0  0  0  0  0  0  0
   40.2710   68.0400   65.0450 N   0  0  0  0  0  0  0  0  0  0  0  0
   39.8010   66.9570   65.7040 C   0  0  0  0  0  0  0  0  0  0  0  0
   39.9300   65.9500   64.8310 N   0  0  0  0  0  0  0  0  0  0  0  0
   40.4540   66.3640   63.6740 C   0  0  0  0  0  0  0  0  0  0  0  0
   40.7280   65.6020   62.5600 C   0  0  0  0  0  0  0  0  0  0  0  0
   41.5110   65.6830   60.5630 H   0  0  0  0  0  0  0  0  0  0  0  0
   41.4130   69.4030   62.7800 H   0  0  0  0  0  0  0  0  0  0  0  0
   40.3260   69.0150   65.4190 H   0  0  0  0  0  0  0  0  0  0  0  0
   39.4170   66.9730   66.7230 H   0  0  0  0  0  0  0  0  0  0  0  0
   40.5240   64.5380   62.5250 H   0  0  0  0  0  0  0  0  0  0  0  0
   40.2120   71.6080   58.4730 Cl  0  0  0  0  0  0  0  0  0  0  0  0
   41.6810   72.4760   58.8850 C   0  0  0  0  0  0  0  0  0  0  0  0
   42.7670   71.7360   59.2710 C   0  0  0  0  0  0  0  0  0  0  0  0
   43.8790   72.5020   59.6160 C   0  0  0  0  0  0  0  0  0  0  0  0
   43.9160   73.8760   59.5820 C   0  0  0  0  0  0  0  0  0  0  0  0
   42.7690   74.5620   59.1760 C   0  0  0  0  0  0  0  0  0  0  0  0
   42.7770   76.3040   59.1210 Cl  0  0  0  0  0  0  0  0  0  0  0  0
   41.6400   73.8470   58.8240 C   0  0  0  0  0  0  0  0  0  0  0  0
   44.7820   72.0020   59.9340 H   0  0  0  0  0  0  0  0  0  0  0  0
   44.8190   74.3990   59.8660 H   0  0  0  0  0  0  0  0  0  0  0  0
   40.4660   74.6050   58.4070 C   0  0  0  0  0  0  0  0  0  0  0  0
   39.4790   75.1430   59.1670 C   0  0  0  0  0  0  0  0  0  0  0  0
   39.5880   74.9830   60.2150 H   0  0  0  0  0  0  0  0  0  0  0  0
   38.4360   75.8380   58.5480 C   0  0  0  0  0  3  0  0  0  0  0  0
   38.3900   75.9890   57.1710 C   0  0  0  0  0  0  0  0  0  0  0  0
   37.3710   76.6660   56.5890 N   0  0  0  0  0  0  0  0  0  0  0  0
   37.3570   76.7940   55.2480 C   0  0  0  0  0  0  0  0  0  0  0  0
   36.5230   77.3470   54.7930 H   0  0  0  0  0  0  0  0  0  0  0  0
   38.3170   76.2810   54.4000 C   0  0  0  0  0  3  0  0  0  0  0  0
   39.3440   75.5950   55.0140 C   0  0  0  0  0  3  0  0  0  0  0  0
   39.4030   75.4350   56.3960 C   0  0  0  0  0  0  0  0  0  0  0  0
   40.4420   74.7430   57.0140 C   0  0  0  0  0  3  0  0  0  0  0  0
  1  6  1  0  0  0  0
  2  1  2  0  0  0  0
  2  3  1  0  0  0  0
  3  4  2  0  0  0  0
  4  5  1  0  0  0  0
  5 10  1  0  0  0  0
  6  5  2  0  0  0  0
  7  1  1  0  0  0  0
  8  2  1  0  0  0  0
  9 10  2  0  0  0  0
  9 17  1  0  0  0  0
 10 11  1  0  0  0  0
 11 19  1  0  0  0  0
 11 12  2  0  0  0  0
 12 13  1  0  0  0  0
 13 20  1  0  0  0  0
 13 14  1  0  0  0  0
 14 21  1  0  0  0  0
 15 14  2  0  0  0  0
 16 12  1  0  0  0  0
 16 15  1  0  0  0  0
 17 16  2  0  0  0  0
 18  9  1  0  0  0  0
 22 17  1  0  0  0  0
 23 24  1  0  0  0  0
 24 25  1  0  0  0  0
 25  3  1  0  0  0  0
 25 26  2  0  0  0  0
 26 31  1  0  0  0  0
 27 26  1  0  0  0  0
 27 32  1  0  0  0  0
 28 27  2  0  0  0  0
 29 28  1  0  0  0  0
 30 24  2  0  0  0  0
 30 28  1  0  0  0  0
 33 30  1  0  0  0  0
 33 34  1  0  0  0  0
 34 35  1  0  0  0  0
 36 34  2  0  0  0  0
 37 36  1  0  0  0  0
 38 37  1  0  0  0  0
 39 38  2  0  0  0  0
 40 39  1  0  0  0  0
 41 42  2  0  0  0  0
 41 39  1  0  0  0  0
 42 43  1  0  0  0  0
 43 44  1  0  0  0  0
 43 37  2  0  0  0  0
 44 33  2  0  0  0  0
M  END
>  <minimizedAffinity>
-7.99912786

$$$$

 OpenBabel03212520063D

 44 49  0  0  0  0  0  0  0  0999 V2000
   39.8430   79.9570   58.2960 C   0  0  0  0  0  0  0  0  0  0  0  0
   40.1200   78.8120   59.0610 C   0  0  0  0  0  0  0  0  0  0  0  0
   39.6040   77.6070   58.6110 C   0  0  0  0  0  0  0  0  0  0  0  0
   38.8680   77.5660   57.4750 N   0  0  0  0  0  0  0  0  0  0  0  0
   38.6210   78.6930   56.7560 C   0  0  0  0  0  0  0  0  0  0  0  0
   39.1090   79.8990   57.1670 N   0  0  0  0  0  0  0  0  0  0  0  0
   40.1730   80.9590   58.5180 H   0  0  0  0  0  0  0  0  0  0  0  0
   40.7430   79.0830   59.8760 H   0  0  0  0  0  0  0  0  0  0  0  0
   36.4760   78.7510   55.5810 C   0  0  0  0  0  0  0  0  0  0  0  0
   37.8680   78.6290   55.5150 C   0  0  0  0  0  0  0  0  0  0  0  0
   38.5310   78.4720   54.2960 C   0  0  0  0  0  0  0  0  0  0  0  0
   37.8330   78.4330   53.1050 C   0  0  0  0  0  0  0  0  0  0  0  0
   38.1050   78.3060   51.7970 N   0  0  0  0  0  0  0  0  0  0  0  0
   36.9690   78.3440   51.0650 C   0  0  0  0  0  0  0  0  0  0  0  0
   35.9920   78.4970   51.9670 N   0  0  0  0  0  0  0  0  0  0  0  0
   36.4740   78.5560   53.2110 C   0  0  0  0  0  0  0  0  0  0  0  0
   35.7590   78.7120   54.3780 C   0  0  0  0  0  0  0  0  0  0  0  0
   35.9490   78.8720   56.5100 H   0  0  0  0  0  0  0  0  0  0  0  0
   39.6110   78.3790   54.2500 H   0  0  0  0  0  0  0  0  0  0  0  0
   39.0750   78.1950   51.4250 H   0  0  0  0  0  0  0  0  0  0  0  0
   36.9310   78.2610   49.9790 H   0  0  0  0  0  0  0  0  0  0  0  0
   34.6790   78.8020   54.3850 H   0  0  0  0  0  0  0  0  0  0  0  0
   41.7610   75.8270   57.5710 Cl  0  0  0  0  0  0  0  0  0  0  0  0
   40.7830   75.4680   58.9840 C   0  0  0  0  0  0  0  0  0  0  0  0
   39.8410   76.3920   59.3540 C   0  0  0  0  0  0  0  0  0  0  0  0
   39.1350   76.0470   60.5060 C   0  0  0  0  0  0  0  0  0  0  0  0
   39.3400   74.8940   61.2260 C   0  0  0  0  0  0  0  0  0  0  0  0
   40.3170   73.9990   60.7860 C   0  0  0  0  0  0  0  0  0  0  0  0
   40.6060   72.5280   61.6730 Cl  0  0  0  0  0  0  0  0  0  0  0  0
   41.0450   74.2960   59.6490 C   0  0  0  0  0  0  0  0  0  0  0  0
   38.3720   76.7180   60.8720 H   0  0  0  0  0  0  0  0  0  0  0  0
   38.7490   74.6990   62.1110 H   0  0  0  0  0  0  0  0  0  0  0  0
   42.0550   73.3320   59.2260 C   0  0  0  0  0  0  0  0  0  0  0  0
   43.3700   73.2700   59.5550 C   0  0  0  0  0  0  0  0  0  0  0  0
   43.6990   74.0380   60.2170 H   0  0  0  0  0  0  0  0  0  0  0  0
   44.1640   72.2470   59.0270 C   0  0  0  0  0  3  0  0  0  0  0  0
   43.6330   71.2950   58.1710 C   0  0  0  0  0  0  0  0  0  0  0  0
   44.4170   70.3120   57.6680 N   0  0  0  0  0  0  0  0  0  0  0  0
   43.8680   69.4020   56.8400 C   0  0  0  0  0  0  0  0  0  0  0  0
   44.5200   68.6110   56.4420 H   0  0  0  0  0  0  0  0  0  0  0  0
   42.5450   69.3890   56.4520 C   0  0  0  0  0  3  0  0  0  0  0  0
   41.7640   70.4000   56.9750 C   0  0  0  0  0  3  0  0  0  0  0  0
   42.2850   71.3640   57.8360 C   0  0  0  0  0  0  0  0  0  0  0  0
   41.4950   72.3830   58.3630 C   0  0  0  0  0  3  0  0  0  0  0  0
  1  7  1  0  0  0  0
  1  2  1  0  0  0  0
  2  8  1  0  0  0  0
  3  2  2  0  0  0  0
  3 25  1  0  0  0  0
  4  3  1  0  0  0  0
  5  6  1  0  0  0  0
  5  4  2  0  0  0  0
  6  1  2  0  0  0  0
  9 18  1  0  0  0  0
 10  9  1  0  0  0  0
 10  5  1  0  0  0  0
 11 10  2  0  0  0  0
 12 16  2  0  0  0  0
 12 11  1  0  0  0  0
 13 12  1  0  0  0  0
 14 13  1  0  0  0  0
 14 15  2  0  0  0  0
 15 16  1  0  0  0  0
 16 17  1  0  0  0  0
 17 22  1  0  0  0  0
 17  9  2  0  0  0  0
 19 11  1  0  0  0  0
 20 13  1  0  0  0  0
 21 14  1  0  0  0  0
 23 24  1  0  0  0  0
 24 25  2  0  0  0  0
 24 30  1  0  0  0  0
 25 26  1  0  0  0  0
 26 31  1  0  0  0  0
 26 27  2  0  0  0  0
 27 32  1  0  0  0  0
 28 27  1  0  0  0  0
 28 29  1  0  0  0  0
 30 28  2  0  0  0  0
 33 34  1  0  0  0  0
 33 30  1  0  0  0  0
 34 35  1  0  0  0  0
 36 34  2  0  0  0  0
 37 36  1  0  0  0  0
 38 37  2  0  0  0  0
 39 38  1  0  0  0  0
 40 39  1  0  0  0  0
 41 39  2  0  0  0  0
 41 42  1  0  0  0  0
 42 43  2  0  0  0  0
 43 37  1  0  0  0  0
 43 44  1  0  0  0  0
 44 33  2  0  0  0  0
M  END
>  <minimizedAffinity>
-7.92320347

$$$$

 OpenBabel03212520063D

 44 49  0  0  0  0  0  0  0  0999 V2000
   42.9660   67.4280   59.3330 C   0  0  0  0  0  0  0  0  0  0  0  0
   43.0750   68.8050   59.0820 C   0  0  0  0  0  0  0  0  0  0  0  0
   42.5150   69.6680   60.0120 C   0  0  0  0  0  0  0  0  0  0  0  0
   41.8980   69.1720   61.1100 N   0  0  0  0  0  0  0  0  0  0  0  0
   41.8130   67.8320   61.3240 C   0  0  0  0  0  0  0  0  0  0  0  0
   42.3480   66.9510   60.4320 N   0  0  0  0  0  0  0  0  0  0  0  0
   43.3480   66.6400   58.7030 H   0  0  0  0  0  0  0  0  0  0  0  0
   43.6310   68.9520   58.1900 H   0  0  0  0  0  0  0  0  0  0  0  0
   40.8220   68.2240   63.5270 C   0  0  0  0  0  0  0  0  0  0  0  0
   41.1870   67.3140   62.5290 C   0  0  0  0  0  0  0  0  0  0  0  0
   40.9410   65.9460   62.6630 C   0  0  0  0  0  0  0  0  0  0  0  0
   40.3250   65.4390   63.7900 C   0  0  0  0  0  0  0  0  0  0  0  0
   39.9360   64.2430   64.2590 N   0  0  0  0  0  0  0  0  0  0  0  0
   39.3580   64.3670   65.4740 C   0  0  0  0  0  0  0  0  0  0  0  0
   39.4070   65.6800   65.7370 N   0  0  0  0  0  0  0  0  0  0  0  0
   39.9840   66.3600   64.7440 C   0  0  0  0  0  0  0  0  0  0  0  0
   40.1970   67.7200   64.6750 C   0  0  0  0  0  0  0  0  0  0  0  0
   41.0030   69.2800   63.4410 H   0  0  0  0  0  0  0  0  0  0  0  0
   41.2250   65.2430   61.8860 H   0  0  0  0  0  0  0  0  0  0  0  0
   40.0740   63.3520   63.7290 H   0  0  0  0  0  0  0  0  0  0  0  0
   38.9610   63.5370   66.0580 H   0  0  0  0  0  0  0  0  0  0  0  0
   39.8990   68.3910   65.4720 H   0  0  0  0  0  0  0  0  0  0  0  0
   40.9000   70.7560   57.7520 Cl  0  0  0  0  0  0  0  0  0  0  0  0
   41.9110   71.7350   58.8020 C   0  0  0  0  0  0  0  0  0  0  0  0
   42.5810   71.0960   59.8120 C   0  0  0  0  0  0  0  0  0  0  0  0
   43.3310   71.9500   60.6190 C   0  0  0  0  0  0  0  0  0  0  0  0
   43.4130   73.3110   60.4450 C   0  0  0  0  0  0  0  0  0  0  0  0
   42.7030   73.8900   59.3910 C   0  0  0  0  0  0  0  0  0  0  0  0
   42.7810   75.6120   59.1390 Cl  0  0  0  0  0  0  0  0  0  0  0  0
   41.9440   73.0860   58.5620 C   0  0  0  0  0  0  0  0  0  0  0  0
   43.8920   71.5330   61.4430 H   0  0  0  0  0  0  0  0  0  0  0  0
   44.0180   73.9060   61.1160 H   0  0  0  0  0  0  0  0  0  0  0  0
   41.2190   73.7340   57.4740 C   0  0  0  0  0  0  0  0  0  0  0  0
   41.6550   74.0670   56.2330 C   0  0  0  0  0  0  0  0  0  0  0  0
   42.6720   73.8140   56.0370 H   0  0  0  0  0  0  0  0  0  0  0  0
   40.7780   74.6900   55.3400 C   0  0  0  0  0  3  0  0  0  0  0  0
   39.4700   74.9750   55.6990 C   0  0  0  0  0  0  0  0  0  0  0  0
   38.6340   75.5790   54.8200 N   0  0  0  0  0  0  0  0  0  0  0  0
   37.3680   75.8410   55.2010 C   0  0  0  0  0  0  0  0  0  0  0  0
   36.7050   76.3310   54.4750 H   0  0  0  0  0  0  0  0  0  0  0  0
   36.8420   75.5380   56.4400 C   0  0  0  0  0  3  0  0  0  0  0  0
   37.7110   74.9240   57.3190 C   0  0  0  0  0  3  0  0  0  0  0  0
   39.0280   74.6320   56.9720 C   0  0  0  0  0  0  0  0  0  0  0  0
   39.9030   74.0110   57.8600 C   0  0  0  0  0  3  0  0  0  0  0  0
  1  6  1  0  0  0  0
  2  1  2  0  0  0  0
  2  3  1  0  0  0  0
  3  4  2  0  0  0  0
  4  5  1  0  0  0  0
  5 10  1  0  0  0  0
  6  5  2  0  0  0  0
  7  1  1  0  0  0  0
  8  2  1  0  0  0  0
  9 17  1  0  0  0  0
 10 11  1  0  0  0  0
 10  9  2  0  0  0  0
 11 12  2  0  0  0  0
 12 13  1  0  0  0  0
 12 16  1  0  0  0  0
 13 14  1  0  0  0  0
 14 15  2  0  0  0  0
 14 21  1  0  0  0  0
 16 15  1  0  0  0  0
 17 16  2  0  0  0  0
 17 22  1  0  0  0  0
 18  9  1  0  0  0  0
 19 11  1  0  0  0  0
 20 13  1  0  0  0  0
 23 24  1  0  0  0  0
 24 25  1  0  0  0  0
 25  3  1  0  0  0  0
 25 26  2  0  0  0  0
 26 31  1  0  0  0  0
 27 26  1  0  0  0  0
 27 32  1  0  0  0  0
 28 27  2  0  0  0  0
 29 28  1  0  0  0  0
 30 24  2  0  0  0  0
 30 28  1  0  0  0  0
 33 44  1  0  0  0  0
 33 30  1  0  0  0  0
 34 33  2  0  0  0  0
 35 34  1  0  0  0  0
 36 37  2  0  0  0  0
 36 34  1  0  0  0  0
 37 43  1  0  0  0  0
 38 39  2  0  0  0  0
 38 37  1  0  0  0  0
 39 41  1  0  0  0  0
 40 39  1  0  0  0  0
 41 42  2  0  0  0  0
 43 42  1  0  0  0  0
 43 44  2  0  0  0  0
M  END
>  <minimizedAffinity>
-7.84222317

$$$$
