
 OpenBabel03212520143D

 34 37  0  0  0  0  0  0  0  0999 V2000
   39.6440   72.6820   60.2310 Cl  0  0  0  0  0  0  0  0  0  0  0  0
   41.3170   73.2270   60.0670 C   0  0  0  0  0  0  0  0  0  0  0  0
   42.3660   72.5890   60.7030 C   0  0  0  0  0  0  0  0  0  0  0  0
   43.6270   73.1390   60.4760 C   0  0  0  0  0  0  0  0  0  0  0  0
   43.8950   74.2380   59.6880 C   0  0  0  0  0  0  0  0  0  0  0  0
   42.8280   74.8260   59.0860 C   0  0  0  0  0  0  0  0  0  0  0  0
   43.0500   76.2390   58.0550 Cl  0  0  0  0  0  0  0  0  0  0  0  0
   41.5550   74.3290   59.2720 C   0  0  0  0  0  0  0  0  0  0  0  0
   44.4630   72.6510   60.9690 H   0  0  0  0  0  0  0  0  0  0  0  0
   44.9110   74.5900   59.5730 H   0  0  0  0  0  0  0  0  0  0  0  0
   40.4390   74.9970   58.6030 C   0  0  0  0  0  0  0  0  0  0  0  0
   39.7880   76.0980   59.1710 C   0  0  0  0  0  0  0  0  0  0  0  0
   40.1160   76.4700   60.1340 H   0  0  0  0  0  0  0  0  0  0  0  0
   38.7450   76.6660   58.4700 C   0  0  0  0  0  3  0  0  0  0  0  0
   38.3260   76.1940   57.2440 C   0  0  0  0  0  0  0  0  0  0  0  0
   37.3140   76.7260   56.5390 N   0  0  0  0  0  0  0  0  0  0  0  0
   36.8920   76.2840   55.3490 C   0  0  0  0  0  0  0  0  0  0  0  0
   36.0630   76.7480   54.8090 H   0  0  0  0  0  0  0  0  0  0  0  0
   37.5200   75.1980   54.7670 C   0  0  0  0  0  3  0  0  0  0  0  0
   38.5690   74.6050   55.4440 C   0  0  0  0  0  3  0  0  0  0  0  0
   38.9570   75.1110   56.6710 C   0  0  0  0  0  0  0  0  0  0  0  0
   40.0020   74.5410   57.3730 C   0  0  0  0  0  3  0  0  0  0  0  0
   41.7850   71.4350   62.8820 C   0  0  0  0  0  0  0  0  0  0  0  0
   42.1110   71.4530   61.5220 C   0  0  0  0  0  0  0  0  0  0  0  0
   42.2030   70.2140   60.8670 C   0  0  0  0  0  0  0  0  0  0  0  0
   41.9690   69.0930   61.5960 N   0  0  0  0  0  0  0  0  0  0  0  0
   41.6570   69.1230   62.9070 C   0  0  0  0  0  0  0  0  0  0  0  0
   41.5660   70.2990   63.5440 N   0  0  0  0  0  0  0  0  0  0  0  0
   41.7320   72.4080   63.3150 H   0  0  0  0  0  0  0  0  0  0  0  0
   42.4420   70.0870   59.8320 H   0  0  0  0  0  0  0  0  0  0  0  0
   41.4340   67.7950   63.5440 C   0  0  0  0  0  0  0  0  0  0  0  0
   41.4760   66.7700   62.6200 F   0  0  0  0  0  0  0  0  0  0  0  0
   42.4140   67.5670   64.4990 F   0  0  0  0  0  0  0  0  0  0  0  0
   40.1710   67.7210   64.1250 F   0  0  0  0  0  0  0  0  0  0  0  0
  2  1  1  0  0  0  0
  2  3  1  0  0  0  0
  3 24  1  0  0  0  0
  4  3  2  0  0  0  0
  4  9  1  0  0  0  0
  5  4  1  0  0  0  0
  6  8  1  0  0  0  0
  6  5  2  0  0  0  0
  7  6  1  0  0  0  0
  8  2  2  0  0  0  0
 10  5  1  0  0  0  0
 11 12  1  0  0  0  0
 11  8  1  0  0  0  0
 12 13  1  0  0  0  0
 14 12  2  0  0  0  0
 15 14  1  0  0  0  0
 16 15  2  0  0  0  0
 17 16  1  0  0  0  0
 18 17  1  0  0  0  0
 19 17  2  0  0  0  0
 19 20  1  0  0  0  0
 20 21  2  0  0  0  0
 21 15  1  0  0  0  0
 21 22  1  0  0  0  0
 22 11  2  0  0  0  0
 23 29  1  0  0  0  0
 23 28  1  0  0  0  0
 24 23  2  0  0  0  0
 25 24  1  0  0  0  0
 25 26  2  0  0  0  0
 26 27  1  0  0  0  0
 27 28  2  0  0  0  0
 27 31  1  0  0  0  0
 30 25  1  0  0  0  0
 31 34  1  0  0  0  0
 31 33  1  0  0  0  0
 32 31  1  0  0  0  0
M  END
>  <minimizedAffinity>
-7.17263317

$$$$

 OpenBabel03212520143D

 34 37  0  0  0  0  0  0  0  0999 V2000
   40.3660   73.9100   56.8550 Cl  0  0  0  0  0  0  0  0  0  0  0  0
   40.0430   74.3920   58.5240 C   0  0  0  0  0  0  0  0  0  0  0  0
   39.2220   75.4600   58.8360 C   0  0  0  0  0  0  0  0  0  0  0  0
   39.0660   75.7160   60.1980 C   0  0  0  0  0  0  0  0  0  0  0  0
   39.6530   75.0040   61.2220 C   0  0  0  0  0  0  0  0  0  0  0  0
   40.4490   73.9650   60.8590 C   0  0  0  0  0  0  0  0  0  0  0  0
   41.2520   72.9830   62.0850 Cl  0  0  0  0  0  0  0  0  0  0  0  0
   40.6430   73.6610   59.5280 C   0  0  0  0  0  0  0  0  0  0  0  0
   38.4250   76.5530   60.4620 H   0  0  0  0  0  0  0  0  0  0  0  0
   39.4690   75.2820   62.2520 H   0  0  0  0  0  0  0  0  0  0  0  0
   41.5100   72.5330   59.1880 C   0  0  0  0  0  0  0  0  0  0  0  0
   42.8900   72.6850   59.0170 C   0  0  0  0  0  0  0  0  0  0  0  0
   43.3350   73.6650   59.1410 H   0  0  0  0  0  0  0  0  0  0  0  0
   43.6300   71.5670   58.6970 C   0  0  0  0  0  3  0  0  0  0  0  0
   43.0650   70.3180   58.5400 C   0  0  0  0  0  0  0  0  0  0  0  0
   43.7600   69.2120   58.2290 N   0  0  0  0  0  0  0  0  0  0  0  0
   43.2330   67.9930   58.0720 C   0  0  0  0  0  0  0  0  0  0  0  0
   43.8370   67.1190   57.8170 H   0  0  0  0  0  0  0  0  0  0  0  0
   41.8710   67.8180   58.2350 C   0  0  0  0  0  3  0  0  0  0  0  0
   41.1000   68.9180   58.5570 C   0  0  0  0  0  3  0  0  0  0  0  0
   41.7080   70.1510   58.7050 C   0  0  0  0  0  0  0  0  0  0  0  0
   40.9640   71.2720   59.0250 C   0  0  0  0  0  3  0  0  0  0  0  0
   38.9940   77.4570   57.2940 C   0  0  0  0  0  0  0  0  0  0  0  0
   38.6080   76.2080   57.7930 C   0  0  0  0  0  0  0  0  0  0  0  0
   37.4810   75.6040   57.2100 C   0  0  0  0  0  0  0  0  0  0  0  0
   36.8520   76.2700   56.2090 N   0  0  0  0  0  0  0  0  0  0  0  0
   37.2610   77.4740   55.7590 C   0  0  0  0  0  0  0  0  0  0  0  0
   38.3340   78.0620   56.3060 N   0  0  0  0  0  0  0  0  0  0  0  0
   39.8540   77.8560   57.7810 H   0  0  0  0  0  0  0  0  0  0  0  0
   37.0820   74.6540   57.4960 H   0  0  0  0  0  0  0  0  0  0  0  0
   36.4490   78.0550   54.6540 C   0  0  0  0  0  0  0  0  0  0  0  0
   37.1660   78.9840   53.9250 F   0  0  0  0  0  0  0  0  0  0  0  0
   36.0380   77.0460   53.7960 F   0  0  0  0  0  0  0  0  0  0  0  0
   35.3440   78.7440   55.1490 F   0  0  0  0  0  0  0  0  0  0  0  0
  1  2  1  0  0  0  0
  2  3  2  0  0  0  0
  2  8  1  0  0  0  0
  3  4  1  0  0  0  0
  4  9  1  0  0  0  0
  4  5  2  0  0  0  0
  5 10  1  0  0  0  0
  6  5  1  0  0  0  0
  6  7  1  0  0  0  0
  8  6  2  0  0  0  0
 11  8  1  0  0  0  0
 12 13  1  0  0  0  0
 12 11  2  0  0  0  0
 14 12  1  0  0  0  0
 15 14  2  0  0  0  0
 15 21  1  0  0  0  0
 16 15  1  0  0  0  0
 17 16  2  0  0  0  0
 17 19  1  0  0  0  0
 18 17  1  0  0  0  0
 19 20  2  0  0  0  0
 20 21  1  0  0  0  0
 21 22  2  0  0  0  0
 22 11  1  0  0  0  0
 23 29  1  0  0  0  0
 23 24  1  0  0  0  0
 24  3  1  0  0  0  0
 25 30  1  0  0  0  0
 25 24  2  0  0  0  0
 26 25  1  0  0  0  0
 27 26  2  0  0  0  0
 27 28  1  0  0  0  0
 28 23  2  0  0  0  0
 31 34  1  0  0  0  0
 31 27  1  0  0  0  0
 32 31  1  0  0  0  0
 33 31  1  0  0  0  0
M  END
>  <minimizedAffinity>
-6.97829247

$$$$

 OpenBabel03212520143D

 34 37  0  0  0  0  0  0  0  0999 V2000
   40.5040   72.5490   60.4590 Cl  0  0  0  0  0  0  0  0  0  0  0  0
   42.1140   72.3440   59.7600 C   0  0  0  0  0  0  0  0  0  0  0  0
   42.8760   71.2120   59.9840 C   0  0  0  0  0  0  0  0  0  0  0  0
   44.1250   71.1990   59.3640 C   0  0  0  0  0  0  0  0  0  0  0  0
   44.6380   72.2010   58.5680 C   0  0  0  0  0  0  0  0  0  0  0  0
   43.8480   73.2900   58.3800 C   0  0  0  0  0  0  0  0  0  0  0  0
   44.4000   74.6340   57.3810 Cl  0  0  0  0  0  0  0  0  0  0  0  0
   42.6020   73.3620   58.9670 C   0  0  0  0  0  0  0  0  0  0  0  0
   44.7370   70.3170   59.5300 H   0  0  0  0  0  0  0  0  0  0  0  0
   45.6210   72.0960   58.1300 H   0  0  0  0  0  0  0  0  0  0  0  0
   41.7880   74.5560   58.7360 C   0  0  0  0  0  0  0  0  0  0  0  0
   40.7750   74.5850   57.7720 C   0  0  0  0  0  0  0  0  0  0  0  0
   40.5820   73.7000   57.1770 H   0  0  0  0  0  0  0  0  0  0  0  0
   40.0580   75.7540   57.6210 C   0  0  0  0  0  3  0  0  0  0  0  0
   40.3010   76.8810   58.3780 C   0  0  0  0  0  0  0  0  0  0  0  0
   39.6200   78.0320   58.2540 N   0  0  0  0  0  0  0  0  0  0  0  0
   39.8400   79.1350   58.9770 C   0  0  0  0  0  0  0  0  0  0  0  0
   39.2610   80.0520   58.8420 H   0  0  0  0  0  0  0  0  0  0  0  0
   40.8360   79.1300   59.9360 C   0  0  0  0  0  3  0  0  0  0  0  0
   41.5740   77.9750   60.1120 C   0  0  0  0  0  3  0  0  0  0  0  0
   41.2960   76.8680   59.3320 C   0  0  0  0  0  0  0  0  0  0  0  0
   42.0150   75.6980   59.4830 C   0  0  0  0  0  3  0  0  0  0  0  0
   42.2340   70.1560   62.1960 C   0  0  0  0  0  0  0  0  0  0  0  0
   42.3640   70.1670   60.8030 C   0  0  0  0  0  0  0  0  0  0  0  0
   41.9480   69.0170   60.1110 C   0  0  0  0  0  0  0  0  0  0  0  0
   41.4500   67.9850   60.8380 N   0  0  0  0  0  0  0  0  0  0  0  0
   41.3420   68.0200   62.1820 C   0  0  0  0  0  0  0  0  0  0  0  0
   41.7360   69.1100   62.8550 N   0  0  0  0  0  0  0  0  0  0  0  0
   42.5690   71.0580   62.6560 H   0  0  0  0  0  0  0  0  0  0  0  0
   41.9920   68.8940   59.0490 H   0  0  0  0  0  0  0  0  0  0  0  0
   40.7720   66.7960   62.8120 C   0  0  0  0  0  0  0  0  0  0  0  0
   39.4170   66.6820   62.5760 F   0  0  0  0  0  0  0  0  0  0  0  0
   41.4040   65.6720   62.3010 F   0  0  0  0  0  0  0  0  0  0  0  0
   40.9060   66.8340   64.1980 F   0  0  0  0  0  0  0  0  0  0  0  0
  2  3  1  0  0  0  0
  2  1  1  0  0  0  0
  3 24  1  0  0  0  0
  4  9  1  0  0  0  0
  4  3  2  0  0  0  0
  5  4  1  0  0  0  0
  6  5  2  0  0  0  0
  6  8  1  0  0  0  0
  7  6  1  0  0  0  0
  8  2  2  0  0  0  0
 10  5  1  0  0  0  0
 11  8  1  0  0  0  0
 11 22  1  0  0  0  0
 12 11  2  0  0  0  0
 13 12  1  0  0  0  0
 14 12  1  0  0  0  0
 14 15  2  0  0  0  0
 15 21  1  0  0  0  0
 16 15  1  0  0  0  0
 16 17  2  0  0  0  0
 17 19  1  0  0  0  0
 18 17  1  0  0  0  0
 19 20  2  0  0  0  0
 21 22  2  0  0  0  0
 21 20  1  0  0  0  0
 23 29  1  0  0  0  0
 23 28  1  0  0  0  0
 24 23  2  0  0  0  0
 25 24  1  0  0  0  0
 25 26  2  0  0  0  0
 26 27  1  0  0  0  0
 27 31  1  0  0  0  0
 27 28  2  0  0  0  0
 30 25  1  0  0  0  0
 31 34  1  0  0  0  0
 32 31  1  0  0  0  0
 33 31  1  0  0  0  0
M  END
>  <minimizedAffinity>
-6.88686466

$$$$

 OpenBabel03212520143D

 34 37  0  0  0  0  0  0  0  0999 V2000
   39.4360   73.1970   59.2540 Cl  0  0  0  0  0  0  0  0  0  0  0  0
   40.9210   74.1340   59.0540 C   0  0  0  0  0  0  0  0  0  0  0  0
   41.0000   75.2130   58.1930 C   0  0  0  0  0  0  0  0  0  0  0  0
   42.2400   75.8510   58.1450 C   0  0  0  0  0  0  0  0  0  0  0  0
   43.3560   75.4930   58.8710 C   0  0  0  0  0  0  0  0  0  0  0  0
   43.2230   74.4260   59.7010 C   0  0  0  0  0  0  0  0  0  0  0  0
   44.5840   73.8780   60.6790 Cl  0  0  0  0  0  0  0  0  0  0  0  0
   42.0210   73.7540   59.7930 C   0  0  0  0  0  0  0  0  0  0  0  0
   42.3210   76.7010   57.4730 H   0  0  0  0  0  0  0  0  0  0  0  0
   44.2760   76.0520   58.7640 H   0  0  0  0  0  0  0  0  0  0  0  0
   41.9280   72.6110   60.7010 C   0  0  0  0  0  0  0  0  0  0  0  0
   41.6050   72.7650   62.0530 C   0  0  0  0  0  0  0  0  0  0  0  0
   41.4190   73.7570   62.4450 H   0  0  0  0  0  0  0  0  0  0  0  0
   41.5390   71.6310   62.8360 C   0  0  0  0  0  3  0  0  0  0  0  0
   41.7760   70.3660   62.3390 C   0  0  0  0  0  0  0  0  0  0  0  0
   41.7180   69.2450   63.0760 N   0  0  0  0  0  0  0  0  0  0  0  0
   41.9450   68.0110   62.6150 C   0  0  0  0  0  0  0  0  0  0  0  0
   41.8870   67.1250   63.2520 H   0  0  0  0  0  0  0  0  0  0  0  0
   42.2650   67.8340   61.2810 C   0  0  0  0  0  3  0  0  0  0  0  0
   42.3390   68.9490   60.4690 C   0  0  0  0  0  3  0  0  0  0  0  0
   42.0940   70.1980   61.0090 C   0  0  0  0  0  0  0  0  0  0  0  0
   42.1620   71.3330   60.2240 C   0  0  0  0  0  3  0  0  0  0  0  0
   38.7090   76.2510   57.8900 C   0  0  0  0  0  0  0  0  0  0  0  0
   39.8600   75.5980   57.4340 C   0  0  0  0  0  0  0  0  0  0  0  0
   39.9150   75.2750   56.0680 C   0  0  0  0  0  0  0  0  0  0  0  0
   38.8560   75.6170   55.2920 N   0  0  0  0  0  0  0  0  0  0  0  0
   37.7660   76.2470   55.7750 C   0  0  0  0  0  0  0  0  0  0  0  0
   37.7000   76.5620   57.0770 N   0  0  0  0  0  0  0  0  0  0  0  0
   38.7340   76.4660   58.9340 H   0  0  0  0  0  0  0  0  0  0  0  0
   40.7340   74.7780   55.5910 H   0  0  0  0  0  0  0  0  0  0  0  0
   36.7010   76.5440   54.7770 C   0  0  0  0  0  0  0  0  0  0  0  0
   35.9310   75.4310   54.5040 F   0  0  0  0  0  0  0  0  0  0  0  0
   35.8730   77.5440   55.2640 F   0  0  0  0  0  0  0  0  0  0  0  0
   37.2480   76.9260   53.5550 F   0  0  0  0  0  0  0  0  0  0  0  0
  2  1  1  0  0  0  0
  2  8  1  0  0  0  0
  3  2  2  0  0  0  0
  4  3  1  0  0  0  0
  4  5  2  0  0  0  0
  5  6  1  0  0  0  0
  6  8  2  0  0  0  0
  6  7  1  0  0  0  0
  8 11  1  0  0  0  0
  9  4  1  0  0  0  0
 10  5  1  0  0  0  0
 11 12  1  0  0  0  0
 12 13  1  0  0  0  0
 12 14  2  0  0  0  0
 15 14  1  0  0  0  0
 15 16  1  0  0  0  0
 17 16  2  0  0  0  0
 17 18  1  0  0  0  0
 19 17  1  0  0  0  0
 20 21  1  0  0  0  0
 20 19  2  0  0  0  0
 21 15  2  0  0  0  0
 22 11  2  0  0  0  0
 22 21  1  0  0  0  0
 23 29  1  0  0  0  0
 24 23  1  0  0  0  0
 24  3  1  0  0  0  0
 25 24  2  0  0  0  0
 26 27  2  0  0  0  0
 26 25  1  0  0  0  0
 27 28  1  0  0  0  0
 28 23  2  0  0  0  0
 30 25  1  0  0  0  0
 31 33  1  0  0  0  0
 31 27  1  0  0  0  0
 32 31  1  0  0  0  0
 34 31  1  0  0  0  0
M  END
>  <minimizedAffinity>
-6.85753584

$$$$

 OpenBabel03212520143D

 34 37  0  0  0  0  0  0  0  0999 V2000
   41.1050   71.8810   61.5650 Cl  0  0  0  0  0  0  0  0  0  0  0  0
   42.4390   71.5090   60.4690 C   0  0  0  0  0  0  0  0  0  0  0  0
   42.8340   72.3770   59.4680 C   0  0  0  0  0  0  0  0  0  0  0  0
   43.9030   71.9420   58.6840 C   0  0  0  0  0  0  0  0  0  0  0  0
   44.5720   70.7450   58.8310 C   0  0  0  0  0  0  0  0  0  0  0  0
   44.1440   69.9300   59.8300 C   0  0  0  0  0  0  0  0  0  0  0  0
   44.9240   68.3740   60.1110 Cl  0  0  0  0  0  0  0  0  0  0  0  0
   43.0910   70.3050   60.6390 C   0  0  0  0  0  0  0  0  0  0  0  0
   44.2260   72.6120   57.8930 H   0  0  0  0  0  0  0  0  0  0  0  0
   45.3920   70.4970   58.1710 H   0  0  0  0  0  0  0  0  0  0  0  0
   42.6660   69.3930   61.7000 C   0  0  0  0  0  0  0  0  0  0  0  0
   43.1290   69.5190   63.0140 C   0  0  0  0  0  0  0  0  0  0  0  0
   43.8220   70.3150   63.2590 H   0  0  0  0  0  0  0  0  0  0  0  0
   42.6740   68.6140   63.9510 C   0  0  0  0  0  3  0  0  0  0  0  0
   41.7910   67.6010   63.6420 C   0  0  0  0  0  0  0  0  0  0  0  0
   41.3320   66.7060   64.5320 N   0  0  0  0  0  0  0  0  0  0  0  0
   40.4760   65.7160   64.2530 C   0  0  0  0  0  0  0  0  0  0  0  0
   40.1290   65.0090   65.0100 H   0  0  0  0  0  0  0  0  0  0  0  0
   40.0050   65.5710   62.9610 C   0  0  0  0  0  3  0  0  0  0  0  0
   40.4400   66.4620   61.9990 C   0  0  0  0  0  3  0  0  0  0  0  0
   41.3260   67.4630   62.3520 C   0  0  0  0  0  0  0  0  0  0  0  0
   41.7810   68.3690   61.4130 C   0  0  0  0  0  3  0  0  0  0  0  0
   42.6150   74.8960   59.6330 C   0  0  0  0  0  0  0  0  0  0  0  0
   42.1560   73.6170   59.2990 C   0  0  0  0  0  0  0  0  0  0  0  0
   40.8760   73.5230   58.7280 C   0  0  0  0  0  0  0  0  0  0  0  0
   40.1790   74.6730   58.5420 N   0  0  0  0  0  0  0  0  0  0  0  0
   40.6620   75.8860   58.8790 C   0  0  0  0  0  0  0  0  0  0  0  0
   41.8820   75.9900   59.4250 N   0  0  0  0  0  0  0  0  0  0  0  0
   43.5910   74.8930   60.0620 H   0  0  0  0  0  0  0  0  0  0  0  0
   40.4070   72.6100   58.4270 H   0  0  0  0  0  0  0  0  0  0  0  0
   39.7580   77.0370   58.6020 C   0  0  0  0  0  0  0  0  0  0  0  0
   40.1600   77.7470   57.4880 F   0  0  0  0  0  0  0  0  0  0  0  0
   38.4680   76.5750   58.3880 F   0  0  0  0  0  0  0  0  0  0  0  0
   39.7720   77.9530   59.6510 F   0  0  0  0  0  0  0  0  0  0  0  0
  2  8  1  0  0  0  0
  2  1  1  0  0  0  0
  3  2  2  0  0  0  0
  4  5  2  0  0  0  0
  4  3  1  0  0  0  0
  5  6  1  0  0  0  0
  6  7  1  0  0  0  0
  6  8  2  0  0  0  0
  8 11  1  0  0  0  0
  9  4  1  0  0  0  0
 10  5  1  0  0  0  0
 11 12  1  0  0  0  0
 12 13  1  0  0  0  0
 12 14  2  0  0  0  0
 15 14  1  0  0  0  0
 15 16  1  0  0  0  0
 17 16  2  0  0  0  0
 17 18  1  0  0  0  0
 19 17  1  0  0  0  0
 20 21  1  0  0  0  0
 20 19  2  0  0  0  0
 21 15  2  0  0  0  0
 22 11  2  0  0  0  0
 22 21  1  0  0  0  0
 23 29  1  0  0  0  0
 24  3  1  0  0  0  0
 24 23  2  0  0  0  0
 25 24  1  0  0  0  0
 26 25  2  0  0  0  0
 26 27  1  0  0  0  0
 27 28  2  0  0  0  0
 28 23  1  0  0  0  0
 30 25  1  0  0  0  0
 31 27  1  0  0  0  0
 31 34  1  0  0  0  0
 32 31  1  0  0  0  0
 33 31  1  0  0  0  0
M  END
>  <minimizedAffinity>
-6.82817936

$$$$

 OpenBabel03212520143D

 34 37  0  0  0  0  0  0  0  0999 V2000
   42.2760   72.1230   61.5050 Cl  0  0  0  0  0  0  0  0  0  0  0  0
   41.5350   71.5200   60.0190 C   0  0  0  0  0  0  0  0  0  0  0  0
   41.7650   70.2400   59.5480 C   0  0  0  0  0  0  0  0  0  0  0  0
   41.1090   69.9120   58.3620 C   0  0  0  0  0  0  0  0  0  0  0  0
   40.2740   70.7450   57.6480 C   0  0  0  0  0  0  0  0  0  0  0  0
   40.0820   71.9910   58.1560 C   0  0  0  0  0  0  0  0  0  0  0  0
   39.0350   73.1420   57.3280 Cl  0  0  0  0  0  0  0  0  0  0  0  0
   40.7040   72.3750   59.3260 C   0  0  0  0  0  0  0  0  0  0  0  0
   41.2780   68.9100   57.9770 H   0  0  0  0  0  0  0  0  0  0  0  0
   39.8090   70.3970   56.7350 H   0  0  0  0  0  0  0  0  0  0  0  0
   40.4670   73.7260   59.8320 C   0  0  0  0  0  0  0  0  0  0  0  0
   39.3980   74.0200   60.6860 C   0  0  0  0  0  0  0  0  0  0  0  0
   38.7240   73.2270   60.9840 H   0  0  0  0  0  0  0  0  0  0  0  0
   39.2510   75.3230   61.1150 C   0  0  0  0  0  3  0  0  0  0  0  0
   40.1090   76.3340   60.7360 C   0  0  0  0  0  0  0  0  0  0  0  0
   39.9910   77.6100   61.1370 N   0  0  0  0  0  0  0  0  0  0  0  0
   40.8110   78.6050   60.7820 C   0  0  0  0  0  0  0  0  0  0  0  0
   40.6770   79.6320   61.1330 H   0  0  0  0  0  0  0  0  0  0  0  0
   41.8750   78.3390   59.9390 C   0  0  0  0  0  3  0  0  0  0  0  0
   42.0510   77.0440   59.4910 C   0  0  0  0  0  3  0  0  0  0  0  0
   41.1670   76.0610   59.8960 C   0  0  0  0  0  0  0  0  0  0  0  0
   41.3150   74.7560   59.4650 C   0  0  0  0  0  3  0  0  0  0  0  0
   44.0210   69.3000   60.2160 C   0  0  0  0  0  0  0  0  0  0  0  0
   42.6240   69.3640   60.2690 C   0  0  0  0  0  0  0  0  0  0  0  0
   41.9720   68.4660   61.1310 C   0  0  0  0  0  0  0  0  0  0  0  0
   42.7390   67.6060   61.8470 N   0  0  0  0  0  0  0  0  0  0  0  0
   44.0850   67.5790   61.7640 C   0  0  0  0  0  0  0  0  0  0  0  0
   44.7190   68.4310   60.9460 N   0  0  0  0  0  0  0  0  0  0  0  0
   44.4480   70.0080   59.5430 H   0  0  0  0  0  0  0  0  0  0  0  0
   40.9130   68.4110   61.2670 H   0  0  0  0  0  0  0  0  0  0  0  0
   44.7610   66.5680   62.6240 C   0  0  0  0  0  0  0  0  0  0  0  0
   44.1740   65.3240   62.5100 F   0  0  0  0  0  0  0  0  0  0  0  0
   46.0940   66.4610   62.2550 F   0  0  0  0  0  0  0  0  0  0  0  0
   44.6610   66.9040   63.9720 F   0  0  0  0  0  0  0  0  0  0  0  0
  2  1  1  0  0  0  0
  3  2  1  0  0  0  0
  3 24  1  0  0  0  0
  4  3  2  0  0  0  0
  5  6  2  0  0  0  0
  5  4  1  0  0  0  0
  6  8  1  0  0  0  0
  7  6  1  0  0  0  0
  8 11  1  0  0  0  0
  8  2  2  0  0  0  0
  9  4  1  0  0  0  0
 10  5  1  0  0  0  0
 11 12  1  0  0  0  0
 12 13  1  0  0  0  0
 12 14  2  0  0  0  0
 15 14  1  0  0  0  0
 15 16  1  0  0  0  0
 17 18  1  0  0  0  0
 17 16  2  0  0  0  0
 19 17  1  0  0  0  0
 20 21  1  0  0  0  0
 20 19  2  0  0  0  0
 21 15  2  0  0  0  0
 22 11  2  0  0  0  0
 22 21  1  0  0  0  0
 23 24  2  0  0  0  0
 23 28  1  0  0  0  0
 24 25  1  0  0  0  0
 25 30  1  0  0  0  0
 25 26  2  0  0  0  0
 27 26  1  0  0  0  0
 27 31  1  0  0  0  0
 28 27  2  0  0  0  0
 29 23  1  0  0  0  0
 31 34  1  0  0  0  0
 32 31  1  0  0  0  0
 33 31  1  0  0  0  0
M  END
>  <minimizedAffinity>
-6.64111519

$$$$

 OpenBabel03212520143D

 34 37  0  0  0  0  0  0  0  0999 V2000
   39.8160   73.8180   57.7180 Cl  0  0  0  0  0  0  0  0  0  0  0  0
   39.9790   75.3140   58.6430 C   0  0  0  0  0  0  0  0  0  0  0  0
   40.5460   75.3420   59.9040 C   0  0  0  0  0  0  0  0  0  0  0  0
   40.6030   76.5990   60.5070 C   0  0  0  0  0  0  0  0  0  0  0  0
   40.1490   77.7770   59.9530 C   0  0  0  0  0  0  0  0  0  0  0  0
   39.6020   77.6920   58.7130 C   0  0  0  0  0  0  0  0  0  0  0  0
   38.9870   79.1350   57.9060 Cl  0  0  0  0  0  0  0  0  0  0  0  0
   39.5170   76.4780   58.0640 C   0  0  0  0  0  0  0  0  0  0  0  0
   41.0450   76.6400   61.4980 H   0  0  0  0  0  0  0  0  0  0  0  0
   40.2380   78.7050   60.5020 H   0  0  0  0  0  0  0  0  0  0  0  0
   38.9180   76.4380   56.7300 C   0  0  0  0  0  0  0  0  0  0  0  0
   37.5520   76.2080   56.5390 C   0  0  0  0  0  0  0  0  0  0  0  0
   36.9130   76.0560   57.4010 H   0  0  0  0  0  0  0  0  0  0  0  0
   37.0730   76.1870   55.2450 C   0  0  0  0  0  3  0  0  0  0  0  0
   37.8850   76.3820   54.1470 C   0  0  0  0  0  0  0  0  0  0  0  0
   37.4480   76.3670   52.8770 N   0  0  0  0  0  0  0  0  0  0  0  0
   38.2170   76.5530   51.7990 C   0  0  0  0  0  0  0  0  0  0  0  0
   37.8180   76.5320   50.7810 H   0  0  0  0  0  0  0  0  0  0  0  0
   39.5710   76.7810   51.9630 C   0  0  0  0  0  3  0  0  0  0  0  0
   40.0820   76.8090   53.2460 C   0  0  0  0  0  3  0  0  0  0  0  0
   39.2330   76.6090   54.3190 C   0  0  0  0  0  0  0  0  0  0  0  0
   39.7130   76.6300   55.6140 C   0  0  0  0  0  3  0  0  0  0  0  0
   42.2450   73.4990   60.2710 C   0  0  0  0  0  0  0  0  0  0  0  0
   41.0200   74.1370   60.4940 C   0  0  0  0  0  0  0  0  0  0  0  0
   40.1380   73.5310   61.4040 C   0  0  0  0  0  0  0  0  0  0  0  0
   40.5340   72.3780   62.0000 N   0  0  0  0  0  0  0  0  0  0  0  0
   41.7270   71.7990   61.7540 C   0  0  0  0  0  0  0  0  0  0  0  0
   42.5780   72.3660   60.8880 N   0  0  0  0  0  0  0  0  0  0  0  0
   42.8640   74.0120   59.5700 H   0  0  0  0  0  0  0  0  0  0  0  0
   39.1730   73.9130   61.6650 H   0  0  0  0  0  0  0  0  0  0  0  0
   41.9930   70.5360   62.4990 C   0  0  0  0  0  0  0  0  0  0  0  0
   41.4950   69.4340   61.8320 F   0  0  0  0  0  0  0  0  0  0  0  0
   43.3600   70.3710   62.6620 F   0  0  0  0  0  0  0  0  0  0  0  0
   41.3570   70.5390   63.7380 F   0  0  0  0  0  0  0  0  0  0  0  0
  1  2  1  0  0  0  0
  2  3  1  0  0  0  0
  3 24  1  0  0  0  0
  3  4  2  0  0  0  0
  4  9  1  0  0  0  0
  5 10  1  0  0  0  0
  5  4  1  0  0  0  0
  6  5  2  0  0  0  0
  7  6  1  0  0  0  0
  8  2  2  0  0  0  0
  8  6  1  0  0  0  0
 11  8  1  0  0  0  0
 12 11  1  0  0  0  0
 12 13  1  0  0  0  0
 14 12  2  0  0  0  0
 15 21  1  0  0  0  0
 15 14  1  0  0  0  0
 16 15  2  0  0  0  0
 17 19  2  0  0  0  0
 17 16  1  0  0  0  0
 18 17  1  0  0  0  0
 19 20  1  0  0  0  0
 20 21  2  0  0  0  0
 21 22  1  0  0  0  0
 22 11  2  0  0  0  0
 23 24  2  0  0  0  0
 23 28  1  0  0  0  0
 24 25  1  0  0  0  0
 25 30  1  0  0  0  0
 25 26  2  0  0  0  0
 27 26  1  0  0  0  0
 27 31  1  0  0  0  0
 28 27  2  0  0  0  0
 29 23  1  0  0  0  0
 31 33  1  0  0  0  0
 31 34  1  0  0  0  0
 32 31  1  0  0  0  0
M  END
>  <minimizedAffinity>
-6.52383423

$$$$

 OpenBabel03212520143D

 34 37  0  0  0  0  0  0  0  0999 V2000
   39.7910   71.8020   58.9090 Cl  0  0  0  0  0  0  0  0  0  0  0  0
   41.3490   72.4920   59.3740 C   0  0  0  0  0  0  0  0  0  0  0  0
   42.3540   71.7280   59.9390 C   0  0  0  0  0  0  0  0  0  0  0  0
   43.5250   72.4170   60.2530 C   0  0  0  0  0  0  0  0  0  0  0  0
   43.7470   73.7620   60.0460 C   0  0  0  0  0  0  0  0  0  0  0  0
   42.7270   74.4650   59.4880 C   0  0  0  0  0  0  0  0  0  0  0  0
   42.8970   76.1930   59.1780 Cl  0  0  0  0  0  0  0  0  0  0  0  0
   41.5430   73.8410   59.1560 C   0  0  0  0  0  0  0  0  0  0  0  0
   44.3260   71.8320   60.6980 H   0  0  0  0  0  0  0  0  0  0  0  0
   44.6940   74.2060   60.3240 H   0  0  0  0  0  0  0  0  0  0  0  0
   40.4750   74.6400   58.5580 C   0  0  0  0  0  0  0  0  0  0  0  0
   39.5590   75.3540   59.3390 C   0  0  0  0  0  0  0  0  0  0  0  0
   39.6400   75.3160   60.4180 H   0  0  0  0  0  0  0  0  0  0  0  0
   38.5830   76.0820   58.6900 C   0  0  0  0  0  3  0  0  0  0  0  0
   38.4800   76.1310   57.3150 C   0  0  0  0  0  0  0  0  0  0  0  0
   37.5420   76.8310   56.6570 N   0  0  0  0  0  0  0  0  0  0  0  0
   37.4230   76.8920   55.3260 C   0  0  0  0  0  0  0  0  0  0  0  0
   36.6430   77.4750   54.8300 H   0  0  0  0  0  0  0  0  0  0  0  0
   38.3170   76.1950   54.5330 C   0  0  0  0  0  3  0  0  0  0  0  0
   39.3070   75.4560   55.1510 C   0  0  0  0  0  3  0  0  0  0  0  0
   39.3740   75.4350   56.5320 C   0  0  0  0  0  0  0  0  0  0  0  0
   40.3520   74.7040   57.1810 C   0  0  0  0  0  3  0  0  0  0  0  0
   42.0450   69.3240   59.2030 C   0  0  0  0  0  0  0  0  0  0  0  0
   42.1450   70.3380   60.1610 C   0  0  0  0  0  0  0  0  0  0  0  0
   42.0280   69.9610   61.5100 C   0  0  0  0  0  0  0  0  0  0  0  0
   41.8280   68.6470   61.7850 N   0  0  0  0  0  0  0  0  0  0  0  0
   41.7380   67.7030   60.8270 C   0  0  0  0  0  0  0  0  0  0  0  0
   41.8480   68.0490   59.5360 N   0  0  0  0  0  0  0  0  0  0  0  0
   42.1420   69.6810   58.2030 H   0  0  0  0  0  0  0  0  0  0  0  0
   42.0870   70.6340   62.3390 H   0  0  0  0  0  0  0  0  0  0  0  0
   41.5170   66.3120   61.3140 C   0  0  0  0  0  0  0  0  0  0  0  0
   40.2000   66.0970   61.6680 F   0  0  0  0  0  0  0  0  0  0  0  0
   41.8590   65.4100   60.3180 F   0  0  0  0  0  0  0  0  0  0  0  0
   42.2580   66.0590   62.4660 F   0  0  0  0  0  0  0  0  0  0  0  0
  1  2  1  0  0  0  0
  2  3  1  0  0  0  0
  3 24  1  0  0  0  0
  3  4  2  0  0  0  0
  4  9  1  0  0  0  0
  5  4  1  0  0  0  0
  5 10  1  0  0  0  0
  6  5  2  0  0  0  0
  7  6  1  0  0  0  0
  8  2  2  0  0  0  0
  8  6  1  0  0  0  0
 11  8  1  0  0  0  0
 11 12  1  0  0  0  0
 12 13  1  0  0  0  0
 14 12  2  0  0  0  0
 15 14  1  0  0  0  0
 16 15  1  0  0  0  0
 17 16  2  0  0  0  0
 18 17  1  0  0  0  0
 19 20  2  0  0  0  0
 19 17  1  0  0  0  0
 20 21  1  0  0  0  0
 21 22  1  0  0  0  0
 21 15  2  0  0  0  0
 22 11  2  0  0  0  0
 23 28  2  0  0  0  0
 23 24  1  0  0  0  0
 24 25  2  0  0  0  0
 25 26  1  0  0  0  0
 25 30  1  0  0  0  0
 27 31  1  0  0  0  0
 27 26  2  0  0  0  0
 28 27  1  0  0  0  0
 29 23  1  0  0  0  0
 31 32  1  0  0  0  0
 31 34  1  0  0  0  0
 33 31  1  0  0  0  0
M  END
>  <minimizedAffinity>
-6.51145172

$$$$

 OpenBabel03212520143D

 34 37  0  0  0  0  0  0  0  0999 V2000
   41.9440   72.1520   61.0960 Cl  0  0  0  0  0  0  0  0  0  0  0  0
   42.0570   72.0120   59.3380 C   0  0  0  0  0  0  0  0  0  0  0  0
   41.7740   73.0710   58.4950 C   0  0  0  0  0  0  0  0  0  0  0  0
   41.9080   72.8040   57.1330 C   0  0  0  0  0  0  0  0  0  0  0  0
   42.2910   71.5980   56.5840 C   0  0  0  0  0  0  0  0  0  0  0  0
   42.5570   70.5920   57.4570 C   0  0  0  0  0  0  0  0  0  0  0  0
   43.0540   69.0060   56.8690 Cl  0  0  0  0  0  0  0  0  0  0  0  0
   42.4420   70.7940   58.8170 C   0  0  0  0  0  0  0  0  0  0  0  0
   41.6900   73.6250   56.4560 H   0  0  0  0  0  0  0  0  0  0  0  0
   42.3660   71.4900   55.5100 H   0  0  0  0  0  0  0  0  0  0  0  0
   42.7380   69.6800   59.7170 C   0  0  0  0  0  0  0  0  0  0  0  0
   44.0260   69.4530   60.2150 C   0  0  0  0  0  0  0  0  0  0  0  0
   44.8310   70.1200   59.9280 H   0  0  0  0  0  0  0  0  0  0  0  0
   44.2150   68.3780   61.0580 C   0  0  0  0  0  3  0  0  0  0  0  0
   43.1920   67.5280   61.4230 C   0  0  0  0  0  0  0  0  0  0  0  0
   43.3450   66.4740   62.2420 N   0  0  0  0  0  0  0  0  0  0  0  0
   42.3670   65.6390   62.6080 C   0  0  0  0  0  0  0  0  0  0  0  0
   42.5370   64.7920   63.2770 H   0  0  0  0  0  0  0  0  0  0  0  0
   41.0860   65.8430   62.1290 C   0  0  0  0  0  3  0  0  0  0  0  0
   40.8630   66.9110   61.2820 C   0  0  0  0  0  3  0  0  0  0  0  0
   41.9170   67.7380   60.9420 C   0  0  0  0  0  0  0  0  0  0  0  0
   41.7270   68.8150   60.0970 C   0  0  0  0  0  3  0  0  0  0  0  0
   40.0990   74.7090   59.4590 C   0  0  0  0  0  0  0  0  0  0  0  0
   41.3770   74.3230   59.0420 C   0  0  0  0  0  0  0  0  0  0  0  0
   42.4060   75.2710   59.1690 C   0  0  0  0  0  0  0  0  0  0  0  0
   42.0890   76.4860   59.6850 N   0  0  0  0  0  0  0  0  0  0  0  0
   40.8410   76.8130   60.0750 C   0  0  0  0  0  0  0  0  0  0  0  0
   39.8500   75.9190   59.9590 N   0  0  0  0  0  0  0  0  0  0  0  0
   39.3680   73.9430   59.3350 H   0  0  0  0  0  0  0  0  0  0  0  0
   43.4260   75.1060   58.8890 H   0  0  0  0  0  0  0  0  0  0  0  0
   40.6790   78.1910   60.6180 C   0  0  0  0  0  0  0  0  0  0  0  0
   41.8960   78.8160   60.8010 F   0  0  0  0  0  0  0  0  0  0  0  0
   39.9220   78.9520   59.7390 F   0  0  0  0  0  0  0  0  0  0  0  0
   40.0790   78.1700   61.8740 F   0  0  0  0  0  0  0  0  0  0  0  0
  2  1  1  0  0  0  0
  3 24  1  0  0  0  0
  3  2  2  0  0  0  0
  4  3  1  0  0  0  0
  5  4  2  0  0  0  0
  5  6  1  0  0  0  0
  6  8  2  0  0  0  0
  7  6  1  0  0  0  0
  8  2  1  0  0  0  0
  8 11  1  0  0  0  0
  9  4  1  0  0  0  0
 10  5  1  0  0  0  0
 11 22  2  0  0  0  0
 11 12  1  0  0  0  0
 12 14  2  0  0  0  0
 13 12  1  0  0  0  0
 14 15  1  0  0  0  0
 15 16  1  0  0  0  0
 16 17  2  0  0  0  0
 17 18  1  0  0  0  0
 19 17  1  0  0  0  0
 20 19  2  0  0  0  0
 21 20  1  0  0  0  0
 21 15  2  0  0  0  0
 22 21  1  0  0  0  0
 23 28  1  0  0  0  0
 24 25  1  0  0  0  0
 24 23  2  0  0  0  0
 25 26  2  0  0  0  0
 26 27  1  0  0  0  0
 27 31  1  0  0  0  0
 28 27  2  0  0  0  0
 29 23  1  0  0  0  0
 30 25  1  0  0  0  0
 31 32  1  0  0  0  0
 31 34  1  0  0  0  0
 33 31  1  0  0  0  0
M  END
>  <minimizedAffinity>
-6.49689198

$$$$
