
 OpenBabel03212521003D

 45 50  0  0  1  0  0  0  0  0999 V2000
   39.9230   77.5390   59.1270 C   0  0  0  0  0  0  0  0  0  0  0  0
   40.7480   76.5280   58.7110 C   0  0  0  0  0  0  0  0  0  0  0  0
   40.2170   75.8160   57.6200 C   0  0  0  0  0  0  0  0  0  0  0  0
   39.0350   76.0860   57.0390 N   0  0  0  0  0  0  0  0  0  0  0  0
   38.2850   77.1200   57.5290 C   0  0  0  0  0  0  0  0  0  0  0  0
   38.7480   77.8310   58.5710 N   0  0  0  0  0  0  0  0  0  0  0  0
   41.6970   76.2770   59.1450 H   0  0  0  0  0  0  0  0  0  0  0  0
   40.8110   74.9810   57.2170 H   0  0  0  0  0  0  0  0  0  0  0  0
   40.9920   80.4450   61.7650 C   0  0  0  0  0  0  0  0  0  0  0  0
   40.9950   79.1970   62.3300 C   0  0  0  0  0  0  0  0  0  0  0  0
   40.6650   78.1440   61.5680 C   0  0  0  0  0  0  0  0  0  0  0  0
   40.3290   78.3600   60.2360 C   0  0  0  0  0  0  0  0  0  0  0  0
   40.4930   80.1870   60.0370 S   0  0  0  0  0  0  0  0  0  0  0  0
   41.2580   79.0300   63.3860 H   0  0  0  0  0  0  0  0  0  0  0  0
   40.6100   77.0940   61.8260 H   0  0  0  0  0  0  0  0  0  0  0  0
   42.9750   83.2650   63.0190 C   0  0  0  0  0  0  0  0  0  0  0  0
   42.0530   83.9810   63.7970 C   0  0  0  0  0  0  0  0  0  0  0  0
   40.7390   83.4990   63.8980 C   0  0  0  0  0  0  0  0  0  0  0  0
   40.4380   82.3640   63.2320 N   0  0  0  0  0  0  0  0  0  0  0  0
   41.3450   81.6950   62.4900 C   0  0  0  0  0  0  0  0  0  0  0  0
   42.5970   82.1450   62.3890 N   0  0  0  0  0  0  0  0  0  0  0  0
   44.0020   83.6150   62.9250 H   0  0  0  0  0  0  0  0  0  0  0  0
   42.3180   84.8860   64.3190 H   0  0  0  0  0  0  0  0  0  0  0  0
   39.9680   83.9870   64.4750 H   0  0  0  0  0  0  0  0  0  0  0  0
   37.0180   77.3960   56.8840 C   0  0  0  0  0  0  0  0  0  0  0  0
   36.0080   76.8450   57.3590 O   0  0  0  0  0  0  0  0  0  0  0  0
   36.9090   78.3030   55.6770 C   0  0  1  0  0  0  0  0  0  0  0  0
   37.2920   79.7310   56.0020 C   0  0  0  0  0  0  0  0  0  0  0  0
   38.0990   78.8620   55.0930 C   0  0  2  0  0  0  0  0  0  0  0  0
   35.8780   78.2620   55.2310 H   0  0  0  0  0  0  0  0  0  0  0  0
   37.6320   79.9750   57.0190 H   0  0  0  0  0  0  0  0  0  0  0  0
   36.6760   80.5250   55.5570 H   0  0  0  0  0  0  0  0  0  0  0  0
   39.0690   78.5520   55.5700 H   0  0  0  0  0  0  0  0  0  0  0  0
   38.2640   79.3930   53.7400 C   0  0  0  0  0  0  0  0  0  0  0  0
   39.5720   79.6610   53.3820 C   0  0  0  0  0  0  0  0  0  0  0  0
   40.4240   79.4820   54.0600 H   0  0  0  0  0  0  0  0  0  0  0  0
   39.9580   80.1710   52.1510 C   0  0  0  0  0  3  0  0  0  0  0  0
   38.9080   80.4000   51.2870 C   0  0  0  0  0  0  0  0  0  0  0  0
   39.2550   80.9130   50.0710 N   0  0  0  0  0  0  0  0  0  0  0  0
   38.3140   81.1850   49.1440 C   0  0  0  0  0  0  0  0  0  0  0  0
   38.6340   81.5920   48.1930 H   0  0  0  0  0  0  0  0  0  0  0  0
   36.9550   80.9550   49.3910 C   0  0  0  0  0  3  0  0  0  0  0  0
   36.5770   80.4300   50.6330 C   0  0  0  0  0  3  0  0  0  0  0  0
   37.5710   80.1700   51.5370 C   0  0  0  0  0  0  0  0  0  0  0  0
   37.2690   79.6560   52.7980 C   0  0  0  0  0  3  0  0  0  0  0  0
  1 12  1  0  0  0  0
  2  1  1  0  0  0  0
  2  7  1  0  0  0  0
  3  2  2  0  0  0  0
  4  5  2  0  0  0  0
  4  3  1  0  0  0  0
  5  6  1  0  0  0  0
  6  1  2  0  0  0  0
  8  3  1  0  0  0  0
  9 10  2  0  0  0  0
  9 20  1  0  0  0  0
 10 14  1  0  0  0  0
 11 15  1  0  0  0  0
 11 10  1  0  0  0  0
 12 11  2  0  0  0  0
 13 12  1  0  0  0  0
 13  9  1  0  0  0  0
 16 17  1  0  0  0  0
 17 18  2  0  0  0  0
 17 23  1  0  0  0  0
 18 24  1  0  0  0  0
 19 18  1  0  0  0  0
 20 19  2  0  0  0  0
 21 20  1  0  0  0  0
 21 16  2  0  0  0  0
 22 16  1  0  0  0  0
 25 26  2  0  0  0  0
 25  5  1  0  0  0  0
 27 30  1  6  0  0  0
 27 28  1  0  0  0  0
 27 25  1  0  0  0  0
 28 31  1  0  0  0  0
 29 33  1  1  0  0  0
 29 27  1  0  0  0  0
 29 28  1  0  0  0  0
 32 28  1  0  0  0  0
 34 29  1  0  0  0  0
 35 34  1  0  0  0  0
 35 36  1  0  0  0  0
 37 35  2  0  0  0  0
 38 44  1  0  0  0  0
 38 37  1  0  0  0  0
 39 38  2  0  0  0  0
 40 42  2  0  0  0  0
 40 39  1  0  0  0  0
 41 40  1  0  0  0  0
 42 43  1  0  0  0  0
 43 44  2  0  0  0  0
 44 45  1  0  0  0  0
 45 34  2  0  0  0  0
M  END
>  <minimizedAffinity>
-7.16373825

>  <minimizedRMSD>
1.09074879

$$$$
