
 OpenBabel03212520273D

 31 34  0  0  0  0  0  0  0  0999 V2000
   42.4040   84.8590   60.9400 C   0  0  0  0  0  0  0  0  0  0  0  0
   43.4750   85.2250   61.7430 C   0  0  0  0  0  0  0  0  0  0  0  0
   44.0910   86.2070   60.9440 C   0  0  0  0  0  0  0  0  0  0  0  0
   43.4250   86.3780   59.7900 N   0  0  0  0  0  0  0  0  0  0  0  0
   42.3950   85.5440   59.8070 N   0  0  0  0  0  0  0  0  0  0  0  0
   43.7970   84.8870   62.7190 H   0  0  0  0  0  0  0  0  0  0  0  0
   45.0000   86.7420   61.2570 H   0  0  0  0  0  0  0  0  0  0  0  0
   40.7950   81.6070   61.7930 C   0  0  0  0  0  0  0  0  0  0  0  0
   41.7910   82.5200   61.4350 C   0  0  0  0  0  0  0  0  0  0  0  0
   41.4240   83.8490   61.3100 C   0  0  0  0  0  0  0  0  0  0  0  0
   40.1270   84.2190   61.5370 N   0  0  0  0  0  0  0  0  0  0  0  0
   39.2010   83.2840   61.8830 C   0  0  0  0  0  0  0  0  0  0  0  0
   39.5390   81.9950   62.0080 N   0  0  0  0  0  0  0  0  0  0  0  0
   41.0060   80.5620   61.9080 H   0  0  0  0  0  0  0  0  0  0  0  0
   42.8040   82.1790   61.2650 H   0  0  0  0  0  0  0  0  0  0  0  0
   38.2320   83.7260   62.0280 H   0  0  0  0  0  0  0  0  0  0  0  0
   43.7860   87.3090   58.7350 C   0  0  0  0  0  0  0  0  0  0  0  0
   44.1420   88.2740   59.1390 H   0  0  0  0  0  0  0  0  0  0  0  0
   42.8710   87.4970   58.1040 H   0  0  0  0  0  0  0  0  0  0  0  0
   44.8740   86.7030   57.9470 C   0  0  0  0  0  0  0  0  0  0  0  0
   46.0900   87.3560   57.8630 C   0  0  0  0  0  0  0  0  0  0  0  0
   46.2050   88.3120   58.3910 H   0  0  0  0  0  0  0  0  0  0  0  0
   47.2050   86.9290   57.1710 C   0  0  0  0  0  3  0  0  0  0  0  0
   47.0860   85.7360   56.5020 C   0  0  0  0  0  0  0  0  0  0  0  0
   48.1540   85.2930   55.8210 N   0  0  0  0  0  0  0  0  0  0  0  0
   48.1330   84.1310   55.1320 C   0  0  0  0  0  0  0  0  0  0  0  0
   48.9570   83.7230   54.5650 H   0  0  0  0  0  0  0  0  0  0  0  0
   46.9480   83.4310   55.1750 C   0  0  0  0  0  3  0  0  0  0  0  0
   45.8210   83.8340   55.8580 C   0  0  0  0  0  3  0  0  0  0  0  0
   45.8980   85.0390   56.5500 C   0  0  0  0  0  0  0  0  0  0  0  0
   44.8110   85.5080   57.2550 C   0  0  0  0  0  3  0  0  0  0  0  0
  1 10  1  0  0  0  0
  1  2  1  0  0  0  0
  2  6  1  0  0  0  0
  3  7  1  0  0  0  0
  3  2  2  0  0  0  0
  4  5  1  0  0  0  0
  4  3  1  0  0  0  0
  5  1  2  0  0  0  0
  8 14  1  0  0  0  0
  8 13  1  0  0  0  0
  9  8  2  0  0  0  0
 10  9  1  0  0  0  0
 10 11  2  0  0  0  0
 11 12  1  0  0  0  0
 12 13  2  0  0  0  0
 12 16  1  0  0  0  0
 15  9  1  0  0  0  0
 17 18  1  0  0  0  0
 17  4  1  0  0  0  0
 19 17  1  0  0  0  0
 20 17  1  0  0  0  0
 21 20  1  0  0  0  0
 21 22  1  0  0  0  0
 23 21  2  0  0  0  0
 24 30  1  0  0  0  0
 24 23  1  0  0  0  0
 25 24  2  0  0  0  0
 26 28  2  0  0  0  0
 26 25  1  0  0  0  0
 27 26  1  0  0  0  0
 28 29  1  0  0  0  0
 29 30  2  0  0  0  0
 30 31  1  0  0  0  0
 31 20  2  0  0  0  0
M  END
>  <minimizedAffinity>
-4.28639269

>  <minimizedRMSD>
0.553263068

$$$$
