
 OpenBabel03212520053D

 44 49  0  0  0  0  0  0  0  0999 V2000
   40.6850   81.7980   57.1000 C   0  0  0  0  0  0  0  0  0  0  0  0
   41.7760   82.3500   56.4090 C   0  0  0  0  0  0  0  0  0  0  0  0
   42.5780   83.2460   57.0990 C   0  0  0  0  0  0  0  0  0  0  0  0
   42.2980   83.5540   58.3870 N   0  0  0  0  0  0  0  0  0  0  0  0
   41.2350   82.9990   59.0270 C   0  0  0  0  0  0  0  0  0  0  0  0
   40.4200   82.1160   58.3830 N   0  0  0  0  0  0  0  0  0  0  0  0
   39.9750   81.0920   56.6970 H   0  0  0  0  0  0  0  0  0  0  0  0
   41.8170   81.9310   55.4350 H   0  0  0  0  0  0  0  0  0  0  0  0
   39.6720   83.1090   60.9070 C   0  0  0  0  0  0  0  0  0  0  0  0
   40.9700   83.3040   60.4230 C   0  0  0  0  0  0  0  0  0  0  0  0
   41.9990   83.7550   61.2530 C   0  0  0  0  0  0  0  0  0  0  0  0
   41.7710   84.0270   62.5880 C   0  0  0  0  0  0  0  0  0  0  0  0
   42.4720   84.4520   63.6500 N   0  0  0  0  0  0  0  0  0  0  0  0
   41.6850   84.5280   64.7460 C   0  0  0  0  0  0  0  0  0  0  0  0
   40.4770   84.1370   64.3210 N   0  0  0  0  0  0  0  0  0  0  0  0
   40.4890   83.8250   63.0230 C   0  0  0  0  0  0  0  0  0  0  0  0
   39.4300   83.3830   62.2590 C   0  0  0  0  0  0  0  0  0  0  0  0
   38.8680   82.7630   60.2830 H   0  0  0  0  0  0  0  0  0  0  0  0
   43.0050   83.9030   60.8740 H   0  0  0  0  0  0  0  0  0  0  0  0
   43.4900   84.6850   63.6040 H   0  0  0  0  0  0  0  0  0  0  0  0
   42.0260   84.8480   65.7310 H   0  0  0  0  0  0  0  0  0  0  0  0
   38.4380   83.2470   62.6730 H   0  0  0  0  0  0  0  0  0  0  0  0
   42.4200   83.4760   54.1280 Cl  0  0  0  0  0  0  0  0  0  0  0  0
   43.7900   84.0130   55.0870 C   0  0  0  0  0  0  0  0  0  0  0  0
   43.7110   83.8600   56.4460 C   0  0  0  0  0  0  0  0  0  0  0  0
   44.8220   84.3440   57.1350 C   0  0  0  0  0  0  0  0  0  0  0  0
   45.9130   84.9270   56.5350 C   0  0  0  0  0  0  0  0  0  0  0  0
   45.9220   85.0480   55.1430 C   0  0  0  0  0  0  0  0  0  0  0  0
   47.2870   85.7820   54.3480 Cl  0  0  0  0  0  0  0  0  0  0  0  0
   44.8430   84.5820   54.4160 C   0  0  0  0  0  0  0  0  0  0  0  0
   44.8460   84.2660   58.2110 H   0  0  0  0  0  0  0  0  0  0  0  0
   46.7370   85.2790   57.1400 H   0  0  0  0  0  0  0  0  0  0  0  0
   44.8960   84.7280   52.9650 C   0  0  0  0  0  0  0  0  0  0  0  0
   45.3690   83.8610   52.0340 C   0  0  0  0  0  0  0  0  0  0  0  0
   45.7520   82.9500   52.4290 H   0  0  0  0  0  0  0  0  0  0  0  0
   45.3190   84.2120   50.6810 C   0  0  0  0  0  3  0  0  0  0  0  0
   44.7960   85.4300   50.2720 C   0  0  0  0  0  0  0  0  0  0  0  0
   44.7570   85.7520   48.9580 N   0  0  0  0  0  0  0  0  0  0  0  0
   44.2440   86.9440   48.5950 C   0  0  0  0  0  0  0  0  0  0  0  0
   44.2200   87.1890   47.5240 H   0  0  0  0  0  0  0  0  0  0  0  0
   43.7430   87.8840   49.4730 C   0  0  0  0  0  3  0  0  0  0  0  0
   43.7930   87.5340   50.8060 C   0  0  0  0  0  3  0  0  0  0  0  0
   44.3150   86.3140   51.2310 C   0  0  0  0  0  0  0  0  0  0  0  0
   44.3640   85.9630   52.5780 C   0  0  0  0  0  3  0  0  0  0  0  0
  1  6  1  0  0  0  0
  2  3  1  0  0  0  0
  2  1  2  0  0  0  0
  3  4  2  0  0  0  0
  4  5  1  0  0  0  0
  5 10  1  0  0  0  0
  6  5  2  0  0  0  0
  7  1  1  0  0  0  0
  8  2  1  0  0  0  0
  9 17  1  0  0  0  0
 10  9  2  0  0  0  0
 10 11  1  0  0  0  0
 11 12  2  0  0  0  0
 12 16  1  0  0  0  0
 12 13  1  0  0  0  0
 13 14  1  0  0  0  0
 14 21  1  0  0  0  0
 15 14  2  0  0  0  0
 16 15  1  0  0  0  0
 17 22  1  0  0  0  0
 17 16  2  0  0  0  0
 18  9  1  0  0  0  0
 19 11  1  0  0  0  0
 20 13  1  0  0  0  0
 23 24  1  0  0  0  0
 24 25  1  0  0  0  0
 25  3  1  0  0  0  0
 25 26  2  0  0  0  0
 26 31  1  0  0  0  0
 27 26  1  0  0  0  0
 27 32  1  0  0  0  0
 28 27  2  0  0  0  0
 29 28  1  0  0  0  0
 30 24  2  0  0  0  0
 30 28  1  0  0  0  0
 33 30  1  0  0  0  0
 34 35  1  0  0  0  0
 34 33  2  0  0  0  0
 36 34  1  0  0  0  0
 37 36  2  0  0  0  0
 37 43  1  0  0  0  0
 38 37  1  0  0  0  0
 39 38  2  0  0  0  0
 39 41  1  0  0  0  0
 40 39  1  0  0  0  0
 41 42  2  0  0  0  0
 42 43  1  0  0  0  0
 43 44  2  0  0  0  0
 44 33  1  0  0  0  0
M  END
>  <minimizedAffinity>
-5.26834679

>  <minimizedRMSD>
0.494680822

$$$$
