
 OpenBabel03212520203D

 39 42  0  0  0  0  0  0  0  0999 V2000
   43.1630   83.9780   58.6930 Cl  0  0  0  0  0  0  0  0  0  0  0  0
   41.9400   82.8030   58.2760 C   0  0  0  0  0  0  0  0  0  0  0  0
   41.0440   82.2740   59.2040 C   0  0  0  0  0  0  0  0  0  0  0  0
   40.1310   81.3490   58.7220 C   0  0  0  0  0  0  0  0  0  0  0  0
   40.0200   80.9040   57.4270 C   0  0  0  0  0  0  0  0  0  0  0  0
   40.9120   81.4420   56.5440 C   0  0  0  0  0  0  0  0  0  0  0  0
   40.8970   80.9720   54.8480 Cl  0  0  0  0  0  0  0  0  0  0  0  0
   41.8630   82.3820   56.9660 C   0  0  0  0  0  0  0  0  0  0  0  0
   39.4640   80.9790   59.4980 H   0  0  0  0  0  0  0  0  0  0  0  0
   39.2830   80.1850   57.1340 H   0  0  0  0  0  0  0  0  0  0  0  0
   41.9450   82.1800   61.5810 C   0  0  0  0  0  0  0  0  0  0  0  0
   41.1240   82.7070   60.5540 C   0  0  0  0  0  0  0  0  0  0  0  0
   40.2940   83.7730   60.8930 C   0  0  0  0  0  0  0  0  0  0  0  0
   40.3480   84.2120   62.1880 N   0  0  0  0  0  0  0  0  0  0  0  0
   41.1330   83.6920   63.1280 C   0  0  0  0  0  0  0  0  0  0  0  0
   41.9480   82.6550   62.8200 N   0  0  0  0  0  0  0  0  0  0  0  0
   42.5720   81.3530   61.2690 H   0  0  0  0  0  0  0  0  0  0  0  0
   39.6240   84.2550   60.1900 H   0  0  0  0  0  0  0  0  0  0  0  0
   41.0250   84.3320   64.4680 C   0  0  0  0  0  0  0  0  0  0  0  0
   40.6630   85.6580   64.3930 F   0  0  0  0  0  0  0  0  0  0  0  0
   40.0830   83.6530   65.2410 F   0  0  0  0  0  0  0  0  0  0  0  0
   42.2740   84.3080   65.1240 F   0  0  0  0  0  0  0  0  0  0  0  0
   42.7470   82.9000   56.0340 O   0  0  0  0  0  0  0  0  0  0  0  0
   42.4760   83.9580   55.1750 C   0  0  0  0  0  0  0  0  0  0  0  0
   42.4420   83.6660   54.1060 H   0  0  0  0  0  0  0  0  0  0  0  0
   41.5280   84.4960   55.3780 H   0  0  0  0  0  0  0  0  0  0  0  0
   43.5130   84.9030   55.2830 O   0  0  0  0  0  0  0  0  0  0  0  0
   44.8470   84.6330   55.4780 C   0  0  0  0  0  0  0  0  0  0  0  0
   45.6940   83.7910   54.7950 C   0  0  0  0  0  0  0  0  0  0  0  0
   45.2040   83.2780   53.9840 H   0  0  0  0  0  0  0  0  0  0  0  0
   47.0030   83.6350   55.1200 C   0  0  0  0  0  3  0  0  0  0  0  0
   47.4860   84.3760   56.2040 C   0  0  0  0  0  0  0  0  0  0  0  0
   48.7990   84.2280   56.5400 N   0  0  0  0  0  0  0  0  0  0  0  0
   49.3600   84.8950   57.5650 C   0  0  0  0  0  0  0  0  0  0  0  0
   50.4060   84.7820   57.8380 H   0  0  0  0  0  0  0  0  0  0  0  0
   48.5740   85.7690   58.3110 C   0  0  0  0  0  3  0  0  0  0  0  0
   47.2410   85.9330   57.9880 C   0  0  0  0  0  3  0  0  0  0  0  0
   46.6920   85.2380   56.9330 C   0  0  0  0  0  0  0  0  0  0  0  0
   45.3480   85.3660   56.5610 C   0  0  0  0  0  3  0  0  0  0  0  0
  2  1  1  0  0  0  0
  2  3  1  0  0  0  0
  3 12  1  0  0  0  0
  4  3  2  0  0  0  0
  4  9  1  0  0  0  0
  5  4  1  0  0  0  0
  6  8  1  0  0  0  0
  6  5  2  0  0  0  0
  7  6  1  0  0  0  0
  8  2  2  0  0  0  0
 10  5  1  0  0  0  0
 11 16  1  0  0  0  0
 12 13  1  0  0  0  0
 12 11  2  0  0  0  0
 13 14  2  0  0  0  0
 14 15  1  0  0  0  0
 15 19  1  0  0  0  0
 16 15  2  0  0  0  0
 17 11  1  0  0  0  0
 18 13  1  0  0  0  0
 19 22  1  0  0  0  0
 19 21  1  0  0  0  0
 20 19  1  0  0  0  0
 23  8  1  0  0  0  0
 24 27  1  0  0  0  0
 24 26  1  0  0  0  0
 24 23  1  0  0  0  0
 25 24  1  0  0  0  0
 27 28  1  0  0  0  0
 28 39  1  0  0  0  0
 29 31  1  0  0  0  0
 29 28  2  0  0  0  0
 30 29  1  0  0  0  0
 31 32  2  0  0  0  0
 32 33  1  0  0  0  0
 32 38  1  0  0  0  0
 33 34  2  0  0  0  0
 34 35  1  0  0  0  0
 34 36  1  0  0  0  0
 37 36  2  0  0  0  0
 38 37  1  0  0  0  0
 39 38  2  0  0  0  0
M  END
>  <minimizedAffinity>
-5.02022076

>  <minimizedRMSD>
1.02653623

$$$$
