
 OpenBabel03212520053D

 44 49  0  0  0  0  0  0  0  0999 V2000
   40.7240   81.7600   57.1280 C   0  0  0  0  0  0  0  0  0  0  0  0
   41.8170   82.3120   56.4400 C   0  0  0  0  0  0  0  0  0  0  0  0
   42.6110   83.2150   57.1300 C   0  0  0  0  0  0  0  0  0  0  0  0
   42.3210   83.5300   58.4140 N   0  0  0  0  0  0  0  0  0  0  0  0
   41.2560   82.9740   59.0510 C   0  0  0  0  0  0  0  0  0  0  0  0
   40.4490   82.0840   58.4070 N   0  0  0  0  0  0  0  0  0  0  0  0
   40.0190   81.0490   56.7250 H   0  0  0  0  0  0  0  0  0  0  0  0
   41.8650   81.8870   55.4690 H   0  0  0  0  0  0  0  0  0  0  0  0
   39.6790   83.0970   60.9180 C   0  0  0  0  0  0  0  0  0  0  0  0
   40.9820   83.2870   60.4440 C   0  0  0  0  0  0  0  0  0  0  0  0
   42.0050   83.7410   61.2790 C   0  0  0  0  0  0  0  0  0  0  0  0
   41.7680   84.0200   62.6100 C   0  0  0  0  0  0  0  0  0  0  0  0
   42.4610   84.4500   63.6760 N   0  0  0  0  0  0  0  0  0  0  0  0
   41.6660   84.5330   64.7660 C   0  0  0  0  0  0  0  0  0  0  0  0
   40.4610   84.1400   64.3330 N   0  0  0  0  0  0  0  0  0  0  0  0
   40.4820   83.8220   63.0370 C   0  0  0  0  0  0  0  0  0  0  0  0
   39.4280   83.3770   62.2680 C   0  0  0  0  0  0  0  0  0  0  0  0
   38.8800   82.7480   60.2900 H   0  0  0  0  0  0  0  0  0  0  0  0
   43.0140   83.8860   60.9070 H   0  0  0  0  0  0  0  0  0  0  0  0
   43.4800   84.6810   63.6360 H   0  0  0  0  0  0  0  0  0  0  0  0
   42.0000   84.8570   65.7510 H   0  0  0  0  0  0  0  0  0  0  0  0
   38.4330   83.2440   62.6750 H   0  0  0  0  0  0  0  0  0  0  0  0
   42.3450   83.7020   54.1980 Cl  0  0  0  0  0  0  0  0  0  0  0  0
   43.7770   84.0930   55.1370 C   0  0  0  0  0  0  0  0  0  0  0  0
   43.7450   83.8290   56.4810 C   0  0  0  0  0  0  0  0  0  0  0  0
   44.9060   84.2020   57.1570 C   0  0  0  0  0  0  0  0  0  0  0  0
   45.9990   84.7840   56.5600 C   0  0  0  0  0  0  0  0  0  0  0  0
   45.9590   85.0200   55.1840 C   0  0  0  0  0  0  0  0  0  0  0  0
   47.3250   85.7560   54.3920 Cl  0  0  0  0  0  0  0  0  0  0  0  0
   44.8300   84.6680   54.4690 C   0  0  0  0  0  0  0  0  0  0  0  0
   44.9690   84.0320   58.2220 H   0  0  0  0  0  0  0  0  0  0  0  0
   46.8640   85.0450   57.1550 H   0  0  0  0  0  0  0  0  0  0  0  0
   44.8310   84.9340   53.0340 C   0  0  0  0  0  0  0  0  0  0  0  0
   44.4530   86.0560   52.3710 C   0  0  0  0  0  0  0  0  0  0  0  0
   44.1080   86.8460   52.9960 H   0  0  0  0  0  0  0  0  0  0  0  0
   44.5400   86.0910   50.9760 C   0  0  0  0  0  3  0  0  0  0  0  0
   45.0050   85.0020   50.2570 C   0  0  0  0  0  0  0  0  0  0  0  0
   45.0830   85.0540   48.9050 N   0  0  0  0  0  0  0  0  0  0  0  0
   45.5400   83.9770   48.2360 C   0  0  0  0  0  0  0  0  0  0  0  0
   45.5960   84.0380   47.1410 H   0  0  0  0  0  0  0  0  0  0  0  0
   45.9460   82.7990   48.8290 C   0  0  0  0  0  3  0  0  0  0  0  0
   45.8580   82.7670   50.2050 C   0  0  0  0  0  3  0  0  0  0  0  0
   45.3920   83.8550   50.9410 C   0  0  0  0  0  0  0  0  0  0  0  0
   45.3060   83.8210   52.3300 C   0  0  0  0  0  3  0  0  0  0  0  0
  1  6  1  0  0  0  0
  2  1  2  0  0  0  0
  2  3  1  0  0  0  0
  3  4  2  0  0  0  0
  4  5  1  0  0  0  0
  5 10  1  0  0  0  0
  6  5  2  0  0  0  0
  7  1  1  0  0  0  0
  8  2  1  0  0  0  0
  9 17  1  0  0  0  0
 10  9  2  0  0  0  0
 10 11  1  0  0  0  0
 11 12  2  0  0  0  0
 12 16  1  0  0  0  0
 12 13  1  0  0  0  0
 13 14  1  0  0  0  0
 14 21  1  0  0  0  0
 15 14  2  0  0  0  0
 16 15  1  0  0  0  0
 17 22  1  0  0  0  0
 17 16  2  0  0  0  0
 18  9  1  0  0  0  0
 19 11  1  0  0  0  0
 20 13  1  0  0  0  0
 23 24  1  0  0  0  0
 24 25  1  0  0  0  0
 25  3  1  0  0  0  0
 25 26  2  0  0  0  0
 26 31  1  0  0  0  0
 27 32  1  0  0  0  0
 27 26  1  0  0  0  0
 28 27  2  0  0  0  0
 29 28  1  0  0  0  0
 30 24  2  0  0  0  0
 30 28  1  0  0  0  0
 33 30  1  0  0  0  0
 34 35  1  0  0  0  0
 34 33  1  0  0  0  0
 36 34  2  0  0  0  0
 37 43  1  0  0  0  0
 37 36  1  0  0  0  0
 38 37  2  0  0  0  0
 39 41  2  0  0  0  0
 39 38  1  0  0  0  0
 40 39  1  0  0  0  0
 41 42  1  0  0  0  0
 42 43  2  0  0  0  0
 43 44  1  0  0  0  0
 44 33  2  0  0  0  0
M  END
>  <minimizedAffinity>
-5.08277559

>  <minimizedRMSD>
1.23942292

$$$$
