
 OpenBabel03212520053D

 44 49  0  0  0  0  0  0  0  0999 V2000
   40.6850   81.7990   57.0990 C   0  0  0  0  0  0  0  0  0  0  0  0
   41.7760   82.3510   56.4080 C   0  0  0  0  0  0  0  0  0  0  0  0
   42.5780   83.2460   57.0980 C   0  0  0  0  0  0  0  0  0  0  0  0
   42.2980   83.5550   58.3860 N   0  0  0  0  0  0  0  0  0  0  0  0
   41.2350   82.9990   59.0270 C   0  0  0  0  0  0  0  0  0  0  0  0
   40.4200   82.1170   58.3820 N   0  0  0  0  0  0  0  0  0  0  0  0
   39.9750   81.0940   56.6960 H   0  0  0  0  0  0  0  0  0  0  0  0
   41.8170   81.9320   55.4340 H   0  0  0  0  0  0  0  0  0  0  0  0
   39.6720   83.1100   60.9060 C   0  0  0  0  0  0  0  0  0  0  0  0
   40.9700   83.3040   60.4230 C   0  0  0  0  0  0  0  0  0  0  0  0
   41.9990   83.7550   61.2530 C   0  0  0  0  0  0  0  0  0  0  0  0
   41.7710   84.0270   62.5870 C   0  0  0  0  0  0  0  0  0  0  0  0
   42.4720   84.4520   63.6500 N   0  0  0  0  0  0  0  0  0  0  0  0
   41.6850   84.5280   64.7460 C   0  0  0  0  0  0  0  0  0  0  0  0
   40.4770   84.1360   64.3210 N   0  0  0  0  0  0  0  0  0  0  0  0
   40.4890   83.8250   63.0220 C   0  0  0  0  0  0  0  0  0  0  0  0
   39.4300   83.3830   62.2590 C   0  0  0  0  0  0  0  0  0  0  0  0
   38.8680   82.7640   60.2820 H   0  0  0  0  0  0  0  0  0  0  0  0
   43.0050   83.9040   60.8740 H   0  0  0  0  0  0  0  0  0  0  0  0
   43.4900   84.6850   63.6040 H   0  0  0  0  0  0  0  0  0  0  0  0
   42.0250   84.8480   65.7300 H   0  0  0  0  0  0  0  0  0  0  0  0
   38.4380   83.2460   62.6730 H   0  0  0  0  0  0  0  0  0  0  0  0
   42.4210   83.4770   54.1280 Cl  0  0  0  0  0  0  0  0  0  0  0  0
   43.7900   84.0140   55.0870 C   0  0  0  0  0  0  0  0  0  0  0  0
   43.7110   83.8600   56.4460 C   0  0  0  0  0  0  0  0  0  0  0  0
   44.8220   84.3450   57.1350 C   0  0  0  0  0  0  0  0  0  0  0  0
   45.9130   84.9280   56.5350 C   0  0  0  0  0  0  0  0  0  0  0  0
   45.9230   85.0480   55.1430 C   0  0  0  0  0  0  0  0  0  0  0  0
   47.2880   85.7820   54.3480 Cl  0  0  0  0  0  0  0  0  0  0  0  0
   44.8440   84.5830   54.4160 C   0  0  0  0  0  0  0  0  0  0  0  0
   44.8460   84.2660   58.2110 H   0  0  0  0  0  0  0  0  0  0  0  0
   46.7380   85.2800   57.1400 H   0  0  0  0  0  0  0  0  0  0  0  0
   44.8970   84.7290   52.9650 C   0  0  0  0  0  0  0  0  0  0  0  0
   45.3690   83.8620   52.0330 C   0  0  0  0  0  0  0  0  0  0  0  0
   45.7530   82.9510   52.4290 H   0  0  0  0  0  0  0  0  0  0  0  0
   45.3200   84.2130   50.6810 C   0  0  0  0  0  3  0  0  0  0  0  0
   44.7980   85.4300   50.2730 C   0  0  0  0  0  0  0  0  0  0  0  0
   44.7590   85.7540   48.9580 N   0  0  0  0  0  0  0  0  0  0  0  0
   44.2440   86.9450   48.5960 C   0  0  0  0  0  0  0  0  0  0  0  0
   44.2210   87.1900   47.5240 H   0  0  0  0  0  0  0  0  0  0  0  0
   43.7430   87.8850   49.4730 C   0  0  0  0  0  3  0  0  0  0  0  0
   43.7920   87.5350   50.8070 C   0  0  0  0  0  3  0  0  0  0  0  0
   44.3150   86.3150   51.2320 C   0  0  0  0  0  0  0  0  0  0  0  0
   44.3640   85.9640   52.5780 C   0  0  0  0  0  3  0  0  0  0  0  0
  1  6  1  0  0  0  0
  2  3  1  0  0  0  0
  2  1  2  0  0  0  0
  3  4  2  0  0  0  0
  4  5  1  0  0  0  0
  5 10  1  0  0  0  0
  6  5  2  0  0  0  0
  7  1  1  0  0  0  0
  8  2  1  0  0  0  0
  9 17  1  0  0  0  0
 10  9  2  0  0  0  0
 10 11  1  0  0  0  0
 11 12  2  0  0  0  0
 12 16  1  0  0  0  0
 12 13  1  0  0  0  0
 13 14  1  0  0  0  0
 14 21  1  0  0  0  0
 15 14  2  0  0  0  0
 16 15  1  0  0  0  0
 17 22  1  0  0  0  0
 17 16  2  0  0  0  0
 18  9  1  0  0  0  0
 19 11  1  0  0  0  0
 20 13  1  0  0  0  0
 23 24  1  0  0  0  0
 24 25  1  0  0  0  0
 25  3  1  0  0  0  0
 25 26  2  0  0  0  0
 26 31  1  0  0  0  0
 27 26  1  0  0  0  0
 27 32  1  0  0  0  0
 28 27  2  0  0  0  0
 29 28  1  0  0  0  0
 30 24  2  0  0  0  0
 30 28  1  0  0  0  0
 33 30  1  0  0  0  0
 34 35  1  0  0  0  0
 34 33  2  0  0  0  0
 36 34  1  0  0  0  0
 37 36  2  0  0  0  0
 37 43  1  0  0  0  0
 38 37  1  0  0  0  0
 39 38  2  0  0  0  0
 39 41  1  0  0  0  0
 40 39  1  0  0  0  0
 41 42  2  0  0  0  0
 42 43  1  0  0  0  0
 43 44  2  0  0  0  0
 44 33  1  0  0  0  0
M  END
>  <minimizedAffinity>
-5.26876211

>  <minimizedRMSD>
0.882361352

$$$$
