
 OpenBabel03212520273D

 31 34  0  0  0  0  0  0  0  0999 V2000
   42.3760   84.8690   60.8910 C   0  0  0  0  0  0  0  0  0  0  0  0
   43.4400   85.2670   61.6880 C   0  0  0  0  0  0  0  0  0  0  0  0
   44.0480   86.2360   60.8670 C   0  0  0  0  0  0  0  0  0  0  0  0
   43.3850   86.3700   59.7060 N   0  0  0  0  0  0  0  0  0  0  0  0
   42.3640   85.5250   59.7400 N   0  0  0  0  0  0  0  0  0  0  0  0
   43.7610   84.9570   62.6730 H   0  0  0  0  0  0  0  0  0  0  0  0
   44.9500   86.7890   61.1700 H   0  0  0  0  0  0  0  0  0  0  0  0
   40.7940   81.6170   61.7920 C   0  0  0  0  0  0  0  0  0  0  0  0
   41.7810   82.5310   61.4120 C   0  0  0  0  0  0  0  0  0  0  0  0
   41.4060   83.8580   61.2820 C   0  0  0  0  0  0  0  0  0  0  0  0
   40.1100   84.2240   61.5240 N   0  0  0  0  0  0  0  0  0  0  0  0
   39.1940   83.2870   61.8910 C   0  0  0  0  0  0  0  0  0  0  0  0
   39.5400   82.0010   62.0210 N   0  0  0  0  0  0  0  0  0  0  0  0
   41.0120   80.5740   61.9120 H   0  0  0  0  0  0  0  0  0  0  0  0
   42.7930   82.1940   61.2320 H   0  0  0  0  0  0  0  0  0  0  0  0
   38.2240   83.7260   62.0450 H   0  0  0  0  0  0  0  0  0  0  0  0
   43.7390   87.2790   58.6300 C   0  0  0  0  0  0  0  0  0  0  0  0
   43.9820   88.2890   59.0050 H   0  0  0  0  0  0  0  0  0  0  0  0
   42.8590   87.3540   57.9290 H   0  0  0  0  0  0  0  0  0  0  0  0
   44.9280   86.7350   57.9500 C   0  0  0  0  0  0  0  0  0  0  0  0
   44.8300   85.5280   57.2820 C   0  0  0  0  0  0  0  0  0  0  0  0
   43.8600   85.0120   57.2810 H   0  0  0  0  0  0  0  0  0  0  0  0
   45.8400   84.8820   56.5970 C   0  0  0  0  0  3  0  0  0  0  0  0
   47.0610   85.5090   56.5850 C   0  0  0  0  0  0  0  0  0  0  0  0
   48.0650   84.9070   55.9290 N   0  0  0  0  0  0  0  0  0  0  0  0
   49.3020   85.4440   55.8600 C   0  0  0  0  0  0  0  0  0  0  0  0
   50.1480   85.0080   55.3480 H   0  0  0  0  0  0  0  0  0  0  0  0
   49.4680   86.6480   56.5060 C   0  0  0  0  0  3  0  0  0  0  0  0
   48.4760   87.3130   57.1960 C   0  0  0  0  0  3  0  0  0  0  0  0
   47.2210   86.7150   57.2340 C   0  0  0  0  0  0  0  0  0  0  0  0
   46.1800   87.3200   57.9040 C   0  0  0  0  0  3  0  0  0  0  0  0
  1 10  1  0  0  0  0
  1  2  1  0  0  0  0
  2  6  1  0  0  0  0
  3  7  1  0  0  0  0
  3  2  2  0  0  0  0
  4  5  1  0  0  0  0
  4  3  1  0  0  0  0
  5  1  2  0  0  0  0
  8 14  1  0  0  0  0
  8 13  1  0  0  0  0
  9  8  2  0  0  0  0
 10  9  1  0  0  0  0
 10 11  2  0  0  0  0
 11 12  1  0  0  0  0
 12 13  2  0  0  0  0
 12 16  1  0  0  0  0
 15  9  1  0  0  0  0
 17 18  1  0  0  0  0
 17  4  1  0  0  0  0
 19 17  1  0  0  0  0
 20 17  1  0  0  0  0
 21 20  2  0  0  0  0
 22 21  1  0  0  0  0
 23 21  1  0  0  0  0
 24 23  2  0  0  0  0
 24 30  1  0  0  0  0
 25 24  1  0  0  0  0
 26 25  2  0  0  0  0
 26 28  1  0  0  0  0
 27 26  1  0  0  0  0
 28 29  2  0  0  0  0
 29 30  1  0  0  0  0
 30 31  2  0  0  0  0
 31 20  1  0  0  0  0
M  END
>  <minimizedAffinity>
-4.30318117

>  <minimizedRMSD>
0.56492126

$$$$
