
 OpenBabel03212521003D

 45 50  0  0  1  0  0  0  0  0999 V2000
   39.9760   77.6100   59.0970 C   0  0  0  0  0  0  0  0  0  0  0  0
   40.8280   76.6310   58.6590 C   0  0  0  0  0  0  0  0  0  0  0  0
   40.3130   75.9240   57.5570 C   0  0  0  0  0  0  0  0  0  0  0  0
   39.1210   76.1690   56.9870 N   0  0  0  0  0  0  0  0  0  0  0  0
   38.3430   77.1710   57.4990 C   0  0  0  0  0  0  0  0  0  0  0  0
   38.7900   77.8760   58.5520 N   0  0  0  0  0  0  0  0  0  0  0  0
   41.7870   76.4010   59.0840 H   0  0  0  0  0  0  0  0  0  0  0  0
   40.9300   75.1140   57.1360 H   0  0  0  0  0  0  0  0  0  0  0  0
   41.0000   80.4940   61.7760 C   0  0  0  0  0  0  0  0  0  0  0  0
   40.9920   79.2430   62.3320 C   0  0  0  0  0  0  0  0  0  0  0  0
   40.6730   78.1950   61.5560 C   0  0  0  0  0  0  0  0  0  0  0  0
   40.3620   78.4220   60.2190 C   0  0  0  0  0  0  0  0  0  0  0  0
   40.5330   80.2500   60.0360 S   0  0  0  0  0  0  0  0  0  0  0  0
   41.2350   79.0670   63.3910 H   0  0  0  0  0  0  0  0  0  0  0  0
   40.6120   77.1440   61.8050 H   0  0  0  0  0  0  0  0  0  0  0  0
   42.9600   83.3130   63.0700 C   0  0  0  0  0  0  0  0  0  0  0  0
   42.0300   84.0140   63.8520 C   0  0  0  0  0  0  0  0  0  0  0  0
   40.7190   83.5230   63.9410 C   0  0  0  0  0  0  0  0  0  0  0  0
   40.4270   82.3940   63.2610 N   0  0  0  0  0  0  0  0  0  0  0  0
   41.3420   81.7390   62.5160 C   0  0  0  0  0  0  0  0  0  0  0  0
   42.5920   82.1970   62.4250 N   0  0  0  0  0  0  0  0  0  0  0  0
   43.9840   83.6700   62.9840 H   0  0  0  0  0  0  0  0  0  0  0  0
   42.2870   84.9160   64.3850 H   0  0  0  0  0  0  0  0  0  0  0  0
   39.9420   83.9990   64.5200 H   0  0  0  0  0  0  0  0  0  0  0  0
   37.0650   77.4210   56.8650 C   0  0  0  0  0  0  0  0  0  0  0  0
   36.0700   76.8540   57.3520 O   0  0  0  0  0  0  0  0  0  0  0  0
   36.9280   78.3210   55.6550 C   0  0  1  0  0  0  0  0  0  0  0  0
   37.3290   79.7480   55.9600 C   0  0  0  0  0  0  0  0  0  0  0  0
   38.1050   78.8680   55.0340 C   0  0  2  0  0  0  0  0  0  0  0  0
   35.8850   78.2840   55.2390 H   0  0  0  0  0  0  0  0  0  0  0  0
   37.7000   79.9960   56.9640 H   0  0  0  0  0  0  0  0  0  0  0  0
   36.7060   80.5440   55.5270 H   0  0  0  0  0  0  0  0  0  0  0  0
   39.0860   78.5550   55.4860 H   0  0  0  0  0  0  0  0  0  0  0  0
   38.2350   79.3880   53.6740 C   0  0  0  0  0  0  0  0  0  0  0  0
   39.5360   79.6390   53.2750 C   0  0  0  0  0  0  0  0  0  0  0  0
   40.4050   79.4550   53.9300 H   0  0  0  0  0  0  0  0  0  0  0  0
   39.8910   80.1390   52.0290 C   0  0  0  0  0  3  0  0  0  0  0  0
   38.8170   80.3730   51.1960 C   0  0  0  0  0  0  0  0  0  0  0  0
   39.1340   80.8740   49.9670 N   0  0  0  0  0  0  0  0  0  0  0  0
   38.1690   81.1520   49.0660 C   0  0  0  0  0  0  0  0  0  0  0  0
   38.4650   81.5480   48.1030 H   0  0  0  0  0  0  0  0  0  0  0  0
   36.8150   80.9380   49.3550 C   0  0  0  0  0  3  0  0  0  0  0  0
   36.4690   80.4240   50.6100 C   0  0  0  0  0  3  0  0  0  0  0  0
   37.4870   80.1600   51.4870 C   0  0  0  0  0  0  0  0  0  0  0  0
   37.2170   79.6570   52.7600 C   0  0  0  0  0  3  0  0  0  0  0  0
  1 12  1  0  0  0  0
  2  7  1  0  0  0  0
  2  1  1  0  0  0  0
  3  2  2  0  0  0  0
  4  5  2  0  0  0  0
  4  3  1  0  0  0  0
  5  6  1  0  0  0  0
  6  1  2  0  0  0  0
  8  3  1  0  0  0  0
  9 10  2  0  0  0  0
  9 20  1  0  0  0  0
 10 14  1  0  0  0  0
 11 15  1  0  0  0  0
 11 10  1  0  0  0  0
 12 11  2  0  0  0  0
 13 12  1  0  0  0  0
 13  9  1  0  0  0  0
 16 17  1  0  0  0  0
 17 18  2  0  0  0  0
 17 23  1  0  0  0  0
 18 24  1  0  0  0  0
 19 18  1  0  0  0  0
 20 19  2  0  0  0  0
 21 20  1  0  0  0  0
 21 16  2  0  0  0  0
 22 16  1  0  0  0  0
 25 26  2  0  0  0  0
 25  5  1  0  0  0  0
 27 30  1  6  0  0  0
 27 28  1  0  0  0  0
 27 25  1  0  0  0  0
 28 31  1  0  0  0  0
 29 33  1  1  0  0  0
 29 27  1  0  0  0  0
 29 28  1  0  0  0  0
 32 28  1  0  0  0  0
 34 29  1  0  0  0  0
 35 34  1  0  0  0  0
 35 36  1  0  0  0  0
 37 35  2  0  0  0  0
 38 44  1  0  0  0  0
 38 37  1  0  0  0  0
 39 38  2  0  0  0  0
 40 42  2  0  0  0  0
 40 39  1  0  0  0  0
 41 40  1  0  0  0  0
 42 43  1  0  0  0  0
 43 44  2  0  0  0  0
 44 45  1  0  0  0  0
 45 34  2  0  0  0  0
M  END
>  <minimizedAffinity>
-7.18968296

>  <minimizedRMSD>
1.10721004

$$$$
