
 OpenBabel03212521003D

 45 50  0  0  1  0  0  0  0  0999 V2000
   39.6200   77.0830   59.1780 C   0  0  0  0  0  0  0  0  0  0  0  0
   40.2600   75.8950   58.9430 C   0  0  0  0  0  0  0  0  0  0  0  0
   39.6740   75.1680   57.8910 C   0  0  0  0  0  0  0  0  0  0  0  0
   38.6070   75.5790   57.1860 N   0  0  0  0  0  0  0  0  0  0  0  0
   38.0390   76.7840   57.4970 C   0  0  0  0  0  0  0  0  0  0  0  0
   38.5620   77.5170   58.4950 N   0  0  0  0  0  0  0  0  0  0  0  0
   41.1140   75.5280   59.4810 H   0  0  0  0  0  0  0  0  0  0  0  0
   40.1220   74.1960   57.6310 H   0  0  0  0  0  0  0  0  0  0  0  0
   40.9200   80.0720   61.6120 C   0  0  0  0  0  0  0  0  0  0  0  0
   40.8800   78.8590   62.2470 C   0  0  0  0  0  0  0  0  0  0  0  0
   40.4710   77.7830   61.5570 C   0  0  0  0  0  0  0  0  0  0  0  0
   40.1030   77.9420   60.2250 C   0  0  0  0  0  0  0  0  0  0  0  0
   40.3530   79.7440   59.9160 S   0  0  0  0  0  0  0  0  0  0  0  0
   41.1680   78.7370   63.3020 H   0  0  0  0  0  0  0  0  0  0  0  0
   40.3720   76.7540   61.8760 H   0  0  0  0  0  0  0  0  0  0  0  0
   43.0800   82.8570   62.6300 C   0  0  0  0  0  0  0  0  0  0  0  0
   42.2250   83.6550   63.4040 C   0  0  0  0  0  0  0  0  0  0  0  0
   40.8970   83.2430   63.5830 C   0  0  0  0  0  0  0  0  0  0  0  0
   40.5160   82.0890   62.9930 N   0  0  0  0  0  0  0  0  0  0  0  0
   41.3600   81.3400   62.2530 C   0  0  0  0  0  0  0  0  0  0  0  0
   42.6260   81.7240   62.0770 N   0  0  0  0  0  0  0  0  0  0  0  0
   44.1170   83.1510   62.4760 H   0  0  0  0  0  0  0  0  0  0  0  0
   42.5530   84.5730   63.8650 H   0  0  0  0  0  0  0  0  0  0  0  0
   40.1730   83.7950   64.1630 H   0  0  0  0  0  0  0  0  0  0  0  0
   36.8940   77.2080   56.7200 C   0  0  0  0  0  0  0  0  0  0  0  0
   35.7850   77.1910   57.2870 O   0  0  0  0  0  0  0  0  0  0  0  0
   37.0170   77.6470   55.2760 C   0  0  1  0  0  0  0  0  0  0  0  0
   37.3910   79.1080   55.1570 C   0  0  0  0  0  0  0  0  0  0  0  0
   38.3060   78.0000   54.7440 C   0  0  2  0  0  0  0  0  0  0  0  0
   36.0720   77.4340   54.7060 H   0  0  0  0  0  0  0  0  0  0  0  0
   37.5690   79.6920   56.0710 H   0  0  0  0  0  0  0  0  0  0  0  0
   36.8860   79.6900   54.3720 H   0  0  0  0  0  0  0  0  0  0  0  0
   39.1730   77.8940   55.4530 H   0  0  0  0  0  0  0  0  0  0  0  0
   38.7090   78.0420   53.3390 C   0  0  0  0  0  0  0  0  0  0  0  0
   38.4870   79.2550   52.7130 C   0  0  0  0  0  0  0  0  0  0  0  0
   38.0460   80.1230   53.2330 H   0  0  0  0  0  0  0  0  0  0  0  0
   38.7900   79.5180   51.3840 C   0  0  0  0  0  3  0  0  0  0  0  0
   39.3440   78.4450   50.7160 C   0  0  0  0  0  0  0  0  0  0  0  0
   39.6430   78.6690   49.4030 N   0  0  0  0  0  0  0  0  0  0  0  0
   40.1830   77.6940   48.6440 C   0  0  0  0  0  0  0  0  0  0  0  0
   40.4050   77.9150   47.6070 H   0  0  0  0  0  0  0  0  0  0  0  0
   40.4550   76.4240   49.1690 C   0  0  0  0  0  3  0  0  0  0  0  0
   40.1550   76.1730   50.5110 C   0  0  0  0  0  3  0  0  0  0  0  0
   39.6100   77.1970   51.2390 C   0  0  0  0  0  0  0  0  0  0  0  0
   39.2760   77.0180   52.5810 C   0  0  0  0  0  3  0  0  0  0  0  0
  1 12  1  0  0  0  0
  2  1  1  0  0  0  0
  2  7  1  0  0  0  0
  3  2  2  0  0  0  0
  4  5  2  0  0  0  0
  4  3  1  0  0  0  0
  5  6  1  0  0  0  0
  6  1  2  0  0  0  0
  8  3  1  0  0  0  0
  9 10  2  0  0  0  0
  9 20  1  0  0  0  0
 10 14  1  0  0  0  0
 11 15  1  0  0  0  0
 11 10  1  0  0  0  0
 12 11  2  0  0  0  0
 13 12  1  0  0  0  0
 13  9  1  0  0  0  0
 16 17  1  0  0  0  0
 17 18  2  0  0  0  0
 17 23  1  0  0  0  0
 18 24  1  0  0  0  0
 19 18  1  0  0  0  0
 20 19  2  0  0  0  0
 21 20  1  0  0  0  0
 21 16  2  0  0  0  0
 22 16  1  0  0  0  0
 25 26  2  0  0  0  0
 25  5  1  0  0  0  0
 27 30  1  6  0  0  0
 27 25  1  0  0  0  0
 28 27  1  0  0  0  0
 28 31  1  0  0  0  0
 29 28  1  0  0  0  0
 29 27  1  0  0  0  0
 29 33  1  1  0  0  0
 32 28  1  0  0  0  0
 34 29  1  0  0  0  0
 35 36  1  0  0  0  0
 35 34  1  0  0  0  0
 37 35  2  0  0  0  0
 38 44  1  0  0  0  0
 38 37  1  0  0  0  0
 39 38  2  0  0  0  0
 40 42  2  0  0  0  0
 40 39  1  0  0  0  0
 41 40  1  0  0  0  0
 42 43  1  0  0  0  0
 43 44  2  0  0  0  0
 44 45  1  0  0  0  0
 45 34  2  0  0  0  0
M  END
>  <minimizedAffinity>
-6.76053762

>  <minimizedRMSD>
1.7673707

$$$$
