
 OpenBabel03212520273D

 31 34  0  0  0  0  0  0  0  0999 V2000
   42.3760   84.8680   60.8910 C   0  0  0  0  0  0  0  0  0  0  0  0
   43.4390   85.2670   61.6890 C   0  0  0  0  0  0  0  0  0  0  0  0
   44.0480   86.2350   60.8670 C   0  0  0  0  0  0  0  0  0  0  0  0
   43.3840   86.3690   59.7070 N   0  0  0  0  0  0  0  0  0  0  0  0
   42.3640   85.5240   59.7400 N   0  0  0  0  0  0  0  0  0  0  0  0
   43.7610   84.9570   62.6740 H   0  0  0  0  0  0  0  0  0  0  0  0
   44.9490   86.7890   61.1700 H   0  0  0  0  0  0  0  0  0  0  0  0
   40.7940   81.6150   61.7920 C   0  0  0  0  0  0  0  0  0  0  0  0
   41.7820   82.5300   61.4130 C   0  0  0  0  0  0  0  0  0  0  0  0
   41.4060   83.8570   61.2820 C   0  0  0  0  0  0  0  0  0  0  0  0
   40.1100   84.2220   61.5240 N   0  0  0  0  0  0  0  0  0  0  0  0
   39.1940   83.2850   61.8900 C   0  0  0  0  0  0  0  0  0  0  0  0
   39.5400   81.9990   62.0210 N   0  0  0  0  0  0  0  0  0  0  0  0
   41.0130   80.5720   61.9120 H   0  0  0  0  0  0  0  0  0  0  0  0
   42.7940   82.1930   61.2320 H   0  0  0  0  0  0  0  0  0  0  0  0
   38.2240   83.7240   62.0440 H   0  0  0  0  0  0  0  0  0  0  0  0
   43.7390   87.2780   58.6310 C   0  0  0  0  0  0  0  0  0  0  0  0
   43.9810   88.2890   59.0050 H   0  0  0  0  0  0  0  0  0  0  0  0
   42.8590   87.3530   57.9300 H   0  0  0  0  0  0  0  0  0  0  0  0
   44.9280   86.7340   57.9500 C   0  0  0  0  0  0  0  0  0  0  0  0
   44.8280   85.5280   57.2810 C   0  0  0  0  0  0  0  0  0  0  0  0
   43.8590   85.0120   57.2800 H   0  0  0  0  0  0  0  0  0  0  0  0
   45.8380   84.8820   56.5970 C   0  0  0  0  0  3  0  0  0  0  0  0
   47.0600   85.5090   56.5860 C   0  0  0  0  0  0  0  0  0  0  0  0
   48.0630   84.9060   55.9280 N   0  0  0  0  0  0  0  0  0  0  0  0
   49.3010   85.4420   55.8600 C   0  0  0  0  0  0  0  0  0  0  0  0
   50.1470   85.0080   55.3490 H   0  0  0  0  0  0  0  0  0  0  0  0
   49.4670   86.6470   56.5080 C   0  0  0  0  0  3  0  0  0  0  0  0
   48.4760   87.3110   57.1960 C   0  0  0  0  0  3  0  0  0  0  0  0
   47.2210   86.7130   57.2350 C   0  0  0  0  0  0  0  0  0  0  0  0
   46.1800   87.3190   57.9050 C   0  0  0  0  0  3  0  0  0  0  0  0
  1 10  1  0  0  0  0
  1  2  1  0  0  0  0
  2  6  1  0  0  0  0
  3  7  1  0  0  0  0
  3  2  2  0  0  0  0
  4  5  1  0  0  0  0
  4  3  1  0  0  0  0
  5  1  2  0  0  0  0
  8 14  1  0  0  0  0
  8 13  1  0  0  0  0
  9  8  2  0  0  0  0
 10  9  1  0  0  0  0
 10 11  2  0  0  0  0
 11 12  1  0  0  0  0
 12 13  2  0  0  0  0
 12 16  1  0  0  0  0
 15  9  1  0  0  0  0
 17 18  1  0  0  0  0
 17  4  1  0  0  0  0
 19 17  1  0  0  0  0
 20 17  1  0  0  0  0
 21 20  2  0  0  0  0
 22 21  1  0  0  0  0
 23 21  1  0  0  0  0
 24 23  2  0  0  0  0
 24 30  1  0  0  0  0
 25 24  1  0  0  0  0
 26 25  2  0  0  0  0
 26 28  1  0  0  0  0
 27 26  1  0  0  0  0
 28 29  2  0  0  0  0
 29 30  1  0  0  0  0
 30 31  2  0  0  0  0
 31 20  1  0  0  0  0
M  END
>  <minimizedAffinity>
-4.30583239

>  <minimizedRMSD>
0.644668519

$$$$
