
 OpenBabel03212520273D

 31 34  0  0  0  0  0  0  0  0999 V2000
   42.4330   84.8440   60.9970 C   0  0  0  0  0  0  0  0  0  0  0  0
   43.5100   85.1820   61.8050 C   0  0  0  0  0  0  0  0  0  0  0  0
   44.1270   86.1830   61.0310 C   0  0  0  0  0  0  0  0  0  0  0  0
   43.4560   86.3900   59.8860 N   0  0  0  0  0  0  0  0  0  0  0  0
   42.4220   85.5610   59.8840 N   0  0  0  0  0  0  0  0  0  0  0  0
   43.8350   84.8140   62.7690 H   0  0  0  0  0  0  0  0  0  0  0  0
   45.0400   86.7050   61.3540 H   0  0  0  0  0  0  0  0  0  0  0  0
   40.8210   81.5820   61.8090 C   0  0  0  0  0  0  0  0  0  0  0  0
   41.8210   82.5010   61.4750 C   0  0  0  0  0  0  0  0  0  0  0  0
   41.4490   83.8290   61.3430 C   0  0  0  0  0  0  0  0  0  0  0  0
   40.1460   84.1910   61.5410 N   0  0  0  0  0  0  0  0  0  0  0  0
   39.2170   83.2510   61.8640 C   0  0  0  0  0  0  0  0  0  0  0  0
   39.5590   81.9640   61.9960 N   0  0  0  0  0  0  0  0  0  0  0  0
   41.0350   80.5390   61.9280 H   0  0  0  0  0  0  0  0  0  0  0  0
   42.8390   82.1660   61.3290 H   0  0  0  0  0  0  0  0  0  0  0  0
   38.2420   83.6880   61.9860 H   0  0  0  0  0  0  0  0  0  0  0  0
   43.8150   87.3500   58.8560 C   0  0  0  0  0  0  0  0  0  0  0  0
   44.2210   88.2840   59.2850 H   0  0  0  0  0  0  0  0  0  0  0  0
   42.8880   87.5950   58.2650 H   0  0  0  0  0  0  0  0  0  0  0  0
   44.8530   86.7360   58.0070 C   0  0  0  0  0  0  0  0  0  0  0  0
   46.0560   87.3950   57.8310 C   0  0  0  0  0  0  0  0  0  0  0  0
   46.1990   88.3610   58.3350 H   0  0  0  0  0  0  0  0  0  0  0  0
   47.1260   86.9640   57.0740 C   0  0  0  0  0  3  0  0  0  0  0  0
   46.9700   85.7580   56.4350 C   0  0  0  0  0  0  0  0  0  0  0  0
   47.9940   85.3110   55.6900 N   0  0  0  0  0  0  0  0  0  0  0  0
   47.9370   84.1370   55.0240 C   0  0  0  0  0  0  0  0  0  0  0  0
   48.7240   83.7250   54.4100 H   0  0  0  0  0  0  0  0  0  0  0  0
   46.7620   83.4310   55.1580 C   0  0  0  0  0  3  0  0  0  0  0  0
   45.6800   83.8390   55.9070 C   0  0  0  0  0  3  0  0  0  0  0  0
   45.7930   85.0550   56.5720 C   0  0  0  0  0  0  0  0  0  0  0  0
   44.7530   85.5310   57.3410 C   0  0  0  0  0  3  0  0  0  0  0  0
  1 10  1  0  0  0  0
  1  2  1  0  0  0  0
  2  6  1  0  0  0  0
  3  7  1  0  0  0  0
  3  2  2  0  0  0  0
  4  3  1  0  0  0  0
  5  4  1  0  0  0  0
  5  1  2  0  0  0  0
  8 14  1  0  0  0  0
  8 13  1  0  0  0  0
  9  8  2  0  0  0  0
 10  9  1  0  0  0  0
 10 11  2  0  0  0  0
 11 12  1  0  0  0  0
 12 16  1  0  0  0  0
 12 13  2  0  0  0  0
 15  9  1  0  0  0  0
 17 18  1  0  0  0  0
 17  4  1  0  0  0  0
 19 17  1  0  0  0  0
 20 17  1  0  0  0  0
 21 20  1  0  0  0  0
 21 22  1  0  0  0  0
 23 21  2  0  0  0  0
 24 30  1  0  0  0  0
 24 23  1  0  0  0  0
 25 24  2  0  0  0  0
 26 28  2  0  0  0  0
 26 25  1  0  0  0  0
 27 26  1  0  0  0  0
 28 29  1  0  0  0  0
 29 30  2  0  0  0  0
 30 31  1  0  0  0  0
 31 20  2  0  0  0  0
M  END
>  <minimizedAffinity>
-4.2922492

>  <minimizedRMSD>
0.450139374

$$$$
