
 OpenBabel03212520273D

 31 34  0  0  0  0  0  0  0  0999 V2000
   42.4460   84.8010   61.2520 C   0  0  0  0  0  0  0  0  0  0  0  0
   43.3060   85.2580   62.2410 C   0  0  0  0  0  0  0  0  0  0  0  0
   44.0960   86.1700   61.5150 C   0  0  0  0  0  0  0  0  0  0  0  0
   43.7150   86.2200   60.2280 N   0  0  0  0  0  0  0  0  0  0  0  0
   42.7030   85.3750   60.0870 N   0  0  0  0  0  0  0  0  0  0  0  0
   43.3920   85.0190   63.2930 H   0  0  0  0  0  0  0  0  0  0  0  0
   44.9130   86.7460   61.9760 H   0  0  0  0  0  0  0  0  0  0  0  0
   40.6380   81.5760   61.7220 C   0  0  0  0  0  0  0  0  0  0  0  0
   41.6950   82.4630   61.4950 C   0  0  0  0  0  0  0  0  0  0  0  0
   41.4000   83.8160   61.4820 C   0  0  0  0  0  0  0  0  0  0  0  0
   40.1140   84.2330   61.6880 N   0  0  0  0  0  0  0  0  0  0  0  0
   39.1270   83.3210   61.9030 C   0  0  0  0  0  0  0  0  0  0  0  0
   39.3950   82.0100   61.9200 N   0  0  0  0  0  0  0  0  0  0  0  0
   40.7910   80.5150   61.7460 H   0  0  0  0  0  0  0  0  0  0  0  0
   42.6960   82.0860   61.3380 H   0  0  0  0  0  0  0  0  0  0  0  0
   38.1750   83.8000   62.0480 H   0  0  0  0  0  0  0  0  0  0  0  0
   44.3150   87.0530   59.2000 C   0  0  0  0  0  0  0  0  0  0  0  0
   44.8270   87.9340   59.6280 H   0  0  0  0  0  0  0  0  0  0  0  0
   43.4950   87.4090   58.5130 H   0  0  0  0  0  0  0  0  0  0  0  0
   45.3100   86.2380   58.4800 C   0  0  0  0  0  0  0  0  0  0  0  0
   44.9960   85.7440   57.2260 C   0  0  0  0  0  0  0  0  0  0  0  0
   44.0080   85.9790   56.8080 H   0  0  0  0  0  0  0  0  0  0  0  0
   45.8070   84.9700   56.4210 C   0  0  0  0  0  3  0  0  0  0  0  0
   47.0490   84.6650   56.9250 C   0  0  0  0  0  0  0  0  0  0  0  0
   47.8610   83.9130   56.1660 N   0  0  0  0  0  0  0  0  0  0  0  0
   49.1000   83.5600   56.5740 C   0  0  0  0  0  0  0  0  0  0  0  0
   49.7990   82.9590   56.0110 H   0  0  0  0  0  0  0  0  0  0  0  0
   49.4740   84.0210   57.8170 C   0  0  0  0  0  3  0  0  0  0  0  0
   48.6830   84.7950   58.6380 C   0  0  0  0  0  3  0  0  0  0  0  0
   47.4180   85.1290   58.1690 C   0  0  0  0  0  0  0  0  0  0  0  0
   46.5700   85.9010   58.9340 C   0  0  0  0  0  3  0  0  0  0  0  0
  1 10  1  0  0  0  0
  1  2  1  0  0  0  0
  2  6  1  0  0  0  0
  3  7  1  0  0  0  0
  3  2  2  0  0  0  0
  4  3  1  0  0  0  0
  5  4  1  0  0  0  0
  5  1  2  0  0  0  0
  8 14  1  0  0  0  0
  8 13  1  0  0  0  0
  9  8  2  0  0  0  0
 10  9  1  0  0  0  0
 10 11  2  0  0  0  0
 11 12  1  0  0  0  0
 12 13  2  0  0  0  0
 12 16  1  0  0  0  0
 15  9  1  0  0  0  0
 17 18  1  0  0  0  0
 17  4  1  0  0  0  0
 19 17  1  0  0  0  0
 20 31  1  0  0  0  0
 20 17  1  0  0  0  0
 21 20  2  0  0  0  0
 22 21  1  0  0  0  0
 23 24  2  0  0  0  0
 23 21  1  0  0  0  0
 24 30  1  0  0  0  0
 25 26  2  0  0  0  0
 25 24  1  0  0  0  0
 26 28  1  0  0  0  0
 27 26  1  0  0  0  0
 28 29  2  0  0  0  0
 30 29  1  0  0  0  0
 30 31  2  0  0  0  0
M  END
>  <minimizedAffinity>
-4.17546272

>  <minimizedRMSD>
0.448500305

$$$$
