
 OpenBabel03212520593D

 43 47  0  0  1  0  0  0  0  0999 V2000
   39.7330   77.2770   59.2510 C   0  0  0  0  0  0  0  0  0  0  0  0
   40.3950   76.1170   58.9940 C   0  0  0  0  0  0  0  0  0  0  0  0
   39.8200   75.4000   57.9320 C   0  0  0  0  0  0  0  0  0  0  0  0
   38.7380   75.8060   57.2420 N   0  0  0  0  0  0  0  0  0  0  0  0
   38.1490   76.9910   57.5860 C   0  0  0  0  0  0  0  0  0  0  0  0
   38.6520   77.7310   58.5990 N   0  0  0  0  0  0  0  0  0  0  0  0
   41.2570   75.7480   59.5090 H   0  0  0  0  0  0  0  0  0  0  0  0
   40.2390   74.4490   57.6070 H   0  0  0  0  0  0  0  0  0  0  0  0
   40.9880   80.2500   61.7460 C   0  0  0  0  0  0  0  0  0  0  0  0
   41.0190   79.0150   62.3580 C   0  0  0  0  0  0  0  0  0  0  0  0
   40.6220   77.9530   61.6230 C   0  0  0  0  0  0  0  0  0  0  0  0
   40.2110   78.1310   60.3190 C   0  0  0  0  0  0  0  0  0  0  0  0
   40.3810   79.9440   60.0620 S   0  0  0  0  0  0  0  0  0  0  0  0
   41.3440   78.8770   63.3860 H   0  0  0  0  0  0  0  0  0  0  0  0
   40.5730   76.9140   61.9160 H   0  0  0  0  0  0  0  0  0  0  0  0
   43.0730   83.0680   62.8390 C   0  0  0  0  0  0  0  0  0  0  0  0
   42.1770   83.8310   63.6290 C   0  0  0  0  0  0  0  0  0  0  0  0
   40.8650   83.3820   63.7810 C   0  0  0  0  0  0  0  0  0  0  0  0
   40.5040   82.2350   63.1670 N   0  0  0  0  0  0  0  0  0  0  0  0
   41.3870   81.5180   62.4120 C   0  0  0  0  0  0  0  0  0  0  0  0
   42.6430   81.9390   62.2610 N   0  0  0  0  0  0  0  0  0  0  0  0
   44.0890   83.4130   62.7200 H   0  0  0  0  0  0  0  0  0  0  0  0
   42.4720   84.7480   64.1170 H   0  0  0  0  0  0  0  0  0  0  0  0
   40.1220   83.9010   64.3620 H   0  0  0  0  0  0  0  0  0  0  0  0
   36.9890   77.4100   56.8190 C   0  0  0  0  0  0  0  0  0  0  0  0
   35.8750   77.0420   57.2250 O   0  0  0  0  0  0  0  0  0  0  0  0
   37.1140   78.2510   55.5730 C   0  0  1  0  0  0  0  0  0  0  0  0
   37.4560   79.6920   55.8720 C   0  0  0  0  0  0  0  0  0  0  0  0
   38.3960   78.7990   55.1930 C   0  0  2  0  0  0  0  0  0  0  0  0
   36.2060   78.2060   54.9070 H   0  0  0  0  0  0  0  0  0  0  0  0
   36.9250   80.4590   55.2900 H   0  0  0  0  0  0  0  0  0  0  0  0
   37.6480   79.9910   56.9330 H   0  0  0  0  0  0  0  0  0  0  0  0
   39.2950   78.4010   55.7500 H   0  0  0  0  0  0  0  0  0  0  0  0
   38.7460   79.1080   53.8240 N   0  0  0  0  0  0  0  0  0  0  0  0
   39.8850   79.8380   53.6610 C   0  0  0  0  0  3  0  0  0  0  0  0
   40.3640   80.2220   52.4170 C   0  0  0  0  0  0  0  0  0  0  0  0
   41.2720   80.8010   52.3180 H   0  0  0  0  0  0  0  0  0  0  0  0
   39.6380   79.8340   51.3140 C   0  0  0  0  0  0  0  0  0  0  0  0
   40.0200   80.1510   50.1630 O   0  0  0  0  0  0  0  0  0  0  0  0
   38.5150   79.1130   51.5090 N   0  0  0  0  0  0  0  0  0  0  0  0
   38.0670   78.7510   52.7260 C   0  0  0  0  0  0  0  0  0  0  0  0
   37.0210   78.0780   52.9190 O   0  0  0  0  0  0  0  0  0  0  0  0
   37.9220   78.7900   50.7150 H   0  0  0  0  0  0  0  0  0  0  0  0
  1 12  1  0  0  0  0
  2  1  1  0  0  0  0
  2  7  1  0  0  0  0
  3  2  2  0  0  0  0
  4  5  2  0  0  0  0
  4  3  1  0  0  0  0
  5  6  1  0  0  0  0
  6  1  2  0  0  0  0
  8  3  1  0  0  0  0
  9 10  2  0  0  0  0
  9 20  1  0  0  0  0
 10 14  1  0  0  0  0
 11 15  1  0  0  0  0
 11 10  1  0  0  0  0
 12 11  2  0  0  0  0
 13 12  1  0  0  0  0
 13  9  1  0  0  0  0
 16 17  1  0  0  0  0
 17 18  2  0  0  0  0
 17 23  1  0  0  0  0
 18 24  1  0  0  0  0
 19 18  1  0  0  0  0
 20 19  2  0  0  0  0
 21 20  1  0  0  0  0
 21 16  2  0  0  0  0
 22 16  1  0  0  0  0
 25 26  2  0  0  0  0
 25  5  1  0  0  0  0
 27 30  1  6  0  0  0
 27 28  1  0  0  0  0
 27 25  1  0  0  0  0
 28 32  1  0  0  0  0
 29 27  1  0  0  0  0
 29 33  1  1  0  0  0
 29 28  1  0  0  0  0
 31 28  1  0  0  0  0
 34 29  1  0  0  0  0
 35 34  1  0  0  0  0
 36 35  2  0  0  0  0
 37 36  1  0  0  0  0
 38 40  1  0  0  0  0
 38 36  1  0  0  0  0
 39 38  2  0  0  0  0
 40 41  1  0  0  0  0
 41 42  2  0  0  0  0
 41 34  1  0  0  0  0
 43 40  1  0  0  0  0
M  END
>  <minimizedAffinity>
-6.625422

>  <minimizedRMSD>
0.48137942

$$$$
