
 OpenBabel03212520433D

 19 20  0  0  0  0  0  0  0  0999 V2000
   41.5990   82.2500   62.7100 C   0  0  0  0  0  0  0  0  0  0  0  0
   42.8240   82.9230   62.8080 C   0  0  0  0  0  0  0  0  0  0  0  0
   42.8900   84.0210   63.6760 C   0  0  0  0  0  0  0  0  0  0  0  0
   41.7740   84.3680   64.3690 N   0  0  0  0  0  0  0  0  0  0  0  0
   40.6140   83.7020   64.2550 C   0  0  0  0  0  0  0  0  0  0  0  0
   40.5150   82.6360   63.4240 N   0  0  0  0  0  0  0  0  0  0  0  0
   43.6140   82.5230   62.1920 H   0  0  0  0  0  0  0  0  0  0  0  0
   43.8440   84.5080   63.7230 H   0  0  0  0  0  0  0  0  0  0  0  0
   39.7500   84.0230   64.8330 H   0  0  0  0  0  0  0  0  0  0  0  0
   41.3440   81.1180   61.8840 N   0  0  0  0  0  0  0  0  0  0  0  0
   42.3390   80.2010   61.9920 C   0  0  0  0  0  3  0  0  0  0  0  0
   42.2960   79.0090   61.2670 C   0  0  0  0  0  0  0  0  0  0  0  0
   43.0630   78.2520   61.3200 H   0  0  0  0  0  0  0  0  0  0  0  0
   41.2060   78.8020   60.4400 C   0  0  0  0  0  0  0  0  0  0  0  0
   41.1250   77.7400   59.7680 O   0  0  0  0  0  0  0  0  0  0  0  0
   40.2460   79.7380   60.3670 N   0  0  0  0  0  0  0  0  0  0  0  0
   40.2990   80.8810   61.0700 C   0  0  0  0  0  0  0  0  0  0  0  0
   39.4460   81.8060   61.0590 O   0  0  0  0  0  0  0  0  0  0  0  0
   39.4070   79.6290   59.7610 H   0  0  0  0  0  0  0  0  0  0  0  0
  1  2  2  0  0  0  0
  1  6  1  0  0  0  0
  2  3  1  0  0  0  0
  3  8  1  0  0  0  0
  3  4  2  0  0  0  0
  5  4  1  0  0  0  0
  5  9  1  0  0  0  0
  6  5  2  0  0  0  0
  7  2  1  0  0  0  0
 10 11  1  0  0  0  0
 10  1  1  0  0  0  0
 12 13  1  0  0  0  0
 12 11  2  0  0  0  0
 14 12  1  0  0  0  0
 15 14  2  0  0  0  0
 16 14  1  0  0  0  0
 16 17  1  0  0  0  0
 17 10  1  0  0  0  0
 18 17  2  0  0  0  0
 19 16  1  0  0  0  0
M  END
>  <minimizedAffinity>
-4.48784208

>  <minimizedRMSD>
2.6649704

$$$$
