
 OpenBabel03212520583D

 43 47  0  0  1  0  0  0  0  0999 V2000
   39.7320   77.2780   59.2500 C   0  0  0  0  0  0  0  0  0  0  0  0
   40.3930   76.1180   58.9930 C   0  0  0  0  0  0  0  0  0  0  0  0
   39.8170   75.4010   57.9310 C   0  0  0  0  0  0  0  0  0  0  0  0
   38.7360   75.8080   57.2420 N   0  0  0  0  0  0  0  0  0  0  0  0
   38.1480   76.9940   57.5850 C   0  0  0  0  0  0  0  0  0  0  0  0
   38.6520   77.7340   58.5990 N   0  0  0  0  0  0  0  0  0  0  0  0
   41.2550   75.7480   59.5070 H   0  0  0  0  0  0  0  0  0  0  0  0
   40.2350   74.4500   57.6060 H   0  0  0  0  0  0  0  0  0  0  0  0
   40.9890   80.2510   61.7450 C   0  0  0  0  0  0  0  0  0  0  0  0
   41.0240   79.0150   62.3560 C   0  0  0  0  0  0  0  0  0  0  0  0
   40.6260   77.9540   61.6200 C   0  0  0  0  0  0  0  0  0  0  0  0
   40.2120   78.1320   60.3170 C   0  0  0  0  0  0  0  0  0  0  0  0
   40.3780   79.9460   60.0630 S   0  0  0  0  0  0  0  0  0  0  0  0
   41.3510   78.8760   63.3820 H   0  0  0  0  0  0  0  0  0  0  0  0
   40.5800   76.9130   61.9120 H   0  0  0  0  0  0  0  0  0  0  0  0
   43.0730   83.0690   62.8410 C   0  0  0  0  0  0  0  0  0  0  0  0
   42.1770   83.8320   63.6290 C   0  0  0  0  0  0  0  0  0  0  0  0
   40.8650   83.3830   63.7810 C   0  0  0  0  0  0  0  0  0  0  0  0
   40.5040   82.2360   63.1660 N   0  0  0  0  0  0  0  0  0  0  0  0
   41.3870   81.5190   62.4120 C   0  0  0  0  0  0  0  0  0  0  0  0
   42.6430   81.9400   62.2610 N   0  0  0  0  0  0  0  0  0  0  0  0
   44.0890   83.4140   62.7230 H   0  0  0  0  0  0  0  0  0  0  0  0
   42.4710   84.7490   64.1180 H   0  0  0  0  0  0  0  0  0  0  0  0
   40.1200   83.9010   64.3610 H   0  0  0  0  0  0  0  0  0  0  0  0
   36.9880   77.4150   56.8190 C   0  0  0  0  0  0  0  0  0  0  0  0
   35.8740   77.0480   57.2250 O   0  0  0  0  0  0  0  0  0  0  0  0
   37.1140   78.2540   55.5720 C   0  0  1  0  0  0  0  0  0  0  0  0
   37.4560   79.6960   55.8700 C   0  0  0  0  0  0  0  0  0  0  0  0
   38.3970   78.8020   55.1920 C   0  0  2  0  0  0  0  0  0  0  0  0
   36.2070   78.2090   54.9060 H   0  0  0  0  0  0  0  0  0  0  0  0
   36.9260   80.4620   55.2880 H   0  0  0  0  0  0  0  0  0  0  0  0
   37.6480   79.9950   56.9310 H   0  0  0  0  0  0  0  0  0  0  0  0
   39.2950   78.4050   55.7500 H   0  0  0  0  0  0  0  0  0  0  0  0
   38.7470   79.1100   53.8230 N   0  0  0  0  0  0  0  0  0  0  0  0
   39.8870   79.8400   53.6610 C   0  0  0  0  0  3  0  0  0  0  0  0
   40.3670   80.2210   52.4150 C   0  0  0  0  0  0  0  0  0  0  0  0
   41.2750   80.8000   52.3170 H   0  0  0  0  0  0  0  0  0  0  0  0
   39.6400   79.8330   51.3130 C   0  0  0  0  0  0  0  0  0  0  0  0
   40.0240   80.1480   50.1620 O   0  0  0  0  0  0  0  0  0  0  0  0
   38.5170   79.1130   51.5090 N   0  0  0  0  0  0  0  0  0  0  0  0
   38.0670   78.7520   52.7240 C   0  0  0  0  0  0  0  0  0  0  0  0
   37.0210   78.0810   52.9180 O   0  0  0  0  0  0  0  0  0  0  0  0
   37.9240   78.7890   50.7140 H   0  0  0  0  0  0  0  0  0  0  0  0
  1 12  1  0  0  0  0
  2  1  1  0  0  0  0
  2  7  1  0  0  0  0
  3  2  2  0  0  0  0
  4  5  2  0  0  0  0
  4  3  1  0  0  0  0
  5  6  1  0  0  0  0
  6  1  2  0  0  0  0
  8  3  1  0  0  0  0
  9 10  2  0  0  0  0
  9 20  1  0  0  0  0
 10 14  1  0  0  0  0
 11 15  1  0  0  0  0
 11 10  1  0  0  0  0
 12 11  2  0  0  0  0
 13 12  1  0  0  0  0
 13  9  1  0  0  0  0
 16 17  1  0  0  0  0
 17 18  2  0  0  0  0
 17 23  1  0  0  0  0
 18 24  1  0  0  0  0
 19 18  1  0  0  0  0
 20 19  2  0  0  0  0
 21 20  1  0  0  0  0
 21 16  2  0  0  0  0
 22 16  1  0  0  0  0
 25 26  2  0  0  0  0
 25  5  1  0  0  0  0
 27 30  1  6  0  0  0
 27 28  1  0  0  0  0
 27 25  1  0  0  0  0
 28 32  1  0  0  0  0
 29 27  1  0  0  0  0
 29 33  1  1  0  0  0
 29 28  1  0  0  0  0
 31 28  1  0  0  0  0
 34 29  1  0  0  0  0
 35 34  1  0  0  0  0
 36 35  2  0  0  0  0
 37 36  1  0  0  0  0
 38 40  1  0  0  0  0
 38 36  1  0  0  0  0
 39 38  2  0  0  0  0
 40 41  1  0  0  0  0
 41 42  2  0  0  0  0
 41 34  1  0  0  0  0
 43 40  1  0  0  0  0
M  END
>  <minimizedAffinity>
-6.62567282

>  <minimizedRMSD>
0.525918186

$$$$
