
 OpenBabel03212520433D

 19 20  0  0  0  0  0  0  0  0999 V2000
   43.1150   83.4500   60.5070 C   0  0  0  0  0  0  0  0  0  0  0  0
   42.6450   83.8590   59.2510 C   0  0  0  0  0  0  0  0  0  0  0  0
   43.4170   83.5210   58.1320 C   0  0  0  0  0  0  0  0  0  0  0  0
   44.5660   82.8210   58.3230 N   0  0  0  0  0  0  0  0  0  0  0  0
   44.9890   82.4430   59.5390 C   0  0  0  0  0  0  0  0  0  0  0  0
   44.2680   82.7540   60.6440 N   0  0  0  0  0  0  0  0  0  0  0  0
   41.7160   84.4060   59.2680 H   0  0  0  0  0  0  0  0  0  0  0  0
   43.0240   83.8510   57.1900 H   0  0  0  0  0  0  0  0  0  0  0  0
   45.9180   81.8840   59.6370 H   0  0  0  0  0  0  0  0  0  0  0  0
   42.4680   83.7010   61.7500 N   0  0  0  0  0  0  0  0  0  0  0  0
   41.6190   82.6910   62.0710 C   0  0  0  0  0  3  0  0  0  0  0  0
   40.8770   82.7290   63.2520 C   0  0  0  0  0  0  0  0  0  0  0  0
   40.1910   81.9520   63.5500 H   0  0  0  0  0  0  0  0  0  0  0  0
   41.0400   83.8290   64.0770 C   0  0  0  0  0  0  0  0  0  0  0  0
   40.3900   83.9040   65.1530 O   0  0  0  0  0  0  0  0  0  0  0  0
   41.8920   84.8020   63.7170 N   0  0  0  0  0  0  0  0  0  0  0  0
   42.6010   84.7550   62.5760 C   0  0  0  0  0  0  0  0  0  0  0  0
   43.4170   85.6200   62.1660 O   0  0  0  0  0  0  0  0  0  0  0  0
   42.0500   85.6480   64.3010 H   0  0  0  0  0  0  0  0  0  0  0  0
  1  6  1  0  0  0  0
  1 10  1  0  0  0  0
  2  7  1  0  0  0  0
  2  1  2  0  0  0  0
  3  4  2  0  0  0  0
  3  2  1  0  0  0  0
  4  5  1  0  0  0  0
  5  9  1  0  0  0  0
  5  6  2  0  0  0  0
  8  3  1  0  0  0  0
 10 11  1  0  0  0  0
 10 17  1  0  0  0  0
 11 12  2  0  0  0  0
 12 13  1  0  0  0  0
 12 14  1  0  0  0  0
 14 15  2  0  0  0  0
 16 14  1  0  0  0  0
 16 19  1  0  0  0  0
 17 16  1  0  0  0  0
 18 17  2  0  0  0  0
M  END
>  <minimizedAffinity>
-4.28411245

>  <minimizedRMSD>
5.57468176

$$$$
