
 OpenBabel03212520423D

 19 20  0  0  0  0  0  0  0  0999 V2000
   43.4000   83.6050   62.3870 C   0  0  0  0  0  0  0  0  0  0  0  0
   44.2400   84.4530   61.6540 C   0  0  0  0  0  0  0  0  0  0  0  0
   45.6190   84.2150   61.7260 C   0  0  0  0  0  0  0  0  0  0  0  0
   46.0610   83.1850   62.4940 N   0  0  0  0  0  0  0  0  0  0  0  0
   45.2300   82.3890   63.1850 C   0  0  0  0  0  0  0  0  0  0  0  0
   43.8910   82.5910   63.1390 N   0  0  0  0  0  0  0  0  0  0  0  0
   43.7340   85.2230   61.0940 H   0  0  0  0  0  0  0  0  0  0  0  0
   46.2280   84.8850   61.1510 H   0  0  0  0  0  0  0  0  0  0  0  0
   45.6370   81.5780   63.7860 H   0  0  0  0  0  0  0  0  0  0  0  0
   41.9790   83.6920   62.4350 N   0  0  0  0  0  0  0  0  0  0  0  0
   41.4220   83.2110   61.2950 C   0  0  0  0  0  3  0  0  0  0  0  0
   40.0370   83.1990   61.1250 C   0  0  0  0  0  0  0  0  0  0  0  0
   39.5480   82.8260   60.2380 H   0  0  0  0  0  0  0  0  0  0  0  0
   39.2610   83.6960   62.1590 C   0  0  0  0  0  0  0  0  0  0  0  0
   38.0060   83.7060   62.0480 O   0  0  0  0  0  0  0  0  0  0  0  0
   39.8580   84.1630   63.2670 N   0  0  0  0  0  0  0  0  0  0  0  0
   41.1920   84.1680   63.4190 C   0  0  0  0  0  0  0  0  0  0  0  0
   41.8300   84.5840   64.4190 O   0  0  0  0  0  0  0  0  0  0  0  0
   39.3200   84.5460   64.0690 H   0  0  0  0  0  0  0  0  0  0  0  0
  1 10  1  0  0  0  0
  1  6  1  0  0  0  0
  2  3  1  0  0  0  0
  2  1  2  0  0  0  0
  3  4  2  0  0  0  0
  4  5  1  0  0  0  0
  5  9  1  0  0  0  0
  6  5  2  0  0  0  0
  7  2  1  0  0  0  0
  8  3  1  0  0  0  0
 10 17  1  0  0  0  0
 11 10  1  0  0  0  0
 12 11  2  0  0  0  0
 12 14  1  0  0  0  0
 13 12  1  0  0  0  0
 14 16  1  0  0  0  0
 15 14  2  0  0  0  0
 16 17  1  0  0  0  0
 16 19  1  0  0  0  0
 17 18  2  0  0  0  0
M  END
>  <minimizedAffinity>
-5.10723591

>  <minimizedRMSD>
5.72131872

$$$$
