
 OpenBabel03212520433D

 19 20  0  0  0  0  0  0  0  0999 V2000
   43.5580   83.3180   62.1670 C   0  0  0  0  0  0  0  0  0  0  0  0
   44.3000   83.6080   61.0140 C   0  0  0  0  0  0  0  0  0  0  0  0
   45.6890   83.4330   61.0800 C   0  0  0  0  0  0  0  0  0  0  0  0
   46.2340   82.9950   62.2450 N   0  0  0  0  0  0  0  0  0  0  0  0
   45.4950   82.7260   63.3330 C   0  0  0  0  0  0  0  0  0  0  0  0
   44.1500   82.8840   63.3050 N   0  0  0  0  0  0  0  0  0  0  0  0
   43.7190   83.9450   60.1710 H   0  0  0  0  0  0  0  0  0  0  0  0
   46.2210   83.6640   60.1780 H   0  0  0  0  0  0  0  0  0  0  0  0
   45.9820   82.3780   64.2420 H   0  0  0  0  0  0  0  0  0  0  0  0
   42.1440   83.4350   62.2880 N   0  0  0  0  0  0  0  0  0  0  0  0
   41.5100   82.6210   61.4050 C   0  0  0  0  0  3  0  0  0  0  0  0
   40.1170   82.5750   61.3490 C   0  0  0  0  0  0  0  0  0  0  0  0
   39.5680   81.9440   60.6660 H   0  0  0  0  0  0  0  0  0  0  0  0
   39.4130   83.3870   62.2220 C   0  0  0  0  0  0  0  0  0  0  0  0
   38.1540   83.3760   62.2060 O   0  0  0  0  0  0  0  0  0  0  0  0
   40.0840   84.1750   63.0760 N   0  0  0  0  0  0  0  0  0  0  0  0
   41.4260   84.2110   63.1210 C   0  0  0  0  0  0  0  0  0  0  0  0
   42.1310   84.9180   63.8870 O   0  0  0  0  0  0  0  0  0  0  0  0
   39.6020   84.8020   63.7510 H   0  0  0  0  0  0  0  0  0  0  0  0
  1 10  1  0  0  0  0
  1  6  1  0  0  0  0
  2  3  1  0  0  0  0
  2  1  2  0  0  0  0
  3  4  2  0  0  0  0
  4  5  1  0  0  0  0
  5  9  1  0  0  0  0
  6  5  2  0  0  0  0
  7  2  1  0  0  0  0
  8  3  1  0  0  0  0
 10 17  1  0  0  0  0
 11 10  1  0  0  0  0
 12 11  2  0  0  0  0
 12 14  1  0  0  0  0
 13 12  1  0  0  0  0
 14 16  1  0  0  0  0
 15 14  2  0  0  0  0
 16 17  1  0  0  0  0
 16 19  1  0  0  0  0
 17 18  2  0  0  0  0
M  END
>  <minimizedAffinity>
-4.92167473

>  <minimizedRMSD>
5.60616159

$$$$
