
 OpenBabel03212520593D

 43 47  0  0  1  0  0  0  0  0999 V2000
   39.7510   77.2780   59.2380 C   0  0  0  0  0  0  0  0  0  0  0  0
   40.4090   76.1100   59.0120 C   0  0  0  0  0  0  0  0  0  0  0  0
   39.8600   75.3890   57.9390 C   0  0  0  0  0  0  0  0  0  0  0  0
   38.8040   75.8000   57.2130 N   0  0  0  0  0  0  0  0  0  0  0  0
   38.2170   76.9930   57.5270 C   0  0  0  0  0  0  0  0  0  0  0  0
   38.6960   77.7380   58.5500 N   0  0  0  0  0  0  0  0  0  0  0  0
   41.2500   75.7370   59.5570 H   0  0  0  0  0  0  0  0  0  0  0  0
   40.2800   74.4310   57.6360 H   0  0  0  0  0  0  0  0  0  0  0  0
   40.9700   80.2590   61.7420 C   0  0  0  0  0  0  0  0  0  0  0  0
   40.9480   79.0330   62.3720 C   0  0  0  0  0  0  0  0  0  0  0  0
   40.5580   77.9700   61.6350 C   0  0  0  0  0  0  0  0  0  0  0  0
   40.2040   78.1370   60.3130 C   0  0  0  0  0  0  0  0  0  0  0  0
   40.4250   79.9430   60.0400 S   0  0  0  0  0  0  0  0  0  0  0  0
   41.2280   78.9030   63.4140 H   0  0  0  0  0  0  0  0  0  0  0  0
   40.4740   76.9360   61.9400 H   0  0  0  0  0  0  0  0  0  0  0  0
   43.0560   83.0780   62.8320 C   0  0  0  0  0  0  0  0  0  0  0  0
   42.1610   83.8420   63.6210 C   0  0  0  0  0  0  0  0  0  0  0  0
   40.8490   83.3950   63.7740 C   0  0  0  0  0  0  0  0  0  0  0  0
   40.4870   82.2470   63.1610 N   0  0  0  0  0  0  0  0  0  0  0  0
   41.3690   81.5280   62.4070 C   0  0  0  0  0  0  0  0  0  0  0  0
   42.6250   81.9480   62.2550 N   0  0  0  0  0  0  0  0  0  0  0  0
   44.0730   83.4220   62.7130 H   0  0  0  0  0  0  0  0  0  0  0  0
   42.4560   84.7600   64.1080 H   0  0  0  0  0  0  0  0  0  0  0  0
   40.1050   83.9150   64.3530 H   0  0  0  0  0  0  0  0  0  0  0  0
   37.0850   77.4170   56.7220 C   0  0  0  0  0  0  0  0  0  0  0  0
   35.9530   77.1030   57.1210 O   0  0  0  0  0  0  0  0  0  0  0  0
   37.2610   78.1990   55.4430 C   0  0  1  0  0  0  0  0  0  0  0  0
   37.3680   79.6880   55.6790 C   0  0  0  0  0  0  0  0  0  0  0  0
   38.4990   78.9000   55.1850 C   0  0  2  0  0  0  0  0  0  0  0  0
   36.4630   77.9920   54.6760 H   0  0  0  0  0  0  0  0  0  0  0  0
   36.8220   80.3400   54.9830 H   0  0  0  0  0  0  0  0  0  0  0  0
   37.3780   80.0670   56.7310 H   0  0  0  0  0  0  0  0  0  0  0  0
   39.3610   78.6620   55.8750 H   0  0  0  0  0  0  0  0  0  0  0  0
   38.9810   79.1810   53.8510 N   0  0  0  0  0  0  0  0  0  0  0  0
   38.3840   78.4710   52.8530 C   0  0  0  0  0  3  0  0  0  0  0  0
   38.7260   78.6160   51.5150 C   0  0  0  0  0  0  0  0  0  0  0  0
   38.2350   78.0390   50.7450 H   0  0  0  0  0  0  0  0  0  0  0  0
   39.7130   79.5240   51.2120 C   0  0  0  0  0  0  0  0  0  0  0  0
   40.0650   79.7000   50.0220 O   0  0  0  0  0  0  0  0  0  0  0  0
   40.2830   80.2110   52.2230 N   0  0  0  0  0  0  0  0  0  0  0  0
   39.9380   80.0560   53.5150 C   0  0  0  0  0  0  0  0  0  0  0  0
   40.4640   80.6910   54.4650 O   0  0  0  0  0  0  0  0  0  0  0  0
   41.0370   80.9140   52.0580 H   0  0  0  0  0  0  0  0  0  0  0  0
  1 12  1  0  0  0  0
  2  1  1  0  0  0  0
  2  7  1  0  0  0  0
  3  2  2  0  0  0  0
  4  5  2  0  0  0  0
  4  3  1  0  0  0  0
  5  6  1  0  0  0  0
  6  1  2  0  0  0  0
  8  3  1  0  0  0  0
  9 10  2  0  0  0  0
  9 20  1  0  0  0  0
 10 14  1  0  0  0  0
 11 15  1  0  0  0  0
 11 10  1  0  0  0  0
 12 11  2  0  0  0  0
 13 12  1  0  0  0  0
 13  9  1  0  0  0  0
 16 17  1  0  0  0  0
 17 18  2  0  0  0  0
 17 23  1  0  0  0  0
 18 24  1  0  0  0  0
 19 18  1  0  0  0  0
 20 19  2  0  0  0  0
 21 20  1  0  0  0  0
 21 16  2  0  0  0  0
 22 16  1  0  0  0  0
 25 26  2  0  0  0  0
 25  5  1  0  0  0  0
 27 30  1  6  0  0  0
 27 28  1  0  0  0  0
 27 25  1  0  0  0  0
 28 32  1  0  0  0  0
 29 27  1  0  0  0  0
 29 28  1  0  0  0  0
 29 33  1  1  0  0  0
 31 28  1  0  0  0  0
 34 29  1  0  0  0  0
 35 34  1  0  0  0  0
 36 35  2  0  0  0  0
 37 36  1  0  0  0  0
 38 36  1  0  0  0  0
 38 40  1  0  0  0  0
 39 38  2  0  0  0  0
 40 41  1  0  0  0  0
 41 34  1  0  0  0  0
 41 42  2  0  0  0  0
 43 40  1  0  0  0  0
M  END
>  <minimizedAffinity>
-6.58485889

>  <minimizedRMSD>
0.453075945

$$$$
