
 OpenBabel03212520593D

 43 47  0  0  1  0  0  0  0  0999 V2000
   39.7850   77.1810   59.2290 C   0  0  0  0  0  0  0  0  0  0  0  0
   40.4860   76.0320   59.0370 C   0  0  0  0  0  0  0  0  0  0  0  0
   39.9860   75.2770   57.9630 C   0  0  0  0  0  0  0  0  0  0  0  0
   38.9340   75.6400   57.2070 N   0  0  0  0  0  0  0  0  0  0  0  0
   38.3000   76.8190   57.4890 C   0  0  0  0  0  0  0  0  0  0  0  0
   38.7310   77.5940   58.5100 N   0  0  0  0  0  0  0  0  0  0  0  0
   41.3260   75.6950   59.6060 H   0  0  0  0  0  0  0  0  0  0  0  0
   40.4430   74.3290   57.6850 H   0  0  0  0  0  0  0  0  0  0  0  0
   40.8970   80.2310   61.6990 C   0  0  0  0  0  0  0  0  0  0  0  0
   40.8150   79.0280   62.3680 C   0  0  0  0  0  0  0  0  0  0  0  0
   40.4530   77.9450   61.6460 C   0  0  0  0  0  0  0  0  0  0  0  0
   40.1850   78.0700   60.3000 C   0  0  0  0  0  0  0  0  0  0  0  0
   40.4530   79.8620   59.9780 S   0  0  0  0  0  0  0  0  0  0  0  0
   41.0270   78.9310   63.4300 H   0  0  0  0  0  0  0  0  0  0  0  0
   40.3320   76.9240   61.9810 H   0  0  0  0  0  0  0  0  0  0  0  0
   42.9590   83.0540   62.8230 C   0  0  0  0  0  0  0  0  0  0  0  0
   42.0290   83.8610   63.5230 C   0  0  0  0  0  0  0  0  0  0  0  0
   40.7020   83.4400   63.6060 C   0  0  0  0  0  0  0  0  0  0  0  0
   40.3590   82.2770   63.0120 N   0  0  0  0  0  0  0  0  0  0  0  0
   41.2750   81.5170   62.3430 C   0  0  0  0  0  0  0  0  0  0  0  0
   42.5460   81.9110   62.2590 N   0  0  0  0  0  0  0  0  0  0  0  0
   43.9870   83.3770   62.7580 H   0  0  0  0  0  0  0  0  0  0  0  0
   42.3090   84.7910   63.9960 H   0  0  0  0  0  0  0  0  0  0  0  0
   39.9320   83.9920   64.1180 H   0  0  0  0  0  0  0  0  0  0  0  0
   37.1740   77.1920   56.6510 C   0  0  0  0  0  0  0  0  0  0  0  0
   36.0600   77.2600   57.1930 O   0  0  0  0  0  0  0  0  0  0  0  0
   37.3330   77.4790   55.1780 C   0  0  1  0  0  0  0  0  0  0  0  0
   37.1770   78.9460   54.8490 C   0  0  0  0  0  0  0  0  0  0  0  0
   38.4590   78.2530   54.7070 C   0  0  2  0  0  0  0  0  0  0  0  0
   36.6480   76.8680   54.5250 H   0  0  0  0  0  0  0  0  0  0  0  0
   36.5950   79.1920   53.9500 H   0  0  0  0  0  0  0  0  0  0  0  0
   37.0340   79.6730   55.6870 H   0  0  0  0  0  0  0  0  0  0  0  0
   39.2850   78.4410   55.4540 H   0  0  0  0  0  0  0  0  0  0  0  0
   39.0040   78.1180   53.3740 N   0  0  0  0  0  0  0  0  0  0  0  0
   39.0770   76.8420   52.8990 C   0  0  0  0  0  3  0  0  0  0  0  0
   39.5740   76.5330   51.6400 C   0  0  0  0  0  0  0  0  0  0  0  0
   39.6190   75.5120   51.2900 H   0  0  0  0  0  0  0  0  0  0  0  0
   40.0040   77.5800   50.8590 C   0  0  0  0  0  0  0  0  0  0  0  0
   40.4630   77.3640   49.7120 O   0  0  0  0  0  0  0  0  0  0  0  0
   39.9190   78.8290   51.3580 N   0  0  0  0  0  0  0  0  0  0  0  0
   39.4340   79.1100   52.5810 C   0  0  0  0  0  0  0  0  0  0  0  0
   39.3500   80.2710   53.0570 O   0  0  0  0  0  0  0  0  0  0  0  0
   40.2290   79.6640   50.8140 H   0  0  0  0  0  0  0  0  0  0  0  0
  1 12  1  0  0  0  0
  2  1  1  0  0  0  0
  2  7  1  0  0  0  0
  3  2  2  0  0  0  0
  4  5  2  0  0  0  0
  4  3  1  0  0  0  0
  5  6  1  0  0  0  0
  6  1  2  0  0  0  0
  8  3  1  0  0  0  0
  9 20  1  0  0  0  0
  9 10  2  0  0  0  0
 10 14  1  0  0  0  0
 11 15  1  0  0  0  0
 11 10  1  0  0  0  0
 12 11  2  0  0  0  0
 13 12  1  0  0  0  0
 13  9  1  0  0  0  0
 16 17  1  0  0  0  0
 17 18  2  0  0  0  0
 17 23  1  0  0  0  0
 18 24  1  0  0  0  0
 19 18  1  0  0  0  0
 20 19  2  0  0  0  0
 21 20  1  0  0  0  0
 21 16  2  0  0  0  0
 22 16  1  0  0  0  0
 25 26  2  0  0  0  0
 25  5  1  0  0  0  0
 27 30  1  6  0  0  0
 27 25  1  0  0  0  0
 28 27  1  0  0  0  0
 28 32  1  0  0  0  0
 29 28  1  0  0  0  0
 29 27  1  0  0  0  0
 29 33  1  1  0  0  0
 31 28  1  0  0  0  0
 34 29  1  0  0  0  0
 35 34  1  0  0  0  0
 36 35  2  0  0  0  0
 37 36  1  0  0  0  0
 38 40  1  0  0  0  0
 38 36  1  0  0  0  0
 39 38  2  0  0  0  0
 40 41  1  0  0  0  0
 41 42  2  0  0  0  0
 41 34  1  0  0  0  0
 43 40  1  0  0  0  0
M  END
>  <minimizedAffinity>
-6.45493174

>  <minimizedRMSD>
1.33925354

$$$$
