
 OpenBabel03212520433D

 19 20  0  0  0  0  0  0  0  0999 V2000
   39.9120   81.9630   60.6420 C   0  0  0  0  0  0  0  0  0  0  0  0
   40.0530   82.8710   59.5840 C   0  0  0  0  0  0  0  0  0  0  0  0
   39.5840   84.1760   59.7870 C   0  0  0  0  0  0  0  0  0  0  0  0
   39.0250   84.4860   60.9860 N   0  0  0  0  0  0  0  0  0  0  0  0
   38.9050   83.5920   61.9810 C   0  0  0  0  0  0  0  0  0  0  0  0
   39.3470   82.3220   61.8190 N   0  0  0  0  0  0  0  0  0  0  0  0
   40.5170   82.4700   58.6970 H   0  0  0  0  0  0  0  0  0  0  0  0
   39.7100   84.8400   58.9550 H   0  0  0  0  0  0  0  0  0  0  0  0
   38.4490   83.8930   62.9230 H   0  0  0  0  0  0  0  0  0  0  0  0
   40.3280   80.6010   60.6190 N   0  0  0  0  0  0  0  0  0  0  0  0
   40.6580   80.1710   61.8630 C   0  0  0  0  0  3  0  0  0  0  0  0
   41.0940   78.8630   62.0770 C   0  0  0  0  0  0  0  0  0  0  0  0
   41.3680   78.4760   63.0460 H   0  0  0  0  0  0  0  0  0  0  0  0
   41.1750   78.0270   60.9760 C   0  0  0  0  0  0  0  0  0  0  0  0
   41.5640   76.8390   61.1220 O   0  0  0  0  0  0  0  0  0  0  0  0
   40.8380   78.4980   59.7650 N   0  0  0  0  0  0  0  0  0  0  0  0
   40.4190   79.7590   59.5720 C   0  0  0  0  0  0  0  0  0  0  0  0
   40.0850   80.2790   58.4750 O   0  0  0  0  0  0  0  0  0  0  0  0
   40.8820   77.9100   58.9080 H   0  0  0  0  0  0  0  0  0  0  0  0
  1  6  1  0  0  0  0
  2  3  1  0  0  0  0
  2  1  2  0  0  0  0
  3  4  2  0  0  0  0
  4  5  1  0  0  0  0
  5  9  1  0  0  0  0
  6  5  2  0  0  0  0
  7  2  1  0  0  0  0
  8  3  1  0  0  0  0
 10  1  1  0  0  0  0
 10 11  1  0  0  0  0
 11 12  2  0  0  0  0
 12 13  1  0  0  0  0
 14 15  2  0  0  0  0
 14 12  1  0  0  0  0
 16 14  1  0  0  0  0
 17 16  1  0  0  0  0
 17 10  1  0  0  0  0
 18 17  2  0  0  0  0
 19 16  1  0  0  0  0
M  END
>  <minimizedAffinity>
-4.95874166

>  <minimizedRMSD>
0.497186244

$$$$
