
 OpenBabel03212519593D

 19 20  0  0  0  0  0  0  0  0999 V2000
   43.0580   84.4290   56.6490 C   0  0  0  0  0  0  0  0  0  0  0  0
   42.8820   83.5110   55.5930 C   0  0  0  0  0  0  0  0  0  0  0  0
   41.8990   82.5110   55.7460 C   0  0  0  0  0  0  0  0  0  0  0  0
   41.1740   82.4810   56.8960 N   0  0  0  0  0  0  0  0  0  0  0  0
   41.3710   83.3760   57.8850 C   0  0  0  0  0  0  0  0  0  0  0  0
   42.3040   84.3360   57.7570 N   0  0  0  0  0  0  0  0  0  0  0  0
   43.7980   85.2060   56.5710 H   0  0  0  0  0  0  0  0  0  0  0  0
   43.4990   83.6100   54.7190 H   0  0  0  0  0  0  0  0  0  0  0  0
   41.7530   81.8080   54.9540 H   0  0  0  0  0  0  0  0  0  0  0  0
   40.6360   83.3800   59.1040 N   0  0  0  0  0  0  0  0  0  0  0  0
   40.6760   82.2460   59.8230 C   0  0  0  0  0  3  0  0  0  0  0  0
   39.9790   82.1960   61.0150 C   0  0  0  0  0  0  0  0  0  0  0  0
   39.9460   81.3370   61.6650 H   0  0  0  0  0  0  0  0  0  0  0  0
   39.2720   83.3350   61.3990 C   0  0  0  0  0  0  0  0  0  0  0  0
   38.6200   83.3190   62.4940 O   0  0  0  0  0  0  0  0  0  0  0  0
   39.2580   84.4650   60.6390 N   0  0  0  0  0  0  0  0  0  0  0  0
   39.9500   84.4700   59.4860 C   0  0  0  0  0  0  0  0  0  0  0  0
   40.0030   85.4640   58.7090 O   0  0  0  0  0  0  0  0  0  0  0  0
   38.7320   85.3220   60.9170 H   0  0  0  0  0  0  0  0  0  0  0  0
  1  6  1  0  0  0  0
  2  3  1  0  0  0  0
  2  1  2  0  0  0  0
  3  4  2  0  0  0  0
  4  5  1  0  0  0  0
  5 10  1  0  0  0  0
  6  5  2  0  0  0  0
  7  1  1  0  0  0  0
  8  2  1  0  0  0  0
  9  3  1  0  0  0  0
 10 17  1  0  0  0  0
 10 11  1  0  0  0  0
 11 12  2  0  0  0  0
 12 14  1  0  0  0  0
 12 13  1  0  0  0  0
 14 15  2  0  0  0  0
 16 19  1  0  0  0  0
 16 14  1  0  0  0  0
 17 16  1  0  0  0  0
 18 17  2  0  0  0  0
M  END
>  <minimizedAffinity>
-4.1459527

>  <minimizedRMSD>
5.19521189

$$$$
