
 OpenBabel03212520583D

 43 47  0  0  1  0  0  0  0  0999 V2000
   39.7450   77.2830   59.2180 C   0  0  0  0  0  0  0  0  0  0  0  0
   40.4200   76.1320   58.9540 C   0  0  0  0  0  0  0  0  0  0  0  0
   39.8550   75.4160   57.8860 C   0  0  0  0  0  0  0  0  0  0  0  0
   38.7700   75.8150   57.1980 N   0  0  0  0  0  0  0  0  0  0  0  0
   38.1680   76.9910   57.5480 C   0  0  0  0  0  0  0  0  0  0  0  0
   38.6610   77.7300   58.5670 N   0  0  0  0  0  0  0  0  0  0  0  0
   41.2850   75.7690   59.4680 H   0  0  0  0  0  0  0  0  0  0  0  0
   40.2850   74.4720   57.5560 H   0  0  0  0  0  0  0  0  0  0  0  0
   40.9830   80.2500   61.7290 C   0  0  0  0  0  0  0  0  0  0  0  0
   40.9930   79.0160   62.3440 C   0  0  0  0  0  0  0  0  0  0  0  0
   40.5990   77.9560   61.6030 C   0  0  0  0  0  0  0  0  0  0  0  0
   40.2120   78.1350   60.2920 C   0  0  0  0  0  0  0  0  0  0  0  0
   40.4030   79.9460   60.0360 S   0  0  0  0  0  0  0  0  0  0  0  0
   41.2980   78.8770   63.3770 H   0  0  0  0  0  0  0  0  0  0  0  0
   40.5360   76.9180   61.8980 H   0  0  0  0  0  0  0  0  0  0  0  0
   43.0660   83.0650   62.8340 C   0  0  0  0  0  0  0  0  0  0  0  0
   42.1700   83.8250   63.6250 C   0  0  0  0  0  0  0  0  0  0  0  0
   40.8580   83.3760   63.7740 C   0  0  0  0  0  0  0  0  0  0  0  0
   40.4970   82.2310   63.1560 N   0  0  0  0  0  0  0  0  0  0  0  0
   41.3810   81.5160   62.4000 C   0  0  0  0  0  0  0  0  0  0  0  0
   42.6370   81.9370   62.2510 N   0  0  0  0  0  0  0  0  0  0  0  0
   44.0830   83.4100   62.7170 H   0  0  0  0  0  0  0  0  0  0  0  0
   42.4640   84.7410   64.1160 H   0  0  0  0  0  0  0  0  0  0  0  0
   40.1130   83.8920   64.3560 H   0  0  0  0  0  0  0  0  0  0  0  0
   37.0050   77.4030   56.7820 C   0  0  0  0  0  0  0  0  0  0  0  0
   35.8980   76.9880   57.1610 O   0  0  0  0  0  0  0  0  0  0  0  0
   37.1190   78.2900   55.5670 C   0  0  1  0  0  0  0  0  0  0  0  0
   37.2790   79.7510   55.9230 C   0  0  0  0  0  0  0  0  0  0  0  0
   38.3560   78.9860   55.2910 C   0  0  2  0  0  0  0  0  0  0  0  0
   36.2690   78.1670   54.8390 H   0  0  0  0  0  0  0  0  0  0  0  0
   36.7060   80.4720   55.3230 H   0  0  0  0  0  0  0  0  0  0  0  0
   37.3650   80.0350   57.0010 H   0  0  0  0  0  0  0  0  0  0  0  0
   39.2540   78.6720   55.9000 H   0  0  0  0  0  0  0  0  0  0  0  0
   38.7600   79.3730   53.9570 N   0  0  0  0  0  0  0  0  0  0  0  0
   38.0400   78.8150   52.9430 C   0  0  0  0  0  3  0  0  0  0  0  0
   38.2930   79.0790   51.6040 C   0  0  0  0  0  0  0  0  0  0  0  0
   37.7060   78.6210   50.8210 H   0  0  0  0  0  0  0  0  0  0  0  0
   39.3230   79.9450   51.3150 C   0  0  0  0  0  0  0  0  0  0  0  0
   39.6010   80.2220   50.1250 O   0  0  0  0  0  0  0  0  0  0  0  0
   40.0150   80.4800   52.3420 N   0  0  0  0  0  0  0  0  0  0  0  0
   39.7540   80.2130   53.6350 C   0  0  0  0  0  0  0  0  0  0  0  0
   40.3930   80.7060   54.6000 O   0  0  0  0  0  0  0  0  0  0  0  0
   40.8060   81.1440   52.1890 H   0  0  0  0  0  0  0  0  0  0  0  0
  1 12  1  0  0  0  0
  2  1  1  0  0  0  0
  2  7  1  0  0  0  0
  3  2  2  0  0  0  0
  4  5  2  0  0  0  0
  4  3  1  0  0  0  0
  5  6  1  0  0  0  0
  6  1  2  0  0  0  0
  8  3  1  0  0  0  0
  9 10  2  0  0  0  0
  9 20  1  0  0  0  0
 10 14  1  0  0  0  0
 11 15  1  0  0  0  0
 11 10  1  0  0  0  0
 12 11  2  0  0  0  0
 13 12  1  0  0  0  0
 13  9  1  0  0  0  0
 16 17  1  0  0  0  0
 17 18  2  0  0  0  0
 17 23  1  0  0  0  0
 18 24  1  0  0  0  0
 19 18  1  0  0  0  0
 20 19  2  0  0  0  0
 21 20  1  0  0  0  0
 21 16  2  0  0  0  0
 22 16  1  0  0  0  0
 25 26  2  0  0  0  0
 25  5  1  0  0  0  0
 27 30  1  6  0  0  0
 27 28  1  0  0  0  0
 27 25  1  0  0  0  0
 28 32  1  0  0  0  0
 29 27  1  0  0  0  0
 29 33  1  1  0  0  0
 29 28  1  0  0  0  0
 31 28  1  0  0  0  0
 34 29  1  0  0  0  0
 35 34  1  0  0  0  0
 36 35  2  0  0  0  0
 37 36  1  0  0  0  0
 38 36  1  0  0  0  0
 38 40  1  0  0  0  0
 39 38  2  0  0  0  0
 40 41  1  0  0  0  0
 41 34  1  0  0  0  0
 41 42  2  0  0  0  0
 43 40  1  0  0  0  0
M  END
>  <minimizedAffinity>
-6.69663715

>  <minimizedRMSD>
0.791797698

$$$$
