
 OpenBabel03212520423D

 19 20  0  0  0  0  0  0  0  0999 V2000
   39.9580   81.9630   60.6170 C   0  0  0  0  0  0  0  0  0  0  0  0
   40.0710   82.8740   59.5580 C   0  0  0  0  0  0  0  0  0  0  0  0
   39.5760   84.1690   59.7650 C   0  0  0  0  0  0  0  0  0  0  0  0
   39.0200   84.4670   60.9690 N   0  0  0  0  0  0  0  0  0  0  0  0
   38.9270   83.5720   61.9640 C   0  0  0  0  0  0  0  0  0  0  0  0
   39.3950   82.3110   61.7990 N   0  0  0  0  0  0  0  0  0  0  0  0
   40.5360   82.4830   58.6680 H   0  0  0  0  0  0  0  0  0  0  0  0
   39.6810   84.8360   58.9320 H   0  0  0  0  0  0  0  0  0  0  0  0
   38.4730   83.8630   62.9100 H   0  0  0  0  0  0  0  0  0  0  0  0
   40.4030   80.6110   60.5920 N   0  0  0  0  0  0  0  0  0  0  0  0
   40.4380   80.0860   61.8430 C   0  0  0  0  0  3  0  0  0  0  0  0
   40.8450   78.7680   62.0550 C   0  0  0  0  0  0  0  0  0  0  0  0
   40.8890   78.3070   63.0290 H   0  0  0  0  0  0  0  0  0  0  0  0
   41.2080   78.0240   60.9450 C   0  0  0  0  0  0  0  0  0  0  0  0
   41.5820   76.8300   61.0900 O   0  0  0  0  0  0  0  0  0  0  0  0
   41.1560   78.5870   59.7270 N   0  0  0  0  0  0  0  0  0  0  0  0
   40.7620   79.8570   59.5360 C   0  0  0  0  0  0  0  0  0  0  0  0
   40.6860   80.4590   58.4340 O   0  0  0  0  0  0  0  0  0  0  0  0
   41.4180   78.0700   58.8630 H   0  0  0  0  0  0  0  0  0  0  0  0
  1  6  1  0  0  0  0
  2  3  1  0  0  0  0
  2  1  2  0  0  0  0
  3  4  2  0  0  0  0
  4  5  1  0  0  0  0
  5  9  1  0  0  0  0
  6  5  2  0  0  0  0
  7  2  1  0  0  0  0
  8  3  1  0  0  0  0
 10  1  1  0  0  0  0
 10 11  1  0  0  0  0
 11 12  2  0  0  0  0
 12 13  1  0  0  0  0
 14 15  2  0  0  0  0
 14 12  1  0  0  0  0
 16 14  1  0  0  0  0
 17 16  1  0  0  0  0
 17 10  1  0  0  0  0
 18 17  2  0  0  0  0
 19 16  1  0  0  0  0
M  END
>  <minimizedAffinity>
-4.86375284

>  <minimizedRMSD>
0.459971637

$$$$
