
 OpenBabel03212520083D

 19 20  0  0  0  0  0  0  0  0999 V2000
   40.7760   83.1550   60.9260 N   0  0  0  0  0  0  0  0  0  0  0  0
   41.5220   82.1040   60.5840 C   0  0  0  0  0  0  0  0  0  0  0  0
   41.3310   81.5460   59.3160 C   0  0  0  0  0  0  0  0  0  0  0  0
   41.9000   80.6910   58.9670 H   0  0  0  0  0  0  0  0  0  0  0  0
   40.3790   82.1020   58.4620 C   0  0  0  0  0  0  0  0  0  0  0  0
   40.1410   81.6660   57.3080 O   0  0  0  0  0  0  0  0  0  0  0  0
   39.6640   83.1710   58.8900 N   0  0  0  0  0  0  0  0  0  0  0  0
   39.8480   83.7160   60.1260 C   0  0  0  0  0  0  0  0  0  0  0  0
   39.1880   84.7030   60.5180 O   0  0  0  0  0  0  0  0  0  0  0  0
   38.9440   83.5850   58.2360 H   0  0  0  0  0  0  0  0  0  0  0  0
   40.2710   83.2270   63.3240 C   0  0  0  0  0  0  0  0  0  0  0  0
   41.0480   83.6480   62.2360 C   0  0  0  0  0  0  0  0  0  0  0  0
   42.0860   84.5610   62.4820 C   0  0  0  0  0  0  0  0  0  0  0  0
   42.2770   84.9810   63.7630 N   0  0  0  0  0  0  0  0  0  0  0  0
   41.5090   84.5520   64.7810 C   0  0  0  0  0  0  0  0  0  0  0  0
   40.5100   83.6770   64.5600 N   0  0  0  0  0  0  0  0  0  0  0  0
   39.4550   82.5250   63.2030 H   0  0  0  0  0  0  0  0  0  0  0  0
   42.6960   84.8990   61.6630 H   0  0  0  0  0  0  0  0  0  0  0  0
   41.6680   84.8950   65.8100 H   0  0  0  0  0  0  0  0  0  0  0  0
  1 12  1  0  0  0  0
  2  1  1  0  0  0  0
  3  2  2  0  0  0  0
  4  3  1  0  0  0  0
  5  7  1  0  0  0  0
  5  3  1  0  0  0  0
  6  5  2  0  0  0  0
  7  8  1  0  0  0  0
  8  9  2  0  0  0  0
  8  1  1  0  0  0  0
 10  7  1  0  0  0  0
 11 16  1  0  0  0  0
 12 13  1  0  0  0  0
 12 11  2  0  0  0  0
 13 14  2  0  0  0  0
 14 15  1  0  0  0  0
 15 19  1  0  0  0  0
 16 15  2  0  0  0  0
 17 11  1  0  0  0  0
 18 13  1  0  0  0  0
M  END
>  <minimizedAffinity>
-4.66802979

>  <minimizedRMSD>
3.16268682

$$$$
