
 OpenBabel03212520433D

 19 20  0  0  0  0  0  0  0  0999 V2000
   40.1560   82.0460   60.7100 C   0  0  0  0  0  0  0  0  0  0  0  0
   40.2030   82.9340   59.6270 C   0  0  0  0  0  0  0  0  0  0  0  0
   39.5590   84.1690   59.7770 C   0  0  0  0  0  0  0  0  0  0  0  0
   38.9310   84.4360   60.9530 N   0  0  0  0  0  0  0  0  0  0  0  0
   38.9040   83.5630   61.9730 C   0  0  0  0  0  0  0  0  0  0  0  0
   39.5160   82.3590   61.8620 N   0  0  0  0  0  0  0  0  0  0  0  0
   40.7410   82.5730   58.7650 H   0  0  0  0  0  0  0  0  0  0  0  0
   39.6190   84.8200   58.9270 H   0  0  0  0  0  0  0  0  0  0  0  0
   38.3860   83.8270   62.8930 H   0  0  0  0  0  0  0  0  0  0  0  0
   40.7500   80.7520   60.7420 N   0  0  0  0  0  0  0  0  0  0  0  0
   40.2500   80.0110   61.7620 C   0  0  0  0  0  3  0  0  0  0  0  0
   40.6900   78.7050   61.9820 C   0  0  0  0  0  0  0  0  0  0  0  0
   40.3240   78.0780   62.7790 H   0  0  0  0  0  0  0  0  0  0  0  0
   41.6520   78.2010   61.1230 C   0  0  0  0  0  0  0  0  0  0  0  0
   42.0790   77.0270   61.2840 O   0  0  0  0  0  0  0  0  0  0  0  0
   42.1160   78.9720   60.1270 N   0  0  0  0  0  0  0  0  0  0  0  0
   41.6830   80.2280   59.9260 C   0  0  0  0  0  0  0  0  0  0  0  0
   42.0650   81.0150   59.0210 O   0  0  0  0  0  0  0  0  0  0  0  0
   42.8370   78.6400   59.4560 H   0  0  0  0  0  0  0  0  0  0  0  0
  1 10  1  0  0  0  0
  1  6  1  0  0  0  0
  2  3  1  0  0  0  0
  2  1  2  0  0  0  0
  3  4  2  0  0  0  0
  4  5  1  0  0  0  0
  5  9  1  0  0  0  0
  6  5  2  0  0  0  0
  7  2  1  0  0  0  0
  8  3  1  0  0  0  0
 10 11  1  0  0  0  0
 11 12  2  0  0  0  0
 12 13  1  0  0  0  0
 14 15  2  0  0  0  0
 14 12  1  0  0  0  0
 16 14  1  0  0  0  0
 17 16  1  0  0  0  0
 17 10  1  0  0  0  0
 18 17  2  0  0  0  0
 19 16  1  0  0  0  0
M  END
>  <minimizedAffinity>
-4.77445316

>  <minimizedRMSD>
0.28007859

$$$$
