
 OpenBabel03212520583D

 43 47  0  0  1  0  0  0  0  0999 V2000
   39.9180   77.5450   59.1030 C   0  0  0  0  0  0  0  0  0  0  0  0
   40.7020   76.4910   58.7530 C   0  0  0  0  0  0  0  0  0  0  0  0
   40.1900   75.7900   57.6490 C   0  0  0  0  0  0  0  0  0  0  0  0
   39.0530   76.1150   57.0070 N   0  0  0  0  0  0  0  0  0  0  0  0
   38.3400   77.1960   57.4440 C   0  0  0  0  0  0  0  0  0  0  0  0
   38.7780   77.9160   58.5020 N   0  0  0  0  0  0  0  0  0  0  0  0
   41.6120   76.1880   59.2270 H   0  0  0  0  0  0  0  0  0  0  0  0
   40.7080   74.9190   57.2500 H   0  0  0  0  0  0  0  0  0  0  0  0
   40.9930   80.4510   61.7570 C   0  0  0  0  0  0  0  0  0  0  0  0
   40.9800   79.2000   62.3380 C   0  0  0  0  0  0  0  0  0  0  0  0
   40.6360   78.1590   61.5490 C   0  0  0  0  0  0  0  0  0  0  0  0
   40.3190   78.3700   60.2240 C   0  0  0  0  0  0  0  0  0  0  0  0
   40.5070   80.1900   60.0270 S   0  0  0  0  0  0  0  0  0  0  0  0
   41.2310   79.0350   63.3820 H   0  0  0  0  0  0  0  0  0  0  0  0
   40.5660   77.1120   61.8110 H   0  0  0  0  0  0  0  0  0  0  0  0
   42.9830   83.2630   63.0280 C   0  0  0  0  0  0  0  0  0  0  0  0
   42.0450   83.9820   63.8090 C   0  0  0  0  0  0  0  0  0  0  0  0
   40.7370   83.5050   63.8950 C   0  0  0  0  0  0  0  0  0  0  0  0
   40.4200   82.3760   63.2270 N   0  0  0  0  0  0  0  0  0  0  0  0
   41.3430   81.7010   62.4820 C   0  0  0  0  0  0  0  0  0  0  0  0
   42.5960   82.1480   62.3940 N   0  0  0  0  0  0  0  0  0  0  0  0
   43.9970   83.6290   62.9600 H   0  0  0  0  0  0  0  0  0  0  0  0
   42.3040   84.8860   64.3400 H   0  0  0  0  0  0  0  0  0  0  0  0
   39.9620   83.9900   64.4650 H   0  0  0  0  0  0  0  0  0  0  0  0
   37.1230   77.5320   56.7270 C   0  0  0  0  0  0  0  0  0  0  0  0
   36.0640   77.0320   57.1380 O   0  0  0  0  0  0  0  0  0  0  0  0
   37.1270   78.4410   55.5230 C   0  0  1  0  0  0  0  0  0  0  0  0
   37.3350   79.8930   55.8880 C   0  0  0  0  0  0  0  0  0  0  0  0
   38.3380   79.1330   55.1410 C   0  0  2  0  0  0  0  0  0  0  0  0
   36.2100   78.3380   54.8790 H   0  0  0  0  0  0  0  0  0  0  0  0
   36.7140   80.6300   55.3600 H   0  0  0  0  0  0  0  0  0  0  0  0
   37.5280   80.1570   56.9580 H   0  0  0  0  0  0  0  0  0  0  0  0
   39.2880   78.8000   55.6540 H   0  0  0  0  0  0  0  0  0  0  0  0
   38.6150   79.5420   53.7820 N   0  0  0  0  0  0  0  0  0  0  0  0
   37.5210   79.6810   52.9790 C   0  0  0  0  0  3  0  0  0  0  0  0
   37.6060   80.0670   51.6480 C   0  0  0  0  0  0  0  0  0  0  0  0
   36.7210   80.1700   51.0360 H   0  0  0  0  0  0  0  0  0  0  0  0
   38.8610   80.3110   51.1420 C   0  0  0  0  0  0  0  0  0  0  0  0
   39.0030   80.6620   49.9470 O   0  0  0  0  0  0  0  0  0  0  0  0
   39.9210   80.1630   51.9610 N   0  0  0  0  0  0  0  0  0  0  0  0
   39.8190   79.7890   53.2500 C   0  0  0  0  0  0  0  0  0  0  0  0
   40.8020   79.6480   54.0220 O   0  0  0  0  0  0  0  0  0  0  0  0
   40.8990   80.3340   51.6360 H   0  0  0  0  0  0  0  0  0  0  0  0
  1 12  1  0  0  0  0
  2  1  1  0  0  0  0
  2  7  1  0  0  0  0
  3  2  2  0  0  0  0
  4  5  2  0  0  0  0
  4  3  1  0  0  0  0
  5  6  1  0  0  0  0
  6  1  2  0  0  0  0
  8  3  1  0  0  0  0
  9 10  2  0  0  0  0
  9 20  1  0  0  0  0
 10 14  1  0  0  0  0
 11 15  1  0  0  0  0
 11 10  1  0  0  0  0
 12 11  2  0  0  0  0
 13 12  1  0  0  0  0
 13  9  1  0  0  0  0
 16 17  1  0  0  0  0
 17 18  2  0  0  0  0
 17 23  1  0  0  0  0
 18 24  1  0  0  0  0
 19 18  1  0  0  0  0
 20 19  2  0  0  0  0
 21 20  1  0  0  0  0
 21 16  2  0  0  0  0
 22 16  1  0  0  0  0
 25 26  2  0  0  0  0
 25  5  1  0  0  0  0
 27 30  1  6  0  0  0
 27 28  1  0  0  0  0
 27 25  1  0  0  0  0
 28 32  1  0  0  0  0
 29 27  1  0  0  0  0
 29 33  1  1  0  0  0
 29 28  1  0  0  0  0
 31 28  1  0  0  0  0
 34 29  1  0  0  0  0
 35 34  1  0  0  0  0
 36 35  2  0  0  0  0
 37 36  1  0  0  0  0
 38 36  1  0  0  0  0
 38 40  1  0  0  0  0
 39 38  2  0  0  0  0
 40 41  1  0  0  0  0
 41 34  1  0  0  0  0
 41 42  2  0  0  0  0
 43 40  1  0  0  0  0
M  END
>  <minimizedAffinity>
-6.61443567

>  <minimizedRMSD>
0.576322556

$$$$
