
 OpenBabel03212520433D

 19 20  0  0  0  0  0  0  0  0999 V2000
   40.2370   82.1590   60.9550 C   0  0  0  0  0  0  0  0  0  0  0  0
   40.2610   82.9010   59.7660 C   0  0  0  0  0  0  0  0  0  0  0  0
   39.5550   84.1120   59.7470 C   0  0  0  0  0  0  0  0  0  0  0  0
   38.8940   84.4960   60.8700 N   0  0  0  0  0  0  0  0  0  0  0  0
   38.8910   83.7630   61.9950 C   0  0  0  0  0  0  0  0  0  0  0  0
   39.5620   82.5870   62.0480 N   0  0  0  0  0  0  0  0  0  0  0  0
   40.8310   82.4600   58.9650 H   0  0  0  0  0  0  0  0  0  0  0  0
   39.5980   84.6490   58.8200 H   0  0  0  0  0  0  0  0  0  0  0  0
   38.3440   84.1160   62.8670 H   0  0  0  0  0  0  0  0  0  0  0  0
   40.8930   80.9120   61.1610 N   0  0  0  0  0  0  0  0  0  0  0  0
   40.2410   79.9080   60.5200 C   0  0  0  0  0  3  0  0  0  0  0  0
   40.7080   78.5950   60.5850 C   0  0  0  0  0  0  0  0  0  0  0  0
   40.2260   77.7650   60.0940 H   0  0  0  0  0  0  0  0  0  0  0  0
   41.8550   78.3600   61.3240 C   0  0  0  0  0  0  0  0  0  0  0  0
   42.3140   77.1900   61.4100 O   0  0  0  0  0  0  0  0  0  0  0  0
   42.4650   79.3850   61.9390 N   0  0  0  0  0  0  0  0  0  0  0  0
   42.0050   80.6450   61.8700 C   0  0  0  0  0  0  0  0  0  0  0  0
   42.5140   81.6590   62.4140 O   0  0  0  0  0  0  0  0  0  0  0  0
   43.3290   79.2600   62.5060 H   0  0  0  0  0  0  0  0  0  0  0  0
  1 10  1  0  0  0  0
  1  6  1  0  0  0  0
  2  1  2  0  0  0  0
  3  2  1  0  0  0  0
  3  4  2  0  0  0  0
  4  5  1  0  0  0  0
  5  6  2  0  0  0  0
  5  9  1  0  0  0  0
  7  2  1  0  0  0  0
  8  3  1  0  0  0  0
 10 17  1  0  0  0  0
 11 12  2  0  0  0  0
 11 10  1  0  0  0  0
 12 14  1  0  0  0  0
 13 12  1  0  0  0  0
 14 15  2  0  0  0  0
 14 16  1  0  0  0  0
 16 19  1  0  0  0  0
 17 16  1  0  0  0  0
 17 18  2  0  0  0  0
M  END
>  <minimizedAffinity>
-4.87409878

>  <minimizedRMSD>
0.519574463

$$$$
