
 OpenBabel03212520593D

 43 47  0  0  1  0  0  0  0  0999 V2000
   39.6660   77.1690   59.1390 C   0  0  0  0  0  0  0  0  0  0  0  0
   40.3270   76.0100   58.8730 C   0  0  0  0  0  0  0  0  0  0  0  0
   39.7460   75.2980   57.8110 C   0  0  0  0  0  0  0  0  0  0  0  0
   38.6610   75.7070   57.1300 N   0  0  0  0  0  0  0  0  0  0  0  0
   38.0730   76.8900   57.4810 C   0  0  0  0  0  0  0  0  0  0  0  0
   38.5820   77.6260   58.4960 N   0  0  0  0  0  0  0  0  0  0  0  0
   41.1920   75.6390   59.3810 H   0  0  0  0  0  0  0  0  0  0  0  0
   40.1640   74.3490   57.4790 H   0  0  0  0  0  0  0  0  0  0  0  0
   40.9680   80.1260   61.6300 C   0  0  0  0  0  0  0  0  0  0  0  0
   40.9460   78.8970   62.2540 C   0  0  0  0  0  0  0  0  0  0  0  0
   40.5300   77.8410   61.5210 C   0  0  0  0  0  0  0  0  0  0  0  0
   40.1500   78.0180   60.2080 C   0  0  0  0  0  0  0  0  0  0  0  0
   40.3840   79.8230   59.9370 S   0  0  0  0  0  0  0  0  0  0  0  0
   41.2460   78.7600   63.2890 H   0  0  0  0  0  0  0  0  0  0  0  0
   40.4410   76.8070   61.8240 H   0  0  0  0  0  0  0  0  0  0  0  0
   43.1140   82.9000   62.7180 C   0  0  0  0  0  0  0  0  0  0  0  0
   42.2330   83.6870   63.5000 C   0  0  0  0  0  0  0  0  0  0  0  0
   40.9110   83.2700   63.6490 C   0  0  0  0  0  0  0  0  0  0  0  0
   40.5250   82.1290   63.0390 N   0  0  0  0  0  0  0  0  0  0  0  0
   41.3930   81.3880   62.2910 C   0  0  0  0  0  0  0  0  0  0  0  0
   42.6590   81.7780   62.1430 N   0  0  0  0  0  0  0  0  0  0  0  0
   44.1380   83.2200   62.6010 H   0  0  0  0  0  0  0  0  0  0  0  0
   42.5480   84.6000   63.9850 H   0  0  0  0  0  0  0  0  0  0  0  0
   40.1770   83.8090   64.2250 H   0  0  0  0  0  0  0  0  0  0  0  0
   36.9090   77.3130   56.7240 C   0  0  0  0  0  0  0  0  0  0  0  0
   35.7960   77.1320   57.2420 O   0  0  0  0  0  0  0  0  0  0  0  0
   37.0280   77.9380   55.3560 C   0  0  1  0  0  0  0  0  0  0  0  0
   37.4250   79.3960   55.4120 C   0  0  0  0  0  0  0  0  0  0  0  0
   38.3170   78.3720   54.8650 C   0  0  2  0  0  0  0  0  0  0  0  0
   36.1020   77.8210   54.7260 H   0  0  0  0  0  0  0  0  0  0  0  0
   36.9040   80.0780   54.7270 H   0  0  0  0  0  0  0  0  0  0  0  0
   37.6550   79.8520   56.4070 H   0  0  0  0  0  0  0  0  0  0  0  0
   39.2170   78.0350   55.4600 H   0  0  0  0  0  0  0  0  0  0  0  0
   38.6390   78.4450   53.4580 N   0  0  0  0  0  0  0  0  0  0  0  0
   38.3090   79.6160   52.8420 C   0  0  0  0  0  3  0  0  0  0  0  0
   38.5460   79.8540   51.4950 C   0  0  0  0  0  0  0  0  0  0  0  0
   38.2740   80.7930   51.0350 H   0  0  0  0  0  0  0  0  0  0  0  0
   39.1440   78.8460   50.7730 C   0  0  0  0  0  0  0  0  0  0  0  0
   39.3850   79.0020   49.5520 O   0  0  0  0  0  0  0  0  0  0  0  0
   39.4580   77.7010   51.4120 N   0  0  0  0  0  0  0  0  0  0  0  0
   39.2180   77.4890   52.7190 C   0  0  0  0  0  0  0  0  0  0  0  0
   39.5060   76.4250   53.3240 O   0  0  0  0  0  0  0  0  0  0  0  0
   39.9110   76.9000   50.9190 H   0  0  0  0  0  0  0  0  0  0  0  0
  1 12  1  0  0  0  0
  2  1  1  0  0  0  0
  2  7  1  0  0  0  0
  3  2  2  0  0  0  0
  4  5  2  0  0  0  0
  4  3  1  0  0  0  0
  5  6  1  0  0  0  0
  6  1  2  0  0  0  0
  8  3  1  0  0  0  0
  9 10  2  0  0  0  0
  9 20  1  0  0  0  0
 10 14  1  0  0  0  0
 11 15  1  0  0  0  0
 11 10  1  0  0  0  0
 12 11  2  0  0  0  0
 13 12  1  0  0  0  0
 13  9  1  0  0  0  0
 16 17  1  0  0  0  0
 17 18  2  0  0  0  0
 17 23  1  0  0  0  0
 18 24  1  0  0  0  0
 19 18  1  0  0  0  0
 20 19  2  0  0  0  0
 21 20  1  0  0  0  0
 21 16  2  0  0  0  0
 22 16  1  0  0  0  0
 25 26  2  0  0  0  0
 25  5  1  0  0  0  0
 27 30  1  6  0  0  0
 27 28  1  0  0  0  0
 27 25  1  0  0  0  0
 28 32  1  0  0  0  0
 29 27  1  0  0  0  0
 29 28  1  0  0  0  0
 29 33  1  1  0  0  0
 31 28  1  0  0  0  0
 34 29  1  0  0  0  0
 35 34  1  0  0  0  0
 36 35  2  0  0  0  0
 37 36  1  0  0  0  0
 38 40  1  0  0  0  0
 38 36  1  0  0  0  0
 39 38  2  0  0  0  0
 40 41  1  0  0  0  0
 41 42  2  0  0  0  0
 41 34  1  0  0  0  0
 43 40  1  0  0  0  0
M  END
>  <minimizedAffinity>
-6.49537802

>  <minimizedRMSD>
1.04947984

$$$$
