
 OpenBabel03212520583D

 43 47  0  0  1  0  0  0  0  0999 V2000
   39.7620   77.2540   59.3130 C   0  0  0  0  0  0  0  0  0  0  0  0
   40.3800   76.0560   59.1400 C   0  0  0  0  0  0  0  0  0  0  0  0
   39.8360   75.3250   58.0710 C   0  0  0  0  0  0  0  0  0  0  0  0
   38.8190   75.7550   57.3010 N   0  0  0  0  0  0  0  0  0  0  0  0
   38.2700   76.9790   57.5630 C   0  0  0  0  0  0  0  0  0  0  0  0
   38.7470   77.7340   58.5790 N   0  0  0  0  0  0  0  0  0  0  0  0
   41.1890   75.6660   59.7210 H   0  0  0  0  0  0  0  0  0  0  0  0
   40.2260   74.3440   57.8080 H   0  0  0  0  0  0  0  0  0  0  0  0
   40.9780   80.2660   61.7810 C   0  0  0  0  0  0  0  0  0  0  0  0
   40.9650   79.0460   62.4230 C   0  0  0  0  0  0  0  0  0  0  0  0
   40.5770   77.9740   61.6990 C   0  0  0  0  0  0  0  0  0  0  0  0
   40.2160   78.1260   60.3770 C   0  0  0  0  0  0  0  0  0  0  0  0
   40.4260   79.9300   60.0840 S   0  0  0  0  0  0  0  0  0  0  0  0
   41.2510   78.9280   63.4640 H   0  0  0  0  0  0  0  0  0  0  0  0
   40.5000   76.9420   62.0150 H   0  0  0  0  0  0  0  0  0  0  0  0
   43.0570   83.1010   62.8410 C   0  0  0  0  0  0  0  0  0  0  0  0
   42.1600   83.8730   63.6180 C   0  0  0  0  0  0  0  0  0  0  0  0
   40.8480   83.4250   63.7750 C   0  0  0  0  0  0  0  0  0  0  0  0
   40.4890   82.2700   63.1750 N   0  0  0  0  0  0  0  0  0  0  0  0
   41.3740   81.5440   62.4310 C   0  0  0  0  0  0  0  0  0  0  0  0
   42.6290   81.9640   62.2760 N   0  0  0  0  0  0  0  0  0  0  0  0
   44.0730   83.4460   62.7190 H   0  0  0  0  0  0  0  0  0  0  0  0
   42.4520   84.7970   64.0950 H   0  0  0  0  0  0  0  0  0  0  0  0
   40.1030   83.9500   64.3470 H   0  0  0  0  0  0  0  0  0  0  0  0
   37.1810   77.4220   56.7110 C   0  0  0  0  0  0  0  0  0  0  0  0
   36.0390   77.0290   56.9960 O   0  0  0  0  0  0  0  0  0  0  0  0
   37.4110   78.3150   55.5170 C   0  0  1  0  0  0  0  0  0  0  0  0
   37.3900   79.7840   55.8740 C   0  0  0  0  0  0  0  0  0  0  0  0
   38.6130   79.1140   55.4300 C   0  0  2  0  0  0  0  0  0  0  0  0
   36.7000   78.1200   54.6660 H   0  0  0  0  0  0  0  0  0  0  0  0
   36.8610   80.4540   55.1810 H   0  0  0  0  0  0  0  0  0  0  0  0
   37.2800   80.0760   56.9480 H   0  0  0  0  0  0  0  0  0  0  0  0
   39.4270   78.8770   56.1770 H   0  0  0  0  0  0  0  0  0  0  0  0
   39.1890   79.5340   54.1710 N   0  0  0  0  0  0  0  0  0  0  0  0
   40.5260   79.3050   54.0340 C   0  0  0  0  0  3  0  0  0  0  0  0
   41.2370   79.6450   52.8920 C   0  0  0  0  0  0  0  0  0  0  0  0
   42.2960   79.4510   52.8110 H   0  0  0  0  0  0  0  0  0  0  0  0
   40.5360   80.2380   51.8670 C   0  0  0  0  0  0  0  0  0  0  0  0
   41.1230   80.5690   50.8100 O   0  0  0  0  0  0  0  0  0  0  0  0
   39.2150   80.4510   52.0340 N   0  0  0  0  0  0  0  0  0  0  0  0
   38.5430   80.1140   53.1500 C   0  0  0  0  0  0  0  0  0  0  0  0
   37.3110   80.3080   53.3160 O   0  0  0  0  0  0  0  0  0  0  0  0
   38.6290   80.8970   51.2940 H   0  0  0  0  0  0  0  0  0  0  0  0
  1 12  1  0  0  0  0
  2  1  1  0  0  0  0
  2  7  1  0  0  0  0
  3  2  2  0  0  0  0
  4  5  2  0  0  0  0
  4  3  1  0  0  0  0
  5  6  1  0  0  0  0
  6  1  2  0  0  0  0
  8  3  1  0  0  0  0
  9 10  2  0  0  0  0
  9 20  1  0  0  0  0
 10 14  1  0  0  0  0
 11 15  1  0  0  0  0
 11 10  1  0  0  0  0
 12 11  2  0  0  0  0
 13 12  1  0  0  0  0
 13  9  1  0  0  0  0
 16 17  1  0  0  0  0
 17 18  2  0  0  0  0
 17 23  1  0  0  0  0
 18 24  1  0  0  0  0
 19 18  1  0  0  0  0
 20 19  2  0  0  0  0
 21 20  1  0  0  0  0
 21 16  2  0  0  0  0
 22 16  1  0  0  0  0
 25 26  2  0  0  0  0
 25  5  1  0  0  0  0
 27 30  1  6  0  0  0
 27 28  1  0  0  0  0
 27 25  1  0  0  0  0
 28 32  1  0  0  0  0
 29 27  1  0  0  0  0
 29 28  1  0  0  0  0
 29 33  1  1  0  0  0
 31 28  1  0  0  0  0
 34 29  1  0  0  0  0
 35 34  1  0  0  0  0
 36 35  2  0  0  0  0
 37 36  1  0  0  0  0
 38 40  1  0  0  0  0
 38 36  1  0  0  0  0
 39 38  2  0  0  0  0
 40 41  1  0  0  0  0
 41 42  2  0  0  0  0
 41 34  1  0  0  0  0
 43 40  1  0  0  0  0
M  END
>  <minimizedAffinity>
-6.48167038

>  <minimizedRMSD>
0.209841967

$$$$
