
 OpenBabel03212520583D

 43 47  0  0  1  0  0  0  0  0999 V2000
   39.7480   77.2840   59.2180 C   0  0  0  0  0  0  0  0  0  0  0  0
   40.4230   76.1340   58.9550 C   0  0  0  0  0  0  0  0  0  0  0  0
   39.8580   75.4180   57.8870 C   0  0  0  0  0  0  0  0  0  0  0  0
   38.7730   75.8160   57.1980 N   0  0  0  0  0  0  0  0  0  0  0  0
   38.1700   76.9920   57.5490 C   0  0  0  0  0  0  0  0  0  0  0  0
   38.6640   77.7320   58.5680 N   0  0  0  0  0  0  0  0  0  0  0  0
   41.2880   75.7710   59.4680 H   0  0  0  0  0  0  0  0  0  0  0  0
   40.2890   74.4740   57.5560 H   0  0  0  0  0  0  0  0  0  0  0  0
   40.9840   80.2520   61.7300 C   0  0  0  0  0  0  0  0  0  0  0  0
   40.9960   79.0170   62.3440 C   0  0  0  0  0  0  0  0  0  0  0  0
   40.6040   77.9580   61.6030 C   0  0  0  0  0  0  0  0  0  0  0  0
   40.2150   78.1360   60.2930 C   0  0  0  0  0  0  0  0  0  0  0  0
   40.4020   79.9490   60.0370 S   0  0  0  0  0  0  0  0  0  0  0  0
   41.3040   78.8780   63.3770 H   0  0  0  0  0  0  0  0  0  0  0  0
   40.5430   76.9190   61.8970 H   0  0  0  0  0  0  0  0  0  0  0  0
   43.0650   83.0670   62.8390 C   0  0  0  0  0  0  0  0  0  0  0  0
   42.1670   83.8280   63.6270 C   0  0  0  0  0  0  0  0  0  0  0  0
   40.8540   83.3790   63.7730 C   0  0  0  0  0  0  0  0  0  0  0  0
   40.4950   82.2340   63.1550 N   0  0  0  0  0  0  0  0  0  0  0  0
   41.3800   81.5180   62.4010 C   0  0  0  0  0  0  0  0  0  0  0  0
   42.6370   81.9400   62.2550 N   0  0  0  0  0  0  0  0  0  0  0  0
   44.0820   83.4120   62.7240 H   0  0  0  0  0  0  0  0  0  0  0  0
   42.4600   84.7440   64.1190 H   0  0  0  0  0  0  0  0  0  0  0  0
   40.1090   83.8960   64.3530 H   0  0  0  0  0  0  0  0  0  0  0  0
   37.0070   77.4040   56.7830 C   0  0  0  0  0  0  0  0  0  0  0  0
   35.9000   76.9890   57.1620 O   0  0  0  0  0  0  0  0  0  0  0  0
   37.1200   78.2910   55.5680 C   0  0  1  0  0  0  0  0  0  0  0  0
   37.2800   79.7520   55.9240 C   0  0  0  0  0  0  0  0  0  0  0  0
   38.3570   78.9880   55.2910 C   0  0  2  0  0  0  0  0  0  0  0  0
   36.2700   78.1680   54.8400 H   0  0  0  0  0  0  0  0  0  0  0  0
   36.7070   80.4730   55.3240 H   0  0  0  0  0  0  0  0  0  0  0  0
   37.3660   80.0360   57.0020 H   0  0  0  0  0  0  0  0  0  0  0  0
   39.2550   78.6730   55.9000 H   0  0  0  0  0  0  0  0  0  0  0  0
   38.7600   79.3750   53.9580 N   0  0  0  0  0  0  0  0  0  0  0  0
   38.0390   78.8160   52.9440 C   0  0  0  0  0  3  0  0  0  0  0  0
   38.2920   79.0790   51.6050 C   0  0  0  0  0  0  0  0  0  0  0  0
   37.7040   78.6210   50.8220 H   0  0  0  0  0  0  0  0  0  0  0  0
   39.3210   79.9450   51.3160 C   0  0  0  0  0  0  0  0  0  0  0  0
   39.5980   80.2220   50.1250 O   0  0  0  0  0  0  0  0  0  0  0  0
   40.0140   80.4800   52.3410 N   0  0  0  0  0  0  0  0  0  0  0  0
   39.7540   80.2130   53.6350 C   0  0  0  0  0  0  0  0  0  0  0  0
   40.3940   80.7060   54.5980 O   0  0  0  0  0  0  0  0  0  0  0  0
   40.8060   81.1440   52.1870 H   0  0  0  0  0  0  0  0  0  0  0  0
  1 12  1  0  0  0  0
  2  1  1  0  0  0  0
  2  7  1  0  0  0  0
  3  2  2  0  0  0  0
  4  5  2  0  0  0  0
  4  3  1  0  0  0  0
  5  6  1  0  0  0  0
  6  1  2  0  0  0  0
  8  3  1  0  0  0  0
  9 10  2  0  0  0  0
  9 20  1  0  0  0  0
 10 14  1  0  0  0  0
 11 15  1  0  0  0  0
 11 10  1  0  0  0  0
 12 11  2  0  0  0  0
 13 12  1  0  0  0  0
 13  9  1  0  0  0  0
 16 17  1  0  0  0  0
 17 18  2  0  0  0  0
 17 23  1  0  0  0  0
 18 24  1  0  0  0  0
 19 18  1  0  0  0  0
 20 19  2  0  0  0  0
 21 20  1  0  0  0  0
 21 16  2  0  0  0  0
 22 16  1  0  0  0  0
 25 26  2  0  0  0  0
 25  5  1  0  0  0  0
 27 30  1  6  0  0  0
 27 28  1  0  0  0  0
 27 25  1  0  0  0  0
 28 32  1  0  0  0  0
 29 27  1  0  0  0  0
 29 33  1  1  0  0  0
 29 28  1  0  0  0  0
 31 28  1  0  0  0  0
 34 29  1  0  0  0  0
 35 34  1  0  0  0  0
 36 35  2  0  0  0  0
 37 36  1  0  0  0  0
 38 36  1  0  0  0  0
 38 40  1  0  0  0  0
 39 38  2  0  0  0  0
 40 41  1  0  0  0  0
 41 34  1  0  0  0  0
 41 42  2  0  0  0  0
 43 40  1  0  0  0  0
M  END
>  <minimizedAffinity>
-6.69490576

>  <minimizedRMSD>
0.291705102

$$$$
