
 OpenBabel03212519583D

 19 20  0  0  0  0  0  0  0  0999 V2000
   39.8950   81.8720   61.5160 C   0  0  0  0  0  0  0  0  0  0  0  0
   40.2420   80.6100   60.9920 C   0  0  0  0  0  0  0  0  0  0  0  0
   41.0620   80.5760   59.8450 C   0  0  0  0  0  0  0  0  0  0  0  0
   41.4740   81.7530   59.3030 N   0  0  0  0  0  0  0  0  0  0  0  0
   41.1200   82.9420   59.8320 C   0  0  0  0  0  0  0  0  0  0  0  0
   40.3400   82.9950   60.9250 N   0  0  0  0  0  0  0  0  0  0  0  0
   39.2710   81.9410   62.3890 H   0  0  0  0  0  0  0  0  0  0  0  0
   39.8720   79.7300   61.4850 H   0  0  0  0  0  0  0  0  0  0  0  0
   41.3340   79.6260   59.4360 H   0  0  0  0  0  0  0  0  0  0  0  0
   41.5290   84.1960   59.2970 N   0  0  0  0  0  0  0  0  0  0  0  0
   40.9550   84.5610   58.1380 C   0  0  0  0  0  3  0  0  0  0  0  0
   41.3170   85.7690   57.5740 C   0  0  0  0  0  0  0  0  0  0  0  0
   40.9170   86.1540   56.6500 H   0  0  0  0  0  0  0  0  0  0  0  0
   42.2610   86.5410   58.2510 C   0  0  0  0  0  0  0  0  0  0  0  0
   42.6150   87.6610   57.7550 O   0  0  0  0  0  0  0  0  0  0  0  0
   42.8190   86.1330   59.4230 N   0  0  0  0  0  0  0  0  0  0  0  0
   42.4380   84.9480   59.9370 C   0  0  0  0  0  0  0  0  0  0  0  0
   42.8930   84.4790   61.0170 O   0  0  0  0  0  0  0  0  0  0  0  0
   43.5260   86.7040   59.9360 H   0  0  0  0  0  0  0  0  0  0  0  0
  1  7  1  0  0  0  0
  2  8  1  0  0  0  0
  2  1  1  0  0  0  0
  3  2  2  0  0  0  0
  4  5  2  0  0  0  0
  4  3  1  0  0  0  0
  5  6  1  0  0  0  0
  6  1  2  0  0  0  0
  9  3  1  0  0  0  0
 10  5  1  0  0  0  0
 10 17  1  0  0  0  0
 11 10  1  0  0  0  0
 12 11  2  0  0  0  0
 12 14  1  0  0  0  0
 13 12  1  0  0  0  0
 14 16  1  0  0  0  0
 15 14  2  0  0  0  0
 16 19  1  0  0  0  0
 16 17  1  0  0  0  0
 17 18  2  0  0  0  0
M  END
>  <minimizedAffinity>
-4.02459335

>  <minimizedRMSD>
6.08452082

$$$$
