
 OpenBabel03212520433D

 19 20  0  0  0  0  0  0  0  0999 V2000
   40.2350   82.1120   60.5920 C   0  0  0  0  0  0  0  0  0  0  0  0
   40.1860   83.0540   59.5550 C   0  0  0  0  0  0  0  0  0  0  0  0
   39.4890   84.2450   59.7970 C   0  0  0  0  0  0  0  0  0  0  0  0
   38.9060   84.4210   61.0110 N   0  0  0  0  0  0  0  0  0  0  0  0
   38.9710   83.5000   61.9860 C   0  0  0  0  0  0  0  0  0  0  0  0
   39.6360   82.3360   61.7860 N   0  0  0  0  0  0  0  0  0  0  0  0
   40.6990   82.7640   58.6520 H   0  0  0  0  0  0  0  0  0  0  0  0
   39.4750   84.9390   58.9790 H   0  0  0  0  0  0  0  0  0  0  0  0
   38.4850   83.6910   62.9410 H   0  0  0  0  0  0  0  0  0  0  0  0
   40.8940   80.8520   60.5300 N   0  0  0  0  0  0  0  0  0  0  0  0
   41.7580   80.8040   59.4830 C   0  0  0  0  0  3  0  0  0  0  0  0
   42.5130   79.6580   59.2310 C   0  0  0  0  0  0  0  0  0  0  0  0
   43.2110   79.5730   58.4140 H   0  0  0  0  0  0  0  0  0  0  0  0
   42.3480   78.5810   60.0850 C   0  0  0  0  0  0  0  0  0  0  0  0
   43.0090   77.5260   59.8950 O   0  0  0  0  0  0  0  0  0  0  0  0
   41.4810   78.6750   61.1060 N   0  0  0  0  0  0  0  0  0  0  0  0
   40.7590   79.7840   61.3390 C   0  0  0  0  0  0  0  0  0  0  0  0
   39.9290   79.9560   62.2690 O   0  0  0  0  0  0  0  0  0  0  0  0
   41.3210   77.8950   61.7740 H   0  0  0  0  0  0  0  0  0  0  0  0
  1  6  1  0  0  0  0
  2  3  1  0  0  0  0
  2  1  2  0  0  0  0
  3  4  2  0  0  0  0
  4  5  1  0  0  0  0
  5  9  1  0  0  0  0
  6  5  2  0  0  0  0
  7  2  1  0  0  0  0
  8  3  1  0  0  0  0
 10  1  1  0  0  0  0
 10 17  1  0  0  0  0
 11 10  1  0  0  0  0
 12 11  2  0  0  0  0
 12 14  1  0  0  0  0
 13 12  1  0  0  0  0
 14 16  1  0  0  0  0
 15 14  2  0  0  0  0
 16 17  1  0  0  0  0
 16 19  1  0  0  0  0
 17 18  2  0  0  0  0
M  END
>  <minimizedAffinity>
-4.71159124

>  <minimizedRMSD>
0.610191822

$$$$
