
 OpenBabel03212520583D

 43 47  0  0  1  0  0  0  0  0999 V2000
   39.5830   76.9900   59.1760 C   0  0  0  0  0  0  0  0  0  0  0  0
   40.1960   75.7930   58.9740 C   0  0  0  0  0  0  0  0  0  0  0  0
   39.6120   75.0670   57.9230 C   0  0  0  0  0  0  0  0  0  0  0  0
   38.5650   75.4970   57.1960 N   0  0  0  0  0  0  0  0  0  0  0  0
   38.0240   76.7190   57.4850 C   0  0  0  0  0  0  0  0  0  0  0  0
   38.5390   77.4700   58.4850 N   0  0  0  0  0  0  0  0  0  0  0  0
   41.0290   75.4030   59.5210 H   0  0  0  0  0  0  0  0  0  0  0  0
   39.9940   74.0870   57.6400 H   0  0  0  0  0  0  0  0  0  0  0  0
   40.9280   79.9860   61.5970 C   0  0  0  0  0  0  0  0  0  0  0  0
   40.8740   78.7750   62.2550 C   0  0  0  0  0  0  0  0  0  0  0  0
   40.4410   77.7090   61.5470 C   0  0  0  0  0  0  0  0  0  0  0  0
   40.0760   77.8570   60.2260 C   0  0  0  0  0  0  0  0  0  0  0  0
   40.3520   79.6480   59.9080 S   0  0  0  0  0  0  0  0  0  0  0  0
   41.1620   78.6600   63.2960 H   0  0  0  0  0  0  0  0  0  0  0  0
   40.3270   76.6850   61.8770 H   0  0  0  0  0  0  0  0  0  0  0  0
   43.1280   82.7350   62.6390 C   0  0  0  0  0  0  0  0  0  0  0  0
   42.2560   83.5690   63.3800 C   0  0  0  0  0  0  0  0  0  0  0  0
   40.9200   83.1910   63.5180 C   0  0  0  0  0  0  0  0  0  0  0  0
   40.5150   82.0430   62.9360 N   0  0  0  0  0  0  0  0  0  0  0  0
   41.3760   81.2560   62.2270 C   0  0  0  0  0  0  0  0  0  0  0  0
   42.6540   81.6080   62.0900 N   0  0  0  0  0  0  0  0  0  0  0  0
   44.1630   83.0240   62.5310 H   0  0  0  0  0  0  0  0  0  0  0  0
   42.5860   84.4870   63.8430 H   0  0  0  0  0  0  0  0  0  0  0  0
   40.1920   83.7670   64.0640 H   0  0  0  0  0  0  0  0  0  0  0  0
   36.9010   77.1640   56.6790 C   0  0  0  0  0  0  0  0  0  0  0  0
   35.7790   77.1510   57.2080 O   0  0  0  0  0  0  0  0  0  0  0  0
   37.0720   77.6160   55.2500 C   0  0  1  0  0  0  0  0  0  0  0  0
   37.4040   79.0870   55.1390 C   0  0  0  0  0  0  0  0  0  0  0  0
   38.3680   78.0470   54.7750 C   0  0  2  0  0  0  0  0  0  0  0  0
   36.1900   77.3750   54.5930 H   0  0  0  0  0  0  0  0  0  0  0  0
   36.8950   79.6510   54.3440 H   0  0  0  0  0  0  0  0  0  0  0  0
   37.5570   79.6770   56.0770 H   0  0  0  0  0  0  0  0  0  0  0  0
   39.2460   77.8330   55.4530 H   0  0  0  0  0  0  0  0  0  0  0  0
   38.7670   77.9580   53.3880 N   0  0  0  0  0  0  0  0  0  0  0  0
   38.4500   79.0370   52.6170 C   0  0  0  0  0  3  0  0  0  0  0  0
   38.7600   79.1170   51.2670 C   0  0  0  0  0  0  0  0  0  0  0  0
   38.4960   79.9850   50.6800 H   0  0  0  0  0  0  0  0  0  0  0  0
   39.4140   78.0440   50.7050 C   0  0  0  0  0  0  0  0  0  0  0  0
   39.7190   78.0570   49.4900 O   0  0  0  0  0  0  0  0  0  0  0  0
   39.7130   76.9920   51.4950 N   0  0  0  0  0  0  0  0  0  0  0  0
   39.4050   76.9340   52.8040 C   0  0  0  0  0  0  0  0  0  0  0  0
   39.6780   75.9580   53.5490 O   0  0  0  0  0  0  0  0  0  0  0  0
   40.2080   76.1490   51.1280 H   0  0  0  0  0  0  0  0  0  0  0  0
  1 12  1  0  0  0  0
  2  1  1  0  0  0  0
  2  7  1  0  0  0  0
  3  2  2  0  0  0  0
  4  5  2  0  0  0  0
  4  3  1  0  0  0  0
  5  6  1  0  0  0  0
  6  1  2  0  0  0  0
  8  3  1  0  0  0  0
  9 20  1  0  0  0  0
  9 10  2  0  0  0  0
 10 14  1  0  0  0  0
 11 15  1  0  0  0  0
 11 10  1  0  0  0  0
 12 11  2  0  0  0  0
 13 12  1  0  0  0  0
 13  9  1  0  0  0  0
 16 17  1  0  0  0  0
 17 18  2  0  0  0  0
 17 23  1  0  0  0  0
 18 24  1  0  0  0  0
 19 18  1  0  0  0  0
 20 19  2  0  0  0  0
 21 20  1  0  0  0  0
 21 16  2  0  0  0  0
 22 16  1  0  0  0  0
 25 26  2  0  0  0  0
 25  5  1  0  0  0  0
 27 30  1  6  0  0  0
 27 25  1  0  0  0  0
 28 27  1  0  0  0  0
 28 32  1  0  0  0  0
 29 28  1  0  0  0  0
 29 27  1  0  0  0  0
 29 33  1  1  0  0  0
 31 28  1  0  0  0  0
 34 29  1  0  0  0  0
 35 34  1  0  0  0  0
 36 35  2  0  0  0  0
 37 36  1  0  0  0  0
 38 36  1  0  0  0  0
 38 40  1  0  0  0  0
 39 38  2  0  0  0  0
 40 41  1  0  0  0  0
 41 34  1  0  0  0  0
 41 42  2  0  0  0  0
 43 40  1  0  0  0  0
M  END
>  <minimizedAffinity>
-6.49595165

>  <minimizedRMSD>
1.42997885

$$$$
