
 OpenBabel03212520593D

 43 47  0  0  1  0  0  0  0  0999 V2000
   39.9170   77.5460   59.1020 C   0  0  0  0  0  0  0  0  0  0  0  0
   40.7020   76.4930   58.7510 C   0  0  0  0  0  0  0  0  0  0  0  0
   40.1900   75.7910   57.6470 C   0  0  0  0  0  0  0  0  0  0  0  0
   39.0540   76.1170   57.0040 N   0  0  0  0  0  0  0  0  0  0  0  0
   38.3400   77.1980   57.4420 C   0  0  0  0  0  0  0  0  0  0  0  0
   38.7770   77.9170   58.5010 N   0  0  0  0  0  0  0  0  0  0  0  0
   41.6120   76.1900   59.2250 H   0  0  0  0  0  0  0  0  0  0  0  0
   40.7090   74.9210   57.2470 H   0  0  0  0  0  0  0  0  0  0  0  0
   40.9920   80.4510   61.7560 C   0  0  0  0  0  0  0  0  0  0  0  0
   40.9760   79.2000   62.3370 C   0  0  0  0  0  0  0  0  0  0  0  0
   40.6320   78.1590   61.5480 C   0  0  0  0  0  0  0  0  0  0  0  0
   40.3170   78.3710   60.2230 C   0  0  0  0  0  0  0  0  0  0  0  0
   40.5090   80.1900   60.0260 S   0  0  0  0  0  0  0  0  0  0  0  0
   41.2250   79.0360   63.3820 H   0  0  0  0  0  0  0  0  0  0  0  0
   40.5600   77.1130   61.8110 H   0  0  0  0  0  0  0  0  0  0  0  0
   42.9840   83.2620   63.0270 C   0  0  0  0  0  0  0  0  0  0  0  0
   42.0460   83.9810   63.8090 C   0  0  0  0  0  0  0  0  0  0  0  0
   40.7380   83.5040   63.8970 C   0  0  0  0  0  0  0  0  0  0  0  0
   40.4210   82.3750   63.2290 N   0  0  0  0  0  0  0  0  0  0  0  0
   41.3430   81.7000   62.4820 C   0  0  0  0  0  0  0  0  0  0  0  0
   42.5950   82.1480   62.3920 N   0  0  0  0  0  0  0  0  0  0  0  0
   43.9970   83.6290   62.9580 H   0  0  0  0  0  0  0  0  0  0  0  0
   42.3060   84.8840   64.3400 H   0  0  0  0  0  0  0  0  0  0  0  0
   39.9640   83.9890   64.4680 H   0  0  0  0  0  0  0  0  0  0  0  0
   37.1230   77.5330   56.7250 C   0  0  0  0  0  0  0  0  0  0  0  0
   36.0640   77.0330   57.1360 O   0  0  0  0  0  0  0  0  0  0  0  0
   37.1280   78.4420   55.5200 C   0  0  1  0  0  0  0  0  0  0  0  0
   37.3330   79.8940   55.8850 C   0  0  0  0  0  0  0  0  0  0  0  0
   38.3380   79.1340   55.1390 C   0  0  2  0  0  0  0  0  0  0  0  0
   36.2100   78.3380   54.8750 H   0  0  0  0  0  0  0  0  0  0  0  0
   36.7120   80.6300   55.3560 H   0  0  0  0  0  0  0  0  0  0  0  0
   37.5250   80.1580   56.9550 H   0  0  0  0  0  0  0  0  0  0  0  0
   39.2870   78.8020   55.6530 H   0  0  0  0  0  0  0  0  0  0  0  0
   38.6150   79.5430   53.7800 N   0  0  0  0  0  0  0  0  0  0  0  0
   37.5210   79.6850   52.9770 C   0  0  0  0  0  3  0  0  0  0  0  0
   37.6070   80.0700   51.6470 C   0  0  0  0  0  0  0  0  0  0  0  0
   36.7230   80.1740   51.0350 H   0  0  0  0  0  0  0  0  0  0  0  0
   38.8630   80.3130   51.1400 C   0  0  0  0  0  0  0  0  0  0  0  0
   39.0050   80.6650   49.9460 O   0  0  0  0  0  0  0  0  0  0  0  0
   39.9230   80.1640   51.9600 N   0  0  0  0  0  0  0  0  0  0  0  0
   39.8200   79.7900   53.2490 C   0  0  0  0  0  0  0  0  0  0  0  0
   40.8020   79.6480   54.0220 O   0  0  0  0  0  0  0  0  0  0  0  0
   40.9010   80.3340   51.6360 H   0  0  0  0  0  0  0  0  0  0  0  0
  1 12  1  0  0  0  0
  2  1  1  0  0  0  0
  2  7  1  0  0  0  0
  3  2  2  0  0  0  0
  4  5  2  0  0  0  0
  4  3  1  0  0  0  0
  5  6  1  0  0  0  0
  6  1  2  0  0  0  0
  8  3  1  0  0  0  0
  9 10  2  0  0  0  0
  9 20  1  0  0  0  0
 10 14  1  0  0  0  0
 11 15  1  0  0  0  0
 11 10  1  0  0  0  0
 12 11  2  0  0  0  0
 13 12  1  0  0  0  0
 13  9  1  0  0  0  0
 16 17  1  0  0  0  0
 17 18  2  0  0  0  0
 17 23  1  0  0  0  0
 18 24  1  0  0  0  0
 19 18  1  0  0  0  0
 20 19  2  0  0  0  0
 21 20  1  0  0  0  0
 21 16  2  0  0  0  0
 22 16  1  0  0  0  0
 25 26  2  0  0  0  0
 25  5  1  0  0  0  0
 27 30  1  6  0  0  0
 27 28  1  0  0  0  0
 27 25  1  0  0  0  0
 28 32  1  0  0  0  0
 29 27  1  0  0  0  0
 29 33  1  1  0  0  0
 29 28  1  0  0  0  0
 31 28  1  0  0  0  0
 34 29  1  0  0  0  0
 35 34  1  0  0  0  0
 36 35  2  0  0  0  0
 37 36  1  0  0  0  0
 38 36  1  0  0  0  0
 38 40  1  0  0  0  0
 39 38  2  0  0  0  0
 40 41  1  0  0  0  0
 41 34  1  0  0  0  0
 41 42  2  0  0  0  0
 43 40  1  0  0  0  0
M  END
>  <minimizedAffinity>
-6.61475992

>  <minimizedRMSD>
0.498262316

$$$$
