
 OpenBabel03212520593D

 43 47  0  0  1  0  0  0  0  0999 V2000
   39.7960   77.4100   59.1760 C   0  0  0  0  0  0  0  0  0  0  0  0
   40.5030   76.2850   58.8860 C   0  0  0  0  0  0  0  0  0  0  0  0
   39.9590   75.5790   57.8010 C   0  0  0  0  0  0  0  0  0  0  0  0
   38.8630   75.9630   57.1210 N   0  0  0  0  0  0  0  0  0  0  0  0
   38.2280   77.1140   57.4980 C   0  0  0  0  0  0  0  0  0  0  0  0
   38.7000   77.8420   58.5360 N   0  0  0  0  0  0  0  0  0  0  0  0
   41.3770   75.9340   59.3930 H   0  0  0  0  0  0  0  0  0  0  0  0
   40.4150   74.6560   57.4490 H   0  0  0  0  0  0  0  0  0  0  0  0
   40.9810   80.3460   61.7490 C   0  0  0  0  0  0  0  0  0  0  0  0
   40.9680   79.1060   62.3510 C   0  0  0  0  0  0  0  0  0  0  0  0
   40.5890   78.0560   61.5900 C   0  0  0  0  0  0  0  0  0  0  0  0
   40.2380   78.2490   60.2710 C   0  0  0  0  0  0  0  0  0  0  0  0
   40.4430   80.0620   60.0380 S   0  0  0  0  0  0  0  0  0  0  0  0
   41.2460   78.9560   63.3910 H   0  0  0  0  0  0  0  0  0  0  0  0
   40.5140   77.0150   61.8720 H   0  0  0  0  0  0  0  0  0  0  0  0
   43.0410   83.1520   62.9170 C   0  0  0  0  0  0  0  0  0  0  0  0
   42.1330   83.8970   63.7090 C   0  0  0  0  0  0  0  0  0  0  0  0
   40.8210   83.4410   63.8380 C   0  0  0  0  0  0  0  0  0  0  0  0
   40.4720   82.3040   63.1990 N   0  0  0  0  0  0  0  0  0  0  0  0
   41.3660   81.6040   62.4420 C   0  0  0  0  0  0  0  0  0  0  0  0
   42.6220   82.0320   62.3130 N   0  0  0  0  0  0  0  0  0  0  0  0
   44.0570   83.5030   62.8170 H   0  0  0  0  0  0  0  0  0  0  0  0
   42.4180   84.8070   64.2170 H   0  0  0  0  0  0  0  0  0  0  0  0
   40.0690   83.9470   64.4190 H   0  0  0  0  0  0  0  0  0  0  0  0
   37.0540   77.5110   56.7410 C   0  0  0  0  0  0  0  0  0  0  0  0
   35.9590   77.0550   57.1080 O   0  0  0  0  0  0  0  0  0  0  0  0
   37.1440   78.4310   55.5480 C   0  0  1  0  0  0  0  0  0  0  0  0
   37.3040   79.8820   55.9410 C   0  0  0  0  0  0  0  0  0  0  0  0
   38.3720   79.1400   55.2700 C   0  0  2  0  0  0  0  0  0  0  0  0
   36.2810   78.3230   54.8320 H   0  0  0  0  0  0  0  0  0  0  0  0
   36.7180   80.6160   55.3700 H   0  0  0  0  0  0  0  0  0  0  0  0
   37.4070   80.1380   57.0240 H   0  0  0  0  0  0  0  0  0  0  0  0
   39.2820   78.8130   55.8550 H   0  0  0  0  0  0  0  0  0  0  0  0
   38.7520   79.5640   53.9400 N   0  0  0  0  0  0  0  0  0  0  0  0
   37.7180   79.7570   53.0710 C   0  0  0  0  0  3  0  0  0  0  0  0
   37.9030   80.1630   51.7580 C   0  0  0  0  0  0  0  0  0  0  0  0
   37.0640   80.3080   51.0910 H   0  0  0  0  0  0  0  0  0  0  0  0
   39.1970   80.3740   51.3390 C   0  0  0  0  0  0  0  0  0  0  0  0
   39.4280   80.7420   50.1630 O   0  0  0  0  0  0  0  0  0  0  0  0
   40.1950   80.1750   52.2230 N   0  0  0  0  0  0  0  0  0  0  0  0
   39.9960   79.7800   53.4930 C   0  0  0  0  0  0  0  0  0  0  0  0
   40.9190   79.5910   54.3260 O   0  0  0  0  0  0  0  0  0  0  0  0
   41.1970   80.3180   51.9660 H   0  0  0  0  0  0  0  0  0  0  0  0
  1 12  1  0  0  0  0
  2  1  1  0  0  0  0
  2  7  1  0  0  0  0
  3  2  2  0  0  0  0
  4  5  2  0  0  0  0
  4  3  1  0  0  0  0
  5  6  1  0  0  0  0
  6  1  2  0  0  0  0
  8  3  1  0  0  0  0
  9 10  2  0  0  0  0
  9 20  1  0  0  0  0
 10 14  1  0  0  0  0
 11 15  1  0  0  0  0
 11 10  1  0  0  0  0
 12 11  2  0  0  0  0
 13 12  1  0  0  0  0
 13  9  1  0  0  0  0
 16 17  1  0  0  0  0
 17 18  2  0  0  0  0
 17 23  1  0  0  0  0
 18 24  1  0  0  0  0
 19 18  1  0  0  0  0
 20 19  2  0  0  0  0
 21 20  1  0  0  0  0
 21 16  2  0  0  0  0
 22 16  1  0  0  0  0
 25 26  2  0  0  0  0
 25  5  1  0  0  0  0
 27 30  1  6  0  0  0
 27 28  1  0  0  0  0
 27 25  1  0  0  0  0
 28 32  1  0  0  0  0
 29 27  1  0  0  0  0
 29 33  1  1  0  0  0
 29 28  1  0  0  0  0
 31 28  1  0  0  0  0
 34 29  1  0  0  0  0
 35 34  1  0  0  0  0
 36 35  2  0  0  0  0
 37 36  1  0  0  0  0
 38 36  1  0  0  0  0
 38 40  1  0  0  0  0
 39 38  2  0  0  0  0
 40 41  1  0  0  0  0
 41 34  1  0  0  0  0
 41 42  2  0  0  0  0
 43 40  1  0  0  0  0
M  END
>  <minimizedAffinity>
-6.60849094

>  <minimizedRMSD>
0.255067378

$$$$
