
 OpenBabel03212520433D

 19 20  0  0  0  0  0  0  0  0999 V2000
   40.4250   82.1950   61.1400 C   0  0  0  0  0  0  0  0  0  0  0  0
   40.5050   82.9460   59.9590 C   0  0  0  0  0  0  0  0  0  0  0  0
   39.6880   84.0810   59.8600 C   0  0  0  0  0  0  0  0  0  0  0  0
   38.8730   84.3870   60.9030 N   0  0  0  0  0  0  0  0  0  0  0  0
   38.8190   83.6460   62.0220 C   0  0  0  0  0  0  0  0  0  0  0  0
   39.5950   82.5430   62.1510 N   0  0  0  0  0  0  0  0  0  0  0  0
   41.2010   82.5710   59.2260 H   0  0  0  0  0  0  0  0  0  0  0  0
   39.7790   84.6290   58.9430 H   0  0  0  0  0  0  0  0  0  0  0  0
   38.1480   83.9360   62.8280 H   0  0  0  0  0  0  0  0  0  0  0  0
   41.1760   81.0170   61.4190 N   0  0  0  0  0  0  0  0  0  0  0  0
   40.3560   79.9540   61.6180 C   0  0  0  0  0  3  0  0  0  0  0  0
   40.8770   78.6920   61.9060 C   0  0  0  0  0  0  0  0  0  0  0  0
   40.2670   77.8170   62.0730 H   0  0  0  0  0  0  0  0  0  0  0  0
   42.2550   78.5710   61.9810 C   0  0  0  0  0  0  0  0  0  0  0  0
   42.7690   77.4500   62.2390 O   0  0  0  0  0  0  0  0  0  0  0  0
   43.0250   79.6510   61.7760 N   0  0  0  0  0  0  0  0  0  0  0  0
   42.5100   80.8600   61.4990 C   0  0  0  0  0  0  0  0  0  0  0  0
   43.1570   81.9200   61.2940 O   0  0  0  0  0  0  0  0  0  0  0  0
   44.0630   79.6120   61.8210 H   0  0  0  0  0  0  0  0  0  0  0  0
  1 10  1  0  0  0  0
  1  6  1  0  0  0  0
  2  1  2  0  0  0  0
  3  2  1  0  0  0  0
  3  4  2  0  0  0  0
  4  5  1  0  0  0  0
  5  6  2  0  0  0  0
  5  9  1  0  0  0  0
  7  2  1  0  0  0  0
  8  3  1  0  0  0  0
 10 17  1  0  0  0  0
 10 11  1  0  0  0  0
 11 12  2  0  0  0  0
 12 14  1  0  0  0  0
 12 13  1  0  0  0  0
 14 15  2  0  0  0  0
 16 19  1  0  0  0  0
 16 14  1  0  0  0  0
 17 16  1  0  0  0  0
 18 17  2  0  0  0  0
M  END
>  <minimizedAffinity>
-4.89362669

>  <minimizedRMSD>
0.937798321

$$$$
