
 OpenBabel03212520433D

 19 20  0  0  0  0  0  0  0  0999 V2000
   39.9310   81.9500   60.8170 C   0  0  0  0  0  0  0  0  0  0  0  0
   40.1940   82.7430   59.6910 C   0  0  0  0  0  0  0  0  0  0  0  0
   39.7210   84.0620   59.7060 C   0  0  0  0  0  0  0  0  0  0  0  0
   39.0420   84.4960   60.8000 N   0  0  0  0  0  0  0  0  0  0  0  0
   38.8070   83.7120   61.8640 C   0  0  0  0  0  0  0  0  0  0  0  0
   39.2490   82.4310   61.8830 N   0  0  0  0  0  0  0  0  0  0  0  0
   40.7450   82.2510   58.9060 H   0  0  0  0  0  0  0  0  0  0  0  0
   39.9430   84.6360   58.8280 H   0  0  0  0  0  0  0  0  0  0  0  0
   38.2570   84.1090   62.7150 H   0  0  0  0  0  0  0  0  0  0  0  0
   40.3320   80.5940   60.9810 N   0  0  0  0  0  0  0  0  0  0  0  0
   40.1010   79.8780   59.8510 C   0  0  0  0  0  3  0  0  0  0  0  0
   40.4180   78.5200   59.7860 C   0  0  0  0  0  0  0  0  0  0  0  0
   40.2530   77.9110   58.9100 H   0  0  0  0  0  0  0  0  0  0  0  0
   40.9730   77.9380   60.9120 C   0  0  0  0  0  0  0  0  0  0  0  0
   41.2730   76.7160   60.8980 O   0  0  0  0  0  0  0  0  0  0  0  0
   41.1810   78.6860   62.0070 N   0  0  0  0  0  0  0  0  0  0  0  0
   40.8720   79.9930   62.0570 C   0  0  0  0  0  0  0  0  0  0  0  0
   41.0350   80.7640   63.0380 O   0  0  0  0  0  0  0  0  0  0  0  0
   41.5960   78.2960   62.8770 H   0  0  0  0  0  0  0  0  0  0  0  0
  1 10  1  0  0  0  0
  1  6  1  0  0  0  0
  2  3  1  0  0  0  0
  2  1  2  0  0  0  0
  3  4  2  0  0  0  0
  4  5  1  0  0  0  0
  5  6  2  0  0  0  0
  5  9  1  0  0  0  0
  7  2  1  0  0  0  0
  8  3  1  0  0  0  0
 10 17  1  0  0  0  0
 11 10  1  0  0  0  0
 12 11  2  0  0  0  0
 12 14  1  0  0  0  0
 13 12  1  0  0  0  0
 14 16  1  0  0  0  0
 15 14  2  0  0  0  0
 16 17  1  0  0  0  0
 16 19  1  0  0  0  0
 17 18  2  0  0  0  0
M  END
>  <minimizedAffinity>
-4.96420956

>  <minimizedRMSD>
0.38450864

$$$$
