
 OpenBabel03212520423D

 19 20  0  0  0  0  0  0  0  0999 V2000
   39.9990   81.9410   60.6050 C   0  0  0  0  0  0  0  0  0  0  0  0
   40.0590   82.8470   59.5380 C   0  0  0  0  0  0  0  0  0  0  0  0
   39.5480   84.1340   59.7540 C   0  0  0  0  0  0  0  0  0  0  0  0
   39.0290   84.4290   60.9750 N   0  0  0  0  0  0  0  0  0  0  0  0
   38.9860   83.5380   61.9780 C   0  0  0  0  0  0  0  0  0  0  0  0
   39.4700   82.2850   61.8030 N   0  0  0  0  0  0  0  0  0  0  0  0
   40.5010   82.4590   58.6340 H   0  0  0  0  0  0  0  0  0  0  0  0
   39.6130   84.7970   58.9150 H   0  0  0  0  0  0  0  0  0  0  0  0
   38.5580   83.8270   62.9360 H   0  0  0  0  0  0  0  0  0  0  0  0
   40.4670   80.5960   60.5710 N   0  0  0  0  0  0  0  0  0  0  0  0
   40.6980   80.1930   59.2960 C   0  0  0  0  0  3  0  0  0  0  0  0
   41.1630   78.9050   59.0250 C   0  0  0  0  0  0  0  0  0  0  0  0
   41.3620   78.5390   58.0300 H   0  0  0  0  0  0  0  0  0  0  0  0
   41.3760   78.0620   60.1030 C   0  0  0  0  0  0  0  0  0  0  0  0
   41.7950   76.8910   59.9060 O   0  0  0  0  0  0  0  0  0  0  0  0
   41.1320   78.5060   61.3460 N   0  0  0  0  0  0  0  0  0  0  0  0
   40.6850   79.7490   61.5940 C   0  0  0  0  0  0  0  0  0  0  0  0
   40.4320   80.2430   62.7230 O   0  0  0  0  0  0  0  0  0  0  0  0
   41.2760   77.9120   62.1870 H   0  0  0  0  0  0  0  0  0  0  0  0
  1  6  1  0  0  0  0
  2  3  1  0  0  0  0
  2  1  2  0  0  0  0
  3  4  2  0  0  0  0
  4  5  1  0  0  0  0
  5  9  1  0  0  0  0
  6  5  2  0  0  0  0
  7  2  1  0  0  0  0
  8  3  1  0  0  0  0
 10  1  1  0  0  0  0
 10 17  1  0  0  0  0
 11 10  1  0  0  0  0
 12 11  2  0  0  0  0
 12 14  1  0  0  0  0
 13 12  1  0  0  0  0
 14 16  1  0  0  0  0
 15 14  2  0  0  0  0
 16 17  1  0  0  0  0
 16 19  1  0  0  0  0
 17 18  2  0  0  0  0
M  END
>  <minimizedAffinity>
-4.97433853

>  <minimizedRMSD>
0.456204355

$$$$
