
 OpenBabel03212520583D

 43 47  0  0  1  0  0  0  0  0999 V2000
   39.6830   77.1940   59.1220 C   0  0  0  0  0  0  0  0  0  0  0  0
   40.3570   76.0450   58.8470 C   0  0  0  0  0  0  0  0  0  0  0  0
   39.7830   75.3350   57.7800 C   0  0  0  0  0  0  0  0  0  0  0  0
   38.6920   75.7370   57.1020 N   0  0  0  0  0  0  0  0  0  0  0  0
   38.0920   76.9110   57.4640 C   0  0  0  0  0  0  0  0  0  0  0  0
   38.5940   77.6450   58.4830 N   0  0  0  0  0  0  0  0  0  0  0  0
   41.2260   75.6790   59.3520 H   0  0  0  0  0  0  0  0  0  0  0  0
   40.2110   74.3930   57.4400 H   0  0  0  0  0  0  0  0  0  0  0  0
   40.9670   80.1440   61.6310 C   0  0  0  0  0  0  0  0  0  0  0  0
   40.9360   78.9140   62.2530 C   0  0  0  0  0  0  0  0  0  0  0  0
   40.5240   77.8600   61.5140 C   0  0  0  0  0  0  0  0  0  0  0  0
   40.1590   78.0400   60.1970 C   0  0  0  0  0  0  0  0  0  0  0  0
   40.4000   79.8450   59.9320 S   0  0  0  0  0  0  0  0  0  0  0  0
   41.2250   78.7740   63.2910 H   0  0  0  0  0  0  0  0  0  0  0  0
   40.4300   76.8260   61.8140 H   0  0  0  0  0  0  0  0  0  0  0  0
   43.1070   82.9160   62.7350 C   0  0  0  0  0  0  0  0  0  0  0  0
   42.2240   83.6990   63.5190 C   0  0  0  0  0  0  0  0  0  0  0  0
   40.9020   83.2790   63.6650 C   0  0  0  0  0  0  0  0  0  0  0  0
   40.5190   82.1400   63.0490 N   0  0  0  0  0  0  0  0  0  0  0  0
   41.3900   81.4030   62.2990 C   0  0  0  0  0  0  0  0  0  0  0  0
   42.6550   81.7970   62.1540 N   0  0  0  0  0  0  0  0  0  0  0  0
   44.1310   83.2390   62.6220 H   0  0  0  0  0  0  0  0  0  0  0  0
   42.5360   84.6100   64.0090 H   0  0  0  0  0  0  0  0  0  0  0  0
   40.1670   83.8140   64.2410 H   0  0  0  0  0  0  0  0  0  0  0  0
   36.9220   77.3270   56.7100 C   0  0  0  0  0  0  0  0  0  0  0  0
   35.8120   77.1350   57.2300 O   0  0  0  0  0  0  0  0  0  0  0  0
   37.0330   77.9580   55.3440 C   0  0  1  0  0  0  0  0  0  0  0  0
   37.4170   79.4190   55.4050 C   0  0  0  0  0  0  0  0  0  0  0  0
   38.3170   78.4060   54.8530 C   0  0  2  0  0  0  0  0  0  0  0  0
   36.1070   77.8350   54.7150 H   0  0  0  0  0  0  0  0  0  0  0  0
   36.8880   80.0990   54.7220 H   0  0  0  0  0  0  0  0  0  0  0  0
   37.6440   79.8750   56.4010 H   0  0  0  0  0  0  0  0  0  0  0  0
   39.2210   78.0750   55.4450 H   0  0  0  0  0  0  0  0  0  0  0  0
   38.6360   78.4870   53.4450 N   0  0  0  0  0  0  0  0  0  0  0  0
   38.2220   79.6240   52.8160 C   0  0  0  0  0  3  0  0  0  0  0  0
   38.4450   79.8650   51.4680 C   0  0  0  0  0  0  0  0  0  0  0  0
   38.1050   80.7750   50.9950 H   0  0  0  0  0  0  0  0  0  0  0  0
   39.1160   78.8960   50.7570 C   0  0  0  0  0  0  0  0  0  0  0  0
   39.3470   79.0550   49.5360 O   0  0  0  0  0  0  0  0  0  0  0  0
   39.5120   77.7830   51.4080 N   0  0  0  0  0  0  0  0  0  0  0  0
   39.2860   77.5680   52.7180 C   0  0  0  0  0  0  0  0  0  0  0  0
   39.6500   76.5340   53.3350 O   0  0  0  0  0  0  0  0  0  0  0  0
   40.0240   77.0130   50.9250 H   0  0  0  0  0  0  0  0  0  0  0  0
  1 12  1  0  0  0  0
  2  1  1  0  0  0  0
  2  7  1  0  0  0  0
  3  2  2  0  0  0  0
  4  5  2  0  0  0  0
  4  3  1  0  0  0  0
  5  6  1  0  0  0  0
  6  1  2  0  0  0  0
  8  3  1  0  0  0  0
  9 10  2  0  0  0  0
  9 20  1  0  0  0  0
 10 14  1  0  0  0  0
 11 15  1  0  0  0  0
 11 10  1  0  0  0  0
 12 11  2  0  0  0  0
 13 12  1  0  0  0  0
 13  9  1  0  0  0  0
 16 17  1  0  0  0  0
 17 18  2  0  0  0  0
 17 23  1  0  0  0  0
 18 24  1  0  0  0  0
 19 18  1  0  0  0  0
 20 19  2  0  0  0  0
 21 20  1  0  0  0  0
 21 16  2  0  0  0  0
 22 16  1  0  0  0  0
 25 26  2  0  0  0  0
 25  5  1  0  0  0  0
 27 30  1  6  0  0  0
 27 28  1  0  0  0  0
 27 25  1  0  0  0  0
 28 32  1  0  0  0  0
 29 27  1  0  0  0  0
 29 28  1  0  0  0  0
 29 33  1  1  0  0  0
 31 28  1  0  0  0  0
 34 29  1  0  0  0  0
 35 34  1  0  0  0  0
 36 35  2  0  0  0  0
 37 36  1  0  0  0  0
 38 40  1  0  0  0  0
 38 36  1  0  0  0  0
 39 38  2  0  0  0  0
 40 41  1  0  0  0  0
 41 42  2  0  0  0  0
 41 34  1  0  0  0  0
 43 40  1  0  0  0  0
M  END
>  <minimizedAffinity>
-6.48784924

>  <minimizedRMSD>
0.998006821

$$$$
