
 OpenBabel03212520423D

 19 20  0  0  0  0  0  0  0  0999 V2000
   40.3680   82.1610   61.1060 C   0  0  0  0  0  0  0  0  0  0  0  0
   40.4550   82.9280   59.9360 C   0  0  0  0  0  0  0  0  0  0  0  0
   39.6720   84.0880   59.8650 C   0  0  0  0  0  0  0  0  0  0  0  0
   38.8800   84.4020   60.9230 N   0  0  0  0  0  0  0  0  0  0  0  0
   38.8190   83.6470   62.0310 C   0  0  0  0  0  0  0  0  0  0  0  0
   39.5620   82.5180   62.1340 N   0  0  0  0  0  0  0  0  0  0  0  0
   41.1300   82.5430   59.1880 H   0  0  0  0  0  0  0  0  0  0  0  0
   39.7670   84.6460   58.9550 H   0  0  0  0  0  0  0  0  0  0  0  0
   38.1670   83.9440   62.8510 H   0  0  0  0  0  0  0  0  0  0  0  0
   41.0860   80.9570   61.3580 N   0  0  0  0  0  0  0  0  0  0  0  0
   40.2780   79.8740   61.2270 C   0  0  0  0  0  3  0  0  0  0  0  0
   40.7730   78.5840   61.4280 C   0  0  0  0  0  0  0  0  0  0  0  0
   40.1720   77.6920   61.3360 H   0  0  0  0  0  0  0  0  0  0  0  0
   42.1110   78.4570   61.7650 C   0  0  0  0  0  0  0  0  0  0  0  0
   42.5990   77.3120   61.9560 O   0  0  0  0  0  0  0  0  0  0  0  0
   42.8680   79.5580   61.8820 N   0  0  0  0  0  0  0  0  0  0  0  0
   42.3810   80.7940   61.6850 C   0  0  0  0  0  0  0  0  0  0  0  0
   43.0190   81.8750   61.7760 O   0  0  0  0  0  0  0  0  0  0  0  0
   43.8770   79.5150   62.1330 H   0  0  0  0  0  0  0  0  0  0  0  0
  1 10  1  0  0  0  0
  1  6  1  0  0  0  0
  2  1  2  0  0  0  0
  3  2  1  0  0  0  0
  3  4  2  0  0  0  0
  4  5  1  0  0  0  0
  5  6  2  0  0  0  0
  5  9  1  0  0  0  0
  7  2  1  0  0  0  0
  8  3  1  0  0  0  0
 10 17  1  0  0  0  0
 11 10  1  0  0  0  0
 11 12  2  0  0  0  0
 12 14  1  0  0  0  0
 13 12  1  0  0  0  0
 14 16  1  0  0  0  0
 14 15  2  0  0  0  0
 16 19  1  0  0  0  0
 17 18  2  0  0  0  0
 17 16  1  0  0  0  0
M  END
>  <minimizedAffinity>
-4.89495659

>  <minimizedRMSD>
0.799509823

$$$$
