
 OpenBabel03212520433D

 19 20  0  0  0  0  0  0  0  0999 V2000
   40.0240   82.0730   60.4270 C   0  0  0  0  0  0  0  0  0  0  0  0
   40.0550   83.0660   59.4380 C   0  0  0  0  0  0  0  0  0  0  0  0
   39.5050   84.3150   59.7600 C   0  0  0  0  0  0  0  0  0  0  0  0
   38.9790   84.4920   61.0000 N   0  0  0  0  0  0  0  0  0  0  0  0
   38.9650   83.5210   61.9260 C   0  0  0  0  0  0  0  0  0  0  0  0
   39.4880   82.3010   61.6490 N   0  0  0  0  0  0  0  0  0  0  0  0
   40.5070   82.7680   58.5060 H   0  0  0  0  0  0  0  0  0  0  0  0
   39.5480   85.0470   58.9780 H   0  0  0  0  0  0  0  0  0  0  0  0
   38.5310   83.7160   62.9050 H   0  0  0  0  0  0  0  0  0  0  0  0
   40.5330   80.7510   60.2830 N   0  0  0  0  0  0  0  0  0  0  0  0
   41.0780   80.5710   59.0520 C   0  0  0  0  0  3  0  0  0  0  0  0
   41.6380   79.3450   58.6910 C   0  0  0  0  0  0  0  0  0  0  0  0
   42.0830   79.1540   57.7270 H   0  0  0  0  0  0  0  0  0  0  0  0
   41.6160   78.3280   59.6310 C   0  0  0  0  0  0  0  0  0  0  0  0
   42.1100   77.2050   59.3480 O   0  0  0  0  0  0  0  0  0  0  0  0
   41.0650   78.5550   60.8340 N   0  0  0  0  0  0  0  0  0  0  0  0
   40.5290   79.7390   61.1700 C   0  0  0  0  0  0  0  0  0  0  0  0
   39.9940   80.0350   62.2710 O   0  0  0  0  0  0  0  0  0  0  0  0
   41.0230   77.8250   61.5730 H   0  0  0  0  0  0  0  0  0  0  0  0
  1  6  1  0  0  0  0
  2  3  1  0  0  0  0
  2  1  2  0  0  0  0
  3  4  2  0  0  0  0
  4  5  1  0  0  0  0
  5  9  1  0  0  0  0
  6  5  2  0  0  0  0
  7  2  1  0  0  0  0
  8  3  1  0  0  0  0
 10  1  1  0  0  0  0
 10 17  1  0  0  0  0
 11 10  1  0  0  0  0
 12 11  2  0  0  0  0
 12 14  1  0  0  0  0
 13 12  1  0  0  0  0
 14 16  1  0  0  0  0
 15 14  2  0  0  0  0
 16 17  1  0  0  0  0
 16 19  1  0  0  0  0
 17 18  2  0  0  0  0
M  END
>  <minimizedAffinity>
-4.82822561

>  <minimizedRMSD>
0.748116672

$$$$
