
 OpenBabel03212520433D

 19 20  0  0  0  0  0  0  0  0999 V2000
   40.2660   82.0940   60.7870 C   0  0  0  0  0  0  0  0  0  0  0  0
   40.3140   82.9750   59.6980 C   0  0  0  0  0  0  0  0  0  0  0  0
   39.5980   84.1740   59.8060 C   0  0  0  0  0  0  0  0  0  0  0  0
   38.9040   84.4150   60.9490 N   0  0  0  0  0  0  0  0  0  0  0  0
   38.8780   83.5510   61.9760 C   0  0  0  0  0  0  0  0  0  0  0  0
   39.5590   82.3810   61.9050 N   0  0  0  0  0  0  0  0  0  0  0  0
   40.9090   82.6370   58.8640 H   0  0  0  0  0  0  0  0  0  0  0  0
   39.6600   84.8210   58.9530 H   0  0  0  0  0  0  0  0  0  0  0  0
   38.3060   83.7930   62.8700 H   0  0  0  0  0  0  0  0  0  0  0  0
   40.9270   80.8350   60.8570 N   0  0  0  0  0  0  0  0  0  0  0  0
   40.2260   79.9590   61.6230 C   0  0  0  0  0  3  0  0  0  0  0  0
   40.6900   78.6590   61.8300 C   0  0  0  0  0  0  0  0  0  0  0  0
   40.1700   77.9280   62.4290 H   0  0  0  0  0  0  0  0  0  0  0  0
   41.8850   78.3020   61.2280 C   0  0  0  0  0  0  0  0  0  0  0  0
   42.3410   77.1390   61.3880 O   0  0  0  0  0  0  0  0  0  0  0  0
   42.5420   79.2040   60.4800 N   0  0  0  0  0  0  0  0  0  0  0  0
   42.0850   80.4520   60.2880 C   0  0  0  0  0  0  0  0  0  0  0  0
   42.6350   81.3540   59.6050 O   0  0  0  0  0  0  0  0  0  0  0  0
   43.4420   78.9840   60.0080 H   0  0  0  0  0  0  0  0  0  0  0  0
  1 10  1  0  0  0  0
  1  6  1  0  0  0  0
  2  3  1  0  0  0  0
  2  1  2  0  0  0  0
  3  4  2  0  0  0  0
  4  5  1  0  0  0  0
  5  9  1  0  0  0  0
  6  5  2  0  0  0  0
  7  2  1  0  0  0  0
  8  3  1  0  0  0  0
 10 11  1  0  0  0  0
 11 12  2  0  0  0  0
 12 13  1  0  0  0  0
 14 15  2  0  0  0  0
 14 12  1  0  0  0  0
 16 14  1  0  0  0  0
 17 16  1  0  0  0  0
 17 10  1  0  0  0  0
 18 17  2  0  0  0  0
 19 16  1  0  0  0  0
M  END
>  <minimizedAffinity>
-4.74132204

>  <minimizedRMSD>
0.415816188

$$$$
