
 OpenBabel03212520433D

 19 20  0  0  0  0  0  0  0  0999 V2000
   40.0360   82.0050   60.6360 C   0  0  0  0  0  0  0  0  0  0  0  0
   40.1210   82.9150   59.5730 C   0  0  0  0  0  0  0  0  0  0  0  0
   39.5650   84.1870   59.7680 C   0  0  0  0  0  0  0  0  0  0  0  0
   38.9800   84.4640   60.9630 N   0  0  0  0  0  0  0  0  0  0  0  0
   38.9160   83.5700   61.9620 C   0  0  0  0  0  0  0  0  0  0  0  0
   39.4430   82.3310   61.8080 N   0  0  0  0  0  0  0  0  0  0  0  0
   40.6150   82.5420   58.6910 H   0  0  0  0  0  0  0  0  0  0  0  0
   39.6500   84.8540   58.9330 H   0  0  0  0  0  0  0  0  0  0  0  0
   38.4360   83.8440   62.9000 H   0  0  0  0  0  0  0  0  0  0  0  0
   40.5420   80.6740   60.6220 N   0  0  0  0  0  0  0  0  0  0  0  0
   40.2850   80.0430   61.7960 C   0  0  0  0  0  3  0  0  0  0  0  0
   40.6930   78.7250   62.0040 C   0  0  0  0  0  0  0  0  0  0  0  0
   40.5120   78.1820   62.9190 H   0  0  0  0  0  0  0  0  0  0  0  0
   41.3650   78.0920   60.9730 C   0  0  0  0  0  0  0  0  0  0  0  0
   41.7500   76.9010   61.1170 O   0  0  0  0  0  0  0  0  0  0  0  0
   41.5950   78.7570   59.8290 N   0  0  0  0  0  0  0  0  0  0  0  0
   41.1980   80.0250   59.6410 C   0  0  0  0  0  0  0  0  0  0  0  0
   41.3720   80.7200   58.6070 O   0  0  0  0  0  0  0  0  0  0  0  0
   42.0940   78.3260   59.0260 H   0  0  0  0  0  0  0  0  0  0  0  0
  1  6  1  0  0  0  0
  2  3  1  0  0  0  0
  2  1  2  0  0  0  0
  3  4  2  0  0  0  0
  4  5  1  0  0  0  0
  5  9  1  0  0  0  0
  6  5  2  0  0  0  0
  7  2  1  0  0  0  0
  8  3  1  0  0  0  0
 10  1  1  0  0  0  0
 10 11  1  0  0  0  0
 11 12  2  0  0  0  0
 12 13  1  0  0  0  0
 14 15  2  0  0  0  0
 14 12  1  0  0  0  0
 16 14  1  0  0  0  0
 17 16  1  0  0  0  0
 17 10  1  0  0  0  0
 18 17  2  0  0  0  0
 19 16  1  0  0  0  0
M  END
>  <minimizedAffinity>
-4.80279541

>  <minimizedRMSD>
0.354750991

$$$$
