
 OpenBabel03212519593D

 19 20  0  0  0  0  0  0  0  0999 V2000
   42.9040   73.0940   60.9450 C   0  0  0  0  0  0  0  0  0  0  0  0
   42.5150   72.3530   62.0800 C   0  0  0  0  0  0  0  0  0  0  0  0
   41.1370   72.2570   62.3630 C   0  0  0  0  0  0  0  0  0  0  0  0
   40.2570   72.8790   61.5340 N   0  0  0  0  0  0  0  0  0  0  0  0
   40.6670   73.5800   60.4570 C   0  0  0  0  0  0  0  0  0  0  0  0
   41.9760   73.6830   60.1720 N   0  0  0  0  0  0  0  0  0  0  0  0
   43.9470   73.1920   60.6960 H   0  0  0  0  0  0  0  0  0  0  0  0
   43.2790   71.8930   62.6800 H   0  0  0  0  0  0  0  0  0  0  0  0
   40.8260   71.6980   63.2190 H   0  0  0  0  0  0  0  0  0  0  0  0
   39.7800   74.2450   59.5640 N   0  0  0  0  0  0  0  0  0  0  0  0
   39.3920   73.5470   58.4840 C   0  0  0  0  0  3  0  0  0  0  0  0
   38.5310   74.1450   57.5850 C   0  0  0  0  0  0  0  0  0  0  0  0
   38.1600   73.6740   56.6900 H   0  0  0  0  0  0  0  0  0  0  0  0
   38.1160   75.4480   57.8570 C   0  0  0  0  0  0  0  0  0  0  0  0
   37.3220   76.0280   57.0460 O   0  0  0  0  0  0  0  0  0  0  0  0
   38.5330   76.1210   58.9650 N   0  0  0  0  0  0  0  0  0  0  0  0
   39.3720   75.5000   59.8150 C   0  0  0  0  0  0  0  0  0  0  0  0
   39.8190   76.0340   60.8690 O   0  0  0  0  0  0  0  0  0  0  0  0
   38.2290   77.0970   59.1780 H   0  0  0  0  0  0  0  0  0  0  0  0
  1  2  1  0  0  0  0
  2  3  2  0  0  0  0
  2  8  1  0  0  0  0
  3  9  1  0  0  0  0
  4  3  1  0  0  0  0
  5  4  2  0  0  0  0
  6  5  1  0  0  0  0
  6  1  2  0  0  0  0
  7  1  1  0  0  0  0
 10 17  1  0  0  0  0
 10  5  1  0  0  0  0
 11 10  1  0  0  0  0
 12 14  1  0  0  0  0
 12 11  2  0  0  0  0
 13 12  1  0  0  0  0
 14 16  1  0  0  0  0
 15 14  2  0  0  0  0
 16 19  1  0  0  0  0
 16 17  1  0  0  0  0
 17 18  2  0  0  0  0
M  END
>  <minimizedAffinity>
-4.82336712

$$$$

 OpenBabel03212519593D

 19 20  0  0  0  0  0  0  0  0999 V2000
   38.7400   73.8410   61.2550 C   0  0  0  0  0  0  0  0  0  0  0  0
   40.0560   73.3360   61.2840 C   0  0  0  0  0  0  0  0  0  0  0  0
   40.7900   73.3410   60.0790 C   0  0  0  0  0  0  0  0  0  0  0  0
   40.1970   73.8300   58.9570 N   0  0  0  0  0  0  0  0  0  0  0  0
   38.9350   74.3050   58.9680 C   0  0  0  0  0  0  0  0  0  0  0  0
   38.2200   74.3070   60.1060 N   0  0  0  0  0  0  0  0  0  0  0  0
   38.1480   73.8540   62.1530 H   0  0  0  0  0  0  0  0  0  0  0  0
   40.4460   72.9700   62.2160 H   0  0  0  0  0  0  0  0  0  0  0  0
   41.7900   72.9620   60.0840 H   0  0  0  0  0  0  0  0  0  0  0  0
   38.2770   74.8240   57.8180 N   0  0  0  0  0  0  0  0  0  0  0  0
   38.3680   76.1520   57.6330 C   0  0  0  0  0  3  0  0  0  0  0  0
   37.7480   76.7090   56.5310 C   0  0  0  0  0  0  0  0  0  0  0  0
   37.7600   77.7600   56.2910 H   0  0  0  0  0  0  0  0  0  0  0  0
   37.0610   75.8500   55.6740 C   0  0  0  0  0  0  0  0  0  0  0  0
   36.4780   76.3340   54.6490 O   0  0  0  0  0  0  0  0  0  0  0  0
   36.9930   74.5090   55.8980 N   0  0  0  0  0  0  0  0  0  0  0  0
   37.6120   74.0090   56.9840 C   0  0  0  0  0  0  0  0  0  0  0  0
   37.6110   72.7810   57.2840 O   0  0  0  0  0  0  0  0  0  0  0  0
   36.4820   73.8580   55.2630 H   0  0  0  0  0  0  0  0  0  0  0  0
  1  2  1  0  0  0  0
  1  7  1  0  0  0  0
  2  8  1  0  0  0  0
  3  9  1  0  0  0  0
  3  2  2  0  0  0  0
  4  5  2  0  0  0  0
  4  3  1  0  0  0  0
  5  6  1  0  0  0  0
  6  1  2  0  0  0  0
 10  5  1  0  0  0  0
 11 10  1  0  0  0  0
 12 11  2  0  0  0  0
 13 12  1  0  0  0  0
 14 16  1  0  0  0  0
 14 12  1  0  0  0  0
 15 14  2  0  0  0  0
 16 17  1  0  0  0  0
 17 18  2  0  0  0  0
 17 10  1  0  0  0  0
 19 16  1  0  0  0  0
M  END
>  <minimizedAffinity>
-4.78196669

$$$$

 OpenBabel03212519593D

 19 20  0  0  0  0  0  0  0  0999 V2000
   38.5230   76.5690   53.9970 C   0  0  0  0  0  0  0  0  0  0  0  0
   37.3340   77.2480   53.6620 C   0  0  0  0  0  0  0  0  0  0  0  0
   36.4670   77.6160   54.7120 C   0  0  0  0  0  0  0  0  0  0  0  0
   36.8170   77.2990   55.9870 N   0  0  0  0  0  0  0  0  0  0  0  0
   37.9640   76.6480   56.2700 C   0  0  0  0  0  0  0  0  0  0  0  0
   38.8020   76.2890   55.2820 N   0  0  0  0  0  0  0  0  0  0  0  0
   39.2110   76.2710   53.2250 H   0  0  0  0  0  0  0  0  0  0  0  0
   37.1370   77.4590   52.6270 H   0  0  0  0  0  0  0  0  0  0  0  0
   35.5610   78.1320   54.4740 H   0  0  0  0  0  0  0  0  0  0  0  0
   38.3680   76.2970   57.5880 N   0  0  0  0  0  0  0  0  0  0  0  0
   39.1620   77.1790   58.2190 C   0  0  0  0  0  3  0  0  0  0  0  0
   39.5840   76.8890   59.5020 C   0  0  0  0  0  0  0  0  0  0  0  0
   40.2200   77.5270   60.0930 H   0  0  0  0  0  0  0  0  0  0  0  0
   39.1550   75.6890   60.0670 C   0  0  0  0  0  0  0  0  0  0  0  0
   39.5270   75.3920   61.2490 O   0  0  0  0  0  0  0  0  0  0  0  0
   38.3490   74.8220   59.3930 N   0  0  0  0  0  0  0  0  0  0  0  0
   37.9620   75.1440   58.1440 C   0  0  0  0  0  0  0  0  0  0  0  0
   37.2170   74.4120   57.4340 O   0  0  0  0  0  0  0  0  0  0  0  0
   38.0220   73.9210   59.8060 H   0  0  0  0  0  0  0  0  0  0  0  0
  1  6  1  0  0  0  0
  2  1  2  0  0  0  0
  2  3  1  0  0  0  0
  3  4  2  0  0  0  0
  4  5  1  0  0  0  0
  5 10  1  0  0  0  0
  6  5  2  0  0  0  0
  7  1  1  0  0  0  0
  8  2  1  0  0  0  0
  9  3  1  0  0  0  0
 10 17  1  0  0  0  0
 10 11  1  0  0  0  0
 11 12  2  0  0  0  0
 12 14  1  0  0  0  0
 12 13  1  0  0  0  0
 14 15  2  0  0  0  0
 16 19  1  0  0  0  0
 16 14  1  0  0  0  0
 17 16  1  0  0  0  0
 18 17  2  0  0  0  0
M  END
>  <minimizedAffinity>
-4.7592845

$$$$

 OpenBabel03212519593D

 19 20  0  0  0  0  0  0  0  0999 V2000
   39.3660   75.1550   57.5190 C   0  0  0  0  0  0  0  0  0  0  0  0
   39.1190   76.5110   57.8130 C   0  0  0  0  0  0  0  0  0  0  0  0
   39.4630   76.9800   59.0990 C   0  0  0  0  0  0  0  0  0  0  0  0
   40.0120   76.1060   59.9850 N   0  0  0  0  0  0  0  0  0  0  0  0
   40.2340   74.8150   59.6670 C   0  0  0  0  0  0  0  0  0  0  0  0
   39.9120   74.3500   58.4470 N   0  0  0  0  0  0  0  0  0  0  0  0
   39.1170   74.7590   56.5500 H   0  0  0  0  0  0  0  0  0  0  0  0
   38.6810   77.1310   57.0520 H   0  0  0  0  0  0  0  0  0  0  0  0
   39.2820   78.0060   59.3380 H   0  0  0  0  0  0  0  0  0  0  0  0
   40.8060   73.8680   60.5620 N   0  0  0  0  0  0  0  0  0  0  0  0
   42.1390   73.7170   60.4920 C   0  0  0  0  0  3  0  0  0  0  0  0
   42.7460   72.8110   61.3400 C   0  0  0  0  0  0  0  0  0  0  0  0
   43.8060   72.6140   61.3640 H   0  0  0  0  0  0  0  0  0  0  0  0
   41.9300   72.1050   62.2230 C   0  0  0  0  0  0  0  0  0  0  0  0
   42.4610   71.2620   63.0180 O   0  0  0  0  0  0  0  0  0  0  0  0
   40.5820   72.2890   62.2630 N   0  0  0  0  0  0  0  0  0  0  0  0
   40.0320   73.1820   61.4180 C   0  0  0  0  0  0  0  0  0  0  0  0
   38.7930   73.4290   61.3740 O   0  0  0  0  0  0  0  0  0  0  0  0
   39.9620   71.7670   62.9200 H   0  0  0  0  0  0  0  0  0  0  0  0
  1  2  2  0  0  0  0
  1  6  1  0  0  0  0
  2  3  1  0  0  0  0
  3  9  1  0  0  0  0
  3  4  2  0  0  0  0
  5  4  1  0  0  0  0
  5 10  1  0  0  0  0
  6  5  2  0  0  0  0
  7  1  1  0  0  0  0
  8  2  1  0  0  0  0
 10 17  1  0  0  0  0
 11 10  1  0  0  0  0
 11 12  2  0  0  0  0
 12 13  1  0  0  0  0
 12 14  1  0  0  0  0
 14 16  1  0  0  0  0
 14 15  2  0  0  0  0
 16 19  1  0  0  0  0
 17 16  1  0  0  0  0
 18 17  2  0  0  0  0
M  END
>  <minimizedAffinity>
-4.64460993

$$$$

 OpenBabel03212519593D

 19 20  0  0  0  0  0  0  0  0999 V2000
   40.8070   73.5600   59.7140 C   0  0  0  0  0  0  0  0  0  0  0  0
   40.2590   73.4500   61.0080 C   0  0  0  0  0  0  0  0  0  0  0  0
   38.9750   73.9930   61.2280 C   0  0  0  0  0  0  0  0  0  0  0  0
   38.3340   74.5910   60.1880 N   0  0  0  0  0  0  0  0  0  0  0  0
   38.8910   74.6770   58.9630 C   0  0  0  0  0  0  0  0  0  0  0  0
   40.1140   74.1660   58.7350 N   0  0  0  0  0  0  0  0  0  0  0  0
   41.7840   73.1590   59.5060 H   0  0  0  0  0  0  0  0  0  0  0  0
   40.8350   72.9600   61.7710 H   0  0  0  0  0  0  0  0  0  0  0  0
   38.5450   73.9170   62.2040 H   0  0  0  0  0  0  0  0  0  0  0  0
   38.2560   75.2940   57.8490 N   0  0  0  0  0  0  0  0  0  0  0  0
   37.5450   74.4820   57.0480 C   0  0  0  0  0  3  0  0  0  0  0  0
   36.9070   75.0290   55.9520 C   0  0  0  0  0  0  0  0  0  0  0  0
   36.3130   74.4680   55.2490 H   0  0  0  0  0  0  0  0  0  0  0  0
   37.0430   76.4010   55.7440 C   0  0  0  0  0  0  0  0  0  0  0  0
   36.4670   76.9360   54.7400 O   0  0  0  0  0  0  0  0  0  0  0  0
   37.7740   77.1890   56.5800 N   0  0  0  0  0  0  0  0  0  0  0  0
   38.3790   76.6140   57.6360 C   0  0  0  0  0  0  0  0  0  0  0  0
   39.0790   77.2530   58.4720 O   0  0  0  0  0  0  0  0  0  0  0  0
   37.8820   78.2170   56.4330 H   0  0  0  0  0  0  0  0  0  0  0  0
  1  2  1  0  0  0  0
  2  3  2  0  0  0  0
  2  8  1  0  0  0  0
  3  9  1  0  0  0  0
  4  3  1  0  0  0  0
  5  4  2  0  0  0  0
  6  5  1  0  0  0  0
  6  1  2  0  0  0  0
  7  1  1  0  0  0  0
 10  5  1  0  0  0  0
 11 10  1  0  0  0  0
 12 11  2  0  0  0  0
 13 12  1  0  0  0  0
 14 12  1  0  0  0  0
 14 16  1  0  0  0  0
 15 14  2  0  0  0  0
 16 17  1  0  0  0  0
 17 10  1  0  0  0  0
 17 18  2  0  0  0  0
 19 16  1  0  0  0  0
M  END
>  <minimizedAffinity>
-4.63452339

$$$$

 OpenBabel03212519593D

 19 20  0  0  0  0  0  0  0  0999 V2000
   37.5910   73.6870   57.0760 C   0  0  0  0  0  0  0  0  0  0  0  0
   37.3620   75.0440   56.7700 C   0  0  0  0  0  0  0  0  0  0  0  0
   38.0400   76.0160   57.5350 C   0  0  0  0  0  0  0  0  0  0  0  0
   38.8770   75.5990   58.5230 N   0  0  0  0  0  0  0  0  0  0  0  0
   39.0710   74.2910   58.7860 C   0  0  0  0  0  0  0  0  0  0  0  0
   38.4330   73.3510   58.0680 N   0  0  0  0  0  0  0  0  0  0  0  0
   37.0920   72.9160   56.5150 H   0  0  0  0  0  0  0  0  0  0  0  0
   36.6840   75.2840   55.9720 H   0  0  0  0  0  0  0  0  0  0  0  0
   37.8770   77.0490   57.3160 H   0  0  0  0  0  0  0  0  0  0  0  0
   39.9370   73.8120   59.8100 N   0  0  0  0  0  0  0  0  0  0  0  0
   41.1970   73.5310   59.4370 C   0  0  0  0  0  3  0  0  0  0  0  0
   42.0790   73.0630   60.3910 C   0  0  0  0  0  0  0  0  0  0  0  0
   43.1080   72.8090   60.1970 H   0  0  0  0  0  0  0  0  0  0  0  0
   41.6020   72.9110   61.6920 C   0  0  0  0  0  0  0  0  0  0  0  0
   42.3920   72.4810   62.5950 O   0  0  0  0  0  0  0  0  0  0  0  0
   40.3170   73.2070   62.0290 N   0  0  0  0  0  0  0  0  0  0  0  0
   39.4910   73.6610   61.0670 C   0  0  0  0  0  0  0  0  0  0  0  0
   38.2820   73.9650   61.2730 O   0  0  0  0  0  0  0  0  0  0  0  0
   39.9500   73.0970   63.0000 H   0  0  0  0  0  0  0  0  0  0  0  0
  1  6  1  0  0  0  0
  2  1  2  0  0  0  0
  2  3  1  0  0  0  0
  3  4  2  0  0  0  0
  4  5  1  0  0  0  0
  5 10  1  0  0  0  0
  6  5  2  0  0  0  0
  7  1  1  0  0  0  0
  8  2  1  0  0  0  0
  9  3  1  0  0  0  0
 10 17  1  0  0  0  0
 11 10  1  0  0  0  0
 11 12  2  0  0  0  0
 12 14  1  0  0  0  0
 13 12  1  0  0  0  0
 14 16  1  0  0  0  0
 14 15  2  0  0  0  0
 16 19  1  0  0  0  0
 17 18  2  0  0  0  0
 17 16  1  0  0  0  0
M  END
>  <minimizedAffinity>
-4.54153872

$$$$

 OpenBabel03212519593D

 19 20  0  0  0  0  0  0  0  0999 V2000
   41.2690   72.7390   62.3440 C   0  0  0  0  0  0  0  0  0  0  0  0
   42.6300   72.5180   62.0520 C   0  0  0  0  0  0  0  0  0  0  0  0
   43.1190   72.9700   60.8080 C   0  0  0  0  0  0  0  0  0  0  0  0
   42.2590   73.5920   59.9580 N   0  0  0  0  0  0  0  0  0  0  0  0
   40.9620   73.7860   60.2730 C   0  0  0  0  0  0  0  0  0  0  0  0
   40.4790   73.3620   61.4530 N   0  0  0  0  0  0  0  0  0  0  0  0
   40.8580   72.4090   63.2820 H   0  0  0  0  0  0  0  0  0  0  0  0
   43.2380   72.0180   62.7830 H   0  0  0  0  0  0  0  0  0  0  0  0
   44.1490   72.8100   60.5710 H   0  0  0  0  0  0  0  0  0  0  0  0
   40.0290   74.4310   59.4130 N   0  0  0  0  0  0  0  0  0  0  0  0
   39.8740   75.7540   59.5940 C   0  0  0  0  0  3  0  0  0  0  0  0
   38.9810   76.4300   58.7860 C   0  0  0  0  0  0  0  0  0  0  0  0
   38.7830   77.4880   58.8480 H   0  0  0  0  0  0  0  0  0  0  0  0
   38.2910   75.6920   57.8250 C   0  0  0  0  0  0  0  0  0  0  0  0
   37.4600   76.2870   57.0650 O   0  0  0  0  0  0  0  0  0  0  0  0
   38.4780   74.3510   57.6750 N   0  0  0  0  0  0  0  0  0  0  0  0
   39.3580   73.7320   58.4840 C   0  0  0  0  0  0  0  0  0  0  0  0
   39.6060   72.4950   58.4270 O   0  0  0  0  0  0  0  0  0  0  0  0
   37.9670   73.7890   56.9590 H   0  0  0  0  0  0  0  0  0  0  0  0
  1  7  1  0  0  0  0
  2  1  1  0  0  0  0
  2  8  1  0  0  0  0
  3  2  2  0  0  0  0
  4  5  2  0  0  0  0
  4  3  1  0  0  0  0
  5  6  1  0  0  0  0
  6  1  2  0  0  0  0
  9  3  1  0  0  0  0
 10 11  1  0  0  0  0
 10  5  1  0  0  0  0
 12 13  1  0  0  0  0
 12 11  2  0  0  0  0
 14 12  1  0  0  0  0
 15 14  2  0  0  0  0
 16 14  1  0  0  0  0
 16 17  1  0  0  0  0
 17 10  1  0  0  0  0
 18 17  2  0  0  0  0
 19 16  1  0  0  0  0
M  END
>  <minimizedAffinity>
-4.46972799

$$$$

 OpenBabel03212519593D

 19 20  0  0  0  0  0  0  0  0999 V2000
   42.1730   74.2700   59.0960 C   0  0  0  0  0  0  0  0  0  0  0  0
   43.4830   74.7910   59.0690 C   0  0  0  0  0  0  0  0  0  0  0  0
   44.4580   74.1630   59.8710 C   0  0  0  0  0  0  0  0  0  0  0  0
   44.0900   73.0930   60.6260 N   0  0  0  0  0  0  0  0  0  0  0  0
   42.8270   72.6230   60.6260 C   0  0  0  0  0  0  0  0  0  0  0  0
   41.8840   73.2080   59.8680 N   0  0  0  0  0  0  0  0  0  0  0  0
   41.4000   74.7210   58.4980 H   0  0  0  0  0  0  0  0  0  0  0  0
   43.6850   75.6400   58.4420 H   0  0  0  0  0  0  0  0  0  0  0  0
   45.4560   74.5460   59.8620 H   0  0  0  0  0  0  0  0  0  0  0  0
   42.4000   71.5070   61.4000 N   0  0  0  0  0  0  0  0  0  0  0  0
   42.4380   70.3120   60.7880 C   0  0  0  0  0  3  0  0  0  0  0  0
   42.0350   69.1950   61.4950 C   0  0  0  0  0  0  0  0  0  0  0  0
   42.0270   68.1930   61.0980 H   0  0  0  0  0  0  0  0  0  0  0  0
   41.6100   69.3810   62.8100 C   0  0  0  0  0  0  0  0  0  0  0  0
   41.2320   68.3700   63.4870 O   0  0  0  0  0  0  0  0  0  0  0  0
   41.5870   70.6110   63.3930 N   0  0  0  0  0  0  0  0  0  0  0  0
   41.9880   71.6720   62.6680 C   0  0  0  0  0  0  0  0  0  0  0  0
   42.0060   72.8550   63.1130 O   0  0  0  0  0  0  0  0  0  0  0  0
   41.2710   70.7620   64.3760 H   0  0  0  0  0  0  0  0  0  0  0  0
  1  6  1  0  0  0  0
  2  1  2  0  0  0  0
  2  3  1  0  0  0  0
  3  4  2  0  0  0  0
  4  5  1  0  0  0  0
  5 10  1  0  0  0  0
  6  5  2  0  0  0  0
  7  1  1  0  0  0  0
  8  2  1  0  0  0  0
  9  3  1  0  0  0  0
 10 17  1  0  0  0  0
 11 10  1  0  0  0  0
 11 12  2  0  0  0  0
 12 14  1  0  0  0  0
 13 12  1  0  0  0  0
 14 16  1  0  0  0  0
 14 15  2  0  0  0  0
 16 19  1  0  0  0  0
 17 18  2  0  0  0  0
 17 16  1  0  0  0  0
M  END
>  <minimizedAffinity>
-4.42836189

$$$$

 OpenBabel03212519593D

 19 20  0  0  0  0  0  0  0  0999 V2000
   38.6040   74.2240   61.1380 C   0  0  0  0  0  0  0  0  0  0  0  0
   39.0890   75.4420   60.6200 C   0  0  0  0  0  0  0  0  0  0  0  0
   40.4400   75.4950   60.2170 C   0  0  0  0  0  0  0  0  0  0  0  0
   41.2030   74.3770   60.3480 N   0  0  0  0  0  0  0  0  0  0  0  0
   40.7040   73.2290   60.8480 C   0  0  0  0  0  0  0  0  0  0  0  0
   39.4200   73.1590   61.2380 N   0  0  0  0  0  0  0  0  0  0  0  0
   37.5800   74.1420   61.4570 H   0  0  0  0  0  0  0  0  0  0  0  0
   38.4150   76.2760   60.5530 H   0  0  0  0  0  0  0  0  0  0  0  0
   40.8230   76.4120   59.8220 H   0  0  0  0  0  0  0  0  0  0  0  0
   41.4670   72.0370   61.0010 N   0  0  0  0  0  0  0  0  0  0  0  0
   41.4160   71.1660   59.9790 C   0  0  0  0  0  3  0  0  0  0  0  0
   42.1390   69.9930   60.0760 C   0  0  0  0  0  0  0  0  0  0  0  0
   42.1670   69.2300   59.3150 H   0  0  0  0  0  0  0  0  0  0  0  0
   42.8820   69.7850   61.2370 C   0  0  0  0  0  0  0  0  0  0  0  0
   43.5590   68.7120   61.3560 O   0  0  0  0  0  0  0  0  0  0  0  0
   42.9060   70.6950   62.2500 N   0  0  0  0  0  0  0  0  0  0  0  0
   42.1870   71.8250   62.1150 C   0  0  0  0  0  0  0  0  0  0  0  0
   42.1410   72.7320   62.9930 O   0  0  0  0  0  0  0  0  0  0  0  0
   43.4580   70.5490   63.1240 H   0  0  0  0  0  0  0  0  0  0  0  0
  1  6  1  0  0  0  0
  1  7  1  0  0  0  0
  2  1  2  0  0  0  0
  3  4  2  0  0  0  0
  3  2  1  0  0  0  0
  4  5  1  0  0  0  0
  5 10  1  0  0  0  0
  5  6  2  0  0  0  0
  8  2  1  0  0  0  0
  9  3  1  0  0  0  0
 10 17  1  0  0  0  0
 11 12  2  0  0  0  0
 11 10  1  0  0  0  0
 12 14  1  0  0  0  0
 13 12  1  0  0  0  0
 14 15  2  0  0  0  0
 14 16  1  0  0  0  0
 16 19  1  0  0  0  0
 17 16  1  0  0  0  0
 17 18  2  0  0  0  0
M  END
>  <minimizedAffinity>
-4.37004852

$$$$
