
 OpenBabel03212520433D

 19 20  0  0  0  0  0  0  0  0999 V2000
   40.3520   82.1430   60.9770 C   0  0  0  0  0  0  0  0  0  0  0  0
   40.4240   82.9740   59.8500 C   0  0  0  0  0  0  0  0  0  0  0  0
   39.6500   84.1420   59.8590 C   0  0  0  0  0  0  0  0  0  0  0  0
   38.8800   84.4030   60.9490 N   0  0  0  0  0  0  0  0  0  0  0  0
   38.8330   83.5860   62.0130 C   0  0  0  0  0  0  0  0  0  0  0  0
   39.5690   82.4480   62.0380 N   0  0  0  0  0  0  0  0  0  0  0  0
   41.0810   82.6270   59.0690 H   0  0  0  0  0  0  0  0  0  0  0  0
   39.7330   84.7510   58.9810 H   0  0  0  0  0  0  0  0  0  0  0  0
   38.2000   83.8420   62.8600 H   0  0  0  0  0  0  0  0  0  0  0  0
   41.0640   80.9220   61.1460 N   0  0  0  0  0  0  0  0  0  0  0  0
   40.2490   79.9450   61.6190 C   0  0  0  0  0  3  0  0  0  0  0  0
   40.7370   78.6610   61.8610 C   0  0  0  0  0  0  0  0  0  0  0  0
   40.1280   77.8520   62.2360 H   0  0  0  0  0  0  0  0  0  0  0  0
   42.0760   78.4240   61.6000 C   0  0  0  0  0  0  0  0  0  0  0  0
   42.5590   77.2790   61.8030 O   0  0  0  0  0  0  0  0  0  0  0  0
   42.8430   79.4220   61.1320 N   0  0  0  0  0  0  0  0  0  0  0  0
   42.3610   80.6550   60.9040 C   0  0  0  0  0  0  0  0  0  0  0  0
   43.0080   81.6430   60.4690 O   0  0  0  0  0  0  0  0  0  0  0  0
   43.8530   79.2960   60.9210 H   0  0  0  0  0  0  0  0  0  0  0  0
  1 10  1  0  0  0  0
  1  6  1  0  0  0  0
  2  3  1  0  0  0  0
  2  1  2  0  0  0  0
  3  4  2  0  0  0  0
  4  5  1  0  0  0  0
  5  6  2  0  0  0  0
  5  9  1  0  0  0  0
  7  2  1  0  0  0  0
  8  3  1  0  0  0  0
 10 11  1  0  0  0  0
 11 12  2  0  0  0  0
 12 13  1  0  0  0  0
 14 15  2  0  0  0  0
 14 12  1  0  0  0  0
 16 14  1  0  0  0  0
 17 16  1  0  0  0  0
 17 10  1  0  0  0  0
 18 17  2  0  0  0  0
 19 16  1  0  0  0  0
M  END
>  <minimizedAffinity>
-4.77924585

>  <minimizedRMSD>
0.637825906

$$$$
