
 OpenBabel03212520433D

 19 20  0  0  0  0  0  0  0  0999 V2000
   40.2790   82.1110   61.0440 C   0  0  0  0  0  0  0  0  0  0  0  0
   40.3610   82.8900   59.8810 C   0  0  0  0  0  0  0  0  0  0  0  0
   39.6280   84.0830   59.8500 C   0  0  0  0  0  0  0  0  0  0  0  0
   38.8850   84.4170   60.9390 N   0  0  0  0  0  0  0  0  0  0  0  0
   38.8270   83.6500   62.0390 C   0  0  0  0  0  0  0  0  0  0  0  0
   39.5230   82.4890   62.1020 N   0  0  0  0  0  0  0  0  0  0  0  0
   40.9930   82.4860   59.1060 H   0  0  0  0  0  0  0  0  0  0  0  0
   39.7170   84.6500   58.9450 H   0  0  0  0  0  0  0  0  0  0  0  0
   38.2170   83.9640   62.8830 H   0  0  0  0  0  0  0  0  0  0  0  0
   40.9510   80.8740   61.2560 N   0  0  0  0  0  0  0  0  0  0  0  0
   40.1970   79.8300   60.8240 C   0  0  0  0  0  3  0  0  0  0  0  0
   40.6600   78.5190   60.9350 C   0  0  0  0  0  0  0  0  0  0  0  0
   40.0980   77.6580   60.6070 H   0  0  0  0  0  0  0  0  0  0  0  0
   41.9100   78.3270   61.4970 C   0  0  0  0  0  0  0  0  0  0  0  0
   42.3690   77.1600   61.6160 O   0  0  0  0  0  0  0  0  0  0  0  0
   42.6200   79.3900   61.9090 N   0  0  0  0  0  0  0  0  0  0  0  0
   42.1610   80.6480   61.7980 C   0  0  0  0  0  0  0  0  0  0  0  0
   42.7580   81.6970   62.1570 O   0  0  0  0  0  0  0  0  0  0  0  0
   43.5630   79.2980   62.3380 H   0  0  0  0  0  0  0  0  0  0  0  0
  1 10  1  0  0  0  0
  1  6  1  0  0  0  0
  2  1  2  0  0  0  0
  3  2  1  0  0  0  0
  3  4  2  0  0  0  0
  4  5  1  0  0  0  0
  5  6  2  0  0  0  0
  5  9  1  0  0  0  0
  7  2  1  0  0  0  0
  8  3  1  0  0  0  0
 10 17  1  0  0  0  0
 11 12  2  0  0  0  0
 11 10  1  0  0  0  0
 12 14  1  0  0  0  0
 13 12  1  0  0  0  0
 14 15  2  0  0  0  0
 14 16  1  0  0  0  0
 16 19  1  0  0  0  0
 17 16  1  0  0  0  0
 17 18  2  0  0  0  0
M  END
>  <minimizedAffinity>
-4.9286499

>  <minimizedRMSD>
0.589748323

$$$$
