
 OpenBabel03212519593D

 19 20  0  0  0  0  0  0  0  0999 V2000
   39.4490   83.7150   61.7340 C   0  0  0  0  0  0  0  0  0  0  0  0
   39.5700   82.3350   61.4730 C   0  0  0  0  0  0  0  0  0  0  0  0
   40.5330   81.9260   60.5270 C   0  0  0  0  0  0  0  0  0  0  0  0
   41.2910   82.8760   59.9160 N   0  0  0  0  0  0  0  0  0  0  0  0
   41.1470   84.1880   60.1920 C   0  0  0  0  0  0  0  0  0  0  0  0
   40.2340   84.5970   61.0910 N   0  0  0  0  0  0  0  0  0  0  0  0
   38.7260   84.0680   62.4490 H   0  0  0  0  0  0  0  0  0  0  0  0
   38.9300   81.6540   62.0020 H   0  0  0  0  0  0  0  0  0  0  0  0
   40.6380   80.8830   60.3170 H   0  0  0  0  0  0  0  0  0  0  0  0
   41.9180   85.2140   59.5780 N   0  0  0  0  0  0  0  0  0  0  0  0
   43.0300   85.5910   60.2320 C   0  0  0  0  0  3  0  0  0  0  0  0
   43.8170   86.5830   59.6790 C   0  0  0  0  0  0  0  0  0  0  0  0
   44.7250   86.9570   60.1210 H   0  0  0  0  0  0  0  0  0  0  0  0
   43.4040   87.1340   58.4670 C   0  0  0  0  0  0  0  0  0  0  0  0
   44.1080   88.0520   57.9310 O   0  0  0  0  0  0  0  0  0  0  0  0
   42.2690   86.7230   57.8360 N   0  0  0  0  0  0  0  0  0  0  0  0
   41.5320   85.7540   58.4100 C   0  0  0  0  0  0  0  0  0  0  0  0
   40.4650   85.3000   57.9100 O   0  0  0  0  0  0  0  0  0  0  0  0
   41.9510   87.1290   56.9290 H   0  0  0  0  0  0  0  0  0  0  0  0
  1  7  1  0  0  0  0
  2  1  1  0  0  0  0
  2  8  1  0  0  0  0
  3  2  2  0  0  0  0
  4  5  2  0  0  0  0
  4  3  1  0  0  0  0
  5  6  1  0  0  0  0
  6  1  2  0  0  0  0
  9  3  1  0  0  0  0
 10  5  1  0  0  0  0
 10 11  1  0  0  0  0
 12 13  1  0  0  0  0
 12 11  2  0  0  0  0
 14 12  1  0  0  0  0
 15 14  2  0  0  0  0
 16 17  1  0  0  0  0
 16 14  1  0  0  0  0
 17 10  1  0  0  0  0
 18 17  2  0  0  0  0
 19 16  1  0  0  0  0
M  END
>  <minimizedAffinity>
-4.41550446

>  <minimizedRMSD>
6.50348902

$$$$
