
 OpenBabel03212520303D

 29 31  0  0  0  0  0  0  0  0999 V2000
   39.3640   74.4150   57.0500 C   0  0  0  0  0  0  0  0  0  0  0  0
   39.0440   75.7770   57.1000 C   0  0  0  0  0  0  0  0  0  0  0  0
   39.4190   76.4860   58.2470 C   0  0  0  0  0  0  0  0  0  0  0  0
   40.0640   75.8390   59.2420 N   0  0  0  0  0  0  0  0  0  0  0  0
   40.3570   74.5190   59.1560 C   0  0  0  0  0  0  0  0  0  0  0  0
   40.0060   73.8250   58.0680 N   0  0  0  0  0  0  0  0  0  0  0  0
   39.0660   73.8820   56.1550 H   0  0  0  0  0  0  0  0  0  0  0  0
   39.1900   77.5340   58.3200 H   0  0  0  0  0  0  0  0  0  0  0  0
   41.0320   73.7760   60.1640 N   0  0  0  0  0  0  0  0  0  0  0  0
   42.3770   73.6080   60.2720 C   0  0  0  0  0  3  0  0  0  0  0  0
   42.8480   72.8510   61.3210 C   0  0  0  0  0  0  0  0  0  0  0  0
   43.9020   72.7330   61.3880 H   0  0  0  0  0  0  0  0  0  0  0  0
   41.9720   72.2820   62.2310 C   0  0  0  0  0  0  0  0  0  0  0  0
   42.4200   71.5960   63.1810 O   0  0  0  0  0  0  0  0  0  0  0  0
   40.6540   72.4630   62.1010 N   0  0  0  0  0  0  0  0  0  0  0  0
   40.1960   73.2150   61.0590 C   0  0  0  0  0  0  0  0  0  0  0  0
   38.9380   73.3150   61.0380 O   0  0  0  0  0  0  0  0  0  0  0  0
   40.0400   72.0130   62.8130 H   0  0  0  0  0  0  0  0  0  0  0  0
   38.3600   76.3990   56.0120 N   0  0  0  0  0  0  0  0  0  0  0  0
   39.1600   77.1090   55.2100 C   0  0  0  0  0  0  0  0  0  0  0  0
   38.5910   77.7580   54.1160 C   0  0  0  0  0  0  0  0  0  0  0  0
   37.2200   77.6440   53.8970 C   0  0  0  0  0  0  0  0  0  0  0  0
   36.6280   78.1940   52.9380 O   0  0  0  0  0  0  0  0  0  0  0  0
   36.4840   76.9090   54.7520 N   0  0  0  0  0  0  0  0  0  0  0  0
   37.0340   76.2660   55.8310 C   0  0  0  0  0  0  0  0  0  0  0  0
   36.3510   75.5820   56.6290 O   0  0  0  0  0  0  0  0  0  0  0  0
   40.2280   77.2200   55.3500 H   0  0  0  0  0  0  0  0  0  0  0  0
   39.1810   78.3500   53.4270 H   0  0  0  0  0  0  0  0  0  0  0  0
   35.4470   76.8240   54.5830 H   0  0  0  0  0  0  0  0  0  0  0  0
  1  2  2  0  0  0  0
  1  6  1  0  0  0  0
  2  3  1  0  0  0  0
  3  8  1  0  0  0  0
  3  4  2  0  0  0  0
  5  4  1  0  0  0  0
  5  9  1  0  0  0  0
  6  5  2  0  0  0  0
  7  1  1  0  0  0  0
  9 10  1  0  0  0  0
  9 16  1  0  0  0  0
 10 11  2  0  0  0  0
 11 12  1  0  0  0  0
 11 13  1  0  0  0  0
 13 14  2  0  0  0  0
 15 13  1  0  0  0  0
 15 18  1  0  0  0  0
 16 15  1  0  0  0  0
 17 16  2  0  0  0  0
 19  2  1  0  0  0  0
 20 27  1  0  0  0  0
 20 19  1  0  0  0  0
 21 20  2  0  0  0  0
 22 21  1  0  0  0  0
 22 24  1  0  0  0  0
 23 22  2  0  0  0  0
 24 25  1  0  0  0  0
 25 19  1  0  0  0  0
 25 26  2  0  0  0  0
 28 21  1  0  0  0  0
 29 24  1  0  0  0  0
M  END
>  <minimizedAffinity>
-6.17877293

$$$$

 OpenBabel03212520303D

 29 31  0  0  0  0  0  0  0  0999 V2000
   38.1910   74.3900   58.1900 C   0  0  0  0  0  0  0  0  0  0  0  0
   39.4660   74.7290   58.6570 C   0  0  0  0  0  0  0  0  0  0  0  0
   40.1350   75.7740   58.0080 C   0  0  0  0  0  0  0  0  0  0  0  0
   39.5310   76.4040   56.9760 N   0  0  0  0  0  0  0  0  0  0  0  0
   38.2940   76.0470   56.5540 C   0  0  0  0  0  0  0  0  0  0  0  0
   37.6410   75.0500   57.1610 N   0  0  0  0  0  0  0  0  0  0  0  0
   37.6890   73.5790   58.7040 H   0  0  0  0  0  0  0  0  0  0  0  0
   41.1160   76.0620   58.3400 H   0  0  0  0  0  0  0  0  0  0  0  0
   37.6020   76.6640   55.4750 N   0  0  0  0  0  0  0  0  0  0  0  0
   36.7720   77.7380   55.5650 C   0  0  0  0  0  3  0  0  0  0  0  0
   36.1880   78.1980   54.4050 C   0  0  0  0  0  0  0  0  0  0  0  0
   35.5440   79.0380   54.4970 H   0  0  0  0  0  0  0  0  0  0  0  0
   36.4450   77.5800   53.1930 C   0  0  0  0  0  0  0  0  0  0  0  0
   35.9040   78.0140   52.1460 O   0  0  0  0  0  0  0  0  0  0  0  0
   37.2650   76.5260   53.1330 N   0  0  0  0  0  0  0  0  0  0  0  0
   37.8390   76.0780   54.2870 C   0  0  0  0  0  0  0  0  0  0  0  0
   38.5910   75.0800   54.1090 O   0  0  0  0  0  0  0  0  0  0  0  0
   37.4230   76.1000   52.1960 H   0  0  0  0  0  0  0  0  0  0  0  0
   40.0460   74.0220   59.7540 N   0  0  0  0  0  0  0  0  0  0  0  0
   40.9690   73.1260   59.3890 C   0  0  0  0  0  0  0  0  0  0  0  0
   41.5960   72.3810   60.3840 C   0  0  0  0  0  0  0  0  0  0  0  0
   41.2420   72.5920   61.7150 C   0  0  0  0  0  0  0  0  0  0  0  0
   41.7560   71.9660   62.6720 O   0  0  0  0  0  0  0  0  0  0  0  0
   40.3020   73.5130   61.9990 N   0  0  0  0  0  0  0  0  0  0  0  0
   39.6790   74.2520   61.0270 C   0  0  0  0  0  0  0  0  0  0  0  0
   38.8030   75.1100   61.2890 O   0  0  0  0  0  0  0  0  0  0  0  0
   41.2670   72.9360   58.3650 H   0  0  0  0  0  0  0  0  0  0  0  0
   42.3520   71.6390   60.1580 H   0  0  0  0  0  0  0  0  0  0  0  0
   40.0370   73.6710   63.0080 H   0  0  0  0  0  0  0  0  0  0  0  0
  1  2  1  0  0  0  0
  1  7  1  0  0  0  0
  2 19  1  0  0  0  0
  3  8  1  0  0  0  0
  3  2  2  0  0  0  0
  4  3  1  0  0  0  0
  5  4  2  0  0  0  0
  5  6  1  0  0  0  0
  6  1  2  0  0  0  0
  9 10  1  0  0  0  0
  9  5  1  0  0  0  0
 11 12  1  0  0  0  0
 11 10  2  0  0  0  0
 13 11  1  0  0  0  0
 14 13  2  0  0  0  0
 15 13  1  0  0  0  0
 15 16  1  0  0  0  0
 16  9  1  0  0  0  0
 17 16  2  0  0  0  0
 18 15  1  0  0  0  0
 19 25  1  0  0  0  0
 20 19  1  0  0  0  0
 20 21  2  0  0  0  0
 21 22  1  0  0  0  0
 22 24  1  0  0  0  0
 22 23  2  0  0  0  0
 24 29  1  0  0  0  0
 25 26  2  0  0  0  0
 25 24  1  0  0  0  0
 27 20  1  0  0  0  0
 28 21  1  0  0  0  0
M  END
>  <minimizedAffinity>
-6.02995872

$$$$

 OpenBabel03212520303D

 29 31  0  0  0  0  0  0  0  0999 V2000
   40.1340   75.1870   57.9140 C   0  0  0  0  0  0  0  0  0  0  0  0
   38.7350   75.2300   57.8600 C   0  0  0  0  0  0  0  0  0  0  0  0
   38.0290   74.4370   58.7720 C   0  0  0  0  0  0  0  0  0  0  0  0
   38.7140   73.6760   59.6540 N   0  0  0  0  0  0  0  0  0  0  0  0
   40.0690   73.6620   59.6750 C   0  0  0  0  0  0  0  0  0  0  0  0
   40.7600   74.4120   58.8100 N   0  0  0  0  0  0  0  0  0  0  0  0
   40.6630   75.8070   57.2000 H   0  0  0  0  0  0  0  0  0  0  0  0
   36.9540   74.4450   58.7600 H   0  0  0  0  0  0  0  0  0  0  0  0
   40.8520   72.8850   60.5730 N   0  0  0  0  0  0  0  0  0  0  0  0
   41.2840   73.2730   61.8030 C   0  0  0  0  0  3  0  0  0  0  0  0
   42.0360   72.3790   62.5310 C   0  0  0  0  0  0  0  0  0  0  0  0
   42.3630   72.7010   63.4900 H   0  0  0  0  0  0  0  0  0  0  0  0
   42.3380   71.1280   62.0190 C   0  0  0  0  0  0  0  0  0  0  0  0
   43.0240   70.3260   62.6990 O   0  0  0  0  0  0  0  0  0  0  0  0
   41.9000   70.7720   60.8070 N   0  0  0  0  0  0  0  0  0  0  0  0
   41.1560   71.6640   60.0930 C   0  0  0  0  0  0  0  0  0  0  0  0
   40.8010   71.2190   58.9660 O   0  0  0  0  0  0  0  0  0  0  0  0
   42.1560   69.8190   60.4710 H   0  0  0  0  0  0  0  0  0  0  0  0
   38.0750   76.0580   56.9020 N   0  0  0  0  0  0  0  0  0  0  0  0
   37.3440   75.3760   56.0140 C   0  0  0  0  0  0  0  0  0  0  0  0
   36.6580   76.0890   55.0350 C   0  0  0  0  0  0  0  0  0  0  0  0
   36.7570   77.4790   55.0140 C   0  0  0  0  0  0  0  0  0  0  0  0
   36.1730   78.1980   54.1680 O   0  0  0  0  0  0  0  0  0  0  0  0
   37.5140   78.0910   55.9440 N   0  0  0  0  0  0  0  0  0  0  0  0
   38.1920   77.3980   56.9120 C   0  0  0  0  0  0  0  0  0  0  0  0
   38.8990   77.9650   57.7790 O   0  0  0  0  0  0  0  0  0  0  0  0
   37.2460   74.2960   56.0010 H   0  0  0  0  0  0  0  0  0  0  0  0
   36.0490   75.6000   54.2860 H   0  0  0  0  0  0  0  0  0  0  0  0
   37.5860   79.1430   55.9250 H   0  0  0  0  0  0  0  0  0  0  0  0
  1  6  1  0  0  0  0
  2  1  2  0  0  0  0
  2  3  1  0  0  0  0
  3  4  2  0  0  0  0
  4  5  1  0  0  0  0
  5  9  1  0  0  0  0
  6  5  2  0  0  0  0
  7  1  1  0  0  0  0
  8  3  1  0  0  0  0
  9 10  1  0  0  0  0
 10 11  2  0  0  0  0
 11 12  1  0  0  0  0
 13 11  1  0  0  0  0
 13 14  2  0  0  0  0
 15 13  1  0  0  0  0
 16  9  1  0  0  0  0
 16 15  1  0  0  0  0
 17 16  2  0  0  0  0
 18 15  1  0  0  0  0
 19 25  1  0  0  0  0
 19  2  1  0  0  0  0
 20 19  1  0  0  0  0
 21 20  2  0  0  0  0
 22 21  1  0  0  0  0
 22 24  1  0  0  0  0
 23 22  2  0  0  0  0
 24 25  1  0  0  0  0
 25 26  2  0  0  0  0
 27 20  1  0  0  0  0
 28 21  1  0  0  0  0
 29 24  1  0  0  0  0
M  END
>  <minimizedAffinity>
-5.97431421

$$$$

 OpenBabel03212520303D

 29 31  0  0  0  0  0  0  0  0999 V2000
   38.6380   72.7460   57.7020 C   0  0  0  0  0  0  0  0  0  0  0  0
   39.0880   73.9170   57.0790 C   0  0  0  0  0  0  0  0  0  0  0  0
   40.2860   74.4740   57.5390 C   0  0  0  0  0  0  0  0  0  0  0  0
   40.9510   73.8690   58.5490 N   0  0  0  0  0  0  0  0  0  0  0  0
   40.4830   72.7360   59.1260 C   0  0  0  0  0  0  0  0  0  0  0  0
   39.3390   72.1900   58.7000 N   0  0  0  0  0  0  0  0  0  0  0  0
   37.7090   72.3300   57.3320 H   0  0  0  0  0  0  0  0  0  0  0  0
   40.6620   75.3730   57.0840 H   0  0  0  0  0  0  0  0  0  0  0  0
   41.1290   72.0490   60.1910 N   0  0  0  0  0  0  0  0  0  0  0  0
   42.0600   71.0660   60.0640 C   0  0  0  0  0  3  0  0  0  0  0  0
   42.5750   70.5160   61.2170 C   0  0  0  0  0  0  0  0  0  0  0  0
   43.3020   69.7500   61.0950 H   0  0  0  0  0  0  0  0  0  0  0  0
   42.1530   70.9570   62.4600 C   0  0  0  0  0  0  0  0  0  0  0  0
   42.6350   70.4440   63.4990 O   0  0  0  0  0  0  0  0  0  0  0  0
   41.2370   71.9250   62.5560 N   0  0  0  0  0  0  0  0  0  0  0  0
   40.7310   72.4640   61.4090 C   0  0  0  0  0  0  0  0  0  0  0  0
   39.8750   73.3670   61.6230 O   0  0  0  0  0  0  0  0  0  0  0  0
   40.9550   72.2190   63.5150 H   0  0  0  0  0  0  0  0  0  0  0  0
   38.3360   74.5040   56.0160 N   0  0  0  0  0  0  0  0  0  0  0  0
   37.4610   75.4290   56.4240 C   0  0  0  0  0  0  0  0  0  0  0  0
   36.6760   76.0640   55.4640 C   0  0  0  0  0  0  0  0  0  0  0  0
   36.8270   75.7150   54.1250 C   0  0  0  0  0  0  0  0  0  0  0  0
   36.1620   76.2360   53.1980 O   0  0  0  0  0  0  0  0  0  0  0  0
   37.7310   74.7720   53.7960 N   0  0  0  0  0  0  0  0  0  0  0  0
   38.5090   74.1420   54.7320 C   0  0  0  0  0  0  0  0  0  0  0  0
   39.3500   73.2630   54.4300 O   0  0  0  0  0  0  0  0  0  0  0  0
   37.3170   75.7250   57.4560 H   0  0  0  0  0  0  0  0  0  0  0  0
   35.9490   76.8220   55.7260 H   0  0  0  0  0  0  0  0  0  0  0  0
   37.8430   74.5100   52.7810 H   0  0  0  0  0  0  0  0  0  0  0  0
  1  6  1  0  0  0  0
  2  3  1  0  0  0  0
  2  1  2  0  0  0  0
  3  4  2  0  0  0  0
  4  5  1  0  0  0  0
  5  9  1  0  0  0  0
  6  5  2  0  0  0  0
  7  1  1  0  0  0  0
  8  3  1  0  0  0  0
  9 16  1  0  0  0  0
 10  9  1  0  0  0  0
 10 11  2  0  0  0  0
 11 13  1  0  0  0  0
 12 11  1  0  0  0  0
 13 15  1  0  0  0  0
 13 14  2  0  0  0  0
 15 18  1  0  0  0  0
 16 17  2  0  0  0  0
 16 15  1  0  0  0  0
 19 20  1  0  0  0  0
 19  2  1  0  0  0  0
 20 27  1  0  0  0  0
 21 28  1  0  0  0  0
 21 20  2  0  0  0  0
 22 21  1  0  0  0  0
 23 22  2  0  0  0  0
 24 22  1  0  0  0  0
 24 25  1  0  0  0  0
 25 19  1  0  0  0  0
 26 25  2  0  0  0  0
 29 24  1  0  0  0  0
M  END
>  <minimizedAffinity>
-5.94111824

$$$$

 OpenBabel03212520303D

 29 31  0  0  0  0  0  0  0  0999 V2000
   42.0580   69.7170   60.5940 C   0  0  0  0  0  0  0  0  0  0  0  0
   42.7100   69.4490   61.8030 C   0  0  0  0  0  0  0  0  0  0  0  0
   42.6900   70.4470   62.7840 C   0  0  0  0  0  0  0  0  0  0  0  0
   42.0510   71.6110   62.5280 N   0  0  0  0  0  0  0  0  0  0  0  0
   41.4300   71.8320   61.3440 C   0  0  0  0  0  0  0  0  0  0  0  0
   41.4400   70.8900   60.3960 N   0  0  0  0  0  0  0  0  0  0  0  0
   42.0850   68.9330   59.8470 H   0  0  0  0  0  0  0  0  0  0  0  0
   43.1800   70.2760   63.7250 H   0  0  0  0  0  0  0  0  0  0  0  0
   40.7410   73.0310   61.0080 N   0  0  0  0  0  0  0  0  0  0  0  0
   39.4260   73.2910   61.2350 C   0  0  0  0  0  3  0  0  0  0  0  0
   38.9350   74.5150   60.8370 C   0  0  0  0  0  0  0  0  0  0  0  0
   37.9050   74.6980   61.0250 H   0  0  0  0  0  0  0  0  0  0  0  0
   39.7620   75.4430   60.2270 C   0  0  0  0  0  0  0  0  0  0  0  0
   39.2960   76.5530   59.8730 O   0  0  0  0  0  0  0  0  0  0  0  0
   41.0510   75.1620   60.0170 N   0  0  0  0  0  0  0  0  0  0  0  0
   41.5290   73.9470   60.4140 C   0  0  0  0  0  0  0  0  0  0  0  0
   42.7570   73.7940   60.1630 O   0  0  0  0  0  0  0  0  0  0  0  0
   41.6280   75.8960   59.5540 H   0  0  0  0  0  0  0  0  0  0  0  0
   43.3660   68.1970   62.0070 N   0  0  0  0  0  0  0  0  0  0  0  0
   44.5680   68.1180   61.4270 C   0  0  0  0  0  0  0  0  0  0  0  0
   45.2930   66.9370   61.5650 C   0  0  0  0  0  0  0  0  0  0  0  0
   44.7440   65.8870   62.2970 C   0  0  0  0  0  0  0  0  0  0  0  0
   45.3280   64.7900   62.4710 O   0  0  0  0  0  0  0  0  0  0  0  0
   43.5270   66.0450   62.8510 N   0  0  0  0  0  0  0  0  0  0  0  0
   42.8060   67.2040   62.7210 C   0  0  0  0  0  0  0  0  0  0  0  0
   41.6720   67.3540   63.2350 O   0  0  0  0  0  0  0  0  0  0  0  0
   45.0240   68.9150   60.8500 H   0  0  0  0  0  0  0  0  0  0  0  0
   46.2710   66.8070   61.1210 H   0  0  0  0  0  0  0  0  0  0  0  0
   43.1160   65.2480   63.4050 H   0  0  0  0  0  0  0  0  0  0  0  0
  1  2  1  0  0  0  0
  2 19  1  0  0  0  0
  2  3  2  0  0  0  0
  3  8  1  0  0  0  0
  4  3  1  0  0  0  0
  5  4  2  0  0  0  0
  6  1  2  0  0  0  0
  6  5  1  0  0  0  0
  7  1  1  0  0  0  0
  9 10  1  0  0  0  0
  9  5  1  0  0  0  0
 11 12  1  0  0  0  0
 11 10  2  0  0  0  0
 13 11  1  0  0  0  0
 14 13  2  0  0  0  0
 15 13  1  0  0  0  0
 15 16  1  0  0  0  0
 16  9  1  0  0  0  0
 17 16  2  0  0  0  0
 18 15  1  0  0  0  0
 19 25  1  0  0  0  0
 20 21  2  0  0  0  0
 20 19  1  0  0  0  0
 21 22  1  0  0  0  0
 22 23  2  0  0  0  0
 22 24  1  0  0  0  0
 24 29  1  0  0  0  0
 25 24  1  0  0  0  0
 25 26  2  0  0  0  0
 27 20  1  0  0  0  0
 28 21  1  0  0  0  0
M  END
>  <minimizedAffinity>
-5.93905067

$$$$

 OpenBabel03212520303D

 29 31  0  0  0  0  0  0  0  0999 V2000
   40.6240   73.6380   58.3330 C   0  0  0  0  0  0  0  0  0  0  0  0
   40.0900   73.1930   59.5490 C   0  0  0  0  0  0  0  0  0  0  0  0
   38.7750   73.5640   59.8510 C   0  0  0  0  0  0  0  0  0  0  0  0
   38.0850   74.3240   58.9720 N   0  0  0  0  0  0  0  0  0  0  0  0
   38.6360   74.7340   57.8040 C   0  0  0  0  0  0  0  0  0  0  0  0
   39.8910   74.3900   57.4990 N   0  0  0  0  0  0  0  0  0  0  0  0
   41.6430   73.3410   58.1160 H   0  0  0  0  0  0  0  0  0  0  0  0
   38.3330   73.2410   60.7760 H   0  0  0  0  0  0  0  0  0  0  0  0
   37.9690   75.5340   56.8350 N   0  0  0  0  0  0  0  0  0  0  0  0
   37.2140   75.0770   55.8000 C   0  0  0  0  0  3  0  0  0  0  0  0
   36.6440   76.0090   54.9610 C   0  0  0  0  0  0  0  0  0  0  0  0
   36.0580   75.6310   54.1590 H   0  0  0  0  0  0  0  0  0  0  0  0
   36.8380   77.3630   55.1730 C   0  0  0  0  0  0  0  0  0  0  0  0
   36.3090   78.1970   54.3980 O   0  0  0  0  0  0  0  0  0  0  0  0
   37.5840   77.7840   56.1990 N   0  0  0  0  0  0  0  0  0  0  0  0
   38.1450   76.8550   57.0250 C   0  0  0  0  0  0  0  0  0  0  0  0
   38.8270   77.3690   57.9550 O   0  0  0  0  0  0  0  0  0  0  0  0
   37.6970   78.8140   56.3130 H   0  0  0  0  0  0  0  0  0  0  0  0
   40.8760   72.3920   60.4320 N   0  0  0  0  0  0  0  0  0  0  0  0
   41.0920   72.9600   61.6230 C   0  0  0  0  0  0  0  0  0  0  0  0
   41.8490   72.2610   62.5610 C   0  0  0  0  0  0  0  0  0  0  0  0
   42.3510   71.0050   62.2270 C   0  0  0  0  0  0  0  0  0  0  0  0
   43.0410   70.3090   63.0090 O   0  0  0  0  0  0  0  0  0  0  0  0
   42.0890   70.5030   61.0050 N   0  0  0  0  0  0  0  0  0  0  0  0
   41.3450   71.1830   60.0760 C   0  0  0  0  0  0  0  0  0  0  0  0
   41.1000   70.7190   58.9370 O   0  0  0  0  0  0  0  0  0  0  0  0
   40.7170   73.9330   61.9160 H   0  0  0  0  0  0  0  0  0  0  0  0
   42.0610   72.6620   63.5440 H   0  0  0  0  0  0  0  0  0  0  0  0
   42.4710   69.5530   60.7560 H   0  0  0  0  0  0  0  0  0  0  0  0
  1  2  1  0  0  0  0
  2  3  2  0  0  0  0
  2 19  1  0  0  0  0
  3  8  1  0  0  0  0
  4  3  1  0  0  0  0
  5  4  2  0  0  0  0
  6  5  1  0  0  0  0
  6  1  2  0  0  0  0
  7  1  1  0  0  0  0
  9 16  1  0  0  0  0
  9  5  1  0  0  0  0
 10  9  1  0  0  0  0
 11 13  1  0  0  0  0
 11 10  2  0  0  0  0
 12 11  1  0  0  0  0
 13 15  1  0  0  0  0
 14 13  2  0  0  0  0
 15 18  1  0  0  0  0
 15 16  1  0  0  0  0
 16 17  2  0  0  0  0
 19 20  1  0  0  0  0
 20 27  1  0  0  0  0
 20 21  2  0  0  0  0
 21 28  1  0  0  0  0
 22 21  1  0  0  0  0
 22 23  2  0  0  0  0
 24 22  1  0  0  0  0
 25 19  1  0  0  0  0
 25 24  1  0  0  0  0
 26 25  2  0  0  0  0
 29 24  1  0  0  0  0
M  END
>  <minimizedAffinity>
-5.93067265

$$$$

 OpenBabel03212520303D

 29 31  0  0  0  0  0  0  0  0999 V2000
   40.4730   74.3020   58.2740 C   0  0  0  0  0  0  0  0  0  0  0  0
   39.9860   73.1230   58.8510 C   0  0  0  0  0  0  0  0  0  0  0  0
   38.8830   72.5140   58.2420 C   0  0  0  0  0  0  0  0  0  0  0  0
   38.3420   73.0790   57.1400 N   0  0  0  0  0  0  0  0  0  0  0  0
   38.8430   74.2220   56.6110 C   0  0  0  0  0  0  0  0  0  0  0  0
   39.8960   74.8180   57.1800 N   0  0  0  0  0  0  0  0  0  0  0  0
   41.3270   74.7590   58.7600 H   0  0  0  0  0  0  0  0  0  0  0  0
   38.4820   71.6070   58.6570 H   0  0  0  0  0  0  0  0  0  0  0  0
   38.3230   74.8710   55.4560 N   0  0  0  0  0  0  0  0  0  0  0  0
   38.6990   74.6400   54.1700 C   0  0  0  0  0  3  0  0  0  0  0  0
   38.0790   75.3700   53.1790 C   0  0  0  0  0  0  0  0  0  0  0  0
   38.3870   75.1750   52.1810 H   0  0  0  0  0  0  0  0  0  0  0  0
   37.1070   76.3050   53.4940 C   0  0  0  0  0  0  0  0  0  0  0  0
   36.5540   76.9600   52.5780 O   0  0  0  0  0  0  0  0  0  0  0  0
   36.7570   76.5110   54.7680 N   0  0  0  0  0  0  0  0  0  0  0  0
   37.3750   75.7840   55.7420 C   0  0  0  0  0  0  0  0  0  0  0  0
   36.9650   76.0640   56.9020 O   0  0  0  0  0  0  0  0  0  0  0  0
   36.0200   77.2260   54.9480 H   0  0  0  0  0  0  0  0  0  0  0  0
   40.6070   72.5790   60.0160 N   0  0  0  0  0  0  0  0  0  0  0  0
   41.6510   71.7880   59.7510 C   0  0  0  0  0  0  0  0  0  0  0  0
   42.3280   71.2060   60.8200 C   0  0  0  0  0  0  0  0  0  0  0  0
   41.8960   71.4660   62.1180 C   0  0  0  0  0  0  0  0  0  0  0  0
   42.4470   70.9840   63.1370 O   0  0  0  0  0  0  0  0  0  0  0  0
   40.8350   72.2740   62.3020 N   0  0  0  0  0  0  0  0  0  0  0  0
   40.1630   72.8530   61.2570 C   0  0  0  0  0  0  0  0  0  0  0  0
   39.1740   73.6050   61.4240 O   0  0  0  0  0  0  0  0  0  0  0  0
   42.0130   71.5640   58.7540 H   0  0  0  0  0  0  0  0  0  0  0  0
   43.1810   70.5550   60.6750 H   0  0  0  0  0  0  0  0  0  0  0  0
   40.5120   72.4690   63.2860 H   0  0  0  0  0  0  0  0  0  0  0  0
  1  7  1  0  0  0  0
  1  2  1  0  0  0  0
  2 19  1  0  0  0  0
  3  8  1  0  0  0  0
  3  2  2  0  0  0  0
  4  3  1  0  0  0  0
  5  4  2  0  0  0  0
  5  6  1  0  0  0  0
  6  1  2  0  0  0  0
  9 16  1  0  0  0  0
  9  5  1  0  0  0  0
 10  9  1  0  0  0  0
 11 13  1  0  0  0  0
 11 10  2  0  0  0  0
 12 11  1  0  0  0  0
 13 15  1  0  0  0  0
 14 13  2  0  0  0  0
 15 18  1  0  0  0  0
 15 16  1  0  0  0  0
 16 17  2  0  0  0  0
 19 25  1  0  0  0  0
 20 19  1  0  0  0  0
 20 21  2  0  0  0  0
 21 22  1  0  0  0  0
 22 24  1  0  0  0  0
 22 23  2  0  0  0  0
 24 29  1  0  0  0  0
 25 26  2  0  0  0  0
 25 24  1  0  0  0  0
 27 20  1  0  0  0  0
 28 21  1  0  0  0  0
M  END
>  <minimizedAffinity>
-5.9104929

$$$$

 OpenBabel03212520303D

 29 31  0  0  0  0  0  0  0  0999 V2000
   40.0420   73.1420   59.0590 C   0  0  0  0  0  0  0  0  0  0  0  0
   40.6560   74.3860   58.8690 C   0  0  0  0  0  0  0  0  0  0  0  0
   41.9130   74.5820   59.4530 C   0  0  0  0  0  0  0  0  0  0  0  0
   42.4740   73.5780   60.1640 N   0  0  0  0  0  0  0  0  0  0  0  0
   41.8470   72.3870   60.3240 C   0  0  0  0  0  0  0  0  0  0  0  0
   40.6460   72.1830   59.7740 N   0  0  0  0  0  0  0  0  0  0  0  0
   39.0690   73.0100   58.5990 H   0  0  0  0  0  0  0  0  0  0  0  0
   42.4140   75.5240   59.3280 H   0  0  0  0  0  0  0  0  0  0  0  0
   42.3780   71.2900   61.0590 N   0  0  0  0  0  0  0  0  0  0  0  0
   43.1670   70.3000   60.5630 C   0  0  0  0  0  3  0  0  0  0  0  0
   43.5860   69.3170   61.4320 C   0  0  0  0  0  0  0  0  0  0  0  0
   44.2030   68.5530   61.0250 H   0  0  0  0  0  0  0  0  0  0  0  0
   43.2100   69.3450   62.7640 C   0  0  0  0  0  0  0  0  0  0  0  0
   43.6030   68.4410   63.5410 O   0  0  0  0  0  0  0  0  0  0  0  0
   42.4340   70.3310   63.2250 N   0  0  0  0  0  0  0  0  0  0  0  0
   42.0230   71.3010   62.3580 C   0  0  0  0  0  0  0  0  0  0  0  0
   41.2960   72.1760   62.9040 O   0  0  0  0  0  0  0  0  0  0  0  0
   42.1810   70.3040   64.2360 H   0  0  0  0  0  0  0  0  0  0  0  0
   40.0070   75.4040   58.1060 N   0  0  0  0  0  0  0  0  0  0  0  0
   40.1480   75.2580   56.7840 C   0  0  0  0  0  0  0  0  0  0  0  0
   39.5520   76.1990   55.9480 C   0  0  0  0  0  0  0  0  0  0  0  0
   38.8360   77.2510   56.5130 C   0  0  0  0  0  0  0  0  0  0  0  0
   38.2680   78.1400   55.8340 O   0  0  0  0  0  0  0  0  0  0  0  0
   38.7400   77.3270   57.8540 N   0  0  0  0  0  0  0  0  0  0  0  0
   39.3220   76.4060   58.6860 C   0  0  0  0  0  0  0  0  0  0  0  0
   39.2350   76.4740   59.9340 O   0  0  0  0  0  0  0  0  0  0  0  0
   40.6990   74.4530   56.3120 H   0  0  0  0  0  0  0  0  0  0  0  0
   39.6290   76.1400   54.8700 H   0  0  0  0  0  0  0  0  0  0  0  0
   38.1960   78.1240   58.2780 H   0  0  0  0  0  0  0  0  0  0  0  0
  1  6  1  0  0  0  0
  2  1  2  0  0  0  0
  2  3  1  0  0  0  0
  3  4  2  0  0  0  0
  4  5  1  0  0  0  0
  5  9  1  0  0  0  0
  6  5  2  0  0  0  0
  7  1  1  0  0  0  0
  8  3  1  0  0  0  0
  9 16  1  0  0  0  0
 10  9  1  0  0  0  0
 10 11  2  0  0  0  0
 11 13  1  0  0  0  0
 12 11  1  0  0  0  0
 13 15  1  0  0  0  0
 13 14  2  0  0  0  0
 15 18  1  0  0  0  0
 16 17  2  0  0  0  0
 16 15  1  0  0  0  0
 19 25  1  0  0  0  0
 19  2  1  0  0  0  0
 20 19  1  0  0  0  0
 21 22  1  0  0  0  0
 21 20  2  0  0  0  0
 22 24  1  0  0  0  0
 23 22  2  0  0  0  0
 24 29  1  0  0  0  0
 24 25  1  0  0  0  0
 25 26  2  0  0  0  0
 27 20  1  0  0  0  0
 28 21  1  0  0  0  0
M  END
>  <minimizedAffinity>
-5.87375736

$$$$

 OpenBabel03212520303D

 29 31  0  0  0  0  0  0  0  0999 V2000
   40.9570   72.2490   59.9310 C   0  0  0  0  0  0  0  0  0  0  0  0
   41.6020   73.4920   59.9310 C   0  0  0  0  0  0  0  0  0  0  0  0
   42.9040   73.5430   60.4420 C   0  0  0  0  0  0  0  0  0  0  0  0
   43.4770   72.4100   60.9050 N   0  0  0  0  0  0  0  0  0  0  0  0
   42.8190   71.2250   60.8870 C   0  0  0  0  0  0  0  0  0  0  0  0
   41.5740   71.1580   60.4040 N   0  0  0  0  0  0  0  0  0  0  0  0
   39.9500   72.2300   59.5320 H   0  0  0  0  0  0  0  0  0  0  0  0
   43.4310   74.4800   60.4580 H   0  0  0  0  0  0  0  0  0  0  0  0
   43.3600   69.9960   61.3580 N   0  0  0  0  0  0  0  0  0  0  0  0
   44.0730   69.1010   60.6250 C   0  0  0  0  0  3  0  0  0  0  0  0
   44.5170   67.9600   61.2580 C   0  0  0  0  0  0  0  0  0  0  0  0
   45.0730   67.2740   60.6670 H   0  0  0  0  0  0  0  0  0  0  0  0
   44.2390   67.7430   62.5970 C   0  0  0  0  0  0  0  0  0  0  0  0
   44.6520   66.6980   63.1570 O   0  0  0  0  0  0  0  0  0  0  0  0
   43.5360   68.6410   63.2940 N   0  0  0  0  0  0  0  0  0  0  0  0
   43.1010   69.7670   62.6600 C   0  0  0  0  0  0  0  0  0  0  0  0
   42.4480   70.5390   63.4160 O   0  0  0  0  0  0  0  0  0  0  0  0
   43.3560   68.4270   64.2980 H   0  0  0  0  0  0  0  0  0  0  0  0
   40.9380   74.6510   59.4260 N   0  0  0  0  0  0  0  0  0  0  0  0
   40.2490   75.3230   60.3540 C   0  0  0  0  0  0  0  0  0  0  0  0
   39.5630   76.4710   59.9650 C   0  0  0  0  0  0  0  0  0  0  0  0
   39.6180   76.8760   58.6330 C   0  0  0  0  0  0  0  0  0  0  0  0
   39.0320   77.8950   58.1980 O   0  0  0  0  0  0  0  0  0  0  0  0
   40.3350   76.1430   57.7600 N   0  0  0  0  0  0  0  0  0  0  0  0
   41.0140   75.0120   58.1330 C   0  0  0  0  0  0  0  0  0  0  0  0
   41.6810   74.3270   57.3220 O   0  0  0  0  0  0  0  0  0  0  0  0
   40.1840   75.0370   61.3970 H   0  0  0  0  0  0  0  0  0  0  0  0
   38.9860   77.0620   60.6650 H   0  0  0  0  0  0  0  0  0  0  0  0
   40.3740   76.4520   56.7530 H   0  0  0  0  0  0  0  0  0  0  0  0
  1  6  1  0  0  0  0
  2  1  2  0  0  0  0
  2  3  1  0  0  0  0
  3  8  1  0  0  0  0
  3  4  2  0  0  0  0
  5  4  1  0  0  0  0
  5  9  1  0  0  0  0
  6  5  2  0  0  0  0
  7  1  1  0  0  0  0
  9 16  1  0  0  0  0
 10 11  2  0  0  0  0
 10  9  1  0  0  0  0
 11 13  1  0  0  0  0
 12 11  1  0  0  0  0
 13 14  2  0  0  0  0
 13 15  1  0  0  0  0
 15 18  1  0  0  0  0
 16 15  1  0  0  0  0
 16 17  2  0  0  0  0
 19  2  1  0  0  0  0
 19 20  1  0  0  0  0
 20 27  1  0  0  0  0
 21 20  2  0  0  0  0
 21 28  1  0  0  0  0
 22 21  1  0  0  0  0
 23 22  2  0  0  0  0
 24 25  1  0  0  0  0
 24 22  1  0  0  0  0
 25 19  1  0  0  0  0
 26 25  2  0  0  0  0
 29 24  1  0  0  0  0
M  END
>  <minimizedAffinity>
-5.78398657

$$$$
