
 OpenBabel03212520583D

 43 47  0  0  1  0  0  0  0  0999 V2000
   39.8060   77.3940   59.1840 C   0  0  0  0  0  0  0  0  0  0  0  0
   40.5100   76.2630   58.9060 C   0  0  0  0  0  0  0  0  0  0  0  0
   39.9700   75.5540   57.8200 C   0  0  0  0  0  0  0  0  0  0  0  0
   38.8830   75.9410   57.1290 N   0  0  0  0  0  0  0  0  0  0  0  0
   38.2510   77.0970   57.4940 C   0  0  0  0  0  0  0  0  0  0  0  0
   38.7190   77.8280   58.5320 N   0  0  0  0  0  0  0  0  0  0  0  0
   41.3780   75.9100   59.4220 H   0  0  0  0  0  0  0  0  0  0  0  0
   40.4250   74.6260   57.4770 H   0  0  0  0  0  0  0  0  0  0  0  0
   40.9830   80.3380   61.7510 C   0  0  0  0  0  0  0  0  0  0  0  0
   40.9640   79.1000   62.3580 C   0  0  0  0  0  0  0  0  0  0  0  0
   40.5880   78.0480   61.5990 C   0  0  0  0  0  0  0  0  0  0  0  0
   40.2440   78.2360   60.2780 C   0  0  0  0  0  0  0  0  0  0  0  0
   40.4540   80.0480   60.0380 S   0  0  0  0  0  0  0  0  0  0  0  0
   41.2360   78.9530   63.4000 H   0  0  0  0  0  0  0  0  0  0  0  0
   40.5090   77.0080   61.8850 H   0  0  0  0  0  0  0  0  0  0  0  0
   43.0400   83.1480   62.9140 C   0  0  0  0  0  0  0  0  0  0  0  0
   42.1320   83.8940   63.7040 C   0  0  0  0  0  0  0  0  0  0  0  0
   40.8200   83.4370   63.8330 C   0  0  0  0  0  0  0  0  0  0  0  0
   40.4720   82.2990   63.1970 N   0  0  0  0  0  0  0  0  0  0  0  0
   41.3670   81.5970   62.4420 C   0  0  0  0  0  0  0  0  0  0  0  0
   42.6230   82.0260   62.3120 N   0  0  0  0  0  0  0  0  0  0  0  0
   44.0560   83.5000   62.8130 H   0  0  0  0  0  0  0  0  0  0  0  0
   42.4160   84.8050   64.2100 H   0  0  0  0  0  0  0  0  0  0  0  0
   40.0670   83.9440   64.4130 H   0  0  0  0  0  0  0  0  0  0  0  0
   37.0860   77.4960   56.7250 C   0  0  0  0  0  0  0  0  0  0  0  0
   35.9910   77.0180   57.0610 O   0  0  0  0  0  0  0  0  0  0  0  0
   37.1850   78.4450   55.5560 C   0  0  1  0  0  0  0  0  0  0  0  0
   37.2880   79.8910   55.9840 C   0  0  0  0  0  0  0  0  0  0  0  0
   38.3990   79.1970   55.3320 C   0  0  2  0  0  0  0  0  0  0  0  0
   36.3490   78.3290   54.8100 H   0  0  0  0  0  0  0  0  0  0  0  0
   36.6980   80.6210   55.4120 H   0  0  0  0  0  0  0  0  0  0  0  0
   37.3500   80.1260   57.0760 H   0  0  0  0  0  0  0  0  0  0  0  0
   39.3000   78.8840   55.9390 H   0  0  0  0  0  0  0  0  0  0  0  0
   38.8070   79.6620   54.0250 N   0  0  0  0  0  0  0  0  0  0  0  0
   37.8200   79.7030   53.0860 C   0  0  0  0  0  3  0  0  0  0  0  0
   38.0370   80.1240   51.7810 C   0  0  0  0  0  0  0  0  0  0  0  0
   37.2350   80.1460   51.0570 H   0  0  0  0  0  0  0  0  0  0  0  0
   39.3140   80.5120   51.4480 C   0  0  0  0  0  0  0  0  0  0  0  0
   39.5730   80.9030   50.2850 O   0  0  0  0  0  0  0  0  0  0  0  0
   40.2680   80.4600   52.4010 N   0  0  0  0  0  0  0  0  0  0  0  0
   40.0370   80.0480   53.6610 C   0  0  0  0  0  0  0  0  0  0  0  0
   40.9190   79.9960   54.5570 O   0  0  0  0  0  0  0  0  0  0  0  0
   41.2540   80.7400   52.2100 H   0  0  0  0  0  0  0  0  0  0  0  0
  1 12  1  0  0  0  0
  2  1  1  0  0  0  0
  2  7  1  0  0  0  0
  3  2  2  0  0  0  0
  4  5  2  0  0  0  0
  4  3  1  0  0  0  0
  5  6  1  0  0  0  0
  6  1  2  0  0  0  0
  8  3  1  0  0  0  0
  9 10  2  0  0  0  0
  9 20  1  0  0  0  0
 10 14  1  0  0  0  0
 11 15  1  0  0  0  0
 11 10  1  0  0  0  0
 12 11  2  0  0  0  0
 13 12  1  0  0  0  0
 13  9  1  0  0  0  0
 16 17  1  0  0  0  0
 17 18  2  0  0  0  0
 17 23  1  0  0  0  0
 18 24  1  0  0  0  0
 19 18  1  0  0  0  0
 20 19  2  0  0  0  0
 21 20  1  0  0  0  0
 21 16  2  0  0  0  0
 22 16  1  0  0  0  0
 25 26  2  0  0  0  0
 25  5  1  0  0  0  0
 27 30  1  6  0  0  0
 27 28  1  0  0  0  0
 27 25  1  0  0  0  0
 28 32  1  0  0  0  0
 29 27  1  0  0  0  0
 29 33  1  1  0  0  0
 29 28  1  0  0  0  0
 31 28  1  0  0  0  0
 34 29  1  0  0  0  0
 35 34  1  0  0  0  0
 36 35  2  0  0  0  0
 37 36  1  0  0  0  0
 38 36  1  0  0  0  0
 38 40  1  0  0  0  0
 39 38  2  0  0  0  0
 40 41  1  0  0  0  0
 41 34  1  0  0  0  0
 41 42  2  0  0  0  0
 43 40  1  0  0  0  0
M  END
>  <minimizedAffinity>
-6.64400911

>  <minimizedRMSD>
0.262754202

$$$$
