
 OpenBabel03212520583D

 43 47  0  0  1  0  0  0  0  0999 V2000
   39.7550   77.3390   59.2300 C   0  0  0  0  0  0  0  0  0  0  0  0
   40.4130   76.1740   58.9870 C   0  0  0  0  0  0  0  0  0  0  0  0
   39.8560   75.4620   57.9120 C   0  0  0  0  0  0  0  0  0  0  0  0
   38.7940   75.8780   57.1980 N   0  0  0  0  0  0  0  0  0  0  0  0
   38.2070   77.0680   57.5290 C   0  0  0  0  0  0  0  0  0  0  0  0
   38.6940   77.8040   58.5540 N   0  0  0  0  0  0  0  0  0  0  0  0
   41.2600   75.7960   59.5210 H   0  0  0  0  0  0  0  0  0  0  0  0
   40.2740   74.5080   57.5950 H   0  0  0  0  0  0  0  0  0  0  0  0
   40.9810   80.2990   61.7550 C   0  0  0  0  0  0  0  0  0  0  0  0
   40.9860   79.0640   62.3670 C   0  0  0  0  0  0  0  0  0  0  0  0
   40.5960   78.0060   61.6220 C   0  0  0  0  0  0  0  0  0  0  0  0
   40.2170   78.1880   60.3090 C   0  0  0  0  0  0  0  0  0  0  0  0
   40.4090   80.0000   60.0570 S   0  0  0  0  0  0  0  0  0  0  0  0
   41.2860   78.9230   63.4010 H   0  0  0  0  0  0  0  0  0  0  0  0
   40.5310   76.9670   61.9130 H   0  0  0  0  0  0  0  0  0  0  0  0
   43.0580   83.1110   62.8770 C   0  0  0  0  0  0  0  0  0  0  0  0
   42.1580   83.8700   63.6650 C   0  0  0  0  0  0  0  0  0  0  0  0
   40.8450   83.4200   63.8070 C   0  0  0  0  0  0  0  0  0  0  0  0
   40.4880   82.2770   63.1840 N   0  0  0  0  0  0  0  0  0  0  0  0
   41.3750   81.5640   62.4310 C   0  0  0  0  0  0  0  0  0  0  0  0
   42.6320   81.9860   62.2890 N   0  0  0  0  0  0  0  0  0  0  0  0
   44.0760   83.4570   62.7670 H   0  0  0  0  0  0  0  0  0  0  0  0
   42.4500   84.7840   64.1610 H   0  0  0  0  0  0  0  0  0  0  0  0
   40.0980   83.9360   64.3860 H   0  0  0  0  0  0  0  0  0  0  0  0
   37.0690   77.4980   56.7370 C   0  0  0  0  0  0  0  0  0  0  0  0
   35.9580   77.0350   57.0390 O   0  0  0  0  0  0  0  0  0  0  0  0
   37.2130   78.4600   55.5830 C   0  0  1  0  0  0  0  0  0  0  0  0
   37.3430   79.8970   56.0330 C   0  0  0  0  0  0  0  0  0  0  0  0
   38.4500   79.1840   55.3930 C   0  0  2  0  0  0  0  0  0  0  0  0
   36.3900   78.3730   54.8200 H   0  0  0  0  0  0  0  0  0  0  0  0
   36.7820   80.6480   55.4590 H   0  0  0  0  0  0  0  0  0  0  0  0
   37.3890   80.1150   57.1290 H   0  0  0  0  0  0  0  0  0  0  0  0
   39.3300   78.8420   56.0120 H   0  0  0  0  0  0  0  0  0  0  0  0
   38.8940   79.6570   54.1010 N   0  0  0  0  0  0  0  0  0  0  0  0
   40.2270   79.9220   54.0010 C   0  0  0  0  0  3  0  0  0  0  0  0
   40.8200   80.3830   52.8330 C   0  0  0  0  0  0  0  0  0  0  0  0
   41.8810   80.5840   52.7840 H   0  0  0  0  0  0  0  0  0  0  0  0
   40.0020   80.5710   51.7440 C   0  0  0  0  0  0  0  0  0  0  0  0
   40.4790   80.9850   50.6610 O   0  0  0  0  0  0  0  0  0  0  0  0
   38.6870   80.3000   51.8750 N   0  0  0  0  0  0  0  0  0  0  0  0
   38.1310   79.8540   53.0160 C   0  0  0  0  0  0  0  0  0  0  0  0
   36.9070   79.5980   53.1500 O   0  0  0  0  0  0  0  0  0  0  0  0
   38.0160   80.4230   51.0850 H   0  0  0  0  0  0  0  0  0  0  0  0
  1 12  1  0  0  0  0
  2  1  1  0  0  0  0
  2  7  1  0  0  0  0
  3  2  2  0  0  0  0
  4  5  2  0  0  0  0
  4  3  1  0  0  0  0
  5  6  1  0  0  0  0
  6  1  2  0  0  0  0
  8  3  1  0  0  0  0
  9 10  2  0  0  0  0
  9 20  1  0  0  0  0
 10 14  1  0  0  0  0
 11 15  1  0  0  0  0
 11 10  1  0  0  0  0
 12 11  2  0  0  0  0
 13 12  1  0  0  0  0
 13  9  1  0  0  0  0
 16 17  1  0  0  0  0
 17 18  2  0  0  0  0
 17 23  1  0  0  0  0
 18 24  1  0  0  0  0
 19 18  1  0  0  0  0
 20 19  2  0  0  0  0
 21 20  1  0  0  0  0
 21 16  2  0  0  0  0
 22 16  1  0  0  0  0
 25 26  2  0  0  0  0
 25  5  1  0  0  0  0
 27 30  1  6  0  0  0
 27 28  1  0  0  0  0
 27 25  1  0  0  0  0
 28 32  1  0  0  0  0
 29 27  1  0  0  0  0
 29 33  1  1  0  0  0
 29 28  1  0  0  0  0
 31 28  1  0  0  0  0
 34 29  1  0  0  0  0
 35 34  1  0  0  0  0
 36 35  2  0  0  0  0
 37 36  1  0  0  0  0
 38 40  1  0  0  0  0
 38 36  1  0  0  0  0
 39 38  2  0  0  0  0
 40 41  1  0  0  0  0
 41 42  2  0  0  0  0
 41 34  1  0  0  0  0
 43 40  1  0  0  0  0
M  END
>  <minimizedAffinity>
-6.69614553

>  <minimizedRMSD>
0.174803272

$$$$
