
 OpenBabel03212520593D

 43 47  0  0  1  0  0  0  0  0999 V2000
   39.6680   77.1720   59.1400 C   0  0  0  0  0  0  0  0  0  0  0  0
   40.3310   76.0150   58.8730 C   0  0  0  0  0  0  0  0  0  0  0  0
   39.7520   75.3020   57.8110 C   0  0  0  0  0  0  0  0  0  0  0  0
   38.6650   75.7090   57.1290 N   0  0  0  0  0  0  0  0  0  0  0  0
   38.0760   76.8910   57.4820 C   0  0  0  0  0  0  0  0  0  0  0  0
   38.5840   77.6280   58.4970 N   0  0  0  0  0  0  0  0  0  0  0  0
   41.1960   75.6440   59.3820 H   0  0  0  0  0  0  0  0  0  0  0  0
   40.1710   74.3530   57.4790 H   0  0  0  0  0  0  0  0  0  0  0  0
   40.9670   80.1290   61.6320 C   0  0  0  0  0  0  0  0  0  0  0  0
   40.9420   78.9000   62.2570 C   0  0  0  0  0  0  0  0  0  0  0  0
   40.5260   77.8450   61.5240 C   0  0  0  0  0  0  0  0  0  0  0  0
   40.1510   78.0210   60.2090 C   0  0  0  0  0  0  0  0  0  0  0  0
   40.3880   79.8250   59.9380 S   0  0  0  0  0  0  0  0  0  0  0  0
   41.2380   78.7630   63.2940 H   0  0  0  0  0  0  0  0  0  0  0  0
   40.4350   76.8110   61.8270 H   0  0  0  0  0  0  0  0  0  0  0  0
   43.1130   82.9030   62.7200 C   0  0  0  0  0  0  0  0  0  0  0  0
   42.2330   83.6900   63.5030 C   0  0  0  0  0  0  0  0  0  0  0  0
   40.9110   83.2720   63.6530 C   0  0  0  0  0  0  0  0  0  0  0  0
   40.5250   82.1320   63.0420 N   0  0  0  0  0  0  0  0  0  0  0  0
   41.3930   81.3900   62.2940 C   0  0  0  0  0  0  0  0  0  0  0  0
   42.6590   81.7810   62.1450 N   0  0  0  0  0  0  0  0  0  0  0  0
   44.1380   83.2230   62.6030 H   0  0  0  0  0  0  0  0  0  0  0  0
   42.5480   84.6020   63.9880 H   0  0  0  0  0  0  0  0  0  0  0  0
   40.1770   83.8110   64.2290 H   0  0  0  0  0  0  0  0  0  0  0  0
   36.9110   77.3120   56.7240 C   0  0  0  0  0  0  0  0  0  0  0  0
   35.7980   77.1310   57.2430 O   0  0  0  0  0  0  0  0  0  0  0  0
   37.0290   77.9380   55.3560 C   0  0  1  0  0  0  0  0  0  0  0  0
   37.4250   79.3950   55.4120 C   0  0  0  0  0  0  0  0  0  0  0  0
   38.3180   78.3720   54.8650 C   0  0  2  0  0  0  0  0  0  0  0  0
   36.1030   77.8200   54.7260 H   0  0  0  0  0  0  0  0  0  0  0  0
   36.9030   80.0770   54.7260 H   0  0  0  0  0  0  0  0  0  0  0  0
   37.6550   79.8530   56.4070 H   0  0  0  0  0  0  0  0  0  0  0  0
   39.2180   78.0360   55.4590 H   0  0  0  0  0  0  0  0  0  0  0  0
   38.6390   78.4450   53.4570 N   0  0  0  0  0  0  0  0  0  0  0  0
   38.3090   79.6160   52.8420 C   0  0  0  0  0  3  0  0  0  0  0  0
   38.5470   79.8540   51.4960 C   0  0  0  0  0  0  0  0  0  0  0  0
   38.2730   80.7930   51.0340 H   0  0  0  0  0  0  0  0  0  0  0  0
   39.1430   78.8470   50.7730 C   0  0  0  0  0  0  0  0  0  0  0  0
   39.3830   79.0020   49.5530 O   0  0  0  0  0  0  0  0  0  0  0  0
   39.4570   77.7020   51.4110 N   0  0  0  0  0  0  0  0  0  0  0  0
   39.2180   77.4890   52.7180 C   0  0  0  0  0  0  0  0  0  0  0  0
   39.5070   76.4250   53.3230 O   0  0  0  0  0  0  0  0  0  0  0  0
   39.9110   76.9010   50.9190 H   0  0  0  0  0  0  0  0  0  0  0  0
  1 12  1  0  0  0  0
  2  1  1  0  0  0  0
  2  7  1  0  0  0  0
  3  2  2  0  0  0  0
  4  5  2  0  0  0  0
  4  3  1  0  0  0  0
  5  6  1  0  0  0  0
  6  1  2  0  0  0  0
  8  3  1  0  0  0  0
  9 10  2  0  0  0  0
  9 20  1  0  0  0  0
 10 14  1  0  0  0  0
 11 15  1  0  0  0  0
 11 10  1  0  0  0  0
 12 11  2  0  0  0  0
 13 12  1  0  0  0  0
 13  9  1  0  0  0  0
 16 17  1  0  0  0  0
 17 18  2  0  0  0  0
 17 23  1  0  0  0  0
 18 24  1  0  0  0  0
 19 18  1  0  0  0  0
 20 19  2  0  0  0  0
 21 20  1  0  0  0  0
 21 16  2  0  0  0  0
 22 16  1  0  0  0  0
 25 26  2  0  0  0  0
 25  5  1  0  0  0  0
 27 30  1  6  0  0  0
 27 28  1  0  0  0  0
 27 25  1  0  0  0  0
 28 32  1  0  0  0  0
 29 27  1  0  0  0  0
 29 28  1  0  0  0  0
 29 33  1  1  0  0  0
 31 28  1  0  0  0  0
 34 29  1  0  0  0  0
 35 34  1  0  0  0  0
 36 35  2  0  0  0  0
 37 36  1  0  0  0  0
 38 40  1  0  0  0  0
 38 36  1  0  0  0  0
 39 38  2  0  0  0  0
 40 41  1  0  0  0  0
 41 42  2  0  0  0  0
 41 34  1  0  0  0  0
 43 40  1  0  0  0  0
M  END
>  <minimizedAffinity>
-6.49864388

>  <minimizedRMSD>
1.01849937

$$$$
