
 OpenBabel03212520593D

 43 47  0  0  1  0  0  0  0  0999 V2000
   39.7050   77.1330   59.4060 C   0  0  0  0  0  0  0  0  0  0  0  0
   40.2980   75.9190   59.2530 C   0  0  0  0  0  0  0  0  0  0  0  0
   39.7220   75.1730   58.2120 C   0  0  0  0  0  0  0  0  0  0  0  0
   38.7010   75.6020   57.4480 N   0  0  0  0  0  0  0  0  0  0  0  0
   38.1790   76.8420   57.6890 C   0  0  0  0  0  0  0  0  0  0  0  0
   38.6860   77.6130   58.6780 N   0  0  0  0  0  0  0  0  0  0  0  0
   41.1100   75.5290   59.8300 H   0  0  0  0  0  0  0  0  0  0  0  0
   40.0900   74.1780   57.9670 H   0  0  0  0  0  0  0  0  0  0  0  0
   40.9870   80.1870   61.7880 C   0  0  0  0  0  0  0  0  0  0  0  0
   41.0170   78.9740   62.4430 C   0  0  0  0  0  0  0  0  0  0  0  0
   40.6110   77.8890   61.7470 C   0  0  0  0  0  0  0  0  0  0  0  0
   40.1920   78.0220   60.4410 C   0  0  0  0  0  0  0  0  0  0  0  0
   40.3680   79.8250   60.1200 S   0  0  0  0  0  0  0  0  0  0  0  0
   41.3470   78.8710   63.4720 H   0  0  0  0  0  0  0  0  0  0  0  0
   40.5600   76.8600   62.0770 H   0  0  0  0  0  0  0  0  0  0  0  0
   43.0840   83.0410   62.7570 C   0  0  0  0  0  0  0  0  0  0  0  0
   42.2000   83.8280   63.5360 C   0  0  0  0  0  0  0  0  0  0  0  0
   40.8920   83.3830   63.7240 C   0  0  0  0  0  0  0  0  0  0  0  0
   40.5220   82.2170   63.1520 N   0  0  0  0  0  0  0  0  0  0  0  0
   41.3940   81.4760   62.4060 C   0  0  0  0  0  0  0  0  0  0  0  0
   42.6460   81.8930   62.2220 N   0  0  0  0  0  0  0  0  0  0  0  0
   44.0980   83.3830   62.6110 H   0  0  0  0  0  0  0  0  0  0  0  0
   42.5010   84.7610   63.9900 H   0  0  0  0  0  0  0  0  0  0  0  0
   40.1560   83.9190   64.2990 H   0  0  0  0  0  0  0  0  0  0  0  0
   37.0830   77.2850   56.8440 C   0  0  0  0  0  0  0  0  0  0  0  0
   35.9360   76.9530   57.1800 O   0  0  0  0  0  0  0  0  0  0  0  0
   37.3140   78.1060   55.5990 C   0  0  1  0  0  0  0  0  0  0  0  0
   37.3360   79.5920   55.8760 C   0  0  0  0  0  0  0  0  0  0  0  0
   38.5340   78.8670   55.4480 C   0  0  2  0  0  0  0  0  0  0  0  0
   36.5830   77.8840   54.7720 H   0  0  0  0  0  0  0  0  0  0  0  0
   36.8110   80.2370   55.1570 H   0  0  0  0  0  0  0  0  0  0  0  0
   37.2530   79.9440   56.9340 H   0  0  0  0  0  0  0  0  0  0  0  0
   39.3550   78.6500   56.1930 H   0  0  0  0  0  0  0  0  0  0  0  0
   39.0960   79.2030   54.1590 N   0  0  0  0  0  0  0  0  0  0  0  0
   40.2670   78.5770   53.8500 C   0  0  0  0  0  3  0  0  0  0  0  0
   40.9420   78.7840   52.6550 C   0  0  0  0  0  0  0  0  0  0  0  0
   41.8690   78.2730   52.4370 H   0  0  0  0  0  0  0  0  0  0  0  0
   40.3810   79.6650   51.7600 C   0  0  0  0  0  0  0  0  0  0  0  0
   40.9430   79.8930   50.6620 O   0  0  0  0  0  0  0  0  0  0  0  0
   39.2220   80.2680   52.0950 N   0  0  0  0  0  0  0  0  0  0  0  0
   38.5830   80.0540   53.2590 C   0  0  0  0  0  0  0  0  0  0  0  0
   37.5020   80.6110   53.5810 O   0  0  0  0  0  0  0  0  0  0  0  0
   38.7470   80.9450   51.4590 H   0  0  0  0  0  0  0  0  0  0  0  0
  1 12  1  0  0  0  0
  2  1  1  0  0  0  0
  2  7  1  0  0  0  0
  3  2  2  0  0  0  0
  4  5  2  0  0  0  0
  4  3  1  0  0  0  0
  5  6  1  0  0  0  0
  6  1  2  0  0  0  0
  8  3  1  0  0  0  0
  9 20  1  0  0  0  0
  9 10  2  0  0  0  0
 10 14  1  0  0  0  0
 11 15  1  0  0  0  0
 11 10  1  0  0  0  0
 12 11  2  0  0  0  0
 13 12  1  0  0  0  0
 13  9  1  0  0  0  0
 16 17  1  0  0  0  0
 17 18  2  0  0  0  0
 17 23  1  0  0  0  0
 18 24  1  0  0  0  0
 19 18  1  0  0  0  0
 20 19  2  0  0  0  0
 21 20  1  0  0  0  0
 21 16  2  0  0  0  0
 22 16  1  0  0  0  0
 25 26  2  0  0  0  0
 25  5  1  0  0  0  0
 27 30  1  6  0  0  0
 27 28  1  0  0  0  0
 27 25  1  0  0  0  0
 28 32  1  0  0  0  0
 29 27  1  0  0  0  0
 29 28  1  0  0  0  0
 29 33  1  1  0  0  0
 31 28  1  0  0  0  0
 34 29  1  0  0  0  0
 35 34  1  0  0  0  0
 36 35  2  0  0  0  0
 37 36  1  0  0  0  0
 38 40  1  0  0  0  0
 38 36  1  0  0  0  0
 39 38  2  0  0  0  0
 40 41  1  0  0  0  0
 41 42  2  0  0  0  0
 41 34  1  0  0  0  0
 43 40  1  0  0  0  0
M  END
>  <minimizedAffinity>
-6.45082569

>  <minimizedRMSD>
0.379748255

$$$$
