
 OpenBabel03212520433D

 19 20  0  0  0  0  0  0  0  0999 V2000
   40.1440   81.9850   60.7340 C   0  0  0  0  0  0  0  0  0  0  0  0
   40.2680   82.8970   59.6760 C   0  0  0  0  0  0  0  0  0  0  0  0
   39.6440   84.1430   59.8210 C   0  0  0  0  0  0  0  0  0  0  0  0
   38.9600   84.3970   60.9680 N   0  0  0  0  0  0  0  0  0  0  0  0
   38.8600   83.5020   61.9640 C   0  0  0  0  0  0  0  0  0  0  0  0
   39.4510   82.2870   61.8570 N   0  0  0  0  0  0  0  0  0  0  0  0
   40.8430   82.5440   58.8350 H   0  0  0  0  0  0  0  0  0  0  0  0
   39.7620   84.8110   58.9920 H   0  0  0  0  0  0  0  0  0  0  0  0
   38.3000   83.7560   62.8620 H   0  0  0  0  0  0  0  0  0  0  0  0
   40.7080   80.6780   60.7650 N   0  0  0  0  0  0  0  0  0  0  0  0
   41.5520   80.5360   61.8190 C   0  0  0  0  0  3  0  0  0  0  0  0
   42.2180   79.3310   62.0440 C   0  0  0  0  0  0  0  0  0  0  0  0
   42.8980   79.1710   62.8670 H   0  0  0  0  0  0  0  0  0  0  0  0
   41.9840   78.2940   61.1570 C   0  0  0  0  0  0  0  0  0  0  0  0
   42.5650   77.1880   61.3230 O   0  0  0  0  0  0  0  0  0  0  0  0
   41.1400   78.4820   60.1310 N   0  0  0  0  0  0  0  0  0  0  0  0
   40.5050   79.6470   59.9240 C   0  0  0  0  0  0  0  0  0  0  0  0
   39.7010   79.9070   58.9910 O   0  0  0  0  0  0  0  0  0  0  0  0
   40.9320   77.7350   59.4370 H   0  0  0  0  0  0  0  0  0  0  0  0
  1 10  1  0  0  0  0
  1  6  1  0  0  0  0
  2  3  1  0  0  0  0
  2  1  2  0  0  0  0
  3  4  2  0  0  0  0
  4  5  1  0  0  0  0
  5  9  1  0  0  0  0
  6  5  2  0  0  0  0
  7  2  1  0  0  0  0
  8  3  1  0  0  0  0
 10 11  1  0  0  0  0
 11 12  2  0  0  0  0
 12 13  1  0  0  0  0
 14 15  2  0  0  0  0
 14 12  1  0  0  0  0
 16 14  1  0  0  0  0
 17 16  1  0  0  0  0
 17 10  1  0  0  0  0
 18 17  2  0  0  0  0
 19 16  1  0  0  0  0
M  END
>  <minimizedAffinity>
-4.63221455

>  <minimizedRMSD>
0.21496129

$$$$
