
 OpenBabel03212520203D

 37 39  0  0  0  0  0  0  0  0999 V2000
   43.1800   83.8580   58.6130 Cl  0  0  0  0  0  0  0  0  0  0  0  0
   41.9150   82.7140   58.2100 C   0  0  0  0  0  0  0  0  0  0  0  0
   41.0120   82.2250   59.1560 C   0  0  0  0  0  0  0  0  0  0  0  0
   40.0690   81.3270   58.6780 C   0  0  0  0  0  0  0  0  0  0  0  0
   39.9440   80.8840   57.3840 C   0  0  0  0  0  0  0  0  0  0  0  0
   40.8390   81.3830   56.4970 C   0  0  0  0  0  0  0  0  0  0  0  0
   40.7990   80.9030   54.8020 Cl  0  0  0  0  0  0  0  0  0  0  0  0
   41.8220   82.2940   56.9020 C   0  0  0  0  0  0  0  0  0  0  0  0
   39.3850   80.9670   59.4390 H   0  0  0  0  0  0  0  0  0  0  0  0
   39.1760   80.1810   57.1050 H   0  0  0  0  0  0  0  0  0  0  0  0
   41.9470   82.1400   61.5140 C   0  0  0  0  0  0  0  0  0  0  0  0
   41.1140   82.6620   60.4940 C   0  0  0  0  0  0  0  0  0  0  0  0
   40.2890   83.7380   60.8410 C   0  0  0  0  0  0  0  0  0  0  0  0
   40.3630   84.1860   62.1310 N   0  0  0  0  0  0  0  0  0  0  0  0
   41.1620   83.6650   63.0630 C   0  0  0  0  0  0  0  0  0  0  0  0
   41.9680   82.6250   62.7520 N   0  0  0  0  0  0  0  0  0  0  0  0
   42.5570   81.3110   61.1780 H   0  0  0  0  0  0  0  0  0  0  0  0
   39.6080   84.2260   60.1560 H   0  0  0  0  0  0  0  0  0  0  0  0
   41.0810   84.3060   64.3940 C   0  0  0  0  0  0  0  0  0  0  0  0
   40.7460   85.6410   64.3230 F   0  0  0  0  0  0  0  0  0  0  0  0
   40.1270   83.6580   65.1760 F   0  0  0  0  0  0  0  0  0  0  0  0
   42.3330   84.2680   65.0430 F   0  0  0  0  0  0  0  0  0  0  0  0
   42.7210   82.7840   55.9690 O   0  0  0  0  0  0  0  0  0  0  0  0
   42.5110   83.9170   55.1880 C   0  0  0  0  0  0  0  0  0  0  0  0
   42.5350   83.6290   54.1040 H   0  0  0  0  0  0  0  0  0  0  0  0
   41.5840   84.4630   55.4170 H   0  0  0  0  0  0  0  0  0  0  0  0
   43.5780   84.8060   55.3700 O   0  0  0  0  0  0  0  0  0  0  0  0
   47.8250   83.3880   55.5110 H   0  0  0  0  0  0  0  0  0  0  0  0
   47.0650   83.9000   55.0070 N   0  0  0  0  0  0  0  0  0  0  0  0
   45.8710   83.9440   55.6240 C   0  0  0  0  0  3  0  0  0  0  0  0
   44.8760   84.6270   54.9440 C   0  0  0  0  0  0  0  0  0  0  0  0
   45.1480   85.2030   53.7190 C   0  0  0  0  0  0  0  0  0  0  0  0
   44.2830   85.8460   53.0370 O   0  0  0  0  0  0  0  0  0  0  0  0
   46.3550   85.1410   53.1280 N   0  0  0  0  0  0  0  0  0  0  0  0
   47.3130   84.4650   53.8200 C   0  0  0  0  0  0  0  0  0  0  0  0
   48.4680   84.3710   53.3210 O   0  0  0  0  0  0  0  0  0  0  0  0
   46.5690   85.5760   52.2020 H   0  0  0  0  0  0  0  0  0  0  0  0
  2  1  1  0  0  0  0
  2  3  1  0  0  0  0
  3 12  1  0  0  0  0
  4  3  2  0  0  0  0
  4  9  1  0  0  0  0
  5  4  1  0  0  0  0
  6  8  1  0  0  0  0
  6  5  2  0  0  0  0
  7  6  1  0  0  0  0
  8  2  2  0  0  0  0
 10  5  1  0  0  0  0
 11 16  1  0  0  0  0
 12 13  1  0  0  0  0
 12 11  2  0  0  0  0
 13 14  2  0  0  0  0
 14 15  1  0  0  0  0
 15 19  1  0  0  0  0
 16 15  2  0  0  0  0
 17 11  1  0  0  0  0
 18 13  1  0  0  0  0
 19 22  1  0  0  0  0
 19 21  1  0  0  0  0
 20 19  1  0  0  0  0
 23  8  1  0  0  0  0
 24 27  1  0  0  0  0
 24 26  1  0  0  0  0
 24 23  1  0  0  0  0
 25 24  1  0  0  0  0
 29 28  1  0  0  0  0
 29 30  1  0  0  0  0
 31 27  1  0  0  0  0
 31 30  2  0  0  0  0
 32 31  1  0  0  0  0
 33 32  2  0  0  0  0
 34 32  1  0  0  0  0
 34 35  1  0  0  0  0
 35 29  1  0  0  0  0
 36 35  2  0  0  0  0
 37 34  1  0  0  0  0
M  END
>  <minimizedAffinity>
-5.03724957

>  <minimizedRMSD>
0.987470388

$$$$
