
 OpenBabel03212520163D

 33 35  0  0  0  0  0  0  0  0999 V2000
   41.4470   83.7170   58.2640 Cl  0  0  0  0  0  0  0  0  0  0  0  0
   40.9050   82.0470   58.3470 C   0  0  0  0  0  0  0  0  0  0  0  0
   40.6890   81.3820   59.5370 C   0  0  0  0  0  0  0  0  0  0  0  0
   40.2640   80.0740   59.4220 C   0  0  0  0  0  0  0  0  0  0  0  0
   40.0410   79.3860   58.2570 C   0  0  0  0  0  0  0  0  0  0  0  0
   40.2710   80.0890   57.0940 C   0  0  0  0  0  0  0  0  0  0  0  0
   40.0210   79.3190   55.5330 Cl  0  0  0  0  0  0  0  0  0  0  0  0
   40.7020   81.4210   57.1490 C   0  0  0  0  0  0  0  0  0  0  0  0
   40.0890   79.5370   60.3520 H   0  0  0  0  0  0  0  0  0  0  0  0
   39.7110   78.3710   58.2350 H   0  0  0  0  0  0  0  0  0  0  0  0
   42.1220   82.3310   61.4040 C   0  0  0  0  0  0  0  0  0  0  0  0
   40.9120   82.0740   60.7640 C   0  0  0  0  0  0  0  0  0  0  0  0
   39.7480   82.5470   61.3880 C   0  0  0  0  0  0  0  0  0  0  0  0
   39.8620   83.2180   62.5630 N   0  0  0  0  0  0  0  0  0  0  0  0
   41.0530   83.4440   63.1470 C   0  0  0  0  0  0  0  0  0  0  0  0
   42.1830   82.9960   62.5620 N   0  0  0  0  0  0  0  0  0  0  0  0
   42.9880   81.9510   60.8920 H   0  0  0  0  0  0  0  0  0  0  0  0
   38.7490   82.4110   60.9920 H   0  0  0  0  0  0  0  0  0  0  0  0
   41.0100   84.1930   64.4300 C   0  0  0  0  0  0  0  0  0  0  0  0
   40.7030   85.5230   64.2430 F   0  0  0  0  0  0  0  0  0  0  0  0
   40.0660   83.6370   65.2660 F   0  0  0  0  0  0  0  0  0  0  0  0
   42.2580   84.2090   65.0470 F   0  0  0  0  0  0  0  0  0  0  0  0
   40.9070   82.0500   55.9330 O   0  0  0  0  0  0  0  0  0  0  0  0
   43.5570   85.5760   54.8650 H   0  0  0  0  0  0  0  0  0  0  0  0
   43.4560   84.5390   54.9880 N   0  0  0  0  0  0  0  0  0  0  0  0
   42.2530   84.0740   55.3700 C   0  0  0  0  0  3  0  0  0  0  0  0
   42.0470   82.7150   55.5510 C   0  0  0  0  0  0  0  0  0  0  0  0
   43.1320   81.8650   55.3210 C   0  0  0  0  0  0  0  0  0  0  0  0
   43.0880   80.6340   55.4440 O   0  0  0  0  0  0  0  0  0  0  0  0
   44.3160   82.3900   54.9380 N   0  0  0  0  0  0  0  0  0  0  0  0
   44.5020   83.7100   54.7660 C   0  0  0  0  0  0  0  0  0  0  0  0
   45.5860   84.2190   54.4140 O   0  0  0  0  0  0  0  0  0  0  0  0
   45.1680   81.8270   54.7480 H   0  0  0  0  0  0  0  0  0  0  0  0
  1  2  1  0  0  0  0
  2  3  1  0  0  0  0
  3 12  1  0  0  0  0
  4  3  2  0  0  0  0
  4  9  1  0  0  0  0
  5  4  1  0  0  0  0
  6  8  1  0  0  0  0
  6  5  2  0  0  0  0
  7  6  1  0  0  0  0
  8  2  2  0  0  0  0
 10  5  1  0  0  0  0
 11 16  1  0  0  0  0
 12 13  1  0  0  0  0
 12 11  2  0  0  0  0
 13 14  2  0  0  0  0
 14 15  1  0  0  0  0
 15 19  1  0  0  0  0
 16 15  2  0  0  0  0
 17 11  1  0  0  0  0
 18 13  1  0  0  0  0
 19 22  1  0  0  0  0
 19 21  1  0  0  0  0
 20 19  1  0  0  0  0
 23  8  1  0  0  0  0
 24 25  1  0  0  0  0
 25 26  1  0  0  0  0
 26 27  2  0  0  0  0
 27 23  1  0  0  0  0
 28 29  2  0  0  0  0
 28 27  1  0  0  0  0
 30 28  1  0  0  0  0
 31 30  1  0  0  0  0
 31 25  1  0  0  0  0
 32 31  2  0  0  0  0
 33 30  1  0  0  0  0
M  END
>  <minimizedAffinity>
-5.48218298

>  <minimizedRMSD>
1.23216021

$$$$
