
 OpenBabel03212520163D

 33 35  0  0  0  0  0  0  0  0999 V2000
   42.1940   83.9480   58.3420 Cl  0  0  0  0  0  0  0  0  0  0  0  0
   41.2250   82.4880   58.2050 C   0  0  0  0  0  0  0  0  0  0  0  0
   40.6750   81.8420   59.2930 C   0  0  0  0  0  0  0  0  0  0  0  0
   39.9410   80.7090   59.0070 C   0  0  0  0  0  0  0  0  0  0  0  0
   39.7140   80.1740   57.7650 C   0  0  0  0  0  0  0  0  0  0  0  0
   40.2830   80.8510   56.7090 C   0  0  0  0  0  0  0  0  0  0  0  0
   40.0640   80.2670   55.0650 Cl  0  0  0  0  0  0  0  0  0  0  0  0
   41.0370   82.0090   56.9380 C   0  0  0  0  0  0  0  0  0  0  0  0
   39.5010   80.1890   59.8550 H   0  0  0  0  0  0  0  0  0  0  0  0
   39.1340   79.2900   57.6100 H   0  0  0  0  0  0  0  0  0  0  0  0
   41.9640   82.1440   61.4580 C   0  0  0  0  0  0  0  0  0  0  0  0
   40.8950   82.3780   60.5970 C   0  0  0  0  0  0  0  0  0  0  0  0
   39.8920   83.2490   61.0480 C   0  0  0  0  0  0  0  0  0  0  0  0
   40.0150   83.8070   62.2790 N   0  0  0  0  0  0  0  0  0  0  0  0
   41.0680   83.5530   63.0790 C   0  0  0  0  0  0  0  0  0  0  0  0
   42.0410   82.7180   62.6630 N   0  0  0  0  0  0  0  0  0  0  0  0
   42.7090   81.4710   61.0720 H   0  0  0  0  0  0  0  0  0  0  0  0
   39.0110   83.5100   60.4730 H   0  0  0  0  0  0  0  0  0  0  0  0
   41.0570   84.2410   64.3960 C   0  0  0  0  0  0  0  0  0  0  0  0
   40.7650   85.5830   64.2770 F   0  0  0  0  0  0  0  0  0  0  0  0
   40.1190   83.6590   65.2220 F   0  0  0  0  0  0  0  0  0  0  0  0
   42.3140   84.2120   64.9920 F   0  0  0  0  0  0  0  0  0  0  0  0
   41.5720   82.6240   55.8200 O   0  0  0  0  0  0  0  0  0  0  0  0
   45.2120   85.2990   55.3880 H   0  0  0  0  0  0  0  0  0  0  0  0
   44.8130   84.3290   55.4050 N   0  0  0  0  0  0  0  0  0  0  0  0
   43.4870   84.2080   55.6000 C   0  0  0  0  0  3  0  0  0  0  0  0
   42.8920   82.9560   55.6340 C   0  0  0  0  0  0  0  0  0  0  0  0
   43.7220   81.8450   55.4590 C   0  0  0  0  0  0  0  0  0  0  0  0
   43.3230   80.6730   55.4670 O   0  0  0  0  0  0  0  0  0  0  0  0
   45.0460   82.0310   55.2660 N   0  0  0  0  0  0  0  0  0  0  0  0
   45.6100   83.2500   55.2350 C   0  0  0  0  0  0  0  0  0  0  0  0
   46.8300   83.4470   55.0600 O   0  0  0  0  0  0  0  0  0  0  0  0
   45.7260   81.2590   55.1290 H   0  0  0  0  0  0  0  0  0  0  0  0
  2  1  1  0  0  0  0
  2  3  1  0  0  0  0
  3 12  1  0  0  0  0
  4  3  2  0  0  0  0
  4  9  1  0  0  0  0
  5  4  1  0  0  0  0
  6  8  1  0  0  0  0
  6  5  2  0  0  0  0
  7  6  1  0  0  0  0
  8  2  2  0  0  0  0
 10  5  1  0  0  0  0
 11 16  1  0  0  0  0
 12 13  1  0  0  0  0
 12 11  2  0  0  0  0
 13 14  2  0  0  0  0
 14 15  1  0  0  0  0
 15 19  1  0  0  0  0
 16 15  2  0  0  0  0
 17 11  1  0  0  0  0
 18 13  1  0  0  0  0
 19 22  1  0  0  0  0
 19 21  1  0  0  0  0
 20 19  1  0  0  0  0
 23  8  1  0  0  0  0
 24 25  1  0  0  0  0
 25 26  1  0  0  0  0
 26 27  2  0  0  0  0
 27 23  1  0  0  0  0
 28 29  2  0  0  0  0
 28 27  1  0  0  0  0
 30 28  1  0  0  0  0
 31 30  1  0  0  0  0
 31 25  1  0  0  0  0
 32 31  2  0  0  0  0
 33 30  1  0  0  0  0
M  END
>  <minimizedAffinity>
-5.1618228

>  <minimizedRMSD>
0.978656948

$$$$
