
 OpenBabel03212520213D

 37 39  0  0  0  0  0  0  0  0999 V2000
   43.1540   83.8170   58.6270 Cl  0  0  0  0  0  0  0  0  0  0  0  0
   41.8870   82.6710   58.2370 C   0  0  0  0  0  0  0  0  0  0  0  0
   40.9860   82.1910   59.1900 C   0  0  0  0  0  0  0  0  0  0  0  0
   40.0410   81.2890   58.7230 C   0  0  0  0  0  0  0  0  0  0  0  0
   39.9120   80.8360   57.4330 C   0  0  0  0  0  0  0  0  0  0  0  0
   40.8060   81.3260   56.5390 C   0  0  0  0  0  0  0  0  0  0  0  0
   40.7610   80.8310   54.8490 Cl  0  0  0  0  0  0  0  0  0  0  0  0
   41.7900   82.2390   56.9340 C   0  0  0  0  0  0  0  0  0  0  0  0
   39.3590   80.9370   59.4880 H   0  0  0  0  0  0  0  0  0  0  0  0
   39.1430   80.1300   57.1620 H   0  0  0  0  0  0  0  0  0  0  0  0
   41.9290   82.1270   61.5460 C   0  0  0  0  0  0  0  0  0  0  0  0
   41.0920   82.6390   60.5240 C   0  0  0  0  0  0  0  0  0  0  0  0
   40.2670   83.7160   60.8650 C   0  0  0  0  0  0  0  0  0  0  0  0
   40.3440   84.1760   62.1510 N   0  0  0  0  0  0  0  0  0  0  0  0
   41.1470   83.6640   63.0840 C   0  0  0  0  0  0  0  0  0  0  0  0
   41.9540   82.6230   62.7790 N   0  0  0  0  0  0  0  0  0  0  0  0
   42.5400   81.2970   61.2150 H   0  0  0  0  0  0  0  0  0  0  0  0
   39.5820   84.1980   60.1780 H   0  0  0  0  0  0  0  0  0  0  0  0
   41.0690   84.3160   64.4100 C   0  0  0  0  0  0  0  0  0  0  0  0
   40.7410   85.6520   64.3290 F   0  0  0  0  0  0  0  0  0  0  0  0
   40.1120   83.6790   65.1980 F   0  0  0  0  0  0  0  0  0  0  0  0
   42.3220   84.2770   65.0590 F   0  0  0  0  0  0  0  0  0  0  0  0
   42.6870   82.7200   55.9940 O   0  0  0  0  0  0  0  0  0  0  0  0
   42.4360   83.7870   55.1340 C   0  0  0  0  0  0  0  0  0  0  0  0
   42.5540   83.4420   54.0730 H   0  0  0  0  0  0  0  0  0  0  0  0
   41.4540   84.2620   55.2730 H   0  0  0  0  0  0  0  0  0  0  0  0
   43.4110   84.7730   55.3260 O   0  0  0  0  0  0  0  0  0  0  0  0
   47.3510   83.0150   54.1180 H   0  0  0  0  0  0  0  0  0  0  0  0
   46.8110   83.6870   54.7100 N   0  0  0  0  0  0  0  0  0  0  0  0
   45.4780   83.6910   54.5340 C   0  0  0  0  0  3  0  0  0  0  0  0
   44.7760   84.5860   55.3260 C   0  0  0  0  0  0  0  0  0  0  0  0
   45.4530   85.3940   56.2170 C   0  0  0  0  0  0  0  0  0  0  0  0
   44.8750   86.2400   56.9760 O   0  0  0  0  0  0  0  0  0  0  0  0
   46.7900   85.3670   56.3700 N   0  0  0  0  0  0  0  0  0  0  0  0
   47.4510   84.4770   55.5780 C   0  0  0  0  0  0  0  0  0  0  0  0
   48.7070   84.4000   55.6720 O   0  0  0  0  0  0  0  0  0  0  0  0
   47.3100   85.9750   57.0420 H   0  0  0  0  0  0  0  0  0  0  0  0
  2  1  1  0  0  0  0
  2  3  1  0  0  0  0
  3 12  1  0  0  0  0
  4  3  2  0  0  0  0
  4  9  1  0  0  0  0
  5  4  1  0  0  0  0
  6  8  1  0  0  0  0
  6  5  2  0  0  0  0
  7  6  1  0  0  0  0
  8  2  2  0  0  0  0
 10  5  1  0  0  0  0
 11 16  1  0  0  0  0
 12 13  1  0  0  0  0
 12 11  2  0  0  0  0
 13 14  2  0  0  0  0
 14 15  1  0  0  0  0
 15 19  1  0  0  0  0
 16 15  2  0  0  0  0
 17 11  1  0  0  0  0
 18 13  1  0  0  0  0
 19 22  1  0  0  0  0
 19 21  1  0  0  0  0
 20 19  1  0  0  0  0
 23  8  1  0  0  0  0
 24 26  1  0  0  0  0
 24 27  1  0  0  0  0
 24 23  1  0  0  0  0
 25 24  1  0  0  0  0
 27 31  1  0  0  0  0
 28 29  1  0  0  0  0
 29 35  1  0  0  0  0
 30 29  1  0  0  0  0
 30 31  2  0  0  0  0
 31 32  1  0  0  0  0
 32 34  1  0  0  0  0
 32 33  2  0  0  0  0
 34 37  1  0  0  0  0
 35 36  2  0  0  0  0
 35 34  1  0  0  0  0
M  END
>  <minimizedAffinity>
-5.06057739

>  <minimizedRMSD>
0.771947801

$$$$
