
 OpenBabel03212520213D

 37 39  0  0  0  0  0  0  0  0999 V2000
   43.1400   83.9270   58.6120 Cl  0  0  0  0  0  0  0  0  0  0  0  0
   41.9010   82.7540   58.2130 C   0  0  0  0  0  0  0  0  0  0  0  0
   41.0170   82.2400   59.1630 C   0  0  0  0  0  0  0  0  0  0  0  0
   40.0920   81.3200   58.6880 C   0  0  0  0  0  0  0  0  0  0  0  0
   39.9700   80.8800   57.3940 C   0  0  0  0  0  0  0  0  0  0  0  0
   40.8470   81.4030   56.5020 C   0  0  0  0  0  0  0  0  0  0  0  0
   40.8070   80.9280   54.8060 Cl  0  0  0  0  0  0  0  0  0  0  0  0
   41.8100   82.3360   56.9040 C   0  0  0  0  0  0  0  0  0  0  0  0
   39.4230   80.9410   59.4520 H   0  0  0  0  0  0  0  0  0  0  0  0
   39.2170   80.1580   57.1170 H   0  0  0  0  0  0  0  0  0  0  0  0
   41.9570   82.1580   61.5190 C   0  0  0  0  0  0  0  0  0  0  0  0
   41.1170   82.6740   60.5020 C   0  0  0  0  0  0  0  0  0  0  0  0
   40.2820   83.7400   60.8540 C   0  0  0  0  0  0  0  0  0  0  0  0
   40.3530   84.1860   62.1450 N   0  0  0  0  0  0  0  0  0  0  0  0
   41.1600   83.6710   63.0730 C   0  0  0  0  0  0  0  0  0  0  0  0
   41.9760   82.6400   62.7580 N   0  0  0  0  0  0  0  0  0  0  0  0
   42.5750   81.3370   61.1790 H   0  0  0  0  0  0  0  0  0  0  0  0
   39.5940   84.2230   60.1710 H   0  0  0  0  0  0  0  0  0  0  0  0
   41.0740   84.3070   64.4060 C   0  0  0  0  0  0  0  0  0  0  0  0
   40.7350   85.6410   64.3400 F   0  0  0  0  0  0  0  0  0  0  0  0
   40.1220   83.6530   65.1860 F   0  0  0  0  0  0  0  0  0  0  0  0
   42.3260   84.2720   65.0570 F   0  0  0  0  0  0  0  0  0  0  0  0
   42.6900   82.8520   55.9670 O   0  0  0  0  0  0  0  0  0  0  0  0
   42.4720   84.0150   55.2330 C   0  0  0  0  0  0  0  0  0  0  0  0
   42.4910   83.7710   54.1390 H   0  0  0  0  0  0  0  0  0  0  0  0
   41.5450   84.5480   55.4890 H   0  0  0  0  0  0  0  0  0  0  0  0
   43.5370   84.8990   55.4450 O   0  0  0  0  0  0  0  0  0  0  0  0
   47.7130   83.3810   56.0260 H   0  0  0  0  0  0  0  0  0  0  0  0
   47.0170   83.8940   55.4370 N   0  0  0  0  0  0  0  0  0  0  0  0
   45.7730   83.9900   55.9390 C   0  0  0  0  0  3  0  0  0  0  0  0
   44.8630   84.6710   55.1470 C   0  0  0  0  0  0  0  0  0  0  0  0
   45.2620   85.1950   53.9330 C   0  0  0  0  0  0  0  0  0  0  0  0
   44.4820   85.8330   53.1530 O   0  0  0  0  0  0  0  0  0  0  0  0
   46.5160   85.0820   53.4590 N   0  0  0  0  0  0  0  0  0  0  0  0
   47.3880   84.4070   54.2590 C   0  0  0  0  0  0  0  0  0  0  0  0
   48.5800   84.2650   53.8710 O   0  0  0  0  0  0  0  0  0  0  0  0
   46.8260   85.4760   52.5410 H   0  0  0  0  0  0  0  0  0  0  0  0
  2  1  1  0  0  0  0
  2  3  1  0  0  0  0
  3 12  1  0  0  0  0
  4  3  2  0  0  0  0
  4  9  1  0  0  0  0
  5  4  1  0  0  0  0
  6  8  1  0  0  0  0
  6  5  2  0  0  0  0
  7  6  1  0  0  0  0
  8  2  2  0  0  0  0
 10  5  1  0  0  0  0
 11 16  1  0  0  0  0
 12 13  1  0  0  0  0
 12 11  2  0  0  0  0
 13 14  2  0  0  0  0
 14 15  1  0  0  0  0
 15 19  1  0  0  0  0
 16 15  2  0  0  0  0
 17 11  1  0  0  0  0
 18 13  1  0  0  0  0
 19 22  1  0  0  0  0
 19 21  1  0  0  0  0
 20 19  1  0  0  0  0
 23  8  1  0  0  0  0
 24 27  1  0  0  0  0
 24 26  1  0  0  0  0
 24 23  1  0  0  0  0
 25 24  1  0  0  0  0
 29 30  1  0  0  0  0
 29 28  1  0  0  0  0
 31 27  1  0  0  0  0
 31 30  2  0  0  0  0
 32 31  1  0  0  0  0
 33 32  2  0  0  0  0
 34 32  1  0  0  0  0
 34 35  1  0  0  0  0
 35 29  1  0  0  0  0
 36 35  2  0  0  0  0
 37 34  1  0  0  0  0
M  END
>  <minimizedAffinity>
-5.02824736

>  <minimizedRMSD>
0.266420752

$$$$
