
 OpenBabel03212520163D

 33 35  0  0  0  0  0  0  0  0999 V2000
   42.1490   84.0270   58.3650 Cl  0  0  0  0  0  0  0  0  0  0  0  0
   41.2060   82.5500   58.2190 C   0  0  0  0  0  0  0  0  0  0  0  0
   40.6740   81.8850   59.3050 C   0  0  0  0  0  0  0  0  0  0  0  0
   39.9580   80.7410   59.0120 C   0  0  0  0  0  0  0  0  0  0  0  0
   39.7330   80.2140   57.7660 C   0  0  0  0  0  0  0  0  0  0  0  0
   40.2830   80.9120   56.7130 C   0  0  0  0  0  0  0  0  0  0  0  0
   40.0650   80.3400   55.0650 Cl  0  0  0  0  0  0  0  0  0  0  0  0
   41.0180   82.0800   56.9490 C   0  0  0  0  0  0  0  0  0  0  0  0
   39.5330   80.2050   59.8570 H   0  0  0  0  0  0  0  0  0  0  0  0
   39.1680   79.3220   57.6060 H   0  0  0  0  0  0  0  0  0  0  0  0
   41.9560   82.1640   61.4760 C   0  0  0  0  0  0  0  0  0  0  0  0
   40.8930   82.4110   60.6120 C   0  0  0  0  0  0  0  0  0  0  0  0
   39.8940   83.2870   61.0640 C   0  0  0  0  0  0  0  0  0  0  0  0
   40.0170   83.8380   62.2990 N   0  0  0  0  0  0  0  0  0  0  0  0
   41.0640   83.5710   63.1020 C   0  0  0  0  0  0  0  0  0  0  0  0
   42.0330   82.7310   62.6850 N   0  0  0  0  0  0  0  0  0  0  0  0
   42.6980   81.4870   61.0900 H   0  0  0  0  0  0  0  0  0  0  0  0
   39.0180   83.5590   60.4870 H   0  0  0  0  0  0  0  0  0  0  0  0
   41.0530   84.2520   64.4220 C   0  0  0  0  0  0  0  0  0  0  0  0
   40.7580   85.5940   64.3110 F   0  0  0  0  0  0  0  0  0  0  0  0
   40.1180   83.6630   65.2460 F   0  0  0  0  0  0  0  0  0  0  0  0
   42.3110   84.2230   65.0160 F   0  0  0  0  0  0  0  0  0  0  0  0
   41.5340   82.7170   55.8340 O   0  0  0  0  0  0  0  0  0  0  0  0
   42.9150   81.1390   51.8090 H   0  0  0  0  0  0  0  0  0  0  0  0
   43.1350   81.3300   52.8170 N   0  0  0  0  0  0  0  0  0  0  0  0
   42.1650   81.8820   53.5690 C   0  0  0  0  0  3  0  0  0  0  0  0
   42.3860   82.1610   54.9090 C   0  0  0  0  0  0  0  0  0  0  0  0
   43.6420   81.8470   55.4320 C   0  0  0  0  0  0  0  0  0  0  0  0
   43.9730   82.0430   56.6090 O   0  0  0  0  0  0  0  0  0  0  0  0
   44.5760   81.2930   54.6280 N   0  0  0  0  0  0  0  0  0  0  0  0
   44.3490   81.0270   53.3300 C   0  0  0  0  0  0  0  0  0  0  0  0
   45.1960   80.5170   52.5680 O   0  0  0  0  0  0  0  0  0  0  0  0
   45.5300   81.0320   54.9420 H   0  0  0  0  0  0  0  0  0  0  0  0
  2  1  1  0  0  0  0
  2  3  1  0  0  0  0
  3 12  1  0  0  0  0
  4  3  2  0  0  0  0
  4  9  1  0  0  0  0
  5  4  1  0  0  0  0
  6  8  1  0  0  0  0
  6  5  2  0  0  0  0
  7  6  1  0  0  0  0
  8  2  2  0  0  0  0
 10  5  1  0  0  0  0
 11 16  1  0  0  0  0
 12 13  1  0  0  0  0
 12 11  2  0  0  0  0
 13 14  2  0  0  0  0
 14 15  1  0  0  0  0
 15 19  1  0  0  0  0
 16 15  2  0  0  0  0
 17 11  1  0  0  0  0
 18 13  1  0  0  0  0
 19 22  1  0  0  0  0
 19 21  1  0  0  0  0
 20 19  1  0  0  0  0
 23  8  1  0  0  0  0
 24 25  1  0  0  0  0
 25 31  1  0  0  0  0
 25 26  1  0  0  0  0
 26 27  2  0  0  0  0
 27 28  1  0  0  0  0
 27 23  1  0  0  0  0
 28 29  2  0  0  0  0
 30 33  1  0  0  0  0
 30 28  1  0  0  0  0
 31 30  1  0  0  0  0
 32 31  2  0  0  0  0
M  END
>  <minimizedAffinity>
-5.16468763

>  <minimizedRMSD>
0.928830564

$$$$
