
 OpenBabel03212520163D

 33 35  0  0  0  0  0  0  0  0999 V2000
   42.1720   83.9850   58.3550 Cl  0  0  0  0  0  0  0  0  0  0  0  0
   41.2180   82.5140   58.2160 C   0  0  0  0  0  0  0  0  0  0  0  0
   40.6780   81.8600   59.3050 C   0  0  0  0  0  0  0  0  0  0  0  0
   39.9560   80.7190   59.0180 C   0  0  0  0  0  0  0  0  0  0  0  0
   39.7300   80.1860   57.7750 C   0  0  0  0  0  0  0  0  0  0  0  0
   40.2890   80.8720   56.7190 C   0  0  0  0  0  0  0  0  0  0  0  0
   40.0720   80.2900   55.0740 Cl  0  0  0  0  0  0  0  0  0  0  0  0
   41.0320   82.0370   56.9490 C   0  0  0  0  0  0  0  0  0  0  0  0
   39.5230   80.1930   59.8660 H   0  0  0  0  0  0  0  0  0  0  0  0
   39.1600   79.2960   57.6190 H   0  0  0  0  0  0  0  0  0  0  0  0
   41.9710   82.1710   61.4660 C   0  0  0  0  0  0  0  0  0  0  0  0
   40.8970   82.3940   60.6090 C   0  0  0  0  0  0  0  0  0  0  0  0
   39.8850   83.2520   61.0660 C   0  0  0  0  0  0  0  0  0  0  0  0
   40.0060   83.8080   62.2990 N   0  0  0  0  0  0  0  0  0  0  0  0
   41.0640   83.5640   63.0950 C   0  0  0  0  0  0  0  0  0  0  0  0
   42.0460   82.7410   62.6720 N   0  0  0  0  0  0  0  0  0  0  0  0
   42.7230   81.5070   61.0760 H   0  0  0  0  0  0  0  0  0  0  0  0
   38.9990   83.5040   60.4950 H   0  0  0  0  0  0  0  0  0  0  0  0
   41.0490   84.2480   64.4140 C   0  0  0  0  0  0  0  0  0  0  0  0
   40.7580   85.5900   64.2980 F   0  0  0  0  0  0  0  0  0  0  0  0
   40.1100   83.6630   65.2350 F   0  0  0  0  0  0  0  0  0  0  0  0
   42.3060   84.2170   65.0120 F   0  0  0  0  0  0  0  0  0  0  0  0
   41.5560   82.6610   55.8310 O   0  0  0  0  0  0  0  0  0  0  0  0
   45.4240   80.5900   54.6710 H   0  0  0  0  0  0  0  0  0  0  0  0
   44.8770   81.4820   54.7520 N   0  0  0  0  0  0  0  0  0  0  0  0
   43.6230   81.3980   55.2330 C   0  0  0  0  0  3  0  0  0  0  0  0
   42.8430   82.5380   55.3660 C   0  0  0  0  0  0  0  0  0  0  0  0
   43.4130   83.7550   54.9850 C   0  0  0  0  0  0  0  0  0  0  0  0
   42.8300   84.8450   55.0510 O   0  0  0  0  0  0  0  0  0  0  0  0
   44.6770   83.7750   54.5090 N   0  0  0  0  0  0  0  0  0  0  0  0
   45.4220   82.6630   54.3830 C   0  0  0  0  0  0  0  0  0  0  0  0
   46.5910   82.6570   53.9470 O   0  0  0  0  0  0  0  0  0  0  0  0
   45.1690   84.6370   54.2050 H   0  0  0  0  0  0  0  0  0  0  0  0
  2  1  1  0  0  0  0
  2  3  1  0  0  0  0
  3 12  1  0  0  0  0
  4  3  2  0  0  0  0
  4  9  1  0  0  0  0
  5  4  1  0  0  0  0
  6  8  1  0  0  0  0
  6  5  2  0  0  0  0
  7  6  1  0  0  0  0
  8  2  2  0  0  0  0
 10  5  1  0  0  0  0
 11 16  1  0  0  0  0
 12 13  1  0  0  0  0
 12 11  2  0  0  0  0
 13 14  2  0  0  0  0
 14 15  1  0  0  0  0
 15 19  1  0  0  0  0
 16 15  2  0  0  0  0
 17 11  1  0  0  0  0
 18 13  1  0  0  0  0
 19 22  1  0  0  0  0
 19 21  1  0  0  0  0
 20 19  1  0  0  0  0
 23  8  1  0  0  0  0
 24 25  1  0  0  0  0
 25 26  1  0  0  0  0
 26 27  2  0  0  0  0
 27 23  1  0  0  0  0
 28 29  2  0  0  0  0
 28 27  1  0  0  0  0
 30 28  1  0  0  0  0
 31 30  1  0  0  0  0
 31 25  1  0  0  0  0
 32 31  2  0  0  0  0
 33 30  1  0  0  0  0
M  END
>  <minimizedAffinity>
-5.40117788

>  <minimizedRMSD>
0.462557912

$$$$
