
 OpenBabel03212520203D

 37 39  0  0  0  0  0  0  0  0999 V2000
   43.1370   83.9540   58.6090 Cl  0  0  0  0  0  0  0  0  0  0  0  0
   41.9070   82.7730   58.2080 C   0  0  0  0  0  0  0  0  0  0  0  0
   41.0270   82.2500   59.1570 C   0  0  0  0  0  0  0  0  0  0  0  0
   40.1100   81.3230   58.6810 C   0  0  0  0  0  0  0  0  0  0  0  0
   39.9900   80.8840   57.3850 C   0  0  0  0  0  0  0  0  0  0  0  0
   40.8630   81.4160   56.4950 C   0  0  0  0  0  0  0  0  0  0  0  0
   40.8270   80.9440   54.7980 Cl  0  0  0  0  0  0  0  0  0  0  0  0
   41.8190   82.3560   56.8990 C   0  0  0  0  0  0  0  0  0  0  0  0
   39.4430   80.9380   59.4440 H   0  0  0  0  0  0  0  0  0  0  0  0
   39.2440   80.1570   57.1070 H   0  0  0  0  0  0  0  0  0  0  0  0
   41.9630   82.1660   61.5150 C   0  0  0  0  0  0  0  0  0  0  0  0
   41.1240   82.6820   60.4960 C   0  0  0  0  0  0  0  0  0  0  0  0
   40.2860   83.7460   60.8480 C   0  0  0  0  0  0  0  0  0  0  0  0
   40.3550   84.1910   62.1400 N   0  0  0  0  0  0  0  0  0  0  0  0
   41.1600   83.6760   63.0700 C   0  0  0  0  0  0  0  0  0  0  0  0
   41.9790   82.6470   62.7550 N   0  0  0  0  0  0  0  0  0  0  0  0
   42.5830   81.3460   61.1750 H   0  0  0  0  0  0  0  0  0  0  0  0
   39.5990   84.2290   60.1650 H   0  0  0  0  0  0  0  0  0  0  0  0
   41.0710   84.3100   64.4030 C   0  0  0  0  0  0  0  0  0  0  0  0
   40.7310   85.6440   64.3370 F   0  0  0  0  0  0  0  0  0  0  0  0
   40.1170   83.6540   65.1790 F   0  0  0  0  0  0  0  0  0  0  0  0
   42.3220   84.2740   65.0570 F   0  0  0  0  0  0  0  0  0  0  0  0
   42.6940   82.8800   55.9620 O   0  0  0  0  0  0  0  0  0  0  0  0
   42.4430   84.0110   55.1890 C   0  0  0  0  0  0  0  0  0  0  0  0
   42.3830   83.7150   54.1090 H   0  0  0  0  0  0  0  0  0  0  0  0
   41.5430   84.5720   55.4810 H   0  0  0  0  0  0  0  0  0  0  0  0
   43.5320   84.8860   55.2850 O   0  0  0  0  0  0  0  0  0  0  0  0
   46.9930   83.1200   53.0550 H   0  0  0  0  0  0  0  0  0  0  0  0
   46.6380   83.6850   53.8600 N   0  0  0  0  0  0  0  0  0  0  0  0
   45.3040   83.8390   53.9310 C   0  0  0  0  0  3  0  0  0  0  0  0
   44.8480   84.5910   55.0010 C   0  0  0  0  0  0  0  0  0  0  0  0
   45.7480   85.1200   55.9040 C   0  0  0  0  0  0  0  0  0  0  0  0
   45.4020   85.8210   56.9130 O   0  0  0  0  0  0  0  0  0  0  0  0
   47.0790   84.9480   55.8060 N   0  0  0  0  0  0  0  0  0  0  0  0
   47.4960   84.2060   54.7430 C   0  0  0  0  0  0  0  0  0  0  0  0
   48.7340   84.0060   54.5920 O   0  0  0  0  0  0  0  0  0  0  0  0
   47.7670   85.3460   56.4850 H   0  0  0  0  0  0  0  0  0  0  0  0
  2  1  1  0  0  0  0
  2  3  1  0  0  0  0
  3 12  1  0  0  0  0
  4  3  2  0  0  0  0
  4  9  1  0  0  0  0
  5  4  1  0  0  0  0
  6  8  1  0  0  0  0
  6  5  2  0  0  0  0
  7  6  1  0  0  0  0
  8  2  2  0  0  0  0
 10  5  1  0  0  0  0
 11 16  1  0  0  0  0
 12 13  1  0  0  0  0
 12 11  2  0  0  0  0
 13 14  2  0  0  0  0
 14 15  1  0  0  0  0
 15 19  1  0  0  0  0
 16 15  2  0  0  0  0
 17 11  1  0  0  0  0
 18 13  1  0  0  0  0
 19 22  1  0  0  0  0
 19 21  1  0  0  0  0
 20 19  1  0  0  0  0
 23  8  1  0  0  0  0
 24 27  1  0  0  0  0
 24 26  1  0  0  0  0
 24 23  1  0  0  0  0
 25 24  1  0  0  0  0
 28 29  1  0  0  0  0
 29 30  1  0  0  0  0
 29 35  1  0  0  0  0
 30 31  2  0  0  0  0
 31 27  1  0  0  0  0
 31 32  1  0  0  0  0
 32 33  2  0  0  0  0
 34 32  1  0  0  0  0
 34 37  1  0  0  0  0
 35 34  1  0  0  0  0
 36 35  2  0  0  0  0
M  END
>  <minimizedAffinity>
-4.89138556

>  <minimizedRMSD>
0.260957092

$$$$
