
 OpenBabel03212520213D

 37 39  0  0  0  0  0  0  0  0999 V2000
   43.1810   83.8580   58.6100 Cl  0  0  0  0  0  0  0  0  0  0  0  0
   41.9150   82.7150   58.2070 C   0  0  0  0  0  0  0  0  0  0  0  0
   41.0130   82.2260   59.1540 C   0  0  0  0  0  0  0  0  0  0  0  0
   40.0690   81.3280   58.6760 C   0  0  0  0  0  0  0  0  0  0  0  0
   39.9440   80.8860   57.3820 C   0  0  0  0  0  0  0  0  0  0  0  0
   40.8400   81.3840   56.4950 C   0  0  0  0  0  0  0  0  0  0  0  0
   40.7990   80.9040   54.8000 Cl  0  0  0  0  0  0  0  0  0  0  0  0
   41.8230   82.2940   56.9000 C   0  0  0  0  0  0  0  0  0  0  0  0
   39.3850   80.9680   59.4370 H   0  0  0  0  0  0  0  0  0  0  0  0
   39.1760   80.1820   57.1030 H   0  0  0  0  0  0  0  0  0  0  0  0
   41.9500   82.1420   61.5110 C   0  0  0  0  0  0  0  0  0  0  0  0
   41.1150   82.6630   60.4910 C   0  0  0  0  0  0  0  0  0  0  0  0
   40.2880   83.7360   60.8390 C   0  0  0  0  0  0  0  0  0  0  0  0
   40.3620   84.1850   62.1300 N   0  0  0  0  0  0  0  0  0  0  0  0
   41.1630   83.6660   63.0610 C   0  0  0  0  0  0  0  0  0  0  0  0
   41.9710   82.6270   62.7490 N   0  0  0  0  0  0  0  0  0  0  0  0
   42.5610   81.3150   61.1740 H   0  0  0  0  0  0  0  0  0  0  0  0
   39.6060   84.2240   60.1550 H   0  0  0  0  0  0  0  0  0  0  0  0
   41.0810   84.3060   64.3920 C   0  0  0  0  0  0  0  0  0  0  0  0
   40.7470   85.6410   64.3220 F   0  0  0  0  0  0  0  0  0  0  0  0
   40.1270   83.6580   65.1740 F   0  0  0  0  0  0  0  0  0  0  0  0
   42.3340   84.2660   65.0420 F   0  0  0  0  0  0  0  0  0  0  0  0
   42.7210   82.7840   55.9670 O   0  0  0  0  0  0  0  0  0  0  0  0
   42.5120   83.9180   55.1850 C   0  0  0  0  0  0  0  0  0  0  0  0
   42.5360   83.6300   54.1020 H   0  0  0  0  0  0  0  0  0  0  0  0
   41.5840   84.4640   55.4140 H   0  0  0  0  0  0  0  0  0  0  0  0
   43.5780   84.8060   55.3680 O   0  0  0  0  0  0  0  0  0  0  0  0
   47.8250   83.3870   55.5090 H   0  0  0  0  0  0  0  0  0  0  0  0
   47.0660   83.9000   55.0050 N   0  0  0  0  0  0  0  0  0  0  0  0
   45.8720   83.9440   55.6210 C   0  0  0  0  0  3  0  0  0  0  0  0
   44.8760   84.6270   54.9420 C   0  0  0  0  0  0  0  0  0  0  0  0
   45.1490   85.2040   53.7180 C   0  0  0  0  0  0  0  0  0  0  0  0
   44.2840   85.8470   53.0360 O   0  0  0  0  0  0  0  0  0  0  0  0
   46.3560   85.1430   53.1270 N   0  0  0  0  0  0  0  0  0  0  0  0
   47.3140   84.4650   53.8180 C   0  0  0  0  0  0  0  0  0  0  0  0
   48.4700   84.3710   53.3190 O   0  0  0  0  0  0  0  0  0  0  0  0
   46.5710   85.5770   52.2000 H   0  0  0  0  0  0  0  0  0  0  0  0
  2  1  1  0  0  0  0
  2  3  1  0  0  0  0
  3 12  1  0  0  0  0
  4  3  2  0  0  0  0
  4  9  1  0  0  0  0
  5  4  1  0  0  0  0
  6  8  1  0  0  0  0
  6  5  2  0  0  0  0
  7  6  1  0  0  0  0
  8  2  2  0  0  0  0
 10  5  1  0  0  0  0
 11 16  1  0  0  0  0
 12 13  1  0  0  0  0
 12 11  2  0  0  0  0
 13 14  2  0  0  0  0
 14 15  1  0  0  0  0
 15 19  1  0  0  0  0
 16 15  2  0  0  0  0
 17 11  1  0  0  0  0
 18 13  1  0  0  0  0
 19 22  1  0  0  0  0
 19 21  1  0  0  0  0
 20 19  1  0  0  0  0
 23  8  1  0  0  0  0
 24 27  1  0  0  0  0
 24 26  1  0  0  0  0
 24 23  1  0  0  0  0
 25 24  1  0  0  0  0
 29 28  1  0  0  0  0
 29 30  1  0  0  0  0
 31 27  1  0  0  0  0
 31 30  2  0  0  0  0
 32 31  1  0  0  0  0
 33 32  2  0  0  0  0
 34 32  1  0  0  0  0
 34 35  1  0  0  0  0
 35 29  1  0  0  0  0
 36 35  2  0  0  0  0
 37 34  1  0  0  0  0
M  END
>  <minimizedAffinity>
-5.03983307

>  <minimizedRMSD>
0.750427842

$$$$
