
 OpenBabel03212520153D

 33 35  0  0  0  0  0  0  0  0999 V2000
   42.1810   84.0250   58.3390 Cl  0  0  0  0  0  0  0  0  0  0  0  0
   41.2330   82.5530   58.1890 C   0  0  0  0  0  0  0  0  0  0  0  0
   40.6930   81.8890   59.2730 C   0  0  0  0  0  0  0  0  0  0  0  0
   39.9750   80.7480   58.9770 C   0  0  0  0  0  0  0  0  0  0  0  0
   39.7520   80.2230   57.7300 C   0  0  0  0  0  0  0  0  0  0  0  0
   40.3100   80.9180   56.6800 C   0  0  0  0  0  0  0  0  0  0  0  0
   40.0960   80.3460   55.0310 Cl  0  0  0  0  0  0  0  0  0  0  0  0
   41.0490   82.0830   56.9190 C   0  0  0  0  0  0  0  0  0  0  0  0
   39.5430   80.2150   59.8210 H   0  0  0  0  0  0  0  0  0  0  0  0
   39.1850   79.3320   57.5680 H   0  0  0  0  0  0  0  0  0  0  0  0
   41.9740   82.1730   61.4450 C   0  0  0  0  0  0  0  0  0  0  0  0
   40.9090   82.4150   60.5810 C   0  0  0  0  0  0  0  0  0  0  0  0
   39.9050   83.2840   61.0340 C   0  0  0  0  0  0  0  0  0  0  0  0
   40.0250   83.8340   62.2700 N   0  0  0  0  0  0  0  0  0  0  0  0
   41.0730   83.5720   63.0730 C   0  0  0  0  0  0  0  0  0  0  0  0
   42.0470   82.7380   62.6550 N   0  0  0  0  0  0  0  0  0  0  0  0
   42.7190   81.5010   61.0580 H   0  0  0  0  0  0  0  0  0  0  0  0
   39.0280   83.5510   60.4570 H   0  0  0  0  0  0  0  0  0  0  0  0
   41.0580   84.2510   64.3950 C   0  0  0  0  0  0  0  0  0  0  0  0
   40.7660   85.5930   64.2840 F   0  0  0  0  0  0  0  0  0  0  0  0
   40.1170   83.6630   65.2130 F   0  0  0  0  0  0  0  0  0  0  0  0
   42.3130   84.2180   64.9940 F   0  0  0  0  0  0  0  0  0  0  0  0
   41.5720   82.7170   55.8060 O   0  0  0  0  0  0  0  0  0  0  0  0
   45.9630   81.5990   55.5540 H   0  0  0  0  0  0  0  0  0  0  0  0
   45.0790   81.8650   55.0560 N   0  0  0  0  0  0  0  0  0  0  0  0
   43.9880   82.0910   55.8100 C   0  0  0  0  0  3  0  0  0  0  0  0
   42.7850   82.4460   55.2180 C   0  0  0  0  0  0  0  0  0  0  0  0
   42.7610   82.5540   53.8250 C   0  0  0  0  0  0  0  0  0  0  0  0
   41.7570   82.8620   53.1700 O   0  0  0  0  0  0  0  0  0  0  0  0
   43.8890   82.3140   53.1220 N   0  0  0  0  0  0  0  0  0  0  0  0
   45.0490   81.9710   53.7080 C   0  0  0  0  0  0  0  0  0  0  0  0
   46.1040   81.7440   53.0800 O   0  0  0  0  0  0  0  0  0  0  0  0
   43.9520   82.3740   52.0870 H   0  0  0  0  0  0  0  0  0  0  0  0
  2  1  1  0  0  0  0
  2  3  1  0  0  0  0
  3 12  1  0  0  0  0
  4  3  2  0  0  0  0
  4  9  1  0  0  0  0
  5  4  1  0  0  0  0
  6  8  1  0  0  0  0
  6  5  2  0  0  0  0
  7  6  1  0  0  0  0
  8  2  2  0  0  0  0
 10  5  1  0  0  0  0
 11 16  1  0  0  0  0
 12 13  1  0  0  0  0
 12 11  2  0  0  0  0
 13 14  2  0  0  0  0
 14 15  1  0  0  0  0
 15 19  1  0  0  0  0
 16 15  2  0  0  0  0
 17 11  1  0  0  0  0
 18 13  1  0  0  0  0
 19 22  1  0  0  0  0
 19 21  1  0  0  0  0
 20 19  1  0  0  0  0
 23  8  1  0  0  0  0
 25 24  1  0  0  0  0
 25 26  1  0  0  0  0
 27 23  1  0  0  0  0
 27 26  2  0  0  0  0
 28 27  1  0  0  0  0
 29 28  2  0  0  0  0
 30 31  1  0  0  0  0
 30 28  1  0  0  0  0
 31 25  1  0  0  0  0
 32 31  2  0  0  0  0
 33 30  1  0  0  0  0
M  END
>  <minimizedAffinity>
-5.34962702

>  <minimizedRMSD>
0.441824287

$$$$
