
 OpenBabel03212520163D

 33 35  0  0  0  0  0  0  0  0999 V2000
   42.1470   84.0270   58.3650 Cl  0  0  0  0  0  0  0  0  0  0  0  0
   41.2050   82.5500   58.2200 C   0  0  0  0  0  0  0  0  0  0  0  0
   40.6740   81.8840   59.3060 C   0  0  0  0  0  0  0  0  0  0  0  0
   39.9590   80.7400   59.0140 C   0  0  0  0  0  0  0  0  0  0  0  0
   39.7330   80.2130   57.7680 C   0  0  0  0  0  0  0  0  0  0  0  0
   40.2830   80.9110   56.7150 C   0  0  0  0  0  0  0  0  0  0  0  0
   40.0640   80.3380   55.0670 Cl  0  0  0  0  0  0  0  0  0  0  0  0
   41.0170   82.0800   56.9500 C   0  0  0  0  0  0  0  0  0  0  0  0
   39.5340   80.2050   59.8600 H   0  0  0  0  0  0  0  0  0  0  0  0
   39.1690   79.3200   57.6090 H   0  0  0  0  0  0  0  0  0  0  0  0
   41.9580   82.1680   61.4760 C   0  0  0  0  0  0  0  0  0  0  0  0
   40.8930   82.4110   60.6130 C   0  0  0  0  0  0  0  0  0  0  0  0
   39.8920   83.2840   61.0670 C   0  0  0  0  0  0  0  0  0  0  0  0
   40.0150   83.8350   62.3020 N   0  0  0  0  0  0  0  0  0  0  0  0
   41.0640   83.5710   63.1030 C   0  0  0  0  0  0  0  0  0  0  0  0
   42.0340   82.7350   62.6850 N   0  0  0  0  0  0  0  0  0  0  0  0
   42.7020   81.4940   61.0890 H   0  0  0  0  0  0  0  0  0  0  0  0
   39.0140   83.5520   60.4910 H   0  0  0  0  0  0  0  0  0  0  0  0
   41.0520   84.2520   64.4240 C   0  0  0  0  0  0  0  0  0  0  0  0
   40.7570   85.5940   64.3130 F   0  0  0  0  0  0  0  0  0  0  0  0
   40.1160   83.6630   65.2470 F   0  0  0  0  0  0  0  0  0  0  0  0
   42.3100   84.2230   65.0180 F   0  0  0  0  0  0  0  0  0  0  0  0
   41.5330   82.7160   55.8350 O   0  0  0  0  0  0  0  0  0  0  0  0
   42.9150   81.1390   51.8110 H   0  0  0  0  0  0  0  0  0  0  0  0
   43.1340   81.3300   52.8190 N   0  0  0  0  0  0  0  0  0  0  0  0
   42.1640   81.8810   53.5690 C   0  0  0  0  0  3  0  0  0  0  0  0
   42.3840   82.1610   54.9100 C   0  0  0  0  0  0  0  0  0  0  0  0
   43.6410   81.8470   55.4340 C   0  0  0  0  0  0  0  0  0  0  0  0
   43.9720   82.0440   56.6100 O   0  0  0  0  0  0  0  0  0  0  0  0
   44.5750   81.2950   54.6300 N   0  0  0  0  0  0  0  0  0  0  0  0
   44.3490   81.0280   53.3320 C   0  0  0  0  0  0  0  0  0  0  0  0
   45.1960   80.5190   52.5700 O   0  0  0  0  0  0  0  0  0  0  0  0
   45.5300   81.0340   54.9440 H   0  0  0  0  0  0  0  0  0  0  0  0
  2  1  1  0  0  0  0
  2  3  1  0  0  0  0
  3 12  1  0  0  0  0
  4  3  2  0  0  0  0
  4  9  1  0  0  0  0
  5  4  1  0  0  0  0
  6  8  1  0  0  0  0
  6  5  2  0  0  0  0
  7  6  1  0  0  0  0
  8  2  2  0  0  0  0
 10  5  1  0  0  0  0
 11 16  1  0  0  0  0
 12 13  1  0  0  0  0
 12 11  2  0  0  0  0
 13 14  2  0  0  0  0
 14 15  1  0  0  0  0
 15 19  1  0  0  0  0
 16 15  2  0  0  0  0
 17 11  1  0  0  0  0
 18 13  1  0  0  0  0
 19 22  1  0  0  0  0
 19 21  1  0  0  0  0
 20 19  1  0  0  0  0
 23  8  1  0  0  0  0
 24 25  1  0  0  0  0
 25 31  1  0  0  0  0
 25 26  1  0  0  0  0
 26 27  2  0  0  0  0
 27 28  1  0  0  0  0
 27 23  1  0  0  0  0
 28 29  2  0  0  0  0
 30 33  1  0  0  0  0
 30 28  1  0  0  0  0
 31 30  1  0  0  0  0
 32 31  2  0  0  0  0
M  END
>  <minimizedAffinity>
-5.16708994

>  <minimizedRMSD>
0.845328152

$$$$
