
 OpenBabel03212520153D

 33 35  0  0  0  0  0  0  0  0999 V2000
   42.1700   83.9860   58.3560 Cl  0  0  0  0  0  0  0  0  0  0  0  0
   41.2170   82.5150   58.2180 C   0  0  0  0  0  0  0  0  0  0  0  0
   40.6770   81.8600   59.3060 C   0  0  0  0  0  0  0  0  0  0  0  0
   39.9550   80.7190   59.0190 C   0  0  0  0  0  0  0  0  0  0  0  0
   39.7300   80.1850   57.7760 C   0  0  0  0  0  0  0  0  0  0  0  0
   40.2880   80.8720   56.7200 C   0  0  0  0  0  0  0  0  0  0  0  0
   40.0710   80.2900   55.0750 Cl  0  0  0  0  0  0  0  0  0  0  0  0
   41.0300   82.0370   56.9500 C   0  0  0  0  0  0  0  0  0  0  0  0
   39.5240   80.1920   59.8670 H   0  0  0  0  0  0  0  0  0  0  0  0
   39.1600   79.2950   57.6210 H   0  0  0  0  0  0  0  0  0  0  0  0
   41.9710   82.1710   61.4670 C   0  0  0  0  0  0  0  0  0  0  0  0
   40.8960   82.3940   60.6110 C   0  0  0  0  0  0  0  0  0  0  0  0
   39.8840   83.2520   61.0680 C   0  0  0  0  0  0  0  0  0  0  0  0
   40.0050   83.8080   62.3010 N   0  0  0  0  0  0  0  0  0  0  0  0
   41.0630   83.5640   63.0960 C   0  0  0  0  0  0  0  0  0  0  0  0
   42.0450   82.7410   62.6740 N   0  0  0  0  0  0  0  0  0  0  0  0
   42.7220   81.5070   61.0770 H   0  0  0  0  0  0  0  0  0  0  0  0
   38.9990   83.5040   60.4970 H   0  0  0  0  0  0  0  0  0  0  0  0
   41.0490   84.2480   64.4150 C   0  0  0  0  0  0  0  0  0  0  0  0
   40.7560   85.5890   64.3000 F   0  0  0  0  0  0  0  0  0  0  0  0
   40.1100   83.6620   65.2370 F   0  0  0  0  0  0  0  0  0  0  0  0
   42.3050   84.2180   65.0130 F   0  0  0  0  0  0  0  0  0  0  0  0
   41.5540   82.6620   55.8320 O   0  0  0  0  0  0  0  0  0  0  0  0
   45.4210   80.5910   54.6690 H   0  0  0  0  0  0  0  0  0  0  0  0
   44.8740   81.4830   54.7510 N   0  0  0  0  0  0  0  0  0  0  0  0
   43.6210   81.4000   55.2320 C   0  0  0  0  0  3  0  0  0  0  0  0
   42.8410   82.5390   55.3670 C   0  0  0  0  0  0  0  0  0  0  0  0
   43.4110   83.7560   54.9850 C   0  0  0  0  0  0  0  0  0  0  0  0
   42.8280   84.8460   55.0530 O   0  0  0  0  0  0  0  0  0  0  0  0
   44.6740   83.7760   54.5090 N   0  0  0  0  0  0  0  0  0  0  0  0
   45.4200   82.6640   54.3830 C   0  0  0  0  0  0  0  0  0  0  0  0
   46.5880   82.6570   53.9460 O   0  0  0  0  0  0  0  0  0  0  0  0
   45.1670   84.6380   54.2050 H   0  0  0  0  0  0  0  0  0  0  0  0
  2  1  1  0  0  0  0
  2  3  1  0  0  0  0
  3 12  1  0  0  0  0
  4  3  2  0  0  0  0
  4  9  1  0  0  0  0
  5  4  1  0  0  0  0
  6  8  1  0  0  0  0
  6  5  2  0  0  0  0
  7  6  1  0  0  0  0
  8  2  2  0  0  0  0
 10  5  1  0  0  0  0
 11 16  1  0  0  0  0
 12 13  1  0  0  0  0
 12 11  2  0  0  0  0
 13 14  2  0  0  0  0
 14 15  1  0  0  0  0
 15 19  1  0  0  0  0
 16 15  2  0  0  0  0
 17 11  1  0  0  0  0
 18 13  1  0  0  0  0
 19 22  1  0  0  0  0
 19 21  1  0  0  0  0
 20 19  1  0  0  0  0
 23  8  1  0  0  0  0
 24 25  1  0  0  0  0
 25 26  1  0  0  0  0
 26 27  2  0  0  0  0
 27 23  1  0  0  0  0
 28 29  2  0  0  0  0
 28 27  1  0  0  0  0
 30 28  1  0  0  0  0
 31 30  1  0  0  0  0
 31 25  1  0  0  0  0
 32 31  2  0  0  0  0
 33 30  1  0  0  0  0
M  END
>  <minimizedAffinity>
-5.40042257

>  <minimizedRMSD>
0.330154717

$$$$
