
 OpenBabel03212520153D

 33 35  0  0  0  0  0  0  0  0999 V2000
   42.1830   84.0270   58.3390 Cl  0  0  0  0  0  0  0  0  0  0  0  0
   41.2340   82.5550   58.1880 C   0  0  0  0  0  0  0  0  0  0  0  0
   40.6940   81.8910   59.2710 C   0  0  0  0  0  0  0  0  0  0  0  0
   39.9750   80.7500   58.9750 C   0  0  0  0  0  0  0  0  0  0  0  0
   39.7530   80.2250   57.7280 C   0  0  0  0  0  0  0  0  0  0  0  0
   40.3110   80.9210   56.6780 C   0  0  0  0  0  0  0  0  0  0  0  0
   40.0980   80.3500   55.0280 Cl  0  0  0  0  0  0  0  0  0  0  0  0
   41.0510   82.0860   56.9170 C   0  0  0  0  0  0  0  0  0  0  0  0
   39.5430   80.2170   59.8190 H   0  0  0  0  0  0  0  0  0  0  0  0
   39.1850   79.3350   57.5650 H   0  0  0  0  0  0  0  0  0  0  0  0
   41.9740   82.1730   61.4440 C   0  0  0  0  0  0  0  0  0  0  0  0
   40.9100   82.4160   60.5800 C   0  0  0  0  0  0  0  0  0  0  0  0
   39.9070   83.2860   61.0320 C   0  0  0  0  0  0  0  0  0  0  0  0
   40.0260   83.8350   62.2690 N   0  0  0  0  0  0  0  0  0  0  0  0
   41.0730   83.5720   63.0720 C   0  0  0  0  0  0  0  0  0  0  0  0
   42.0470   82.7380   62.6540 N   0  0  0  0  0  0  0  0  0  0  0  0
   42.7190   81.5010   61.0570 H   0  0  0  0  0  0  0  0  0  0  0  0
   39.0300   83.5540   60.4550 H   0  0  0  0  0  0  0  0  0  0  0  0
   41.0580   84.2510   64.3940 C   0  0  0  0  0  0  0  0  0  0  0  0
   40.7660   85.5930   64.2830 F   0  0  0  0  0  0  0  0  0  0  0  0
   40.1180   83.6620   65.2120 F   0  0  0  0  0  0  0  0  0  0  0  0
   42.3140   84.2180   64.9930 F   0  0  0  0  0  0  0  0  0  0  0  0
   41.5750   82.7200   55.8050 O   0  0  0  0  0  0  0  0  0  0  0  0
   45.9650   81.5990   55.5520 H   0  0  0  0  0  0  0  0  0  0  0  0
   45.0800   81.8650   55.0550 N   0  0  0  0  0  0  0  0  0  0  0  0
   43.9900   82.0930   55.8080 C   0  0  0  0  0  3  0  0  0  0  0  0
   42.7870   82.4490   55.2170 C   0  0  0  0  0  0  0  0  0  0  0  0
   42.7630   82.5570   53.8240 C   0  0  0  0  0  0  0  0  0  0  0  0
   41.7590   82.8650   53.1690 O   0  0  0  0  0  0  0  0  0  0  0  0
   43.8900   82.3150   53.1210 N   0  0  0  0  0  0  0  0  0  0  0  0
   45.0500   81.9710   53.7060 C   0  0  0  0  0  0  0  0  0  0  0  0
   46.1050   81.7440   53.0780 O   0  0  0  0  0  0  0  0  0  0  0  0
   43.9530   82.3750   52.0860 H   0  0  0  0  0  0  0  0  0  0  0  0
  2  1  1  0  0  0  0
  2  3  1  0  0  0  0
  3 12  1  0  0  0  0
  4  3  2  0  0  0  0
  4  9  1  0  0  0  0
  5  4  1  0  0  0  0
  6  8  1  0  0  0  0
  6  5  2  0  0  0  0
  7  6  1  0  0  0  0
  8  2  2  0  0  0  0
 10  5  1  0  0  0  0
 11 16  1  0  0  0  0
 12 13  1  0  0  0  0
 12 11  2  0  0  0  0
 13 14  2  0  0  0  0
 14 15  1  0  0  0  0
 15 19  1  0  0  0  0
 16 15  2  0  0  0  0
 17 11  1  0  0  0  0
 18 13  1  0  0  0  0
 19 22  1  0  0  0  0
 19 21  1  0  0  0  0
 20 19  1  0  0  0  0
 23  8  1  0  0  0  0
 25 24  1  0  0  0  0
 25 26  1  0  0  0  0
 27 23  1  0  0  0  0
 27 26  2  0  0  0  0
 28 27  1  0  0  0  0
 29 28  2  0  0  0  0
 30 31  1  0  0  0  0
 30 28  1  0  0  0  0
 31 25  1  0  0  0  0
 32 31  2  0  0  0  0
 33 30  1  0  0  0  0
M  END
>  <minimizedAffinity>
-5.35000992

>  <minimizedRMSD>
0.604298592

$$$$
