
 OpenBabel03212520203D

 37 39  0  0  0  0  0  0  0  0999 V2000
   43.1370   83.9550   58.6090 Cl  0  0  0  0  0  0  0  0  0  0  0  0
   41.9070   82.7730   58.2080 C   0  0  0  0  0  0  0  0  0  0  0  0
   41.0270   82.2500   59.1580 C   0  0  0  0  0  0  0  0  0  0  0  0
   40.1100   81.3230   58.6810 C   0  0  0  0  0  0  0  0  0  0  0  0
   39.9910   80.8840   57.3860 C   0  0  0  0  0  0  0  0  0  0  0  0
   40.8630   81.4170   56.4950 C   0  0  0  0  0  0  0  0  0  0  0  0
   40.8280   80.9440   54.7980 Cl  0  0  0  0  0  0  0  0  0  0  0  0
   41.8190   82.3570   56.8990 C   0  0  0  0  0  0  0  0  0  0  0  0
   39.4440   80.9380   59.4440 H   0  0  0  0  0  0  0  0  0  0  0  0
   39.2440   80.1570   57.1080 H   0  0  0  0  0  0  0  0  0  0  0  0
   41.9640   82.1660   61.5150 C   0  0  0  0  0  0  0  0  0  0  0  0
   41.1240   82.6820   60.4970 C   0  0  0  0  0  0  0  0  0  0  0  0
   40.2860   83.7460   60.8490 C   0  0  0  0  0  0  0  0  0  0  0  0
   40.3540   84.1910   62.1410 N   0  0  0  0  0  0  0  0  0  0  0  0
   41.1600   83.6760   63.0700 C   0  0  0  0  0  0  0  0  0  0  0  0
   41.9790   82.6470   62.7550 N   0  0  0  0  0  0  0  0  0  0  0  0
   42.5840   81.3470   61.1760 H   0  0  0  0  0  0  0  0  0  0  0  0
   39.5990   84.2290   60.1660 H   0  0  0  0  0  0  0  0  0  0  0  0
   41.0710   84.3100   64.4040 C   0  0  0  0  0  0  0  0  0  0  0  0
   40.7310   85.6440   64.3380 F   0  0  0  0  0  0  0  0  0  0  0  0
   40.1170   83.6540   65.1800 F   0  0  0  0  0  0  0  0  0  0  0  0
   42.3210   84.2740   65.0580 F   0  0  0  0  0  0  0  0  0  0  0  0
   42.6940   82.8810   55.9620 O   0  0  0  0  0  0  0  0  0  0  0  0
   42.4420   84.0110   55.1890 C   0  0  0  0  0  0  0  0  0  0  0  0
   42.3810   83.7140   54.1090 H   0  0  0  0  0  0  0  0  0  0  0  0
   41.5420   84.5720   55.4810 H   0  0  0  0  0  0  0  0  0  0  0  0
   43.5310   84.8860   55.2830 O   0  0  0  0  0  0  0  0  0  0  0  0
   46.9920   83.1170   53.0560 H   0  0  0  0  0  0  0  0  0  0  0  0
   46.6380   83.6830   53.8600 N   0  0  0  0  0  0  0  0  0  0  0  0
   45.3030   83.8380   53.9300 C   0  0  0  0  0  3  0  0  0  0  0  0
   44.8470   84.5900   55.0000 C   0  0  0  0  0  0  0  0  0  0  0  0
   45.7470   85.1190   55.9040 C   0  0  0  0  0  0  0  0  0  0  0  0
   45.4020   85.8200   56.9120 O   0  0  0  0  0  0  0  0  0  0  0  0
   47.0770   84.9450   55.8060 N   0  0  0  0  0  0  0  0  0  0  0  0
   47.4960   84.2030   54.7440 C   0  0  0  0  0  0  0  0  0  0  0  0
   48.7320   84.0020   54.5940 O   0  0  0  0  0  0  0  0  0  0  0  0
   47.7660   85.3430   56.4860 H   0  0  0  0  0  0  0  0  0  0  0  0
  2  1  1  0  0  0  0
  2  3  1  0  0  0  0
  3 12  1  0  0  0  0
  4  3  2  0  0  0  0
  4  9  1  0  0  0  0
  5  4  1  0  0  0  0
  6  8  1  0  0  0  0
  6  5  2  0  0  0  0
  7  6  1  0  0  0  0
  8  2  2  0  0  0  0
 10  5  1  0  0  0  0
 11 16  1  0  0  0  0
 12 13  1  0  0  0  0
 12 11  2  0  0  0  0
 13 14  2  0  0  0  0
 14 15  1  0  0  0  0
 15 19  1  0  0  0  0
 16 15  2  0  0  0  0
 17 11  1  0  0  0  0
 18 13  1  0  0  0  0
 19 22  1  0  0  0  0
 19 21  1  0  0  0  0
 20 19  1  0  0  0  0
 23  8  1  0  0  0  0
 24 27  1  0  0  0  0
 24 26  1  0  0  0  0
 24 23  1  0  0  0  0
 25 24  1  0  0  0  0
 28 29  1  0  0  0  0
 29 30  1  0  0  0  0
 29 35  1  0  0  0  0
 30 31  2  0  0  0  0
 31 27  1  0  0  0  0
 31 32  1  0  0  0  0
 32 33  2  0  0  0  0
 34 32  1  0  0  0  0
 34 37  1  0  0  0  0
 35 34  1  0  0  0  0
 36 35  2  0  0  0  0
M  END
>  <minimizedAffinity>
-4.89129829

>  <minimizedRMSD>
0.153680995

$$$$
