
 OpenBabel03212520213D

 37 39  0  0  0  0  0  0  0  0999 V2000
   43.0600   84.1410   58.6500 Cl  0  0  0  0  0  0  0  0  0  0  0  0
   41.9020   82.8890   58.2480 C   0  0  0  0  0  0  0  0  0  0  0  0
   41.0640   82.3050   59.2000 C   0  0  0  0  0  0  0  0  0  0  0  0
   40.2010   81.3280   58.7230 C   0  0  0  0  0  0  0  0  0  0  0  0
   40.0980   80.8930   57.4250 C   0  0  0  0  0  0  0  0  0  0  0  0
   40.9290   81.4850   56.5320 C   0  0  0  0  0  0  0  0  0  0  0  0
   40.9080   81.0250   54.8320 Cl  0  0  0  0  0  0  0  0  0  0  0  0
   41.8280   82.4790   56.9360 C   0  0  0  0  0  0  0  0  0  0  0  0
   39.5660   80.8960   59.4880 H   0  0  0  0  0  0  0  0  0  0  0  0
   39.3950   80.1240   57.1470 H   0  0  0  0  0  0  0  0  0  0  0  0
   42.0020   82.2390   61.5580 C   0  0  0  0  0  0  0  0  0  0  0  0
   41.1450   82.7320   60.5420 C   0  0  0  0  0  0  0  0  0  0  0  0
   40.2710   83.7640   60.9010 C   0  0  0  0  0  0  0  0  0  0  0  0
   40.3240   84.2020   62.1960 N   0  0  0  0  0  0  0  0  0  0  0  0
   41.1460   83.7090   63.1220 C   0  0  0  0  0  0  0  0  0  0  0  0
   42.0010   82.7120   62.8010 N   0  0  0  0  0  0  0  0  0  0  0  0
   42.6500   81.4430   61.2130 H   0  0  0  0  0  0  0  0  0  0  0  0
   39.5680   84.2270   60.2210 H   0  0  0  0  0  0  0  0  0  0  0  0
   41.0350   84.3310   64.4600 C   0  0  0  0  0  0  0  0  0  0  0  0
   40.6720   85.6590   64.4020 F   0  0  0  0  0  0  0  0  0  0  0  0
   40.0870   83.6520   65.2230 F   0  0  0  0  0  0  0  0  0  0  0  0
   42.2810   84.3120   65.1240 F   0  0  0  0  0  0  0  0  0  0  0  0
   42.6620   83.0630   55.9980 O   0  0  0  0  0  0  0  0  0  0  0  0
   42.3650   84.2250   55.2890 C   0  0  0  0  0  0  0  0  0  0  0  0
   41.6210   83.9870   54.4840 H   0  0  0  0  0  0  0  0  0  0  0  0
   42.0010   85.0570   55.9100 H   0  0  0  0  0  0  0  0  0  0  0  0
   43.5160   84.6680   54.6270 O   0  0  0  0  0  0  0  0  0  0  0  0
   43.4200   82.7590   50.5760 H   0  0  0  0  0  0  0  0  0  0  0  0
   43.7670   83.5210   51.2000 N   0  0  0  0  0  0  0  0  0  0  0  0
   43.3420   83.4810   52.4760 C   0  0  0  0  0  3  0  0  0  0  0  0
   43.8110   84.4970   53.2920 C   0  0  0  0  0  0  0  0  0  0  0  0
   44.6560   85.4590   52.7780 C   0  0  0  0  0  0  0  0  0  0  0  0
   45.1280   86.4230   53.4670 O   0  0  0  0  0  0  0  0  0  0  0  0
   45.0650   85.4710   51.4950 N   0  0  0  0  0  0  0  0  0  0  0  0
   44.5870   84.4610   50.7180 C   0  0  0  0  0  0  0  0  0  0  0  0
   44.9330   84.4140   49.5050 O   0  0  0  0  0  0  0  0  0  0  0  0
   45.7050   86.1960   51.0980 H   0  0  0  0  0  0  0  0  0  0  0  0
  2  1  1  0  0  0  0
  2  3  1  0  0  0  0
  3 12  1  0  0  0  0
  4  3  2  0  0  0  0
  4  9  1  0  0  0  0
  5  4  1  0  0  0  0
  6  8  1  0  0  0  0
  6  5  2  0  0  0  0
  7  6  1  0  0  0  0
  8  2  2  0  0  0  0
 10  5  1  0  0  0  0
 11 16  1  0  0  0  0
 12 13  1  0  0  0  0
 12 11  2  0  0  0  0
 13 14  2  0  0  0  0
 14 15  1  0  0  0  0
 15 19  1  0  0  0  0
 16 15  2  0  0  0  0
 17 11  1  0  0  0  0
 18 13  1  0  0  0  0
 19 22  1  0  0  0  0
 19 21  1  0  0  0  0
 20 19  1  0  0  0  0
 23  8  1  0  0  0  0
 24 26  1  0  0  0  0
 24 23  1  0  0  0  0
 25 24  1  0  0  0  0
 27 24  1  0  0  0  0
 28 29  1  0  0  0  0
 29 30  1  0  0  0  0
 30 31  2  0  0  0  0
 31 27  1  0  0  0  0
 32 31  1  0  0  0  0
 32 33  2  0  0  0  0
 34 32  1  0  0  0  0
 35 29  1  0  0  0  0
 35 34  1  0  0  0  0
 36 35  2  0  0  0  0
 37 34  1  0  0  0  0
M  END
>  <minimizedAffinity>
-5.14668274

>  <minimizedRMSD>
1.82741892

$$$$
