
 OpenBabel03212520203D

 37 39  0  0  0  0  0  0  0  0999 V2000
   43.1800   83.8590   58.6120 Cl  0  0  0  0  0  0  0  0  0  0  0  0
   41.9150   82.7160   58.2090 C   0  0  0  0  0  0  0  0  0  0  0  0
   41.0120   82.2260   59.1550 C   0  0  0  0  0  0  0  0  0  0  0  0
   40.0690   81.3270   58.6780 C   0  0  0  0  0  0  0  0  0  0  0  0
   39.9440   80.8850   57.3840 C   0  0  0  0  0  0  0  0  0  0  0  0
   40.8400   81.3840   56.4960 C   0  0  0  0  0  0  0  0  0  0  0  0
   40.8000   80.9040   54.8020 Cl  0  0  0  0  0  0  0  0  0  0  0  0
   41.8220   82.2950   56.9020 C   0  0  0  0  0  0  0  0  0  0  0  0
   39.3860   80.9680   59.4380 H   0  0  0  0  0  0  0  0  0  0  0  0
   39.1760   80.1810   57.1050 H   0  0  0  0  0  0  0  0  0  0  0  0
   41.9480   82.1410   61.5130 C   0  0  0  0  0  0  0  0  0  0  0  0
   41.1140   82.6630   60.4930 C   0  0  0  0  0  0  0  0  0  0  0  0
   40.2890   83.7370   60.8410 C   0  0  0  0  0  0  0  0  0  0  0  0
   40.3620   84.1860   62.1310 N   0  0  0  0  0  0  0  0  0  0  0  0
   41.1620   83.6660   63.0620 C   0  0  0  0  0  0  0  0  0  0  0  0
   41.9690   82.6260   62.7510 N   0  0  0  0  0  0  0  0  0  0  0  0
   42.5580   81.3130   61.1770 H   0  0  0  0  0  0  0  0  0  0  0  0
   39.6070   84.2260   60.1560 H   0  0  0  0  0  0  0  0  0  0  0  0
   41.0810   84.3060   64.3940 C   0  0  0  0  0  0  0  0  0  0  0  0
   40.7460   85.6410   64.3230 F   0  0  0  0  0  0  0  0  0  0  0  0
   40.1260   83.6580   65.1760 F   0  0  0  0  0  0  0  0  0  0  0  0
   42.3330   84.2680   65.0430 F   0  0  0  0  0  0  0  0  0  0  0  0
   42.7210   82.7850   55.9680 O   0  0  0  0  0  0  0  0  0  0  0  0
   42.5110   83.9200   55.1880 C   0  0  0  0  0  0  0  0  0  0  0  0
   42.5330   83.6320   54.1040 H   0  0  0  0  0  0  0  0  0  0  0  0
   41.5840   84.4660   55.4180 H   0  0  0  0  0  0  0  0  0  0  0  0
   43.5780   84.8070   55.3700 O   0  0  0  0  0  0  0  0  0  0  0  0
   47.8240   83.3860   55.5090 H   0  0  0  0  0  0  0  0  0  0  0  0
   47.0660   83.8990   55.0060 N   0  0  0  0  0  0  0  0  0  0  0  0
   45.8710   83.9440   55.6220 C   0  0  0  0  0  3  0  0  0  0  0  0
   44.8760   84.6270   54.9430 C   0  0  0  0  0  0  0  0  0  0  0  0
   45.1490   85.2020   53.7190 C   0  0  0  0  0  0  0  0  0  0  0  0
   44.2840   85.8460   53.0370 O   0  0  0  0  0  0  0  0  0  0  0  0
   46.3560   85.1410   53.1280 N   0  0  0  0  0  0  0  0  0  0  0  0
   47.3130   84.4630   53.8190 C   0  0  0  0  0  0  0  0  0  0  0  0
   48.4680   84.3680   53.3190 O   0  0  0  0  0  0  0  0  0  0  0  0
   46.5700   85.5750   52.2010 H   0  0  0  0  0  0  0  0  0  0  0  0
  2  1  1  0  0  0  0
  2  3  1  0  0  0  0
  3 12  1  0  0  0  0
  4  3  2  0  0  0  0
  4  9  1  0  0  0  0
  5  4  1  0  0  0  0
  6  8  1  0  0  0  0
  6  5  2  0  0  0  0
  7  6  1  0  0  0  0
  8  2  2  0  0  0  0
 10  5  1  0  0  0  0
 11 16  1  0  0  0  0
 12 13  1  0  0  0  0
 12 11  2  0  0  0  0
 13 14  2  0  0  0  0
 14 15  1  0  0  0  0
 15 19  1  0  0  0  0
 16 15  2  0  0  0  0
 17 11  1  0  0  0  0
 18 13  1  0  0  0  0
 19 22  1  0  0  0  0
 19 21  1  0  0  0  0
 20 19  1  0  0  0  0
 23  8  1  0  0  0  0
 24 27  1  0  0  0  0
 24 26  1  0  0  0  0
 24 23  1  0  0  0  0
 25 24  1  0  0  0  0
 29 28  1  0  0  0  0
 29 30  1  0  0  0  0
 31 27  1  0  0  0  0
 31 30  2  0  0  0  0
 32 31  1  0  0  0  0
 33 32  2  0  0  0  0
 34 32  1  0  0  0  0
 34 35  1  0  0  0  0
 35 29  1  0  0  0  0
 36 35  2  0  0  0  0
 37 34  1  0  0  0  0
M  END
>  <minimizedAffinity>
-5.03742218

>  <minimizedRMSD>
0.875806391

$$$$
