
 OpenBabel03212520213D

 37 39  0  0  0  0  0  0  0  0999 V2000
   43.0560   83.9970   58.5830 Cl  0  0  0  0  0  0  0  0  0  0  0  0
   41.8560   82.7780   58.2030 C   0  0  0  0  0  0  0  0  0  0  0  0
   41.0070   82.2310   59.1660 C   0  0  0  0  0  0  0  0  0  0  0  0
   40.1110   81.2760   58.7050 C   0  0  0  0  0  0  0  0  0  0  0  0
   39.9860   80.8310   57.4120 C   0  0  0  0  0  0  0  0  0  0  0  0
   40.8290   81.3870   56.5080 C   0  0  0  0  0  0  0  0  0  0  0  0
   40.7820   80.9100   54.8130 Cl  0  0  0  0  0  0  0  0  0  0  0  0
   41.7620   82.3560   56.8960 C   0  0  0  0  0  0  0  0  0  0  0  0
   39.4680   80.8730   59.4790 H   0  0  0  0  0  0  0  0  0  0  0  0
   39.2570   80.0810   57.1470 H   0  0  0  0  0  0  0  0  0  0  0  0
   41.9670   82.1690   61.5150 C   0  0  0  0  0  0  0  0  0  0  0  0
   41.1100   82.6690   60.5030 C   0  0  0  0  0  0  0  0  0  0  0  0
   40.2600   83.7210   60.8600 C   0  0  0  0  0  0  0  0  0  0  0  0
   40.3340   84.1710   62.1500 N   0  0  0  0  0  0  0  0  0  0  0  0
   41.1570   83.6720   63.0730 C   0  0  0  0  0  0  0  0  0  0  0  0
   41.9880   82.6540   62.7530 N   0  0  0  0  0  0  0  0  0  0  0  0
   42.5960   81.3580   61.1720 H   0  0  0  0  0  0  0  0  0  0  0  0
   39.5590   84.1920   60.1820 H   0  0  0  0  0  0  0  0  0  0  0  0
   41.0710   84.3090   64.4050 C   0  0  0  0  0  0  0  0  0  0  0  0
   40.7340   85.6430   64.3370 F   0  0  0  0  0  0  0  0  0  0  0  0
   40.1170   83.6570   65.1840 F   0  0  0  0  0  0  0  0  0  0  0  0
   42.3230   84.2710   65.0570 F   0  0  0  0  0  0  0  0  0  0  0  0
   42.6070   82.9040   55.9460 O   0  0  0  0  0  0  0  0  0  0  0  0
   42.3490   84.0740   55.2370 C   0  0  0  0  0  0  0  0  0  0  0  0
   41.9390   83.8120   54.2260 H   0  0  0  0  0  0  0  0  0  0  0  0
   41.6760   84.7780   55.7490 H   0  0  0  0  0  0  0  0  0  0  0  0
   43.5550   84.7440   54.9970 O   0  0  0  0  0  0  0  0  0  0  0  0
   44.8660   85.0200   50.7230 H   0  0  0  0  0  0  0  0  0  0  0  0
   45.0640   84.7200   51.7050 N   0  0  0  0  0  0  0  0  0  0  0  0
   44.1030   84.9860   52.6090 C   0  0  0  0  0  3  0  0  0  0  0  0
   44.3780   84.5840   53.9050 C   0  0  0  0  0  0  0  0  0  0  0  0
   45.5750   83.9570   54.1930 C   0  0  0  0  0  0  0  0  0  0  0  0
   45.8980   83.5600   55.3610 O   0  0  0  0  0  0  0  0  0  0  0  0
   46.5170   83.7060   53.2650 N   0  0  0  0  0  0  0  0  0  0  0  0
   46.2180   84.1130   52.0010 C   0  0  0  0  0  0  0  0  0  0  0  0
   47.0600   83.9080   51.0830 O   0  0  0  0  0  0  0  0  0  0  0  0
   47.4250   83.2320   53.4750 H   0  0  0  0  0  0  0  0  0  0  0  0
  2  1  1  0  0  0  0
  2  3  1  0  0  0  0
  3 12  1  0  0  0  0
  4  3  2  0  0  0  0
  4  9  1  0  0  0  0
  5  4  1  0  0  0  0
  6  8  1  0  0  0  0
  6  5  2  0  0  0  0
  7  6  1  0  0  0  0
  8  2  2  0  0  0  0
 10  5  1  0  0  0  0
 11 16  1  0  0  0  0
 12 13  1  0  0  0  0
 12 11  2  0  0  0  0
 13 14  2  0  0  0  0
 14 15  1  0  0  0  0
 15 19  1  0  0  0  0
 16 15  2  0  0  0  0
 17 11  1  0  0  0  0
 18 13  1  0  0  0  0
 19 22  1  0  0  0  0
 19 21  1  0  0  0  0
 20 19  1  0  0  0  0
 23  8  1  0  0  0  0
 24 26  1  0  0  0  0
 24 23  1  0  0  0  0
 25 24  1  0  0  0  0
 27 24  1  0  0  0  0
 28 29  1  0  0  0  0
 29 35  1  0  0  0  0
 29 30  1  0  0  0  0
 30 31  2  0  0  0  0
 31 32  1  0  0  0  0
 31 27  1  0  0  0  0
 32 33  2  0  0  0  0
 34 37  1  0  0  0  0
 34 32  1  0  0  0  0
 35 34  1  0  0  0  0
 36 35  2  0  0  0  0
M  END
>  <minimizedAffinity>
-4.88861465

>  <minimizedRMSD>
1.17065799

$$$$
