
 OpenBabel03212520153D

 33 35  0  0  0  0  0  0  0  0999 V2000
   42.1450   84.0270   58.3640 Cl  0  0  0  0  0  0  0  0  0  0  0  0
   41.2040   82.5490   58.2200 C   0  0  0  0  0  0  0  0  0  0  0  0
   40.6740   81.8830   59.3060 C   0  0  0  0  0  0  0  0  0  0  0  0
   39.9610   80.7380   59.0150 C   0  0  0  0  0  0  0  0  0  0  0  0
   39.7350   80.2100   57.7700 C   0  0  0  0  0  0  0  0  0  0  0  0
   40.2840   80.9080   56.7160 C   0  0  0  0  0  0  0  0  0  0  0  0
   40.0650   80.3340   55.0680 Cl  0  0  0  0  0  0  0  0  0  0  0  0
   41.0170   82.0780   56.9500 C   0  0  0  0  0  0  0  0  0  0  0  0
   39.5370   80.2020   59.8610 H   0  0  0  0  0  0  0  0  0  0  0  0
   39.1720   79.3160   57.6110 H   0  0  0  0  0  0  0  0  0  0  0  0
   41.9630   82.1730   61.4730 C   0  0  0  0  0  0  0  0  0  0  0  0
   40.8940   82.4110   60.6130 C   0  0  0  0  0  0  0  0  0  0  0  0
   39.8890   83.2780   61.0690 C   0  0  0  0  0  0  0  0  0  0  0  0
   40.0120   83.8290   62.3040 N   0  0  0  0  0  0  0  0  0  0  0  0
   41.0640   83.5710   63.1030 C   0  0  0  0  0  0  0  0  0  0  0  0
   42.0380   82.7400   62.6820 N   0  0  0  0  0  0  0  0  0  0  0  0
   42.7080   81.5030   61.0840 H   0  0  0  0  0  0  0  0  0  0  0  0
   39.0090   83.5420   60.4950 H   0  0  0  0  0  0  0  0  0  0  0  0
   41.0520   84.2520   64.4240 C   0  0  0  0  0  0  0  0  0  0  0  0
   40.7570   85.5930   64.3130 F   0  0  0  0  0  0  0  0  0  0  0  0
   40.1160   83.6620   65.2470 F   0  0  0  0  0  0  0  0  0  0  0  0
   42.3100   84.2220   65.0190 F   0  0  0  0  0  0  0  0  0  0  0  0
   41.5310   82.7140   55.8340 O   0  0  0  0  0  0  0  0  0  0  0  0
   42.9130   81.1360   51.8100 H   0  0  0  0  0  0  0  0  0  0  0  0
   43.1320   81.3280   52.8190 N   0  0  0  0  0  0  0  0  0  0  0  0
   42.1620   81.8780   53.5690 C   0  0  0  0  0  3  0  0  0  0  0  0
   42.3820   82.1590   54.9090 C   0  0  0  0  0  0  0  0  0  0  0  0
   43.6410   81.8470   55.4320 C   0  0  0  0  0  0  0  0  0  0  0  0
   43.9710   82.0440   56.6090 O   0  0  0  0  0  0  0  0  0  0  0  0
   44.5740   81.2960   54.6280 N   0  0  0  0  0  0  0  0  0  0  0  0
   44.3470   81.0280   53.3300 C   0  0  0  0  0  0  0  0  0  0  0  0
   45.1940   80.5190   52.5680 O   0  0  0  0  0  0  0  0  0  0  0  0
   45.5300   81.0360   54.9410 H   0  0  0  0  0  0  0  0  0  0  0  0
  2  1  1  0  0  0  0
  2  3  1  0  0  0  0
  3 12  1  0  0  0  0
  4  3  2  0  0  0  0
  4  9  1  0  0  0  0
  5  4  1  0  0  0  0
  6  8  1  0  0  0  0
  6  5  2  0  0  0  0
  7  6  1  0  0  0  0
  8  2  2  0  0  0  0
 10  5  1  0  0  0  0
 11 16  1  0  0  0  0
 12 13  1  0  0  0  0
 12 11  2  0  0  0  0
 13 14  2  0  0  0  0
 14 15  1  0  0  0  0
 15 19  1  0  0  0  0
 16 15  2  0  0  0  0
 17 11  1  0  0  0  0
 18 13  1  0  0  0  0
 19 22  1  0  0  0  0
 19 21  1  0  0  0  0
 20 19  1  0  0  0  0
 23  8  1  0  0  0  0
 24 25  1  0  0  0  0
 25 31  1  0  0  0  0
 25 26  1  0  0  0  0
 26 27  2  0  0  0  0
 27 28  1  0  0  0  0
 27 23  1  0  0  0  0
 28 29  2  0  0  0  0
 30 33  1  0  0  0  0
 30 28  1  0  0  0  0
 31 30  1  0  0  0  0
 32 31  2  0  0  0  0
M  END
>  <minimizedAffinity>
-5.15960073

>  <minimizedRMSD>
0.875806749

$$$$
