
 OpenBabel03212520163D

 33 35  0  0  0  0  0  0  0  0999 V2000
   42.1820   84.0250   58.3370 Cl  0  0  0  0  0  0  0  0  0  0  0  0
   41.2340   82.5530   58.1870 C   0  0  0  0  0  0  0  0  0  0  0  0
   40.6940   81.8890   59.2700 C   0  0  0  0  0  0  0  0  0  0  0  0
   39.9760   80.7480   58.9740 C   0  0  0  0  0  0  0  0  0  0  0  0
   39.7540   80.2230   57.7270 C   0  0  0  0  0  0  0  0  0  0  0  0
   40.3110   80.9180   56.6770 C   0  0  0  0  0  0  0  0  0  0  0  0
   40.0980   80.3470   55.0280 Cl  0  0  0  0  0  0  0  0  0  0  0  0
   41.0500   82.0840   56.9160 C   0  0  0  0  0  0  0  0  0  0  0  0
   39.5450   80.2140   59.8180 H   0  0  0  0  0  0  0  0  0  0  0  0
   39.1860   79.3320   57.5650 H   0  0  0  0  0  0  0  0  0  0  0  0
   41.9740   82.1710   61.4440 C   0  0  0  0  0  0  0  0  0  0  0  0
   40.9100   82.4140   60.5790 C   0  0  0  0  0  0  0  0  0  0  0  0
   39.9080   83.2860   61.0310 C   0  0  0  0  0  0  0  0  0  0  0  0
   40.0270   83.8350   62.2670 N   0  0  0  0  0  0  0  0  0  0  0  0
   41.0740   83.5710   63.0700 C   0  0  0  0  0  0  0  0  0  0  0  0
   42.0460   82.7360   62.6530 N   0  0  0  0  0  0  0  0  0  0  0  0
   42.7180   81.4970   61.0570 H   0  0  0  0  0  0  0  0  0  0  0  0
   39.0310   83.5540   60.4530 H   0  0  0  0  0  0  0  0  0  0  0  0
   41.0590   84.2510   64.3920 C   0  0  0  0  0  0  0  0  0  0  0  0
   40.7670   85.5930   64.2810 F   0  0  0  0  0  0  0  0  0  0  0  0
   40.1190   83.6620   65.2110 F   0  0  0  0  0  0  0  0  0  0  0  0
   42.3140   84.2180   64.9910 F   0  0  0  0  0  0  0  0  0  0  0  0
   41.5740   82.7180   55.8030 O   0  0  0  0  0  0  0  0  0  0  0  0
   45.9650   81.6000   55.5500 H   0  0  0  0  0  0  0  0  0  0  0  0
   45.0800   81.8650   55.0530 N   0  0  0  0  0  0  0  0  0  0  0  0
   43.9890   82.0920   55.8070 C   0  0  0  0  0  3  0  0  0  0  0  0
   42.7860   82.4470   55.2150 C   0  0  0  0  0  0  0  0  0  0  0  0
   42.7620   82.5550   53.8220 C   0  0  0  0  0  0  0  0  0  0  0  0
   41.7570   82.8630   53.1680 O   0  0  0  0  0  0  0  0  0  0  0  0
   43.8890   82.3150   53.1200 N   0  0  0  0  0  0  0  0  0  0  0  0
   45.0500   81.9710   53.7040 C   0  0  0  0  0  0  0  0  0  0  0  0
   46.1030   81.7440   53.0770 O   0  0  0  0  0  0  0  0  0  0  0  0
   43.9510   82.3730   52.0850 H   0  0  0  0  0  0  0  0  0  0  0  0
  2  1  1  0  0  0  0
  2  3  1  0  0  0  0
  3 12  1  0  0  0  0
  4  3  2  0  0  0  0
  4  9  1  0  0  0  0
  5  4  1  0  0  0  0
  6  8  1  0  0  0  0
  6  5  2  0  0  0  0
  7  6  1  0  0  0  0
  8  2  2  0  0  0  0
 10  5  1  0  0  0  0
 11 16  1  0  0  0  0
 12 13  1  0  0  0  0
 12 11  2  0  0  0  0
 13 14  2  0  0  0  0
 14 15  1  0  0  0  0
 15 19  1  0  0  0  0
 16 15  2  0  0  0  0
 17 11  1  0  0  0  0
 18 13  1  0  0  0  0
 19 22  1  0  0  0  0
 19 21  1  0  0  0  0
 20 19  1  0  0  0  0
 23  8  1  0  0  0  0
 25 24  1  0  0  0  0
 25 26  1  0  0  0  0
 27 23  1  0  0  0  0
 27 26  2  0  0  0  0
 28 27  1  0  0  0  0
 29 28  2  0  0  0  0
 30 31  1  0  0  0  0
 30 28  1  0  0  0  0
 31 25  1  0  0  0  0
 32 31  2  0  0  0  0
 33 30  1  0  0  0  0
M  END
>  <minimizedAffinity>
-5.35047388

>  <minimizedRMSD>
0.161960796

$$$$
