
 OpenBabel03212520163D

 33 35  0  0  0  0  0  0  0  0999 V2000
   42.1970   83.9490   58.3430 Cl  0  0  0  0  0  0  0  0  0  0  0  0
   41.2270   82.4900   58.2050 C   0  0  0  0  0  0  0  0  0  0  0  0
   40.6750   81.8450   59.2930 C   0  0  0  0  0  0  0  0  0  0  0  0
   39.9400   80.7120   59.0070 C   0  0  0  0  0  0  0  0  0  0  0  0
   39.7130   80.1780   57.7650 C   0  0  0  0  0  0  0  0  0  0  0  0
   40.2840   80.8540   56.7090 C   0  0  0  0  0  0  0  0  0  0  0  0
   40.0650   80.2700   55.0650 Cl  0  0  0  0  0  0  0  0  0  0  0  0
   41.0390   82.0110   56.9380 C   0  0  0  0  0  0  0  0  0  0  0  0
   39.4990   80.1940   59.8550 H   0  0  0  0  0  0  0  0  0  0  0  0
   39.1330   79.2950   57.6100 H   0  0  0  0  0  0  0  0  0  0  0  0
   41.9660   82.1490   61.4570 C   0  0  0  0  0  0  0  0  0  0  0  0
   40.8960   82.3800   60.5970 C   0  0  0  0  0  0  0  0  0  0  0  0
   39.8910   83.2480   61.0490 C   0  0  0  0  0  0  0  0  0  0  0  0
   40.0140   83.8070   62.2810 N   0  0  0  0  0  0  0  0  0  0  0  0
   41.0680   83.5540   63.0800 C   0  0  0  0  0  0  0  0  0  0  0  0
   42.0430   82.7220   62.6620 N   0  0  0  0  0  0  0  0  0  0  0  0
   42.7120   81.4770   61.0700 H   0  0  0  0  0  0  0  0  0  0  0  0
   39.0090   83.5080   60.4750 H   0  0  0  0  0  0  0  0  0  0  0  0
   41.0560   84.2420   64.3970 C   0  0  0  0  0  0  0  0  0  0  0  0
   40.7650   85.5840   64.2790 F   0  0  0  0  0  0  0  0  0  0  0  0
   40.1180   83.6590   65.2220 F   0  0  0  0  0  0  0  0  0  0  0  0
   42.3140   84.2120   64.9930 F   0  0  0  0  0  0  0  0  0  0  0  0
   41.5750   82.6260   55.8200 O   0  0  0  0  0  0  0  0  0  0  0  0
   45.2190   85.2970   55.3890 H   0  0  0  0  0  0  0  0  0  0  0  0
   44.8180   84.3260   55.4060 N   0  0  0  0  0  0  0  0  0  0  0  0
   43.4920   84.2070   55.6010 C   0  0  0  0  0  3  0  0  0  0  0  0
   42.8960   82.9560   55.6350 C   0  0  0  0  0  0  0  0  0  0  0  0
   43.7240   81.8440   55.4610 C   0  0  0  0  0  0  0  0  0  0  0  0
   43.3250   80.6720   55.4690 O   0  0  0  0  0  0  0  0  0  0  0  0
   45.0490   82.0280   55.2690 N   0  0  0  0  0  0  0  0  0  0  0  0
   45.6150   83.2470   55.2380 C   0  0  0  0  0  0  0  0  0  0  0  0
   46.8350   83.4410   55.0620 O   0  0  0  0  0  0  0  0  0  0  0  0
   45.7280   81.2540   55.1320 H   0  0  0  0  0  0  0  0  0  0  0  0
  2  1  1  0  0  0  0
  2  3  1  0  0  0  0
  3 12  1  0  0  0  0
  4  3  2  0  0  0  0
  4  9  1  0  0  0  0
  5  4  1  0  0  0  0
  6  8  1  0  0  0  0
  6  5  2  0  0  0  0
  7  6  1  0  0  0  0
  8  2  2  0  0  0  0
 10  5  1  0  0  0  0
 11 16  1  0  0  0  0
 12 13  1  0  0  0  0
 12 11  2  0  0  0  0
 13 14  2  0  0  0  0
 14 15  1  0  0  0  0
 15 19  1  0  0  0  0
 16 15  2  0  0  0  0
 17 11  1  0  0  0  0
 18 13  1  0  0  0  0
 19 22  1  0  0  0  0
 19 21  1  0  0  0  0
 20 19  1  0  0  0  0
 23  8  1  0  0  0  0
 24 25  1  0  0  0  0
 25 26  1  0  0  0  0
 26 27  2  0  0  0  0
 27 23  1  0  0  0  0
 28 29  2  0  0  0  0
 28 27  1  0  0  0  0
 30 28  1  0  0  0  0
 31 30  1  0  0  0  0
 31 25  1  0  0  0  0
 32 31  2  0  0  0  0
 33 30  1  0  0  0  0
M  END
>  <minimizedAffinity>
-5.1594162

>  <minimizedRMSD>
0.89130491

$$$$
