
 OpenBabel03212520163D

 33 35  0  0  0  0  0  0  0  0999 V2000
   42.1460   84.0270   58.3610 Cl  0  0  0  0  0  0  0  0  0  0  0  0
   41.2040   82.5490   58.2180 C   0  0  0  0  0  0  0  0  0  0  0  0
   40.6750   81.8840   59.3050 C   0  0  0  0  0  0  0  0  0  0  0  0
   39.9610   80.7390   59.0140 C   0  0  0  0  0  0  0  0  0  0  0  0
   39.7350   80.2110   57.7690 C   0  0  0  0  0  0  0  0  0  0  0  0
   40.2830   80.9080   56.7150 C   0  0  0  0  0  0  0  0  0  0  0  0
   40.0640   80.3330   55.0670 Cl  0  0  0  0  0  0  0  0  0  0  0  0
   41.0170   82.0780   56.9490 C   0  0  0  0  0  0  0  0  0  0  0  0
   39.5370   80.2040   59.8610 H   0  0  0  0  0  0  0  0  0  0  0  0
   39.1710   79.3170   57.6110 H   0  0  0  0  0  0  0  0  0  0  0  0
   41.9670   82.1810   61.4690 C   0  0  0  0  0  0  0  0  0  0  0  0
   40.8940   82.4120   60.6110 C   0  0  0  0  0  0  0  0  0  0  0  0
   39.8860   83.2740   61.0700 C   0  0  0  0  0  0  0  0  0  0  0  0
   40.0090   83.8250   62.3050 N   0  0  0  0  0  0  0  0  0  0  0  0
   41.0640   83.5720   63.1010 C   0  0  0  0  0  0  0  0  0  0  0  0
   42.0420   82.7470   62.6780 N   0  0  0  0  0  0  0  0  0  0  0  0
   42.7150   81.5150   61.0770 H   0  0  0  0  0  0  0  0  0  0  0  0
   39.0030   83.5330   60.4990 H   0  0  0  0  0  0  0  0  0  0  0  0
   41.0510   84.2520   64.4230 C   0  0  0  0  0  0  0  0  0  0  0  0
   40.7580   85.5940   64.3120 F   0  0  0  0  0  0  0  0  0  0  0  0
   40.1140   83.6630   65.2440 F   0  0  0  0  0  0  0  0  0  0  0  0
   42.3090   84.2210   65.0190 F   0  0  0  0  0  0  0  0  0  0  0  0
   41.5310   82.7130   55.8320 O   0  0  0  0  0  0  0  0  0  0  0  0
   42.9120   81.1330   51.8090 H   0  0  0  0  0  0  0  0  0  0  0  0
   43.1320   81.3260   52.8170 N   0  0  0  0  0  0  0  0  0  0  0  0
   42.1610   81.8770   53.5670 C   0  0  0  0  0  3  0  0  0  0  0  0
   42.3820   82.1580   54.9070 C   0  0  0  0  0  0  0  0  0  0  0  0
   43.6400   81.8460   55.4310 C   0  0  0  0  0  0  0  0  0  0  0  0
   43.9700   82.0440   56.6070 O   0  0  0  0  0  0  0  0  0  0  0  0
   44.5740   81.2940   54.6270 N   0  0  0  0  0  0  0  0  0  0  0  0
   44.3470   81.0260   53.3290 C   0  0  0  0  0  0  0  0  0  0  0  0
   45.1940   80.5160   52.5670 O   0  0  0  0  0  0  0  0  0  0  0  0
   45.5290   81.0340   54.9400 H   0  0  0  0  0  0  0  0  0  0  0  0
  2  1  1  0  0  0  0
  2  3  1  0  0  0  0
  3 12  1  0  0  0  0
  4  3  2  0  0  0  0
  4  9  1  0  0  0  0
  5  4  1  0  0  0  0
  6  8  1  0  0  0  0
  6  5  2  0  0  0  0
  7  6  1  0  0  0  0
  8  2  2  0  0  0  0
 10  5  1  0  0  0  0
 11 16  1  0  0  0  0
 12 13  1  0  0  0  0
 12 11  2  0  0  0  0
 13 14  2  0  0  0  0
 14 15  1  0  0  0  0
 15 19  1  0  0  0  0
 16 15  2  0  0  0  0
 17 11  1  0  0  0  0
 18 13  1  0  0  0  0
 19 22  1  0  0  0  0
 19 21  1  0  0  0  0
 20 19  1  0  0  0  0
 23  8  1  0  0  0  0
 24 25  1  0  0  0  0
 25 31  1  0  0  0  0
 25 26  1  0  0  0  0
 26 27  2  0  0  0  0
 27 28  1  0  0  0  0
 27 23  1  0  0  0  0
 28 29  2  0  0  0  0
 30 33  1  0  0  0  0
 30 28  1  0  0  0  0
 31 30  1  0  0  0  0
 32 31  2  0  0  0  0
M  END
>  <minimizedAffinity>
-5.16010189

>  <minimizedRMSD>
0.845271289

$$$$
