
 OpenBabel03212520163D

 33 35  0  0  0  0  0  0  0  0999 V2000
   42.1790   84.0240   58.3400 Cl  0  0  0  0  0  0  0  0  0  0  0  0
   41.2310   82.5510   58.1910 C   0  0  0  0  0  0  0  0  0  0  0  0
   40.6930   81.8880   59.2740 C   0  0  0  0  0  0  0  0  0  0  0  0
   39.9750   80.7460   58.9800 C   0  0  0  0  0  0  0  0  0  0  0  0
   39.7520   80.2200   57.7330 C   0  0  0  0  0  0  0  0  0  0  0  0
   40.3090   80.9150   56.6820 C   0  0  0  0  0  0  0  0  0  0  0  0
   40.0950   80.3430   55.0330 Cl  0  0  0  0  0  0  0  0  0  0  0  0
   41.0470   82.0810   56.9200 C   0  0  0  0  0  0  0  0  0  0  0  0
   39.5440   80.2130   59.8240 H   0  0  0  0  0  0  0  0  0  0  0  0
   39.1850   79.3300   57.5710 H   0  0  0  0  0  0  0  0  0  0  0  0
   41.9740   82.1740   61.4460 C   0  0  0  0  0  0  0  0  0  0  0  0
   40.9090   82.4140   60.5820 C   0  0  0  0  0  0  0  0  0  0  0  0
   39.9040   83.2820   61.0360 C   0  0  0  0  0  0  0  0  0  0  0  0
   40.0230   83.8320   62.2720 N   0  0  0  0  0  0  0  0  0  0  0  0
   41.0730   83.5720   63.0740 C   0  0  0  0  0  0  0  0  0  0  0  0
   42.0470   82.7390   62.6550 N   0  0  0  0  0  0  0  0  0  0  0  0
   42.7210   81.5030   61.0580 H   0  0  0  0  0  0  0  0  0  0  0  0
   39.0260   83.5480   60.4600 H   0  0  0  0  0  0  0  0  0  0  0  0
   41.0570   84.2510   64.3960 C   0  0  0  0  0  0  0  0  0  0  0  0
   40.7660   85.5930   64.2840 F   0  0  0  0  0  0  0  0  0  0  0  0
   40.1160   83.6630   65.2140 F   0  0  0  0  0  0  0  0  0  0  0  0
   42.3120   84.2170   64.9950 F   0  0  0  0  0  0  0  0  0  0  0  0
   41.5700   82.7150   55.8070 O   0  0  0  0  0  0  0  0  0  0  0  0
   45.9620   81.6010   55.5550 H   0  0  0  0  0  0  0  0  0  0  0  0
   45.0780   81.8650   55.0580 N   0  0  0  0  0  0  0  0  0  0  0  0
   43.9860   82.0920   55.8110 C   0  0  0  0  0  3  0  0  0  0  0  0
   42.7830   82.4460   55.2190 C   0  0  0  0  0  0  0  0  0  0  0  0
   42.7590   82.5530   53.8270 C   0  0  0  0  0  0  0  0  0  0  0  0
   41.7540   82.8600   53.1710 O   0  0  0  0  0  0  0  0  0  0  0  0
   43.8860   82.3130   53.1230 N   0  0  0  0  0  0  0  0  0  0  0  0
   45.0480   81.9710   53.7090 C   0  0  0  0  0  0  0  0  0  0  0  0
   46.1020   81.7460   53.0820 O   0  0  0  0  0  0  0  0  0  0  0  0
   43.9500   82.3730   52.0890 H   0  0  0  0  0  0  0  0  0  0  0  0
  2  1  1  0  0  0  0
  2  3  1  0  0  0  0
  3 12  1  0  0  0  0
  4  3  2  0  0  0  0
  4  9  1  0  0  0  0
  5  4  1  0  0  0  0
  6  8  1  0  0  0  0
  6  5  2  0  0  0  0
  7  6  1  0  0  0  0
  8  2  2  0  0  0  0
 10  5  1  0  0  0  0
 11 16  1  0  0  0  0
 12 13  1  0  0  0  0
 12 11  2  0  0  0  0
 13 14  2  0  0  0  0
 14 15  1  0  0  0  0
 15 19  1  0  0  0  0
 16 15  2  0  0  0  0
 17 11  1  0  0  0  0
 18 13  1  0  0  0  0
 19 22  1  0  0  0  0
 19 21  1  0  0  0  0
 20 19  1  0  0  0  0
 23  8  1  0  0  0  0
 25 24  1  0  0  0  0
 25 26  1  0  0  0  0
 27 23  1  0  0  0  0
 27 26  2  0  0  0  0
 28 27  1  0  0  0  0
 29 28  2  0  0  0  0
 30 31  1  0  0  0  0
 30 28  1  0  0  0  0
 31 25  1  0  0  0  0
 32 31  2  0  0  0  0
 33 30  1  0  0  0  0
M  END
>  <minimizedAffinity>
-5.34922409

>  <minimizedRMSD>
0.288227081

$$$$
