
 OpenBabel03212520213D

 37 39  0  0  0  0  0  0  0  0999 V2000
   40.4440   73.3440   57.0460 Cl  0  0  0  0  0  0  0  0  0  0  0  0
   39.7890   73.5560   58.6570 C   0  0  0  0  0  0  0  0  0  0  0  0
   38.6970   74.3850   58.9230 C   0  0  0  0  0  0  0  0  0  0  0  0
   38.2980   74.4450   60.2510 C   0  0  0  0  0  0  0  0  0  0  0  0
   38.8670   73.7750   61.3060 C   0  0  0  0  0  0  0  0  0  0  0  0
   39.9240   72.9810   61.0050 C   0  0  0  0  0  0  0  0  0  0  0  0
   40.7540   72.0630   62.2590 Cl  0  0  0  0  0  0  0  0  0  0  0  0
   40.3870   72.8690   59.6890 C   0  0  0  0  0  0  0  0  0  0  0  0
   37.4490   75.0970   60.4220 H   0  0  0  0  0  0  0  0  0  0  0  0
   38.4870   73.8850   62.3090 H   0  0  0  0  0  0  0  0  0  0  0  0
   37.2010   74.5750   56.8820 C   0  0  0  0  0  0  0  0  0  0  0  0
   38.0900   75.0850   57.8600 C   0  0  0  0  0  0  0  0  0  0  0  0
   38.4130   76.4440   57.7710 C   0  0  0  0  0  0  0  0  0  0  0  0
   37.8420   77.1530   56.7500 N   0  0  0  0  0  0  0  0  0  0  0  0
   37.0090   76.6330   55.8490 C   0  0  0  0  0  0  0  0  0  0  0  0
   36.6810   75.3230   55.9130 N   0  0  0  0  0  0  0  0  0  0  0  0
   36.9950   73.5200   57.0090 H   0  0  0  0  0  0  0  0  0  0  0  0
   39.0790   76.9550   58.4540 H   0  0  0  0  0  0  0  0  0  0  0  0
   36.5080   77.5830   54.8310 C   0  0  0  0  0  0  0  0  0  0  0  0
   37.4770   78.4610   54.3980 F   0  0  0  0  0  0  0  0  0  0  0  0
   36.0260   76.8840   53.7250 F   0  0  0  0  0  0  0  0  0  0  0  0
   35.4810   78.3910   55.3650 F   0  0  0  0  0  0  0  0  0  0  0  0
   41.4690   72.0480   59.4170 O   0  0  0  0  0  0  0  0  0  0  0  0
   41.3830   70.6800   59.1680 C   0  0  0  0  0  0  0  0  0  0  0  0
   40.3420   70.3280   59.3960 H   0  0  0  0  0  0  0  0  0  0  0  0
   41.6710   70.3840   58.1480 H   0  0  0  0  0  0  0  0  0  0  0  0
   42.2200   69.9970   60.0570 O   0  0  0  0  0  0  0  0  0  0  0  0
   40.7910   65.7530   60.1460 H   0  0  0  0  0  0  0  0  0  0  0  0
   41.2890   66.5410   60.6160 N   0  0  0  0  0  0  0  0  0  0  0  0
   41.3580   67.6940   59.9250 C   0  0  0  0  0  3  0  0  0  0  0  0
   42.0210   68.7300   60.5610 C   0  0  0  0  0  0  0  0  0  0  0  0
   42.5550   68.5380   61.8190 C   0  0  0  0  0  0  0  0  0  0  0  0
   43.1770   69.4440   62.4660 O   0  0  0  0  0  0  0  0  0  0  0  0
   42.4670   67.3710   62.4860 N   0  0  0  0  0  0  0  0  0  0  0  0
   41.8120   66.3720   61.8360 C   0  0  0  0  0  0  0  0  0  0  0  0
   41.6940   65.2520   62.4060 O   0  0  0  0  0  0  0  0  0  0  0  0
   42.8680   67.2170   63.4390 H   0  0  0  0  0  0  0  0  0  0  0  0
  1  2  1  0  0  0  0
  2  3  2  0  0  0  0
  2  8  1  0  0  0  0
  3  4  1  0  0  0  0
  4  9  1  0  0  0  0
  4  5  2  0  0  0  0
  5 10  1  0  0  0  0
  6  5  1  0  0  0  0
  6  7  1  0  0  0  0
  8  6  2  0  0  0  0
 11 17  1  0  0  0  0
 11 12  1  0  0  0  0
 12  3  1  0  0  0  0
 13 12  2  0  0  0  0
 13 18  1  0  0  0  0
 14 13  1  0  0  0  0
 15 16  1  0  0  0  0
 15 14  2  0  0  0  0
 16 11  2  0  0  0  0
 19 22  1  0  0  0  0
 19 15  1  0  0  0  0
 20 19  1  0  0  0  0
 21 19  1  0  0  0  0
 23  8  1  0  0  0  0
 24 25  1  0  0  0  0
 24 23  1  0  0  0  0
 24 27  1  0  0  0  0
 26 24  1  0  0  0  0
 27 31  1  0  0  0  0
 28 29  1  0  0  0  0
 29 35  1  0  0  0  0
 30 31  2  0  0  0  0
 30 29  1  0  0  0  0
 31 32  1  0  0  0  0
 32 33  2  0  0  0  0
 32 34  1  0  0  0  0
 34 37  1  0  0  0  0
 35 36  2  0  0  0  0
 35 34  1  0  0  0  0
M  END
>  <minimizedAffinity>
-6.953372

$$$$

 OpenBabel03212520213D

 37 39  0  0  0  0  0  0  0  0999 V2000
   39.5260   73.1710   61.3540 Cl  0  0  0  0  0  0  0  0  0  0  0  0
   41.0740   73.6050   60.6580 C   0  0  0  0  0  0  0  0  0  0  0  0
   42.1960   72.7770   60.7390 C   0  0  0  0  0  0  0  0  0  0  0  0
   43.3470   73.2640   60.1360 C   0  0  0  0  0  0  0  0  0  0  0  0
   43.4810   74.4620   59.4790 C   0  0  0  0  0  0  0  0  0  0  0  0
   42.3690   75.2360   59.4230 C   0  0  0  0  0  0  0  0  0  0  0  0
   42.3950   76.8000   58.6130 Cl  0  0  0  0  0  0  0  0  0  0  0  0
   41.1700   74.8150   60.0080 C   0  0  0  0  0  0  0  0  0  0  0  0
   44.1970   72.5960   60.2190 H   0  0  0  0  0  0  0  0  0  0  0  0
   44.4210   74.7580   59.0410 H   0  0  0  0  0  0  0  0  0  0  0  0
   42.0360   71.3110   62.8050 C   0  0  0  0  0  0  0  0  0  0  0  0
   42.0890   71.5390   61.4070 C   0  0  0  0  0  0  0  0  0  0  0  0
   42.0320   70.4120   60.5810 C   0  0  0  0  0  0  0  0  0  0  0  0
   41.9290   69.1940   61.1960 N   0  0  0  0  0  0  0  0  0  0  0  0
   41.8820   69.0220   62.5180 C   0  0  0  0  0  0  0  0  0  0  0  0
   41.9360   70.0960   63.3370 N   0  0  0  0  0  0  0  0  0  0  0  0
   42.0850   72.2240   63.3840 H   0  0  0  0  0  0  0  0  0  0  0  0
   42.0640   70.4490   59.4990 H   0  0  0  0  0  0  0  0  0  0  0  0
   41.7700   67.6170   62.9680 C   0  0  0  0  0  0  0  0  0  0  0  0
   41.2450   67.5050   64.2370 F   0  0  0  0  0  0  0  0  0  0  0  0
   40.9540   66.9020   62.0930 F   0  0  0  0  0  0  0  0  0  0  0  0
   43.0430   67.0120   63.0330 F   0  0  0  0  0  0  0  0  0  0  0  0
   40.0530   75.6310   59.9310 O   0  0  0  0  0  0  0  0  0  0  0  0
   38.9910   75.4380   59.0510 C   0  0  0  0  0  0  0  0  0  0  0  0
   38.9310   74.3520   58.7750 H   0  0  0  0  0  0  0  0  0  0  0  0
   38.0190   75.7900   59.4260 H   0  0  0  0  0  0  0  0  0  0  0  0
   39.2530   76.1210   57.8570 O   0  0  0  0  0  0  0  0  0  0  0  0
   35.7030   76.2620   55.1280 H   0  0  0  0  0  0  0  0  0  0  0  0
   36.4920   76.7590   55.6010 N   0  0  0  0  0  0  0  0  0  0  0  0
   37.2790   76.0040   56.3880 C   0  0  0  0  0  3  0  0  0  0  0  0
   38.3190   76.6750   57.0080 C   0  0  0  0  0  0  0  0  0  0  0  0
   38.4900   78.0280   56.7960 C   0  0  0  0  0  0  0  0  0  0  0  0
   39.4240   78.7120   57.3310 O   0  0  0  0  0  0  0  0  0  0  0  0
   37.6850   78.7560   56.0010 N   0  0  0  0  0  0  0  0  0  0  0  0
   36.6710   78.0700   55.4060 C   0  0  0  0  0  0  0  0  0  0  0  0
   35.8800   78.6940   54.6460 O   0  0  0  0  0  0  0  0  0  0  0  0
   37.8070   79.7820   55.8340 H   0  0  0  0  0  0  0  0  0  0  0  0
  2  3  1  0  0  0  0
  2  1  1  0  0  0  0
  3 12  1  0  0  0  0
  4  9  1  0  0  0  0
  4  3  2  0  0  0  0
  5  4  1  0  0  0  0
  6  5  2  0  0  0  0
  6  8  1  0  0  0  0
  7  6  1  0  0  0  0
  8  2  2  0  0  0  0
 10  5  1  0  0  0  0
 11 16  1  0  0  0  0
 11 17  1  0  0  0  0
 12 11  2  0  0  0  0
 13 14  2  0  0  0  0
 13 12  1  0  0  0  0
 14 15  1  0  0  0  0
 15 19  1  0  0  0  0
 15 16  2  0  0  0  0
 18 13  1  0  0  0  0
 19 22  1  0  0  0  0
 19 20  1  0  0  0  0
 21 19  1  0  0  0  0
 23  8  1  0  0  0  0
 24 26  1  0  0  0  0
 24 23  1  0  0  0  0
 25 24  1  0  0  0  0
 27 24  1  0  0  0  0
 28 29  1  0  0  0  0
 29 30  1  0  0  0  0
 30 31  2  0  0  0  0
 31 27  1  0  0  0  0
 32 31  1  0  0  0  0
 32 33  2  0  0  0  0
 34 32  1  0  0  0  0
 35 29  1  0  0  0  0
 35 34  1  0  0  0  0
 36 35  2  0  0  0  0
 37 34  1  0  0  0  0
M  END
>  <minimizedAffinity>
-6.79609013

$$$$

 OpenBabel03212520213D

 37 39  0  0  0  0  0  0  0  0999 V2000
   40.2670   73.4360   56.9080 Cl  0  0  0  0  0  0  0  0  0  0  0  0
   39.9930   73.9690   58.5550 C   0  0  0  0  0  0  0  0  0  0  0  0
   39.0980   74.9910   58.8770 C   0  0  0  0  0  0  0  0  0  0  0  0
   38.9940   75.2960   60.2270 C   0  0  0  0  0  0  0  0  0  0  0  0
   39.6780   74.6940   61.2550 C   0  0  0  0  0  0  0  0  0  0  0  0
   40.5370   73.7070   60.9000 C   0  0  0  0  0  0  0  0  0  0  0  0
   41.4820   72.8490   62.1130 Cl  0  0  0  0  0  0  0  0  0  0  0  0
   40.6980   73.3430   59.5580 C   0  0  0  0  0  0  0  0  0  0  0  0
   38.2920   76.0930   60.4410 H   0  0  0  0  0  0  0  0  0  0  0  0
   39.5320   75.0010   62.2780 H   0  0  0  0  0  0  0  0  0  0  0  0
   37.2450   75.1410   57.1490 C   0  0  0  0  0  0  0  0  0  0  0  0
   38.3800   75.6280   57.8430 C   0  0  0  0  0  0  0  0  0  0  0  0
   38.8570   76.8880   57.4660 C   0  0  0  0  0  0  0  0  0  0  0  0
   38.1840   77.5340   56.4650 N   0  0  0  0  0  0  0  0  0  0  0  0
   37.1170   77.0390   55.8370 C   0  0  0  0  0  0  0  0  0  0  0  0
   36.6370   75.8230   56.1820 N   0  0  0  0  0  0  0  0  0  0  0  0
   36.9300   74.1630   57.4900 H   0  0  0  0  0  0  0  0  0  0  0  0
   39.7140   77.3720   57.9150 H   0  0  0  0  0  0  0  0  0  0  0  0
   36.5450   77.9070   54.7840 C   0  0  0  0  0  0  0  0  0  0  0  0
   37.4770   78.7590   54.2320 F   0  0  0  0  0  0  0  0  0  0  0  0
   36.0080   77.1260   53.7630 F   0  0  0  0  0  0  0  0  0  0  0  0
   35.5420   78.7440   55.3190 F   0  0  0  0  0  0  0  0  0  0  0  0
   41.5830   72.3290   59.2310 O   0  0  0  0  0  0  0  0  0  0  0  0
   41.2350   70.9890   59.0890 C   0  0  0  0  0  0  0  0  0  0  0  0
   40.3120   70.7810   59.6910 H   0  0  0  0  0  0  0  0  0  0  0  0
   41.0920   70.6620   58.0480 H   0  0  0  0  0  0  0  0  0  0  0  0
   42.2410   70.1900   59.6460 O   0  0  0  0  0  0  0  0  0  0  0  0
   42.2250   68.3430   63.7260 H   0  0  0  0  0  0  0  0  0  0  0  0
   42.0640   68.2480   62.6980 N   0  0  0  0  0  0  0  0  0  0  0  0
   42.2930   69.3490   61.9600 C   0  0  0  0  0  3  0  0  0  0  0  0
   42.0760   69.2100   60.6000 C   0  0  0  0  0  0  0  0  0  0  0  0
   41.6540   67.9980   60.0900 C   0  0  0  0  0  0  0  0  0  0  0  0
   41.4340   67.7950   58.8500 O   0  0  0  0  0  0  0  0  0  0  0  0
   41.4340   66.9140   60.8560 N   0  0  0  0  0  0  0  0  0  0  0  0
   41.6550   67.0810   62.1880 C   0  0  0  0  0  0  0  0  0  0  0  0
   41.4680   66.1020   62.9620 O   0  0  0  0  0  0  0  0  0  0  0  0
   41.1140   65.9920   60.4780 H   0  0  0  0  0  0  0  0  0  0  0  0
  1  2  1  0  0  0  0
  2  3  2  0  0  0  0
  2  8  1  0  0  0  0
  3  4  1  0  0  0  0
  4  9  1  0  0  0  0
  4  5  2  0  0  0  0
  5 10  1  0  0  0  0
  6  5  1  0  0  0  0
  6  7  1  0  0  0  0
  8  6  2  0  0  0  0
 11 17  1  0  0  0  0
 11 12  1  0  0  0  0
 12  3  1  0  0  0  0
 13 12  2  0  0  0  0
 13 18  1  0  0  0  0
 14 13  1  0  0  0  0
 15 16  1  0  0  0  0
 15 14  2  0  0  0  0
 16 11  2  0  0  0  0
 19 22  1  0  0  0  0
 19 15  1  0  0  0  0
 20 19  1  0  0  0  0
 21 19  1  0  0  0  0
 23  8  1  0  0  0  0
 24 23  1  0  0  0  0
 24 27  1  0  0  0  0
 24 25  1  0  0  0  0
 26 24  1  0  0  0  0
 27 31  1  0  0  0  0
 29 28  1  0  0  0  0
 30 29  1  0  0  0  0
 31 30  2  0  0  0  0
 32 31  1  0  0  0  0
 32 34  1  0  0  0  0
 33 32  2  0  0  0  0
 34 35  1  0  0  0  0
 35 29  1  0  0  0  0
 35 36  2  0  0  0  0
 37 34  1  0  0  0  0
M  END
>  <minimizedAffinity>
-6.66051245

$$$$

 OpenBabel03212520213D

 37 39  0  0  0  0  0  0  0  0999 V2000
   41.2900   74.8320   57.4470 Cl  0  0  0  0  0  0  0  0  0  0  0  0
   40.3100   74.4930   58.8590 C   0  0  0  0  0  0  0  0  0  0  0  0
   39.0210   75.0020   59.0220 C   0  0  0  0  0  0  0  0  0  0  0  0
   38.3750   74.6400   60.1960 C   0  0  0  0  0  0  0  0  0  0  0  0
   38.8800   73.8410   61.1920 C   0  0  0  0  0  0  0  0  0  0  0  0
   40.1340   73.3670   60.9960 C   0  0  0  0  0  0  0  0  0  0  0  0
   40.9090   72.3300   62.1910 Cl  0  0  0  0  0  0  0  0  0  0  0  0
   40.8510   73.6880   59.8370 C   0  0  0  0  0  0  0  0  0  0  0  0
   37.3770   75.0530   60.2900 H   0  0  0  0  0  0  0  0  0  0  0  0
   38.3010   73.6140   62.0740 H   0  0  0  0  0  0  0  0  0  0  0  0
   38.7930   77.1770   57.7340 C   0  0  0  0  0  0  0  0  0  0  0  0
   38.4750   75.8260   58.0150 C   0  0  0  0  0  0  0  0  0  0  0  0
   37.5040   75.2250   57.2060 C   0  0  0  0  0  0  0  0  0  0  0  0
   36.9530   75.9960   56.2190 N   0  0  0  0  0  0  0  0  0  0  0  0
   37.2810   77.2670   55.9880 C   0  0  0  0  0  0  0  0  0  0  0  0
   38.2160   77.8700   56.7560 N   0  0  0  0  0  0  0  0  0  0  0  0
   39.5490   77.5790   58.3970 H   0  0  0  0  0  0  0  0  0  0  0  0
   37.1710   74.2000   57.3160 H   0  0  0  0  0  0  0  0  0  0  0  0
   36.5600   77.9110   54.8690 C   0  0  0  0  0  0  0  0  0  0  0  0
   37.3610   78.7600   54.1370 F   0  0  0  0  0  0  0  0  0  0  0  0
   36.0520   76.9400   54.0080 F   0  0  0  0  0  0  0  0  0  0  0  0
   35.5050   78.7150   55.3520 F   0  0  0  0  0  0  0  0  0  0  0  0
   42.1300   73.1850   59.6680 O   0  0  0  0  0  0  0  0  0  0  0  0
   42.4270   71.9480   59.1030 C   0  0  0  0  0  0  0  0  0  0  0  0
   43.1290   72.0930   58.2410 H   0  0  0  0  0  0  0  0  0  0  0  0
   42.8380   71.2110   59.8100 H   0  0  0  0  0  0  0  0  0  0  0  0
   41.2600   71.4000   58.5570 O   0  0  0  0  0  0  0  0  0  0  0  0
   41.9560   70.9280   54.1570 H   0  0  0  0  0  0  0  0  0  0  0  0
   41.2910   71.0740   54.9500 N   0  0  0  0  0  0  0  0  0  0  0  0
   41.8360   71.1220   56.1790 C   0  0  0  0  0  3  0  0  0  0  0  0
   40.9430   71.3160   57.2190 C   0  0  0  0  0  0  0  0  0  0  0  0
   39.5940   71.4460   56.9540 C   0  0  0  0  0  0  0  0  0  0  0  0
   38.7140   71.6270   57.8590 O   0  0  0  0  0  0  0  0  0  0  0  0
   39.0790   71.3940   55.7120 N   0  0  0  0  0  0  0  0  0  0  0  0
   39.9810   71.2010   54.7100 C   0  0  0  0  0  0  0  0  0  0  0  0
   39.5630   71.1430   53.5210 O   0  0  0  0  0  0  0  0  0  0  0  0
   38.0590   71.4910   55.5020 H   0  0  0  0  0  0  0  0  0  0  0  0
  1  2  1  0  0  0  0
  2  3  2  0  0  0  0
  2  8  1  0  0  0  0
  3  4  1  0  0  0  0
  4  9  1  0  0  0  0
  4  5  2  0  0  0  0
  5 10  1  0  0  0  0
  6  5  1  0  0  0  0
  6  7  1  0  0  0  0
  8  6  2  0  0  0  0
 11 12  1  0  0  0  0
 11 17  1  0  0  0  0
 12  3  1  0  0  0  0
 13 18  1  0  0  0  0
 13 12  2  0  0  0  0
 14 13  1  0  0  0  0
 15 14  2  0  0  0  0
 15 16  1  0  0  0  0
 16 11  2  0  0  0  0
 19 22  1  0  0  0  0
 19 15  1  0  0  0  0
 20 19  1  0  0  0  0
 21 19  1  0  0  0  0
 23  8  1  0  0  0  0
 24 23  1  0  0  0  0
 24 26  1  0  0  0  0
 25 24  1  0  0  0  0
 27 24  1  0  0  0  0
 28 29  1  0  0  0  0
 29 30  1  0  0  0  0
 30 31  2  0  0  0  0
 31 27  1  0  0  0  0
 32 31  1  0  0  0  0
 32 33  2  0  0  0  0
 34 32  1  0  0  0  0
 35 29  1  0  0  0  0
 35 34  1  0  0  0  0
 36 35  2  0  0  0  0
 37 34  1  0  0  0  0
M  END
>  <minimizedAffinity>
-6.65062046

$$$$

 OpenBabel03212520213D

 37 39  0  0  0  0  0  0  0  0999 V2000
   39.5930   73.0820   61.0410 Cl  0  0  0  0  0  0  0  0  0  0  0  0
   41.0880   73.6890   60.3570 C   0  0  0  0  0  0  0  0  0  0  0  0
   42.1710   72.8600   60.0600 C   0  0  0  0  0  0  0  0  0  0  0  0
   43.2830   73.4940   59.5220 C   0  0  0  0  0  0  0  0  0  0  0  0
   43.4100   74.8350   59.2590 C   0  0  0  0  0  0  0  0  0  0  0  0
   42.3360   75.6050   59.5610 C   0  0  0  0  0  0  0  0  0  0  0  0
   42.3590   77.3440   59.2780 Cl  0  0  0  0  0  0  0  0  0  0  0  0
   41.1780   75.0400   60.1080 C   0  0  0  0  0  0  0  0  0  0  0  0
   44.1050   72.8210   59.3050 H   0  0  0  0  0  0  0  0  0  0  0  0
   44.3180   75.2390   58.8390 H   0  0  0  0  0  0  0  0  0  0  0  0
   42.2860   70.8080   61.5490 C   0  0  0  0  0  0  0  0  0  0  0  0
   42.0700   71.4770   60.3190 C   0  0  0  0  0  0  0  0  0  0  0  0
   41.7150   70.6840   59.2220 C   0  0  0  0  0  0  0  0  0  0  0  0
   41.6080   69.3370   59.4380 N   0  0  0  0  0  0  0  0  0  0  0  0
   41.8210   68.7460   60.6140 C   0  0  0  0  0  0  0  0  0  0  0  0
   42.1650   69.4900   61.6880 N   0  0  0  0  0  0  0  0  0  0  0  0
   42.5570   71.4790   62.3530 H   0  0  0  0  0  0  0  0  0  0  0  0
   41.5230   71.0710   58.2300 H   0  0  0  0  0  0  0  0  0  0  0  0
   41.6500   67.2760   60.6210 C   0  0  0  0  0  0  0  0  0  0  0  0
   40.5900   66.8670   61.4010 F   0  0  0  0  0  0  0  0  0  0  0  0
   41.4390   66.8150   59.3220 F   0  0  0  0  0  0  0  0  0  0  0  0
   42.7860   66.6440   61.1700 F   0  0  0  0  0  0  0  0  0  0  0  0
   40.0980   75.8560   60.4040 O   0  0  0  0  0  0  0  0  0  0  0  0
   39.2500   76.4210   59.4550 C   0  0  0  0  0  0  0  0  0  0  0  0
   38.4180   76.9630   59.9780 H   0  0  0  0  0  0  0  0  0  0  0  0
   39.7490   77.0910   58.7390 H   0  0  0  0  0  0  0  0  0  0  0  0
   38.6370   75.4010   58.7180 O   0  0  0  0  0  0  0  0  0  0  0  0
   37.1600   77.4570   55.0230 H   0  0  0  0  0  0  0  0  0  0  0  0
   37.2710   76.5780   55.5770 N   0  0  0  0  0  0  0  0  0  0  0  0
   37.8960   76.7010   56.7620 C   0  0  0  0  0  3  0  0  0  0  0  0
   38.0360   75.5280   57.4850 C   0  0  0  0  0  0  0  0  0  0  0  0
   37.5490   74.3410   56.9750 C   0  0  0  0  0  0  0  0  0  0  0  0
   37.6410   73.2240   57.5820 O   0  0  0  0  0  0  0  0  0  0  0  0
   36.9270   74.2520   55.7850 N   0  0  0  0  0  0  0  0  0  0  0  0
   36.8050   75.4200   55.0970 C   0  0  0  0  0  0  0  0  0  0  0  0
   36.2310   75.4050   53.9730 O   0  0  0  0  0  0  0  0  0  0  0  0
   36.5550   73.3570   55.3910 H   0  0  0  0  0  0  0  0  0  0  0  0
  2  1  1  0  0  0  0
  3 12  1  0  0  0  0
  3  2  2  0  0  0  0
  4  3  1  0  0  0  0
  5  4  2  0  0  0  0
  5  6  1  0  0  0  0
  6  8  2  0  0  0  0
  7  6  1  0  0  0  0
  8  2  1  0  0  0  0
  8 23  1  0  0  0  0
  9  4  1  0  0  0  0
 10  5  1  0  0  0  0
 11 16  1  0  0  0  0
 11 17  1  0  0  0  0
 12 11  2  0  0  0  0
 13 14  2  0  0  0  0
 13 12  1  0  0  0  0
 14 15  1  0  0  0  0
 15 19  1  0  0  0  0
 15 16  2  0  0  0  0
 18 13  1  0  0  0  0
 19 22  1  0  0  0  0
 19 20  1  0  0  0  0
 21 19  1  0  0  0  0
 24 25  1  0  0  0  0
 24 23  1  0  0  0  0
 26 24  1  0  0  0  0
 27 24  1  0  0  0  0
 28 29  1  0  0  0  0
 29 30  1  0  0  0  0
 30 31  2  0  0  0  0
 31 27  1  0  0  0  0
 32 31  1  0  0  0  0
 32 33  2  0  0  0  0
 34 32  1  0  0  0  0
 35 29  1  0  0  0  0
 35 34  1  0  0  0  0
 36 35  2  0  0  0  0
 37 34  1  0  0  0  0
M  END
>  <minimizedAffinity>
-6.60117292

$$$$

 OpenBabel03212520213D

 37 39  0  0  0  0  0  0  0  0999 V2000
   42.1360   72.4270   62.1880 Cl  0  0  0  0  0  0  0  0  0  0  0  0
   41.5740   71.7940   60.6540 C   0  0  0  0  0  0  0  0  0  0  0  0
   40.9550   72.5930   59.6910 C   0  0  0  0  0  0  0  0  0  0  0  0
   40.5680   71.9420   58.5280 C   0  0  0  0  0  0  0  0  0  0  0  0
   40.7360   70.6090   58.2440 C   0  0  0  0  0  0  0  0  0  0  0  0
   41.3400   69.8680   59.2050 C   0  0  0  0  0  0  0  0  0  0  0  0
   41.6200   68.1440   58.9780 Cl  0  0  0  0  0  0  0  0  0  0  0  0
   41.7590   70.4530   60.4060 C   0  0  0  0  0  0  0  0  0  0  0  0
   40.0910   72.5920   57.8030 H   0  0  0  0  0  0  0  0  0  0  0  0
   40.4000   70.1900   57.3090 H   0  0  0  0  0  0  0  0  0  0  0  0
   39.7140   74.5760   60.6750 C   0  0  0  0  0  0  0  0  0  0  0  0
   40.7700   73.9670   59.9530 C   0  0  0  0  0  0  0  0  0  0  0  0
   41.7510   74.8180   59.4320 C   0  0  0  0  0  0  0  0  0  0  0  0
   41.6010   76.1570   59.6670 N   0  0  0  0  0  0  0  0  0  0  0  0
   40.5900   76.6900   60.3530 C   0  0  0  0  0  0  0  0  0  0  0  0
   39.6290   75.8900   60.8660 N   0  0  0  0  0  0  0  0  0  0  0  0
   38.9910   73.8620   61.0490 H   0  0  0  0  0  0  0  0  0  0  0  0
   42.6070   74.4800   58.8630 H   0  0  0  0  0  0  0  0  0  0  0  0
   40.6260   78.1640   60.4870 C   0  0  0  0  0  0  0  0  0  0  0  0
   41.8940   78.6820   60.3330 F   0  0  0  0  0  0  0  0  0  0  0  0
   39.7960   78.7480   59.5330 F   0  0  0  0  0  0  0  0  0  0  0  0
   40.2150   78.5570   61.7790 F   0  0  0  0  0  0  0  0  0  0  0  0
   42.3740   69.6660   61.3670 O   0  0  0  0  0  0  0  0  0  0  0  0
   41.7160   69.0630   62.4350 C   0  0  0  0  0  0  0  0  0  0  0  0
   42.0720   69.5210   63.3950 H   0  0  0  0  0  0  0  0  0  0  0  0
   40.6180   69.1050   62.3770 H   0  0  0  0  0  0  0  0  0  0  0  0
   42.0820   67.7130   62.4980 O   0  0  0  0  0  0  0  0  0  0  0  0
   46.1880   67.6780   64.2880 H   0  0  0  0  0  0  0  0  0  0  0  0
   45.4410   67.1870   63.7480 N   0  0  0  0  0  0  0  0  0  0  0  0
   44.3050   67.8780   63.5460 C   0  0  0  0  0  3  0  0  0  0  0  0
   43.3240   67.2150   62.8280 C   0  0  0  0  0  0  0  0  0  0  0  0
   43.5510   65.9310   62.3740 C   0  0  0  0  0  0  0  0  0  0  0  0
   42.6970   65.2590   61.7070 O   0  0  0  0  0  0  0  0  0  0  0  0
   44.7010   65.2670   62.5910 N   0  0  0  0  0  0  0  0  0  0  0  0
   45.6450   65.9430   63.3000 C   0  0  0  0  0  0  0  0  0  0  0  0
   46.7480   65.3750   63.5380 O   0  0  0  0  0  0  0  0  0  0  0  0
   44.8820   64.2940   62.2500 H   0  0  0  0  0  0  0  0  0  0  0  0
  2  1  1  0  0  0  0
  3 12  1  0  0  0  0
  3  2  2  0  0  0  0
  4  3  1  0  0  0  0
  5  4  2  0  0  0  0
  5  6  1  0  0  0  0
  6  8  2  0  0  0  0
  7  6  1  0  0  0  0
  8  2  1  0  0  0  0
  8 23  1  0  0  0  0
  9  4  1  0  0  0  0
 10  5  1  0  0  0  0
 11 16  1  0  0  0  0
 11 17  1  0  0  0  0
 12 11  2  0  0  0  0
 13 14  2  0  0  0  0
 13 12  1  0  0  0  0
 14 15  1  0  0  0  0
 15 19  1  0  0  0  0
 15 16  2  0  0  0  0
 18 13  1  0  0  0  0
 19 22  1  0  0  0  0
 20 19  1  0  0  0  0
 21 19  1  0  0  0  0
 23 24  1  0  0  0  0
 24 27  1  0  0  0  0
 24 25  1  0  0  0  0
 26 24  1  0  0  0  0
 27 31  1  0  0  0  0
 29 28  1  0  0  0  0
 30 29  1  0  0  0  0
 31 30  2  0  0  0  0
 32 34  1  0  0  0  0
 32 31  1  0  0  0  0
 33 32  2  0  0  0  0
 34 35  1  0  0  0  0
 35 36  2  0  0  0  0
 35 29  1  0  0  0  0
 37 34  1  0  0  0  0
M  END
>  <minimizedAffinity>
-6.59124756

$$$$

 OpenBabel03212520213D

 37 39  0  0  0  0  0  0  0  0999 V2000
   39.5050   72.7620   57.0390 Cl  0  0  0  0  0  0  0  0  0  0  0  0
   39.5570   73.4870   58.6330 C   0  0  0  0  0  0  0  0  0  0  0  0
   38.9530   74.7120   58.9240 C   0  0  0  0  0  0  0  0  0  0  0  0
   39.0830   75.1500   60.2340 C   0  0  0  0  0  0  0  0  0  0  0  0
   39.7380   74.5020   61.2510 C   0  0  0  0  0  0  0  0  0  0  0  0
   40.3100   73.3160   60.9280 C   0  0  0  0  0  0  0  0  0  0  0  0
   41.1850   72.3740   62.1320 Cl  0  0  0  0  0  0  0  0  0  0  0  0
   40.2240   72.8070   59.6270 C   0  0  0  0  0  0  0  0  0  0  0  0
   38.6020   76.1040   60.4240 H   0  0  0  0  0  0  0  0  0  0  0  0
   39.7870   74.9220   62.2430 H   0  0  0  0  0  0  0  0  0  0  0  0
   37.1370   74.9700   57.1690 C   0  0  0  0  0  0  0  0  0  0  0  0
   38.2710   75.4020   57.8990 C   0  0  0  0  0  0  0  0  0  0  0  0
   38.7870   76.6620   57.5750 C   0  0  0  0  0  0  0  0  0  0  0  0
   38.1500   77.3590   56.5850 N   0  0  0  0  0  0  0  0  0  0  0  0
   37.0830   76.9140   55.9210 C   0  0  0  0  0  0  0  0  0  0  0  0
   36.5660   75.7000   56.2160 N   0  0  0  0  0  0  0  0  0  0  0  0
   36.7900   73.9890   57.4700 H   0  0  0  0  0  0  0  0  0  0  0  0
   39.6480   77.1070   58.0570 H   0  0  0  0  0  0  0  0  0  0  0  0
   36.5540   77.8330   54.8900 C   0  0  0  0  0  0  0  0  0  0  0  0
   35.4390   78.5240   55.3120 F   0  0  0  0  0  0  0  0  0  0  0  0
   37.5310   78.7600   54.5320 F   0  0  0  0  0  0  0  0  0  0  0  0
   36.1390   77.1150   53.7470 F   0  0  0  0  0  0  0  0  0  0  0  0
   40.8200   71.5920   59.3310 O   0  0  0  0  0  0  0  0  0  0  0  0
   42.1440   71.4370   58.9290 C   0  0  0  0  0  0  0  0  0  0  0  0
   42.2330   71.6980   57.8420 H   0  0  0  0  0  0  0  0  0  0  0  0
   42.8700   72.0150   59.5200 H   0  0  0  0  0  0  0  0  0  0  0  0
   42.5000   70.0870   59.0280 O   0  0  0  0  0  0  0  0  0  0  0  0
   41.6410   67.8080   62.7870 H   0  0  0  0  0  0  0  0  0  0  0  0
   42.3390   68.2180   62.1270 N   0  0  0  0  0  0  0  0  0  0  0  0
   41.8350   68.8550   61.0540 C   0  0  0  0  0  3  0  0  0  0  0  0
   42.7710   69.3940   60.1870 C   0  0  0  0  0  0  0  0  0  0  0  0
   44.1180   69.2570   60.4560 C   0  0  0  0  0  0  0  0  0  0  0  0
   45.0360   69.7260   59.7060 O   0  0  0  0  0  0  0  0  0  0  0  0
   44.5910   68.6140   61.5390 N   0  0  0  0  0  0  0  0  0  0  0  0
   43.6480   68.0940   62.3720 C   0  0  0  0  0  0  0  0  0  0  0  0
   44.0250   67.4790   63.4080 O   0  0  0  0  0  0  0  0  0  0  0  0
   45.6100   68.5060   61.7510 H   0  0  0  0  0  0  0  0  0  0  0  0
  1  2  1  0  0  0  0
  2  3  2  0  0  0  0
  2  8  1  0  0  0  0
  3  4  1  0  0  0  0
  4  9  1  0  0  0  0
  4  5  2  0  0  0  0
  5 10  1  0  0  0  0
  6  5  1  0  0  0  0
  6  7  1  0  0  0  0
  8  6  2  0  0  0  0
 11 17  1  0  0  0  0
 11 12  1  0  0  0  0
 12  3  1  0  0  0  0
 13 12  2  0  0  0  0
 13 18  1  0  0  0  0
 14 13  1  0  0  0  0
 15 16  1  0  0  0  0
 15 14  2  0  0  0  0
 16 11  2  0  0  0  0
 19 20  1  0  0  0  0
 19 15  1  0  0  0  0
 21 19  1  0  0  0  0
 22 19  1  0  0  0  0
 23  8  1  0  0  0  0
 24 27  1  0  0  0  0
 24 23  1  0  0  0  0
 24 26  1  0  0  0  0
 25 24  1  0  0  0  0
 27 31  1  0  0  0  0
 29 35  1  0  0  0  0
 29 28  1  0  0  0  0
 30 29  1  0  0  0  0
 31 32  1  0  0  0  0
 31 30  2  0  0  0  0
 32 34  1  0  0  0  0
 33 32  2  0  0  0  0
 34 37  1  0  0  0  0
 34 35  1  0  0  0  0
 35 36  2  0  0  0  0
M  END
>  <minimizedAffinity>
-6.48680544

$$$$

 OpenBabel03212520213D

 37 39  0  0  0  0  0  0  0  0999 V2000
   39.4630   73.0430   60.8950 Cl  0  0  0  0  0  0  0  0  0  0  0  0
   41.0970   73.4890   60.4460 C   0  0  0  0  0  0  0  0  0  0  0  0
   42.2090   72.7150   60.7860 C   0  0  0  0  0  0  0  0  0  0  0  0
   43.4340   73.2040   60.3550 C   0  0  0  0  0  0  0  0  0  0  0  0
   43.6490   74.3550   59.6390 C   0  0  0  0  0  0  0  0  0  0  0  0
   42.5440   75.0770   59.3290 C   0  0  0  0  0  0  0  0  0  0  0  0
   42.6680   76.5770   58.4140 Cl  0  0  0  0  0  0  0  0  0  0  0  0
   41.2720   74.6500   59.7290 C   0  0  0  0  0  0  0  0  0  0  0  0
   44.2750   72.5800   60.6370 H   0  0  0  0  0  0  0  0  0  0  0  0
   44.6430   74.6560   59.3480 H   0  0  0  0  0  0  0  0  0  0  0  0
   41.8000   71.3950   62.9150 C   0  0  0  0  0  0  0  0  0  0  0  0
   42.0210   71.5260   61.5210 C   0  0  0  0  0  0  0  0  0  0  0  0
   42.0600   70.3440   60.7750 C   0  0  0  0  0  0  0  0  0  0  0  0
   41.8810   69.1710   61.4570 N   0  0  0  0  0  0  0  0  0  0  0  0
   41.6760   69.0920   62.7710 C   0  0  0  0  0  0  0  0  0  0  0  0
   41.6340   70.2200   63.5150 N   0  0  0  0  0  0  0  0  0  0  0  0
   41.7820   72.3470   63.4300 H   0  0  0  0  0  0  0  0  0  0  0  0
   42.2200   70.3060   59.7050 H   0  0  0  0  0  0  0  0  0  0  0  0
   41.5080   67.7210   63.3020 C   0  0  0  0  0  0  0  0  0  0  0  0
   41.1730   66.8090   62.3250 F   0  0  0  0  0  0  0  0  0  0  0  0
   42.6900   67.2970   63.9080 F   0  0  0  0  0  0  0  0  0  0  0  0
   40.4520   67.6740   64.2370 F   0  0  0  0  0  0  0  0  0  0  0  0
   40.1640   75.4120   59.3940 O   0  0  0  0  0  0  0  0  0  0  0  0
   39.6040   75.4790   58.1210 C   0  0  0  0  0  0  0  0  0  0  0  0
   38.7330   76.1860   58.1360 H   0  0  0  0  0  0  0  0  0  0  0  0
   40.3110   75.7620   57.3270 H   0  0  0  0  0  0  0  0  0  0  0  0
   39.0740   74.2270   57.7850 O   0  0  0  0  0  0  0  0  0  0  0  0
   40.1750   73.6190   53.4860 H   0  0  0  0  0  0  0  0  0  0  0  0
   39.8370   73.2200   54.3900 N   0  0  0  0  0  0  0  0  0  0  0  0
   39.7210   74.0870   55.4130 C   0  0  0  0  0  3  0  0  0  0  0  0
   39.2720   73.5440   56.6050 C   0  0  0  0  0  0  0  0  0  0  0  0
   38.9770   72.1980   56.6820 C   0  0  0  0  0  0  0  0  0  0  0  0
   38.5590   71.6280   57.7430 O   0  0  0  0  0  0  0  0  0  0  0  0
   39.1030   71.3560   55.6390 N   0  0  0  0  0  0  0  0  0  0  0  0
   39.5470   71.9170   54.4810 C   0  0  0  0  0  0  0  0  0  0  0  0
   39.6870   71.1820   53.4650 O   0  0  0  0  0  0  0  0  0  0  0  0
   38.8820   70.3350   55.6890 H   0  0  0  0  0  0  0  0  0  0  0  0
  2  3  1  0  0  0  0
  2  1  1  0  0  0  0
  3 12  1  0  0  0  0
  4  9  1  0  0  0  0
  4  3  2  0  0  0  0
  5  4  1  0  0  0  0
  6  5  2  0  0  0  0
  6  8  1  0  0  0  0
  7  6  1  0  0  0  0
  8  2  2  0  0  0  0
 10  5  1  0  0  0  0
 11 17  1  0  0  0  0
 11 16  1  0  0  0  0
 12 11  2  0  0  0  0
 13 14  2  0  0  0  0
 13 12  1  0  0  0  0
 14 15  1  0  0  0  0
 15 19  1  0  0  0  0
 15 16  2  0  0  0  0
 18 13  1  0  0  0  0
 19 21  1  0  0  0  0
 19 22  1  0  0  0  0
 20 19  1  0  0  0  0
 23  8  1  0  0  0  0
 24 25  1  0  0  0  0
 24 23  1  0  0  0  0
 26 24  1  0  0  0  0
 27 24  1  0  0  0  0
 28 29  1  0  0  0  0
 29 35  1  0  0  0  0
 29 30  1  0  0  0  0
 30 31  2  0  0  0  0
 31 32  1  0  0  0  0
 31 27  1  0  0  0  0
 32 33  2  0  0  0  0
 34 37  1  0  0  0  0
 34 32  1  0  0  0  0
 35 34  1  0  0  0  0
 36 35  2  0  0  0  0
M  END
>  <minimizedAffinity>
-6.40170097

$$$$

 OpenBabel03212520213D

 37 39  0  0  0  0  0  0  0  0999 V2000
   40.5320   73.7870   56.9210 Cl  0  0  0  0  0  0  0  0  0  0  0  0
   40.1980   74.2660   58.5730 C   0  0  0  0  0  0  0  0  0  0  0  0
   39.3390   75.3190   58.8930 C   0  0  0  0  0  0  0  0  0  0  0  0
   39.1790   75.5740   60.2480 C   0  0  0  0  0  0  0  0  0  0  0  0
   39.7760   74.8960   61.2820 C   0  0  0  0  0  0  0  0  0  0  0  0
   40.6020   73.8810   60.9290 C   0  0  0  0  0  0  0  0  0  0  0  0
   41.4380   72.9250   62.1510 Cl  0  0  0  0  0  0  0  0  0  0  0  0
   40.8160   73.5630   59.5820 C   0  0  0  0  0  0  0  0  0  0  0  0
   38.5070   76.3970   60.4600 H   0  0  0  0  0  0  0  0  0  0  0  0
   39.5910   75.1670   62.3090 H   0  0  0  0  0  0  0  0  0  0  0  0
   39.1310   77.2490   57.2580 C   0  0  0  0  0  0  0  0  0  0  0  0
   38.7100   76.0340   57.8520 C   0  0  0  0  0  0  0  0  0  0  0  0
   37.5310   75.4660   57.3580 C   0  0  0  0  0  0  0  0  0  0  0  0
   36.8940   76.1340   56.3480 N   0  0  0  0  0  0  0  0  0  0  0  0
   37.3250   77.2770   55.8160 C   0  0  0  0  0  0  0  0  0  0  0  0
   38.4620   77.8470   56.2760 N   0  0  0  0  0  0  0  0  0  0  0  0
   40.0480   77.6330   57.6860 H   0  0  0  0  0  0  0  0  0  0  0  0
   37.1020   74.5420   57.7250 H   0  0  0  0  0  0  0  0  0  0  0  0
   36.4810   77.8270   54.7320 C   0  0  0  0  0  0  0  0  0  0  0  0
   35.3420   78.4430   55.2040 F   0  0  0  0  0  0  0  0  0  0  0  0
   37.2060   78.7580   53.9910 F   0  0  0  0  0  0  0  0  0  0  0  0
   36.0250   76.7960   53.8830 F   0  0  0  0  0  0  0  0  0  0  0  0
   41.6660   72.5190   59.2570 O   0  0  0  0  0  0  0  0  0  0  0  0
   41.3140   71.1720   59.2890 C   0  0  0  0  0  0  0  0  0  0  0  0
   41.4250   70.7850   60.3360 H   0  0  0  0  0  0  0  0  0  0  0  0
   40.3040   70.9560   58.9080 H   0  0  0  0  0  0  0  0  0  0  0  0
   42.2200   70.4400   58.5120 O   0  0  0  0  0  0  0  0  0  0  0  0
   40.6530   67.0450   56.0470 H   0  0  0  0  0  0  0  0  0  0  0  0
   41.1250   67.9760   56.0940 N   0  0  0  0  0  0  0  0  0  0  0  0
   41.3030   68.4870   57.3260 C   0  0  0  0  0  3  0  0  0  0  0  0
   41.9300   69.7210   57.3740 C   0  0  0  0  0  0  0  0  0  0  0  0
   42.3270   70.3380   56.2050 C   0  0  0  0  0  0  0  0  0  0  0  0
   42.9090   71.4720   56.1710 O   0  0  0  0  0  0  0  0  0  0  0  0
   42.1350   69.8000   54.9870 N   0  0  0  0  0  0  0  0  0  0  0  0
   41.5160   68.5880   54.9710 C   0  0  0  0  0  0  0  0  0  0  0  0
   41.3060   68.0280   53.8590 O   0  0  0  0  0  0  0  0  0  0  0  0
   42.4330   70.2610   54.0960 H   0  0  0  0  0  0  0  0  0  0  0  0
  1  2  1  0  0  0  0
  2  3  2  0  0  0  0
  2  8  1  0  0  0  0
  3  4  1  0  0  0  0
  4  9  1  0  0  0  0
  4  5  2  0  0  0  0
  5 10  1  0  0  0  0
  6  5  1  0  0  0  0
  6  7  1  0  0  0  0
  8  6  2  0  0  0  0
 11 17  1  0  0  0  0
 11 12  1  0  0  0  0
 12  3  1  0  0  0  0
 13 18  1  0  0  0  0
 13 12  2  0  0  0  0
 14 13  1  0  0  0  0
 15 16  1  0  0  0  0
 15 14  2  0  0  0  0
 16 11  2  0  0  0  0
 19 20  1  0  0  0  0
 19 15  1  0  0  0  0
 21 19  1  0  0  0  0
 22 19  1  0  0  0  0
 23 24  1  0  0  0  0
 23  8  1  0  0  0  0
 24 25  1  0  0  0  0
 26 24  1  0  0  0  0
 27 24  1  0  0  0  0
 28 29  1  0  0  0  0
 29 30  1  0  0  0  0
 30 31  2  0  0  0  0
 31 27  1  0  0  0  0
 32 31  1  0  0  0  0
 33 32  2  0  0  0  0
 34 32  1  0  0  0  0
 35 34  1  0  0  0  0
 35 29  1  0  0  0  0
 36 35  2  0  0  0  0
 37 34  1  0  0  0  0
M  END
>  <minimizedAffinity>
-6.11640787

$$$$
