
 OpenBabel03212520153D

 33 35  0  0  0  0  0  0  0  0999 V2000
   42.1470   84.0260   58.3630 Cl  0  0  0  0  0  0  0  0  0  0  0  0
   41.2050   82.5490   58.2190 C   0  0  0  0  0  0  0  0  0  0  0  0
   40.6740   81.8830   59.3050 C   0  0  0  0  0  0  0  0  0  0  0  0
   39.9590   80.7390   59.0130 C   0  0  0  0  0  0  0  0  0  0  0  0
   39.7340   80.2120   57.7670 C   0  0  0  0  0  0  0  0  0  0  0  0
   40.2830   80.9090   56.7130 C   0  0  0  0  0  0  0  0  0  0  0  0
   40.0640   80.3360   55.0660 Cl  0  0  0  0  0  0  0  0  0  0  0  0
   41.0170   82.0780   56.9490 C   0  0  0  0  0  0  0  0  0  0  0  0
   39.5350   80.2030   59.8590 H   0  0  0  0  0  0  0  0  0  0  0  0
   39.1700   79.3190   57.6080 H   0  0  0  0  0  0  0  0  0  0  0  0
   41.9590   82.1670   61.4740 C   0  0  0  0  0  0  0  0  0  0  0  0
   40.8930   82.4100   60.6110 C   0  0  0  0  0  0  0  0  0  0  0  0
   39.8930   83.2830   61.0650 C   0  0  0  0  0  0  0  0  0  0  0  0
   40.0160   83.8340   62.3000 N   0  0  0  0  0  0  0  0  0  0  0  0
   41.0650   83.5700   63.1010 C   0  0  0  0  0  0  0  0  0  0  0  0
   42.0350   82.7330   62.6830 N   0  0  0  0  0  0  0  0  0  0  0  0
   42.7020   81.4920   61.0870 H   0  0  0  0  0  0  0  0  0  0  0  0
   39.0150   83.5510   60.4890 H   0  0  0  0  0  0  0  0  0  0  0  0
   41.0530   84.2520   64.4220 C   0  0  0  0  0  0  0  0  0  0  0  0
   40.7580   85.5930   64.3100 F   0  0  0  0  0  0  0  0  0  0  0  0
   40.1180   83.6620   65.2450 F   0  0  0  0  0  0  0  0  0  0  0  0
   42.3110   84.2220   65.0160 F   0  0  0  0  0  0  0  0  0  0  0  0
   41.5330   82.7140   55.8330 O   0  0  0  0  0  0  0  0  0  0  0  0
   42.9130   81.1360   51.8080 H   0  0  0  0  0  0  0  0  0  0  0  0
   43.1320   81.3280   52.8160 N   0  0  0  0  0  0  0  0  0  0  0  0
   42.1630   81.8790   53.5670 C   0  0  0  0  0  3  0  0  0  0  0  0
   42.3840   82.1590   54.9080 C   0  0  0  0  0  0  0  0  0  0  0  0
   43.6410   81.8460   55.4310 C   0  0  0  0  0  0  0  0  0  0  0  0
   43.9720   82.0430   56.6080 O   0  0  0  0  0  0  0  0  0  0  0  0
   44.5740   81.2930   54.6270 N   0  0  0  0  0  0  0  0  0  0  0  0
   44.3480   81.0260   53.3290 C   0  0  0  0  0  0  0  0  0  0  0  0
   45.1940   80.5160   52.5660 O   0  0  0  0  0  0  0  0  0  0  0  0
   45.5300   81.0330   54.9400 H   0  0  0  0  0  0  0  0  0  0  0  0
  2  1  1  0  0  0  0
  2  3  1  0  0  0  0
  3 12  1  0  0  0  0
  4  3  2  0  0  0  0
  4  9  1  0  0  0  0
  5  4  1  0  0  0  0
  6  8  1  0  0  0  0
  6  5  2  0  0  0  0
  7  6  1  0  0  0  0
  8  2  2  0  0  0  0
 10  5  1  0  0  0  0
 11 16  1  0  0  0  0
 12 13  1  0  0  0  0
 12 11  2  0  0  0  0
 13 14  2  0  0  0  0
 14 15  1  0  0  0  0
 15 19  1  0  0  0  0
 16 15  2  0  0  0  0
 17 11  1  0  0  0  0
 18 13  1  0  0  0  0
 19 22  1  0  0  0  0
 19 21  1  0  0  0  0
 20 19  1  0  0  0  0
 23  8  1  0  0  0  0
 24 25  1  0  0  0  0
 25 31  1  0  0  0  0
 25 26  1  0  0  0  0
 26 27  2  0  0  0  0
 27 28  1  0  0  0  0
 27 23  1  0  0  0  0
 28 29  2  0  0  0  0
 30 33  1  0  0  0  0
 30 28  1  0  0  0  0
 31 30  1  0  0  0  0
 32 31  2  0  0  0  0
M  END
>  <minimizedAffinity>
-5.16517067

>  <minimizedRMSD>
0.834617376

$$$$
