
 OpenBabel03212520283D

 35 37  0  0  0  0  0  0  0  0999 V2000
   45.1420   85.9990   60.2760 C   0  0  0  0  0  0  0  0  0  0  0  0
   45.3390   85.4040   59.3600 H   0  0  0  0  0  0  0  0  0  0  0  0
   46.0740   85.9680   60.8920 H   0  0  0  0  0  0  0  0  0  0  0  0
   42.6190   83.9020   61.6640 C   0  0  0  0  0  0  0  0  0  0  0  0
   42.6230   84.8780   62.6810 C   0  0  0  0  0  0  0  0  0  0  0  0
   43.6030   85.7620   62.2160 C   0  0  0  0  0  0  0  0  0  0  0  0
   44.1120   85.3240   61.0330 N   0  0  0  0  0  0  0  0  0  0  0  0
   43.4940   84.1970   60.7290 N   0  0  0  0  0  0  0  0  0  0  0  0
   42.0480   84.9680   63.5930 H   0  0  0  0  0  0  0  0  0  0  0  0
   43.8550   86.6520   62.7910 H   0  0  0  0  0  0  0  0  0  0  0  0
   41.4210   80.3880   62.0020 C   0  0  0  0  0  0  0  0  0  0  0  0
   42.2540   81.4980   61.9860 C   0  0  0  0  0  0  0  0  0  0  0  0
   41.7510   82.7440   61.6820 C   0  0  0  0  0  0  0  0  0  0  0  0
   40.4400   82.8710   61.4020 N   0  0  0  0  0  0  0  0  0  0  0  0
   39.6490   81.7500   61.4280 C   0  0  0  0  0  0  0  0  0  0  0  0
   40.1340   80.5370   61.7230 N   0  0  0  0  0  0  0  0  0  0  0  0
   41.7990   79.3880   62.2410 H   0  0  0  0  0  0  0  0  0  0  0  0
   43.2940   81.3760   62.2120 H   0  0  0  0  0  0  0  0  0  0  0  0
   38.6110   81.8950   61.1990 H   0  0  0  0  0  0  0  0  0  0  0  0
   44.7790   87.2620   59.9150 O   0  0  0  0  0  0  0  0  0  0  0  0
   46.0070   88.0460   57.7560 O   0  0  0  0  0  0  0  0  0  0  0  0
   44.6590   87.5270   58.2620 P   0  0  2  0  0  0  0  0  0  0  0  0
   43.5210   88.7150   57.9680 O   0  0  0  0  0  0  0  0  0  0  0  0
   43.0660   89.0380   58.7750 H   0  0  0  0  0  0  0  0  0  0  0  0
   44.2580   86.1410   57.4170 O   0  0  0  0  0  0  0  0  0  0  0  0
   40.0210   84.9510   58.2550 H   0  0  0  0  0  0  0  0  0  0  0  0
   40.9760   84.5880   58.0360 N   0  0  0  0  0  0  0  0  0  0  0  0
   41.8640   85.5900   57.8970 C   0  0  0  0  0  3  0  0  0  0  0  0
   43.1830   85.3060   57.6050 C   0  0  0  0  0  0  0  0  0  0  0  0
   43.5320   83.9570   57.4670 C   0  0  0  0  0  0  0  0  0  0  0  0
   44.6840   83.5250   57.2030 O   0  0  0  0  0  0  0  0  0  0  0  0
   42.5710   83.0060   57.6250 N   0  0  0  0  0  0  0  0  0  0  0  0
   41.3040   83.3020   57.9070 C   0  0  0  0  0  0  0  0  0  0  0  0
   40.3900   82.4540   58.0590 O   0  0  0  0  0  0  0  0  0  0  0  0
   42.8130   81.9780   57.5250 H   0  0  0  0  0  0  0  0  0  0  0  0
  1  3  1  0  0  0  0
  1  7  1  0  0  0  0
  2  1  1  0  0  0  0
  4 13  1  0  0  0  0
  4  5  1  0  0  0  0
  5  9  1  0  0  0  0
  6  5  2  0  0  0  0
  6 10  1  0  0  0  0
  7  6  1  0  0  0  0
  8  7  1  0  0  0  0
  8  4  2  0  0  0  0
 11 17  1  0  0  0  0
 12 11  1  0  0  0  0
 12 18  1  0  0  0  0
 13 12  2  0  0  0  0
 14 15  2  0  0  0  0
 14 13  1  0  0  0  0
 15 16  1  0  0  0  0
 16 11  2  0  0  0  0
 19 15  1  0  0  0  0
 20  1  1  0  0  0  0
 22 21  2  6  0  0  0
 22 20  1  0  0  0  0
 23 22  1  0  0  0  0
 23 24  1  0  0  0  0
 25 29  1  0  0  0  0
 25 22  1  0  0  0  0
 27 26  1  0  0  0  0
 28 27  1  0  0  0  0
 29 28  2  0  0  0  0
 30 29  1  0  0  0  0
 30 32  1  0  0  0  0
 31 30  2  0  0  0  0
 32 33  1  0  0  0  0
 33 27  1  0  0  0  0
 33 34  2  0  0  0  0
 35 32  1  0  0  0  0
M  END
>  <minimizedAffinity>
-4.57440186

>  <minimizedRMSD>
3.14466357

$$$$
