
 OpenBabel03212520213D

 37 39  0  0  0  0  0  0  0  0999 V2000
   43.1710   83.8810   58.6080 Cl  0  0  0  0  0  0  0  0  0  0  0  0
   41.9120   82.7300   58.2050 C   0  0  0  0  0  0  0  0  0  0  0  0
   41.0140   82.2340   59.1510 C   0  0  0  0  0  0  0  0  0  0  0  0
   40.0760   81.3300   58.6730 C   0  0  0  0  0  0  0  0  0  0  0  0
   39.9520   80.8890   57.3790 C   0  0  0  0  0  0  0  0  0  0  0  0
   40.8420   81.3960   56.4910 C   0  0  0  0  0  0  0  0  0  0  0  0
   40.8020   80.9180   54.7960 Cl  0  0  0  0  0  0  0  0  0  0  0  0
   41.8200   82.3120   56.8960 C   0  0  0  0  0  0  0  0  0  0  0  0
   39.3960   80.9650   59.4350 H   0  0  0  0  0  0  0  0  0  0  0  0
   39.1870   80.1810   57.1000 H   0  0  0  0  0  0  0  0  0  0  0  0
   41.9500   82.1460   61.5090 C   0  0  0  0  0  0  0  0  0  0  0  0
   41.1160   82.6680   60.4900 C   0  0  0  0  0  0  0  0  0  0  0  0
   40.2890   83.7410   60.8390 C   0  0  0  0  0  0  0  0  0  0  0  0
   40.3620   84.1880   62.1300 N   0  0  0  0  0  0  0  0  0  0  0  0
   41.1620   83.6670   63.0600 C   0  0  0  0  0  0  0  0  0  0  0  0
   41.9710   82.6300   62.7480 N   0  0  0  0  0  0  0  0  0  0  0  0
   42.5620   81.3190   61.1710 H   0  0  0  0  0  0  0  0  0  0  0  0
   39.6060   84.2300   60.1550 H   0  0  0  0  0  0  0  0  0  0  0  0
   41.0800   84.3060   64.3930 C   0  0  0  0  0  0  0  0  0  0  0  0
   40.7440   85.6400   64.3240 F   0  0  0  0  0  0  0  0  0  0  0  0
   40.1270   83.6550   65.1740 F   0  0  0  0  0  0  0  0  0  0  0  0
   42.3330   84.2670   65.0420 F   0  0  0  0  0  0  0  0  0  0  0  0
   42.7140   82.8090   55.9630 O   0  0  0  0  0  0  0  0  0  0  0  0
   42.5090   83.9610   55.2070 C   0  0  0  0  0  0  0  0  0  0  0  0
   42.4790   83.6890   54.1190 H   0  0  0  0  0  0  0  0  0  0  0  0
   41.6100   84.5320   55.4820 H   0  0  0  0  0  0  0  0  0  0  0  0
   43.6110   84.8120   55.3570 O   0  0  0  0  0  0  0  0  0  0  0  0
   47.8060   83.2400   55.3250 H   0  0  0  0  0  0  0  0  0  0  0  0
   47.0490   83.7880   54.8570 N   0  0  0  0  0  0  0  0  0  0  0  0
   45.8780   83.8640   55.5160 C   0  0  0  0  0  3  0  0  0  0  0  0
   44.8860   84.5940   54.8830 C   0  0  0  0  0  0  0  0  0  0  0  0
   45.1360   85.1820   53.6600 C   0  0  0  0  0  0  0  0  0  0  0  0
   44.2730   85.8680   53.0180 O   0  0  0  0  0  0  0  0  0  0  0  0
   46.3200   85.0880   53.0260 N   0  0  0  0  0  0  0  0  0  0  0  0
   47.2750   84.3650   53.6710 C   0  0  0  0  0  0  0  0  0  0  0  0
   48.4090   84.2370   53.1300 O   0  0  0  0  0  0  0  0  0  0  0  0
   46.5180   85.5310   52.0980 H   0  0  0  0  0  0  0  0  0  0  0  0
  2  1  1  0  0  0  0
  2  3  1  0  0  0  0
  3 12  1  0  0  0  0
  4  3  2  0  0  0  0
  4  9  1  0  0  0  0
  5  4  1  0  0  0  0
  6  8  1  0  0  0  0
  6  5  2  0  0  0  0
  7  6  1  0  0  0  0
  8  2  2  0  0  0  0
 10  5  1  0  0  0  0
 11 16  1  0  0  0  0
 12 13  1  0  0  0  0
 12 11  2  0  0  0  0
 13 14  2  0  0  0  0
 14 15  1  0  0  0  0
 15 19  1  0  0  0  0
 16 15  2  0  0  0  0
 17 11  1  0  0  0  0
 18 13  1  0  0  0  0
 19 22  1  0  0  0  0
 19 21  1  0  0  0  0
 20 19  1  0  0  0  0
 23  8  1  0  0  0  0
 24 27  1  0  0  0  0
 24 26  1  0  0  0  0
 24 23  1  0  0  0  0
 25 24  1  0  0  0  0
 29 28  1  0  0  0  0
 29 30  1  0  0  0  0
 31 27  1  0  0  0  0
 31 30  2  0  0  0  0
 32 31  1  0  0  0  0
 33 32  2  0  0  0  0
 34 32  1  0  0  0  0
 34 35  1  0  0  0  0
 35 29  1  0  0  0  0
 36 35  2  0  0  0  0
 37 34  1  0  0  0  0
M  END
>  <minimizedAffinity>
-5.04041958

>  <minimizedRMSD>
0.161404192

$$$$
