
 OpenBabel03212520153D

 33 35  0  0  0  0  0  0  0  0999 V2000
   42.1720   83.9850   58.3540 Cl  0  0  0  0  0  0  0  0  0  0  0  0
   41.2180   82.5140   58.2160 C   0  0  0  0  0  0  0  0  0  0  0  0
   40.6780   81.8600   59.3040 C   0  0  0  0  0  0  0  0  0  0  0  0
   39.9550   80.7190   59.0170 C   0  0  0  0  0  0  0  0  0  0  0  0
   39.7300   80.1860   57.7740 C   0  0  0  0  0  0  0  0  0  0  0  0
   40.2890   80.8720   56.7180 C   0  0  0  0  0  0  0  0  0  0  0  0
   40.0710   80.2900   55.0730 Cl  0  0  0  0  0  0  0  0  0  0  0  0
   41.0320   82.0370   56.9480 C   0  0  0  0  0  0  0  0  0  0  0  0
   39.5230   80.1930   59.8650 H   0  0  0  0  0  0  0  0  0  0  0  0
   39.1600   79.2960   57.6190 H   0  0  0  0  0  0  0  0  0  0  0  0
   41.9720   82.1710   61.4650 C   0  0  0  0  0  0  0  0  0  0  0  0
   40.8970   82.3940   60.6090 C   0  0  0  0  0  0  0  0  0  0  0  0
   39.8840   83.2510   61.0660 C   0  0  0  0  0  0  0  0  0  0  0  0
   40.0060   83.8070   62.2990 N   0  0  0  0  0  0  0  0  0  0  0  0
   41.0640   83.5630   63.0940 C   0  0  0  0  0  0  0  0  0  0  0  0
   42.0460   82.7420   62.6720 N   0  0  0  0  0  0  0  0  0  0  0  0
   42.7240   81.5080   61.0750 H   0  0  0  0  0  0  0  0  0  0  0  0
   38.9990   83.5030   60.4960 H   0  0  0  0  0  0  0  0  0  0  0  0
   41.0500   84.2470   64.4140 C   0  0  0  0  0  0  0  0  0  0  0  0
   40.7570   85.5890   64.2980 F   0  0  0  0  0  0  0  0  0  0  0  0
   40.1110   83.6610   65.2360 F   0  0  0  0  0  0  0  0  0  0  0  0
   42.3060   84.2170   65.0110 F   0  0  0  0  0  0  0  0  0  0  0  0
   41.5560   82.6610   55.8310 O   0  0  0  0  0  0  0  0  0  0  0  0
   45.4220   80.5880   54.6680 H   0  0  0  0  0  0  0  0  0  0  0  0
   44.8760   81.4810   54.7500 N   0  0  0  0  0  0  0  0  0  0  0  0
   43.6220   81.3970   55.2300 C   0  0  0  0  0  3  0  0  0  0  0  0
   42.8430   82.5370   55.3650 C   0  0  0  0  0  0  0  0  0  0  0  0
   43.4130   83.7540   54.9840 C   0  0  0  0  0  0  0  0  0  0  0  0
   42.8320   84.8450   55.0510 O   0  0  0  0  0  0  0  0  0  0  0  0
   44.6760   83.7740   54.5080 N   0  0  0  0  0  0  0  0  0  0  0  0
   45.4220   82.6620   54.3820 C   0  0  0  0  0  0  0  0  0  0  0  0
   46.5910   82.6560   53.9450 O   0  0  0  0  0  0  0  0  0  0  0  0
   45.1700   84.6360   54.2040 H   0  0  0  0  0  0  0  0  0  0  0  0
  2  1  1  0  0  0  0
  2  3  1  0  0  0  0
  3 12  1  0  0  0  0
  4  3  2  0  0  0  0
  4  9  1  0  0  0  0
  5  4  1  0  0  0  0
  6  8  1  0  0  0  0
  6  5  2  0  0  0  0
  7  6  1  0  0  0  0
  8  2  2  0  0  0  0
 10  5  1  0  0  0  0
 11 16  1  0  0  0  0
 12 13  1  0  0  0  0
 12 11  2  0  0  0  0
 13 14  2  0  0  0  0
 14 15  1  0  0  0  0
 15 19  1  0  0  0  0
 16 15  2  0  0  0  0
 17 11  1  0  0  0  0
 18 13  1  0  0  0  0
 19 22  1  0  0  0  0
 19 21  1  0  0  0  0
 20 19  1  0  0  0  0
 23  8  1  0  0  0  0
 24 25  1  0  0  0  0
 25 26  1  0  0  0  0
 26 27  2  0  0  0  0
 27 23  1  0  0  0  0
 28 29  2  0  0  0  0
 28 27  1  0  0  0  0
 30 28  1  0  0  0  0
 31 30  1  0  0  0  0
 31 25  1  0  0  0  0
 32 31  2  0  0  0  0
 33 30  1  0  0  0  0
M  END
>  <minimizedAffinity>
-5.40145874

>  <minimizedRMSD>
0.262977183

$$$$
