
 OpenBabel03212520283D

 35 37  0  0  0  0  0  0  0  0999 V2000
   41.1910   72.7610   61.9820 C   0  0  0  0  0  0  0  0  0  0  0  0
   41.6890   73.4660   61.2850 H   0  0  0  0  0  0  0  0  0  0  0  0
   41.4440   73.0950   63.0190 H   0  0  0  0  0  0  0  0  0  0  0  0
   42.1510   69.3340   61.8650 C   0  0  0  0  0  0  0  0  0  0  0  0
   43.2410   69.8520   61.1380 C   0  0  0  0  0  0  0  0  0  0  0  0
   42.9480   71.2200   61.1310 C   0  0  0  0  0  0  0  0  0  0  0  0
   41.7860   71.4570   61.7990 N   0  0  0  0  0  0  0  0  0  0  0  0
   41.3320   70.2940   62.2290 N   0  0  0  0  0  0  0  0  0  0  0  0
   44.0980   69.3700   60.6870 H   0  0  0  0  0  0  0  0  0  0  0  0
   43.6170   71.9210   60.6340 H   0  0  0  0  0  0  0  0  0  0  0  0
   40.7790   66.1310   63.1920 C   0  0  0  0  0  0  0  0  0  0  0  0
   40.9320   67.4820   62.9170 C   0  0  0  0  0  0  0  0  0  0  0  0
   41.9890   67.9240   62.1520 C   0  0  0  0  0  0  0  0  0  0  0  0
   42.8730   67.0260   61.6740 N   0  0  0  0  0  0  0  0  0  0  0  0
   42.6860   65.6990   61.9680 C   0  0  0  0  0  0  0  0  0  0  0  0
   41.6600   65.2660   62.7110 N   0  0  0  0  0  0  0  0  0  0  0  0
   39.9450   65.7580   63.7980 H   0  0  0  0  0  0  0  0  0  0  0  0
   40.2200   68.1820   63.3060 H   0  0  0  0  0  0  0  0  0  0  0  0
   43.4120   65.0170   61.5670 H   0  0  0  0  0  0  0  0  0  0  0  0
   39.8510   72.7610   61.7310 O   0  0  0  0  0  0  0  0  0  0  0  0
   40.3490   75.1310   60.7710 O   0  0  0  0  0  0  0  0  0  0  0  0
   39.3070   74.0110   60.7510 P   0  0  2  0  0  0  0  0  0  0  0  0
   37.8890   74.6340   61.3780 O   0  0  0  0  0  0  0  0  0  0  0  0
   37.5630   74.1600   62.1740 H   0  0  0  0  0  0  0  0  0  0  0  0
   39.0590   73.5250   59.1700 O   0  0  0  0  0  0  0  0  0  0  0  0
   37.5230   77.0340   56.8490 H   0  0  0  0  0  0  0  0  0  0  0  0
   37.5820   75.9910   56.8680 N   0  0  0  0  0  0  0  0  0  0  0  0
   38.2460   75.5560   57.9540 C   0  0  0  0  0  3  0  0  0  0  0  0
   38.4260   74.2020   58.1560 C   0  0  0  0  0  0  0  0  0  0  0  0
   37.8940   73.3350   57.1940 C   0  0  0  0  0  0  0  0  0  0  0  0
   37.9670   72.0800   57.2230 O   0  0  0  0  0  0  0  0  0  0  0  0
   37.2350   73.8600   56.1250 N   0  0  0  0  0  0  0  0  0  0  0  0
   37.0720   75.1700   55.9490 C   0  0  0  0  0  0  0  0  0  0  0  0
   36.4720   75.6910   54.9780 O   0  0  0  0  0  0  0  0  0  0  0  0
   36.8230   73.2230   55.3840 H   0  0  0  0  0  0  0  0  0  0  0  0
  1  3  1  0  0  0  0
  2  1  1  0  0  0  0
  4 13  1  0  0  0  0
  4  8  2  0  0  0  0
  5  4  1  0  0  0  0
  6  5  2  0  0  0  0
  6  7  1  0  0  0  0
  7  1  1  0  0  0  0
  7  8  1  0  0  0  0
  9  5  1  0  0  0  0
 10  6  1  0  0  0  0
 11 17  1  0  0  0  0
 12 11  1  0  0  0  0
 12 18  1  0  0  0  0
 13 12  2  0  0  0  0
 14 15  2  0  0  0  0
 14 13  1  0  0  0  0
 15 16  1  0  0  0  0
 16 11  2  0  0  0  0
 19 15  1  0  0  0  0
 20  1  1  0  0  0  0
 22 21  2  1  0  0  0
 22 23  1  0  0  0  0
 22 20  1  0  0  0  0
 23 24  1  0  0  0  0
 25 22  1  0  0  0  0
 26 27  1  0  0  0  0
 27 28  1  0  0  0  0
 28 29  2  0  0  0  0
 29 25  1  0  0  0  0
 30 31  2  0  0  0  0
 30 29  1  0  0  0  0
 32 30  1  0  0  0  0
 33 32  1  0  0  0  0
 33 27  1  0  0  0  0
 34 33  2  0  0  0  0
 35 32  1  0  0  0  0
M  END
>  <minimizedAffinity>
-6.33944988

$$$$

 OpenBabel03212520283D

 35 37  0  0  0  0  0  0  0  0999 V2000
   41.8610   72.5570   60.3980 C   0  0  0  0  0  0  0  0  0  0  0  0
   41.3500   72.2290   59.4690 H   0  0  0  0  0  0  0  0  0  0  0  0
   42.9250   72.7670   60.1290 H   0  0  0  0  0  0  0  0  0  0  0  0
   41.9080   69.4490   62.1360 C   0  0  0  0  0  0  0  0  0  0  0  0
   41.8440   70.2870   63.2670 C   0  0  0  0  0  0  0  0  0  0  0  0
   41.8220   71.5540   62.6750 C   0  0  0  0  0  0  0  0  0  0  0  0
   41.8680   71.4430   61.3190 N   0  0  0  0  0  0  0  0  0  0  0  0
   41.9190   70.1560   61.0290 N   0  0  0  0  0  0  0  0  0  0  0  0
   41.8170   70.0650   64.3260 H   0  0  0  0  0  0  0  0  0  0  0  0
   41.7730   72.4480   63.2950 H   0  0  0  0  0  0  0  0  0  0  0  0
   40.9030   65.9120   62.7570 C   0  0  0  0  0  0  0  0  0  0  0  0
   40.8590   67.2970   62.6740 C   0  0  0  0  0  0  0  0  0  0  0  0
   41.9520   68.0040   62.2230 C   0  0  0  0  0  0  0  0  0  0  0  0
   43.0640   67.3340   61.8630 N   0  0  0  0  0  0  0  0  0  0  0  0
   43.0670   65.9650   61.9600 C   0  0  0  0  0  0  0  0  0  0  0  0
   42.0070   65.2740   62.3980 N   0  0  0  0  0  0  0  0  0  0  0  0
   40.0450   65.3300   63.1130 H   0  0  0  0  0  0  0  0  0  0  0  0
   39.9660   67.8120   62.9650 H   0  0  0  0  0  0  0  0  0  0  0  0
   43.9720   65.4700   61.6630 H   0  0  0  0  0  0  0  0  0  0  0  0
   41.2110   73.6440   60.9020 O   0  0  0  0  0  0  0  0  0  0  0  0
   38.6800   73.5310   61.5040 O   0  0  0  0  0  0  0  0  0  0  0  0
   39.6380   73.8550   60.3560 P   0  0  2  0  0  0  0  0  0  0  0  0
   39.3260   72.7740   59.1210 O   0  0  0  0  0  0  0  0  0  0  0  0
   40.1000   72.2250   58.8680 H   0  0  0  0  0  0  0  0  0  0  0  0
   39.3470   75.4150   59.8270 O   0  0  0  0  0  0  0  0  0  0  0  0
   42.0860   77.7370   57.1500 H   0  0  0  0  0  0  0  0  0  0  0  0
   41.1690   77.2380   57.1970 N   0  0  0  0  0  0  0  0  0  0  0  0
   40.9520   76.7220   58.4210 C   0  0  0  0  0  3  0  0  0  0  0  0
   39.7880   76.0250   58.6780 C   0  0  0  0  0  0  0  0  0  0  0  0
   38.8770   75.8880   57.6240 C   0  0  0  0  0  0  0  0  0  0  0  0
   37.7740   75.2860   57.6870 O   0  0  0  0  0  0  0  0  0  0  0  0
   39.1760   76.4420   56.4180 N   0  0  0  0  0  0  0  0  0  0  0  0
   40.3040   77.1120   56.1890 C   0  0  0  0  0  0  0  0  0  0  0  0
   40.6150   77.6350   55.0920 O   0  0  0  0  0  0  0  0  0  0  0  0
   38.5010   76.3520   55.6040 H   0  0  0  0  0  0  0  0  0  0  0  0
  1 20  1  0  0  0  0
  1  7  1  0  0  0  0
  2  1  1  0  0  0  0
  3  1  1  0  0  0  0
  4 13  1  0  0  0  0
  4  5  1  0  0  0  0
  5  9  1  0  0  0  0
  6  5  2  0  0  0  0
  6 10  1  0  0  0  0
  7  6  1  0  0  0  0
  8  7  1  0  0  0  0
  8  4  2  0  0  0  0
 11 17  1  0  0  0  0
 12 11  1  0  0  0  0
 12 18  1  0  0  0  0
 13 12  2  0  0  0  0
 14 15  2  0  0  0  0
 14 13  1  0  0  0  0
 15 16  1  0  0  0  0
 16 11  2  0  0  0  0
 19 15  1  0  0  0  0
 22 20  1  0  0  0  0
 22 21  2  1  0  0  0
 23 22  1  0  0  0  0
 24 23  1  0  0  0  0
 25 22  1  0  0  0  0
 26 27  1  0  0  0  0
 27 28  1  0  0  0  0
 28 29  2  0  0  0  0
 29 25  1  0  0  0  0
 30 31  2  0  0  0  0
 30 29  1  0  0  0  0
 32 30  1  0  0  0  0
 33 32  1  0  0  0  0
 33 27  1  0  0  0  0
 34 33  2  0  0  0  0
 35 32  1  0  0  0  0
M  END
>  <minimizedAffinity>
-5.73895597

$$$$

 OpenBabel03212520283D

 35 37  0  0  0  0  0  0  0  0999 V2000
   41.4650   72.1560   59.0910 C   0  0  0  0  0  0  0  0  0  0  0  0
   41.9400   73.1420   59.2750 H   0  0  0  0  0  0  0  0  0  0  0  0
   42.2060   71.5370   58.5280 H   0  0  0  0  0  0  0  0  0  0  0  0
   38.9660   73.2220   56.7880 C   0  0  0  0  0  0  0  0  0  0  0  0
   38.3740   71.9940   57.1420 C   0  0  0  0  0  0  0  0  0  0  0  0
   39.3000   71.4910   58.0610 C   0  0  0  0  0  0  0  0  0  0  0  0
   40.3330   72.3630   58.2160 N   0  0  0  0  0  0  0  0  0  0  0  0
   40.0980   73.3990   57.4310 N   0  0  0  0  0  0  0  0  0  0  0  0
   37.4550   71.5200   56.8210 H   0  0  0  0  0  0  0  0  0  0  0  0
   39.1320   70.5250   58.5360 H   0  0  0  0  0  0  0  0  0  0  0  0
   38.3410   75.1660   53.6670 C   0  0  0  0  0  0  0  0  0  0  0  0
   38.9080   74.2830   54.5760 C   0  0  0  0  0  0  0  0  0  0  0  0
   38.3750   74.1420   55.8390 C   0  0  0  0  0  0  0  0  0  0  0  0
   37.2950   74.8710   56.1800 N   0  0  0  0  0  0  0  0  0  0  0  0
   36.7630   75.7330   55.2530 C   0  0  0  0  0  0  0  0  0  0  0  0
   37.2790   75.8730   54.0250 N   0  0  0  0  0  0  0  0  0  0  0  0
   38.7490   75.2930   52.6590 H   0  0  0  0  0  0  0  0  0  0  0  0
   39.7670   73.7120   54.2870 H   0  0  0  0  0  0  0  0  0  0  0  0
   35.9040   76.2950   55.5650 H   0  0  0  0  0  0  0  0  0  0  0  0
   41.1050   71.6080   60.2860 O   0  0  0  0  0  0  0  0  0  0  0  0
   42.8270   73.0340   61.6220 O   0  0  0  0  0  0  0  0  0  0  0  0
   41.3650   72.5820   61.6280 P   0  0  2  0  0  0  0  0  0  0  0  0
   41.1210   71.6910   63.0200 O   0  0  0  0  0  0  0  0  0  0  0  0
   40.8200   70.7710   62.8560 H   0  0  0  0  0  0  0  0  0  0  0  0
   40.3780   73.9320   61.6420 O   0  0  0  0  0  0  0  0  0  0  0  0
   41.3370   77.0800   58.6040 H   0  0  0  0  0  0  0  0  0  0  0  0
   40.5680   76.4980   59.0080 N   0  0  0  0  0  0  0  0  0  0  0  0
   41.0250   75.6850   59.9790 C   0  0  0  0  0  3  0  0  0  0  0  0
   40.1540   74.8390   60.6350 C   0  0  0  0  0  0  0  0  0  0  0  0
   38.8100   74.8730   60.2440 C   0  0  0  0  0  0  0  0  0  0  0  0
   37.8890   74.1710   60.7350 O   0  0  0  0  0  0  0  0  0  0  0  0
   38.4330   75.7260   59.2530 N   0  0  0  0  0  0  0  0  0  0  0  0
   39.2890   76.5360   58.6320 C   0  0  0  0  0  0  0  0  0  0  0  0
   38.9800   77.3350   57.7150 O   0  0  0  0  0  0  0  0  0  0  0  0
   37.4210   75.7700   58.9400 H   0  0  0  0  0  0  0  0  0  0  0  0
  1  2  1  0  0  0  0
  1 20  1  0  0  0  0
  3  1  1  0  0  0  0
  4  5  1  0  0  0  0
  4  8  2  0  0  0  0
  5  6  2  0  0  0  0
  6  7  1  0  0  0  0
  6 10  1  0  0  0  0
  7  1  1  0  0  0  0
  8  7  1  0  0  0  0
  9  5  1  0  0  0  0
 11 16  2  0  0  0  0
 11 12  1  0  0  0  0
 12 13  2  0  0  0  0
 13 14  1  0  0  0  0
 13  4  1  0  0  0  0
 15 19  1  0  0  0  0
 15 14  2  0  0  0  0
 16 15  1  0  0  0  0
 17 11  1  0  0  0  0
 18 12  1  0  0  0  0
 20 22  1  0  0  0  0
 22 21  2  6  0  0  0
 22 25  1  0  0  0  0
 22 23  1  0  0  0  0
 24 23  1  0  0  0  0
 26 27  1  0  0  0  0
 27 28  1  0  0  0  0
 28 29  2  0  0  0  0
 29 25  1  0  0  0  0
 30 29  1  0  0  0  0
 30 31  2  0  0  0  0
 32 30  1  0  0  0  0
 33 27  1  0  0  0  0
 33 32  1  0  0  0  0
 34 33  2  0  0  0  0
 35 32  1  0  0  0  0
M  END
>  <minimizedAffinity>
-5.70516729

$$$$

 OpenBabel03212520283D

 35 37  0  0  0  0  0  0  0  0999 V2000
   41.3740   76.1500   58.7110 C   0  0  0  0  0  0  0  0  0  0  0  0
   42.0770   76.8880   58.2730 H   0  0  0  0  0  0  0  0  0  0  0  0
   40.7970   76.6810   59.5070 H   0  0  0  0  0  0  0  0  0  0  0  0
   42.7290   73.3770   60.4890 C   0  0  0  0  0  0  0  0  0  0  0  0
   43.9520   73.9560   60.0980 C   0  0  0  0  0  0  0  0  0  0  0  0
   43.5150   75.0740   59.3790 C   0  0  0  0  0  0  0  0  0  0  0  0
   42.1550   75.1250   59.3650 N   0  0  0  0  0  0  0  0  0  0  0  0
   41.7140   74.0830   60.0460 N   0  0  0  0  0  0  0  0  0  0  0  0
   44.9770   73.6600   60.2760 H   0  0  0  0  0  0  0  0  0  0  0  0
   44.2380   75.7530   58.9290 H   0  0  0  0  0  0  0  0  0  0  0  0
   41.7310   70.9400   63.1280 C   0  0  0  0  0  0  0  0  0  0  0  0
   41.8120   72.1020   62.3740 C   0  0  0  0  0  0  0  0  0  0  0  0
   42.6430   72.1660   61.2770 C   0  0  0  0  0  0  0  0  0  0  0  0
   43.3750   71.0850   60.9450 N   0  0  0  0  0  0  0  0  0  0  0  0
   43.2670   69.9550   61.7160 C   0  0  0  0  0  0  0  0  0  0  0  0
   42.4600   69.8880   62.7830 N   0  0  0  0  0  0  0  0  0  0  0  0
   41.0770   70.8670   64.0040 H   0  0  0  0  0  0  0  0  0  0  0  0
   41.2220   72.9510   62.6530 H   0  0  0  0  0  0  0  0  0  0  0  0
   43.8670   69.1160   61.4170 H   0  0  0  0  0  0  0  0  0  0  0  0
   40.5830   75.6480   57.7200 O   0  0  0  0  0  0  0  0  0  0  0  0
   38.3990   77.0650   57.6850 O   0  0  0  0  0  0  0  0  0  0  0  0
   38.9350   75.6760   58.0350 P   0  0  2  0  0  0  0  0  0  0  0  0
   38.6750   75.4340   59.6680 O   0  0  0  0  0  0  0  0  0  0  0  0
   39.4940   75.2650   60.1810 H   0  0  0  0  0  0  0  0  0  0  0  0
   38.0940   74.5300   57.1540 O   0  0  0  0  0  0  0  0  0  0  0  0
   39.6570   73.2400   53.1590 H   0  0  0  0  0  0  0  0  0  0  0  0
   39.3980   72.9070   54.1160 N   0  0  0  0  0  0  0  0  0  0  0  0
   38.9600   73.9200   54.8860 C   0  0  0  0  0  3  0  0  0  0  0  0
   38.5690   73.6760   56.1880 C   0  0  0  0  0  0  0  0  0  0  0  0
   38.6550   72.3550   56.6460 C   0  0  0  0  0  0  0  0  0  0  0  0
   38.3410   71.9610   57.7980 O   0  0  0  0  0  0  0  0  0  0  0  0
   39.1090   71.3920   55.7990 N   0  0  0  0  0  0  0  0  0  0  0  0
   39.4810   71.6480   54.5460 C   0  0  0  0  0  0  0  0  0  0  0  0
   39.9050   70.7870   53.7370 O   0  0  0  0  0  0  0  0  0  0  0  0
   39.1820   70.3850   56.1230 H   0  0  0  0  0  0  0  0  0  0  0  0
  1  7  1  0  0  0  0
  1  3  1  0  0  0  0
  2  1  1  0  0  0  0
  4 13  1  0  0  0  0
  5  9  1  0  0  0  0
  5  4  1  0  0  0  0
  6  5  2  0  0  0  0
  7  6  1  0  0  0  0
  7  8  1  0  0  0  0
  8  4  2  0  0  0  0
 10  6  1  0  0  0  0
 11 17  1  0  0  0  0
 12 18  1  0  0  0  0
 12 11  2  0  0  0  0
 13 12  1  0  0  0  0
 14 13  2  0  0  0  0
 14 15  1  0  0  0  0
 15 16  2  0  0  0  0
 16 11  1  0  0  0  0
 19 15  1  0  0  0  0
 20 22  1  0  0  0  0
 20  1  1  0  0  0  0
 22 21  2  6  0  0  0
 22 23  1  0  0  0  0
 23 24  1  0  0  0  0
 25 22  1  0  0  0  0
 26 27  1  0  0  0  0
 27 33  1  0  0  0  0
 27 28  1  0  0  0  0
 28 29  2  0  0  0  0
 29 30  1  0  0  0  0
 29 25  1  0  0  0  0
 30 31  2  0  0  0  0
 32 35  1  0  0  0  0
 32 30  1  0  0  0  0
 33 32  1  0  0  0  0
 34 33  2  0  0  0  0
M  END
>  <minimizedAffinity>
-5.69404697

$$$$

 OpenBabel03212520283D

 35 37  0  0  0  0  0  0  0  0999 V2000
   40.8620   73.1320   59.4600 C   0  0  0  0  0  0  0  0  0  0  0  0
   40.0560   72.6290   58.8880 H   0  0  0  0  0  0  0  0  0  0  0  0
   41.7670   73.1470   58.8050 H   0  0  0  0  0  0  0  0  0  0  0  0
   41.8390   70.6670   61.8380 C   0  0  0  0  0  0  0  0  0  0  0  0
   41.3980   71.6400   62.7570 C   0  0  0  0  0  0  0  0  0  0  0  0
   40.9870   72.6680   61.9010 C   0  0  0  0  0  0  0  0  0  0  0  0
   41.1790   72.3060   60.6030 N   0  0  0  0  0  0  0  0  0  0  0  0
   41.6960   71.0910   60.6030 N   0  0  0  0  0  0  0  0  0  0  0  0
   41.3640   71.6440   63.8380 H   0  0  0  0  0  0  0  0  0  0  0  0
   40.5810   73.5920   62.3100 H   0  0  0  0  0  0  0  0  0  0  0  0
   42.3260   66.9840   62.1560 C   0  0  0  0  0  0  0  0  0  0  0  0
   41.8140   68.2150   61.7700 C   0  0  0  0  0  0  0  0  0  0  0  0
   42.3730   69.3830   62.2400 C   0  0  0  0  0  0  0  0  0  0  0  0
   43.4240   69.3150   63.0800 N   0  0  0  0  0  0  0  0  0  0  0  0
   43.9010   68.0800   63.4380 C   0  0  0  0  0  0  0  0  0  0  0  0
   43.3610   66.9420   62.9830 N   0  0  0  0  0  0  0  0  0  0  0  0
   41.8970   66.0430   61.7940 H   0  0  0  0  0  0  0  0  0  0  0  0
   40.9770   68.2490   61.1010 H   0  0  0  0  0  0  0  0  0  0  0  0
   44.7390   68.0700   64.1090 H   0  0  0  0  0  0  0  0  0  0  0  0
   40.4390   74.3770   59.8200 O   0  0  0  0  0  0  0  0  0  0  0  0
   38.7940   76.2250   59.0050 O   0  0  0  0  0  0  0  0  0  0  0  0
   38.8580   74.7470   59.3970 P   0  0  2  0  0  0  0  0  0  0  0  0
   37.8620   74.5350   60.7220 O   0  0  0  0  0  0  0  0  0  0  0  0
   38.3230   74.1870   61.5150 H   0  0  0  0  0  0  0  0  0  0  0  0
   38.3020   73.8200   58.1200 O   0  0  0  0  0  0  0  0  0  0  0  0
   35.5310   75.5950   55.0820 H   0  0  0  0  0  0  0  0  0  0  0  0
   36.4700   75.1580   55.2190 N   0  0  0  0  0  0  0  0  0  0  0  0
   36.6770   74.8310   56.5080 C   0  0  0  0  0  3  0  0  0  0  0  0
   37.8650   74.2380   56.8870 C   0  0  0  0  0  0  0  0  0  0  0  0
   38.8130   74.0060   55.8830 C   0  0  0  0  0  0  0  0  0  0  0  0
   39.9420   73.4780   56.0550 O   0  0  0  0  0  0  0  0  0  0  0  0
   38.5220   74.3670   54.6040 N   0  0  0  0  0  0  0  0  0  0  0  0
   37.3700   74.9380   54.2590 C   0  0  0  0  0  0  0  0  0  0  0  0
   37.0660   75.2850   53.0920 O   0  0  0  0  0  0  0  0  0  0  0  0
   39.2250   74.2010   53.8270 H   0  0  0  0  0  0  0  0  0  0  0  0
  1 20  1  0  0  0  0
  1  7  1  0  0  0  0
  2  1  1  0  0  0  0
  3  1  1  0  0  0  0
  4 13  1  0  0  0  0
  4  5  1  0  0  0  0
  5  9  1  0  0  0  0
  6 10  1  0  0  0  0
  6  5  2  0  0  0  0
  7  8  1  0  0  0  0
  7  6  1  0  0  0  0
  8  4  2  0  0  0  0
 11 16  1  0  0  0  0
 12 11  2  0  0  0  0
 12 13  1  0  0  0  0
 13 14  2  0  0  0  0
 14 15  1  0  0  0  0
 15 19  1  0  0  0  0
 16 15  2  0  0  0  0
 17 11  1  0  0  0  0
 18 12  1  0  0  0  0
 22 21  2  6  0  0  0
 22 20  1  0  0  0  0
 22 23  1  0  0  0  0
 23 24  1  0  0  0  0
 25 22  1  0  0  0  0
 26 27  1  0  0  0  0
 27 28  1  0  0  0  0
 28 29  2  0  0  0  0
 29 25  1  0  0  0  0
 30 31  2  0  0  0  0
 30 29  1  0  0  0  0
 32 30  1  0  0  0  0
 33 32  1  0  0  0  0
 33 27  1  0  0  0  0
 34 33  2  0  0  0  0
 35 32  1  0  0  0  0
M  END
>  <minimizedAffinity>
-5.67414999

$$$$

 OpenBabel03212520283D

 35 37  0  0  0  0  0  0  0  0999 V2000
   40.9380   73.7520   55.3190 C   0  0  0  0  0  0  0  0  0  0  0  0
   41.3840   72.7960   54.9760 H   0  0  0  0  0  0  0  0  0  0  0  0
   41.3800   74.5630   54.6900 H   0  0  0  0  0  0  0  0  0  0  0  0
   41.6820   73.7860   58.8020 C   0  0  0  0  0  0  0  0  0  0  0  0
   42.3850   74.9570   58.4550 C   0  0  0  0  0  0  0  0  0  0  0  0
   42.1470   75.0290   57.0780 C   0  0  0  0  0  0  0  0  0  0  0  0
   41.3720   73.9840   56.6780 N   0  0  0  0  0  0  0  0  0  0  0  0
   41.1100   73.2540   57.7460 N   0  0  0  0  0  0  0  0  0  0  0  0
   42.9660   75.6490   59.0500 H   0  0  0  0  0  0  0  0  0  0  0  0
   42.5670   75.8450   56.4920 H   0  0  0  0  0  0  0  0  0  0  0  0
   42.7110   72.5840   62.1780 C   0  0  0  0  0  0  0  0  0  0  0  0
   42.7720   73.0790   60.8830 C   0  0  0  0  0  0  0  0  0  0  0  0
   41.6190   73.2710   60.1530 C   0  0  0  0  0  0  0  0  0  0  0  0
   40.4310   72.9720   60.7140 N   0  0  0  0  0  0  0  0  0  0  0  0
   40.4130   72.4860   61.9970 C   0  0  0  0  0  0  0  0  0  0  0  0
   41.5310   72.2980   62.7090 N   0  0  0  0  0  0  0  0  0  0  0  0
   43.6150   72.4240   62.7760 H   0  0  0  0  0  0  0  0  0  0  0  0
   43.7260   73.3100   60.4540 H   0  0  0  0  0  0  0  0  0  0  0  0
   39.4460   72.2610   62.4060 H   0  0  0  0  0  0  0  0  0  0  0  0
   39.5810   73.6720   55.2130 O   0  0  0  0  0  0  0  0  0  0  0  0
   37.8040   74.9220   53.7770 O   0  0  0  0  0  0  0  0  0  0  0  0
   38.7980   75.1280   54.9230 P   0  0  2  0  0  0  0  0  0  0  0  0
   39.9100   76.2700   54.4240 O   0  0  0  0  0  0  0  0  0  0  0  0
   40.8370   75.9490   54.4230 H   0  0  0  0  0  0  0  0  0  0  0  0
   37.9730   75.6910   56.2640 O   0  0  0  0  0  0  0  0  0  0  0  0
   40.0890   78.2120   59.3030 H   0  0  0  0  0  0  0  0  0  0  0  0
   39.5750   77.3140   59.1570 N   0  0  0  0  0  0  0  0  0  0  0  0
   39.1760   77.1790   57.8790 C   0  0  0  0  0  3  0  0  0  0  0  0
   38.4790   76.0520   57.4900 C   0  0  0  0  0  0  0  0  0  0  0  0
   38.2190   75.0890   58.4730 C   0  0  0  0  0  0  0  0  0  0  0  0
   37.6000   74.0090   58.2900 O   0  0  0  0  0  0  0  0  0  0  0  0
   38.6600   75.3060   59.7410 N   0  0  0  0  0  0  0  0  0  0  0  0
   39.3310   76.4000   60.0970 C   0  0  0  0  0  0  0  0  0  0  0  0
   39.7530   76.6350   61.2550 O   0  0  0  0  0  0  0  0  0  0  0  0
   38.4750   74.5900   60.5030 H   0  0  0  0  0  0  0  0  0  0  0  0
  1  7  1  0  0  0  0
  2  1  1  0  0  0  0
  3  1  1  0  0  0  0
  4 13  1  0  0  0  0
  5  4  1  0  0  0  0
  5  9  1  0  0  0  0
  6  5  2  0  0  0  0
  7  6  1  0  0  0  0
  7  8  1  0  0  0  0
  8  4  2  0  0  0  0
 10  6  1  0  0  0  0
 11 16  1  0  0  0  0
 11 17  1  0  0  0  0
 12 11  2  0  0  0  0
 13 14  2  0  0  0  0
 13 12  1  0  0  0  0
 14 15  1  0  0  0  0
 15 19  1  0  0  0  0
 15 16  2  0  0  0  0
 18 12  1  0  0  0  0
 20  1  1  0  0  0  0
 22 21  2  6  0  0  0
 22 20  1  0  0  0  0
 22 25  1  0  0  0  0
 23 22  1  0  0  0  0
 24 23  1  0  0  0  0
 25 29  1  0  0  0  0
 27 26  1  0  0  0  0
 27 33  1  0  0  0  0
 28 27  1  0  0  0  0
 29 28  2  0  0  0  0
 29 30  1  0  0  0  0
 30 32  1  0  0  0  0
 31 30  2  0  0  0  0
 32 33  1  0  0  0  0
 32 35  1  0  0  0  0
 33 34  2  0  0  0  0
M  END
>  <minimizedAffinity>
-5.3480258

$$$$

 OpenBabel03212520283D

 35 37  0  0  0  0  0  0  0  0999 V2000
   42.7810   72.6350   61.1740 C   0  0  0  0  0  0  0  0  0  0  0  0
   43.2950   73.4370   61.7430 H   0  0  0  0  0  0  0  0  0  0  0  0
   43.3330   72.5130   60.2100 H   0  0  0  0  0  0  0  0  0  0  0  0
   39.7900   74.0430   59.8460 C   0  0  0  0  0  0  0  0  0  0  0  0
   39.2220   73.4630   60.9980 C   0  0  0  0  0  0  0  0  0  0  0  0
   40.3410   72.8740   61.5970 C   0  0  0  0  0  0  0  0  0  0  0  0
   41.4530   73.1020   60.8460 N   0  0  0  0  0  0  0  0  0  0  0  0
   41.0820   73.8120   59.7950 N   0  0  0  0  0  0  0  0  0  0  0  0
   38.2050   73.4470   61.3670 H   0  0  0  0  0  0  0  0  0  0  0  0
   40.2380   72.3290   62.5340 H   0  0  0  0  0  0  0  0  0  0  0  0
   37.2910   74.8850   57.2110 C   0  0  0  0  0  0  0  0  0  0  0  0
   38.0280   74.1700   58.1440 C   0  0  0  0  0  0  0  0  0  0  0  0
   39.0210   74.7870   58.8730 C   0  0  0  0  0  0  0  0  0  0  0  0
   39.2670   76.0960   58.6670 N   0  0  0  0  0  0  0  0  0  0  0  0
   38.5170   76.7680   57.7350 C   0  0  0  0  0  0  0  0  0  0  0  0
   37.5510   76.1710   57.0250 N   0  0  0  0  0  0  0  0  0  0  0  0
   36.4970   74.4130   56.6210 H   0  0  0  0  0  0  0  0  0  0  0  0
   37.8170   73.1300   58.2940 H   0  0  0  0  0  0  0  0  0  0  0  0
   38.7450   77.8080   57.6020 H   0  0  0  0  0  0  0  0  0  0  0  0
   42.7610   71.4990   61.9280 O   0  0  0  0  0  0  0  0  0  0  0  0
   43.4440   68.9920   62.1010 O   0  0  0  0  0  0  0  0  0  0  0  0
   43.0680   70.0780   61.0900 P   0  0  2  0  0  0  0  0  0  0  0  0
   44.3780   70.2980   60.0780 O   0  0  0  0  0  0  0  0  0  0  0  0
   44.7350   71.2130   60.0820 H   0  0  0  0  0  0  0  0  0  0  0  0
   41.7490   69.5600   60.2010 O   0  0  0  0  0  0  0  0  0  0  0  0
   41.3690   71.3870   56.1290 H   0  0  0  0  0  0  0  0  0  0  0  0
   41.3470   70.4870   56.6590 N   0  0  0  0  0  0  0  0  0  0  0  0
   41.5550   70.6850   57.9740 C   0  0  0  0  0  3  0  0  0  0  0  0
   41.5610   69.6110   58.8410 C   0  0  0  0  0  0  0  0  0  0  0  0
   41.3460   68.3420   58.2900 C   0  0  0  0  0  0  0  0  0  0  0  0
   41.3200   67.2620   58.9340 O   0  0  0  0  0  0  0  0  0  0  0  0
   41.1430   68.2310   56.9490 N   0  0  0  0  0  0  0  0  0  0  0  0
   41.1410   69.2800   56.1290 C   0  0  0  0  0  0  0  0  0  0  0  0
   40.9580   69.2180   54.8890 O   0  0  0  0  0  0  0  0  0  0  0  0
   40.9780   67.2800   56.5090 H   0  0  0  0  0  0  0  0  0  0  0  0
  1  2  1  0  0  0  0
  1 20  1  0  0  0  0
  3  1  1  0  0  0  0
  4  5  1  0  0  0  0
  5  9  1  0  0  0  0
  5  6  2  0  0  0  0
  6 10  1  0  0  0  0
  7  1  1  0  0  0  0
  7  6  1  0  0  0  0
  8  4  2  0  0  0  0
  8  7  1  0  0  0  0
 11 12  1  0  0  0  0
 12 18  1  0  0  0  0
 12 13  2  0  0  0  0
 13  4  1  0  0  0  0
 14 13  1  0  0  0  0
 15 14  2  0  0  0  0
 16 11  2  0  0  0  0
 16 15  1  0  0  0  0
 17 11  1  0  0  0  0
 19 15  1  0  0  0  0
 22 20  1  0  0  0  0
 22 21  2  1  0  0  0
 23 24  1  0  0  0  0
 23 22  1  0  0  0  0
 25 22  1  0  0  0  0
 26 27  1  0  0  0  0
 27 28  1  0  0  0  0
 28 29  2  0  0  0  0
 29 25  1  0  0  0  0
 30 29  1  0  0  0  0
 30 31  2  0  0  0  0
 32 30  1  0  0  0  0
 33 27  1  0  0  0  0
 33 32  1  0  0  0  0
 34 33  2  0  0  0  0
 35 32  1  0  0  0  0
M  END
>  <minimizedAffinity>
-5.29775572

$$$$

 OpenBabel03212520283D

 35 37  0  0  0  0  0  0  0  0999 V2000
   42.4780   70.3750   57.7150 C   0  0  0  0  0  0  0  0  0  0  0  0
   42.8490   71.3620   57.3690 H   0  0  0  0  0  0  0  0  0  0  0  0
   43.3700   69.7930   58.0550 H   0  0  0  0  0  0  0  0  0  0  0  0
   41.0140   69.2540   54.6680 C   0  0  0  0  0  0  0  0  0  0  0  0
   41.2810   67.9850   55.2180 C   0  0  0  0  0  0  0  0  0  0  0  0
   41.8690   68.3280   56.4400 C   0  0  0  0  0  0  0  0  0  0  0  0
   41.9290   69.6810   56.5720 N   0  0  0  0  0  0  0  0  0  0  0  0
   41.4040   70.2090   55.4820 N   0  0  0  0  0  0  0  0  0  0  0  0
   41.1010   66.9860   54.8420 H   0  0  0  0  0  0  0  0  0  0  0  0
   42.2000   67.5500   57.1260 H   0  0  0  0  0  0  0  0  0  0  0  0
   39.5560   68.5460   51.3100 C   0  0  0  0  0  0  0  0  0  0  0  0
   40.1540   68.3640   52.5490 C   0  0  0  0  0  0  0  0  0  0  0  0
   40.3910   69.4420   53.3750 C   0  0  0  0  0  0  0  0  0  0  0  0
   40.0350   70.6740   52.9620 N   0  0  0  0  0  0  0  0  0  0  0  0
   39.4470   70.8120   51.7300 C   0  0  0  0  0  0  0  0  0  0  0  0
   39.2150   69.7670   50.9250 N   0  0  0  0  0  0  0  0  0  0  0  0
   39.3580   67.7030   50.6380 H   0  0  0  0  0  0  0  0  0  0  0  0
   40.4290   67.3770   52.8600 H   0  0  0  0  0  0  0  0  0  0  0  0
   39.1790   71.8100   51.4400 H   0  0  0  0  0  0  0  0  0  0  0  0
   41.5550   70.5680   58.6990 O   0  0  0  0  0  0  0  0  0  0  0  0
   41.7740   73.0400   57.9070 O   0  0  0  0  0  0  0  0  0  0  0  0
   41.1610   72.1700   59.0070 P   0  0  2  0  0  0  0  0  0  0  0  0
   41.8400   72.6430   60.4580 O   0  0  0  0  0  0  0  0  0  0  0  0
   42.3120   71.9230   60.9300 H   0  0  0  0  0  0  0  0  0  0  0  0
   39.5090   72.4270   59.0470 O   0  0  0  0  0  0  0  0  0  0  0  0
   37.9980   76.5810   58.3200 H   0  0  0  0  0  0  0  0  0  0  0  0
   37.9360   75.5880   57.9990 N   0  0  0  0  0  0  0  0  0  0  0  0
   38.7320   74.7850   58.7280 C   0  0  0  0  0  3  0  0  0  0  0  0
   38.7850   73.4330   58.4540 C   0  0  0  0  0  0  0  0  0  0  0  0
   37.9870   72.9610   57.4040 C   0  0  0  0  0  0  0  0  0  0  0  0
   37.9160   71.7650   57.0230 O   0  0  0  0  0  0  0  0  0  0  0  0
   37.2100   73.8430   56.7180 N   0  0  0  0  0  0  0  0  0  0  0  0
   37.1730   75.1440   56.9990 C   0  0  0  0  0  0  0  0  0  0  0  0
   36.4710   75.9870   56.3900 O   0  0  0  0  0  0  0  0  0  0  0  0
   36.5980   73.5090   55.9190 H   0  0  0  0  0  0  0  0  0  0  0  0
  1  3  1  0  0  0  0
  1 20  1  0  0  0  0
  2  1  1  0  0  0  0
  4  5  1  0  0  0  0
  4  8  2  0  0  0  0
  5  6  2  0  0  0  0
  6  7  1  0  0  0  0
  6 10  1  0  0  0  0
  7  1  1  0  0  0  0
  8  7  1  0  0  0  0
  9  5  1  0  0  0  0
 11 12  1  0  0  0  0
 12 18  1  0  0  0  0
 12 13  2  0  0  0  0
 13  4  1  0  0  0  0
 14 13  1  0  0  0  0
 15 14  2  0  0  0  0
 16 11  2  0  0  0  0
 16 15  1  0  0  0  0
 17 11  1  0  0  0  0
 19 15  1  0  0  0  0
 20 22  1  0  0  0  0
 22 21  2  6  0  0  0
 22 25  1  0  0  0  0
 22 23  1  0  0  0  0
 23 24  1  0  0  0  0
 27 26  1  0  0  0  0
 27 28  1  0  0  0  0
 29 28  2  0  0  0  0
 29 25  1  0  0  0  0
 30 29  1  0  0  0  0
 31 30  2  0  0  0  0
 32 33  1  0  0  0  0
 32 30  1  0  0  0  0
 33 27  1  0  0  0  0
 34 33  2  0  0  0  0
 35 32  1  0  0  0  0
M  END
>  <minimizedAffinity>
-5.28683615

$$$$

 OpenBabel03212520283D

 35 37  0  0  0  0  0  0  0  0999 V2000
   41.6110   74.1720   59.9290 C   0  0  0  0  0  0  0  0  0  0  0  0
   41.6570   73.7850   58.8900 H   0  0  0  0  0  0  0  0  0  0  0  0
   42.5140   74.8150   60.0780 H   0  0  0  0  0  0  0  0  0  0  0  0
   42.3790   71.2020   61.7390 C   0  0  0  0  0  0  0  0  0  0  0  0
   41.3750   71.6850   62.6010 C   0  0  0  0  0  0  0  0  0  0  0  0
   41.0040   72.8730   61.9620 C   0  0  0  0  0  0  0  0  0  0  0  0
   41.7380   73.0480   60.8290 N   0  0  0  0  0  0  0  0  0  0  0  0
   42.5590   72.0190   60.7260 N   0  0  0  0  0  0  0  0  0  0  0  0
   40.9640   71.2870   63.5200 H   0  0  0  0  0  0  0  0  0  0  0  0
   40.2260   73.5040   62.3880 H   0  0  0  0  0  0  0  0  0  0  0  0
   43.7960   68.2040   63.4430 C   0  0  0  0  0  0  0  0  0  0  0  0
   43.1100   69.3890   63.2220 C   0  0  0  0  0  0  0  0  0  0  0  0
   43.0940   69.9650   61.9710 C   0  0  0  0  0  0  0  0  0  0  0  0
   43.7550   69.3620   60.9630 N   0  0  0  0  0  0  0  0  0  0  0  0
   44.4220   68.1910   61.2220 C   0  0  0  0  0  0  0  0  0  0  0  0
   44.4390   67.6280   62.4370 N   0  0  0  0  0  0  0  0  0  0  0  0
   43.8210   67.7290   64.4300 H   0  0  0  0  0  0  0  0  0  0  0  0
   42.5910   69.8540   64.0360 H   0  0  0  0  0  0  0  0  0  0  0  0
   44.9340   67.7420   60.3920 H   0  0  0  0  0  0  0  0  0  0  0  0
   40.4390   74.8460   60.1000 O   0  0  0  0  0  0  0  0  0  0  0  0
   40.7370   75.7220   57.6660 O   0  0  0  0  0  0  0  0  0  0  0  0
   39.6700   75.3160   58.6850 P   0  0  2  0  0  0  0  0  0  0  0  0
   38.7240   76.6610   58.9830 O   0  0  0  0  0  0  0  0  0  0  0  0
   38.7160   76.9400   59.9240 H   0  0  0  0  0  0  0  0  0  0  0  0
   38.7280   74.0980   58.0310 O   0  0  0  0  0  0  0  0  0  0  0  0
   39.1310   72.9990   53.7080 H   0  0  0  0  0  0  0  0  0  0  0  0
   39.2280   72.6430   54.6850 N   0  0  0  0  0  0  0  0  0  0  0  0
   38.9200   73.5920   55.5880 C   0  0  0  0  0  3  0  0  0  0  0  0
   38.9880   73.3090   56.9370 C   0  0  0  0  0  0  0  0  0  0  0  0
   39.3850   72.0170   57.3010 C   0  0  0  0  0  0  0  0  0  0  0  0
   39.5000   71.5930   58.4800 O   0  0  0  0  0  0  0  0  0  0  0  0
   39.6780   71.1170   56.3240 N   0  0  0  0  0  0  0  0  0  0  0  0
   39.6060   71.4100   55.0260 C   0  0  0  0  0  0  0  0  0  0  0  0
   39.8680   70.6080   54.0970 O   0  0  0  0  0  0  0  0  0  0  0  0
   39.9810   70.1320   56.5750 H   0  0  0  0  0  0  0  0  0  0  0  0
  1  3  1  0  0  0  0
  1 20  1  0  0  0  0
  1  7  1  0  0  0  0
  2  1  1  0  0  0  0
  4 13  1  0  0  0  0
  4  5  1  0  0  0  0
  5  9  1  0  0  0  0
  6 10  1  0  0  0  0
  6  5  2  0  0  0  0
  7  6  1  0  0  0  0
  8  7  1  0  0  0  0
  8  4  2  0  0  0  0
 11 17  1  0  0  0  0
 12 11  1  0  0  0  0
 12 18  1  0  0  0  0
 13 12  2  0  0  0  0
 14 15  2  0  0  0  0
 14 13  1  0  0  0  0
 15 16  1  0  0  0  0
 16 11  2  0  0  0  0
 19 15  1  0  0  0  0
 22 21  2  6  0  0  0
 22 23  1  0  0  0  0
 22 20  1  0  0  0  0
 23 24  1  0  0  0  0
 25 22  1  0  0  0  0
 26 27  1  0  0  0  0
 27 33  1  0  0  0  0
 27 28  1  0  0  0  0
 28 29  2  0  0  0  0
 29 30  1  0  0  0  0
 29 25  1  0  0  0  0
 30 31  2  0  0  0  0
 32 35  1  0  0  0  0
 32 30  1  0  0  0  0
 33 32  1  0  0  0  0
 34 33  2  0  0  0  0
M  END
>  <minimizedAffinity>
-5.28198814

$$$$
