
 OpenBabel03212520163D

 33 35  0  0  0  0  0  0  0  0999 V2000
   42.1710   84.0170   58.3430 Cl  0  0  0  0  0  0  0  0  0  0  0  0
   41.2260   82.5420   58.1960 C   0  0  0  0  0  0  0  0  0  0  0  0
   40.6900   81.8780   59.2810 C   0  0  0  0  0  0  0  0  0  0  0  0
   39.9740   80.7350   58.9880 C   0  0  0  0  0  0  0  0  0  0  0  0
   39.7520   80.2070   57.7420 C   0  0  0  0  0  0  0  0  0  0  0  0
   40.3060   80.9020   56.6900 C   0  0  0  0  0  0  0  0  0  0  0  0
   40.0920   80.3280   55.0420 Cl  0  0  0  0  0  0  0  0  0  0  0  0
   41.0420   82.0700   56.9260 C   0  0  0  0  0  0  0  0  0  0  0  0
   39.5460   80.2010   59.8330 H   0  0  0  0  0  0  0  0  0  0  0  0
   39.1870   79.3150   57.5820 H   0  0  0  0  0  0  0  0  0  0  0  0
   41.9700   82.1640   61.4540 C   0  0  0  0  0  0  0  0  0  0  0  0
   40.9060   82.4060   60.5880 C   0  0  0  0  0  0  0  0  0  0  0  0
   39.9030   83.2780   61.0390 C   0  0  0  0  0  0  0  0  0  0  0  0
   40.0230   83.8300   62.2740 N   0  0  0  0  0  0  0  0  0  0  0  0
   41.0700   83.5680   63.0780 C   0  0  0  0  0  0  0  0  0  0  0  0
   42.0430   82.7310   62.6620 N   0  0  0  0  0  0  0  0  0  0  0  0
   42.7140   81.4900   61.0680 H   0  0  0  0  0  0  0  0  0  0  0  0
   39.0270   83.5450   60.4610 H   0  0  0  0  0  0  0  0  0  0  0  0
   41.0550   84.2500   64.3980 C   0  0  0  0  0  0  0  0  0  0  0  0
   40.7650   85.5920   64.2850 F   0  0  0  0  0  0  0  0  0  0  0  0
   40.1150   83.6640   65.2180 F   0  0  0  0  0  0  0  0  0  0  0  0
   42.3110   84.2170   64.9970 F   0  0  0  0  0  0  0  0  0  0  0  0
   41.5620   82.7040   55.8120 O   0  0  0  0  0  0  0  0  0  0  0  0
   45.9580   81.6060   55.5620 H   0  0  0  0  0  0  0  0  0  0  0  0
   45.0730   81.8660   55.0640 N   0  0  0  0  0  0  0  0  0  0  0  0
   43.9810   82.0890   55.8170 C   0  0  0  0  0  3  0  0  0  0  0  0
   42.7760   82.4380   55.2250 C   0  0  0  0  0  0  0  0  0  0  0  0
   42.7520   82.5440   53.8310 C   0  0  0  0  0  0  0  0  0  0  0  0
   41.7460   82.8480   53.1760 O   0  0  0  0  0  0  0  0  0  0  0  0
   43.8810   82.3090   53.1300 N   0  0  0  0  0  0  0  0  0  0  0  0
   45.0420   81.9720   53.7150 C   0  0  0  0  0  0  0  0  0  0  0  0
   46.0980   81.7490   53.0880 O   0  0  0  0  0  0  0  0  0  0  0  0
   43.9440   82.3680   52.0950 H   0  0  0  0  0  0  0  0  0  0  0  0
  2  1  1  0  0  0  0
  2  3  1  0  0  0  0
  3 12  1  0  0  0  0
  4  3  2  0  0  0  0
  4  9  1  0  0  0  0
  5  4  1  0  0  0  0
  6  8  1  0  0  0  0
  6  5  2  0  0  0  0
  7  6  1  0  0  0  0
  8  2  2  0  0  0  0
 10  5  1  0  0  0  0
 11 16  1  0  0  0  0
 12 13  1  0  0  0  0
 12 11  2  0  0  0  0
 13 14  2  0  0  0  0
 14 15  1  0  0  0  0
 15 19  1  0  0  0  0
 16 15  2  0  0  0  0
 17 11  1  0  0  0  0
 18 13  1  0  0  0  0
 19 22  1  0  0  0  0
 19 21  1  0  0  0  0
 20 19  1  0  0  0  0
 23  8  1  0  0  0  0
 25 24  1  0  0  0  0
 25 26  1  0  0  0  0
 27 23  1  0  0  0  0
 27 26  2  0  0  0  0
 28 27  1  0  0  0  0
 29 28  2  0  0  0  0
 30 31  1  0  0  0  0
 30 28  1  0  0  0  0
 31 25  1  0  0  0  0
 32 31  2  0  0  0  0
 33 30  1  0  0  0  0
M  END
>  <minimizedAffinity>
-5.35058498

>  <minimizedRMSD>
0.448602557

$$$$
