
 OpenBabel03212520183D

 35 37  0  0  0  0  0  0  0  0999 V2000
   43.1520   83.7410   58.6350 Cl  0  0  0  0  0  0  0  0  0  0  0  0
   41.8660   82.6230   58.2600 C   0  0  0  0  0  0  0  0  0  0  0  0
   40.9510   82.1730   59.1970 C   0  0  0  0  0  0  0  0  0  0  0  0
   39.9970   81.2890   58.7320 C   0  0  0  0  0  0  0  0  0  0  0  0
   39.8650   80.8160   57.4470 C   0  0  0  0  0  0  0  0  0  0  0  0
   40.7780   81.2780   56.5530 C   0  0  0  0  0  0  0  0  0  0  0  0
   40.7300   80.7560   54.8750 Cl  0  0  0  0  0  0  0  0  0  0  0  0
   41.7650   82.1700   56.9580 C   0  0  0  0  0  0  0  0  0  0  0  0
   39.2920   80.9590   59.5120 H   0  0  0  0  0  0  0  0  0  0  0  0
   39.0760   80.1220   57.1880 H   0  0  0  0  0  0  0  0  0  0  0  0
   41.9050   82.1210   61.5500 C   0  0  0  0  0  0  0  0  0  0  0  0
   41.0550   82.6390   60.5360 C   0  0  0  0  0  0  0  0  0  0  0  0
   40.2470   83.6970   60.8730 C   0  0  0  0  0  0  0  0  0  0  0  0
   40.3300   84.1620   62.1520 N   0  0  0  0  0  0  0  0  0  0  0  0
   41.1400   83.6550   63.0900 C   0  0  0  0  0  0  0  0  0  0  0  0
   41.9500   82.6070   62.7840 N   0  0  0  0  0  0  0  0  0  0  0  0
   42.5090   81.2880   61.2080 H   0  0  0  0  0  0  0  0  0  0  0  0
   39.5580   84.1860   60.2060 H   0  0  0  0  0  0  0  0  0  0  0  0
   41.0720   84.3100   64.4180 C   0  0  0  0  0  0  0  0  0  0  0  0
   40.7500   85.6490   64.3230 F   0  0  0  0  0  0  0  0  0  0  0  0
   40.1220   83.6890   65.2110 F   0  0  0  0  0  0  0  0  0  0  0  0
   42.3150   84.2650   65.0560 F   0  0  0  0  0  0  0  0  0  0  0  0
   42.6840   82.6190   56.0080 O   0  0  0  0  0  0  0  0  0  0  0  0
   42.5040   83.7790   55.2350 C   0  0  0  0  0  0  0  0  0  0  0  0
   41.6640   83.5720   54.5310 H   0  0  0  0  0  0  0  0  0  0  0  0
   42.2020   84.6010   55.9150 H   0  0  0  0  0  0  0  0  0  0  0  0
   42.1260   83.1330   52.1780 Br  0  0  0  0  0  0  0  0  0  0  0  0
   43.6280   83.9400   53.0700 C   0  0  0  0  0  0  0  0  0  0  0  0
   43.6620   84.1690   54.4440 C   0  0  0  0  0  0  0  0  0  0  0  0
   44.7700   84.7520   55.0190 C   0  0  0  0  0  0  0  0  0  0  0  0
   44.8150   84.9380   56.0820 H   0  0  0  0  0  0  0  0  0  0  0  0
   45.8660   85.1190   54.2470 C   0  0  0  0  0  0  0  0  0  0  0  0
   46.7740   85.5830   54.6360 H   0  0  0  0  0  0  0  0  0  0  0  0
   45.8780   84.9100   52.8750 C   0  0  0  0  0  3  0  0  0  0  0  0
   44.7490   84.3250   52.3400 C   0  0  0  0  0  3  0  0  0  0  0  0
  2  1  1  0  0  0  0
  2  3  1  0  0  0  0
  3 12  1  0  0  0  0
  4  3  2  0  0  0  0
  4  9  1  0  0  0  0
  5  4  1  0  0  0  0
  6  8  1  0  0  0  0
  6  5  2  0  0  0  0
  7  6  1  0  0  0  0
  8  2  2  0  0  0  0
 10  5  1  0  0  0  0
 11 16  1  0  0  0  0
 12 13  1  0  0  0  0
 12 11  2  0  0  0  0
 13 14  2  0  0  0  0
 14 15  1  0  0  0  0
 15 19  1  0  0  0  0
 16 15  2  0  0  0  0
 17 11  1  0  0  0  0
 18 13  1  0  0  0  0
 19 22  1  0  0  0  0
 19 21  1  0  0  0  0
 20 19  1  0  0  0  0
 23  8  1  0  0  0  0
 24 26  1  0  0  0  0
 24 23  1  0  0  0  0
 25 24  1  0  0  0  0
 27 28  1  0  0  0  0
 28 29  1  0  0  0  0
 29 30  2  0  0  0  0
 29 24  1  0  0  0  0
 30 31  1  0  0  0  0
 32 33  1  0  0  0  0
 32 30  1  0  0  0  0
 34 32  2  0  0  0  0
 35 34  1  0  0  0  0
 35 28  2  0  0  0  0
M  END
>  <minimizedAffinity>
-4.93246651

>  <minimizedRMSD>
0.385032356

$$$$
