
 OpenBabel03212520273D

 28 30  0  0  0  0  0  0  0  0999 V2000
   42.8360   85.0700   60.9900 C   0  0  0  0  0  0  0  0  0  0  0  0
   43.7440   85.7990   61.7300 C   0  0  0  0  0  0  0  0  0  0  0  0
   44.4910   86.4160   60.6970 C   0  0  0  0  0  0  0  0  0  0  0  0
   44.0150   86.0440   59.4710 N   0  0  0  0  0  0  0  0  0  0  0  0
   43.0010   85.2190   59.6730 N   0  0  0  0  0  0  0  0  0  0  0  0
   43.8970   85.9110   62.7780 H   0  0  0  0  0  0  0  0  0  0  0  0
   45.3360   87.1010   60.8360 H   0  0  0  0  0  0  0  0  0  0  0  0
   41.1000   82.5180   63.1020 C   0  0  0  0  0  0  0  0  0  0  0  0
   42.0990   83.3060   62.5600 C   0  0  0  0  0  0  0  0  0  0  0  0
   41.7960   84.2240   61.5740 C   0  0  0  0  0  0  0  0  0  0  0  0
   40.5000   84.3400   61.1470 N   0  0  0  0  0  0  0  0  0  0  0  0
   39.5460   83.5400   61.7110 C   0  0  0  0  0  0  0  0  0  0  0  0
   39.8510   82.6430   62.6750 N   0  0  0  0  0  0  0  0  0  0  0  0
   41.4130   81.8190   63.8720 H   0  0  0  0  0  0  0  0  0  0  0  0
   43.1390   83.2420   62.8780 H   0  0  0  0  0  0  0  0  0  0  0  0
   38.5070   83.5890   61.4110 H   0  0  0  0  0  0  0  0  0  0  0  0
   44.5680   86.5100   58.2270 C   0  0  0  0  0  0  0  0  0  0  0  0
   44.9310   87.5410   58.3430 H   0  0  0  0  0  0  0  0  0  0  0  0
   43.8770   86.4120   57.3800 H   0  0  0  0  0  0  0  0  0  0  0  0
   43.7600   84.2550   56.2370 Br  0  0  0  0  0  0  0  0  0  0  0  0
   45.4730   84.5540   57.0590 C   0  0  0  0  0  0  0  0  0  0  0  0
   45.7360   85.6040   57.9340 C   0  0  0  0  0  0  0  0  0  0  0  0
   47.0060   85.7480   58.4780 C   0  0  0  0  0  0  0  0  0  0  0  0
   47.1510   86.5780   59.1490 H   0  0  0  0  0  0  0  0  0  0  0  0
   47.9740   84.8390   58.1310 C   0  0  0  0  0  0  0  0  0  0  0  0
   48.9630   84.9670   58.5660 H   0  0  0  0  0  0  0  0  0  0  0  0
   47.7530   83.7770   57.2620 C   0  0  0  0  0  3  0  0  0  0  0  0
   46.4840   83.6690   56.7450 C   0  0  0  0  0  3  0  0  0  0  0  0
  1 10  1  0  0  0  0
  1  2  1  0  0  0  0
  2  6  1  0  0  0  0
  3  7  1  0  0  0  0
  3  2  2  0  0  0  0
  4  5  1  0  0  0  0
  4  3  1  0  0  0  0
  5  1  2  0  0  0  0
  8 14  1  0  0  0  0
  9 15  1  0  0  0  0
  9  8  2  0  0  0  0
 10  9  1  0  0  0  0
 11 10  2  0  0  0  0
 11 12  1  0  0  0  0
 12 13  2  0  0  0  0
 13  8  1  0  0  0  0
 16 12  1  0  0  0  0
 17 18  1  0  0  0  0
 17  4  1  0  0  0  0
 19 17  1  0  0  0  0
 20 21  1  0  0  0  0
 21 22  1  0  0  0  0
 22 17  1  0  0  0  0
 22 23  2  0  0  0  0
 23 24  1  0  0  0  0
 25 23  1  0  0  0  0
 25 26  1  0  0  0  0
 27 25  2  0  0  0  0
 28 21  2  0  0  0  0
 28 27  1  0  0  0  0
M  END
>  <minimizedAffinity>
-3.89235234

>  <minimizedRMSD>
1.47358739

$$$$
