
 OpenBabel03212520183D

 35 37  0  0  0  0  0  0  0  0999 V2000
   43.1520   83.7430   58.6390 Cl  0  0  0  0  0  0  0  0  0  0  0  0
   41.8670   82.6250   58.2640 C   0  0  0  0  0  0  0  0  0  0  0  0
   40.9520   82.1740   59.2000 C   0  0  0  0  0  0  0  0  0  0  0  0
   39.9980   81.2900   58.7350 C   0  0  0  0  0  0  0  0  0  0  0  0
   39.8670   80.8170   57.4500 C   0  0  0  0  0  0  0  0  0  0  0  0
   40.7800   81.2790   56.5570 C   0  0  0  0  0  0  0  0  0  0  0  0
   40.7330   80.7570   54.8780 Cl  0  0  0  0  0  0  0  0  0  0  0  0
   41.7670   82.1720   56.9620 C   0  0  0  0  0  0  0  0  0  0  0  0
   39.2920   80.9600   59.5140 H   0  0  0  0  0  0  0  0  0  0  0  0
   39.0790   80.1220   57.1900 H   0  0  0  0  0  0  0  0  0  0  0  0
   41.9030   82.1220   61.5550 C   0  0  0  0  0  0  0  0  0  0  0  0
   41.0550   82.6410   60.5400 C   0  0  0  0  0  0  0  0  0  0  0  0
   40.2470   83.6990   60.8760 C   0  0  0  0  0  0  0  0  0  0  0  0
   40.3290   84.1640   62.1540 N   0  0  0  0  0  0  0  0  0  0  0  0
   41.1380   83.6560   63.0930 C   0  0  0  0  0  0  0  0  0  0  0  0
   41.9480   82.6080   62.7880 N   0  0  0  0  0  0  0  0  0  0  0  0
   42.5070   81.2890   61.2130 H   0  0  0  0  0  0  0  0  0  0  0  0
   39.5590   84.1890   60.2080 H   0  0  0  0  0  0  0  0  0  0  0  0
   41.0700   84.3120   64.4210 C   0  0  0  0  0  0  0  0  0  0  0  0
   40.7480   85.6510   64.3250 F   0  0  0  0  0  0  0  0  0  0  0  0
   40.1190   83.6920   65.2140 F   0  0  0  0  0  0  0  0  0  0  0  0
   42.3120   84.2660   65.0600 F   0  0  0  0  0  0  0  0  0  0  0  0
   42.6860   82.6210   56.0130 O   0  0  0  0  0  0  0  0  0  0  0  0
   42.5000   83.7730   55.2290 C   0  0  0  0  0  0  0  0  0  0  0  0
   41.6650   83.5530   54.5240 H   0  0  0  0  0  0  0  0  0  0  0  0
   42.1880   84.5980   55.9010 H   0  0  0  0  0  0  0  0  0  0  0  0
   42.1230   83.1370   52.1700 Br  0  0  0  0  0  0  0  0  0  0  0  0
   43.6250   83.9420   53.0650 C   0  0  0  0  0  0  0  0  0  0  0  0
   43.6580   84.1660   54.4390 C   0  0  0  0  0  0  0  0  0  0  0  0
   44.7650   84.7480   55.0170 C   0  0  0  0  0  0  0  0  0  0  0  0
   44.8110   84.9300   56.0800 H   0  0  0  0  0  0  0  0  0  0  0  0
   45.8610   85.1180   54.2460 C   0  0  0  0  0  0  0  0  0  0  0  0
   46.7690   85.5820   54.6370 H   0  0  0  0  0  0  0  0  0  0  0  0
   45.8740   84.9140   52.8730 C   0  0  0  0  0  3  0  0  0  0  0  0
   44.7450   84.3290   52.3370 C   0  0  0  0  0  3  0  0  0  0  0  0
  2  1  1  0  0  0  0
  2  3  1  0  0  0  0
  3 12  1  0  0  0  0
  4  3  2  0  0  0  0
  4  9  1  0  0  0  0
  5  4  1  0  0  0  0
  6  8  1  0  0  0  0
  6  5  2  0  0  0  0
  7  6  1  0  0  0  0
  8  2  2  0  0  0  0
 10  5  1  0  0  0  0
 11 16  1  0  0  0  0
 12 13  1  0  0  0  0
 12 11  2  0  0  0  0
 13 14  2  0  0  0  0
 14 15  1  0  0  0  0
 15 19  1  0  0  0  0
 16 15  2  0  0  0  0
 17 11  1  0  0  0  0
 18 13  1  0  0  0  0
 19 22  1  0  0  0  0
 19 21  1  0  0  0  0
 20 19  1  0  0  0  0
 23  8  1  0  0  0  0
 24 26  1  0  0  0  0
 24 23  1  0  0  0  0
 25 24  1  0  0  0  0
 27 28  1  0  0  0  0
 28 29  1  0  0  0  0
 29 30  2  0  0  0  0
 29 24  1  0  0  0  0
 30 31  1  0  0  0  0
 32 33  1  0  0  0  0
 32 30  1  0  0  0  0
 34 32  2  0  0  0  0
 35 34  1  0  0  0  0
 35 28  2  0  0  0  0
M  END
>  <minimizedAffinity>
-4.93134832

>  <minimizedRMSD>
0.289311558

$$$$
