
 OpenBabel03212520263D

 28 30  0  0  0  0  0  0  0  0999 V2000
   42.6360   84.8110   61.0130 C   0  0  0  0  0  0  0  0  0  0  0  0
   43.4730   85.4450   61.9080 C   0  0  0  0  0  0  0  0  0  0  0  0
   44.3430   86.1230   61.0200 C   0  0  0  0  0  0  0  0  0  0  0  0
   43.9970   85.8720   59.7220 N   0  0  0  0  0  0  0  0  0  0  0  0
   42.9480   85.0660   59.7400 N   0  0  0  0  0  0  0  0  0  0  0  0
   43.5120   85.4620   62.9720 H   0  0  0  0  0  0  0  0  0  0  0  0
   45.1830   86.7670   61.3090 H   0  0  0  0  0  0  0  0  0  0  0  0
   40.6680   81.8760   62.2380 C   0  0  0  0  0  0  0  0  0  0  0  0
   41.7380   82.6700   61.8690 C   0  0  0  0  0  0  0  0  0  0  0  0
   41.5190   83.9520   61.4050 C   0  0  0  0  0  0  0  0  0  0  0  0
   40.2350   84.4180   61.3180 N   0  0  0  0  0  0  0  0  0  0  0  0
   39.2080   83.5980   61.6930 C   0  0  0  0  0  0  0  0  0  0  0  0
   39.4320   82.3440   62.1460 N   0  0  0  0  0  0  0  0  0  0  0  0
   40.9180   80.8800   62.5930 H   0  0  0  0  0  0  0  0  0  0  0  0
   42.7720   82.3330   61.9270 H   0  0  0  0  0  0  0  0  0  0  0  0
   38.1740   83.9140   61.6450 H   0  0  0  0  0  0  0  0  0  0  0  0
   44.6950   86.4240   58.5900 C   0  0  0  0  0  0  0  0  0  0  0  0
   45.6430   86.8730   58.9200 H   0  0  0  0  0  0  0  0  0  0  0  0
   44.0880   87.1310   58.0090 H   0  0  0  0  0  0  0  0  0  0  0  0
   47.5210   85.2490   59.1610 Br  0  0  0  0  0  0  0  0  0  0  0  0
   46.2360   84.6680   57.8530 C   0  0  0  0  0  0  0  0  0  0  0  0
   44.9870   85.2590   57.6820 C   0  0  0  0  0  0  0  0  0  0  0  0
   44.1180   84.7690   56.7150 C   0  0  0  0  0  0  0  0  0  0  0  0
   43.1660   85.2660   56.6280 H   0  0  0  0  0  0  0  0  0  0  0  0
   44.5240   83.7060   55.9490 C   0  0  0  0  0  0  0  0  0  0  0  0
   43.8310   83.3360   55.1960 H   0  0  0  0  0  0  0  0  0  0  0  0
   45.7620   83.0880   56.0870 C   0  0  0  0  0  3  0  0  0  0  0  0
   46.5920   83.6010   57.0550 C   0  0  0  0  0  3  0  0  0  0  0  0
  1 10  1  0  0  0  0
  1  2  1  0  0  0  0
  2  6  1  0  0  0  0
  3  7  1  0  0  0  0
  3  2  2  0  0  0  0
  4  5  1  0  0  0  0
  4  3  1  0  0  0  0
  5  1  2  0  0  0  0
  8 14  1  0  0  0  0
  9 15  1  0  0  0  0
  9  8  2  0  0  0  0
 10  9  1  0  0  0  0
 11 10  2  0  0  0  0
 11 12  1  0  0  0  0
 12 13  2  0  0  0  0
 13  8  1  0  0  0  0
 16 12  1  0  0  0  0
 17 18  1  0  0  0  0
 17  4  1  0  0  0  0
 19 17  1  0  0  0  0
 21 20  1  0  0  0  0
 22 21  1  0  0  0  0
 22 17  1  0  0  0  0
 23 22  2  0  0  0  0
 24 23  1  0  0  0  0
 25 27  2  0  0  0  0
 25 23  1  0  0  0  0
 26 25  1  0  0  0  0
 27 28  1  0  0  0  0
 28 21  2  0  0  0  0
M  END
>  <minimizedAffinity>
-3.89199781

>  <minimizedRMSD>
1.2712518

$$$$
