
 OpenBabel03212520263D

 28 30  0  0  0  0  0  0  0  0999 V2000
   42.3740   84.8690   60.9060 C   0  0  0  0  0  0  0  0  0  0  0  0
   43.4200   85.2820   61.7050 C   0  0  0  0  0  0  0  0  0  0  0  0
   44.0180   86.2590   60.8720 C   0  0  0  0  0  0  0  0  0  0  0  0
   43.3360   86.3690   59.6930 N   0  0  0  0  0  0  0  0  0  0  0  0
   42.3330   85.5080   59.7340 N   0  0  0  0  0  0  0  0  0  0  0  0
   43.7430   84.9930   62.6780 H   0  0  0  0  0  0  0  0  0  0  0  0
   44.9030   86.8590   61.1180 H   0  0  0  0  0  0  0  0  0  0  0  0
   40.8570   81.5700   61.8040 C   0  0  0  0  0  0  0  0  0  0  0  0
   41.7880   82.5240   61.4350 C   0  0  0  0  0  0  0  0  0  0  0  0
   41.4060   83.8440   61.2910 C   0  0  0  0  0  0  0  0  0  0  0  0
   40.1010   84.1870   61.5200 N   0  0  0  0  0  0  0  0  0  0  0  0
   39.2140   83.2120   61.8820 C   0  0  0  0  0  0  0  0  0  0  0  0
   39.5970   81.9220   62.0200 N   0  0  0  0  0  0  0  0  0  0  0  0
   41.2300   80.5550   61.8960 H   0  0  0  0  0  0  0  0  0  0  0  0
   42.8340   82.2860   61.2480 H   0  0  0  0  0  0  0  0  0  0  0  0
   38.1720   83.4270   62.0750 H   0  0  0  0  0  0  0  0  0  0  0  0
   43.7030   87.2820   58.6430 C   0  0  0  0  0  0  0  0  0  0  0  0
   44.0360   88.2360   59.0770 H   0  0  0  0  0  0  0  0  0  0  0  0
   42.9120   87.4260   57.8960 H   0  0  0  0  0  0  0  0  0  0  0  0
   45.6480   89.4290   57.5030 Br  0  0  0  0  0  0  0  0  0  0  0  0
   45.7840   87.5150   57.3680 C   0  0  0  0  0  0  0  0  0  0  0  0
   44.8590   86.6350   57.9240 C   0  0  0  0  0  0  0  0  0  0  0  0
   45.0380   85.2640   57.7840 C   0  0  0  0  0  0  0  0  0  0  0  0
   44.2920   84.6330   58.2340 H   0  0  0  0  0  0  0  0  0  0  0  0
   46.1350   84.8160   57.0920 C   0  0  0  0  0  0  0  0  0  0  0  0
   46.2600   83.7400   56.9900 H   0  0  0  0  0  0  0  0  0  0  0  0
   47.0820   85.6600   56.5210 C   0  0  0  0  0  3  0  0  0  0  0  0
   46.8690   87.0090   56.6830 C   0  0  0  0  0  3  0  0  0  0  0  0
  1 10  1  0  0  0  0
  1  2  1  0  0  0  0
  2  6  1  0  0  0  0
  3  7  1  0  0  0  0
  3  2  2  0  0  0  0
  4  5  1  0  0  0  0
  4  3  1  0  0  0  0
  5  1  2  0  0  0  0
  8 14  1  0  0  0  0
  8 13  1  0  0  0  0
  9  8  2  0  0  0  0
 10  9  1  0  0  0  0
 10 11  2  0  0  0  0
 11 12  1  0  0  0  0
 12 13  2  0  0  0  0
 12 16  1  0  0  0  0
 15  9  1  0  0  0  0
 17 18  1  0  0  0  0
 17  4  1  0  0  0  0
 19 17  1  0  0  0  0
 21 20  1  0  0  0  0
 21 22  1  0  0  0  0
 22 17  1  0  0  0  0
 23 22  2  0  0  0  0
 23 24  1  0  0  0  0
 25 23  1  0  0  0  0
 26 25  1  0  0  0  0
 27 28  1  0  0  0  0
 27 25  2  0  0  0  0
 28 21  2  0  0  0  0
M  END
>  <minimizedAffinity>
-4.31192493

>  <minimizedRMSD>
0.463925809

$$$$
