
 OpenBabel03212520183D

 35 37  0  0  0  0  0  0  0  0999 V2000
   43.1250   83.7920   58.6480 Cl  0  0  0  0  0  0  0  0  0  0  0  0
   41.8580   82.6510   58.2760 C   0  0  0  0  0  0  0  0  0  0  0  0
   40.9550   82.1830   59.2150 C   0  0  0  0  0  0  0  0  0  0  0  0
   40.0150   81.2830   58.7510 C   0  0  0  0  0  0  0  0  0  0  0  0
   39.8870   80.8100   57.4670 C   0  0  0  0  0  0  0  0  0  0  0  0
   40.7890   81.2890   56.5700 C   0  0  0  0  0  0  0  0  0  0  0  0
   40.7440   80.7690   54.8910 Cl  0  0  0  0  0  0  0  0  0  0  0  0
   41.7610   82.1990   56.9730 C   0  0  0  0  0  0  0  0  0  0  0  0
   39.3190   80.9390   59.5340 H   0  0  0  0  0  0  0  0  0  0  0  0
   39.1100   80.1020   57.2090 H   0  0  0  0  0  0  0  0  0  0  0  0
   41.9050   82.1330   61.5700 C   0  0  0  0  0  0  0  0  0  0  0  0
   41.0550   82.6490   60.5550 C   0  0  0  0  0  0  0  0  0  0  0  0
   40.2440   83.7050   60.8900 C   0  0  0  0  0  0  0  0  0  0  0  0
   40.3230   84.1690   62.1690 N   0  0  0  0  0  0  0  0  0  0  0  0
   41.1330   83.6640   63.1090 C   0  0  0  0  0  0  0  0  0  0  0  0
   41.9460   82.6190   62.8040 N   0  0  0  0  0  0  0  0  0  0  0  0
   42.5120   81.3020   61.2280 H   0  0  0  0  0  0  0  0  0  0  0  0
   39.5540   84.1920   60.2230 H   0  0  0  0  0  0  0  0  0  0  0  0
   41.0610   84.3190   64.4370 C   0  0  0  0  0  0  0  0  0  0  0  0
   40.7340   85.6560   64.3420 F   0  0  0  0  0  0  0  0  0  0  0  0
   40.1110   83.6950   65.2290 F   0  0  0  0  0  0  0  0  0  0  0  0
   42.3030   84.2770   65.0770 F   0  0  0  0  0  0  0  0  0  0  0  0
   42.6680   82.6650   56.0210 O   0  0  0  0  0  0  0  0  0  0  0  0
   42.4760   83.8360   55.2670 C   0  0  0  0  0  0  0  0  0  0  0  0
   41.3740   83.9900   55.1830 H   0  0  0  0  0  0  0  0  0  0  0  0
   42.9100   84.6840   55.8330 H   0  0  0  0  0  0  0  0  0  0  0  0
   45.4280   84.9200   55.1410 Br  0  0  0  0  0  0  0  0  0  0  0  0
   44.3240   84.2410   53.7190 C   0  0  0  0  0  0  0  0  0  0  0  0
   43.0220   83.7890   53.9180 C   0  0  0  0  0  0  0  0  0  0  0  0
   42.2850   83.3150   52.8550 C   0  0  0  0  0  0  0  0  0  0  0  0
   41.2740   82.9610   52.9890 H   0  0  0  0  0  0  0  0  0  0  0  0
   42.8230   83.2780   51.5740 C   0  0  0  0  0  0  0  0  0  0  0  0
   42.2970   82.9150   50.6880 H   0  0  0  0  0  0  0  0  0  0  0  0
   44.1160   83.7170   51.3260 C   0  0  0  0  0  3  0  0  0  0  0  0
   44.8170   84.1840   52.4190 C   0  0  0  0  0  3  0  0  0  0  0  0
  2  1  1  0  0  0  0
  2  3  1  0  0  0  0
  3 12  1  0  0  0  0
  4  3  2  0  0  0  0
  4  9  1  0  0  0  0
  5  4  1  0  0  0  0
  6  8  1  0  0  0  0
  6  5  2  0  0  0  0
  7  6  1  0  0  0  0
  8  2  2  0  0  0  0
 10  5  1  0  0  0  0
 11 16  1  0  0  0  0
 12 13  1  0  0  0  0
 12 11  2  0  0  0  0
 13 14  2  0  0  0  0
 14 15  1  0  0  0  0
 15 19  1  0  0  0  0
 16 15  2  0  0  0  0
 17 11  1  0  0  0  0
 18 13  1  0  0  0  0
 19 22  1  0  0  0  0
 19 21  1  0  0  0  0
 20 19  1  0  0  0  0
 23  8  1  0  0  0  0
 24 26  1  0  0  0  0
 24 23  1  0  0  0  0
 25 24  1  0  0  0  0
 28 29  1  0  0  0  0
 28 27  1  0  0  0  0
 29 24  1  0  0  0  0
 30 31  1  0  0  0  0
 30 29  2  0  0  0  0
 32 30  1  0  0  0  0
 33 32  1  0  0  0  0
 34 32  2  0  0  0  0
 34 35  1  0  0  0  0
 35 28  2  0  0  0  0
M  END
>  <minimizedAffinity>
-5.00400496

>  <minimizedRMSD>
0.923605919

$$$$
