
 OpenBabel03212520263D

 28 30  0  0  0  0  0  0  0  0999 V2000
   42.7390   84.8170   61.1320 C   0  0  0  0  0  0  0  0  0  0  0  0
   43.4190   85.5450   62.0870 C   0  0  0  0  0  0  0  0  0  0  0  0
   44.3710   86.2130   61.2800 C   0  0  0  0  0  0  0  0  0  0  0  0
   44.2170   85.8680   59.9670 N   0  0  0  0  0  0  0  0  0  0  0  0
   43.2120   85.0110   59.8980 N   0  0  0  0  0  0  0  0  0  0  0  0
   43.3110   85.6270   63.1430 H   0  0  0  0  0  0  0  0  0  0  0  0
   45.1360   86.9150   61.6360 H   0  0  0  0  0  0  0  0  0  0  0  0
   40.7580   81.8060   62.1320 C   0  0  0  0  0  0  0  0  0  0  0  0
   41.8330   82.6310   61.8550 C   0  0  0  0  0  0  0  0  0  0  0  0
   41.6180   83.9260   61.4270 C   0  0  0  0  0  0  0  0  0  0  0  0
   40.3320   84.3750   61.2840 N   0  0  0  0  0  0  0  0  0  0  0  0
   39.3000   83.5250   61.5690 C   0  0  0  0  0  0  0  0  0  0  0  0
   39.5210   82.2580   61.9870 N   0  0  0  0  0  0  0  0  0  0  0  0
   41.0050   80.8020   62.4630 H   0  0  0  0  0  0  0  0  0  0  0  0
   42.8680   82.3070   61.9590 H   0  0  0  0  0  0  0  0  0  0  0  0
   38.2660   83.8270   61.4740 H   0  0  0  0  0  0  0  0  0  0  0  0
   45.0380   86.3870   58.9050 C   0  0  0  0  0  0  0  0  0  0  0  0
   45.4830   87.3440   59.2120 H   0  0  0  0  0  0  0  0  0  0  0  0
   44.5090   86.4700   57.9470 H   0  0  0  0  0  0  0  0  0  0  0  0
   44.4700   84.6070   56.4140 Br  0  0  0  0  0  0  0  0  0  0  0  0
   45.9670   84.5200   57.6160 C   0  0  0  0  0  0  0  0  0  0  0  0
   46.1350   85.3730   58.7040 C   0  0  0  0  0  0  0  0  0  0  0  0
   47.2530   85.2440   59.5190 C   0  0  0  0  0  0  0  0  0  0  0  0
   47.3290   85.9300   60.3440 H   0  0  0  0  0  0  0  0  0  0  0  0
   48.1680   84.2640   59.2220 C   0  0  0  0  0  0  0  0  0  0  0  0
   49.0370   84.1760   59.8700 H   0  0  0  0  0  0  0  0  0  0  0  0
   48.0390   83.3920   58.1470 C   0  0  0  0  0  3  0  0  0  0  0  0
   46.9200   83.5550   57.3660 C   0  0  0  0  0  3  0  0  0  0  0  0
  1 10  1  0  0  0  0
  1  2  1  0  0  0  0
  2  6  1  0  0  0  0
  3  7  1  0  0  0  0
  3  2  2  0  0  0  0
  4  3  1  0  0  0  0
  5  4  1  0  0  0  0
  5  1  2  0  0  0  0
  8 14  1  0  0  0  0
  9 15  1  0  0  0  0
  9  8  2  0  0  0  0
 10  9  1  0  0  0  0
 11 10  2  0  0  0  0
 11 12  1  0  0  0  0
 12 13  2  0  0  0  0
 13  8  1  0  0  0  0
 16 12  1  0  0  0  0
 17 18  1  0  0  0  0
 17  4  1  0  0  0  0
 19 17  1  0  0  0  0
 20 21  1  0  0  0  0
 21 22  1  0  0  0  0
 22 17  1  0  0  0  0
 22 23  2  0  0  0  0
 23 24  1  0  0  0  0
 25 23  1  0  0  0  0
 25 26  1  0  0  0  0
 27 25  2  0  0  0  0
 28 21  2  0  0  0  0
 28 27  1  0  0  0  0
M  END
>  <minimizedAffinity>
-3.89906979

>  <minimizedRMSD>
1.30651951

$$$$
