
 OpenBabel03212520283D

 28 30  0  0  0  0  0  0  0  0999 V2000
   41.2740   71.8430   61.2970 C   0  0  0  0  0  0  0  0  0  0  0  0
   41.8680   71.0610   60.3280 C   0  0  0  0  0  0  0  0  0  0  0  0
   42.3780   70.0040   61.1190 C   0  0  0  0  0  0  0  0  0  0  0  0
   42.0770   70.2010   62.4380 N   0  0  0  0  0  0  0  0  0  0  0  0
   41.4000   71.3340   62.5240 N   0  0  0  0  0  0  0  0  0  0  0  0
   41.9560   71.1630   59.2710 H   0  0  0  0  0  0  0  0  0  0  0  0
   42.9380   69.1360   60.7500 H   0  0  0  0  0  0  0  0  0  0  0  0
   40.5180   75.3020   60.0900 C   0  0  0  0  0  0  0  0  0  0  0  0
   41.1990   74.1260   60.3450 C   0  0  0  0  0  0  0  0  0  0  0  0
   40.5730   73.0960   61.0200 C   0  0  0  0  0  0  0  0  0  0  0  0
   39.2760   73.2600   61.4270 N   0  0  0  0  0  0  0  0  0  0  0  0
   38.6420   74.4390   61.1540 C   0  0  0  0  0  0  0  0  0  0  0  0
   39.2630   75.4420   60.4940 N   0  0  0  0  0  0  0  0  0  0  0  0
   41.0750   76.0660   59.5560 H   0  0  0  0  0  0  0  0  0  0  0  0
   42.2300   73.9610   60.0340 H   0  0  0  0  0  0  0  0  0  0  0  0
   37.6180   74.6210   61.4530 H   0  0  0  0  0  0  0  0  0  0  0  0
   42.4610   69.2930   63.4870 C   0  0  0  0  0  0  0  0  0  0  0  0
   42.2410   69.7410   64.4670 H   0  0  0  0  0  0  0  0  0  0  0  0
   43.5040   68.9610   63.4130 H   0  0  0  0  0  0  0  0  0  0  0  0
   44.1890   66.8440   62.6460 Br  0  0  0  0  0  0  0  0  0  0  0  0
   42.2870   66.9170   62.9130 C   0  0  0  0  0  0  0  0  0  0  0  0
   41.6050   68.0670   63.3000 C   0  0  0  0  0  0  0  0  0  0  0  0
   40.2270   68.0280   63.4760 C   0  0  0  0  0  0  0  0  0  0  0  0
   39.7540   68.9480   63.7760 H   0  0  0  0  0  0  0  0  0  0  0  0
   39.5730   66.8410   63.2590 C   0  0  0  0  0  0  0  0  0  0  0  0
   38.4950   66.8280   63.4000 H   0  0  0  0  0  0  0  0  0  0  0  0
   40.2160   65.6700   62.8710 C   0  0  0  0  0  3  0  0  0  0  0  0
   41.5780   65.7500   62.7090 C   0  0  0  0  0  3  0  0  0  0  0  0
  1  5  2  0  0  0  0
  2  3  2  0  0  0  0
  2  1  1  0  0  0  0
  3  4  1  0  0  0  0
  4  5  1  0  0  0  0
  4 17  1  0  0  0  0
  6  2  1  0  0  0  0
  7  3  1  0  0  0  0
  8  9  2  0  0  0  0
  8 13  1  0  0  0  0
  9 10  1  0  0  0  0
 10  1  1  0  0  0  0
 10 11  2  0  0  0  0
 12 11  1  0  0  0  0
 12 16  1  0  0  0  0
 13 12  2  0  0  0  0
 14  8  1  0  0  0  0
 15  9  1  0  0  0  0
 17 18  1  0  0  0  0
 19 17  1  0  0  0  0
 20 21  1  0  0  0  0
 21 22  1  0  0  0  0
 22 23  2  0  0  0  0
 22 17  1  0  0  0  0
 23 24  1  0  0  0  0
 25 26  1  0  0  0  0
 25 23  1  0  0  0  0
 27 25  2  0  0  0  0
 28 27  1  0  0  0  0
 28 21  2  0  0  0  0
M  END
>  <minimizedAffinity>
-5.51956463

$$$$

 OpenBabel03212520283D

 28 30  0  0  0  0  0  0  0  0999 V2000
   42.1560   69.6720   61.1830 C   0  0  0  0  0  0  0  0  0  0  0  0
   42.8220   70.5280   62.0360 C   0  0  0  0  0  0  0  0  0  0  0  0
   42.7280   71.7430   61.3160 C   0  0  0  0  0  0  0  0  0  0  0  0
   42.0510   71.5570   60.1430 N   0  0  0  0  0  0  0  0  0  0  0  0
   41.7100   70.2800   60.0810 N   0  0  0  0  0  0  0  0  0  0  0  0
   43.2950   70.3830   62.9800 H   0  0  0  0  0  0  0  0  0  0  0  0
   43.1310   72.7120   61.6350 H   0  0  0  0  0  0  0  0  0  0  0  0
   41.5610   66.0130   60.6850 C   0  0  0  0  0  0  0  0  0  0  0  0
   41.7480   67.3560   60.4130 C   0  0  0  0  0  0  0  0  0  0  0  0
   41.9520   68.2480   61.4470 C   0  0  0  0  0  0  0  0  0  0  0  0
   41.9680   67.7830   62.7350 N   0  0  0  0  0  0  0  0  0  0  0  0
   41.7780   66.4480   62.9570 C   0  0  0  0  0  0  0  0  0  0  0  0
   41.5770   65.5810   61.9380 N   0  0  0  0  0  0  0  0  0  0  0  0
   41.4040   65.3720   59.8230 H   0  0  0  0  0  0  0  0  0  0  0  0
   41.7440   67.7590   59.4020 H   0  0  0  0  0  0  0  0  0  0  0  0
   41.7800   66.0260   63.9530 H   0  0  0  0  0  0  0  0  0  0  0  0
   41.7930   72.6100   59.1970 C   0  0  0  0  0  0  0  0  0  0  0  0
   41.3620   72.1880   58.2780 H   0  0  0  0  0  0  0  0  0  0  0  0
   42.6730   73.2310   58.9880 H   0  0  0  0  0  0  0  0  0  0  0  0
   42.7310   75.5780   59.1390 Br  0  0  0  0  0  0  0  0  0  0  0  0
   41.1120   74.8610   59.8860 C   0  0  0  0  0  0  0  0  0  0  0  0
   40.7780   73.5100   59.8520 C   0  0  0  0  0  0  0  0  0  0  0  0
   39.5810   73.0790   60.4120 C   0  0  0  0  0  0  0  0  0  0  0  0
   39.3770   72.0230   60.3570 H   0  0  0  0  0  0  0  0  0  0  0  0
   38.7550   74.0110   60.9880 C   0  0  0  0  0  0  0  0  0  0  0  0
   37.8230   73.6570   61.4220 H   0  0  0  0  0  0  0  0  0  0  0  0
   39.0510   75.3690   61.0420 C   0  0  0  0  0  3  0  0  0  0  0  0
   40.2420   75.7550   60.4780 C   0  0  0  0  0  3  0  0  0  0  0  0
  1 10  1  0  0  0  0
  1  2  1  0  0  0  0
  2  6  1  0  0  0  0
  3  7  1  0  0  0  0
  3  2  2  0  0  0  0
  4  3  1  0  0  0  0
  5  4  1  0  0  0  0
  5  1  2  0  0  0  0
  8 13  1  0  0  0  0
  9  8  2  0  0  0  0
  9 10  1  0  0  0  0
 10 11  2  0  0  0  0
 11 12  1  0  0  0  0
 12 16  1  0  0  0  0
 13 12  2  0  0  0  0
 14  8  1  0  0  0  0
 15  9  1  0  0  0  0
 17 22  1  0  0  0  0
 17  4  1  0  0  0  0
 18 17  1  0  0  0  0
 19 17  1  0  0  0  0
 20 21  1  0  0  0  0
 21 28  1  0  0  0  0
 22 21  2  0  0  0  0
 22 23  1  0  0  0  0
 23 25  2  0  0  0  0
 24 23  1  0  0  0  0
 25 27  1  0  0  0  0
 25 26  1  0  0  0  0
 28 27  2  0  0  0  0
M  END
>  <minimizedAffinity>
-5.31191683

$$$$

 OpenBabel03212520283D

 28 30  0  0  0  0  0  0  0  0999 V2000
   41.8670   69.5300   62.1650 C   0  0  0  0  0  0  0  0  0  0  0  0
   41.9560   70.3160   63.2960 C   0  0  0  0  0  0  0  0  0  0  0  0
   42.1160   71.5970   62.7140 C   0  0  0  0  0  0  0  0  0  0  0  0
   42.1130   71.5100   61.3500 N   0  0  0  0  0  0  0  0  0  0  0  0
   41.9600   70.2340   61.0350 N   0  0  0  0  0  0  0  0  0  0  0  0
   41.9220   70.0900   64.3360 H   0  0  0  0  0  0  0  0  0  0  0  0
   42.2260   72.5420   63.2600 H   0  0  0  0  0  0  0  0  0  0  0  0
   41.6610   65.9540   61.0870 C   0  0  0  0  0  0  0  0  0  0  0  0
   41.8320   67.3260   61.0410 C   0  0  0  0  0  0  0  0  0  0  0  0
   41.6880   68.0790   62.1900 C   0  0  0  0  0  0  0  0  0  0  0  0
   41.3770   67.4480   63.3640 N   0  0  0  0  0  0  0  0  0  0  0  0
   41.2170   66.0910   63.3630 C   0  0  0  0  0  0  0  0  0  0  0  0
   41.3590   65.3610   62.2340 N   0  0  0  0  0  0  0  0  0  0  0  0
   41.7880   65.4290   60.1450 H   0  0  0  0  0  0  0  0  0  0  0  0
   42.0810   67.8590   60.1250 H   0  0  0  0  0  0  0  0  0  0  0  0
   40.9720   65.5420   64.2620 H   0  0  0  0  0  0  0  0  0  0  0  0
   42.2550   72.6470   60.4790 C   0  0  0  0  0  0  0  0  0  0  0  0
   42.6090   72.3180   59.4910 H   0  0  0  0  0  0  0  0  0  0  0  0
   42.8900   73.4380   60.8990 H   0  0  0  0  0  0  0  0  0  0  0  0
   40.9490   71.7940   57.7850 Br  0  0  0  0  0  0  0  0  0  0  0  0
   40.2080   72.9140   59.1600 C   0  0  0  0  0  0  0  0  0  0  0  0
   40.8730   73.2310   60.3410 C   0  0  0  0  0  0  0  0  0  0  0  0
   40.2590   74.0440   61.2850 C   0  0  0  0  0  0  0  0  0  0  0  0
   40.8220   74.2550   62.1780 H   0  0  0  0  0  0  0  0  0  0  0  0
   38.9970   74.5160   61.0200 C   0  0  0  0  0  0  0  0  0  0  0  0
   38.5310   75.1520   61.7690 H   0  0  0  0  0  0  0  0  0  0  0  0
   38.2980   74.2240   59.8540 C   0  0  0  0  0  3  0  0  0  0  0  0
   38.9400   73.4160   58.9470 C   0  0  0  0  0  3  0  0  0  0  0  0
  1 10  1  0  0  0  0
  1  2  1  0  0  0  0
  2  6  1  0  0  0  0
  3  7  1  0  0  0  0
  3  2  2  0  0  0  0
  4  3  1  0  0  0  0
  5  4  1  0  0  0  0
  5  1  2  0  0  0  0
  8 13  1  0  0  0  0
  9  8  2  0  0  0  0
  9 10  1  0  0  0  0
 10 11  2  0  0  0  0
 12 11  1  0  0  0  0
 12 16  1  0  0  0  0
 13 12  2  0  0  0  0
 14  8  1  0  0  0  0
 15  9  1  0  0  0  0
 17 19  1  0  0  0  0
 17  4  1  0  0  0  0
 18 17  1  0  0  0  0
 20 21  1  0  0  0  0
 21 22  1  0  0  0  0
 22 17  1  0  0  0  0
 22 23  2  0  0  0  0
 23 24  1  0  0  0  0
 25 23  1  0  0  0  0
 25 26  1  0  0  0  0
 27 25  2  0  0  0  0
 28 21  2  0  0  0  0
 28 27  1  0  0  0  0
M  END
>  <minimizedAffinity>
-5.25618124

$$$$

 OpenBabel03212520283D

 28 30  0  0  0  0  0  0  0  0999 V2000
   41.4350   71.9930   61.0080 C   0  0  0  0  0  0  0  0  0  0  0  0
   41.4080   72.3770   62.3330 C   0  0  0  0  0  0  0  0  0  0  0  0
   42.0000   71.2470   62.9470 C   0  0  0  0  0  0  0  0  0  0  0  0
   42.3280   70.3070   62.0100 N   0  0  0  0  0  0  0  0  0  0  0  0
   41.9740   70.7840   60.8290 N   0  0  0  0  0  0  0  0  0  0  0  0
   41.0580   73.2560   62.8220 H   0  0  0  0  0  0  0  0  0  0  0  0
   42.1820   71.1200   64.0210 H   0  0  0  0  0  0  0  0  0  0  0  0
   39.3910   73.2010   58.1170 C   0  0  0  0  0  0  0  0  0  0  0  0
   39.8520   72.4070   59.1520 C   0  0  0  0  0  0  0  0  0  0  0  0
   40.9340   72.8150   59.9080 C   0  0  0  0  0  0  0  0  0  0  0  0
   41.5340   74.0100   59.6180 N   0  0  0  0  0  0  0  0  0  0  0  0
   41.0460   74.7630   58.5870 C   0  0  0  0  0  0  0  0  0  0  0  0
   39.9870   74.3550   57.8510 N   0  0  0  0  0  0  0  0  0  0  0  0
   38.5390   72.8150   57.5670 H   0  0  0  0  0  0  0  0  0  0  0  0
   39.3970   71.4520   59.4100 H   0  0  0  0  0  0  0  0  0  0  0  0
   41.4820   75.7150   58.3150 H   0  0  0  0  0  0  0  0  0  0  0  0
   42.9490   69.0480   62.3290 C   0  0  0  0  0  0  0  0  0  0  0  0
   43.4710   69.1230   63.2930 H   0  0  0  0  0  0  0  0  0  0  0  0
   43.6070   68.6750   61.5340 H   0  0  0  0  0  0  0  0  0  0  0  0
   42.9650   67.0370   59.9520 Br  0  0  0  0  0  0  0  0  0  0  0  0
   41.7370   67.1170   61.4290 C   0  0  0  0  0  0  0  0  0  0  0  0
   41.8210   68.0560   62.4530 C   0  0  0  0  0  0  0  0  0  0  0  0
   40.8930   68.0370   63.4870 C   0  0  0  0  0  0  0  0  0  0  0  0
   41.0080   68.7880   64.2500 H   0  0  0  0  0  0  0  0  0  0  0  0
   39.9090   67.0800   63.4650 C   0  0  0  0  0  0  0  0  0  0  0  0
   39.1900   67.0800   64.2810 H   0  0  0  0  0  0  0  0  0  0  0  0
   39.7900   66.1250   62.4610 C   0  0  0  0  0  3  0  0  0  0  0  0
   40.7270   66.1770   61.4580 C   0  0  0  0  0  3  0  0  0  0  0  0
  1  2  1  0  0  0  0
  2  6  1  0  0  0  0
  2  3  2  0  0  0  0
  3  7  1  0  0  0  0
  4 17  1  0  0  0  0
  4  3  1  0  0  0  0
  5  1  2  0  0  0  0
  5  4  1  0  0  0  0
  8  9  1  0  0  0  0
  9 15  1  0  0  0  0
  9 10  2  0  0  0  0
 10  1  1  0  0  0  0
 11 10  1  0  0  0  0
 12 11  2  0  0  0  0
 13  8  2  0  0  0  0
 13 12  1  0  0  0  0
 14  8  1  0  0  0  0
 16 12  1  0  0  0  0
 17 22  1  0  0  0  0
 17 18  1  0  0  0  0
 19 17  1  0  0  0  0
 20 21  1  0  0  0  0
 21 28  2  0  0  0  0
 21 22  1  0  0  0  0
 22 23  2  0  0  0  0
 23 24  1  0  0  0  0
 25 23  1  0  0  0  0
 25 26  1  0  0  0  0
 27 25  2  0  0  0  0
 28 27  1  0  0  0  0
M  END
>  <minimizedAffinity>
-5.03465223

$$$$

 OpenBabel03212520283D

 28 30  0  0  0  0  0  0  0  0999 V2000
   42.4670   70.6450   60.5060 C   0  0  0  0  0  0  0  0  0  0  0  0
   43.6010   71.3750   60.2180 C   0  0  0  0  0  0  0  0  0  0  0  0
   43.0620   72.3790   59.3780 C   0  0  0  0  0  0  0  0  0  0  0  0
   41.7160   72.2030   59.2200 N   0  0  0  0  0  0  0  0  0  0  0  0
   41.3720   71.1350   59.9200 N   0  0  0  0  0  0  0  0  0  0  0  0
   44.6210   71.2710   60.5100 H   0  0  0  0  0  0  0  0  0  0  0  0
   43.6250   73.1950   58.9080 H   0  0  0  0  0  0  0  0  0  0  0  0
   43.1090   68.3130   63.3590 C   0  0  0  0  0  0  0  0  0  0  0  0
   43.1380   69.4430   62.5620 C   0  0  0  0  0  0  0  0  0  0  0  0
   42.4520   69.4610   61.3630 C   0  0  0  0  0  0  0  0  0  0  0  0
   41.7470   68.3500   60.9840 N   0  0  0  0  0  0  0  0  0  0  0  0
   41.7460   67.2560   61.8030 C   0  0  0  0  0  0  0  0  0  0  0  0
   42.4220   67.2470   62.9740 N   0  0  0  0  0  0  0  0  0  0  0  0
   43.6720   68.3730   64.2860 H   0  0  0  0  0  0  0  0  0  0  0  0
   43.6870   70.3430   62.8340 H   0  0  0  0  0  0  0  0  0  0  0  0
   41.2070   66.3530   61.5520 H   0  0  0  0  0  0  0  0  0  0  0  0
   40.8880   73.0670   58.4210 C   0  0  0  0  0  0  0  0  0  0  0  0
   40.0900   72.4820   57.9420 H   0  0  0  0  0  0  0  0  0  0  0  0
   41.4550   73.6590   57.6920 H   0  0  0  0  0  0  0  0  0  0  0  0
   42.2370   75.8630   58.1830 Br  0  0  0  0  0  0  0  0  0  0  0  0
   40.8150   75.3290   59.3610 C   0  0  0  0  0  0  0  0  0  0  0  0
   40.2710   74.0480   59.3850 C   0  0  0  0  0  0  0  0  0  0  0  0
   39.2390   73.7500   60.2660 C   0  0  0  0  0  0  0  0  0  0  0  0
   38.8590   72.7430   60.2400 H   0  0  0  0  0  0  0  0  0  0  0  0
   38.7830   74.7420   61.0980 C   0  0  0  0  0  0  0  0  0  0  0  0
   37.9760   74.4930   61.7820 H   0  0  0  0  0  0  0  0  0  0  0  0
   39.2980   76.0340   61.1060 C   0  0  0  0  0  3  0  0  0  0  0  0
   40.3170   76.2880   60.2200 C   0  0  0  0  0  3  0  0  0  0  0  0
  1 10  1  0  0  0  0
  2  1  1  0  0  0  0
  2  6  1  0  0  0  0
  3  2  2  0  0  0  0
  4  3  1  0  0  0  0
  4  5  1  0  0  0  0
  5  1  2  0  0  0  0
  7  3  1  0  0  0  0
  8 14  1  0  0  0  0
  9 15  1  0  0  0  0
  9  8  2  0  0  0  0
 10  9  1  0  0  0  0
 11 10  2  0  0  0  0
 11 12  1  0  0  0  0
 12 13  2  0  0  0  0
 13  8  1  0  0  0  0
 16 12  1  0  0  0  0
 17  4  1  0  0  0  0
 17 22  1  0  0  0  0
 18 17  1  0  0  0  0
 19 17  1  0  0  0  0
 20 21  1  0  0  0  0
 21 22  2  0  0  0  0
 21 28  1  0  0  0  0
 22 23  1  0  0  0  0
 23 25  2  0  0  0  0
 24 23  1  0  0  0  0
 25 27  1  0  0  0  0
 25 26  1  0  0  0  0
 28 27  2  0  0  0  0
M  END
>  <minimizedAffinity>
-4.85375452

$$$$

 OpenBabel03212520283D

 28 30  0  0  0  0  0  0  0  0999 V2000
   42.0760   70.7100   61.8360 C   0  0  0  0  0  0  0  0  0  0  0  0
   42.0050   71.7170   62.7750 C   0  0  0  0  0  0  0  0  0  0  0  0
   41.3010   72.7070   62.0480 C   0  0  0  0  0  0  0  0  0  0  0  0
   41.0060   72.2610   60.7900 N   0  0  0  0  0  0  0  0  0  0  0  0
   41.4900   71.0350   60.6810 N   0  0  0  0  0  0  0  0  0  0  0  0
   42.3580   71.7960   63.7780 H   0  0  0  0  0  0  0  0  0  0  0  0
   41.0170   73.6990   62.4210 H   0  0  0  0  0  0  0  0  0  0  0  0
   43.1810   67.1610   61.4140 C   0  0  0  0  0  0  0  0  0  0  0  0
   42.5630   68.3750   61.1760 C   0  0  0  0  0  0  0  0  0  0  0  0
   42.7170   69.4170   62.0690 C   0  0  0  0  0  0  0  0  0  0  0  0
   43.4890   69.2280   63.1850 N   0  0  0  0  0  0  0  0  0  0  0  0
   44.0810   68.0120   63.3800 C   0  0  0  0  0  0  0  0  0  0  0  0
   43.9230   66.9970   62.5000 N   0  0  0  0  0  0  0  0  0  0  0  0
   43.0130   66.3900   60.6690 H   0  0  0  0  0  0  0  0  0  0  0  0
   41.9440   68.5600   60.2990 H   0  0  0  0  0  0  0  0  0  0  0  0
   44.7000   67.8080   64.2430 H   0  0  0  0  0  0  0  0  0  0  0  0
   40.2920   73.0430   59.8150 C   0  0  0  0  0  0  0  0  0  0  0  0
   39.3840   73.4660   60.2680 H   0  0  0  0  0  0  0  0  0  0  0  0
   40.0710   72.4900   58.8930 H   0  0  0  0  0  0  0  0  0  0  0  0
   39.2220   75.7790   60.8460 Br  0  0  0  0  0  0  0  0  0  0  0  0
   40.8230   75.4350   59.8400 C   0  0  0  0  0  0  0  0  0  0  0  0
   41.2210   74.1650   59.4310 C   0  0  0  0  0  0  0  0  0  0  0  0
   42.4000   74.0070   58.7120 C   0  0  0  0  0  0  0  0  0  0  0  0
   42.6560   73.0030   58.4220 H   0  0  0  0  0  0  0  0  0  0  0  0
   43.1430   75.1240   58.4220 C   0  0  0  0  0  0  0  0  0  0  0  0
   44.0620   74.9830   57.8570 H   0  0  0  0  0  0  0  0  0  0  0  0
   42.7820   76.4100   58.8100 C   0  0  0  0  0  3  0  0  0  0  0  0
   41.6110   76.5230   59.5210 C   0  0  0  0  0  3  0  0  0  0  0  0
  1 10  1  0  0  0  0
  1  2  1  0  0  0  0
  2  6  1  0  0  0  0
  3  7  1  0  0  0  0
  3  2  2  0  0  0  0
  4  3  1  0  0  0  0
  5  4  1  0  0  0  0
  5  1  2  0  0  0  0
  8 13  1  0  0  0  0
  9  8  2  0  0  0  0
  9 10  1  0  0  0  0
 10 11  2  0  0  0  0
 11 12  1  0  0  0  0
 12 16  1  0  0  0  0
 13 12  2  0  0  0  0
 14  8  1  0  0  0  0
 15  9  1  0  0  0  0
 17 18  1  0  0  0  0
 17  4  1  0  0  0  0
 19 17  1  0  0  0  0
 21 20  1  0  0  0  0
 22 17  1  0  0  0  0
 22 21  2  0  0  0  0
 23 22  1  0  0  0  0
 24 23  1  0  0  0  0
 25 23  2  0  0  0  0
 25 27  1  0  0  0  0
 26 25  1  0  0  0  0
 27 28  2  0  0  0  0
 28 21  1  0  0  0  0
M  END
>  <minimizedAffinity>
-4.82703829

$$$$

 OpenBabel03212520283D

 28 30  0  0  0  0  0  0  0  0999 V2000
   42.2390   71.5080   60.0650 C   0  0  0  0  0  0  0  0  0  0  0  0
   43.4400   71.6900   59.4100 C   0  0  0  0  0  0  0  0  0  0  0  0
   43.0800   72.6860   58.4710 C   0  0  0  0  0  0  0  0  0  0  0  0
   41.7630   73.0240   58.6090 N   0  0  0  0  0  0  0  0  0  0  0  0
   41.2660   72.2910   59.5910 N   0  0  0  0  0  0  0  0  0  0  0  0
   44.4000   71.2430   59.5260 H   0  0  0  0  0  0  0  0  0  0  0  0
   43.7470   73.1400   57.7270 H   0  0  0  0  0  0  0  0  0  0  0  0
   41.6970   70.1000   63.4870 C   0  0  0  0  0  0  0  0  0  0  0  0
   41.8870   71.0090   62.4620 C   0  0  0  0  0  0  0  0  0  0  0  0
   42.0410   70.5650   61.1640 C   0  0  0  0  0  0  0  0  0  0  0  0
   42.0020   69.2200   60.9120 N   0  0  0  0  0  0  0  0  0  0  0  0
   41.8130   68.3570   61.9560 C   0  0  0  0  0  0  0  0  0  0  0  0
   41.6640   68.8010   63.2240 N   0  0  0  0  0  0  0  0  0  0  0  0
   41.5850   70.5230   64.4810 H   0  0  0  0  0  0  0  0  0  0  0  0
   41.9210   72.0850   62.6270 H   0  0  0  0  0  0  0  0  0  0  0  0
   41.7740   67.2860   61.8140 H   0  0  0  0  0  0  0  0  0  0  0  0
   41.1050   74.0120   57.7950 C   0  0  0  0  0  0  0  0  0  0  0  0
   40.0580   73.7210   57.6280 H   0  0  0  0  0  0  0  0  0  0  0  0
   41.6280   74.2160   56.8520 H   0  0  0  0  0  0  0  0  0  0  0  0
   38.3590   74.5560   59.1600 Br  0  0  0  0  0  0  0  0  0  0  0  0
   39.9540   75.6260   59.2360 C   0  0  0  0  0  0  0  0  0  0  0  0
   41.1420   75.2900   58.5930 C   0  0  0  0  0  0  0  0  0  0  0  0
   42.2500   76.1200   58.7070 C   0  0  0  0  0  0  0  0  0  0  0  0
   43.1400   75.8090   58.1880 H   0  0  0  0  0  0  0  0  0  0  0  0
   42.1360   77.2630   59.4600 C   0  0  0  0  0  0  0  0  0  0  0  0
   43.0120   77.9020   59.5380 H   0  0  0  0  0  0  0  0  0  0  0  0
   40.9690   77.6350   60.1180 C   0  0  0  0  0  3  0  0  0  0  0  0
   39.8970   76.7870   59.9800 C   0  0  0  0  0  3  0  0  0  0  0  0
  1 10  1  0  0  0  0
  2  6  1  0  0  0  0
  2  1  1  0  0  0  0
  3  4  1  0  0  0  0
  3  2  2  0  0  0  0
  4  5  1  0  0  0  0
  5  1  2  0  0  0  0
  7  3  1  0  0  0  0
  8 14  1  0  0  0  0
  9 15  1  0  0  0  0
  9  8  2  0  0  0  0
 10  9  1  0  0  0  0
 11 10  2  0  0  0  0
 11 12  1  0  0  0  0
 12 13  2  0  0  0  0
 13  8  1  0  0  0  0
 16 12  1  0  0  0  0
 17 22  1  0  0  0  0
 17  4  1  0  0  0  0
 18 17  1  0  0  0  0
 19 17  1  0  0  0  0
 20 21  1  0  0  0  0
 21 28  1  0  0  0  0
 22 23  1  0  0  0  0
 22 21  2  0  0  0  0
 23 25  2  0  0  0  0
 24 23  1  0  0  0  0
 25 26  1  0  0  0  0
 25 27  1  0  0  0  0
 28 27  2  0  0  0  0
M  END
>  <minimizedAffinity>
-4.75702286

$$$$

 OpenBabel03212520283D

 28 30  0  0  0  0  0  0  0  0999 V2000
   41.7610   71.3350   61.4920 C   0  0  0  0  0  0  0  0  0  0  0  0
   40.9520   72.1060   62.3010 C   0  0  0  0  0  0  0  0  0  0  0  0
   40.7130   73.2150   61.4540 C   0  0  0  0  0  0  0  0  0  0  0  0
   41.3530   73.0540   60.2580 N   0  0  0  0  0  0  0  0  0  0  0  0
   41.9900   71.8960   60.3020 N   0  0  0  0  0  0  0  0  0  0  0  0
   40.5770   71.9680   63.2890 H   0  0  0  0  0  0  0  0  0  0  0  0
   40.1020   74.0920   61.7000 H   0  0  0  0  0  0  0  0  0  0  0  0
   43.4010   68.6220   63.4770 C   0  0  0  0  0  0  0  0  0  0  0  0
   42.8890   69.8580   63.1260 C   0  0  0  0  0  0  0  0  0  0  0  0
   42.3120   70.0390   61.8830 C   0  0  0  0  0  0  0  0  0  0  0  0
   42.2570   68.9810   61.0160 N   0  0  0  0  0  0  0  0  0  0  0  0
   42.7760   67.7790   61.4050 C   0  0  0  0  0  0  0  0  0  0  0  0
   43.3400   67.6110   62.6230 N   0  0  0  0  0  0  0  0  0  0  0  0
   43.8390   68.5570   64.4690 H   0  0  0  0  0  0  0  0  0  0  0  0
   42.9140   70.7190   63.7920 H   0  0  0  0  0  0  0  0  0  0  0  0
   42.7590   66.9110   60.7600 H   0  0  0  0  0  0  0  0  0  0  0  0
   41.2970   74.0160   59.1880 C   0  0  0  0  0  0  0  0  0  0  0  0
   42.1220   73.8400   58.4840 H   0  0  0  0  0  0  0  0  0  0  0  0
   41.2740   75.0550   59.5400 H   0  0  0  0  0  0  0  0  0  0  0  0
   39.4490   76.5150   59.3710 Br  0  0  0  0  0  0  0  0  0  0  0  0
   39.0840   74.8300   58.5210 C   0  0  0  0  0  0  0  0  0  0  0  0
   39.9860   73.7710   58.4860 C   0  0  0  0  0  0  0  0  0  0  0  0
   39.6410   72.5890   57.8430 C   0  0  0  0  0  0  0  0  0  0  0  0
   40.3790   71.8040   57.8490 H   0  0  0  0  0  0  0  0  0  0  0  0
   38.4040   72.5010   57.2540 C   0  0  0  0  0  0  0  0  0  0  0  0
   38.1500   71.5690   56.7560 H   0  0  0  0  0  0  0  0  0  0  0  0
   37.4740   73.5360   57.2660 C   0  0  0  0  0  3  0  0  0  0  0  0
   37.8540   74.6870   57.9110 C   0  0  0  0  0  3  0  0  0  0  0  0
  1 10  1  0  0  0  0
  1  2  1  0  0  0  0
  2  6  1  0  0  0  0
  3  7  1  0  0  0  0
  3  2  2  0  0  0  0
  4  5  1  0  0  0  0
  4  3  1  0  0  0  0
  5  1  2  0  0  0  0
  8 14  1  0  0  0  0
  9  8  1  0  0  0  0
  9 15  1  0  0  0  0
 10  9  2  0  0  0  0
 11 12  2  0  0  0  0
 11 10  1  0  0  0  0
 12 13  1  0  0  0  0
 13  8  2  0  0  0  0
 16 12  1  0  0  0  0
 17 19  1  0  0  0  0
 17  4  1  0  0  0  0
 18 17  1  0  0  0  0
 21 20  1  0  0  0  0
 22 21  1  0  0  0  0
 22 17  1  0  0  0  0
 23 24  1  0  0  0  0
 23 22  2  0  0  0  0
 25 27  2  0  0  0  0
 25 23  1  0  0  0  0
 26 25  1  0  0  0  0
 27 28  1  0  0  0  0
 28 21  2  0  0  0  0
M  END
>  <minimizedAffinity>
-4.6914072

$$$$

 OpenBabel03212520283D

 28 30  0  0  0  0  0  0  0  0999 V2000
   39.6750   73.2110   55.6250 C   0  0  0  0  0  0  0  0  0  0  0  0
   39.5230   71.8630   55.8760 C   0  0  0  0  0  0  0  0  0  0  0  0
   40.1950   71.7490   57.1180 C   0  0  0  0  0  0  0  0  0  0  0  0
   40.6800   72.9630   57.5150 N   0  0  0  0  0  0  0  0  0  0  0  0
   40.3500   73.8450   56.5860 N   0  0  0  0  0  0  0  0  0  0  0  0
   39.0500   71.0760   55.3360 H   0  0  0  0  0  0  0  0  0  0  0  0
   40.3200   70.8270   57.6990 H   0  0  0  0  0  0  0  0  0  0  0  0
   39.1400   74.2480   52.0720 C   0  0  0  0  0  0  0  0  0  0  0  0
   39.6510   73.6010   53.1820 C   0  0  0  0  0  0  0  0  0  0  0  0
   39.1520   73.8850   54.4380 C   0  0  0  0  0  0  0  0  0  0  0  0
   38.1490   74.8090   54.5620 N   0  0  0  0  0  0  0  0  0  0  0  0
   37.6750   75.4240   53.4370 C   0  0  0  0  0  0  0  0  0  0  0  0
   38.1710   75.1410   52.2120 N   0  0  0  0  0  0  0  0  0  0  0  0
   39.5830   73.9740   51.1190 H   0  0  0  0  0  0  0  0  0  0  0  0
   40.4470   72.8600   53.1190 H   0  0  0  0  0  0  0  0  0  0  0  0
   36.8850   76.1620   53.4770 H   0  0  0  0  0  0  0  0  0  0  0  0
   41.4080   73.1680   58.7400 C   0  0  0  0  0  0  0  0  0  0  0  0
   42.3360   73.7200   58.5340 H   0  0  0  0  0  0  0  0  0  0  0  0
   41.5990   72.2380   59.2920 H   0  0  0  0  0  0  0  0  0  0  0  0
   42.4130   76.1130   58.8520 Br  0  0  0  0  0  0  0  0  0  0  0  0
   40.8870   75.3460   59.7340 C   0  0  0  0  0  0  0  0  0  0  0  0
   40.5140   74.0100   59.6120 C   0  0  0  0  0  0  0  0  0  0  0  0
   39.3900   73.5410   60.2810 C   0  0  0  0  0  0  0  0  0  0  0  0
   39.1510   72.5000   60.1500 H   0  0  0  0  0  0  0  0  0  0  0  0
   38.6740   74.4220   61.0530 C   0  0  0  0  0  0  0  0  0  0  0  0
   37.7980   74.0390   61.5700 H   0  0  0  0  0  0  0  0  0  0  0  0
   39.0120   75.7630   61.2020 C   0  0  0  0  0  3  0  0  0  0  0  0
   40.1280   76.1870   60.5230 C   0  0  0  0  0  3  0  0  0  0  0  0
  1  2  1  0  0  0  0
  1  5  2  0  0  0  0
  2  3  2  0  0  0  0
  3  4  1  0  0  0  0
  3  7  1  0  0  0  0
  4 17  1  0  0  0  0
  5  4  1  0  0  0  0
  6  2  1  0  0  0  0
  8 13  2  0  0  0  0
  8  9  1  0  0  0  0
  9 10  2  0  0  0  0
 10 11  1  0  0  0  0
 10  1  1  0  0  0  0
 12 16  1  0  0  0  0
 12 11  2  0  0  0  0
 13 12  1  0  0  0  0
 14  8  1  0  0  0  0
 15  9  1  0  0  0  0
 17 19  1  0  0  0  0
 17 22  1  0  0  0  0
 18 17  1  0  0  0  0
 20 21  1  0  0  0  0
 21 28  1  0  0  0  0
 22 21  2  0  0  0  0
 22 23  1  0  0  0  0
 23 25  2  0  0  0  0
 24 23  1  0  0  0  0
 25 27  1  0  0  0  0
 25 26  1  0  0  0  0
 28 27  2  0  0  0  0
M  END
>  <minimizedAffinity>
-4.66390944

$$$$
