
 OpenBabel03212520183D

 35 37  0  0  0  0  0  0  0  0999 V2000
   43.1260   83.7920   58.6470 Cl  0  0  0  0  0  0  0  0  0  0  0  0
   41.8590   82.6520   58.2750 C   0  0  0  0  0  0  0  0  0  0  0  0
   40.9560   82.1830   59.2140 C   0  0  0  0  0  0  0  0  0  0  0  0
   40.0160   81.2840   58.7510 C   0  0  0  0  0  0  0  0  0  0  0  0
   39.8880   80.8110   57.4660 C   0  0  0  0  0  0  0  0  0  0  0  0
   40.7900   81.2900   56.5700 C   0  0  0  0  0  0  0  0  0  0  0  0
   40.7450   80.7700   54.8900 Cl  0  0  0  0  0  0  0  0  0  0  0  0
   41.7620   82.1990   56.9720 C   0  0  0  0  0  0  0  0  0  0  0  0
   39.3200   80.9400   59.5330 H   0  0  0  0  0  0  0  0  0  0  0  0
   39.1110   80.1020   57.2080 H   0  0  0  0  0  0  0  0  0  0  0  0
   41.9050   82.1330   61.5690 C   0  0  0  0  0  0  0  0  0  0  0  0
   41.0560   82.6500   60.5540 C   0  0  0  0  0  0  0  0  0  0  0  0
   40.2450   83.7050   60.8900 C   0  0  0  0  0  0  0  0  0  0  0  0
   40.3230   84.1690   62.1690 N   0  0  0  0  0  0  0  0  0  0  0  0
   41.1330   83.6640   63.1080 C   0  0  0  0  0  0  0  0  0  0  0  0
   41.9470   82.6190   62.8030 N   0  0  0  0  0  0  0  0  0  0  0  0
   42.5130   81.3020   61.2280 H   0  0  0  0  0  0  0  0  0  0  0  0
   39.5550   84.1930   60.2220 H   0  0  0  0  0  0  0  0  0  0  0  0
   41.0610   84.3190   64.4370 C   0  0  0  0  0  0  0  0  0  0  0  0
   40.7350   85.6560   64.3410 F   0  0  0  0  0  0  0  0  0  0  0  0
   40.1120   83.6950   65.2280 F   0  0  0  0  0  0  0  0  0  0  0  0
   42.3040   84.2770   65.0760 F   0  0  0  0  0  0  0  0  0  0  0  0
   42.6690   82.6660   56.0200 O   0  0  0  0  0  0  0  0  0  0  0  0
   42.4770   83.8370   55.2670 C   0  0  0  0  0  0  0  0  0  0  0  0
   41.3760   83.9920   55.1840 H   0  0  0  0  0  0  0  0  0  0  0  0
   42.9120   84.6850   55.8330 H   0  0  0  0  0  0  0  0  0  0  0  0
   45.4290   84.9220   55.1400 Br  0  0  0  0  0  0  0  0  0  0  0  0
   44.3250   84.2420   53.7180 C   0  0  0  0  0  0  0  0  0  0  0  0
   43.0220   83.7900   53.9180 C   0  0  0  0  0  0  0  0  0  0  0  0
   42.2860   83.3160   52.8550 C   0  0  0  0  0  0  0  0  0  0  0  0
   41.2750   82.9600   52.9890 H   0  0  0  0  0  0  0  0  0  0  0  0
   42.8230   83.2780   51.5730 C   0  0  0  0  0  0  0  0  0  0  0  0
   42.2960   82.9160   50.6880 H   0  0  0  0  0  0  0  0  0  0  0  0
   44.1160   83.7180   51.3240 C   0  0  0  0  0  3  0  0  0  0  0  0
   44.8170   84.1850   52.4180 C   0  0  0  0  0  3  0  0  0  0  0  0
  2  1  1  0  0  0  0
  2  3  1  0  0  0  0
  3 12  1  0  0  0  0
  4  3  2  0  0  0  0
  4  9  1  0  0  0  0
  5  4  1  0  0  0  0
  6  8  1  0  0  0  0
  6  5  2  0  0  0  0
  7  6  1  0  0  0  0
  8  2  2  0  0  0  0
 10  5  1  0  0  0  0
 11 16  1  0  0  0  0
 12 13  1  0  0  0  0
 12 11  2  0  0  0  0
 13 14  2  0  0  0  0
 14 15  1  0  0  0  0
 15 19  1  0  0  0  0
 16 15  2  0  0  0  0
 17 11  1  0  0  0  0
 18 13  1  0  0  0  0
 19 22  1  0  0  0  0
 19 21  1  0  0  0  0
 20 19  1  0  0  0  0
 23  8  1  0  0  0  0
 24 26  1  0  0  0  0
 24 23  1  0  0  0  0
 25 24  1  0  0  0  0
 28 29  1  0  0  0  0
 28 27  1  0  0  0  0
 29 24  1  0  0  0  0
 30 31  1  0  0  0  0
 30 29  2  0  0  0  0
 32 30  1  0  0  0  0
 33 32  1  0  0  0  0
 34 32  2  0  0  0  0
 34 35  1  0  0  0  0
 35 28  2  0  0  0  0
M  END
>  <minimizedAffinity>
-5.00421858

>  <minimizedRMSD>
0.927366436

$$$$
