
 OpenBabel03212520273D

 28 30  0  0  0  0  0  0  0  0999 V2000
   42.3810   84.9000   60.8720 C   0  0  0  0  0  0  0  0  0  0  0  0
   43.4370   85.2980   61.6650 C   0  0  0  0  0  0  0  0  0  0  0  0
   44.0620   86.2430   60.8160 C   0  0  0  0  0  0  0  0  0  0  0  0
   43.3850   86.3500   59.6330 N   0  0  0  0  0  0  0  0  0  0  0  0
   42.3580   85.5180   59.6890 N   0  0  0  0  0  0  0  0  0  0  0  0
   43.7510   85.0170   62.6430 H   0  0  0  0  0  0  0  0  0  0  0  0
   44.9640   86.8220   61.0510 H   0  0  0  0  0  0  0  0  0  0  0  0
   40.7670   81.6580   61.8090 C   0  0  0  0  0  0  0  0  0  0  0  0
   41.7250   82.5790   61.4230 C   0  0  0  0  0  0  0  0  0  0  0  0
   41.3840   83.9090   61.2740 C   0  0  0  0  0  0  0  0  0  0  0  0
   40.0930   84.2960   61.5140 N   0  0  0  0  0  0  0  0  0  0  0  0
   39.1790   83.3520   61.8920 C   0  0  0  0  0  0  0  0  0  0  0  0
   39.5220   82.0520   62.0350 N   0  0  0  0  0  0  0  0  0  0  0  0
   41.1080   80.6320   61.9040 H   0  0  0  0  0  0  0  0  0  0  0  0
   42.7600   82.3060   61.2270 H   0  0  0  0  0  0  0  0  0  0  0  0
   38.1460   83.6020   62.0940 H   0  0  0  0  0  0  0  0  0  0  0  0
   43.7780   87.2330   58.5670 C   0  0  0  0  0  0  0  0  0  0  0  0
   44.1650   88.1740   58.9850 H   0  0  0  0  0  0  0  0  0  0  0  0
   42.9820   87.4090   57.8330 H   0  0  0  0  0  0  0  0  0  0  0  0
   45.8200   89.2680   57.3920 Br  0  0  0  0  0  0  0  0  0  0  0  0
   45.8500   87.3500   57.2640 C   0  0  0  0  0  0  0  0  0  0  0  0
   44.8880   86.5230   57.8360 C   0  0  0  0  0  0  0  0  0  0  0  0
   44.9910   85.1440   57.7000 C   0  0  0  0  0  0  0  0  0  0  0  0
   44.2180   84.5550   58.1630 H   0  0  0  0  0  0  0  0  0  0  0  0
   46.0540   84.6350   56.9950 C   0  0  0  0  0  0  0  0  0  0  0  0
   46.1190   83.5540   56.8970 H   0  0  0  0  0  0  0  0  0  0  0  0
   47.0350   85.4250   56.4080 C   0  0  0  0  0  3  0  0  0  0  0  0
   46.8970   86.7840   56.5670 C   0  0  0  0  0  3  0  0  0  0  0  0
  1 10  1  0  0  0  0
  1  2  1  0  0  0  0
  2  6  1  0  0  0  0
  3  7  1  0  0  0  0
  3  2  2  0  0  0  0
  4  5  1  0  0  0  0
  4  3  1  0  0  0  0
  5  1  2  0  0  0  0
  8 14  1  0  0  0  0
  8 13  1  0  0  0  0
  9  8  2  0  0  0  0
 10  9  1  0  0  0  0
 10 11  2  0  0  0  0
 11 12  1  0  0  0  0
 12 13  2  0  0  0  0
 12 16  1  0  0  0  0
 15  9  1  0  0  0  0
 17 18  1  0  0  0  0
 17  4  1  0  0  0  0
 19 17  1  0  0  0  0
 21 20  1  0  0  0  0
 21 22  1  0  0  0  0
 22 17  1  0  0  0  0
 23 22  2  0  0  0  0
 23 24  1  0  0  0  0
 25 23  1  0  0  0  0
 26 25  1  0  0  0  0
 27 28  1  0  0  0  0
 27 25  2  0  0  0  0
 28 21  2  0  0  0  0
M  END
>  <minimizedAffinity>
-4.30188036

>  <minimizedRMSD>
0.769746542

$$$$
