
 OpenBabel03212520273D

 28 30  0  0  0  0  0  0  0  0999 V2000
   42.5010   84.9460   60.9720 C   0  0  0  0  0  0  0  0  0  0  0  0
   43.5550   85.3850   61.7470 C   0  0  0  0  0  0  0  0  0  0  0  0
   44.1270   86.3550   60.8880 C   0  0  0  0  0  0  0  0  0  0  0  0
   43.4240   86.4370   59.7190 N   0  0  0  0  0  0  0  0  0  0  0  0
   42.4320   85.5650   59.7910 N   0  0  0  0  0  0  0  0  0  0  0  0
   43.8980   85.1160   62.7190 H   0  0  0  0  0  0  0  0  0  0  0  0
   45.0090   86.9690   61.1080 H   0  0  0  0  0  0  0  0  0  0  0  0
   41.0740   81.7100   62.1890 C   0  0  0  0  0  0  0  0  0  0  0  0
   41.9880   82.6690   61.7930 C   0  0  0  0  0  0  0  0  0  0  0  0
   41.5520   83.9160   61.3910 C   0  0  0  0  0  0  0  0  0  0  0  0
   40.2090   84.1830   61.3930 N   0  0  0  0  0  0  0  0  0  0  0  0
   39.3410   83.2060   61.7920 C   0  0  0  0  0  0  0  0  0  0  0  0
   39.7780   81.9870   62.1830 N   0  0  0  0  0  0  0  0  0  0  0  0
   41.4910   80.7540   62.4910 H   0  0  0  0  0  0  0  0  0  0  0  0
   43.0620   82.4910   61.7820 H   0  0  0  0  0  0  0  0  0  0  0  0
   38.2710   83.3620   61.8120 H   0  0  0  0  0  0  0  0  0  0  0  0
   43.7630   87.3360   58.6470 C   0  0  0  0  0  0  0  0  0  0  0  0
   44.0960   88.2990   59.0600 H   0  0  0  0  0  0  0  0  0  0  0  0
   42.9550   87.4620   57.9150 H   0  0  0  0  0  0  0  0  0  0  0  0
   45.6850   89.4810   57.4650 Br  0  0  0  0  0  0  0  0  0  0  0  0
   45.8230   87.5670   57.3400 C   0  0  0  0  0  0  0  0  0  0  0  0
   44.9100   86.6880   57.9160 C   0  0  0  0  0  0  0  0  0  0  0  0
   45.0910   85.3170   57.7820 C   0  0  0  0  0  0  0  0  0  0  0  0
   44.3530   84.6870   58.2480 H   0  0  0  0  0  0  0  0  0  0  0  0
   46.1790   84.8660   57.0770 C   0  0  0  0  0  0  0  0  0  0  0  0
   46.3050   83.7910   56.9810 H   0  0  0  0  0  0  0  0  0  0  0  0
   47.1130   85.7090   56.4860 C   0  0  0  0  0  3  0  0  0  0  0  0
   46.8990   87.0590   56.6420 C   0  0  0  0  0  3  0  0  0  0  0  0
  1 10  1  0  0  0  0
  1  2  1  0  0  0  0
  2  6  1  0  0  0  0
  3  7  1  0  0  0  0
  3  2  2  0  0  0  0
  4  5  1  0  0  0  0
  4  3  1  0  0  0  0
  5  1  2  0  0  0  0
  8 14  1  0  0  0  0
  9  8  2  0  0  0  0
 10 11  2  0  0  0  0
 10  9  1  0  0  0  0
 11 12  1  0  0  0  0
 12 16  1  0  0  0  0
 12 13  2  0  0  0  0
 13  8  1  0  0  0  0
 15  9  1  0  0  0  0
 17 18  1  0  0  0  0
 17  4  1  0  0  0  0
 19 17  1  0  0  0  0
 21 20  1  0  0  0  0
 21 22  1  0  0  0  0
 22 17  1  0  0  0  0
 23 22  2  0  0  0  0
 23 24  1  0  0  0  0
 25 23  1  0  0  0  0
 26 25  1  0  0  0  0
 27 28  1  0  0  0  0
 27 25  2  0  0  0  0
 28 21  2  0  0  0  0
M  END
>  <minimizedAffinity>
-4.30120945

>  <minimizedRMSD>
0.64699918

$$$$
