
 OpenBabel03212520183D

 35 37  0  0  0  0  0  0  0  0999 V2000
   43.1250   83.7920   58.6460 Cl  0  0  0  0  0  0  0  0  0  0  0  0
   41.8580   82.6510   58.2750 C   0  0  0  0  0  0  0  0  0  0  0  0
   40.9550   82.1830   59.2140 C   0  0  0  0  0  0  0  0  0  0  0  0
   40.0150   81.2830   58.7510 C   0  0  0  0  0  0  0  0  0  0  0  0
   39.8870   80.8100   57.4660 C   0  0  0  0  0  0  0  0  0  0  0  0
   40.7890   81.2900   56.5690 C   0  0  0  0  0  0  0  0  0  0  0  0
   40.7440   80.7690   54.8900 Cl  0  0  0  0  0  0  0  0  0  0  0  0
   41.7610   82.1990   56.9720 C   0  0  0  0  0  0  0  0  0  0  0  0
   39.3190   80.9400   59.5330 H   0  0  0  0  0  0  0  0  0  0  0  0
   39.1100   80.1020   57.2080 H   0  0  0  0  0  0  0  0  0  0  0  0
   41.9070   82.1350   61.5680 C   0  0  0  0  0  0  0  0  0  0  0  0
   41.0550   82.6500   60.5540 C   0  0  0  0  0  0  0  0  0  0  0  0
   40.2420   83.7040   60.8900 C   0  0  0  0  0  0  0  0  0  0  0  0
   40.3220   84.1680   62.1690 N   0  0  0  0  0  0  0  0  0  0  0  0
   41.1330   83.6640   63.1080 C   0  0  0  0  0  0  0  0  0  0  0  0
   41.9490   82.6210   62.8020 N   0  0  0  0  0  0  0  0  0  0  0  0
   42.5150   81.3050   61.2260 H   0  0  0  0  0  0  0  0  0  0  0  0
   39.5520   84.1900   60.2230 H   0  0  0  0  0  0  0  0  0  0  0  0
   41.0610   84.3190   64.4360 C   0  0  0  0  0  0  0  0  0  0  0  0
   40.7360   85.6560   64.3410 F   0  0  0  0  0  0  0  0  0  0  0  0
   40.1110   83.6950   65.2270 F   0  0  0  0  0  0  0  0  0  0  0  0
   42.3030   84.2760   65.0760 F   0  0  0  0  0  0  0  0  0  0  0  0
   42.6680   82.6650   56.0200 O   0  0  0  0  0  0  0  0  0  0  0  0
   42.4760   83.8350   55.2650 C   0  0  0  0  0  0  0  0  0  0  0  0
   41.3740   83.9900   55.1820 H   0  0  0  0  0  0  0  0  0  0  0  0
   42.9100   84.6840   55.8320 H   0  0  0  0  0  0  0  0  0  0  0  0
   45.4280   84.9200   55.1390 Br  0  0  0  0  0  0  0  0  0  0  0  0
   44.3240   84.2400   53.7170 C   0  0  0  0  0  0  0  0  0  0  0  0
   43.0220   83.7890   53.9170 C   0  0  0  0  0  0  0  0  0  0  0  0
   42.2840   83.3140   52.8530 C   0  0  0  0  0  0  0  0  0  0  0  0
   41.2740   82.9600   52.9880 H   0  0  0  0  0  0  0  0  0  0  0  0
   42.8220   83.2780   51.5720 C   0  0  0  0  0  0  0  0  0  0  0  0
   42.2960   82.9160   50.6870 H   0  0  0  0  0  0  0  0  0  0  0  0
   44.1160   83.7160   51.3250 C   0  0  0  0  0  3  0  0  0  0  0  0
   44.8180   84.1840   52.4170 C   0  0  0  0  0  3  0  0  0  0  0  0
  2  1  1  0  0  0  0
  2  3  1  0  0  0  0
  3 12  1  0  0  0  0
  4  3  2  0  0  0  0
  4  9  1  0  0  0  0
  5  4  1  0  0  0  0
  6  8  1  0  0  0  0
  6  5  2  0  0  0  0
  7  6  1  0  0  0  0
  8  2  2  0  0  0  0
 10  5  1  0  0  0  0
 11 16  1  0  0  0  0
 12 13  1  0  0  0  0
 12 11  2  0  0  0  0
 13 14  2  0  0  0  0
 14 15  1  0  0  0  0
 15 19  1  0  0  0  0
 16 15  2  0  0  0  0
 17 11  1  0  0  0  0
 18 13  1  0  0  0  0
 19 22  1  0  0  0  0
 19 21  1  0  0  0  0
 20 19  1  0  0  0  0
 23  8  1  0  0  0  0
 24 26  1  0  0  0  0
 24 23  1  0  0  0  0
 25 24  1  0  0  0  0
 28 29  1  0  0  0  0
 28 27  1  0  0  0  0
 29 24  1  0  0  0  0
 30 31  1  0  0  0  0
 30 29  2  0  0  0  0
 32 30  1  0  0  0  0
 33 32  1  0  0  0  0
 34 32  2  0  0  0  0
 34 35  1  0  0  0  0
 35 28  2  0  0  0  0
M  END
>  <minimizedAffinity>
-5.00421381

>  <minimizedRMSD>
1.04481065

$$$$
