
 OpenBabel03212520183D

 35 37  0  0  0  0  0  0  0  0999 V2000
   43.1320   83.7120   58.6560 Cl  0  0  0  0  0  0  0  0  0  0  0  0
   41.8450   82.5980   58.2720 C   0  0  0  0  0  0  0  0  0  0  0  0
   40.9250   82.1470   59.2030 C   0  0  0  0  0  0  0  0  0  0  0  0
   39.9710   81.2670   58.7300 C   0  0  0  0  0  0  0  0  0  0  0  0
   39.8430   80.8000   57.4430 C   0  0  0  0  0  0  0  0  0  0  0  0
   40.7610   81.2620   56.5550 C   0  0  0  0  0  0  0  0  0  0  0  0
   40.7190   80.7470   54.8740 Cl  0  0  0  0  0  0  0  0  0  0  0  0
   41.7480   82.1510   56.9670 C   0  0  0  0  0  0  0  0  0  0  0  0
   39.2610   80.9360   59.5060 H   0  0  0  0  0  0  0  0  0  0  0  0
   39.0540   80.1080   57.1780 H   0  0  0  0  0  0  0  0  0  0  0  0
   41.7980   82.0270   61.5850 C   0  0  0  0  0  0  0  0  0  0  0  0
   41.0240   82.6080   60.5450 C   0  0  0  0  0  0  0  0  0  0  0  0
   40.2940   83.7290   60.8550 C   0  0  0  0  0  0  0  0  0  0  0  0
   40.3740   84.1900   62.1350 N   0  0  0  0  0  0  0  0  0  0  0  0
   41.1110   83.6220   63.0980 C   0  0  0  0  0  0  0  0  0  0  0  0
   41.8430   82.5120   62.8190 N   0  0  0  0  0  0  0  0  0  0  0  0
   42.3440   81.1470   61.2630 H   0  0  0  0  0  0  0  0  0  0  0  0
   39.6670   84.2690   60.1660 H   0  0  0  0  0  0  0  0  0  0  0  0
   41.0550   84.2860   64.4230 C   0  0  0  0  0  0  0  0  0  0  0  0
   40.7340   85.6240   64.3230 F   0  0  0  0  0  0  0  0  0  0  0  0
   40.1100   83.6710   65.2280 F   0  0  0  0  0  0  0  0  0  0  0  0
   42.3030   84.2420   65.0520 F   0  0  0  0  0  0  0  0  0  0  0  0
   42.6720   82.6010   56.0230 O   0  0  0  0  0  0  0  0  0  0  0  0
   42.5020   83.7680   55.2590 C   0  0  0  0  0  0  0  0  0  0  0  0
   41.6670   83.5700   54.5470 H   0  0  0  0  0  0  0  0  0  0  0  0
   42.1980   84.5850   55.9440 H   0  0  0  0  0  0  0  0  0  0  0  0
   42.1510   83.1360   52.1960 Br  0  0  0  0  0  0  0  0  0  0  0  0
   43.6460   83.9380   53.1050 C   0  0  0  0  0  0  0  0  0  0  0  0
   43.6670   84.1610   54.4790 C   0  0  0  0  0  0  0  0  0  0  0  0
   44.7710   84.7400   55.0670 C   0  0  0  0  0  0  0  0  0  0  0  0
   44.8070   84.9210   56.1310 H   0  0  0  0  0  0  0  0  0  0  0  0
   45.8730   85.1090   54.3070 C   0  0  0  0  0  0  0  0  0  0  0  0
   46.7790   85.5710   54.7060 H   0  0  0  0  0  0  0  0  0  0  0  0
   45.8980   84.9070   52.9340 C   0  0  0  0  0  3  0  0  0  0  0  0
   44.7730   84.3250   52.3860 C   0  0  0  0  0  3  0  0  0  0  0  0
  2  1  1  0  0  0  0
  2  3  1  0  0  0  0
  3 12  1  0  0  0  0
  4  3  2  0  0  0  0
  4  9  1  0  0  0  0
  5  4  1  0  0  0  0
  6  8  1  0  0  0  0
  6  5  2  0  0  0  0
  7  6  1  0  0  0  0
  8  2  2  0  0  0  0
 10  5  1  0  0  0  0
 11 16  1  0  0  0  0
 12 13  1  0  0  0  0
 12 11  2  0  0  0  0
 13 14  2  0  0  0  0
 14 15  1  0  0  0  0
 15 19  1  0  0  0  0
 16 15  2  0  0  0  0
 17 11  1  0  0  0  0
 18 13  1  0  0  0  0
 19 22  1  0  0  0  0
 19 21  1  0  0  0  0
 20 19  1  0  0  0  0
 23  8  1  0  0  0  0
 24 26  1  0  0  0  0
 24 23  1  0  0  0  0
 25 24  1  0  0  0  0
 27 28  1  0  0  0  0
 28 29  1  0  0  0  0
 29 30  2  0  0  0  0
 29 24  1  0  0  0  0
 30 31  1  0  0  0  0
 32 33  1  0  0  0  0
 32 30  1  0  0  0  0
 34 32  2  0  0  0  0
 35 34  1  0  0  0  0
 35 28  2  0  0  0  0
M  END
>  <minimizedAffinity>
-4.94382906

>  <minimizedRMSD>
0.997354567

$$$$
