
 OpenBabel03212520273D

 28 30  0  0  0  0  0  0  0  0999 V2000
   42.5120   84.8630   60.7950 C   0  0  0  0  0  0  0  0  0  0  0  0
   43.4430   85.4670   61.6150 C   0  0  0  0  0  0  0  0  0  0  0  0
   44.2090   86.1810   60.6620 C   0  0  0  0  0  0  0  0  0  0  0  0
   43.7220   85.9770   59.4020 N   0  0  0  0  0  0  0  0  0  0  0  0
   42.6830   85.1650   59.5060 N   0  0  0  0  0  0  0  0  0  0  0  0
   43.5980   85.4450   62.6690 H   0  0  0  0  0  0  0  0  0  0  0  0
   45.0750   86.8180   60.8810 H   0  0  0  0  0  0  0  0  0  0  0  0
   40.7060   81.9060   62.2040 C   0  0  0  0  0  0  0  0  0  0  0  0
   41.7290   82.7190   61.7510 C   0  0  0  0  0  0  0  0  0  0  0  0
   41.4470   83.9850   61.2750 C   0  0  0  0  0  0  0  0  0  0  0  0
   40.1470   84.4160   61.2630 N   0  0  0  0  0  0  0  0  0  0  0  0
   39.1690   83.5780   61.7200 C   0  0  0  0  0  0  0  0  0  0  0  0
   39.4540   82.3400   62.1830 N   0  0  0  0  0  0  0  0  0  0  0  0
   41.0040   80.9250   62.5620 H   0  0  0  0  0  0  0  0  0  0  0  0
   42.7730   82.4090   61.7490 H   0  0  0  0  0  0  0  0  0  0  0  0
   38.1260   83.8670   61.7320 H   0  0  0  0  0  0  0  0  0  0  0  0
   44.2910   86.5730   58.2220 C   0  0  0  0  0  0  0  0  0  0  0  0
   44.5580   87.6200   58.4250 H   0  0  0  0  0  0  0  0  0  0  0  0
   43.6500   86.4790   57.3360 H   0  0  0  0  0  0  0  0  0  0  0  0
   43.7300   84.2860   56.1840 Br  0  0  0  0  0  0  0  0  0  0  0  0
   45.3940   84.7340   57.0340 C   0  0  0  0  0  0  0  0  0  0  0  0
   45.5440   85.7890   57.9310 C   0  0  0  0  0  0  0  0  0  0  0  0
   46.7880   86.0460   58.4950 C   0  0  0  0  0  0  0  0  0  0  0  0
   46.8420   86.8740   59.1810 H   0  0  0  0  0  0  0  0  0  0  0  0
   47.8430   85.2400   58.1470 C   0  0  0  0  0  0  0  0  0  0  0  0
   48.8090   85.4550   58.5990 H   0  0  0  0  0  0  0  0  0  0  0  0
   47.7370   84.1780   57.2570 C   0  0  0  0  0  3  0  0  0  0  0  0
   46.4910   83.9580   56.7200 C   0  0  0  0  0  3  0  0  0  0  0  0
  1 10  1  0  0  0  0
  1  2  1  0  0  0  0
  2  6  1  0  0  0  0
  3  7  1  0  0  0  0
  3  2  2  0  0  0  0
  4  5  1  0  0  0  0
  4  3  1  0  0  0  0
  5  1  2  0  0  0  0
  8 14  1  0  0  0  0
  9  8  2  0  0  0  0
 10  9  1  0  0  0  0
 11 10  2  0  0  0  0
 11 12  1  0  0  0  0
 12 16  1  0  0  0  0
 12 13  2  0  0  0  0
 13  8  1  0  0  0  0
 15  9  1  0  0  0  0
 17 18  1  0  0  0  0
 17  4  1  0  0  0  0
 19 17  1  0  0  0  0
 20 21  1  0  0  0  0
 21 22  1  0  0  0  0
 22 17  1  0  0  0  0
 22 23  2  0  0  0  0
 23 24  1  0  0  0  0
 25 23  1  0  0  0  0
 25 26  1  0  0  0  0
 27 25  2  0  0  0  0
 28 21  2  0  0  0  0
 28 27  1  0  0  0  0
M  END
>  <minimizedAffinity>
-3.86321139

>  <minimizedRMSD>
0.910861731

$$$$
