
 OpenBabel03212520183D

 35 37  0  0  0  0  0  0  0  0999 V2000
   43.1260   83.7930   58.6480 Cl  0  0  0  0  0  0  0  0  0  0  0  0
   41.8590   82.6530   58.2760 C   0  0  0  0  0  0  0  0  0  0  0  0
   40.9560   82.1840   59.2150 C   0  0  0  0  0  0  0  0  0  0  0  0
   40.0160   81.2840   58.7510 C   0  0  0  0  0  0  0  0  0  0  0  0
   39.8890   80.8120   57.4660 C   0  0  0  0  0  0  0  0  0  0  0  0
   40.7900   81.2910   56.5700 C   0  0  0  0  0  0  0  0  0  0  0  0
   40.7460   80.7710   54.8910 Cl  0  0  0  0  0  0  0  0  0  0  0  0
   41.7620   82.2000   56.9730 C   0  0  0  0  0  0  0  0  0  0  0  0
   39.3200   80.9410   59.5330 H   0  0  0  0  0  0  0  0  0  0  0  0
   39.1120   80.1030   57.2090 H   0  0  0  0  0  0  0  0  0  0  0  0
   41.9060   82.1350   61.5700 C   0  0  0  0  0  0  0  0  0  0  0  0
   41.0560   82.6510   60.5550 C   0  0  0  0  0  0  0  0  0  0  0  0
   40.2440   83.7050   60.8910 C   0  0  0  0  0  0  0  0  0  0  0  0
   40.3220   84.1700   62.1700 N   0  0  0  0  0  0  0  0  0  0  0  0
   41.1330   83.6650   63.1090 C   0  0  0  0  0  0  0  0  0  0  0  0
   41.9470   82.6210   62.8040 N   0  0  0  0  0  0  0  0  0  0  0  0
   42.5140   81.3050   61.2280 H   0  0  0  0  0  0  0  0  0  0  0  0
   39.5540   84.1920   60.2230 H   0  0  0  0  0  0  0  0  0  0  0  0
   41.0600   84.3190   64.4380 C   0  0  0  0  0  0  0  0  0  0  0  0
   40.7340   85.6570   64.3420 F   0  0  0  0  0  0  0  0  0  0  0  0
   40.1110   83.6950   65.2280 F   0  0  0  0  0  0  0  0  0  0  0  0
   42.3020   84.2770   65.0780 F   0  0  0  0  0  0  0  0  0  0  0  0
   42.6700   82.6670   56.0210 O   0  0  0  0  0  0  0  0  0  0  0  0
   42.4780   83.8370   55.2670 C   0  0  0  0  0  0  0  0  0  0  0  0
   41.3760   83.9930   55.1840 H   0  0  0  0  0  0  0  0  0  0  0  0
   42.9120   84.6860   55.8340 H   0  0  0  0  0  0  0  0  0  0  0  0
   45.4300   84.9220   55.1400 Br  0  0  0  0  0  0  0  0  0  0  0  0
   44.3260   84.2420   53.7180 C   0  0  0  0  0  0  0  0  0  0  0  0
   43.0230   83.7900   53.9180 C   0  0  0  0  0  0  0  0  0  0  0  0
   42.2860   83.3160   52.8550 C   0  0  0  0  0  0  0  0  0  0  0  0
   41.2750   82.9620   52.9900 H   0  0  0  0  0  0  0  0  0  0  0  0
   42.8220   83.2790   51.5740 C   0  0  0  0  0  0  0  0  0  0  0  0
   42.2960   82.9170   50.6890 H   0  0  0  0  0  0  0  0  0  0  0  0
   44.1160   83.7180   51.3260 C   0  0  0  0  0  3  0  0  0  0  0  0
   44.8180   84.1850   52.4180 C   0  0  0  0  0  3  0  0  0  0  0  0
  2  1  1  0  0  0  0
  2  3  1  0  0  0  0
  3 12  1  0  0  0  0
  4  3  2  0  0  0  0
  4  9  1  0  0  0  0
  5  4  1  0  0  0  0
  6  8  1  0  0  0  0
  6  5  2  0  0  0  0
  7  6  1  0  0  0  0
  8  2  2  0  0  0  0
 10  5  1  0  0  0  0
 11 16  1  0  0  0  0
 12 13  1  0  0  0  0
 12 11  2  0  0  0  0
 13 14  2  0  0  0  0
 14 15  1  0  0  0  0
 15 19  1  0  0  0  0
 16 15  2  0  0  0  0
 17 11  1  0  0  0  0
 18 13  1  0  0  0  0
 19 22  1  0  0  0  0
 19 21  1  0  0  0  0
 20 19  1  0  0  0  0
 23  8  1  0  0  0  0
 24 26  1  0  0  0  0
 24 23  1  0  0  0  0
 25 24  1  0  0  0  0
 28 29  1  0  0  0  0
 28 27  1  0  0  0  0
 29 24  1  0  0  0  0
 30 31  1  0  0  0  0
 30 29  2  0  0  0  0
 32 30  1  0  0  0  0
 33 32  1  0  0  0  0
 34 32  2  0  0  0  0
 34 35  1  0  0  0  0
 35 28  2  0  0  0  0
M  END
>  <minimizedAffinity>
-5.00380611

>  <minimizedRMSD>
0.896054208

$$$$
