
 OpenBabel03212520183D

 35 37  0  0  0  0  0  0  0  0999 V2000
   43.1320   83.7130   58.6530 Cl  0  0  0  0  0  0  0  0  0  0  0  0
   41.8450   82.5990   58.2690 C   0  0  0  0  0  0  0  0  0  0  0  0
   40.9260   82.1470   59.2000 C   0  0  0  0  0  0  0  0  0  0  0  0
   39.9710   81.2680   58.7280 C   0  0  0  0  0  0  0  0  0  0  0  0
   39.8440   80.8000   57.4410 C   0  0  0  0  0  0  0  0  0  0  0  0
   40.7610   81.2630   56.5530 C   0  0  0  0  0  0  0  0  0  0  0  0
   40.7190   80.7480   54.8720 Cl  0  0  0  0  0  0  0  0  0  0  0  0
   41.7490   82.1510   56.9640 C   0  0  0  0  0  0  0  0  0  0  0  0
   39.2620   80.9360   59.5040 H   0  0  0  0  0  0  0  0  0  0  0  0
   39.0540   80.1080   57.1760 H   0  0  0  0  0  0  0  0  0  0  0  0
   41.8010   82.0280   61.5820 C   0  0  0  0  0  0  0  0  0  0  0  0
   41.0250   82.6080   60.5420 C   0  0  0  0  0  0  0  0  0  0  0  0
   40.2930   83.7280   60.8530 C   0  0  0  0  0  0  0  0  0  0  0  0
   40.3730   84.1880   62.1330 N   0  0  0  0  0  0  0  0  0  0  0  0
   41.1120   83.6220   63.0960 C   0  0  0  0  0  0  0  0  0  0  0  0
   41.8470   82.5130   62.8160 N   0  0  0  0  0  0  0  0  0  0  0  0
   42.3480   81.1500   61.2590 H   0  0  0  0  0  0  0  0  0  0  0  0
   39.6650   84.2670   60.1650 H   0  0  0  0  0  0  0  0  0  0  0  0
   41.0560   84.2850   64.4210 C   0  0  0  0  0  0  0  0  0  0  0  0
   40.7360   85.6240   64.3210 F   0  0  0  0  0  0  0  0  0  0  0  0
   40.1110   83.6710   65.2250 F   0  0  0  0  0  0  0  0  0  0  0  0
   42.3040   84.2410   65.0500 F   0  0  0  0  0  0  0  0  0  0  0  0
   42.6720   82.6020   56.0200 O   0  0  0  0  0  0  0  0  0  0  0  0
   42.5010   83.7670   55.2540 C   0  0  0  0  0  0  0  0  0  0  0  0
   41.6650   83.5670   54.5430 H   0  0  0  0  0  0  0  0  0  0  0  0
   42.1960   84.5850   55.9370 H   0  0  0  0  0  0  0  0  0  0  0  0
   42.1450   83.1360   52.1910 Br  0  0  0  0  0  0  0  0  0  0  0  0
   43.6410   83.9370   53.0970 C   0  0  0  0  0  0  0  0  0  0  0  0
   43.6640   84.1600   54.4730 C   0  0  0  0  0  0  0  0  0  0  0  0
   44.7680   84.7390   55.0600 C   0  0  0  0  0  0  0  0  0  0  0  0
   44.8050   84.9200   56.1240 H   0  0  0  0  0  0  0  0  0  0  0  0
   45.8700   85.1090   54.2970 C   0  0  0  0  0  0  0  0  0  0  0  0
   46.7760   85.5700   54.6960 H   0  0  0  0  0  0  0  0  0  0  0  0
   45.8930   84.9060   52.9240 C   0  0  0  0  0  3  0  0  0  0  0  0
   44.7680   84.3240   52.3790 C   0  0  0  0  0  3  0  0  0  0  0  0
  2  1  1  0  0  0  0
  2  3  1  0  0  0  0
  3 12  1  0  0  0  0
  4  3  2  0  0  0  0
  4  9  1  0  0  0  0
  5  4  1  0  0  0  0
  6  8  1  0  0  0  0
  6  5  2  0  0  0  0
  7  6  1  0  0  0  0
  8  2  2  0  0  0  0
 10  5  1  0  0  0  0
 11 16  1  0  0  0  0
 12 13  1  0  0  0  0
 12 11  2  0  0  0  0
 13 14  2  0  0  0  0
 14 15  1  0  0  0  0
 15 19  1  0  0  0  0
 16 15  2  0  0  0  0
 17 11  1  0  0  0  0
 18 13  1  0  0  0  0
 19 22  1  0  0  0  0
 19 21  1  0  0  0  0
 20 19  1  0  0  0  0
 23  8  1  0  0  0  0
 24 26  1  0  0  0  0
 24 23  1  0  0  0  0
 25 24  1  0  0  0  0
 27 28  1  0  0  0  0
 28 29  1  0  0  0  0
 29 30  2  0  0  0  0
 29 24  1  0  0  0  0
 30 31  1  0  0  0  0
 32 33  1  0  0  0  0
 32 30  1  0  0  0  0
 34 32  2  0  0  0  0
 35 34  1  0  0  0  0
 35 28  2  0  0  0  0
M  END
>  <minimizedAffinity>
-4.94193125

>  <minimizedRMSD>
0.858912051

$$$$
