
 OpenBabel03212520263D

 28 30  0  0  0  0  0  0  0  0999 V2000
   42.7420   84.8180   61.1280 C   0  0  0  0  0  0  0  0  0  0  0  0
   43.4230   85.5460   62.0830 C   0  0  0  0  0  0  0  0  0  0  0  0
   44.3750   86.2130   61.2750 C   0  0  0  0  0  0  0  0  0  0  0  0
   44.2200   85.8680   59.9620 N   0  0  0  0  0  0  0  0  0  0  0  0
   43.2140   85.0130   59.8940 N   0  0  0  0  0  0  0  0  0  0  0  0
   43.3160   85.6280   63.1400 H   0  0  0  0  0  0  0  0  0  0  0  0
   45.1400   86.9150   61.6300 H   0  0  0  0  0  0  0  0  0  0  0  0
   40.7600   81.8100   62.1350 C   0  0  0  0  0  0  0  0  0  0  0  0
   41.8360   82.6340   61.8570 C   0  0  0  0  0  0  0  0  0  0  0  0
   41.6210   83.9280   61.4240 C   0  0  0  0  0  0  0  0  0  0  0  0
   40.3350   84.3760   61.2790 N   0  0  0  0  0  0  0  0  0  0  0  0
   39.3030   83.5270   61.5640 C   0  0  0  0  0  0  0  0  0  0  0  0
   39.5230   82.2610   61.9860 N   0  0  0  0  0  0  0  0  0  0  0  0
   41.0070   80.8070   62.4690 H   0  0  0  0  0  0  0  0  0  0  0  0
   42.8700   82.3110   61.9640 H   0  0  0  0  0  0  0  0  0  0  0  0
   38.2690   83.8280   61.4670 H   0  0  0  0  0  0  0  0  0  0  0  0
   45.0400   86.3870   58.9000 C   0  0  0  0  0  0  0  0  0  0  0  0
   45.4850   87.3450   59.2050 H   0  0  0  0  0  0  0  0  0  0  0  0
   44.5100   86.4690   57.9420 H   0  0  0  0  0  0  0  0  0  0  0  0
   44.4730   84.6070   56.4090 Br  0  0  0  0  0  0  0  0  0  0  0  0
   45.9710   84.5200   57.6120 C   0  0  0  0  0  0  0  0  0  0  0  0
   46.1380   85.3740   58.6990 C   0  0  0  0  0  0  0  0  0  0  0  0
   47.2550   85.2450   59.5140 C   0  0  0  0  0  0  0  0  0  0  0  0
   47.3310   85.9320   60.3400 H   0  0  0  0  0  0  0  0  0  0  0  0
   48.1710   84.2660   59.2180 C   0  0  0  0  0  0  0  0  0  0  0  0
   49.0390   84.1780   59.8670 H   0  0  0  0  0  0  0  0  0  0  0  0
   48.0430   83.3950   58.1430 C   0  0  0  0  0  3  0  0  0  0  0  0
   46.9230   83.5550   57.3610 C   0  0  0  0  0  3  0  0  0  0  0  0
  1 10  1  0  0  0  0
  1  2  1  0  0  0  0
  2  6  1  0  0  0  0
  3  7  1  0  0  0  0
  3  2  2  0  0  0  0
  4  3  1  0  0  0  0
  5  4  1  0  0  0  0
  5  1  2  0  0  0  0
  8 14  1  0  0  0  0
  9 15  1  0  0  0  0
  9  8  2  0  0  0  0
 10  9  1  0  0  0  0
 11 10  2  0  0  0  0
 11 12  1  0  0  0  0
 12 13  2  0  0  0  0
 13  8  1  0  0  0  0
 16 12  1  0  0  0  0
 17 18  1  0  0  0  0
 17  4  1  0  0  0  0
 19 17  1  0  0  0  0
 20 21  1  0  0  0  0
 21 22  1  0  0  0  0
 22 17  1  0  0  0  0
 22 23  2  0  0  0  0
 23 24  1  0  0  0  0
 25 23  1  0  0  0  0
 25 26  1  0  0  0  0
 27 25  2  0  0  0  0
 28 21  2  0  0  0  0
 28 27  1  0  0  0  0
M  END
>  <minimizedAffinity>
-3.89304733

>  <minimizedRMSD>
1.30001175

$$$$
