
 OpenBabel03212520493D

 28 30  0  0  0  0  0  0  0  0999 V2000
   41.6450   83.8900   61.4380 C   0  0  0  0  0  0  0  0  0  0  0  0
   41.3060   84.2340   62.7240 C   0  0  0  0  0  0  0  0  0  0  0  0
   40.7760   83.3030   63.6260 C   0  0  0  0  0  0  0  0  0  0  0  0
   40.5930   82.0230   63.2180 N   0  0  0  0  0  0  0  0  0  0  0  0
   40.9290   81.7040   61.9630 C   0  0  0  0  0  0  0  0  0  0  0  0
   41.4440   82.6100   61.0860 N   0  0  0  0  0  0  0  0  0  0  0  0
   41.4690   85.2740   63.0110 H   0  0  0  0  0  0  0  0  0  0  0  0
   40.5290   83.6530   64.6320 H   0  0  0  0  0  0  0  0  0  0  0  0
   43.7520   86.5100   59.9930 C   0  0  0  0  0  0  0  0  0  0  0  0
   43.2110   86.6400   58.7160 C   0  0  0  0  0  0  0  0  0  0  0  0
   42.1240   85.8320   58.3440 C   0  0  0  0  0  0  0  0  0  0  0  0
   41.6690   84.9610   59.2810 N   0  0  0  0  0  0  0  0  0  0  0  0
   42.1990   84.8540   60.4930 C   0  0  0  0  0  0  0  0  0  0  0  0
   43.2360   85.6170   60.8640 N   0  0  0  0  0  0  0  0  0  0  0  0
   44.8360   87.3860   60.2230 N   0  0  0  0  0  0  0  0  0  0  0  0
   43.5270   87.3090   57.9320 H   0  0  0  0  0  0  0  0  0  0  0  0
   41.6670   85.8920   57.3660 H   0  0  0  0  0  0  0  0  0  0  0  0
   44.6810   88.1310   60.9490 H   0  0  0  0  0  0  0  0  0  0  0  0
   45.7740   87.3780   59.7530 H   0  0  0  0  0  0  0  0  0  0  0  0
   40.1830   81.5370   59.0120 Br  0  0  0  0  0  0  0  0  0  0  0  0
   40.3970   80.0530   60.1940 C   0  0  0  0  0  0  0  0  0  0  0  0
   40.7400   80.3290   61.5040 C   0  0  0  0  0  0  0  0  0  0  0  0
   40.9040   79.3010   62.3890 C   0  0  0  0  0  0  0  0  0  0  0  0
   41.1690   79.4320   63.4230 H   0  0  0  0  0  0  0  0  0  0  0  0
   40.7270   77.9850   61.9720 C   0  0  0  0  0  0  0  0  0  0  0  0
   40.8490   77.1430   62.6420 H   0  0  0  0  0  0  0  0  0  0  0  0
   40.3870   77.7560   60.6580 C   0  0  0  0  0  3  0  0  0  0  0  0
   40.2200   78.7710   59.7650 C   0  0  0  0  0  3  0  0  0  0  0  0
  1  2  1  0  0  0  0
  2  7  1  0  0  0  0
  2  3  2  0  0  0  0
  3  8  1  0  0  0  0
  4  3  1  0  0  0  0
  5  4  2  0  0  0  0
  6  1  2  0  0  0  0
  6  5  1  0  0  0  0
  9 15  1  0  0  0  0
  9 14  1  0  0  0  0
 10  9  2  0  0  0  0
 11 10  1  0  0  0  0
 11 12  2  0  0  0  0
 12 13  1  0  0  0  0
 13 14  2  0  0  0  0
 13  1  1  0  0  0  0
 15 18  1  0  0  0  0
 16 10  1  0  0  0  0
 17 11  1  0  0  0  0
 19 15  1  0  0  0  0
 20 21  1  0  0  0  0
 21 22  1  0  0  0  0
 22  5  1  0  0  0  0
 22 23  2  0  0  0  0
 23 24  1  0  0  0  0
 25 23  1  0  0  0  0
 25 26  1  0  0  0  0
 27 25  2  0  0  0  0
 28 21  2  0  0  0  0
 28 27  1  0  0  0  0
M  END
>  <minimizedAffinity>
-5.74760199

>  <minimizedRMSD>
0.671519756

$$$$
