
 OpenBabel03212519593D

 18 19  0  0  0  0  0  0  0  0999 V2000
   40.8640   82.2220   60.5140 C   0  0  0  0  0  0  0  0  0  0  0  0
   39.5950   81.6350   60.2800 C   0  0  0  0  0  0  0  0  0  0  0  0
   39.4190   80.9620   59.0700 C   0  0  0  0  0  0  0  0  0  0  0  0
   40.4610   80.9000   58.1810 N   0  0  0  0  0  0  0  0  0  0  0  0
   41.6490   81.4700   58.4430 C   0  0  0  0  0  0  0  0  0  0  0  0
   41.8570   82.1330   59.6080 N   0  0  0  0  0  0  0  0  0  0  0  0
   40.9790   82.7380   61.4580 H   0  0  0  0  0  0  0  0  0  0  0  0
   38.7830   81.6840   60.9710 H   0  0  0  0  0  0  0  0  0  0  0  0
   38.4850   80.4890   58.8140 H   0  0  0  0  0  0  0  0  0  0  0  0
   42.5120   78.6000   57.8900 Br  0  0  0  0  0  0  0  0  0  0  0  0
   43.2420   80.1560   57.1040 C   0  0  0  0  0  0  0  0  0  0  0  0
   42.7330   81.3800   57.4690 C   0  0  0  0  0  0  0  0  0  0  0  0
   43.2410   82.5370   56.9170 C   0  0  0  0  0  0  0  0  0  0  0  0
   42.8170   83.4890   57.2250 H   0  0  0  0  0  0  0  0  0  0  0  0
   44.2720   82.5210   55.9840 C   0  0  0  0  0  0  0  0  0  0  0  0
   44.6810   83.4380   55.5410 H   0  0  0  0  0  0  0  0  0  0  0  0
   44.8000   81.2850   55.6030 C   0  0  0  0  0  3  0  0  0  0  0  0
   44.2690   80.1470   56.1740 C   0  0  0  0  0  3  0  0  0  0  0  0
  1  7  1  0  0  0  0
  2  1  1  0  0  0  0
  2  8  1  0  0  0  0
  3  2  2  0  0  0  0
  4  5  2  0  0  0  0
  4  3  1  0  0  0  0
  5  6  1  0  0  0  0
  6  1  2  0  0  0  0
  9  3  1  0  0  0  0
 11 12  1  0  0  0  0
 11 10  1  0  0  0  0
 12  5  1  0  0  0  0
 13 14  1  0  0  0  0
 13 12  2  0  0  0  0
 15 13  1  0  0  0  0
 16 15  1  0  0  0  0
 17 15  2  0  0  0  0
 17 18  1  0  0  0  0
 18 11  2  0  0  0  0
M  END
>  <minimizedAffinity>
-0.194632605

>  <minimizedRMSD>
8.02586079

$$$$
