
 OpenBabel03212520243D

 18 19  0  0  0  0  0  0  0  0999 V2000
   40.0200   81.6300   60.9840 C   0  0  0  0  0  0  0  0  0  0  0  0
   40.7850   82.5480   60.2500 C   0  0  0  0  0  0  0  0  0  0  0  0
   40.6800   83.9210   60.4640 C   0  0  0  0  0  0  0  0  0  0  0  0
   39.7950   84.2950   61.4240 N   0  0  0  0  0  0  0  0  0  0  0  0
   39.0650   83.4110   62.1240 C   0  0  0  0  0  0  0  0  0  0  0  0
   39.1740   82.0940   61.9090 N   0  0  0  0  0  0  0  0  0  0  0  0
   40.1470   80.5760   60.7690 H   0  0  0  0  0  0  0  0  0  0  0  0
   41.4500   82.1600   59.5200 H   0  0  0  0  0  0  0  0  0  0  0  0
   38.4030   83.8560   62.8540 H   0  0  0  0  0  0  0  0  0  0  0  0
   43.2370   84.5980   61.9370 Br  0  0  0  0  0  0  0  0  0  0  0  0
   42.6650   85.2980   60.2610 C   0  0  0  0  0  0  0  0  0  0  0  0
   41.4650   84.8910   59.7110 C   0  0  0  0  0  0  0  0  0  0  0  0
   41.0970   85.4270   58.4970 C   0  0  0  0  0  0  0  0  0  0  0  0
   40.1620   85.1180   58.0570 H   0  0  0  0  0  0  0  0  0  0  0  0
   41.8950   86.3490   57.8350 C   0  0  0  0  0  0  0  0  0  0  0  0
   41.5730   86.7480   56.8820 H   0  0  0  0  0  0  0  0  0  0  0  0
   43.0910   86.7300   58.4200 C   0  0  0  0  0  3  0  0  0  0  0  0
   43.4960   86.2160   59.6360 C   0  0  0  0  0  3  0  0  0  0  0  0
  1  6  1  0  0  0  0
  2  3  1  0  0  0  0
  2  1  2  0  0  0  0
  3  4  2  0  0  0  0
  4  5  1  0  0  0  0
  5  9  1  0  0  0  0
  6  5  2  0  0  0  0
  7  1  1  0  0  0  0
  8  2  1  0  0  0  0
 11 10  1  0  0  0  0
 12 11  1  0  0  0  0
 12  3  1  0  0  0  0
 13 12  2  0  0  0  0
 14 13  1  0  0  0  0
 15 17  2  0  0  0  0
 15 13  1  0  0  0  0
 16 15  1  0  0  0  0
 17 18  1  0  0  0  0
 18 11  2  0  0  0  0
M  END
>  <minimizedAffinity>
-4.19619036

>  <minimizedRMSD>
2.16287351

$$$$
