
 OpenBabel03212520493D

 28 30  0  0  0  0  0  0  0  0999 V2000
   41.8140   83.8260   61.2330 C   0  0  0  0  0  0  0  0  0  0  0  0
   41.1340   84.0970   62.3950 C   0  0  0  0  0  0  0  0  0  0  0  0
   40.6320   83.0790   63.2160 C   0  0  0  0  0  0  0  0  0  0  0  0
   40.8230   81.7870   62.8510 N   0  0  0  0  0  0  0  0  0  0  0  0
   41.4870   81.5400   61.7170 C   0  0  0  0  0  0  0  0  0  0  0  0
   41.9750   82.5300   60.9190 N   0  0  0  0  0  0  0  0  0  0  0  0
   41.0030   85.1500   62.6510 H   0  0  0  0  0  0  0  0  0  0  0  0
   40.1020   83.3740   64.1250 H   0  0  0  0  0  0  0  0  0  0  0  0
   43.7760   86.6820   60.0570 C   0  0  0  0  0  0  0  0  0  0  0  0
   43.3060   86.8360   58.7550 C   0  0  0  0  0  0  0  0  0  0  0  0
   42.3160   85.9630   58.2740 C   0  0  0  0  0  0  0  0  0  0  0  0
   41.8790   85.0100   59.1350 N   0  0  0  0  0  0  0  0  0  0  0  0
   42.3410   84.8810   60.3730 C   0  0  0  0  0  0  0  0  0  0  0  0
   43.2860   85.7050   60.8470 N   0  0  0  0  0  0  0  0  0  0  0  0
   44.7670   87.6290   60.3990 N   0  0  0  0  0  0  0  0  0  0  0  0
   43.6120   87.5690   58.0260 H   0  0  0  0  0  0  0  0  0  0  0  0
   41.9170   86.0380   57.2710 H   0  0  0  0  0  0  0  0  0  0  0  0
   44.5050   88.3200   61.1480 H   0  0  0  0  0  0  0  0  0  0  0  0
   45.7290   87.7220   59.9920 H   0  0  0  0  0  0  0  0  0  0  0  0
   40.1440   80.8710   59.0630 Br  0  0  0  0  0  0  0  0  0  0  0  0
   41.1700   79.6650   60.1300 C   0  0  0  0  0  0  0  0  0  0  0  0
   41.7020   80.1540   61.3070 C   0  0  0  0  0  0  0  0  0  0  0  0
   42.4450   79.3290   62.1040 C   0  0  0  0  0  0  0  0  0  0  0  0
   42.8930   79.6330   63.0350 H   0  0  0  0  0  0  0  0  0  0  0  0
   42.6610   78.0060   61.7320 C   0  0  0  0  0  0  0  0  0  0  0  0
   43.2430   77.3210   62.3360 H   0  0  0  0  0  0  0  0  0  0  0  0
   42.1120   77.5620   60.5500 C   0  0  0  0  0  3  0  0  0  0  0  0
   41.3700   78.3710   59.7470 C   0  0  0  0  0  3  0  0  0  0  0  0
  1  2  1  0  0  0  0
  2  7  1  0  0  0  0
  2  3  2  0  0  0  0
  3  8  1  0  0  0  0
  4  3  1  0  0  0  0
  5  4  2  0  0  0  0
  6  1  2  0  0  0  0
  6  5  1  0  0  0  0
  9 15  1  0  0  0  0
  9 14  1  0  0  0  0
 10  9  2  0  0  0  0
 11 10  1  0  0  0  0
 11 12  2  0  0  0  0
 12 13  1  0  0  0  0
 13 14  2  0  0  0  0
 13  1  1  0  0  0  0
 15 18  1  0  0  0  0
 16 10  1  0  0  0  0
 17 11  1  0  0  0  0
 19 15  1  0  0  0  0
 20 21  1  0  0  0  0
 21 22  1  0  0  0  0
 22  5  1  0  0  0  0
 22 23  2  0  0  0  0
 23 24  1  0  0  0  0
 25 23  1  0  0  0  0
 25 26  1  0  0  0  0
 27 25  2  0  0  0  0
 28 21  2  0  0  0  0
 28 27  1  0  0  0  0
M  END
>  <minimizedAffinity>
-4.92586613

>  <minimizedRMSD>
0.875008464

$$$$
