
 OpenBabel03212520493D

 28 30  0  0  0  0  0  0  0  0999 V2000
   41.6170   83.9160   61.3720 C   0  0  0  0  0  0  0  0  0  0  0  0
   41.0650   84.3300   62.5590 C   0  0  0  0  0  0  0  0  0  0  0  0
   40.6500   83.4220   63.5420 C   0  0  0  0  0  0  0  0  0  0  0  0
   40.7990   82.0930   63.3130 N   0  0  0  0  0  0  0  0  0  0  0  0
   41.3380   81.7070   62.1520 C   0  0  0  0  0  0  0  0  0  0  0  0
   41.7410   82.5910   61.1970 N   0  0  0  0  0  0  0  0  0  0  0  0
   40.9630   85.4070   62.7030 H   0  0  0  0  0  0  0  0  0  0  0  0
   40.2200   83.8280   64.4610 H   0  0  0  0  0  0  0  0  0  0  0  0
   43.5700   86.4490   59.5940 C   0  0  0  0  0  0  0  0  0  0  0  0
   42.8410   86.5990   58.4170 C   0  0  0  0  0  0  0  0  0  0  0  0
   41.6780   85.8350   58.2270 C   0  0  0  0  0  0  0  0  0  0  0  0
   41.3420   84.9840   59.2300 N   0  0  0  0  0  0  0  0  0  0  0  0
   42.0520   84.8560   60.3440 C   0  0  0  0  0  0  0  0  0  0  0  0
   43.1630   85.5780   60.5410 N   0  0  0  0  0  0  0  0  0  0  0  0
   44.7110   87.2810   59.6440 N   0  0  0  0  0  0  0  0  0  0  0  0
   43.0550   87.2540   57.5880 H   0  0  0  0  0  0  0  0  0  0  0  0
   41.0750   85.9120   57.3320 H   0  0  0  0  0  0  0  0  0  0  0  0
   44.7010   88.0330   60.3800 H   0  0  0  0  0  0  0  0  0  0  0  0
   45.5610   87.2350   59.0330 H   0  0  0  0  0  0  0  0  0  0  0  0
   44.2580   80.8320   62.2140 Br  0  0  0  0  0  0  0  0  0  0  0  0
   42.7590   79.6980   61.8730 C   0  0  0  0  0  0  0  0  0  0  0  0
   41.5070   80.2800   61.8870 C   0  0  0  0  0  0  0  0  0  0  0  0
   40.4030   79.5100   61.6480 C   0  0  0  0  0  0  0  0  0  0  0  0
   39.3960   79.8860   61.6410 H   0  0  0  0  0  0  0  0  0  0  0  0
   40.5430   78.1480   61.3930 C   0  0  0  0  0  0  0  0  0  0  0  0
   39.6940   77.5050   61.2000 H   0  0  0  0  0  0  0  0  0  0  0  0
   41.8100   77.6110   61.3900 C   0  0  0  0  0  3  0  0  0  0  0  0
   42.9170   78.3660   61.6260 C   0  0  0  0  0  3  0  0  0  0  0  0
  1  2  1  0  0  0  0
  2  7  1  0  0  0  0
  2  3  2  0  0  0  0
  3  8  1  0  0  0  0
  4  3  1  0  0  0  0
  5  4  2  0  0  0  0
  6  1  2  0  0  0  0
  6  5  1  0  0  0  0
  9 15  1  0  0  0  0
  9 14  1  0  0  0  0
 10  9  2  0  0  0  0
 11 10  1  0  0  0  0
 11 12  2  0  0  0  0
 12 13  1  0  0  0  0
 13 14  2  0  0  0  0
 13  1  1  0  0  0  0
 15 18  1  0  0  0  0
 16 10  1  0  0  0  0
 17 11  1  0  0  0  0
 19 15  1  0  0  0  0
 21 22  1  0  0  0  0
 21 20  1  0  0  0  0
 22  5  1  0  0  0  0
 23 22  2  0  0  0  0
 24 23  1  0  0  0  0
 25 23  1  0  0  0  0
 26 25  1  0  0  0  0
 27 25  2  0  0  0  0
 27 28  1  0  0  0  0
 28 21  2  0  0  0  0
M  END
>  <minimizedAffinity>
-5.59877586

>  <minimizedRMSD>
0.826288521

$$$$
