
 OpenBabel03212520443D

 18 19  0  0  0  0  0  0  0  0999 V2000
   40.1410   81.9420   61.1040 C   0  0  0  0  0  0  0  0  0  0  0  0
   40.2640   82.7040   59.9370 C   0  0  0  0  0  0  0  0  0  0  0  0
   39.6630   83.9550   59.8110 C   0  0  0  0  0  0  0  0  0  0  0  0
   38.9530   84.3790   60.9020 N   0  0  0  0  0  0  0  0  0  0  0  0
   38.8430   83.6360   62.0160 C   0  0  0  0  0  0  0  0  0  0  0  0
   39.4220   82.4370   62.1270 N   0  0  0  0  0  0  0  0  0  0  0  0
   40.8110   82.3920   59.0820 H   0  0  0  0  0  0  0  0  0  0  0  0
   39.7480   84.5510   58.9270 H   0  0  0  0  0  0  0  0  0  0  0  0
   38.2730   83.9880   62.8770 H   0  0  0  0  0  0  0  0  0  0  0  0
   42.9280   82.2040   62.3000 Br  0  0  0  0  0  0  0  0  0  0  0  0
   42.0790   80.5880   61.7100 C   0  0  0  0  0  0  0  0  0  0  0  0
   40.7900   80.6370   61.1820 C   0  0  0  0  0  0  0  0  0  0  0  0
   40.2610   79.4470   60.7880 C   0  0  0  0  0  0  0  0  0  0  0  0
   39.2810   79.4420   60.3800 H   0  0  0  0  0  0  0  0  0  0  0  0
   40.9730   78.2620   60.9090 C   0  0  0  0  0  0  0  0  0  0  0  0
   40.4990   77.3320   60.5760 H   0  0  0  0  0  0  0  0  0  0  0  0
   42.2460   78.2410   61.4350 C   0  0  0  0  0  3  0  0  0  0  0  0
   42.8190   79.4390   61.8490 C   0  0  0  0  0  3  0  0  0  0  0  0
  1 12  1  0  0  0  0
  1  6  1  0  0  0  0
  2  1  2  0  0  0  0
  3  2  1  0  0  0  0
  3  4  2  0  0  0  0
  4  5  1  0  0  0  0
  5  6  2  0  0  0  0
  5  9  1  0  0  0  0
  7  2  1  0  0  0  0
  8  3  1  0  0  0  0
 11 18  1  0  0  0  0
 11 10  1  0  0  0  0
 12 11  2  0  0  0  0
 13 15  2  0  0  0  0
 13 12  1  0  0  0  0
 14 13  1  0  0  0  0
 15 17  1  0  0  0  0
 16 15  1  0  0  0  0
 17 18  2  0  0  0  0
M  END
>  <minimizedAffinity>
-4.73627853

>  <minimizedRMSD>
0.796325505

$$$$
