
 OpenBabel03212520483D

 28 30  0  0  0  0  0  0  0  0999 V2000
   41.7230   83.8700   61.3330 C   0  0  0  0  0  0  0  0  0  0  0  0
   41.1800   84.1810   62.5550 C   0  0  0  0  0  0  0  0  0  0  0  0
   40.6490   83.2010   63.4030 C   0  0  0  0  0  0  0  0  0  0  0  0
   40.6710   81.9050   63.0050 N   0  0  0  0  0  0  0  0  0  0  0  0
   41.2040   81.6190   61.8120 C   0  0  0  0  0  0  0  0  0  0  0  0
   41.7200   82.5720   60.9880 N   0  0  0  0  0  0  0  0  0  0  0  0
   41.1820   85.2350   62.8380 H   0  0  0  0  0  0  0  0  0  0  0  0
   40.2340   83.5280   64.3600 H   0  0  0  0  0  0  0  0  0  0  0  0
   43.7770   86.6240   60.0740 C   0  0  0  0  0  0  0  0  0  0  0  0
   43.2990   86.7670   58.7740 C   0  0  0  0  0  0  0  0  0  0  0  0
   42.2710   85.9220   58.3230 C   0  0  0  0  0  0  0  0  0  0  0  0
   41.8090   85.0040   59.2090 N   0  0  0  0  0  0  0  0  0  0  0  0
   42.2800   84.8850   60.4450 C   0  0  0  0  0  0  0  0  0  0  0  0
   43.2600   85.6830   60.8910 N   0  0  0  0  0  0  0  0  0  0  0  0
   44.8070   87.5400   60.3850 N   0  0  0  0  0  0  0  0  0  0  0  0
   43.6230   87.4720   58.0260 H   0  0  0  0  0  0  0  0  0  0  0  0
   41.8640   85.9890   57.3230 H   0  0  0  0  0  0  0  0  0  0  0  0
   44.5790   88.2570   61.1210 H   0  0  0  0  0  0  0  0  0  0  0  0
   45.7660   87.5890   59.9660 H   0  0  0  0  0  0  0  0  0  0  0  0
   40.1150   81.2600   58.9870 Br  0  0  0  0  0  0  0  0  0  0  0  0
   40.7850   79.8680   60.1100 C   0  0  0  0  0  0  0  0  0  0  0  0
   41.2380   80.2280   61.3650 C   0  0  0  0  0  0  0  0  0  0  0  0
   41.7260   79.2660   62.2050 C   0  0  0  0  0  0  0  0  0  0  0  0
   42.0970   79.4640   63.1960 H   0  0  0  0  0  0  0  0  0  0  0  0
   41.7670   77.9370   61.7980 C   0  0  0  0  0  0  0  0  0  0  0  0
   42.1460   77.1470   62.4340 H   0  0  0  0  0  0  0  0  0  0  0  0
   41.3050   77.6240   60.5380 C   0  0  0  0  0  3  0  0  0  0  0  0
   40.8150   78.5710   59.6920 C   0  0  0  0  0  3  0  0  0  0  0  0
  1  2  1  0  0  0  0
  2  7  1  0  0  0  0
  2  3  2  0  0  0  0
  3  8  1  0  0  0  0
  4  3  1  0  0  0  0
  5  4  2  0  0  0  0
  6  1  2  0  0  0  0
  6  5  1  0  0  0  0
  9 15  1  0  0  0  0
  9 14  1  0  0  0  0
 10  9  2  0  0  0  0
 11 10  1  0  0  0  0
 11 12  2  0  0  0  0
 12 13  1  0  0  0  0
 13 14  2  0  0  0  0
 13  1  1  0  0  0  0
 15 18  1  0  0  0  0
 16 10  1  0  0  0  0
 17 11  1  0  0  0  0
 19 15  1  0  0  0  0
 20 21  1  0  0  0  0
 21 22  1  0  0  0  0
 22  5  1  0  0  0  0
 22 23  2  0  0  0  0
 23 24  1  0  0  0  0
 25 23  1  0  0  0  0
 25 26  1  0  0  0  0
 27 25  2  0  0  0  0
 28 21  2  0  0  0  0
 28 27  1  0  0  0  0
M  END
>  <minimizedAffinity>
-5.18850946

>  <minimizedRMSD>
0.673418224

$$$$
