
 OpenBabel03212520233D

 18 19  0  0  0  0  0  0  0  0999 V2000
   40.5920   83.5010   63.7980 C   0  0  0  0  0  0  0  0  0  0  0  0
   41.3700   84.4140   63.0700 C   0  0  0  0  0  0  0  0  0  0  0  0
   42.1700   84.0040   62.0060 C   0  0  0  0  0  0  0  0  0  0  0  0
   42.1380   82.6740   61.7310 N   0  0  0  0  0  0  0  0  0  0  0  0
   41.3900   81.8050   62.4300 C   0  0  0  0  0  0  0  0  0  0  0  0
   40.6260   82.2100   63.4520 N   0  0  0  0  0  0  0  0  0  0  0  0
   39.9920   83.8830   64.6150 H   0  0  0  0  0  0  0  0  0  0  0  0
   41.3300   85.4330   63.3600 H   0  0  0  0  0  0  0  0  0  0  0  0
   41.4670   80.7790   62.0960 H   0  0  0  0  0  0  0  0  0  0  0  0
   40.8080   84.7210   59.3980 Br  0  0  0  0  0  0  0  0  0  0  0  0
   42.4920   85.3560   60.0200 C   0  0  0  0  0  0  0  0  0  0  0  0
   42.9870   84.9360   61.2380 C   0  0  0  0  0  0  0  0  0  0  0  0
   44.2100   85.4250   61.6410 C   0  0  0  0  0  0  0  0  0  0  0  0
   44.6070   85.1050   62.5930 H   0  0  0  0  0  0  0  0  0  0  0  0
   44.9340   86.3120   60.8580 C   0  0  0  0  0  0  0  0  0  0  0  0
   45.8910   86.6750   61.2090 H   0  0  0  0  0  0  0  0  0  0  0  0
   44.4030   86.7080   59.6430 C   0  0  0  0  0  0  0  0  0  0  0  0
   43.1800   86.2400   59.2020 C   0  0  0  0  0  0  0  0  0  0  0  0
  1  7  1  0  0  0  0
  2  8  1  0  0  0  0
  2  1  2  0  0  0  0
  3  2  1  0  0  0  0
  4  3  2  0  0  0  0
  4  5  1  0  0  0  0
  5  6  2  0  0  0  0
  6  1  1  0  0  0  0
  9  5  1  0  0  0  0
 10 11  1  0  0  0  0
 11 12  1  0  0  0  0
 12 13  2  0  0  0  0
 12  3  1  0  0  0  0
 13 14  1  0  0  0  0
 15 16  1  0  0  0  0
 15 13  1  0  0  0  0
 17 15  2  0  0  0  0
 18 17  1  0  0  0  0
 18 11  2  0  0  0  0
M  END
>  <minimizedAffinity>
-4.33600378

>  <minimizedRMSD>
4.20997858

$$$$
