
 OpenBabel03212520093D

 18 19  0  0  0  0  0  0  0  0999 V2000
   40.1720   82.0500   60.6450 C   0  0  0  0  0  0  0  0  0  0  0  0
   40.1460   83.0000   59.5870 C   0  0  0  0  0  0  0  0  0  0  0  0
   39.4820   84.2040   59.8310 C   0  0  0  0  0  0  0  0  0  0  0  0
   38.9040   84.3980   61.0450 N   0  0  0  0  0  0  0  0  0  0  0  0
   38.9530   83.4710   62.0170 C   0  0  0  0  0  0  0  0  0  0  0  0
   39.5830   82.3070   61.8150 N   0  0  0  0  0  0  0  0  0  0  0  0
   40.6680   81.0980   60.5270 H   0  0  0  0  0  0  0  0  0  0  0  0
   39.4700   84.9170   59.0180 H   0  0  0  0  0  0  0  0  0  0  0  0
   38.4380   83.8170   62.8950 H   0  0  0  0  0  0  0  0  0  0  0  0
   42.8580   84.4510   58.9280 Br  0  0  0  0  0  0  0  0  0  0  0  0
   42.0030   83.1430   57.8420 C   0  0  0  0  0  0  0  0  0  0  0  0
   40.8160   82.6430   58.3360 C   0  0  0  0  0  0  0  0  0  0  0  0
   40.1310   81.6880   57.6080 C   0  0  0  0  0  0  0  0  0  0  0  0
   39.1880   81.2060   57.8710 H   0  0  0  0  0  0  0  0  0  0  0  0
   40.6140   81.2210   56.3870 C   0  0  0  0  0  0  0  0  0  0  0  0
   40.1180   80.4740   55.7750 H   0  0  0  0  0  0  0  0  0  0  0  0
   41.8040   81.7290   55.9050 C   0  0  0  0  0  3  0  0  0  0  0  0
   42.4850   82.6820   56.6330 C   0  0  0  0  0  3  0  0  0  0  0  0
  1  6  1  0  0  0  0
  2  3  1  0  0  0  0
  2  1  2  0  0  0  0
  3  4  2  0  0  0  0
  4  5  1  0  0  0  0
  5  9  1  0  0  0  0
  6  5  2  0  0  0  0
  7  1  1  0  0  0  0
  8  3  1  0  0  0  0
 11 12  1  0  0  0  0
 11 10  1  0  0  0  0
 12  2  1  0  0  0  0
 13 14  1  0  0  0  0
 13 12  2  0  0  0  0
 15 13  1  0  0  0  0
 16 15  1  0  0  0  0
 17 15  2  0  0  0  0
 17 18  1  0  0  0  0
 18 11  2  0  0  0  0
M  END
>  <minimizedAffinity>
-4.41978168

>  <minimizedRMSD>
1.59782088

$$$$
