
 OpenBabel03212520443D

 18 19  0  0  0  0  0  0  0  0999 V2000
   40.1400   81.9420   61.1030 C   0  0  0  0  0  0  0  0  0  0  0  0
   40.2640   82.7040   59.9360 C   0  0  0  0  0  0  0  0  0  0  0  0
   39.6630   83.9560   59.8100 C   0  0  0  0  0  0  0  0  0  0  0  0
   38.9530   84.3800   60.9010 N   0  0  0  0  0  0  0  0  0  0  0  0
   38.8430   83.6370   62.0150 C   0  0  0  0  0  0  0  0  0  0  0  0
   39.4220   82.4380   62.1260 N   0  0  0  0  0  0  0  0  0  0  0  0
   40.8100   82.3920   59.0800 H   0  0  0  0  0  0  0  0  0  0  0  0
   39.7480   84.5520   58.9260 H   0  0  0  0  0  0  0  0  0  0  0  0
   38.2730   83.9890   62.8760 H   0  0  0  0  0  0  0  0  0  0  0  0
   42.9270   82.2050   62.2990 Br  0  0  0  0  0  0  0  0  0  0  0  0
   42.0790   80.5880   61.7100 C   0  0  0  0  0  0  0  0  0  0  0  0
   40.7890   80.6380   61.1810 C   0  0  0  0  0  0  0  0  0  0  0  0
   40.2610   79.4480   60.7870 C   0  0  0  0  0  0  0  0  0  0  0  0
   39.2810   79.4420   60.3790 H   0  0  0  0  0  0  0  0  0  0  0  0
   40.9720   78.2620   60.9090 C   0  0  0  0  0  0  0  0  0  0  0  0
   40.4990   77.3330   60.5760 H   0  0  0  0  0  0  0  0  0  0  0  0
   42.2460   78.2430   61.4340 C   0  0  0  0  0  3  0  0  0  0  0  0
   42.8180   79.4400   61.8490 C   0  0  0  0  0  3  0  0  0  0  0  0
  1 12  1  0  0  0  0
  1  6  1  0  0  0  0
  2  1  2  0  0  0  0
  3  2  1  0  0  0  0
  3  4  2  0  0  0  0
  4  5  1  0  0  0  0
  5  6  2  0  0  0  0
  5  9  1  0  0  0  0
  7  2  1  0  0  0  0
  8  3  1  0  0  0  0
 11 18  1  0  0  0  0
 11 10  1  0  0  0  0
 12 11  2  0  0  0  0
 13 15  2  0  0  0  0
 13 12  1  0  0  0  0
 14 13  1  0  0  0  0
 15 17  1  0  0  0  0
 16 15  1  0  0  0  0
 17 18  2  0  0  0  0
M  END
>  <minimizedAffinity>
-4.73987198

>  <minimizedRMSD>
0.617470324

$$$$
