
 OpenBabel03212520093D

 18 19  0  0  0  0  0  0  0  0999 V2000
   40.4160   82.2730   60.4950 C   0  0  0  0  0  0  0  0  0  0  0  0
   40.2220   83.3000   59.5320 C   0  0  0  0  0  0  0  0  0  0  0  0
   39.3890   84.3610   59.8950 C   0  0  0  0  0  0  0  0  0  0  0  0
   38.8180   84.3520   61.1280 N   0  0  0  0  0  0  0  0  0  0  0  0
   39.0290   83.3580   62.0080 C   0  0  0  0  0  0  0  0  0  0  0  0
   39.8230   82.3270   61.6900 N   0  0  0  0  0  0  0  0  0  0  0  0
   41.0470   81.4220   60.2830 H   0  0  0  0  0  0  0  0  0  0  0  0
   39.2500   85.1360   59.1540 H   0  0  0  0  0  0  0  0  0  0  0  0
   38.4890   83.5390   62.9190 H   0  0  0  0  0  0  0  0  0  0  0  0
   39.8360   80.6050   57.9560 Br  0  0  0  0  0  0  0  0  0  0  0  0
   40.8860   82.0870   57.3870 C   0  0  0  0  0  0  0  0  0  0  0  0
   40.9080   83.1660   58.2460 C   0  0  0  0  0  0  0  0  0  0  0  0
   41.6460   84.2840   57.9070 C   0  0  0  0  0  0  0  0  0  0  0  0
   41.7560   85.2040   58.4830 H   0  0  0  0  0  0  0  0  0  0  0  0
   42.3690   84.3430   56.7170 C   0  0  0  0  0  0  0  0  0  0  0  0
   42.9660   85.1940   56.4020 H   0  0  0  0  0  0  0  0  0  0  0  0
   42.3390   83.2560   55.8670 C   0  0  0  0  0  3  0  0  0  0  0  0
   41.6010   82.1410   56.2070 C   0  0  0  0  0  3  0  0  0  0  0  0
  1  6  1  0  0  0  0
  2  3  1  0  0  0  0
  2  1  2  0  0  0  0
  3  4  2  0  0  0  0
  4  5  1  0  0  0  0
  5  9  1  0  0  0  0
  6  5  2  0  0  0  0
  7  1  1  0  0  0  0
  8  3  1  0  0  0  0
 11 10  1  0  0  0  0
 11 12  1  0  0  0  0
 12  2  1  0  0  0  0
 13 12  2  0  0  0  0
 13 14  1  0  0  0  0
 15 13  1  0  0  0  0
 16 15  1  0  0  0  0
 17 18  1  0  0  0  0
 17 15  2  0  0  0  0
 18 11  2  0  0  0  0
M  END
>  <minimizedAffinity>
-4.38484383

>  <minimizedRMSD>
1.02875972

$$$$
