
 OpenBabel03212520443D

 18 19  0  0  0  0  0  0  0  0999 V2000
   40.4980   82.4790   60.4420 C   0  0  0  0  0  0  0  0  0  0  0  0
   39.4480   83.2970   60.8740 C   0  0  0  0  0  0  0  0  0  0  0  0
   39.2440   83.5770   62.2250 C   0  0  0  0  0  0  0  0  0  0  0  0
   40.1380   82.9990   63.0870 N   0  0  0  0  0  0  0  0  0  0  0  0
   41.1410   82.2140   62.6560 C   0  0  0  0  0  0  0  0  0  0  0  0
   41.3270   81.9520   61.3600 N   0  0  0  0  0  0  0  0  0  0  0  0
   38.7460   83.7540   60.2210 H   0  0  0  0  0  0  0  0  0  0  0  0
   38.4480   84.2000   62.5730 H   0  0  0  0  0  0  0  0  0  0  0  0
   41.8440   81.7610   63.3550 H   0  0  0  0  0  0  0  0  0  0  0  0
   42.3170   84.5680   59.1810 Br  0  0  0  0  0  0  0  0  0  0  0  0
   41.4740   83.0920   58.2910 C   0  0  0  0  0  0  0  0  0  0  0  0
   40.6640   82.2190   59.0160 C   0  0  0  0  0  0  0  0  0  0  0  0
   40.1050   81.2010   58.3090 C   0  0  0  0  0  0  0  0  0  0  0  0
   39.4800   80.5130   58.8250 H   0  0  0  0  0  0  0  0  0  0  0  0
   40.3330   81.0490   56.9490 C   0  0  0  0  0  0  0  0  0  0  0  0
   39.8580   80.2110   56.4290 H   0  0  0  0  0  0  0  0  0  0  0  0
   41.1390   81.9270   56.2570 C   0  0  0  0  0  3  0  0  0  0  0  0
   41.7290   82.9820   56.9460 C   0  0  0  0  0  3  0  0  0  0  0  0
  1  2  2  0  0  0  0
  1  6  1  0  0  0  0
  2  3  1  0  0  0  0
  3  8  1  0  0  0  0
  3  4  2  0  0  0  0
  5  4  1  0  0  0  0
  5  9  1  0  0  0  0
  6  5  2  0  0  0  0
  7  2  1  0  0  0  0
 11 12  1  0  0  0  0
 11 10  1  0  0  0  0
 12  1  1  0  0  0  0
 13 14  1  0  0  0  0
 13 12  2  0  0  0  0
 15 13  1  0  0  0  0
 16 15  1  0  0  0  0
 17 18  1  0  0  0  0
 17 15  2  0  0  0  0
 18 11  2  0  0  0  0
M  END
>  <minimizedAffinity>
-3.9104476

>  <minimizedRMSD>
3.88131714

$$$$
