
 OpenBabel03212520493D

 28 30  0  0  0  0  0  0  0  0999 V2000
   43.6740   84.9080   61.4720 C   0  0  0  0  0  0  0  0  0  0  0  0
   42.6420   85.1070   62.3560 C   0  0  0  0  0  0  0  0  0  0  0  0
   42.4130   84.2460   63.4370 C   0  0  0  0  0  0  0  0  0  0  0  0
   43.2360   83.1830   63.6160 N   0  0  0  0  0  0  0  0  0  0  0  0
   44.2370   83.0040   62.7460 C   0  0  0  0  0  0  0  0  0  0  0  0
   44.4590   83.8410   61.6960 N   0  0  0  0  0  0  0  0  0  0  0  0
   42.0040   85.9740   62.1760 H   0  0  0  0  0  0  0  0  0  0  0  0
   41.5710   84.4710   64.0960 H   0  0  0  0  0  0  0  0  0  0  0  0
   44.1710   87.9560   59.5090 C   0  0  0  0  0  0  0  0  0  0  0  0
   44.3770   87.4430   58.2310 C   0  0  0  0  0  0  0  0  0  0  0  0
   44.3470   86.0520   58.0350 C   0  0  0  0  0  0  0  0  0  0  0  0
   44.1130   85.2910   59.1350 N   0  0  0  0  0  0  0  0  0  0  0  0
   43.9200   85.8010   60.3450 C   0  0  0  0  0  0  0  0  0  0  0  0
   43.9450   87.1260   60.5490 N   0  0  0  0  0  0  0  0  0  0  0  0
   44.2300   89.3670   59.5520 N   0  0  0  0  0  0  0  0  0  0  0  0
   44.5670   87.9920   57.3230 H   0  0  0  0  0  0  0  0  0  0  0  0
   44.5010   85.6010   57.0640 H   0  0  0  0  0  0  0  0  0  0  0  0
   43.3320   89.8590   59.7930 H   0  0  0  0  0  0  0  0  0  0  0  0
   45.0630   89.9770   59.3690 H   0  0  0  0  0  0  0  0  0  0  0  0
   43.0980   80.4150   61.6070 Br  0  0  0  0  0  0  0  0  0  0  0  0
   44.7900   80.6060   62.4700 C   0  0  0  0  0  0  0  0  0  0  0  0
   45.1350   81.8650   62.9230 C   0  0  0  0  0  0  0  0  0  0  0  0
   46.3370   82.0500   63.5460 C   0  0  0  0  0  0  0  0  0  0  0  0
   46.6780   82.9970   63.9270 H   0  0  0  0  0  0  0  0  0  0  0  0
   47.2060   80.9780   63.7240 C   0  0  0  0  0  0  0  0  0  0  0  0
   48.1660   81.0840   64.2130 H   0  0  0  0  0  0  0  0  0  0  0  0
   46.8210   79.7410   63.2570 C   0  0  0  0  0  3  0  0  0  0  0  0
   45.6280   79.5420   62.6340 C   0  0  0  0  0  3  0  0  0  0  0  0
  1  6  2  0  0  0  0
  1  2  1  0  0  0  0
  2  3  2  0  0  0  0
  3  4  1  0  0  0  0
  3  8  1  0  0  0  0
  5 22  1  0  0  0  0
  5  4  2  0  0  0  0
  6  5  1  0  0  0  0
  7  2  1  0  0  0  0
  9 15  1  0  0  0  0
  9 14  1  0  0  0  0
 10  9  2  0  0  0  0
 11 10  1  0  0  0  0
 11 12  2  0  0  0  0
 12 13  1  0  0  0  0
 13 14  2  0  0  0  0
 13  1  1  0  0  0  0
 15 18  1  0  0  0  0
 16 10  1  0  0  0  0
 17 11  1  0  0  0  0
 19 15  1  0  0  0  0
 20 21  1  0  0  0  0
 21 28  2  0  0  0  0
 21 22  1  0  0  0  0
 22 23  2  0  0  0  0
 23 25  1  0  0  0  0
 23 24  1  0  0  0  0
 25 26  1  0  0  0  0
 27 25  2  0  0  0  0
 28 27  1  0  0  0  0
M  END
>  <minimizedAffinity>
-4.83432865

>  <minimizedRMSD>
3.64566135

$$$$
