
 OpenBabel03212520093D

 18 19  0  0  0  0  0  0  0  0999 V2000
   40.8590   82.6710   60.9180 C   0  0  0  0  0  0  0  0  0  0  0  0
   40.5520   83.6220   59.9070 C   0  0  0  0  0  0  0  0  0  0  0  0
   39.4210   84.4170   60.1060 C   0  0  0  0  0  0  0  0  0  0  0  0
   38.6880   84.2400   61.2360 N   0  0  0  0  0  0  0  0  0  0  0  0
   39.0150   83.3270   62.1670 C   0  0  0  0  0  0  0  0  0  0  0  0
   40.0940   82.5500   62.0060 N   0  0  0  0  0  0  0  0  0  0  0  0
   41.7190   82.0230   60.8310 H   0  0  0  0  0  0  0  0  0  0  0  0
   39.1990   85.1360   59.3300 H   0  0  0  0  0  0  0  0  0  0  0  0
   38.3110   83.3460   62.9780 H   0  0  0  0  0  0  0  0  0  0  0  0
   40.2080   81.4260   57.6820 Br  0  0  0  0  0  0  0  0  0  0  0  0
   41.4740   82.8470   57.6570 C   0  0  0  0  0  0  0  0  0  0  0  0
   41.4410   83.6930   58.7470 C   0  0  0  0  0  0  0  0  0  0  0  0
   42.3280   84.7510   58.8060 C   0  0  0  0  0  0  0  0  0  0  0  0
   42.4160   85.4960   59.5990 H   0  0  0  0  0  0  0  0  0  0  0  0
   43.2540   84.9810   57.7900 C   0  0  0  0  0  0  0  0  0  0  0  0
   43.9710   85.7960   57.7860 H   0  0  0  0  0  0  0  0  0  0  0  0
   43.2750   84.1270   56.7060 C   0  0  0  0  0  3  0  0  0  0  0  0
   42.3890   83.0710   56.6480 C   0  0  0  0  0  3  0  0  0  0  0  0
  1  6  1  0  0  0  0
  2  3  1  0  0  0  0
  2  1  2  0  0  0  0
  3  4  2  0  0  0  0
  4  5  1  0  0  0  0
  5  9  1  0  0  0  0
  6  5  2  0  0  0  0
  7  1  1  0  0  0  0
  8  3  1  0  0  0  0
 11 10  1  0  0  0  0
 11 12  1  0  0  0  0
 12 13  2  0  0  0  0
 12  2  1  0  0  0  0
 13 14  1  0  0  0  0
 15 13  1  0  0  0  0
 16 15  1  0  0  0  0
 17 15  2  0  0  0  0
 18 17  1  0  0  0  0
 18 11  2  0  0  0  0
M  END
>  <minimizedAffinity>
-3.98517799

>  <minimizedRMSD>
1.58019018

$$$$
