
 OpenBabel03212519593D

 18 19  0  0  0  0  0  0  0  0999 V2000
   40.3590   80.5920   59.6390 C   0  0  0  0  0  0  0  0  0  0  0  0
   40.1810   81.3590   58.4600 C   0  0  0  0  0  0  0  0  0  0  0  0
   40.3490   82.7390   58.5670 C   0  0  0  0  0  0  0  0  0  0  0  0
   40.6720   83.2810   59.7850 N   0  0  0  0  0  0  0  0  0  0  0  0
   40.8310   82.5180   60.8790 C   0  0  0  0  0  0  0  0  0  0  0  0
   40.6760   81.1730   60.8130 N   0  0  0  0  0  0  0  0  0  0  0  0
   40.2240   79.5240   59.5330 H   0  0  0  0  0  0  0  0  0  0  0  0
   39.9290   80.9380   57.5120 H   0  0  0  0  0  0  0  0  0  0  0  0
   40.2320   83.3940   57.7190 H   0  0  0  0  0  0  0  0  0  0  0  0
   43.8280   82.9580   61.2160 Br  0  0  0  0  0  0  0  0  0  0  0  0
   42.4870   83.4040   62.4690 C   0  0  0  0  0  0  0  0  0  0  0  0
   41.1750   83.1360   62.1560 C   0  0  0  0  0  0  0  0  0  0  0  0
   40.1710   83.4480   63.0470 C   0  0  0  0  0  0  0  0  0  0  0  0
   39.1420   83.2230   62.7700 H   0  0  0  0  0  0  0  0  0  0  0  0
   40.4290   84.0370   64.2790 C   0  0  0  0  0  0  0  0  0  0  0  0
   39.6330   84.2880   64.9920 H   0  0  0  0  0  0  0  0  0  0  0  0
   41.7570   84.3170   64.6130 C   0  0  0  0  0  3  0  0  0  0  0  0
   42.7390   83.9910   63.6990 C   0  0  0  0  0  3  0  0  0  0  0  0
  1  6  1  0  0  0  0
  2  3  1  0  0  0  0
  2  1  2  0  0  0  0
  3  4  2  0  0  0  0
  4  5  1  0  0  0  0
  5 12  1  0  0  0  0
  6  5  2  0  0  0  0
  7  1  1  0  0  0  0
  8  2  1  0  0  0  0
  9  3  1  0  0  0  0
 10 11  1  0  0  0  0
 11 18  1  0  0  0  0
 12 11  2  0  0  0  0
 12 13  1  0  0  0  0
 13 15  2  0  0  0  0
 14 13  1  0  0  0  0
 15 17  1  0  0  0  0
 15 16  1  0  0  0  0
 18 17  2  0  0  0  0
M  END
>  <minimizedAffinity>
-4.10795498

>  <minimizedRMSD>
3.52485728

$$$$
