
 OpenBabel03212520093D

 18 19  0  0  0  0  0  0  0  0999 V2000
   40.1240   82.0220   60.7280 C   0  0  0  0  0  0  0  0  0  0  0  0
   40.1710   82.9470   59.6500 C   0  0  0  0  0  0  0  0  0  0  0  0
   39.5300   84.1740   59.8380 C   0  0  0  0  0  0  0  0  0  0  0  0
   38.9060   84.4110   61.0220 N   0  0  0  0  0  0  0  0  0  0  0  0
   38.8870   83.5050   62.0150 C   0  0  0  0  0  0  0  0  0  0  0  0
   39.4920   82.3200   61.8660 N   0  0  0  0  0  0  0  0  0  0  0  0
   40.5980   81.0540   60.6530 H   0  0  0  0  0  0  0  0  0  0  0  0
   39.5730   84.8680   59.0110 H   0  0  0  0  0  0  0  0  0  0  0  0
   38.3450   83.8850   62.8610 H   0  0  0  0  0  0  0  0  0  0  0  0
   43.0990   84.0300   59.2590 Br  0  0  0  0  0  0  0  0  0  0  0  0
   42.1630   82.8910   58.0550 C   0  0  0  0  0  0  0  0  0  0  0  0
   40.8840   82.5440   58.4370 C   0  0  0  0  0  0  0  0  0  0  0  0
   40.1360   81.7200   57.6180 C   0  0  0  0  0  0  0  0  0  0  0  0
   39.1180   81.3630   57.7890 H   0  0  0  0  0  0  0  0  0  0  0  0
   40.6460   81.2320   56.4160 C   0  0  0  0  0  0  0  0  0  0  0  0
   40.1040   80.5830   55.7360 H   0  0  0  0  0  0  0  0  0  0  0  0
   41.9280   81.5880   56.0460 C   0  0  0  0  0  3  0  0  0  0  0  0
   42.6730   82.4110   56.8650 C   0  0  0  0  0  3  0  0  0  0  0  0
  1  6  1  0  0  0  0
  2  3  1  0  0  0  0
  2  1  2  0  0  0  0
  3  4  2  0  0  0  0
  4  5  1  0  0  0  0
  5  9  1  0  0  0  0
  6  5  2  0  0  0  0
  7  1  1  0  0  0  0
  8  3  1  0  0  0  0
 11 12  1  0  0  0  0
 11 10  1  0  0  0  0
 12  2  1  0  0  0  0
 13 14  1  0  0  0  0
 13 12  2  0  0  0  0
 15 13  1  0  0  0  0
 16 15  1  0  0  0  0
 17 15  2  0  0  0  0
 17 18  1  0  0  0  0
 18 11  2  0  0  0  0
M  END
>  <minimizedAffinity>
-4.35007477

>  <minimizedRMSD>
0.275624037

$$$$
