
 OpenBabel03212520453D

 18 19  0  0  0  0  0  0  0  0999 V2000
   38.0400   75.2830   57.1100 C   0  0  0  0  0  0  0  0  0  0  0  0
   38.8200   74.5950   56.1740 C   0  0  0  0  0  0  0  0  0  0  0  0
   38.5300   74.6290   54.8110 C   0  0  0  0  0  0  0  0  0  0  0  0
   37.4400   75.3790   54.4590 N   0  0  0  0  0  0  0  0  0  0  0  0
   36.7010   76.0350   55.3700 C   0  0  0  0  0  0  0  0  0  0  0  0
   36.9860   75.9950   56.6740 N   0  0  0  0  0  0  0  0  0  0  0  0
   39.6690   74.0080   56.4270 H   0  0  0  0  0  0  0  0  0  0  0  0
   39.1160   74.1090   54.0820 H   0  0  0  0  0  0  0  0  0  0  0  0
   35.8350   76.6280   55.0740 H   0  0  0  0  0  0  0  0  0  0  0  0
   39.8060   77.6350   57.8970 Br  0  0  0  0  0  0  0  0  0  0  0  0
   39.1970   76.2220   59.0430 C   0  0  0  0  0  0  0  0  0  0  0  0
   38.3880   75.2120   58.5250 C   0  0  0  0  0  0  0  0  0  0  0  0
   38.0000   74.2500   59.4040 C   0  0  0  0  0  0  0  0  0  0  0  0
   37.3830   73.4610   59.0490 H   0  0  0  0  0  0  0  0  0  0  0  0
   38.3920   74.2810   60.7360 C   0  0  0  0  0  0  0  0  0  0  0  0
   38.0510   73.4810   61.4000 H   0  0  0  0  0  0  0  0  0  0  0  0
   39.1920   75.2930   61.2210 C   0  0  0  0  0  3  0  0  0  0  0  0
   39.6090   76.2940   60.3510 C   0  0  0  0  0  3  0  0  0  0  0  0
  1 12  1  0  0  0  0
  2  7  1  0  0  0  0
  2  1  2  0  0  0  0
  3  2  1  0  0  0  0
  4  3  2  0  0  0  0
  4  5  1  0  0  0  0
  5  6  2  0  0  0  0
  6  1  1  0  0  0  0
  8  3  1  0  0  0  0
  9  5  1  0  0  0  0
 10 11  1  0  0  0  0
 11 18  1  0  0  0  0
 12 11  2  0  0  0  0
 12 13  1  0  0  0  0
 13 15  2  0  0  0  0
 14 13  1  0  0  0  0
 15 17  1  0  0  0  0
 15 16  1  0  0  0  0
 18 17  2  0  0  0  0
M  END
>  <minimizedAffinity>
-4.58667278

$$$$

 OpenBabel03212520453D

 18 19  0  0  0  0  0  0  0  0999 V2000
   38.4720   76.1150   57.0890 C   0  0  0  0  0  0  0  0  0  0  0  0
   39.4950   76.1990   56.1380 C   0  0  0  0  0  0  0  0  0  0  0  0
   39.2430   76.5790   54.8210 C   0  0  0  0  0  0  0  0  0  0  0  0
   37.9350   76.8620   54.5300 N   0  0  0  0  0  0  0  0  0  0  0  0
   36.9630   76.7760   55.4540 C   0  0  0  0  0  0  0  0  0  0  0  0
   37.2150   76.4110   56.7140 N   0  0  0  0  0  0  0  0  0  0  0  0
   40.5140   75.9840   56.3450 H   0  0  0  0  0  0  0  0  0  0  0  0
   40.0120   76.6490   54.0810 H   0  0  0  0  0  0  0  0  0  0  0  0
   35.9260   77.0050   55.2070 H   0  0  0  0  0  0  0  0  0  0  0  0
   37.9760   73.1350   57.4670 Br  0  0  0  0  0  0  0  0  0  0  0  0
   38.6170   74.3690   58.7880 C   0  0  0  0  0  0  0  0  0  0  0  0
   38.7920   75.7110   58.4540 C   0  0  0  0  0  0  0  0  0  0  0  0
   39.2510   76.5180   59.4480 C   0  0  0  0  0  0  0  0  0  0  0  0
   39.3970   77.5480   59.2340 H   0  0  0  0  0  0  0  0  0  0  0  0
   39.5240   76.0250   60.7160 C   0  0  0  0  0  0  0  0  0  0  0  0
   39.8910   76.7180   61.4790 H   0  0  0  0  0  0  0  0  0  0  0  0
   39.3420   74.6930   61.0190 C   0  0  0  0  0  3  0  0  0  0  0  0
   38.8750   73.8380   60.0280 C   0  0  0  0  0  3  0  0  0  0  0  0
  1 12  1  0  0  0  0
  2  7  1  0  0  0  0
  2  1  2  0  0  0  0
  3  2  1  0  0  0  0
  4  3  2  0  0  0  0
  4  5  1  0  0  0  0
  5  6  2  0  0  0  0
  6  1  1  0  0  0  0
  8  3  1  0  0  0  0
  9  5  1  0  0  0  0
 10 11  1  0  0  0  0
 11 18  1  0  0  0  0
 12 11  2  0  0  0  0
 12 13  1  0  0  0  0
 13 15  2  0  0  0  0
 14 13  1  0  0  0  0
 15 17  1  0  0  0  0
 15 16  1  0  0  0  0
 18 17  2  0  0  0  0
M  END
>  <minimizedAffinity>
-4.37520266

$$$$

 OpenBabel03212520453D

 18 19  0  0  0  0  0  0  0  0999 V2000
   40.2440   75.1010   59.6010 C   0  0  0  0  0  0  0  0  0  0  0  0
   40.2660   76.4670   59.9050 C   0  0  0  0  0  0  0  0  0  0  0  0
   39.5570   77.3990   59.1490 C   0  0  0  0  0  0  0  0  0  0  0  0
   38.8440   76.8850   58.1000 N   0  0  0  0  0  0  0  0  0  0  0  0
   38.8320   75.5700   57.8200 C   0  0  0  0  0  0  0  0  0  0  0  0
   39.5160   74.6850   58.5500 N   0  0  0  0  0  0  0  0  0  0  0  0
   40.8130   76.8840   60.7150 H   0  0  0  0  0  0  0  0  0  0  0  0
   39.5630   78.4460   59.3680 H   0  0  0  0  0  0  0  0  0  0  0  0
   38.2590   75.1760   56.9800 H   0  0  0  0  0  0  0  0  0  0  0  0
   43.1270   74.9330   58.6400 Br  0  0  0  0  0  0  0  0  0  0  0  0
   42.3500   73.9800   60.1120 C   0  0  0  0  0  0  0  0  0  0  0  0
   41.0050   74.1690   60.4260 C   0  0  0  0  0  0  0  0  0  0  0  0
   40.5340   73.4570   61.4840 C   0  0  0  0  0  0  0  0  0  0  0  0
   39.5140   73.5720   61.7560 H   0  0  0  0  0  0  0  0  0  0  0  0
   41.3520   72.5950   62.2020 C   0  0  0  0  0  0  0  0  0  0  0  0
   40.9210   72.0460   63.0440 H   0  0  0  0  0  0  0  0  0  0  0  0
   42.6790   72.4280   61.8700 C   0  0  0  0  0  3  0  0  0  0  0  0
   43.1960   73.1400   60.7930 C   0  0  0  0  0  3  0  0  0  0  0  0
  1  2  1  0  0  0  0
  1 12  1  0  0  0  0
  2  7  1  0  0  0  0
  3  8  1  0  0  0  0
  3  2  2  0  0  0  0
  4  3  1  0  0  0  0
  5  4  2  0  0  0  0
  5  6  1  0  0  0  0
  6  1  2  0  0  0  0
  9  5  1  0  0  0  0
 10 11  1  0  0  0  0
 11 12  2  0  0  0  0
 11 18  1  0  0  0  0
 12 13  1  0  0  0  0
 13 14  1  0  0  0  0
 13 15  2  0  0  0  0
 15 16  1  0  0  0  0
 17 15  1  0  0  0  0
 18 17  2  0  0  0  0
M  END
>  <minimizedAffinity>
-4.2823925

$$$$

 OpenBabel03212520453D

 18 19  0  0  0  0  0  0  0  0999 V2000
   41.2390   72.0370   61.2610 C   0  0  0  0  0  0  0  0  0  0  0  0
   41.7140   71.8090   62.5570 C   0  0  0  0  0  0  0  0  0  0  0  0
   42.4230   70.6550   62.8870 C   0  0  0  0  0  0  0  0  0  0  0  0
   42.6190   69.7710   61.8590 N   0  0  0  0  0  0  0  0  0  0  0  0
   42.1560   70.0040   60.6190 C   0  0  0  0  0  0  0  0  0  0  0  0
   41.4770   71.1130   60.3140 N   0  0  0  0  0  0  0  0  0  0  0  0
   41.5730   72.4820   63.3670 H   0  0  0  0  0  0  0  0  0  0  0  0
   42.7940   70.4650   63.8720 H   0  0  0  0  0  0  0  0  0  0  0  0
   42.3190   69.2900   59.8110 H   0  0  0  0  0  0  0  0  0  0  0  0
   43.0230   74.0460   59.8310 Br  0  0  0  0  0  0  0  0  0  0  0  0
   41.1830   74.2860   60.3160 C   0  0  0  0  0  0  0  0  0  0  0  0
   40.5010   73.2620   60.9720 C   0  0  0  0  0  0  0  0  0  0  0  0
   39.2010   73.5130   61.2790 C   0  0  0  0  0  0  0  0  0  0  0  0
   38.6460   72.7590   61.7800 H   0  0  0  0  0  0  0  0  0  0  0  0
   38.5980   74.7210   60.9540 C   0  0  0  0  0  0  0  0  0  0  0  0
   37.5480   74.8700   61.2250 H   0  0  0  0  0  0  0  0  0  0  0  0
   39.2950   75.7160   60.3050 C   0  0  0  0  0  3  0  0  0  0  0  0
   40.6280   75.4950   59.9750 C   0  0  0  0  0  3  0  0  0  0  0  0
  1  2  1  0  0  0  0
  2  3  2  0  0  0  0
  2  7  1  0  0  0  0
  3  8  1  0  0  0  0
  4  3  1  0  0  0  0
  5  4  2  0  0  0  0
  6  5  1  0  0  0  0
  6  1  2  0  0  0  0
  9  5  1  0  0  0  0
 10 11  1  0  0  0  0
 11 12  1  0  0  0  0
 12  1  1  0  0  0  0
 12 13  2  0  0  0  0
 13 14  1  0  0  0  0
 15 16  1  0  0  0  0
 15 13  1  0  0  0  0
 17 15  2  0  0  0  0
 18 17  1  0  0  0  0
 18 11  2  0  0  0  0
M  END
>  <minimizedAffinity>
-4.17512035

$$$$

 OpenBabel03212520453D

 18 19  0  0  0  0  0  0  0  0999 V2000
   38.8670   74.5180   58.9010 C   0  0  0  0  0  0  0  0  0  0  0  0
   38.2770   74.4830   60.1690 C   0  0  0  0  0  0  0  0  0  0  0  0
   38.8280   73.7420   61.2140 C   0  0  0  0  0  0  0  0  0  0  0  0
   39.9770   73.0620   60.9110 N   0  0  0  0  0  0  0  0  0  0  0  0
   40.5320   73.1050   59.6880 C   0  0  0  0  0  0  0  0  0  0  0  0
   39.9950   73.8170   58.6930 N   0  0  0  0  0  0  0  0  0  0  0  0
   37.3870   75.0040   60.4230 H   0  0  0  0  0  0  0  0  0  0  0  0
   38.3900   73.7040   62.1900 H   0  0  0  0  0  0  0  0  0  0  0  0
   41.4470   72.5570   59.4630 H   0  0  0  0  0  0  0  0  0  0  0  0
   40.0280   77.3320   58.8510 Br  0  0  0  0  0  0  0  0  0  0  0  0
   38.6730   76.6280   57.6890 C   0  0  0  0  0  0  0  0  0  0  0  0
   38.2470   75.3090   57.8430 C   0  0  0  0  0  0  0  0  0  0  0  0
   37.2850   74.8890   56.9790 C   0  0  0  0  0  0  0  0  0  0  0  0
   36.9330   73.8910   57.0630 H   0  0  0  0  0  0  0  0  0  0  0  0
   36.7650   75.7310   56.0060 C   0  0  0  0  0  0  0  0  0  0  0  0
   35.9910   75.3410   55.3370 H   0  0  0  0  0  0  0  0  0  0  0  0
   37.2040   77.0300   55.8760 C   0  0  0  0  0  3  0  0  0  0  0  0
   38.1870   77.4950   56.7420 C   0  0  0  0  0  3  0  0  0  0  0  0
  1  2  1  0  0  0  0
  2  7  1  0  0  0  0
  2  3  2  0  0  0  0
  3  8  1  0  0  0  0
  4  3  1  0  0  0  0
  5  4  2  0  0  0  0
  6  1  2  0  0  0  0
  6  5  1  0  0  0  0
  9  5  1  0  0  0  0
 11 12  1  0  0  0  0
 11 10  1  0  0  0  0
 12  1  1  0  0  0  0
 13 14  1  0  0  0  0
 13 12  2  0  0  0  0
 15 13  1  0  0  0  0
 16 15  1  0  0  0  0
 17 15  2  0  0  0  0
 17 18  1  0  0  0  0
 18 11  2  0  0  0  0
M  END
>  <minimizedAffinity>
-4.17268515

$$$$

 OpenBabel03212520453D

 18 19  0  0  0  0  0  0  0  0999 V2000
   39.8560   74.6340   59.4750 C   0  0  0  0  0  0  0  0  0  0  0  0
   38.9010   73.9090   58.7530 C   0  0  0  0  0  0  0  0  0  0  0  0
   37.9840   74.5380   57.9120 C   0  0  0  0  0  0  0  0  0  0  0  0
   38.0860   75.9020   57.8450 N   0  0  0  0  0  0  0  0  0  0  0  0
   39.0080   76.5850   58.5450 C   0  0  0  0  0  0  0  0  0  0  0  0
   39.8820   75.9730   59.3490 N   0  0  0  0  0  0  0  0  0  0  0  0
   38.8070   72.8520   58.7910 H   0  0  0  0  0  0  0  0  0  0  0  0
   37.2490   74.0000   57.3520 H   0  0  0  0  0  0  0  0  0  0  0  0
   39.0760   77.6710   58.4820 H   0  0  0  0  0  0  0  0  0  0  0  0
   42.6130   74.5050   58.1910 Br  0  0  0  0  0  0  0  0  0  0  0  0
   42.1030   73.7800   59.8930 C   0  0  0  0  0  0  0  0  0  0  0  0
   40.7910   73.9250   60.3410 C   0  0  0  0  0  0  0  0  0  0  0  0
   40.5140   73.3840   61.5570 C   0  0  0  0  0  0  0  0  0  0  0  0
   39.5250   73.4720   61.9350 H   0  0  0  0  0  0  0  0  0  0  0  0
   41.4860   72.7270   62.2990 C   0  0  0  0  0  0  0  0  0  0  0  0
   41.2080   72.3100   63.2720 H   0  0  0  0  0  0  0  0  0  0  0  0
   42.7760   72.5990   61.8320 C   0  0  0  0  0  3  0  0  0  0  0  0
   43.0970   73.1400   60.5920 C   0  0  0  0  0  3  0  0  0  0  0  0
  1 12  1  0  0  0  0
  2  7  1  0  0  0  0
  2  1  2  0  0  0  0
  3  2  1  0  0  0  0
  4  3  2  0  0  0  0
  4  5  1  0  0  0  0
  5  6  2  0  0  0  0
  6  1  1  0  0  0  0
  8  3  1  0  0  0  0
  9  5  1  0  0  0  0
 10 11  1  0  0  0  0
 11 12  2  0  0  0  0
 11 18  1  0  0  0  0
 12 13  1  0  0  0  0
 13 14  1  0  0  0  0
 13 15  2  0  0  0  0
 15 16  1  0  0  0  0
 17 15  1  0  0  0  0
 18 17  2  0  0  0  0
M  END
>  <minimizedAffinity>
-4.10574484

$$$$

 OpenBabel03212520453D

 18 19  0  0  0  0  0  0  0  0999 V2000
   41.1850   73.8630   60.5270 C   0  0  0  0  0  0  0  0  0  0  0  0
   40.6320   73.2120   61.6350 C   0  0  0  0  0  0  0  0  0  0  0  0
   41.3660   72.3000   62.3920 C   0  0  0  0  0  0  0  0  0  0  0  0
   42.6540   72.0920   61.9760 N   0  0  0  0  0  0  0  0  0  0  0  0
   43.1710   72.7250   60.9090 C   0  0  0  0  0  0  0  0  0  0  0  0
   42.4590   73.5970   60.1900 N   0  0  0  0  0  0  0  0  0  0  0  0
   39.6360   73.3600   61.9740 H   0  0  0  0  0  0  0  0  0  0  0  0
   40.9600   71.7940   63.2420 H   0  0  0  0  0  0  0  0  0  0  0  0
   44.1990   72.5480   60.5900 H   0  0  0  0  0  0  0  0  0  0  0  0
   39.6050   72.4180   58.3620 Br  0  0  0  0  0  0  0  0  0  0  0  0
   39.5840   74.2990   58.7370 C   0  0  0  0  0  0  0  0  0  0  0  0
   40.3700   74.8080   59.7700 C   0  0  0  0  0  0  0  0  0  0  0  0
   40.2960   76.1510   59.9700 C   0  0  0  0  0  0  0  0  0  0  0  0
   40.8810   76.5780   60.7470 H   0  0  0  0  0  0  0  0  0  0  0  0
   39.4840   76.9580   59.1860 C   0  0  0  0  0  0  0  0  0  0  0  0
   39.4630   78.0330   59.3890 H   0  0  0  0  0  0  0  0  0  0  0  0
   38.7160   76.4290   58.1710 C   0  0  0  0  0  3  0  0  0  0  0  0
   38.7660   75.0590   57.9370 C   0  0  0  0  0  3  0  0  0  0  0  0
  1  2  1  0  0  0  0
  2  7  1  0  0  0  0
  2  3  2  0  0  0  0
  3  8  1  0  0  0  0
  4  3  1  0  0  0  0
  5  4  2  0  0  0  0
  6  1  2  0  0  0  0
  6  5  1  0  0  0  0
  9  5  1  0  0  0  0
 10 11  1  0  0  0  0
 11 12  1  0  0  0  0
 12 13  2  0  0  0  0
 12  1  1  0  0  0  0
 13 14  1  0  0  0  0
 15 16  1  0  0  0  0
 15 13  1  0  0  0  0
 17 15  2  0  0  0  0
 18 17  1  0  0  0  0
 18 11  2  0  0  0  0
M  END
>  <minimizedAffinity>
-4.0902133

$$$$

 OpenBabel03212520453D

 18 19  0  0  0  0  0  0  0  0999 V2000
   41.5940   73.4140   59.9050 C   0  0  0  0  0  0  0  0  0  0  0  0
   42.2170   72.8370   61.0170 C   0  0  0  0  0  0  0  0  0  0  0  0
   42.3720   71.4570   61.1380 C   0  0  0  0  0  0  0  0  0  0  0  0
   41.8760   70.7160   60.0980 N   0  0  0  0  0  0  0  0  0  0  0  0
   41.2800   71.2850   59.0360 C   0  0  0  0  0  0  0  0  0  0  0  0
   41.1350   72.6080   58.9310 N   0  0  0  0  0  0  0  0  0  0  0  0
   42.6080   73.3950   61.8320 H   0  0  0  0  0  0  0  0  0  0  0  0
   42.8460   70.9990   61.9800 H   0  0  0  0  0  0  0  0  0  0  0  0
   40.8890   70.6810   58.2170 H   0  0  0  0  0  0  0  0  0  0  0  0
   38.9010   74.2940   61.0190 Br  0  0  0  0  0  0  0  0  0  0  0  0
   40.2730   75.4270   60.3050 C   0  0  0  0  0  0  0  0  0  0  0  0
   41.4570   74.8650   59.8310 C   0  0  0  0  0  0  0  0  0  0  0  0
   42.3780   75.7380   59.3420 C   0  0  0  0  0  0  0  0  0  0  0  0
   43.2940   75.3500   58.9700 H   0  0  0  0  0  0  0  0  0  0  0  0
   42.1420   77.1060   59.3200 C   0  0  0  0  0  0  0  0  0  0  0  0
   42.9170   77.7630   58.9150 H   0  0  0  0  0  0  0  0  0  0  0  0
   40.9620   77.6350   59.7950 C   0  0  0  0  0  3  0  0  0  0  0  0
   39.9970   76.7720   60.3030 C   0  0  0  0  0  3  0  0  0  0  0  0
  1  2  1  0  0  0  0
  2  3  2  0  0  0  0
  2  7  1  0  0  0  0
  3  8  1  0  0  0  0
  4  3  1  0  0  0  0
  5  4  2  0  0  0  0
  6  5  1  0  0  0  0
  6  1  2  0  0  0  0
  9  5  1  0  0  0  0
 11 10  1  0  0  0  0
 12  1  1  0  0  0  0
 12 11  2  0  0  0  0
 13 12  1  0  0  0  0
 14 13  1  0  0  0  0
 15 13  2  0  0  0  0
 15 17  1  0  0  0  0
 16 15  1  0  0  0  0
 17 18  2  0  0  0  0
 18 11  1  0  0  0  0
M  END
>  <minimizedAffinity>
-4.07304239

$$$$

 OpenBabel03212520453D

 18 19  0  0  0  0  0  0  0  0999 V2000
   40.4470   73.3310   61.0780 C   0  0  0  0  0  0  0  0  0  0  0  0
   41.0600   74.4560   60.5160 C   0  0  0  0  0  0  0  0  0  0  0  0
   40.3330   75.5970   60.1790 C   0  0  0  0  0  0  0  0  0  0  0  0
   38.9890   75.5350   60.4370 N   0  0  0  0  0  0  0  0  0  0  0  0
   38.4150   74.4470   60.9780 C   0  0  0  0  0  0  0  0  0  0  0  0
   39.1210   73.3590   61.2970 N   0  0  0  0  0  0  0  0  0  0  0  0
   42.1000   74.5230   60.3080 H   0  0  0  0  0  0  0  0  0  0  0  0
   40.7850   76.4650   59.7480 H   0  0  0  0  0  0  0  0  0  0  0  0
   37.3430   74.4140   61.1770 H   0  0  0  0  0  0  0  0  0  0  0  0
   40.8930   71.6000   58.6140 Br  0  0  0  0  0  0  0  0  0  0  0  0
   41.5510   71.2680   60.3850 C   0  0  0  0  0  0  0  0  0  0  0  0
   41.2570   72.1640   61.4110 C   0  0  0  0  0  0  0  0  0  0  0  0
   41.7630   71.8550   62.6350 C   0  0  0  0  0  0  0  0  0  0  0  0
   41.5610   72.5120   63.4450 H   0  0  0  0  0  0  0  0  0  0  0  0
   42.5240   70.7120   62.8390 C   0  0  0  0  0  0  0  0  0  0  0  0
   42.9060   70.5120   63.8450 H   0  0  0  0  0  0  0  0  0  0  0  0
   42.8000   69.8440   61.8060 C   0  0  0  0  0  3  0  0  0  0  0  0
   42.3000   70.1270   60.5400 C   0  0  0  0  0  3  0  0  0  0  0  0
  1  6  1  0  0  0  0
  1 12  1  0  0  0  0
  2  1  2  0  0  0  0
  3  4  2  0  0  0  0
  3  2  1  0  0  0  0
  4  5  1  0  0  0  0
  5  9  1  0  0  0  0
  5  6  2  0  0  0  0
  7  2  1  0  0  0  0
  8  3  1  0  0  0  0
 10 11  1  0  0  0  0
 11 18  2  0  0  0  0
 11 12  1  0  0  0  0
 12 13  2  0  0  0  0
 13 15  1  0  0  0  0
 13 14  1  0  0  0  0
 15 16  1  0  0  0  0
 17 15  2  0  0  0  0
 18 17  1  0  0  0  0
M  END
>  <minimizedAffinity>
-4.05555534

$$$$
