
 OpenBabel03212520093D

 18 19  0  0  0  0  0  0  0  0999 V2000
   40.1710   82.0500   60.6450 C   0  0  0  0  0  0  0  0  0  0  0  0
   40.1460   82.9990   59.5870 C   0  0  0  0  0  0  0  0  0  0  0  0
   39.4820   84.2040   59.8300 C   0  0  0  0  0  0  0  0  0  0  0  0
   38.9050   84.3990   61.0450 N   0  0  0  0  0  0  0  0  0  0  0  0
   38.9530   83.4720   62.0170 C   0  0  0  0  0  0  0  0  0  0  0  0
   39.5820   82.3070   61.8150 N   0  0  0  0  0  0  0  0  0  0  0  0
   40.6670   81.0980   60.5270 H   0  0  0  0  0  0  0  0  0  0  0  0
   39.4710   84.9160   59.0170 H   0  0  0  0  0  0  0  0  0  0  0  0
   38.4390   83.8180   62.8950 H   0  0  0  0  0  0  0  0  0  0  0  0
   42.8580   84.4510   58.9270 Br  0  0  0  0  0  0  0  0  0  0  0  0
   42.0020   83.1420   57.8410 C   0  0  0  0  0  0  0  0  0  0  0  0
   40.8150   82.6420   58.3360 C   0  0  0  0  0  0  0  0  0  0  0  0
   40.1310   81.6870   57.6080 C   0  0  0  0  0  0  0  0  0  0  0  0
   39.1870   81.2050   57.8710 H   0  0  0  0  0  0  0  0  0  0  0  0
   40.6130   81.2200   56.3860 C   0  0  0  0  0  0  0  0  0  0  0  0
   40.1170   80.4730   55.7750 H   0  0  0  0  0  0  0  0  0  0  0  0
   41.8030   81.7290   55.9030 C   0  0  0  0  0  3  0  0  0  0  0  0
   42.4850   82.6820   56.6310 C   0  0  0  0  0  3  0  0  0  0  0  0
  1  6  1  0  0  0  0
  2  3  1  0  0  0  0
  2  1  2  0  0  0  0
  3  4  2  0  0  0  0
  4  5  1  0  0  0  0
  5  9  1  0  0  0  0
  6  5  2  0  0  0  0
  7  1  1  0  0  0  0
  8  3  1  0  0  0  0
 11 12  1  0  0  0  0
 11 10  1  0  0  0  0
 12  2  1  0  0  0  0
 13 14  1  0  0  0  0
 13 12  2  0  0  0  0
 15 13  1  0  0  0  0
 16 15  1  0  0  0  0
 17 15  2  0  0  0  0
 17 18  1  0  0  0  0
 18 11  2  0  0  0  0
M  END
>  <minimizedAffinity>
-4.42070532

>  <minimizedRMSD>
1.23598015

$$$$
