
 OpenBabel03212520093D

 18 19  0  0  0  0  0  0  0  0999 V2000
   40.9430   82.7840   61.0480 C   0  0  0  0  0  0  0  0  0  0  0  0
   40.6470   83.7040   60.0060 C   0  0  0  0  0  0  0  0  0  0  0  0
   39.4690   84.4450   60.1280 C   0  0  0  0  0  0  0  0  0  0  0  0
   38.6820   84.2470   61.2180 N   0  0  0  0  0  0  0  0  0  0  0  0
   39.0010   83.3640   62.1810 C   0  0  0  0  0  0  0  0  0  0  0  0
   40.1240   82.6400   62.0930 N   0  0  0  0  0  0  0  0  0  0  0  0
   41.8370   82.1790   61.0200 H   0  0  0  0  0  0  0  0  0  0  0  0
   39.2560   85.1410   59.3290 H   0  0  0  0  0  0  0  0  0  0  0  0
   38.2520   83.3590   62.9510 H   0  0  0  0  0  0  0  0  0  0  0  0
   40.3850   81.6000   57.6830 Br  0  0  0  0  0  0  0  0  0  0  0  0
   41.6720   82.9990   57.7780 C   0  0  0  0  0  0  0  0  0  0  0  0
   41.5960   83.8030   58.8960 C   0  0  0  0  0  0  0  0  0  0  0  0
   42.4950   84.8430   59.0410 C   0  0  0  0  0  0  0  0  0  0  0  0
   42.5540   85.5560   59.8660 H   0  0  0  0  0  0  0  0  0  0  0  0
   43.4750   85.0950   58.0850 C   0  0  0  0  0  0  0  0  0  0  0  0
   44.2060   85.8960   58.1480 H   0  0  0  0  0  0  0  0  0  0  0  0
   43.5410   84.2820   56.9700 C   0  0  0  0  0  3  0  0  0  0  0  0
   42.6430   83.2450   56.8260 C   0  0  0  0  0  3  0  0  0  0  0  0
  1  6  1  0  0  0  0
  2  3  1  0  0  0  0
  2  1  2  0  0  0  0
  3  4  2  0  0  0  0
  4  5  1  0  0  0  0
  5  9  1  0  0  0  0
  6  5  2  0  0  0  0
  7  1  1  0  0  0  0
  8  3  1  0  0  0  0
 10 11  1  0  0  0  0
 11 12  1  0  0  0  0
 12 13  2  0  0  0  0
 12  2  1  0  0  0  0
 13 14  1  0  0  0  0
 15 16  1  0  0  0  0
 15 13  1  0  0  0  0
 17 15  2  0  0  0  0
 18 17  1  0  0  0  0
 18 11  2  0  0  0  0
M  END
>  <minimizedAffinity>
-3.92405224

>  <minimizedRMSD>
1.84821939

$$$$
