
 OpenBabel03212520093D

 18 19  0  0  0  0  0  0  0  0999 V2000
   40.4100   82.2710   60.4930 C   0  0  0  0  0  0  0  0  0  0  0  0
   40.2140   83.3010   59.5320 C   0  0  0  0  0  0  0  0  0  0  0  0
   39.3840   84.3620   59.8990 C   0  0  0  0  0  0  0  0  0  0  0  0
   38.8180   84.3530   61.1350 N   0  0  0  0  0  0  0  0  0  0  0  0
   39.0310   83.3570   62.0120 C   0  0  0  0  0  0  0  0  0  0  0  0
   39.8220   82.3250   61.6900 N   0  0  0  0  0  0  0  0  0  0  0  0
   41.0390   81.4200   60.2770 H   0  0  0  0  0  0  0  0  0  0  0  0
   39.2430   85.1380   59.1600 H   0  0  0  0  0  0  0  0  0  0  0  0
   38.4950   83.5380   62.9260 H   0  0  0  0  0  0  0  0  0  0  0  0
   39.8460   80.5940   57.9710 Br  0  0  0  0  0  0  0  0  0  0  0  0
   40.8780   82.0840   57.3890 C   0  0  0  0  0  0  0  0  0  0  0  0
   40.8940   83.1670   58.2430 C   0  0  0  0  0  0  0  0  0  0  0  0
   41.6200   84.2900   57.8940 C   0  0  0  0  0  0  0  0  0  0  0  0
   41.7240   85.2150   58.4670 H   0  0  0  0  0  0  0  0  0  0  0  0
   42.3360   84.3520   56.7000 C   0  0  0  0  0  0  0  0  0  0  0  0
   42.9230   85.2070   56.3780 H   0  0  0  0  0  0  0  0  0  0  0  0
   42.3120   83.2600   55.8550 C   0  0  0  0  0  3  0  0  0  0  0  0
   41.5860   82.1400   56.2050 C   0  0  0  0  0  3  0  0  0  0  0  0
  1  6  1  0  0  0  0
  2  3  1  0  0  0  0
  2  1  2  0  0  0  0
  3  4  2  0  0  0  0
  4  5  1  0  0  0  0
  5  9  1  0  0  0  0
  6  5  2  0  0  0  0
  7  1  1  0  0  0  0
  8  3  1  0  0  0  0
 11 10  1  0  0  0  0
 11 12  1  0  0  0  0
 12  2  1  0  0  0  0
 13 12  2  0  0  0  0
 13 14  1  0  0  0  0
 15 13  1  0  0  0  0
 16 15  1  0  0  0  0
 17 18  1  0  0  0  0
 17 15  2  0  0  0  0
 18 11  2  0  0  0  0
M  END
>  <minimizedAffinity>
-4.39494848

>  <minimizedRMSD>
1.26723826

$$$$
