
 OpenBabel03212520493D

 28 30  0  0  0  0  0  0  0  0999 V2000
   41.7800   83.9660   61.0830 C   0  0  0  0  0  0  0  0  0  0  0  0
   40.8010   84.1680   62.0250 C   0  0  0  0  0  0  0  0  0  0  0  0
   40.4640   83.1870   62.9660 C   0  0  0  0  0  0  0  0  0  0  0  0
   41.1250   82.0020   62.9460 N   0  0  0  0  0  0  0  0  0  0  0  0
   42.0750   81.8230   62.0230 C   0  0  0  0  0  0  0  0  0  0  0  0
   42.4030   82.7770   61.1080 N   0  0  0  0  0  0  0  0  0  0  0  0
   40.2950   85.1340   62.0060 H   0  0  0  0  0  0  0  0  0  0  0  0
   39.6740   83.4210   63.6840 H   0  0  0  0  0  0  0  0  0  0  0  0
   43.5550   86.6900   59.4020 C   0  0  0  0  0  0  0  0  0  0  0  0
   42.7830   86.8710   58.2570 C   0  0  0  0  0  0  0  0  0  0  0  0
   41.6520   86.0620   58.0550 C   0  0  0  0  0  0  0  0  0  0  0  0
   41.3880   85.1400   59.0160 N   0  0  0  0  0  0  0  0  0  0  0  0
   42.1380   84.9840   60.1000 C   0  0  0  0  0  0  0  0  0  0  0  0
   43.2200   85.7470   60.3080 N   0  0  0  0  0  0  0  0  0  0  0  0
   44.6560   87.5720   59.4680 N   0  0  0  0  0  0  0  0  0  0  0  0
   42.9400   87.5820   57.4620 H   0  0  0  0  0  0  0  0  0  0  0  0
   41.0190   86.1610   57.1840 H   0  0  0  0  0  0  0  0  0  0  0  0
   44.6340   88.2800   60.2460 H   0  0  0  0  0  0  0  0  0  0  0  0
   45.4890   87.6030   58.8310 H   0  0  0  0  0  0  0  0  0  0  0  0
   40.3650   79.5200   60.9900 Br  0  0  0  0  0  0  0  0  0  0  0  0
   42.1880   79.3950   61.5450 C   0  0  0  0  0  0  0  0  0  0  0  0
   42.7980   80.5530   61.9850 C   0  0  0  0  0  0  0  0  0  0  0  0
   44.1020   80.5140   62.3930 C   0  0  0  0  0  0  0  0  0  0  0  0
   44.6480   81.3700   62.7490 H   0  0  0  0  0  0  0  0  0  0  0  0
   44.8080   79.3160   62.3650 C   0  0  0  0  0  0  0  0  0  0  0  0
   45.8410   79.2430   62.6790 H   0  0  0  0  0  0  0  0  0  0  0  0
   44.1590   78.1850   61.9190 C   0  0  0  0  0  3  0  0  0  0  0  0
   42.8620   78.2100   61.5100 C   0  0  0  0  0  3  0  0  0  0  0  0
  1  6  2  0  0  0  0
  1  2  1  0  0  0  0
  2  3  2  0  0  0  0
  3  8  1  0  0  0  0
  4  3  1  0  0  0  0
  5  4  2  0  0  0  0
  6  5  1  0  0  0  0
  7  2  1  0  0  0  0
  9 15  1  0  0  0  0
  9 14  1  0  0  0  0
 10  9  2  0  0  0  0
 11 10  1  0  0  0  0
 11 12  2  0  0  0  0
 12 13  1  0  0  0  0
 13 14  2  0  0  0  0
 13  1  1  0  0  0  0
 15 18  1  0  0  0  0
 16 10  1  0  0  0  0
 17 11  1  0  0  0  0
 19 15  1  0  0  0  0
 20 21  1  0  0  0  0
 21 22  1  0  0  0  0
 22  5  1  0  0  0  0
 22 23  2  0  0  0  0
 23 24  1  0  0  0  0
 25 23  1  0  0  0  0
 25 26  1  0  0  0  0
 27 25  2  0  0  0  0
 28 21  2  0  0  0  0
 28 27  1  0  0  0  0
M  END
>  <minimizedAffinity>
-5.0729022

>  <minimizedRMSD>
1.46434438

$$$$
