
 OpenBabel03212520503D

 28 30  0  0  0  0  0  0  0  0999 V2000
   39.1130   76.1300   57.8650 C   0  0  0  0  0  0  0  0  0  0  0  0
   39.1960   77.3880   58.4100 C   0  0  0  0  0  0  0  0  0  0  0  0
   39.8870   77.6350   59.6030 C   0  0  0  0  0  0  0  0  0  0  0  0
   40.4910   76.6010   60.2390 N   0  0  0  0  0  0  0  0  0  0  0  0
   40.4010   75.3830   59.6950 C   0  0  0  0  0  0  0  0  0  0  0  0
   39.7290   75.1430   58.5350 N   0  0  0  0  0  0  0  0  0  0  0  0
   38.6960   78.1910   57.8670 H   0  0  0  0  0  0  0  0  0  0  0  0
   39.9080   78.6630   59.9740 H   0  0  0  0  0  0  0  0  0  0  0  0
   38.2520   74.7480   54.5870 C   0  0  0  0  0  0  0  0  0  0  0  0
   37.0450   75.3870   54.3150 C   0  0  0  0  0  0  0  0  0  0  0  0
   36.5210   76.2940   55.2510 C   0  0  0  0  0  0  0  0  0  0  0  0
   37.2480   76.4850   56.3810 N   0  0  0  0  0  0  0  0  0  0  0  0
   38.3960   75.8650   56.6210 C   0  0  0  0  0  0  0  0  0  0  0  0
   38.9100   74.9970   55.7390 N   0  0  0  0  0  0  0  0  0  0  0  0
   38.6530   73.8670   53.5580 N   0  0  0  0  0  0  0  0  0  0  0  0
   36.4240   75.2780   53.4410 H   0  0  0  0  0  0  0  0  0  0  0  0
   35.5880   76.8170   55.0900 H   0  0  0  0  0  0  0  0  0  0  0  0
   39.5280   74.1330   53.0390 H   0  0  0  0  0  0  0  0  0  0  0  0
   38.1770   72.9840   53.2520 H   0  0  0  0  0  0  0  0  0  0  0  0
   43.2910   74.9810   58.8120 Br  0  0  0  0  0  0  0  0  0  0  0  0
   42.3570   73.9180   60.0930 C   0  0  0  0  0  0  0  0  0  0  0  0
   41.0460   74.2560   60.3650 C   0  0  0  0  0  0  0  0  0  0  0  0
   40.3360   73.5240   61.2760 C   0  0  0  0  0  0  0  0  0  0  0  0
   39.3130   73.7220   61.5420 H   0  0  0  0  0  0  0  0  0  0  0  0
   40.9320   72.4460   61.9240 C   0  0  0  0  0  0  0  0  0  0  0  0
   40.4040   71.8430   62.6510 H   0  0  0  0  0  0  0  0  0  0  0  0
   42.2420   72.1470   61.6230 C   0  0  0  0  0  3  0  0  0  0  0  0
   42.9600   72.8660   60.7180 C   0  0  0  0  0  3  0  0  0  0  0  0
  1  2  2  0  0  0  0
  1  6  1  0  0  0  0
  2  3  1  0  0  0  0
  3  8  1  0  0  0  0
  3  4  2  0  0  0  0
  5  4  1  0  0  0  0
  5 22  1  0  0  0  0
  6  5  2  0  0  0  0
  7  2  1  0  0  0  0
  9 14  1  0  0  0  0
 10  9  2  0  0  0  0
 10 11  1  0  0  0  0
 11 12  2  0  0  0  0
 12 13  1  0  0  0  0
 13  1  1  0  0  0  0
 14 13  2  0  0  0  0
 15  9  1  0  0  0  0
 16 10  1  0  0  0  0
 17 11  1  0  0  0  0
 18 15  1  0  0  0  0
 19 15  1  0  0  0  0
 20 21  1  0  0  0  0
 21 22  2  0  0  0  0
 21 28  1  0  0  0  0
 22 23  1  0  0  0  0
 23 24  1  0  0  0  0
 23 25  2  0  0  0  0
 25 26  1  0  0  0  0
 27 25  1  0  0  0  0
 28 27  2  0  0  0  0
M  END
>  <minimizedAffinity>
-6.00598431

$$$$

 OpenBabel03212520503D

 28 30  0  0  0  0  0  0  0  0999 V2000
   39.2970   76.1640   57.6680 C   0  0  0  0  0  0  0  0  0  0  0  0
   39.2330   77.3770   58.3100 C   0  0  0  0  0  0  0  0  0  0  0  0
   39.9500   77.6330   59.4850 C   0  0  0  0  0  0  0  0  0  0  0  0
   40.7320   76.6540   60.0050 N   0  0  0  0  0  0  0  0  0  0  0  0
   40.7820   75.4790   59.3680 C   0  0  0  0  0  0  0  0  0  0  0  0
   40.0850   75.2300   58.2260 N   0  0  0  0  0  0  0  0  0  0  0  0
   38.5930   78.1370   57.8580 H   0  0  0  0  0  0  0  0  0  0  0  0
   39.8480   78.6230   59.9370 H   0  0  0  0  0  0  0  0  0  0  0  0
   38.3530   74.7400   54.4320 C   0  0  0  0  0  0  0  0  0  0  0  0
   37.1530   75.3960   54.1700 C   0  0  0  0  0  0  0  0  0  0  0  0
   36.6610   76.3280   55.0990 C   0  0  0  0  0  0  0  0  0  0  0  0
   37.4110   76.5260   56.2130 N   0  0  0  0  0  0  0  0  0  0  0  0
   38.5530   75.8890   56.4430 C   0  0  0  0  0  0  0  0  0  0  0  0
   39.0360   74.9970   55.5670 N   0  0  0  0  0  0  0  0  0  0  0  0
   38.7200   73.8350   53.4110 N   0  0  0  0  0  0  0  0  0  0  0  0
   36.5140   75.2820   53.3090 H   0  0  0  0  0  0  0  0  0  0  0  0
   35.7350   76.8640   54.9450 H   0  0  0  0  0  0  0  0  0  0  0  0
   39.5910   74.0770   52.8720 H   0  0  0  0  0  0  0  0  0  0  0  0
   38.2240   72.9550   53.1290 H   0  0  0  0  0  0  0  0  0  0  0  0
   39.2240   73.5420   61.1330 Br  0  0  0  0  0  0  0  0  0  0  0  0
   41.0890   73.4380   60.7370 C   0  0  0  0  0  0  0  0  0  0  0  0
   41.6190   74.4120   59.9130 C   0  0  0  0  0  0  0  0  0  0  0  0
   42.9490   74.3790   59.6010 C   0  0  0  0  0  0  0  0  0  0  0  0
   43.4370   75.0990   58.9680 H   0  0  0  0  0  0  0  0  0  0  0  0
   43.7620   73.3710   60.1110 C   0  0  0  0  0  0  0  0  0  0  0  0
   44.8200   73.3120   59.8860 H   0  0  0  0  0  0  0  0  0  0  0  0
   43.1910   72.4220   60.9270 C   0  0  0  0  0  3  0  0  0  0  0  0
   41.8690   72.4420   61.2470 C   0  0  0  0  0  3  0  0  0  0  0  0
  1  6  2  0  0  0  0
  1  2  1  0  0  0  0
  2  3  2  0  0  0  0
  3  8  1  0  0  0  0
  3  4  1  0  0  0  0
  5 22  1  0  0  0  0
  5  4  2  0  0  0  0
  6  5  1  0  0  0  0
  7  2  1  0  0  0  0
  9 14  1  0  0  0  0
 10  9  2  0  0  0  0
 10 11  1  0  0  0  0
 11 12  2  0  0  0  0
 12 13  1  0  0  0  0
 13  1  1  0  0  0  0
 14 13  2  0  0  0  0
 15  9  1  0  0  0  0
 16 10  1  0  0  0  0
 17 11  1  0  0  0  0
 18 15  1  0  0  0  0
 19 15  1  0  0  0  0
 21 20  1  0  0  0  0
 21 28  1  0  0  0  0
 22 21  2  0  0  0  0
 23 22  1  0  0  0  0
 23 25  2  0  0  0  0
 24 23  1  0  0  0  0
 25 27  1  0  0  0  0
 26 25  1  0  0  0  0
 27 28  2  0  0  0  0
M  END
>  <minimizedAffinity>
-5.73816538

$$$$

 OpenBabel03212520503D

 28 30  0  0  0  0  0  0  0  0999 V2000
   41.7250   71.3760   60.1680 C   0  0  0  0  0  0  0  0  0  0  0  0
   41.3180   70.8760   58.9560 C   0  0  0  0  0  0  0  0  0  0  0  0
   40.8260   71.7050   57.9390 C   0  0  0  0  0  0  0  0  0  0  0  0
   40.7510   73.0410   58.1590 N   0  0  0  0  0  0  0  0  0  0  0  0
   41.1520   73.5110   59.3450 C   0  0  0  0  0  0  0  0  0  0  0  0
   41.6300   72.7050   60.3340 N   0  0  0  0  0  0  0  0  0  0  0  0
   41.3950   69.7960   58.8200 H   0  0  0  0  0  0  0  0  0  0  0  0
   40.5210   71.2330   57.0010 H   0  0  0  0  0  0  0  0  0  0  0  0
   43.7250   68.8810   61.9480 C   0  0  0  0  0  0  0  0  0  0  0  0
   43.1790   68.9350   63.2270 C   0  0  0  0  0  0  0  0  0  0  0  0
   42.1230   69.8250   63.4870 C   0  0  0  0  0  0  0  0  0  0  0  0
   41.7040   70.5870   62.4450 N   0  0  0  0  0  0  0  0  0  0  0  0
   42.2390   70.5190   61.2320 C   0  0  0  0  0  0  0  0  0  0  0  0
   43.2470   69.6750   60.9680 N   0  0  0  0  0  0  0  0  0  0  0  0
   44.7750   67.9420   61.8380 N   0  0  0  0  0  0  0  0  0  0  0  0
   43.4670   68.3600   64.0920 H   0  0  0  0  0  0  0  0  0  0  0  0
   41.6630   69.9080   64.4620 H   0  0  0  0  0  0  0  0  0  0  0  0
   44.5920   67.1170   61.2120 H   0  0  0  0  0  0  0  0  0  0  0  0
   45.7120   67.9730   62.3080 H   0  0  0  0  0  0  0  0  0  0  0  0
   38.6420   74.3100   60.8800 Br  0  0  0  0  0  0  0  0  0  0  0  0
   40.0120   75.4990   60.2840 C   0  0  0  0  0  0  0  0  0  0  0  0
   41.0790   74.9480   59.6010 C   0  0  0  0  0  0  0  0  0  0  0  0
   42.0840   75.7590   59.1550 C   0  0  0  0  0  0  0  0  0  0  0  0
   42.9470   75.4080   58.6160 H   0  0  0  0  0  0  0  0  0  0  0  0
   42.0320   77.1300   59.3880 C   0  0  0  0  0  0  0  0  0  0  0  0
   42.8090   77.8050   59.0500 H   0  0  0  0  0  0  0  0  0  0  0  0
   40.9510   77.6350   60.0740 C   0  0  0  0  0  3  0  0  0  0  0  0
   39.9420   76.8400   60.5230 C   0  0  0  0  0  3  0  0  0  0  0  0
  1  6  1  0  0  0  0
  1 13  1  0  0  0  0
  2  1  2  0  0  0  0
  3  4  2  0  0  0  0
  3  2  1  0  0  0  0
  4  5  1  0  0  0  0
  5 22  1  0  0  0  0
  5  6  2  0  0  0  0
  7  2  1  0  0  0  0
  8  3  1  0  0  0  0
  9 10  1  0  0  0  0
 10 11  2  0  0  0  0
 10 16  1  0  0  0  0
 11 17  1  0  0  0  0
 12 11  1  0  0  0  0
 13 12  2  0  0  0  0
 14 13  1  0  0  0  0
 14  9  2  0  0  0  0
 15  9  1  0  0  0  0
 15 19  1  0  0  0  0
 18 15  1  0  0  0  0
 21 28  1  0  0  0  0
 21 20  1  0  0  0  0
 22 21  2  0  0  0  0
 23 25  2  0  0  0  0
 23 22  1  0  0  0  0
 24 23  1  0  0  0  0
 25 27  1  0  0  0  0
 26 25  1  0  0  0  0
 27 28  2  0  0  0  0
M  END
>  <minimizedAffinity>
-5.66947412

$$$$

 OpenBabel03212520503D

 28 30  0  0  0  0  0  0  0  0999 V2000
   42.4070   73.2920   59.9460 C   0  0  0  0  0  0  0  0  0  0  0  0
   43.5180   73.2690   59.1400 C   0  0  0  0  0  0  0  0  0  0  0  0
   44.3530   72.1470   59.0580 C   0  0  0  0  0  0  0  0  0  0  0  0
   44.0540   71.0500   59.7980 N   0  0  0  0  0  0  0  0  0  0  0  0
   42.9680   71.0890   60.5780 C   0  0  0  0  0  0  0  0  0  0  0  0
   42.1570   72.1800   60.6570 N   0  0  0  0  0  0  0  0  0  0  0  0
   43.7230   74.1720   58.5620 H   0  0  0  0  0  0  0  0  0  0  0  0
   45.2190   72.2050   58.3940 H   0  0  0  0  0  0  0  0  0  0  0  0
   39.6110   75.4640   60.8740 C   0  0  0  0  0  0  0  0  0  0  0  0
   39.9190   76.6360   60.1880 C   0  0  0  0  0  0  0  0  0  0  0  0
   41.0850   76.6880   59.4050 C   0  0  0  0  0  0  0  0  0  0  0  0
   41.8450   75.5640   59.3740 N   0  0  0  0  0  0  0  0  0  0  0  0
   41.5320   74.4560   60.0360 C   0  0  0  0  0  0  0  0  0  0  0  0
   40.4240   74.3900   60.7870 N   0  0  0  0  0  0  0  0  0  0  0  0
   38.4130   75.5600   61.6160 N   0  0  0  0  0  0  0  0  0  0  0  0
   39.3600   77.5570   60.1720 H   0  0  0  0  0  0  0  0  0  0  0  0
   41.3710   77.5730   58.8530 H   0  0  0  0  0  0  0  0  0  0  0  0
   37.6220   74.9440   61.2960 H   0  0  0  0  0  0  0  0  0  0  0  0
   38.2230   76.1730   62.4450 H   0  0  0  0  0  0  0  0  0  0  0  0
   41.5010   68.9460   58.9820 Br  0  0  0  0  0  0  0  0  0  0  0  0
   41.9610   68.8410   60.8310 C   0  0  0  0  0  0  0  0  0  0  0  0
   42.6290   69.9170   61.3820 C   0  0  0  0  0  0  0  0  0  0  0  0
   42.9800   69.8880   62.7030 C   0  0  0  0  0  0  0  0  0  0  0  0
   43.5010   70.6840   63.2050 H   0  0  0  0  0  0  0  0  0  0  0  0
   42.6660   68.7810   63.4860 C   0  0  0  0  0  0  0  0  0  0  0  0
   42.9270   68.7210   64.5350 H   0  0  0  0  0  0  0  0  0  0  0  0
   42.0000   67.7310   62.8940 C   0  0  0  0  0  3  0  0  0  0  0  0
   41.6440   67.7470   61.5810 C   0  0  0  0  0  3  0  0  0  0  0  0
  1 13  1  0  0  0  0
  1  6  1  0  0  0  0
  2  1  2  0  0  0  0
  3  2  1  0  0  0  0
  3  4  2  0  0  0  0
  4  5  1  0  0  0  0
  5  6  2  0  0  0  0
  5 22  1  0  0  0  0
  7  2  1  0  0  0  0
  8  3  1  0  0  0  0
  9 15  1  0  0  0  0
 10  9  2  0  0  0  0
 11 10  1  0  0  0  0
 12 11  2  0  0  0  0
 12 13  1  0  0  0  0
 13 14  2  0  0  0  0
 14  9  1  0  0  0  0
 15 19  1  0  0  0  0
 16 10  1  0  0  0  0
 17 11  1  0  0  0  0
 18 15  1  0  0  0  0
 20 21  1  0  0  0  0
 21 22  2  0  0  0  0
 21 28  1  0  0  0  0
 22 23  1  0  0  0  0
 23 24  1  0  0  0  0
 23 25  2  0  0  0  0
 25 26  1  0  0  0  0
 27 25  1  0  0  0  0
 28 27  2  0  0  0  0
M  END
>  <minimizedAffinity>
-5.64090919

$$$$

 OpenBabel03212520503D

 28 30  0  0  0  0  0  0  0  0999 V2000
   41.9450   74.5940   59.5020 C   0  0  0  0  0  0  0  0  0  0  0  0
   43.2390   75.0380   59.3820 C   0  0  0  0  0  0  0  0  0  0  0  0
   44.3220   74.3180   59.9030 C   0  0  0  0  0  0  0  0  0  0  0  0
   44.0840   73.1470   60.5450 N   0  0  0  0  0  0  0  0  0  0  0  0
   42.8180   72.7290   60.6530 C   0  0  0  0  0  0  0  0  0  0  0  0
   41.7660   73.4300   60.1460 N   0  0  0  0  0  0  0  0  0  0  0  0
   43.3860   75.9840   58.8590 H   0  0  0  0  0  0  0  0  0  0  0  0
   45.3230   74.7360   59.7690 H   0  0  0  0  0  0  0  0  0  0  0  0
   38.5940   75.3920   58.2670 C   0  0  0  0  0  0  0  0  0  0  0  0
   38.7190   76.7430   57.9530 C   0  0  0  0  0  0  0  0  0  0  0  0
   39.9500   77.3870   58.1610 C   0  0  0  0  0  0  0  0  0  0  0  0
   40.9530   76.6250   58.6680 N   0  0  0  0  0  0  0  0  0  0  0  0
   40.8120   75.3380   58.9610 C   0  0  0  0  0  0  0  0  0  0  0  0
   39.6450   74.7090   58.7680 N   0  0  0  0  0  0  0  0  0  0  0  0
   37.3020   74.8840   58.0040 N   0  0  0  0  0  0  0  0  0  0  0  0
   37.9640   77.3990   57.5510 H   0  0  0  0  0  0  0  0  0  0  0  0
   40.1010   78.4340   57.9350 H   0  0  0  0  0  0  0  0  0  0  0  0
   37.2380   74.1610   57.2430 H   0  0  0  0  0  0  0  0  0  0  0  0
   36.4040   75.1450   58.4790 H   0  0  0  0  0  0  0  0  0  0  0  0
   43.0340   70.3070   58.8140 Br  0  0  0  0  0  0  0  0  0  0  0  0
   42.5910   70.2630   60.6710 C   0  0  0  0  0  0  0  0  0  0  0  0
   42.5420   71.4700   61.3410 C   0  0  0  0  0  0  0  0  0  0  0  0
   42.2290   71.4890   62.6720 C   0  0  0  0  0  0  0  0  0  0  0  0
   42.1700   72.3860   63.2630 H   0  0  0  0  0  0  0  0  0  0  0  0
   41.9620   70.3010   63.3440 C   0  0  0  0  0  0  0  0  0  0  0  0
   41.7110   70.2750   64.3970 H   0  0  0  0  0  0  0  0  0  0  0  0
   42.0230   69.1220   62.6370 C   0  0  0  0  0  3  0  0  0  0  0  0
   42.3330   69.0870   61.3120 C   0  0  0  0  0  3  0  0  0  0  0  0
  1  6  1  0  0  0  0
  2  1  2  0  0  0  0
  2  3  1  0  0  0  0
  3  4  2  0  0  0  0
  4  5  1  0  0  0  0
  5 22  1  0  0  0  0
  6  5  2  0  0  0  0
  7  2  1  0  0  0  0
  8  3  1  0  0  0  0
  9 14  1  0  0  0  0
 10 11  1  0  0  0  0
 10  9  2  0  0  0  0
 11 12  2  0  0  0  0
 12 13  1  0  0  0  0
 13  1  1  0  0  0  0
 14 13  2  0  0  0  0
 15  9  1  0  0  0  0
 15 19  1  0  0  0  0
 16 10  1  0  0  0  0
 17 11  1  0  0  0  0
 18 15  1  0  0  0  0
 20 21  1  0  0  0  0
 21 28  2  0  0  0  0
 21 22  1  0  0  0  0
 22 23  2  0  0  0  0
 23 24  1  0  0  0  0
 23 25  1  0  0  0  0
 25 26  1  0  0  0  0
 27 25  2  0  0  0  0
 28 27  1  0  0  0  0
M  END
>  <minimizedAffinity>
-5.5875535

$$$$

 OpenBabel03212520503D

 28 30  0  0  0  0  0  0  0  0999 V2000
   41.3100   73.1420   59.5780 C   0  0  0  0  0  0  0  0  0  0  0  0
   42.4810   73.7770   59.9100 C   0  0  0  0  0  0  0  0  0  0  0  0
   43.5830   73.0810   60.4230 C   0  0  0  0  0  0  0  0  0  0  0  0
   43.4890   71.7390   60.5970 N   0  0  0  0  0  0  0  0  0  0  0  0
   42.3410   71.1360   60.2690 C   0  0  0  0  0  0  0  0  0  0  0  0
   41.2710   71.8140   59.7700 N   0  0  0  0  0  0  0  0  0  0  0  0
   42.5150   74.8560   59.7540 H   0  0  0  0  0  0  0  0  0  0  0  0
   44.4810   73.6560   60.6640 H   0  0  0  0  0  0  0  0  0  0  0  0
   38.1890   73.8580   57.8050 C   0  0  0  0  0  0  0  0  0  0  0  0
   38.0240   75.2190   58.0540 C   0  0  0  0  0  0  0  0  0  0  0  0
   38.9800   75.8970   58.8280 C   0  0  0  0  0  0  0  0  0  0  0  0
   40.0200   75.1570   59.2900 N   0  0  0  0  0  0  0  0  0  0  0  0
   40.1580   73.8600   59.0410 C   0  0  0  0  0  0  0  0  0  0  0  0
   39.2550   73.1980   58.3040 N   0  0  0  0  0  0  0  0  0  0  0  0
   37.1520   73.3140   57.0140 N   0  0  0  0  0  0  0  0  0  0  0  0
   37.2240   75.8580   57.7180 H   0  0  0  0  0  0  0  0  0  0  0  0
   38.9000   76.9520   59.0520 H   0  0  0  0  0  0  0  0  0  0  0  0
   37.4320   72.9740   56.0590 H   0  0  0  0  0  0  0  0  0  0  0  0
   36.1410   73.2130   57.2700 H   0  0  0  0  0  0  0  0  0  0  0  0
   41.7840   70.3490   63.1610 Br  0  0  0  0  0  0  0  0  0  0  0  0
   41.9700   69.1440   61.6910 C   0  0  0  0  0  0  0  0  0  0  0  0
   42.2210   69.6910   60.4490 C   0  0  0  0  0  0  0  0  0  0  0  0
   42.3610   68.8680   59.3660 C   0  0  0  0  0  0  0  0  0  0  0  0
   42.5580   69.2150   58.3670 H   0  0  0  0  0  0  0  0  0  0  0  0
   42.2510   67.4890   59.5170 C   0  0  0  0  0  0  0  0  0  0  0  0
   42.3560   66.8050   58.6840 H   0  0  0  0  0  0  0  0  0  0  0  0
   41.9990   66.9880   60.7740 C   0  0  0  0  0  3  0  0  0  0  0  0
   41.8580   67.7950   61.8610 C   0  0  0  0  0  3  0  0  0  0  0  0
  1  6  2  0  0  0  0
  1  2  1  0  0  0  0
  2  3  2  0  0  0  0
  3  4  1  0  0  0  0
  3  8  1  0  0  0  0
  5 22  1  0  0  0  0
  5  4  2  0  0  0  0
  6  5  1  0  0  0  0
  7  2  1  0  0  0  0
  9 10  2  0  0  0  0
  9 14  1  0  0  0  0
 10 11  1  0  0  0  0
 11 17  1  0  0  0  0
 11 12  2  0  0  0  0
 13 12  1  0  0  0  0
 13  1  1  0  0  0  0
 14 13  2  0  0  0  0
 15 19  1  0  0  0  0
 15  9  1  0  0  0  0
 16 10  1  0  0  0  0
 18 15  1  0  0  0  0
 21 28  1  0  0  0  0
 21 20  1  0  0  0  0
 22 21  2  0  0  0  0
 23 25  2  0  0  0  0
 23 22  1  0  0  0  0
 24 23  1  0  0  0  0
 25 27  1  0  0  0  0
 26 25  1  0  0  0  0
 27 28  2  0  0  0  0
M  END
>  <minimizedAffinity>
-5.51480675

$$$$

 OpenBabel03212520503D

 28 30  0  0  0  0  0  0  0  0999 V2000
   41.9640   72.9610   59.5920 C   0  0  0  0  0  0  0  0  0  0  0  0
   43.2940   73.2260   59.3730 C   0  0  0  0  0  0  0  0  0  0  0  0
   44.2690   72.2220   59.4240 C   0  0  0  0  0  0  0  0  0  0  0  0
   43.8880   70.9490   59.6970 N   0  0  0  0  0  0  0  0  0  0  0  0
   42.5900   70.7080   59.9070 C   0  0  0  0  0  0  0  0  0  0  0  0
   41.6420   71.6850   59.8580 N   0  0  0  0  0  0  0  0  0  0  0  0
   43.5580   74.2620   59.1570 H   0  0  0  0  0  0  0  0  0  0  0  0
   45.3070   72.5110   59.2390 H   0  0  0  0  0  0  0  0  0  0  0  0
   39.3300   75.2860   60.6150 C   0  0  0  0  0  0  0  0  0  0  0  0
   39.0450   75.9400   59.4190 C   0  0  0  0  0  0  0  0  0  0  0  0
   39.7530   75.5890   58.2570 C   0  0  0  0  0  0  0  0  0  0  0  0
   40.6870   74.6130   58.3900 N   0  0  0  0  0  0  0  0  0  0  0  0
   40.9420   74.0010   59.5400 C   0  0  0  0  0  0  0  0  0  0  0  0
   40.2760   74.3240   60.6570 N   0  0  0  0  0  0  0  0  0  0  0  0
   38.5400   75.7430   61.6930 N   0  0  0  0  0  0  0  0  0  0  0  0
   38.3200   76.7200   59.2500 H   0  0  0  0  0  0  0  0  0  0  0  0
   39.5730   76.0660   57.3040 H   0  0  0  0  0  0  0  0  0  0  0  0
   37.8630   75.0470   62.0960 H   0  0  0  0  0  0  0  0  0  0  0  0
   38.5510   76.6940   62.1340 H   0  0  0  0  0  0  0  0  0  0  0  0
   42.4300   70.1410   62.8980 Br  0  0  0  0  0  0  0  0  0  0  0  0
   42.0290   68.9000   61.5040 C   0  0  0  0  0  0  0  0  0  0  0  0
   42.1590   69.3430   60.2020 C   0  0  0  0  0  0  0  0  0  0  0  0
   41.8830   68.4910   59.1700 C   0  0  0  0  0  0  0  0  0  0  0  0
   41.9610   68.7580   58.1310 H   0  0  0  0  0  0  0  0  0  0  0  0
   41.4730   67.1860   59.4310 C   0  0  0  0  0  0  0  0  0  0  0  0
   41.2450   66.4820   58.6400 H   0  0  0  0  0  0  0  0  0  0  0  0
   41.3560   66.7890   60.7430 C   0  0  0  0  0  3  0  0  0  0  0  0
   41.6280   67.6260   61.7810 C   0  0  0  0  0  3  0  0  0  0  0  0
  1  6  1  0  0  0  0
  2  3  1  0  0  0  0
  2  1  2  0  0  0  0
  3  4  2  0  0  0  0
  4  5  1  0  0  0  0
  5 22  1  0  0  0  0
  6  5  2  0  0  0  0
  7  2  1  0  0  0  0
  8  3  1  0  0  0  0
  9 14  1  0  0  0  0
  9 15  1  0  0  0  0
 10  9  2  0  0  0  0
 11 12  2  0  0  0  0
 11 10  1  0  0  0  0
 12 13  1  0  0  0  0
 13  1  1  0  0  0  0
 13 14  2  0  0  0  0
 15 18  1  0  0  0  0
 15 19  1  0  0  0  0
 16 10  1  0  0  0  0
 17 11  1  0  0  0  0
 21 28  1  0  0  0  0
 21 20  1  0  0  0  0
 22 21  2  0  0  0  0
 23 25  2  0  0  0  0
 23 22  1  0  0  0  0
 24 23  1  0  0  0  0
 25 27  1  0  0  0  0
 26 25  1  0  0  0  0
 27 28  2  0  0  0  0
M  END
>  <minimizedAffinity>
-5.47180891

$$$$

 OpenBabel03212520503D

 28 30  0  0  0  0  0  0  0  0999 V2000
   41.6950   71.4150   60.0160 C   0  0  0  0  0  0  0  0  0  0  0  0
   41.2190   70.9560   58.8130 C   0  0  0  0  0  0  0  0  0  0  0  0
   40.6250   71.8100   57.8750 C   0  0  0  0  0  0  0  0  0  0  0  0
   40.5180   73.1310   58.1640 N   0  0  0  0  0  0  0  0  0  0  0  0
   40.9880   73.5620   59.3400 C   0  0  0  0  0  0  0  0  0  0  0  0
   41.5640   72.7310   60.2520 N   0  0  0  0  0  0  0  0  0  0  0  0
   41.3240   69.8870   58.6200 H   0  0  0  0  0  0  0  0  0  0  0  0
   40.2700   71.3700   56.9400 H   0  0  0  0  0  0  0  0  0  0  0  0
   43.9270   68.9440   61.5340 C   0  0  0  0  0  0  0  0  0  0  0  0
   43.4530   68.8950   62.8430 C   0  0  0  0  0  0  0  0  0  0  0  0
   42.3680   69.7080   63.2110 C   0  0  0  0  0  0  0  0  0  0  0  0
   41.8480   70.5010   62.2400 N   0  0  0  0  0  0  0  0  0  0  0  0
   42.3160   70.5320   60.9980 C   0  0  0  0  0  0  0  0  0  0  0  0
   43.3500   69.7630   60.6300 N   0  0  0  0  0  0  0  0  0  0  0  0
   45.0180   68.0740   61.3110 N   0  0  0  0  0  0  0  0  0  0  0  0
   43.8220   68.2900   63.6550 H   0  0  0  0  0  0  0  0  0  0  0  0
   41.9620   69.7100   64.2140 H   0  0  0  0  0  0  0  0  0  0  0  0
   44.8430   67.2760   60.6490 H   0  0  0  0  0  0  0  0  0  0  0  0
   45.9770   68.1330   61.7310 H   0  0  0  0  0  0  0  0  0  0  0  0
   43.2340   75.2270   58.1260 Br  0  0  0  0  0  0  0  0  0  0  0  0
   41.8110   75.8940   59.2090 C   0  0  0  0  0  0  0  0  0  0  0  0
   40.8820   74.9810   59.6700 C   0  0  0  0  0  0  0  0  0  0  0  0
   39.8440   75.4120   60.4490 C   0  0  0  0  0  0  0  0  0  0  0  0
   39.0810   74.7650   60.8470 H   0  0  0  0  0  0  0  0  0  0  0  0
   39.7260   76.7590   60.7750 C   0  0  0  0  0  0  0  0  0  0  0  0
   38.9190   77.1380   61.3890 H   0  0  0  0  0  0  0  0  0  0  0  0
   40.6750   77.6330   60.2930 C   0  0  0  0  0  3  0  0  0  0  0  0
   41.7130   77.2190   59.5170 C   0  0  0  0  0  3  0  0  0  0  0  0
  1  6  1  0  0  0  0
  1 13  1  0  0  0  0
  2  1  2  0  0  0  0
  3  4  2  0  0  0  0
  3  2  1  0  0  0  0
  4  5  1  0  0  0  0
  5 22  1  0  0  0  0
  5  6  2  0  0  0  0
  7  2  1  0  0  0  0
  8  3  1  0  0  0  0
  9 10  1  0  0  0  0
 10 11  2  0  0  0  0
 10 16  1  0  0  0  0
 11 17  1  0  0  0  0
 12 11  1  0  0  0  0
 13 12  2  0  0  0  0
 14 13  1  0  0  0  0
 14  9  2  0  0  0  0
 15  9  1  0  0  0  0
 15 19  1  0  0  0  0
 18 15  1  0  0  0  0
 20 21  1  0  0  0  0
 21 28  2  0  0  0  0
 21 22  1  0  0  0  0
 22 23  2  0  0  0  0
 23 25  1  0  0  0  0
 23 24  1  0  0  0  0
 25 26  1  0  0  0  0
 27 25  2  0  0  0  0
 28 27  1  0  0  0  0
M  END
>  <minimizedAffinity>
-5.40897989

$$$$

 OpenBabel03212520503D

 28 30  0  0  0  0  0  0  0  0999 V2000
   42.5290   73.8960   59.3890 C   0  0  0  0  0  0  0  0  0  0  0  0
   43.8630   74.0890   59.1230 C   0  0  0  0  0  0  0  0  0  0  0  0
   44.7110   73.0320   58.7700 C   0  0  0  0  0  0  0  0  0  0  0  0
   44.1990   71.7780   58.6890 N   0  0  0  0  0  0  0  0  0  0  0  0
   42.8980   71.6070   58.9510 C   0  0  0  0  0  0  0  0  0  0  0  0
   42.0740   72.6360   59.2940 N   0  0  0  0  0  0  0  0  0  0  0  0
   44.2340   75.1130   59.2000 H   0  0  0  0  0  0  0  0  0  0  0  0
   45.7600   73.2650   58.5740 H   0  0  0  0  0  0  0  0  0  0  0  0
   39.7150   75.7450   60.8220 C   0  0  0  0  0  0  0  0  0  0  0  0
   39.9990   77.0500   60.4270 C   0  0  0  0  0  0  0  0  0  0  0  0
   41.1550   77.3030   59.6700 C   0  0  0  0  0  0  0  0  0  0  0  0
   41.9300   76.2290   59.3700 N   0  0  0  0  0  0  0  0  0  0  0  0
   41.6400   74.9930   59.7570 C   0  0  0  0  0  0  0  0  0  0  0  0
   40.5410   74.7340   60.4800 N   0  0  0  0  0  0  0  0  0  0  0  0
   38.5240   75.6450   61.5750 N   0  0  0  0  0  0  0  0  0  0  0  0
   39.4270   77.9400   60.6330 H   0  0  0  0  0  0  0  0  0  0  0  0
   41.4230   78.2970   59.3380 H   0  0  0  0  0  0  0  0  0  0  0  0
   37.7380   75.1100   61.1260 H   0  0  0  0  0  0  0  0  0  0  0  0
   38.3350   76.0450   62.5260 H   0  0  0  0  0  0  0  0  0  0  0  0
   42.8420   70.1800   61.6440 Br  0  0  0  0  0  0  0  0  0  0  0  0
   42.2200   69.4630   59.9880 C   0  0  0  0  0  0  0  0  0  0  0  0
   42.3280   70.2640   58.8680 C   0  0  0  0  0  0  0  0  0  0  0  0
   41.8950   69.7940   57.6590 C   0  0  0  0  0  0  0  0  0  0  0  0
   41.9460   70.3550   56.7420 H   0  0  0  0  0  0  0  0  0  0  0  0
   41.3500   68.5180   57.5600 C   0  0  0  0  0  0  0  0  0  0  0  0
   40.9970   68.1110   56.6210 H   0  0  0  0  0  0  0  0  0  0  0  0
   41.2610   67.7550   58.7020 C   0  0  0  0  0  3  0  0  0  0  0  0
   41.6880   68.2090   59.9120 C   0  0  0  0  0  3  0  0  0  0  0  0
  1 13  1  0  0  0  0
  2  7  1  0  0  0  0
  2  1  2  0  0  0  0
  3  2  1  0  0  0  0
  4  3  2  0  0  0  0
  4  5  1  0  0  0  0
  5  6  2  0  0  0  0
  6  1  1  0  0  0  0
  8  3  1  0  0  0  0
  9 15  1  0  0  0  0
 10 16  1  0  0  0  0
 10  9  2  0  0  0  0
 11 10  1  0  0  0  0
 12 11  2  0  0  0  0
 12 13  1  0  0  0  0
 13 14  2  0  0  0  0
 14  9  1  0  0  0  0
 15 19  1  0  0  0  0
 17 11  1  0  0  0  0
 18 15  1  0  0  0  0
 21 20  1  0  0  0  0
 22  5  1  0  0  0  0
 22 21  2  0  0  0  0
 23 22  1  0  0  0  0
 24 23  1  0  0  0  0
 25 23  2  0  0  0  0
 25 27  1  0  0  0  0
 26 25  1  0  0  0  0
 27 28  2  0  0  0  0
 28 21  1  0  0  0  0
M  END
>  <minimizedAffinity>
-5.23472309

$$$$
