
 OpenBabel03212520493D

 28 30  0  0  0  0  0  0  0  0999 V2000
   41.5360   83.8430   60.7480 C   0  0  0  0  0  0  0  0  0  0  0  0
   40.6900   84.1330   61.7900 C   0  0  0  0  0  0  0  0  0  0  0  0
   39.6660   83.2600   62.1800 C   0  0  0  0  0  0  0  0  0  0  0  0
   39.5070   82.0920   61.5080 N   0  0  0  0  0  0  0  0  0  0  0  0
   40.3400   81.8250   60.4960 C   0  0  0  0  0  0  0  0  0  0  0  0
   41.3350   82.6750   60.1170 N   0  0  0  0  0  0  0  0  0  0  0  0
   40.8520   85.0820   62.3040 H   0  0  0  0  0  0  0  0  0  0  0  0
   39.0330   83.5600   63.0180 H   0  0  0  0  0  0  0  0  0  0  0  0
   44.8110   85.4610   60.5170 C   0  0  0  0  0  0  0  0  0  0  0  0
   44.5780   86.4420   59.5550 C   0  0  0  0  0  0  0  0  0  0  0  0
   43.3000   86.5530   58.9820 C   0  0  0  0  0  0  0  0  0  0  0  0
   42.3620   85.6750   59.4190 N   0  0  0  0  0  0  0  0  0  0  0  0
   42.6050   84.7470   60.3370 C   0  0  0  0  0  0  0  0  0  0  0  0
   43.8190   84.6270   60.8930 N   0  0  0  0  0  0  0  0  0  0  0  0
   46.1380   85.4700   61.0010 N   0  0  0  0  0  0  0  0  0  0  0  0
   45.2780   87.1650   59.1690 H   0  0  0  0  0  0  0  0  0  0  0  0
   43.0660   87.2960   58.2320 H   0  0  0  0  0  0  0  0  0  0  0  0
   46.2570   85.7300   62.0130 H   0  0  0  0  0  0  0  0  0  0  0  0
   47.0130   85.2490   60.4680 H   0  0  0  0  0  0  0  0  0  0  0  0
   40.8770   79.3680   62.2200 Br  0  0  0  0  0  0  0  0  0  0  0  0
   40.3870   79.3520   60.3750 C   0  0  0  0  0  0  0  0  0  0  0  0
   40.1850   80.5720   59.7600 C   0  0  0  0  0  0  0  0  0  0  0  0
   39.8320   80.6110   58.4400 C   0  0  0  0  0  0  0  0  0  0  0  0
   39.6570   81.5190   57.8890 H   0  0  0  0  0  0  0  0  0  0  0  0
   39.6790   79.4300   57.7210 C   0  0  0  0  0  0  0  0  0  0  0  0
   39.4010   79.4190   56.6760 H   0  0  0  0  0  0  0  0  0  0  0  0
   39.8910   78.2360   58.3750 C   0  0  0  0  0  3  0  0  0  0  0  0
   40.2420   78.1820   59.6890 C   0  0  0  0  0  3  0  0  0  0  0  0
  1  2  1  0  0  0  0
  2  3  2  0  0  0  0
  2  7  1  0  0  0  0
  3  8  1  0  0  0  0
  4  3  1  0  0  0  0
  5  4  2  0  0  0  0
  6  5  1  0  0  0  0
  6  1  2  0  0  0  0
  9 14  1  0  0  0  0
  9 15  1  0  0  0  0
 10  9  2  0  0  0  0
 11 12  2  0  0  0  0
 11 10  1  0  0  0  0
 12 13  1  0  0  0  0
 13  1  1  0  0  0  0
 13 14  2  0  0  0  0
 15 18  1  0  0  0  0
 16 10  1  0  0  0  0
 17 11  1  0  0  0  0
 19 15  1  0  0  0  0
 21 20  1  0  0  0  0
 22 21  1  0  0  0  0
 22  5  1  0  0  0  0
 23 22  2  0  0  0  0
 24 23  1  0  0  0  0
 25 27  2  0  0  0  0
 25 23  1  0  0  0  0
 26 25  1  0  0  0  0
 27 28  1  0  0  0  0
 28 21  2  0  0  0  0
M  END
>  <minimizedAffinity>
-5.32985544

>  <minimizedRMSD>
2.24572968

$$$$
