
 OpenBabel03212520093D

 18 19  0  0  0  0  0  0  0  0999 V2000
   40.1740   82.0800   60.6030 C   0  0  0  0  0  0  0  0  0  0  0  0
   40.0980   83.0620   59.5780 C   0  0  0  0  0  0  0  0  0  0  0  0
   39.4250   84.2470   59.8830 C   0  0  0  0  0  0  0  0  0  0  0  0
   38.8880   84.3940   61.1230 N   0  0  0  0  0  0  0  0  0  0  0  0
   38.9840   83.4380   62.0620 C   0  0  0  0  0  0  0  0  0  0  0  0
   39.6230   82.2910   61.8010 N   0  0  0  0  0  0  0  0  0  0  0  0
   40.6790   81.1400   60.4380 H   0  0  0  0  0  0  0  0  0  0  0  0
   39.3750   84.9850   59.0940 H   0  0  0  0  0  0  0  0  0  0  0  0
   38.4960   83.7490   62.9670 H   0  0  0  0  0  0  0  0  0  0  0  0
   42.5030   84.8760   58.6720 Br  0  0  0  0  0  0  0  0  0  0  0  0
   41.7890   83.4060   57.6970 C   0  0  0  0  0  0  0  0  0  0  0  0
   40.7280   82.7550   58.2940 C   0  0  0  0  0  0  0  0  0  0  0  0
   40.1510   81.6760   57.6500 C   0  0  0  0  0  0  0  0  0  0  0  0
   39.3130   81.0690   57.9990 H   0  0  0  0  0  0  0  0  0  0  0  0
   40.6160   81.2340   56.4130 C   0  0  0  0  0  0  0  0  0  0  0  0
   40.2010   80.3940   55.8640 H   0  0  0  0  0  0  0  0  0  0  0  0
   41.6770   81.8950   55.8270 C   0  0  0  0  0  3  0  0  0  0  0  0
   42.2520   82.9710   56.4720 C   0  0  0  0  0  3  0  0  0  0  0  0
  1  6  1  0  0  0  0
  2  3  1  0  0  0  0
  2  1  2  0  0  0  0
  3  4  2  0  0  0  0
  4  5  1  0  0  0  0
  5  9  1  0  0  0  0
  6  5  2  0  0  0  0
  7  1  1  0  0  0  0
  8  3  1  0  0  0  0
 11 12  1  0  0  0  0
 11 10  1  0  0  0  0
 12  2  1  0  0  0  0
 13 14  1  0  0  0  0
 13 12  2  0  0  0  0
 15 13  1  0  0  0  0
 16 15  1  0  0  0  0
 17 15  2  0  0  0  0
 17 18  1  0  0  0  0
 18 11  2  0  0  0  0
M  END
>  <minimizedAffinity>
-4.53854275

>  <minimizedRMSD>
1.36898661

$$$$
