
 OpenBabel03212520443D

 18 19  0  0  0  0  0  0  0  0999 V2000
   41.8930   82.9600   62.2300 C   0  0  0  0  0  0  0  0  0  0  0  0
   41.3180   82.0180   61.3690 C   0  0  0  0  0  0  0  0  0  0  0  0
   39.9350   81.8890   61.2410 C   0  0  0  0  0  0  0  0  0  0  0  0
   39.1910   82.7420   62.0110 N   0  0  0  0  0  0  0  0  0  0  0  0
   39.7570   83.6420   62.8330 C   0  0  0  0  0  0  0  0  0  0  0  0
   41.0830   83.7570   62.9490 N   0  0  0  0  0  0  0  0  0  0  0  0
   41.8780   81.3490   60.7640 H   0  0  0  0  0  0  0  0  0  0  0  0
   39.4790   81.1750   60.5880 H   0  0  0  0  0  0  0  0  0  0  0  0
   39.1500   84.3140   63.4400 H   0  0  0  0  0  0  0  0  0  0  0  0
   42.9450   85.1490   60.3940 Br  0  0  0  0  0  0  0  0  0  0  0  0
   43.9840   84.0130   61.5410 C   0  0  0  0  0  0  0  0  0  0  0  0
   43.3460   83.0530   62.3250 C   0  0  0  0  0  0  0  0  0  0  0  0
   44.1540   82.2890   63.1080 C   0  0  0  0  0  0  0  0  0  0  0  0
   43.7060   81.5470   63.7200 H   0  0  0  0  0  0  0  0  0  0  0  0
   45.5310   82.4650   63.1180 C   0  0  0  0  0  0  0  0  0  0  0  0
   46.1340   81.8230   63.7680 H   0  0  0  0  0  0  0  0  0  0  0  0
   46.1350   83.4220   62.3330 C   0  0  0  0  0  3  0  0  0  0  0  0
   45.3410   84.2210   61.5190 C   0  0  0  0  0  3  0  0  0  0  0  0
  1 12  1  0  0  0  0
  1  6  1  0  0  0  0
  2  1  2  0  0  0  0
  3  2  1  0  0  0  0
  3  4  2  0  0  0  0
  4  5  1  0  0  0  0
  5  6  2  0  0  0  0
  5  9  1  0  0  0  0
  7  2  1  0  0  0  0
  8  3  1  0  0  0  0
 10 11  1  0  0  0  0
 11 12  1  0  0  0  0
 12 13  2  0  0  0  0
 13 15  1  0  0  0  0
 13 14  1  0  0  0  0
 15 16  1  0  0  0  0
 17 15  2  0  0  0  0
 18 11  2  0  0  0  0
 18 17  1  0  0  0  0
M  END
>  <minimizedAffinity>
-3.99167919

>  <minimizedRMSD>
4.71842051

$$$$
