
 OpenBabel03212520443D

 18 19  0  0  0  0  0  0  0  0999 V2000
   40.1400   81.9410   61.1040 C   0  0  0  0  0  0  0  0  0  0  0  0
   40.2640   82.7030   59.9370 C   0  0  0  0  0  0  0  0  0  0  0  0
   39.6630   83.9550   59.8110 C   0  0  0  0  0  0  0  0  0  0  0  0
   38.9530   84.3790   60.9020 N   0  0  0  0  0  0  0  0  0  0  0  0
   38.8430   83.6360   62.0160 C   0  0  0  0  0  0  0  0  0  0  0  0
   39.4210   82.4370   62.1270 N   0  0  0  0  0  0  0  0  0  0  0  0
   40.8110   82.3920   59.0810 H   0  0  0  0  0  0  0  0  0  0  0  0
   39.7480   84.5510   58.9270 H   0  0  0  0  0  0  0  0  0  0  0  0
   38.2730   83.9870   62.8770 H   0  0  0  0  0  0  0  0  0  0  0  0
   42.9260   82.2050   62.2990 Br  0  0  0  0  0  0  0  0  0  0  0  0
   42.0790   80.5870   61.7090 C   0  0  0  0  0  0  0  0  0  0  0  0
   40.7890   80.6360   61.1810 C   0  0  0  0  0  0  0  0  0  0  0  0
   40.2610   79.4470   60.7880 C   0  0  0  0  0  0  0  0  0  0  0  0
   39.2810   79.4410   60.3800 H   0  0  0  0  0  0  0  0  0  0  0  0
   40.9720   78.2610   60.9090 C   0  0  0  0  0  0  0  0  0  0  0  0
   40.4990   77.3310   60.5760 H   0  0  0  0  0  0  0  0  0  0  0  0
   42.2460   78.2410   61.4340 C   0  0  0  0  0  3  0  0  0  0  0  0
   42.8190   79.4390   61.8480 C   0  0  0  0  0  3  0  0  0  0  0  0
  1 12  1  0  0  0  0
  1  6  1  0  0  0  0
  2  1  2  0  0  0  0
  3  2  1  0  0  0  0
  3  4  2  0  0  0  0
  4  5  1  0  0  0  0
  5  6  2  0  0  0  0
  5  9  1  0  0  0  0
  7  2  1  0  0  0  0
  8  3  1  0  0  0  0
 11 18  1  0  0  0  0
 11 10  1  0  0  0  0
 12 11  2  0  0  0  0
 13 15  2  0  0  0  0
 13 12  1  0  0  0  0
 14 13  1  0  0  0  0
 15 17  1  0  0  0  0
 16 15  1  0  0  0  0
 17 18  2  0  0  0  0
M  END
>  <minimizedAffinity>
-4.73668098

>  <minimizedRMSD>
0.829081595

$$$$
