
 OpenBabel03212520093D

 18 19  0  0  0  0  0  0  0  0999 V2000
   40.1740   82.0800   60.6040 C   0  0  0  0  0  0  0  0  0  0  0  0
   40.0980   83.0620   59.5780 C   0  0  0  0  0  0  0  0  0  0  0  0
   39.4250   84.2470   59.8830 C   0  0  0  0  0  0  0  0  0  0  0  0
   38.8880   84.3940   61.1230 N   0  0  0  0  0  0  0  0  0  0  0  0
   38.9840   83.4380   62.0620 C   0  0  0  0  0  0  0  0  0  0  0  0
   39.6230   82.2910   61.8010 N   0  0  0  0  0  0  0  0  0  0  0  0
   40.6790   81.1400   60.4390 H   0  0  0  0  0  0  0  0  0  0  0  0
   39.3750   84.9850   59.0950 H   0  0  0  0  0  0  0  0  0  0  0  0
   38.4950   83.7490   62.9680 H   0  0  0  0  0  0  0  0  0  0  0  0
   42.5030   84.8760   58.6720 Br  0  0  0  0  0  0  0  0  0  0  0  0
   41.7870   83.4060   57.6960 C   0  0  0  0  0  0  0  0  0  0  0  0
   40.7280   82.7550   58.2940 C   0  0  0  0  0  0  0  0  0  0  0  0
   40.1520   81.6770   57.6510 C   0  0  0  0  0  0  0  0  0  0  0  0
   39.3140   81.0690   57.9990 H   0  0  0  0  0  0  0  0  0  0  0  0
   40.6170   81.2340   56.4130 C   0  0  0  0  0  0  0  0  0  0  0  0
   40.2000   80.3930   55.8640 H   0  0  0  0  0  0  0  0  0  0  0  0
   41.6770   81.8950   55.8280 C   0  0  0  0  0  3  0  0  0  0  0  0
   42.2520   82.9710   56.4710 C   0  0  0  0  0  3  0  0  0  0  0  0
  1  6  1  0  0  0  0
  2  3  1  0  0  0  0
  2  1  2  0  0  0  0
  3  4  2  0  0  0  0
  4  5  1  0  0  0  0
  5  9  1  0  0  0  0
  6  5  2  0  0  0  0
  7  1  1  0  0  0  0
  8  3  1  0  0  0  0
 11 12  1  0  0  0  0
 11 10  1  0  0  0  0
 12  2  1  0  0  0  0
 13 14  1  0  0  0  0
 13 12  2  0  0  0  0
 15 13  1  0  0  0  0
 16 15  1  0  0  0  0
 17 15  2  0  0  0  0
 17 18  1  0  0  0  0
 18 11  2  0  0  0  0
M  END
>  <minimizedAffinity>
-4.53874874

>  <minimizedRMSD>
0.965130866

$$$$
