
 OpenBabel03212519593D

 18 19  0  0  0  0  0  0  0  0999 V2000
   44.3160   83.7190   59.0830 C   0  0  0  0  0  0  0  0  0  0  0  0
   44.3120   84.9800   58.4350 C   0  0  0  0  0  0  0  0  0  0  0  0
   43.5070   85.9770   58.9870 C   0  0  0  0  0  0  0  0  0  0  0  0
   42.7710   85.6970   60.1100 N   0  0  0  0  0  0  0  0  0  0  0  0
   42.8030   84.4870   60.6930 C   0  0  0  0  0  0  0  0  0  0  0  0
   43.5730   83.4940   60.1850 N   0  0  0  0  0  0  0  0  0  0  0  0
   44.9470   82.9610   58.6390 H   0  0  0  0  0  0  0  0  0  0  0  0
   44.8850   85.1990   57.5610 H   0  0  0  0  0  0  0  0  0  0  0  0
   43.4470   86.9630   58.5560 H   0  0  0  0  0  0  0  0  0  0  0  0
   39.9850   83.5220   60.0480 Br  0  0  0  0  0  0  0  0  0  0  0  0
   40.7060   83.7890   61.7750 C   0  0  0  0  0  0  0  0  0  0  0  0
   42.0030   84.2300   61.8880 C   0  0  0  0  0  0  0  0  0  0  0  0
   42.5620   84.4360   63.1320 C   0  0  0  0  0  0  0  0  0  0  0  0
   43.5900   84.7860   63.1860 H   0  0  0  0  0  0  0  0  0  0  0  0
   41.8550   84.2120   64.3060 C   0  0  0  0  0  0  0  0  0  0  0  0
   42.2950   84.3740   65.2990 H   0  0  0  0  0  0  0  0  0  0  0  0
   40.5350   83.7630   64.2110 C   0  0  0  0  0  0  0  0  0  0  0  0
   40.0060   83.5660   62.9500 C   0  0  0  0  0  0  0  0  0  0  0  0
  1  6  1  0  0  0  0
  2  3  1  0  0  0  0
  2  1  2  0  0  0  0
  3  4  2  0  0  0  0
  4  5  1  0  0  0  0
  5 12  1  0  0  0  0
  6  5  2  0  0  0  0
  7  1  1  0  0  0  0
  8  2  1  0  0  0  0
  9  3  1  0  0  0  0
 10 11  1  0  0  0  0
 11 12  2  0  0  0  0
 11 18  1  0  0  0  0
 12 13  1  0  0  0  0
 13 14  1  0  0  0  0
 13 15  2  0  0  0  0
 15 16  1  0  0  0  0
 17 15  1  0  0  0  0
 18 17  2  0  0  0  0
M  END
>  <minimizedAffinity>
-4.24913168

>  <minimizedRMSD>
4.50273275

$$$$
