
 OpenBabel03212520093D

 18 19  0  0  0  0  0  0  0  0999 V2000
   40.1240   82.0230   60.7290 C   0  0  0  0  0  0  0  0  0  0  0  0
   40.1710   82.9490   59.6500 C   0  0  0  0  0  0  0  0  0  0  0  0
   39.5290   84.1750   59.8380 C   0  0  0  0  0  0  0  0  0  0  0  0
   38.9050   84.4130   61.0220 N   0  0  0  0  0  0  0  0  0  0  0  0
   38.8860   83.5070   62.0150 C   0  0  0  0  0  0  0  0  0  0  0  0
   39.4920   82.3220   61.8660 N   0  0  0  0  0  0  0  0  0  0  0  0
   40.5980   81.0560   60.6540 H   0  0  0  0  0  0  0  0  0  0  0  0
   39.5730   84.8700   59.0110 H   0  0  0  0  0  0  0  0  0  0  0  0
   38.3430   83.8870   62.8610 H   0  0  0  0  0  0  0  0  0  0  0  0
   43.0990   84.0310   59.2610 Br  0  0  0  0  0  0  0  0  0  0  0  0
   42.1640   82.8930   58.0570 C   0  0  0  0  0  0  0  0  0  0  0  0
   40.8840   82.5460   58.4380 C   0  0  0  0  0  0  0  0  0  0  0  0
   40.1360   81.7210   57.6190 C   0  0  0  0  0  0  0  0  0  0  0  0
   39.1180   81.3650   57.7900 H   0  0  0  0  0  0  0  0  0  0  0  0
   40.6480   81.2330   56.4170 C   0  0  0  0  0  0  0  0  0  0  0  0
   40.1050   80.5830   55.7370 H   0  0  0  0  0  0  0  0  0  0  0  0
   41.9290   81.5890   56.0470 C   0  0  0  0  0  3  0  0  0  0  0  0
   42.6740   82.4120   56.8670 C   0  0  0  0  0  3  0  0  0  0  0  0
  1  6  1  0  0  0  0
  2  3  1  0  0  0  0
  2  1  2  0  0  0  0
  3  4  2  0  0  0  0
  4  5  1  0  0  0  0
  5  9  1  0  0  0  0
  6  5  2  0  0  0  0
  7  1  1  0  0  0  0
  8  3  1  0  0  0  0
 11 12  1  0  0  0  0
 11 10  1  0  0  0  0
 12  2  1  0  0  0  0
 13 14  1  0  0  0  0
 13 12  2  0  0  0  0
 15 13  1  0  0  0  0
 16 15  1  0  0  0  0
 17 15  2  0  0  0  0
 17 18  1  0  0  0  0
 18 11  2  0  0  0  0
M  END
>  <minimizedAffinity>
-4.34942436

>  <minimizedRMSD>
0.551384389

$$$$
