
 OpenBabel03212520093D

 18 19  0  0  0  0  0  0  0  0999 V2000
   40.4180   82.2730   60.4960 C   0  0  0  0  0  0  0  0  0  0  0  0
   40.2250   83.3010   59.5320 C   0  0  0  0  0  0  0  0  0  0  0  0
   39.3910   84.3610   59.8930 C   0  0  0  0  0  0  0  0  0  0  0  0
   38.8180   84.3520   61.1250 N   0  0  0  0  0  0  0  0  0  0  0  0
   39.0280   83.3580   62.0060 C   0  0  0  0  0  0  0  0  0  0  0  0
   39.8230   82.3280   61.6900 N   0  0  0  0  0  0  0  0  0  0  0  0
   41.0510   81.4230   60.2860 H   0  0  0  0  0  0  0  0  0  0  0  0
   39.2530   85.1350   59.1520 H   0  0  0  0  0  0  0  0  0  0  0  0
   38.4860   83.5390   62.9160 H   0  0  0  0  0  0  0  0  0  0  0  0
   39.8340   80.6100   57.9510 Br  0  0  0  0  0  0  0  0  0  0  0  0
   40.8900   82.0890   57.3870 C   0  0  0  0  0  0  0  0  0  0  0  0
   40.9140   83.1670   58.2480 C   0  0  0  0  0  0  0  0  0  0  0  0
   41.6570   84.2820   57.9120 C   0  0  0  0  0  0  0  0  0  0  0  0
   41.7680   85.2010   58.4910 H   0  0  0  0  0  0  0  0  0  0  0  0
   42.3830   84.3410   56.7240 C   0  0  0  0  0  0  0  0  0  0  0  0
   42.9830   85.1900   56.4110 H   0  0  0  0  0  0  0  0  0  0  0  0
   42.3500   83.2560   55.8720 C   0  0  0  0  0  3  0  0  0  0  0  0
   41.6070   82.1430   56.2080 C   0  0  0  0  0  3  0  0  0  0  0  0
  1  6  1  0  0  0  0
  2  3  1  0  0  0  0
  2  1  2  0  0  0  0
  3  4  2  0  0  0  0
  4  5  1  0  0  0  0
  5  9  1  0  0  0  0
  6  5  2  0  0  0  0
  7  1  1  0  0  0  0
  8  3  1  0  0  0  0
 11 10  1  0  0  0  0
 11 12  1  0  0  0  0
 12  2  1  0  0  0  0
 13 12  2  0  0  0  0
 13 14  1  0  0  0  0
 15 13  1  0  0  0  0
 16 15  1  0  0  0  0
 17 18  1  0  0  0  0
 17 15  2  0  0  0  0
 18 11  2  0  0  0  0
M  END
>  <minimizedAffinity>
-4.37774038

>  <minimizedRMSD>
0.993994057

$$$$
