
 OpenBabel03212520093D

 18 19  0  0  0  0  0  0  0  0999 V2000
   40.0820   81.9610   60.7750 C   0  0  0  0  0  0  0  0  0  0  0  0
   40.1740   82.8530   59.6730 C   0  0  0  0  0  0  0  0  0  0  0  0
   39.5770   84.1080   59.8200 C   0  0  0  0  0  0  0  0  0  0  0  0
   38.9510   84.4000   60.9900 N   0  0  0  0  0  0  0  0  0  0  0  0
   38.8880   83.5240   62.0080 C   0  0  0  0  0  0  0  0  0  0  0  0
   39.4510   82.3140   61.8970 N   0  0  0  0  0  0  0  0  0  0  0  0
   40.5210   80.9750   60.7320 H   0  0  0  0  0  0  0  0  0  0  0  0
   39.6540   84.7770   58.9750 H   0  0  0  0  0  0  0  0  0  0  0  0
   38.3520   83.9470   62.8370 H   0  0  0  0  0  0  0  0  0  0  0  0
   43.2000   83.6620   59.3780 Br  0  0  0  0  0  0  0  0  0  0  0  0
   42.2000   82.6190   58.1390 C   0  0  0  0  0  0  0  0  0  0  0  0
   40.8830   82.3910   58.4790 C   0  0  0  0  0  0  0  0  0  0  0  0
   40.0880   81.6420   57.6330 C   0  0  0  0  0  0  0  0  0  0  0  0
   39.0360   81.3820   57.7710 H   0  0  0  0  0  0  0  0  0  0  0  0
   40.5870   81.1140   56.4430 C   0  0  0  0  0  0  0  0  0  0  0  0
   40.0080   80.5200   55.7430 H   0  0  0  0  0  0  0  0  0  0  0  0
   41.9070   81.3510   56.1150 C   0  0  0  0  0  3  0  0  0  0  0  0
   42.7000   82.0990   56.9620 C   0  0  0  0  0  3  0  0  0  0  0  0
  1  6  1  0  0  0  0
  2  3  1  0  0  0  0
  2  1  2  0  0  0  0
  3  4  2  0  0  0  0
  4  5  1  0  0  0  0
  5  9  1  0  0  0  0
  6  5  2  0  0  0  0
  7  1  1  0  0  0  0
  8  3  1  0  0  0  0
 11 12  1  0  0  0  0
 11 10  1  0  0  0  0
 12  2  1  0  0  0  0
 13 14  1  0  0  0  0
 13 12  2  0  0  0  0
 15 13  1  0  0  0  0
 16 15  1  0  0  0  0
 17 15  2  0  0  0  0
 17 18  1  0  0  0  0
 18 11  2  0  0  0  0
M  END
>  <minimizedAffinity>
-4.28108454

>  <minimizedRMSD>
0.172334224

$$$$
