
 OpenBabel03212520493D

 28 30  0  0  0  0  0  0  0  0999 V2000
   41.6160   83.9160   61.3740 C   0  0  0  0  0  0  0  0  0  0  0  0
   41.0640   84.3310   62.5610 C   0  0  0  0  0  0  0  0  0  0  0  0
   40.6490   83.4240   63.5440 C   0  0  0  0  0  0  0  0  0  0  0  0
   40.7990   82.0950   63.3170 N   0  0  0  0  0  0  0  0  0  0  0  0
   41.3390   81.7080   62.1560 C   0  0  0  0  0  0  0  0  0  0  0  0
   41.7410   82.5910   61.2000 N   0  0  0  0  0  0  0  0  0  0  0  0
   40.9620   85.4080   62.7040 H   0  0  0  0  0  0  0  0  0  0  0  0
   40.2180   83.8300   64.4620 H   0  0  0  0  0  0  0  0  0  0  0  0
   43.5700   86.4490   59.5950 C   0  0  0  0  0  0  0  0  0  0  0  0
   42.8400   86.5980   58.4180 C   0  0  0  0  0  0  0  0  0  0  0  0
   41.6780   85.8330   58.2280 C   0  0  0  0  0  0  0  0  0  0  0  0
   41.3410   84.9830   59.2310 N   0  0  0  0  0  0  0  0  0  0  0  0
   42.0510   84.8560   60.3450 C   0  0  0  0  0  0  0  0  0  0  0  0
   43.1630   85.5780   60.5430 N   0  0  0  0  0  0  0  0  0  0  0  0
   44.7100   87.2810   59.6440 N   0  0  0  0  0  0  0  0  0  0  0  0
   43.0550   87.2520   57.5880 H   0  0  0  0  0  0  0  0  0  0  0  0
   41.0750   85.9090   57.3330 H   0  0  0  0  0  0  0  0  0  0  0  0
   44.7000   88.0330   60.3790 H   0  0  0  0  0  0  0  0  0  0  0  0
   45.5610   87.2340   59.0330 H   0  0  0  0  0  0  0  0  0  0  0  0
   44.2580   80.8350   62.2090 Br  0  0  0  0  0  0  0  0  0  0  0  0
   42.7600   79.7000   61.8750 C   0  0  0  0  0  0  0  0  0  0  0  0
   41.5080   80.2810   61.8920 C   0  0  0  0  0  0  0  0  0  0  0  0
   40.4040   79.5090   61.6590 C   0  0  0  0  0  0  0  0  0  0  0  0
   39.3960   79.8840   61.6540 H   0  0  0  0  0  0  0  0  0  0  0  0
   40.5440   78.1470   61.4050 C   0  0  0  0  0  0  0  0  0  0  0  0
   39.6950   77.5030   61.2150 H   0  0  0  0  0  0  0  0  0  0  0  0
   41.8120   77.6120   61.3970 C   0  0  0  0  0  3  0  0  0  0  0  0
   42.9190   78.3680   61.6290 C   0  0  0  0  0  3  0  0  0  0  0  0
  1  2  1  0  0  0  0
  2  7  1  0  0  0  0
  2  3  2  0  0  0  0
  3  8  1  0  0  0  0
  4  3  1  0  0  0  0
  5  4  2  0  0  0  0
  6  1  2  0  0  0  0
  6  5  1  0  0  0  0
  9 15  1  0  0  0  0
  9 14  1  0  0  0  0
 10  9  2  0  0  0  0
 11 10  1  0  0  0  0
 11 12  2  0  0  0  0
 12 13  1  0  0  0  0
 13 14  2  0  0  0  0
 13  1  1  0  0  0  0
 15 18  1  0  0  0  0
 16 10  1  0  0  0  0
 17 11  1  0  0  0  0
 19 15  1  0  0  0  0
 21 22  1  0  0  0  0
 21 20  1  0  0  0  0
 22  5  1  0  0  0  0
 23 22  2  0  0  0  0
 24 23  1  0  0  0  0
 25 23  1  0  0  0  0
 26 25  1  0  0  0  0
 27 25  2  0  0  0  0
 27 28  1  0  0  0  0
 28 21  2  0  0  0  0
M  END
>  <minimizedAffinity>
-5.60330009

>  <minimizedRMSD>
0.30715552

$$$$
