
 OpenBabel03212520463D

 14 14  0  0  0  0  0  0  0  0999 V2000
   41.6090   83.7160   61.8360 C   0  0  0  0  0  0  0  0  0  0  0  0
   40.2990   84.2310   61.8300 C   0  0  0  0  0  0  0  0  0  0  0  0
   39.2350   83.3250   61.8840 C   0  0  0  0  0  0  0  0  0  0  0  0
   39.5220   82.0060   61.9410 N   0  0  0  0  0  0  0  0  0  0  0  0
   40.7890   81.5430   61.9450 C   0  0  0  0  0  0  0  0  0  0  0  0
   41.8180   82.3860   61.8930 N   0  0  0  0  0  0  0  0  0  0  0  0
   42.6020   84.7360   61.7760 N   0  0  0  0  0  0  0  0  0  0  0  0
   40.0600   85.2900   61.7850 H   0  0  0  0  0  0  0  0  0  0  0  0
   38.2270   83.6790   61.8810 H   0  0  0  0  0  0  0  0  0  0  0  0
   42.6990   85.0160   62.7930 H   0  0  0  0  0  0  0  0  0  0  0  0
   43.1190   85.1310   60.9670 H   0  0  0  0  0  0  0  0  0  0  0  0
   41.1710   80.1140   62.0040 C   0  0  0  0  0  2  0  0  0  0  0  0
   40.3600   79.3870   60.9280 C   0  0  0  0  0  2  0  0  0  0  0  0
   40.6160   79.7870   59.9460 H   0  0  0  0  0  0  0  0  0  0  0  0
  1  6  1  0  0  0  0
  2  1  2  0  0  0  0
  2  3  1  0  0  0  0
  3  4  2  0  0  0  0
  4  5  1  0  0  0  0
  5 12  1  0  0  0  0
  6  5  2  0  0  0  0
  7  1  1  0  0  0  0
  7 10  1  0  0  0  0
  8  2  1  0  0  0  0
  9  3  1  0  0  0  0
 11  7  1  0  0  0  0
 13 12  1  0  0  0  0
 14 13  1  0  0  0  0
M  END
>  <minimizedAffinity>
-3.20329857

>  <minimizedRMSD>
3.55226541

$$$$
