
 OpenBabel03212520293D

 22 23  0  0  0  0  0  0  0  0999 V2000
   40.6750   82.2210   59.1210 N   0  0  0  0  0  0  0  0  0  0  0  0
   40.1010   81.0670   58.8220 C   0  0  0  0  0  0  0  0  0  0  0  0
   40.0740   80.6790   57.4800 C   0  0  0  0  0  0  0  0  0  0  0  0
   40.6420   81.5060   56.5140 C   0  0  0  0  0  0  0  0  0  0  0  0
   40.6590   81.2310   55.2840 O   0  0  0  0  0  0  0  0  0  0  0  0
   41.2100   82.6710   56.9010 N   0  0  0  0  0  0  0  0  0  0  0  0
   41.2360   83.0470   58.2050 C   0  0  0  0  0  0  0  0  0  0  0  0
   41.7670   84.1330   58.5560 O   0  0  0  0  0  0  0  0  0  0  0  0
   39.6530   80.4040   59.5310 H   0  0  0  0  0  0  0  0  0  0  0  0
   39.6220   79.7500   57.1590 H   0  0  0  0  0  0  0  0  0  0  0  0
   41.6570   83.3460   56.2410 H   0  0  0  0  0  0  0  0  0  0  0  0
   39.4940   83.0730   61.0930 C   0  0  0  0  0  0  0  0  0  0  0  0
   40.6610   82.5430   60.5060 C   0  0  0  0  0  0  0  0  0  0  0  0
   41.7780   82.3530   61.3250 C   0  0  0  0  0  0  0  0  0  0  0  0
   41.6830   82.6870   62.6400 N   0  0  0  0  0  0  0  0  0  0  0  0
   40.5510   83.1900   63.1630 C   0  0  0  0  0  0  0  0  0  0  0  0
   39.4690   83.3810   62.4000 N   0  0  0  0  0  0  0  0  0  0  0  0
   38.6150   83.2360   60.5100 H   0  0  0  0  0  0  0  0  0  0  0  0
   42.6940   81.9450   60.8920 H   0  0  0  0  0  0  0  0  0  0  0  0
   40.5190   83.5350   64.6220 C   0  0  0  0  0  2  0  0  0  0  0  0
   40.7040   85.0080   64.8150 C   0  0  0  0  0  2  0  0  0  0  0  0
   41.7660   85.2430   65.0330 H   0  0  0  0  0  0  0  0  0  0  0  0
  1 13  1  0  0  0  0
  2  1  1  0  0  0  0
  2  9  1  0  0  0  0
  3  2  2  0  0  0  0
  4  6  1  0  0  0  0
  4  3  1  0  0  0  0
  5  4  2  0  0  0  0
  6  7  1  0  0  0  0
  7  8  2  0  0  0  0
  7  1  1  0  0  0  0
 10  3  1  0  0  0  0
 11  6  1  0  0  0  0
 12 17  1  0  0  0  0
 13 12  2  0  0  0  0
 13 14  1  0  0  0  0
 14 15  2  0  0  0  0
 15 16  1  0  0  0  0
 16 20  1  0  0  0  0
 17 16  2  0  0  0  0
 18 12  1  0  0  0  0
 19 14  1  0  0  0  0
 20 21  1  0  0  0  0
 21 22  1  0  0  0  0
M  END
>  <minimizedAffinity>
-4.49188519

>  <minimizedRMSD>
2.42419624

$$$$
