
 OpenBabel03212520463D

 14 14  0  0  0  0  0  0  0  0999 V2000
   41.5980   83.8480   58.1450 C   0  0  0  0  0  0  0  0  0  0  0  0
   42.3980   84.8820   58.6680 C   0  0  0  0  0  0  0  0  0  0  0  0
   42.3200   85.1460   60.0390 C   0  0  0  0  0  0  0  0  0  0  0  0
   41.4820   84.3950   60.7870 N   0  0  0  0  0  0  0  0  0  0  0  0
   40.7280   83.4100   60.2560 C   0  0  0  0  0  0  0  0  0  0  0  0
   40.7840   83.1420   58.9530 N   0  0  0  0  0  0  0  0  0  0  0  0
   41.7670   83.6790   56.7400 N   0  0  0  0  0  0  0  0  0  0  0  0
   43.0740   85.4900   58.0730 H   0  0  0  0  0  0  0  0  0  0  0  0
   42.9120   85.9230   60.4710 H   0  0  0  0  0  0  0  0  0  0  0  0
   42.6200   83.0550   56.6890 H   0  0  0  0  0  0  0  0  0  0  0  0
   41.2180   84.0530   55.9420 H   0  0  0  0  0  0  0  0  0  0  0  0
   39.7910   82.5530   61.0180 C   0  0  0  0  0  2  0  0  0  0  0  0
   39.0180   83.4680   61.9720 C   0  0  0  0  0  2  0  0  0  0  0  0
   38.4480   84.1980   61.3950 H   0  0  0  0  0  0  0  0  0  0  0  0
  1  2  2  0  0  0  0
  1  6  1  0  0  0  0
  2  3  1  0  0  0  0
  3  9  1  0  0  0  0
  3  4  2  0  0  0  0
  5  4  1  0  0  0  0
  5 12  1  0  0  0  0
  6  5  2  0  0  0  0
  7  1  1  0  0  0  0
  8  2  1  0  0  0  0
 10  7  1  0  0  0  0
 11  7  1  0  0  0  0
 12 13  1  0  0  0  0
 14 13  1  0  0  0  0
M  END
>  <minimizedAffinity>
-2.73404527

>  <minimizedRMSD>
3.27206826

$$$$
