
 OpenBabel03212520083D

 12 12  0  0  0  0  0  0  0  0999 V2000
   40.0470   81.9920   60.6760 C   0  0  0  0  0  0  0  0  0  0  0  0
   40.1200   82.9080   59.5890 C   0  0  0  0  0  0  0  0  0  0  0  0
   39.5520   84.1770   59.7750 C   0  0  0  0  0  0  0  0  0  0  0  0
   38.9670   84.4580   60.9730 N   0  0  0  0  0  0  0  0  0  0  0  0
   38.9220   83.5530   61.9790 C   0  0  0  0  0  0  0  0  0  0  0  0
   39.4560   82.3330   61.8300 N   0  0  0  0  0  0  0  0  0  0  0  0
   40.4950   81.0220   60.4990 H   0  0  0  0  0  0  0  0  0  0  0  0
   39.5800   84.9040   58.9880 H   0  0  0  0  0  0  0  0  0  0  0  0
   38.4640   83.7680   62.9220 H   0  0  0  0  0  0  0  0  0  0  0  0
   40.7530   82.6030   58.2920 C   0  0  0  0  0  0  0  0  0  0  0  0
   40.1890   81.3910   57.6230 C   0  0  0  0  0  0  0  0  0  0  0  0
   39.6240   80.7280   58.3350 H   0  0  0  0  0  0  0  0  0  0  0  0
  1  6  1  0  0  0  0
  2  3  1  0  0  0  0
  2  1  2  0  0  0  0
  3  4  2  0  0  0  0
  4  5  1  0  0  0  0
  5  9  1  0  0  0  0
  6  5  2  0  0  0  0
  7  1  1  0  0  0  0
  8  3  1  0  0  0  0
 10  2  1  0  0  0  0
 11 10  1  0  0  0  0
 11 12  1  0  0  0  0
M  END
>  <minimizedAffinity>
-3.59925246

>  <minimizedRMSD>
0.175333142

$$$$
