
 OpenBabel03212520463D

 14 14  0  0  0  0  0  0  0  0999 V2000
   37.6680   74.6170   57.7650 C   0  0  0  0  0  0  0  0  0  0  0  0
   37.9420   75.8210   57.0880 C   0  0  0  0  0  0  0  0  0  0  0  0
   38.6850   76.7990   57.7570 C   0  0  0  0  0  0  0  0  0  0  0  0
   39.1000   76.5350   59.0150 N   0  0  0  0  0  0  0  0  0  0  0  0
   38.8210   75.3710   59.6380 C   0  0  0  0  0  0  0  0  0  0  0  0
   38.1150   74.4260   59.0210 N   0  0  0  0  0  0  0  0  0  0  0  0
   36.9050   73.7050   56.9790 N   0  0  0  0  0  0  0  0  0  0  0  0
   37.6110   76.0400   56.0760 H   0  0  0  0  0  0  0  0  0  0  0  0
   38.9110   77.7250   57.2750 H   0  0  0  0  0  0  0  0  0  0  0  0
   37.6520   73.2220   56.4060 H   0  0  0  0  0  0  0  0  0  0  0  0
   35.8820   73.5310   56.9480 H   0  0  0  0  0  0  0  0  0  0  0  0
   39.2440   75.0200   61.0130 C   0  0  0  0  0  2  0  0  0  0  0  0
   39.1710   73.4960   61.1320 C   0  0  0  0  0  2  0  0  0  0  0  0
   39.8580   73.0410   60.4170 H   0  0  0  0  0  0  0  0  0  0  0  0
  1  6  1  0  0  0  0
  2  3  1  0  0  0  0
  2  1  2  0  0  0  0
  3  4  2  0  0  0  0
  4  5  1  0  0  0  0
  5 12  1  0  0  0  0
  6  5  2  0  0  0  0
  7  1  1  0  0  0  0
  8  2  1  0  0  0  0
  9  3  1  0  0  0  0
 10  7  1  0  0  0  0
 11  7  1  0  0  0  0
 12 13  1  0  0  0  0
 14 13  1  0  0  0  0
M  END
>  <minimizedAffinity>
-3.68489671

$$$$

 OpenBabel03212520463D

 14 14  0  0  0  0  0  0  0  0999 V2000
   37.2540   75.0320   56.9950 C   0  0  0  0  0  0  0  0  0  0  0  0
   37.1210   76.0420   56.0230 C   0  0  0  0  0  0  0  0  0  0  0  0
   37.8150   77.2400   56.2200 C   0  0  0  0  0  0  0  0  0  0  0  0
   38.5750   77.3630   57.3300 N   0  0  0  0  0  0  0  0  0  0  0  0
   38.6820   76.3760   58.2430 C   0  0  0  0  0  0  0  0  0  0  0  0
   38.0300   75.2270   58.0780 N   0  0  0  0  0  0  0  0  0  0  0  0
   36.5000   73.8640   56.6810 N   0  0  0  0  0  0  0  0  0  0  0  0
   36.5120   75.9510   55.1280 H   0  0  0  0  0  0  0  0  0  0  0  0
   37.7380   78.0290   55.5040 H   0  0  0  0  0  0  0  0  0  0  0  0
   37.1540   73.3400   56.0350 H   0  0  0  0  0  0  0  0  0  0  0  0
   35.5520   73.5680   56.9860 H   0  0  0  0  0  0  0  0  0  0  0  0
   39.4950   76.4460   59.4790 C   0  0  0  0  0  2  0  0  0  0  0  0
   39.0620   75.2800   60.3710 C   0  0  0  0  0  2  0  0  0  0  0  0
   39.2630   74.3370   59.8610 H   0  0  0  0  0  0  0  0  0  0  0  0
  1  6  1  0  0  0  0
  2  3  1  0  0  0  0
  2  1  2  0  0  0  0
  3  4  2  0  0  0  0
  4  5  1  0  0  0  0
  5 12  1  0  0  0  0
  6  5  2  0  0  0  0
  7 11  1  0  0  0  0
  7  1  1  0  0  0  0
  8  2  1  0  0  0  0
  9  3  1  0  0  0  0
 10  7  1  0  0  0  0
 12 13  1  0  0  0  0
 14 13  1  0  0  0  0
M  END
>  <minimizedAffinity>
-3.65674639

$$$$

 OpenBabel03212520463D

 14 14  0  0  0  0  0  0  0  0999 V2000
   39.5540   75.0280   60.9460 C   0  0  0  0  0  0  0  0  0  0  0  0
   39.4720   73.6230   60.9930 C   0  0  0  0  0  0  0  0  0  0  0  0
   40.4600   72.8840   60.3370 C   0  0  0  0  0  0  0  0  0  0  0  0
   41.4400   73.5570   59.6940 N   0  0  0  0  0  0  0  0  0  0  0  0
   41.4910   74.9050   59.6670 C   0  0  0  0  0  0  0  0  0  0  0  0
   40.5600   75.6300   60.2840 N   0  0  0  0  0  0  0  0  0  0  0  0
   38.4910   75.6650   61.6510 N   0  0  0  0  0  0  0  0  0  0  0  0
   38.6870   73.0750   61.5090 H   0  0  0  0  0  0  0  0  0  0  0  0
   40.4310   71.8160   60.3500 H   0  0  0  0  0  0  0  0  0  0  0  0
   38.8510   75.6700   62.6460 H   0  0  0  0  0  0  0  0  0  0  0  0
   37.5840   76.0400   61.3120 H   0  0  0  0  0  0  0  0  0  0  0  0
   42.5330   75.7020   58.9820 C   0  0  0  0  0  2  0  0  0  0  0  0
   42.3280   77.1620   59.3930 C   0  0  0  0  0  2  0  0  0  0  0  0
   42.4540   77.2570   60.4730 H   0  0  0  0  0  0  0  0  0  0  0  0
  1  2  1  0  0  0  0
  1  7  1  0  0  0  0
  2  8  1  0  0  0  0
  3  9  1  0  0  0  0
  3  2  2  0  0  0  0
  4  3  1  0  0  0  0
  5  4  2  0  0  0  0
  5  6  1  0  0  0  0
  6  1  2  0  0  0  0
  7 10  1  0  0  0  0
 11  7  1  0  0  0  0
 12 13  1  0  0  0  0
 12  5  1  0  0  0  0
 13 14  1  0  0  0  0
M  END
>  <minimizedAffinity>
-3.51164722

$$$$

 OpenBabel03212520463D

 14 14  0  0  0  0  0  0  0  0999 V2000
   39.2530   75.5280   60.1700 C   0  0  0  0  0  0  0  0  0  0  0  0
   39.8210   76.8080   60.0200 C   0  0  0  0  0  0  0  0  0  0  0  0
   39.5730   77.5030   58.8330 C   0  0  0  0  0  0  0  0  0  0  0  0
   38.8020   76.9110   57.8950 N   0  0  0  0  0  0  0  0  0  0  0  0
   38.2710   75.6820   58.0680 C   0  0  0  0  0  0  0  0  0  0  0  0
   38.4950   75.0010   59.1900 N   0  0  0  0  0  0  0  0  0  0  0  0
   39.5790   74.9240   61.4190 N   0  0  0  0  0  0  0  0  0  0  0  0
   40.4420   77.2910   60.7700 H   0  0  0  0  0  0  0  0  0  0  0  0
   39.9870   78.4760   58.6830 H   0  0  0  0  0  0  0  0  0  0  0  0
   38.8470   75.3330   62.0650 H   0  0  0  0  0  0  0  0  0  0  0  0
   40.3310   74.2540   61.6710 H   0  0  0  0  0  0  0  0  0  0  0  0
   37.4210   74.9770   57.0820 C   0  0  0  0  0  2  0  0  0  0  0  0
   36.9540   76.0200   56.0630 C   0  0  0  0  0  2  0  0  0  0  0  0
   37.8200   76.4440   55.5530 H   0  0  0  0  0  0  0  0  0  0  0  0
  1  7  1  0  0  0  0
  2  1  1  0  0  0  0
  2  8  1  0  0  0  0
  3  2  2  0  0  0  0
  4  5  2  0  0  0  0
  4  3  1  0  0  0  0
  5  6  1  0  0  0  0
  6  1  2  0  0  0  0
  7 11  1  0  0  0  0
  7 10  1  0  0  0  0
  9  3  1  0  0  0  0
 12  5  1  0  0  0  0
 13 12  1  0  0  0  0
 14 13  1  0  0  0  0
M  END
>  <minimizedAffinity>
-3.42656994

$$$$

 OpenBabel03212520463D

 14 14  0  0  0  0  0  0  0  0999 V2000
   37.7280   73.5130   57.6970 C   0  0  0  0  0  0  0  0  0  0  0  0
   38.4680   72.3600   57.3750 C   0  0  0  0  0  0  0  0  0  0  0  0
   39.4490   71.9340   58.2760 C   0  0  0  0  0  0  0  0  0  0  0  0
   39.6330   72.6520   59.4050 N   0  0  0  0  0  0  0  0  0  0  0  0
   38.9080   73.7540   59.6860 C   0  0  0  0  0  0  0  0  0  0  0  0
   37.9690   74.1790   58.8430 N   0  0  0  0  0  0  0  0  0  0  0  0
   36.7620   73.8430   56.7030 N   0  0  0  0  0  0  0  0  0  0  0  0
   38.3250   71.7770   56.4690 H   0  0  0  0  0  0  0  0  0  0  0  0
   40.0310   71.0630   58.0650 H   0  0  0  0  0  0  0  0  0  0  0  0
   35.9410   73.2320   56.9730 H   0  0  0  0  0  0  0  0  0  0  0  0
   36.8120   74.5050   55.9040 H   0  0  0  0  0  0  0  0  0  0  0  0
   39.0600   74.5840   60.9030 C   0  0  0  0  0  2  0  0  0  0  0  0
   39.3890   76.0050   60.4400 C   0  0  0  0  0  2  0  0  0  0  0  0
   38.5640   76.3940   59.8400 H   0  0  0  0  0  0  0  0  0  0  0  0
  1  6  1  0  0  0  0
  2  1  2  0  0  0  0
  2  3  1  0  0  0  0
  3  4  2  0  0  0  0
  4  5  1  0  0  0  0
  5 12  1  0  0  0  0
  6  5  2  0  0  0  0
  7 10  1  0  0  0  0
  7  1  1  0  0  0  0
  8  2  1  0  0  0  0
  9  3  1  0  0  0  0
 11  7  1  0  0  0  0
 13 12  1  0  0  0  0
 14 13  1  0  0  0  0
M  END
>  <minimizedAffinity>
-3.42035818

$$$$

 OpenBabel03212520463D

 14 14  0  0  0  0  0  0  0  0999 V2000
   38.8280   74.6980   60.7490 C   0  0  0  0  0  0  0  0  0  0  0  0
   39.8380   73.8240   61.1950 C   0  0  0  0  0  0  0  0  0  0  0  0
   40.2210   72.7760   60.3530 C   0  0  0  0  0  0  0  0  0  0  0  0
   39.6020   72.6600   59.1570 N   0  0  0  0  0  0  0  0  0  0  0  0
   38.6380   73.5140   58.7580 C   0  0  0  0  0  0  0  0  0  0  0  0
   38.2560   74.5190   59.5430 N   0  0  0  0  0  0  0  0  0  0  0  0
   38.5280   75.7210   61.6950 N   0  0  0  0  0  0  0  0  0  0  0  0
   40.3400   73.9120   62.1550 H   0  0  0  0  0  0  0  0  0  0  0  0
   40.9830   72.0930   60.6580 H   0  0  0  0  0  0  0  0  0  0  0  0
   39.2650   76.4500   61.4810 H   0  0  0  0  0  0  0  0  0  0  0  0
   37.7890   75.7750   62.4220 H   0  0  0  0  0  0  0  0  0  0  0  0
   37.9220   73.4420   57.4640 C   0  0  0  0  0  2  0  0  0  0  0  0
   37.3980   74.8480   57.1600 C   0  0  0  0  0  2  0  0  0  0  0  0
   38.2380   75.5370   57.0670 H   0  0  0  0  0  0  0  0  0  0  0  0
  1  2  1  0  0  0  0
  1  7  1  0  0  0  0
  2  8  1  0  0  0  0
  3  9  1  0  0  0  0
  3  2  2  0  0  0  0
  4  3  1  0  0  0  0
  5  4  2  0  0  0  0
  5  6  1  0  0  0  0
  6  1  2  0  0  0  0
  7 11  1  0  0  0  0
 10  7  1  0  0  0  0
 12  5  1  0  0  0  0
 13 12  1  0  0  0  0
 14 13  1  0  0  0  0
M  END
>  <minimizedAffinity>
-3.41782093

$$$$

 OpenBabel03212520463D

 14 14  0  0  0  0  0  0  0  0999 V2000
   39.5340   75.2010   60.9790 C   0  0  0  0  0  0  0  0  0  0  0  0
   39.7970   75.9760   59.8340 C   0  0  0  0  0  0  0  0  0  0  0  0
   40.8910   75.6240   59.0380 C   0  0  0  0  0  0  0  0  0  0  0  0
   41.6350   74.5600   59.4110 N   0  0  0  0  0  0  0  0  0  0  0  0
   41.3580   73.8370   60.5150 C   0  0  0  0  0  0  0  0  0  0  0  0
   40.3210   74.1530   61.2890 N   0  0  0  0  0  0  0  0  0  0  0  0
   38.3960   75.6600   61.7050 N   0  0  0  0  0  0  0  0  0  0  0  0
   39.2020   76.8330   59.5270 H   0  0  0  0  0  0  0  0  0  0  0  0
   41.1220   76.1880   58.1610 H   0  0  0  0  0  0  0  0  0  0  0  0
   37.5970   75.1890   61.1940 H   0  0  0  0  0  0  0  0  0  0  0  0
   38.3260   76.2920   62.5260 H   0  0  0  0  0  0  0  0  0  0  0  0
   42.1320   72.6630   60.9790 C   0  0  0  0  0  2  0  0  0  0  0  0
   41.9010   72.5380   62.4870 C   0  0  0  0  0  2  0  0  0  0  0  0
   40.8400   72.3690   62.6810 H   0  0  0  0  0  0  0  0  0  0  0  0
  1  6  1  0  0  0  0
  1  7  1  0  0  0  0
  2  1  2  0  0  0  0
  3  4  2  0  0  0  0
  3  2  1  0  0  0  0
  4  5  1  0  0  0  0
  5 12  1  0  0  0  0
  5  6  2  0  0  0  0
  7 11  1  0  0  0  0
  8  2  1  0  0  0  0
  9  3  1  0  0  0  0
 10  7  1  0  0  0  0
 12 13  1  0  0  0  0
 13 14  1  0  0  0  0
M  END
>  <minimizedAffinity>
-3.39324427

$$$$

 OpenBabel03212520463D

 14 14  0  0  0  0  0  0  0  0999 V2000
   39.7340   75.5950   60.8450 C   0  0  0  0  0  0  0  0  0  0  0  0
   40.1010   76.8590   60.3450 C   0  0  0  0  0  0  0  0  0  0  0  0
   41.2630   76.9500   59.5740 C   0  0  0  0  0  0  0  0  0  0  0  0
   41.9710   75.8210   59.3510 N   0  0  0  0  0  0  0  0  0  0  0  0
   41.5940   74.6240   59.8440 C   0  0  0  0  0  0  0  0  0  0  0  0
   40.4910   74.5120   60.5810 N   0  0  0  0  0  0  0  0  0  0  0  0
   38.5340   75.6340   61.6130 N   0  0  0  0  0  0  0  0  0  0  0  0
   39.5360   77.7710   60.5200 H   0  0  0  0  0  0  0  0  0  0  0  0
   41.5740   77.8930   59.1780 H   0  0  0  0  0  0  0  0  0  0  0  0
   37.7860   75.5640   60.8670 H   0  0  0  0  0  0  0  0  0  0  0  0
   38.3890   75.7100   62.6380 H   0  0  0  0  0  0  0  0  0  0  0  0
   42.3240   73.3520   59.6380 C   0  0  0  0  0  2  0  0  0  0  0  0
   43.2610   73.1710   60.8350 C   0  0  0  0  0  2  0  0  0  0  0  0
   42.6720   73.1030   61.7510 H   0  0  0  0  0  0  0  0  0  0  0  0
  1  7  1  0  0  0  0
  2  8  1  0  0  0  0
  2  1  2  0  0  0  0
  3  2  1  0  0  0  0
  4  3  2  0  0  0  0
  4  5  1  0  0  0  0
  5  6  2  0  0  0  0
  6  1  1  0  0  0  0
  7 11  1  0  0  0  0
  9  3  1  0  0  0  0
 10  7  1  0  0  0  0
 12  5  1  0  0  0  0
 12 13  1  0  0  0  0
 13 14  1  0  0  0  0
M  END
>  <minimizedAffinity>
-3.36976266

$$$$

 OpenBabel03212520463D

 14 14  0  0  0  0  0  0  0  0999 V2000
   39.4680   76.4090   60.0740 C   0  0  0  0  0  0  0  0  0  0  0  0
   39.1680   75.2420   60.8020 C   0  0  0  0  0  0  0  0  0  0  0  0
   38.4080   74.2510   60.1740 C   0  0  0  0  0  0  0  0  0  0  0  0
   38.0020   74.4670   58.9030 N   0  0  0  0  0  0  0  0  0  0  0  0
   38.3060   75.5970   58.2310 C   0  0  0  0  0  0  0  0  0  0  0  0
   39.0280   76.5550   58.8090 N   0  0  0  0  0  0  0  0  0  0  0  0
   40.2460   77.3400   60.8220 N   0  0  0  0  0  0  0  0  0  0  0  0
   39.4910   75.0610   61.8240 H   0  0  0  0  0  0  0  0  0  0  0  0
   38.1600   73.3520   60.6950 H   0  0  0  0  0  0  0  0  0  0  0  0
   41.2310   76.9830   60.6700 H   0  0  0  0  0  0  0  0  0  0  0  0
   39.9590   78.1650   61.3830 H   0  0  0  0  0  0  0  0  0  0  0  0
   37.8930   75.8960   56.8410 C   0  0  0  0  0  2  0  0  0  0  0  0
   36.7630   74.9250   56.4880 C   0  0  0  0  0  2  0  0  0  0  0  0
   35.9180   75.0910   57.1580 H   0  0  0  0  0  0  0  0  0  0  0  0
  1  2  1  0  0  0  0
  1  7  1  0  0  0  0
  2  8  1  0  0  0  0
  3  9  1  0  0  0  0
  3  2  2  0  0  0  0
  4  3  1  0  0  0  0
  5  6  1  0  0  0  0
  5  4  2  0  0  0  0
  6  1  2  0  0  0  0
  7 11  1  0  0  0  0
 10  7  1  0  0  0  0
 12  5  1  0  0  0  0
 13 12  1  0  0  0  0
 13 14  1  0  0  0  0
M  END
>  <minimizedAffinity>
-3.32820606

$$$$
