
 OpenBabel03212520463D

 14 14  0  0  0  0  0  0  0  0999 V2000
   40.2560   81.8210   57.8660 C   0  0  0  0  0  0  0  0  0  0  0  0
   41.0890   81.8740   56.7320 C   0  0  0  0  0  0  0  0  0  0  0  0
   41.8730   83.0160   56.5440 C   0  0  0  0  0  0  0  0  0  0  0  0
   41.7900   84.0060   57.4590 N   0  0  0  0  0  0  0  0  0  0  0  0
   40.9810   83.9260   58.5360 C   0  0  0  0  0  0  0  0  0  0  0  0
   40.2240   82.8490   58.7360 N   0  0  0  0  0  0  0  0  0  0  0  0
   39.5090   80.6100   57.9440 N   0  0  0  0  0  0  0  0  0  0  0  0
   41.1620   81.0820   55.9910 H   0  0  0  0  0  0  0  0  0  0  0  0
   42.5170   83.0920   55.6950 H   0  0  0  0  0  0  0  0  0  0  0  0
   40.1960   79.9510   58.4090 H   0  0  0  0  0  0  0  0  0  0  0  0
   38.5420   80.3900   57.6370 H   0  0  0  0  0  0  0  0  0  0  0  0
   40.8420   84.9730   59.5740 C   0  0  0  0  0  2  0  0  0  0  0  0
   39.5210   84.7120   60.3030 C   0  0  0  0  0  2  0  0  0  0  0  0
   39.5570   83.7320   60.7830 H   0  0  0  0  0  0  0  0  0  0  0  0
  1  7  1  0  0  0  0
  1  6  1  0  0  0  0
  2  1  2  0  0  0  0
  3  2  1  0  0  0  0
  3  4  2  0  0  0  0
  4  5  1  0  0  0  0
  5  6  2  0  0  0  0
  5 12  1  0  0  0  0
  7 10  1  0  0  0  0
  8  2  1  0  0  0  0
  9  3  1  0  0  0  0
 11  7  1  0  0  0  0
 12 13  1  0  0  0  0
 13 14  1  0  0  0  0
M  END
>  <minimizedAffinity>
-2.63765526

>  <minimizedRMSD>
3.78703094

$$$$
