
 OpenBabel03212520463D

 14 14  0  0  0  0  0  0  0  0999 V2000
   40.2250   84.3590   60.4660 C   0  0  0  0  0  0  0  0  0  0  0  0
   41.5130   84.7680   60.0710 C   0  0  0  0  0  0  0  0  0  0  0  0
   42.5380   84.7240   61.0200 C   0  0  0  0  0  0  0  0  0  0  0  0
   42.2380   84.2920   62.2640 N   0  0  0  0  0  0  0  0  0  0  0  0
   40.9930   83.9070   62.6130 C   0  0  0  0  0  0  0  0  0  0  0  0
   40.0000   83.9410   61.7270 N   0  0  0  0  0  0  0  0  0  0  0  0
   39.2700   84.4500   59.4120 N   0  0  0  0  0  0  0  0  0  0  0  0
   41.7620   85.1160   59.0710 H   0  0  0  0  0  0  0  0  0  0  0  0
   43.5280   85.0260   60.7560 H   0  0  0  0  0  0  0  0  0  0  0  0
   39.4110   83.5350   58.9000 H   0  0  0  0  0  0  0  0  0  0  0  0
   38.5950   85.2020   59.1740 H   0  0  0  0  0  0  0  0  0  0  0  0
   40.5980   83.4260   63.9570 C   0  0  0  0  0  0  0  0  0  0  0  0
   40.6420   84.6320   64.8980 C   0  0  0  0  0  0  0  0  0  0  0  0
   39.9260   85.3830   64.5610 H   0  0  0  0  0  0  0  0  0  0  0  0
  1  6  1  0  0  0  0
  2  1  2  0  0  0  0
  2  3  1  0  0  0  0
  3  4  2  0  0  0  0
  4  5  1  0  0  0  0
  5 12  1  0  0  0  0
  6  5  2  0  0  0  0
  7  1  1  0  0  0  0
  8  2  1  0  0  0  0
  9  3  1  0  0  0  0
 10  7  1  0  0  0  0
 11  7  1  0  0  0  0
 12 13  1  0  0  0  0
 14 13  1  0  0  0  0
M  END
>  <minimizedAffinity>
-3.6793282

>  <minimizedRMSD>
3.08004785

$$$$
