
 OpenBabel03212520083D

 12 12  0  0  0  0  0  0  0  0999 V2000
   40.0480   81.9860   60.6790 C   0  0  0  0  0  0  0  0  0  0  0  0
   40.1250   82.8990   59.5900 C   0  0  0  0  0  0  0  0  0  0  0  0
   39.5580   84.1700   59.7710 C   0  0  0  0  0  0  0  0  0  0  0  0
   38.9710   84.4550   60.9670 N   0  0  0  0  0  0  0  0  0  0  0  0
   38.9220   83.5530   61.9750 C   0  0  0  0  0  0  0  0  0  0  0  0
   39.4540   82.3320   61.8320 N   0  0  0  0  0  0  0  0  0  0  0  0
   40.4940   81.0160   60.5060 H   0  0  0  0  0  0  0  0  0  0  0  0
   39.5890   84.8930   58.9820 H   0  0  0  0  0  0  0  0  0  0  0  0
   38.4620   83.7720   62.9160 H   0  0  0  0  0  0  0  0  0  0  0  0
   40.7600   82.5890   58.2960 C   0  0  0  0  0  2  0  0  0  0  0  0
   41.5300   83.7340   57.7190 C   0  0  0  0  0  2  0  0  0  0  0  0
   41.2430   84.7210   58.1750 H   0  0  0  0  0  0  0  0  0  0  0  0
  1  6  1  0  0  0  0
  2  3  1  0  0  0  0
  2  1  2  0  0  0  0
  3  4  2  0  0  0  0
  4  5  1  0  0  0  0
  5  9  1  0  0  0  0
  6  5  2  0  0  0  0
  7  1  1  0  0  0  0
  8  3  1  0  0  0  0
 10  2  1  0  0  0  0
 11 12  1  0  0  0  0
 11 10  1  0  0  0  0
M  END
>  <minimizedAffinity>
-3.53488398

>  <minimizedRMSD>
0.636995077

$$$$
