
 OpenBabel03212520463D

 14 14  0  0  0  0  0  0  0  0999 V2000
   39.6970   84.1290   61.4980 C   0  0  0  0  0  0  0  0  0  0  0  0
   39.4600   84.5800   60.1850 C   0  0  0  0  0  0  0  0  0  0  0  0
   40.5580   84.9830   59.4190 C   0  0  0  0  0  0  0  0  0  0  0  0
   41.7850   84.9170   59.9790 N   0  0  0  0  0  0  0  0  0  0  0  0
   41.9810   84.4800   61.2400 C   0  0  0  0  0  0  0  0  0  0  0  0
   40.9510   84.0920   61.9890 N   0  0  0  0  0  0  0  0  0  0  0  0
   38.5010   83.7490   62.1740 N   0  0  0  0  0  0  0  0  0  0  0  0
   38.4750   84.6350   59.7280 H   0  0  0  0  0  0  0  0  0  0  0  0
   40.4170   85.3310   58.4190 H   0  0  0  0  0  0  0  0  0  0  0  0
   38.3650   82.7510   61.8470 H   0  0  0  0  0  0  0  0  0  0  0  0
   37.8930   84.2820   62.8240 H   0  0  0  0  0  0  0  0  0  0  0  0
   43.2970   84.3850   61.9120 C   0  0  0  0  0  2  0  0  0  0  0  0
   43.1020   83.5210   63.1610 C   0  0  0  0  0  2  0  0  0  0  0  0
   42.7760   82.5210   62.8660 H   0  0  0  0  0  0  0  0  0  0  0  0
  1  6  1  0  0  0  0
  1  7  1  0  0  0  0
  2  1  2  0  0  0  0
  3  4  2  0  0  0  0
  3  2  1  0  0  0  0
  4  5  1  0  0  0  0
  5 12  1  0  0  0  0
  5  6  2  0  0  0  0
  7 11  1  0  0  0  0
  8  2  1  0  0  0  0
  9  3  1  0  0  0  0
 10  7  1  0  0  0  0
 12 13  1  0  0  0  0
 14 13  1  0  0  0  0
M  END
>  <minimizedAffinity>
-3.61114645

>  <minimizedRMSD>
3.30462551

$$$$
