
 OpenBabel03212520463D

 14 14  0  0  0  0  0  0  0  0999 V2000
   40.3300   82.0230   61.3770 C   0  0  0  0  0  0  0  0  0  0  0  0
   39.9440   82.5610   60.1340 C   0  0  0  0  0  0  0  0  0  0  0  0
   40.4120   83.8340   59.7940 C   0  0  0  0  0  0  0  0  0  0  0  0
   41.2080   84.4780   60.6750 N   0  0  0  0  0  0  0  0  0  0  0  0
   41.5600   83.9360   61.8590 C   0  0  0  0  0  0  0  0  0  0  0  0
   41.1260   82.7250   62.2050 N   0  0  0  0  0  0  0  0  0  0  0  0
   39.7890   80.7240   61.6060 N   0  0  0  0  0  0  0  0  0  0  0  0
   39.3040   82.0490   59.4210 H   0  0  0  0  0  0  0  0  0  0  0  0
   40.1400   84.2750   58.8600 H   0  0  0  0  0  0  0  0  0  0  0  0
   40.4850   80.1000   61.1110 H   0  0  0  0  0  0  0  0  0  0  0  0
   38.9370   80.4270   62.1200 H   0  0  0  0  0  0  0  0  0  0  0  0
   42.4270   84.5870   62.8680 C   0  0  0  0  0  2  0  0  0  0  0  0
   43.3810   83.5140   63.4010 C   0  0  0  0  0  2  0  0  0  0  0  0
   43.9990   83.1370   62.5840 H   0  0  0  0  0  0  0  0  0  0  0  0
  1  7  1  0  0  0  0
  1  6  1  0  0  0  0
  2  1  2  0  0  0  0
  3  2  1  0  0  0  0
  3  4  2  0  0  0  0
  4  5  1  0  0  0  0
  5  6  2  0  0  0  0
  5 12  1  0  0  0  0
  7 11  1  0  0  0  0
  8  2  1  0  0  0  0
  9  3  1  0  0  0  0
 10  7  1  0  0  0  0
 12 13  1  0  0  0  0
 14 13  1  0  0  0  0
M  END
>  <minimizedAffinity>
-3.09069276

>  <minimizedRMSD>
2.46223569

$$$$
