
 OpenBabel03212520463D

 14 14  0  0  0  0  0  0  0  0999 V2000
   39.7790   84.1970   61.3340 C   0  0  0  0  0  0  0  0  0  0  0  0
   39.4190   84.6590   60.0530 C   0  0  0  0  0  0  0  0  0  0  0  0
   40.4360   85.1090   59.2060 C   0  0  0  0  0  0  0  0  0  0  0  0
   41.7070   85.0770   59.6620 N   0  0  0  0  0  0  0  0  0  0  0  0
   42.0200   84.6290   60.8950 C   0  0  0  0  0  0  0  0  0  0  0  0
   41.0690   84.1960   61.7200 N   0  0  0  0  0  0  0  0  0  0  0  0
   38.6560   83.7670   62.0990 N   0  0  0  0  0  0  0  0  0  0  0  0
   38.3980   84.6870   59.6790 H   0  0  0  0  0  0  0  0  0  0  0  0
   40.2010   85.4670   58.2270 H   0  0  0  0  0  0  0  0  0  0  0  0
   38.5260   82.7700   61.7680 H   0  0  0  0  0  0  0  0  0  0  0  0
   38.0860   84.2700   62.8070 H   0  0  0  0  0  0  0  0  0  0  0  0
   43.3900   84.5690   61.4550 C   0  0  0  0  0  2  0  0  0  0  0  0
   43.9260   86.0020   61.4840 C   0  0  0  0  0  2  0  0  0  0  0  0
   43.3000   86.6140   62.1350 H   0  0  0  0  0  0  0  0  0  0  0  0
  1  6  1  0  0  0  0
  1  7  1  0  0  0  0
  2  1  2  0  0  0  0
  3  4  2  0  0  0  0
  3  2  1  0  0  0  0
  4  5  1  0  0  0  0
  5 12  1  0  0  0  0
  5  6  2  0  0  0  0
  7 11  1  0  0  0  0
  8  2  1  0  0  0  0
  9  3  1  0  0  0  0
 10  7  1  0  0  0  0
 12 13  1  0  0  0  0
 13 14  1  0  0  0  0
M  END
>  <minimizedAffinity>
-3.55854249

>  <minimizedRMSD>
3.69751358

$$$$
