
 OpenBabel03212520293D

 22 23  0  0  0  0  0  0  0  0999 V2000
   40.5710   83.0420   59.4050 N   0  0  0  0  0  0  0  0  0  0  0  0
   40.6700   84.1530   60.1190 C   0  0  0  0  0  0  0  0  0  0  0  0
   40.2480   84.1130   61.4510 C   0  0  0  0  0  0  0  0  0  0  0  0
   39.7460   82.9250   61.9780 C   0  0  0  0  0  0  0  0  0  0  0  0
   39.3450   82.8050   63.1660 O   0  0  0  0  0  0  0  0  0  0  0  0
   39.6780   81.8330   61.1820 N   0  0  0  0  0  0  0  0  0  0  0  0
   40.0880   81.8720   59.8890 C   0  0  0  0  0  0  0  0  0  0  0  0
   40.0210   80.8510   59.1570 O   0  0  0  0  0  0  0  0  0  0  0  0
   41.0480   85.0830   59.7540 H   0  0  0  0  0  0  0  0  0  0  0  0
   40.2980   84.9800   62.0950 H   0  0  0  0  0  0  0  0  0  0  0  0
   39.3150   80.9070   61.5000 H   0  0  0  0  0  0  0  0  0  0  0  0
   40.3560   82.4680   57.0320 C   0  0  0  0  0  0  0  0  0  0  0  0
   41.0210   83.1650   58.0620 C   0  0  0  0  0  0  0  0  0  0  0  0
   42.1140   83.9610   57.7130 C   0  0  0  0  0  0  0  0  0  0  0  0
   42.4800   84.0240   56.4050 N   0  0  0  0  0  0  0  0  0  0  0  0
   41.8210   83.3440   55.4510 C   0  0  0  0  0  0  0  0  0  0  0  0
   40.7710   82.5750   55.7590 N   0  0  0  0  0  0  0  0  0  0  0  0
   39.5150   81.8470   57.2470 H   0  0  0  0  0  0  0  0  0  0  0  0
   42.6460   84.5100   58.4940 H   0  0  0  0  0  0  0  0  0  0  0  0
   42.2810   83.4620   54.0290 C   0  0  0  0  0  2  0  0  0  0  0  0
   43.0400   82.2370   53.6230 C   0  0  0  0  0  2  0  0  0  0  0  0
   44.1310   82.3980   53.7310 H   0  0  0  0  0  0  0  0  0  0  0  0
  1  7  1  0  0  0  0
  1  2  1  0  0  0  0
  2  3  2  0  0  0  0
  3  4  1  0  0  0  0
  3 10  1  0  0  0  0
  4  5  2  0  0  0  0
  6 11  1  0  0  0  0
  6  4  1  0  0  0  0
  7  6  1  0  0  0  0
  8  7  2  0  0  0  0
  9  2  1  0  0  0  0
 12 18  1  0  0  0  0
 12 13  1  0  0  0  0
 13  1  1  0  0  0  0
 14 13  2  0  0  0  0
 14 19  1  0  0  0  0
 15 14  1  0  0  0  0
 16 17  1  0  0  0  0
 16 15  2  0  0  0  0
 17 12  2  0  0  0  0
 20 16  1  0  0  0  0
 21 22  1  0  0  0  0
 21 20  1  0  0  0  0
M  END
>  <minimizedAffinity>
-1.42507851

>  <minimizedRMSD>
6.81448317

$$$$
