
 OpenBabel03212520083D

 12 12  0  0  0  0  0  0  0  0999 V2000
   40.0490   81.9870   60.6800 C   0  0  0  0  0  0  0  0  0  0  0  0
   40.1260   82.9000   59.5900 C   0  0  0  0  0  0  0  0  0  0  0  0
   39.5580   84.1700   59.7710 C   0  0  0  0  0  0  0  0  0  0  0  0
   38.9700   84.4550   60.9670 N   0  0  0  0  0  0  0  0  0  0  0  0
   38.9210   83.5530   61.9750 C   0  0  0  0  0  0  0  0  0  0  0  0
   39.4550   82.3330   61.8320 N   0  0  0  0  0  0  0  0  0  0  0  0
   40.4960   81.0160   60.5070 H   0  0  0  0  0  0  0  0  0  0  0  0
   39.5890   84.8940   58.9820 H   0  0  0  0  0  0  0  0  0  0  0  0
   38.4610   83.7720   62.9160 H   0  0  0  0  0  0  0  0  0  0  0  0
   40.7620   82.5900   58.2960 C   0  0  0  0  0  2  0  0  0  0  0  0
   41.5310   83.7350   57.7200 C   0  0  0  0  0  2  0  0  0  0  0  0
   41.2410   84.7220   58.1750 H   0  0  0  0  0  0  0  0  0  0  0  0
  1  6  1  0  0  0  0
  2  3  1  0  0  0  0
  2  1  2  0  0  0  0
  3  4  2  0  0  0  0
  4  5  1  0  0  0  0
  5  9  1  0  0  0  0
  6  5  2  0  0  0  0
  7  1  1  0  0  0  0
  8  3  1  0  0  0  0
 10  2  1  0  0  0  0
 11 12  1  0  0  0  0
 11 10  1  0  0  0  0
M  END
>  <minimizedAffinity>
-3.53491688

>  <minimizedRMSD>
0.421668559

$$$$
