
 OpenBabel03212520293D

 22 23  0  0  0  0  0  0  0  0999 V2000
   40.7410   81.9550   61.1920 N   0  0  0  0  0  0  0  0  0  0  0  0
   40.6640   82.8490   62.1660 C   0  0  0  0  0  0  0  0  0  0  0  0
   40.0410   84.0680   61.8860 C   0  0  0  0  0  0  0  0  0  0  0  0
   39.5300   84.3030   60.6110 C   0  0  0  0  0  0  0  0  0  0  0  0
   38.9560   85.3730   60.2770 O   0  0  0  0  0  0  0  0  0  0  0  0
   39.6500   83.3380   59.6700 N   0  0  0  0  0  0  0  0  0  0  0  0
   40.2540   82.1540   59.9430 C   0  0  0  0  0  0  0  0  0  0  0  0
   40.3600   81.2620   59.0610 O   0  0  0  0  0  0  0  0  0  0  0  0
   41.0420   82.7100   63.1560 H   0  0  0  0  0  0  0  0  0  0  0  0
   39.9410   84.8460   62.6300 H   0  0  0  0  0  0  0  0  0  0  0  0
   39.2940   83.4340   58.6930 H   0  0  0  0  0  0  0  0  0  0  0  0
   42.7900   80.6370   61.4590 C   0  0  0  0  0  0  0  0  0  0  0  0
   41.3870   80.7430   61.5570 C   0  0  0  0  0  0  0  0  0  0  0  0
   40.6780   79.6300   62.0160 C   0  0  0  0  0  0  0  0  0  0  0  0
   41.3710   78.5080   62.3440 N   0  0  0  0  0  0  0  0  0  0  0  0
   42.7100   78.4450   62.2380 C   0  0  0  0  0  0  0  0  0  0  0  0
   43.4120   79.4970   61.8010 N   0  0  0  0  0  0  0  0  0  0  0  0
   43.3770   81.4590   61.1150 H   0  0  0  0  0  0  0  0  0  0  0  0
   39.5890   79.6890   62.0990 H   0  0  0  0  0  0  0  0  0  0  0  0
   43.4080   77.1740   62.6180 C   0  0  0  0  0  0  0  0  0  0  0  0
   44.8570   77.4350   62.8880 C   0  0  0  0  0  0  0  0  0  0  0  0
   45.4700   77.2130   61.9900 H   0  0  0  0  0  0  0  0  0  0  0  0
  1 13  1  0  0  0  0
  1  2  1  0  0  0  0
  2  9  1  0  0  0  0
  3  2  2  0  0  0  0
  3 10  1  0  0  0  0
  4  3  1  0  0  0  0
  5  4  2  0  0  0  0
  6  7  1  0  0  0  0
  6  4  1  0  0  0  0
  7  1  1  0  0  0  0
  8  7  2  0  0  0  0
 11  6  1  0  0  0  0
 12 13  2  0  0  0  0
 12 17  1  0  0  0  0
 13 14  1  0  0  0  0
 14 19  1  0  0  0  0
 14 15  2  0  0  0  0
 16 15  1  0  0  0  0
 16 20  1  0  0  0  0
 17 16  2  0  0  0  0
 18 12  1  0  0  0  0
 20 21  1  0  0  0  0
 22 21  1  0  0  0  0
M  END
>  <minimizedAffinity>
-4.69618845

>  <minimizedRMSD>
5.17446423

$$$$
