
 OpenBabel03212520453D

 12 12  0  0  0  0  0  0  0  0999 V2000
   39.5820   76.3900   60.1950 C   0  0  0  0  0  0  0  0  0  0  0  0
   39.2190   75.3960   61.1130 C   0  0  0  0  0  0  0  0  0  0  0  0
   38.4270   74.3290   60.6640 C   0  0  0  0  0  0  0  0  0  0  0  0
   38.0550   74.3210   59.3550 N   0  0  0  0  0  0  0  0  0  0  0  0
   38.4180   75.2950   58.4880 C   0  0  0  0  0  0  0  0  0  0  0  0
   39.1770   76.3210   58.9100 N   0  0  0  0  0  0  0  0  0  0  0  0
   39.5780   75.5210   62.1110 H   0  0  0  0  0  0  0  0  0  0  0  0
   38.1560   73.5790   61.3630 H   0  0  0  0  0  0  0  0  0  0  0  0
   38.0660   75.1960   57.4550 H   0  0  0  0  0  0  0  0  0  0  0  0
   40.4070   77.5790   60.4940 C   0  0  0  0  0  2  0  0  0  0  0  0
   41.6690   77.6340   59.6760 C   0  0  0  0  0  2  0  0  0  0  0  0
   42.2850   78.4630   60.1070 H   0  0  0  0  0  0  0  0  0  0  0  0
  1 10  1  0  0  0  0
  1  2  1  0  0  0  0
  2  7  1  0  0  0  0
  3  2  2  0  0  0  0
  3  8  1  0  0  0  0
  4  3  1  0  0  0  0
  5  6  1  0  0  0  0
  5  4  2  0  0  0  0
  6  1  2  0  0  0  0
  9  5  1  0  0  0  0
 11 12  1  0  0  0  0
 11 10  1  0  0  0  0
M  END
>  <minimizedAffinity>
-3.20122743

$$$$

 OpenBabel03212520453D

 12 12  0  0  0  0  0  0  0  0999 V2000
   41.3030   67.8900   63.1680 C   0  0  0  0  0  0  0  0  0  0  0  0
   40.1140   67.1550   63.2600 C   0  0  0  0  0  0  0  0  0  0  0  0
   40.1440   65.7940   62.9200 C   0  0  0  0  0  0  0  0  0  0  0  0
   41.3310   65.2640   62.5190 N   0  0  0  0  0  0  0  0  0  0  0  0
   42.4660   65.9980   62.4380 C   0  0  0  0  0  0  0  0  0  0  0  0
   42.4470   67.3020   62.7620 N   0  0  0  0  0  0  0  0  0  0  0  0
   39.2520   67.6900   63.5880 H   0  0  0  0  0  0  0  0  0  0  0  0
   39.2400   65.2420   62.9920 H   0  0  0  0  0  0  0  0  0  0  0  0
   43.3700   65.4770   62.1030 H   0  0  0  0  0  0  0  0  0  0  0  0
   41.4550   69.3260   63.4840 C   0  0  0  0  0  2  0  0  0  0  0  0
   42.7180   69.9180   62.9190 C   0  0  0  0  0  2  0  0  0  0  0  0
   42.8100   70.9410   63.3650 H   0  0  0  0  0  0  0  0  0  0  0  0
  1  2  1  0  0  0  0
  1 10  1  0  0  0  0
  2  7  1  0  0  0  0
  3  8  1  0  0  0  0
  3  2  2  0  0  0  0
  4  3  1  0  0  0  0
  5  4  2  0  0  0  0
  5  6  1  0  0  0  0
  6  1  2  0  0  0  0
  9  5  1  0  0  0  0
 11 12  1  0  0  0  0
 11 10  1  0  0  0  0
M  END
>  <minimizedAffinity>
-3.09138107

$$$$

 OpenBabel03212520453D

 12 12  0  0  0  0  0  0  0  0999 V2000
   38.9920   75.3150   60.3010 C   0  0  0  0  0  0  0  0  0  0  0  0
   39.7710   76.3740   60.7840 C   0  0  0  0  0  0  0  0  0  0  0  0
   40.0490   77.4460   59.9220 C   0  0  0  0  0  0  0  0  0  0  0  0
   39.5440   77.3950   58.6600 N   0  0  0  0  0  0  0  0  0  0  0  0
   38.7930   76.3580   58.2180 C   0  0  0  0  0  0  0  0  0  0  0  0
   38.5220   75.3280   59.0370 N   0  0  0  0  0  0  0  0  0  0  0  0
   40.1060   76.2920   61.7940 H   0  0  0  0  0  0  0  0  0  0  0  0
   40.6400   78.2450   60.2940 H   0  0  0  0  0  0  0  0  0  0  0  0
   38.4330   76.4130   57.1840 H   0  0  0  0  0  0  0  0  0  0  0  0
   38.6030   74.1120   61.0660 C   0  0  0  0  0  2  0  0  0  0  0  0
   39.7650   73.1960   61.3430 C   0  0  0  0  0  2  0  0  0  0  0  0
   39.3280   72.2550   61.7610 H   0  0  0  0  0  0  0  0  0  0  0  0
  1  2  1  0  0  0  0
  1 10  1  0  0  0  0
  2  7  1  0  0  0  0
  3  8  1  0  0  0  0
  3  2  2  0  0  0  0
  4  3  1  0  0  0  0
  5  4  2  0  0  0  0
  5  6  1  0  0  0  0
  6  1  2  0  0  0  0
  9  5  1  0  0  0  0
 10 11  1  0  0  0  0
 11 12  1  0  0  0  0
M  END
>  <minimizedAffinity>
-3.08687329

$$$$

 OpenBabel03212520453D

 12 12  0  0  0  0  0  0  0  0999 V2000
   38.9010   75.2530   59.6840 C   0  0  0  0  0  0  0  0  0  0  0  0
   38.0970   74.4500   58.8640 C   0  0  0  0  0  0  0  0  0  0  0  0
   37.6960   74.9600   57.6190 C   0  0  0  0  0  0  0  0  0  0  0  0
   38.1120   76.2090   57.2790 N   0  0  0  0  0  0  0  0  0  0  0  0
   38.8890   76.9650   58.0920 C   0  0  0  0  0  0  0  0  0  0  0  0
   39.2780   76.4850   59.2860 N   0  0  0  0  0  0  0  0  0  0  0  0
   37.8410   73.4890   59.2480 H   0  0  0  0  0  0  0  0  0  0  0  0
   37.0880   74.3470   57.0020 H   0  0  0  0  0  0  0  0  0  0  0  0
   39.1700   77.9590   57.7250 H   0  0  0  0  0  0  0  0  0  0  0  0
   39.4120   74.8790   61.0190 C   0  0  0  0  0  2  0  0  0  0  0  0
   39.4190   73.3910   61.2470 C   0  0  0  0  0  2  0  0  0  0  0  0
   39.6510   73.2420   62.3320 H   0  0  0  0  0  0  0  0  0  0  0  0
  1 10  1  0  0  0  0
  2  7  1  0  0  0  0
  2  1  2  0  0  0  0
  3  2  1  0  0  0  0
  4  3  2  0  0  0  0
  4  5  1  0  0  0  0
  5  6  2  0  0  0  0
  6  1  1  0  0  0  0
  8  3  1  0  0  0  0
  9  5  1  0  0  0  0
 10 11  1  0  0  0  0
 11 12  1  0  0  0  0
M  END
>  <minimizedAffinity>
-3.04304624

$$$$

 OpenBabel03212520453D

 12 12  0  0  0  0  0  0  0  0999 V2000
   39.0660   76.5370   58.7370 C   0  0  0  0  0  0  0  0  0  0  0  0
   38.9250   77.4750   57.7060 C   0  0  0  0  0  0  0  0  0  0  0  0
   38.1280   77.1380   56.6010 C   0  0  0  0  0  0  0  0  0  0  0  0
   37.5350   75.9130   56.5950 N   0  0  0  0  0  0  0  0  0  0  0  0
   37.6880   75.0250   57.6050 C   0  0  0  0  0  0  0  0  0  0  0  0
   38.4500   75.3390   58.6670 N   0  0  0  0  0  0  0  0  0  0  0  0
   39.4430   78.3990   57.8330 H   0  0  0  0  0  0  0  0  0  0  0  0
   38.0240   77.8520   55.8240 H   0  0  0  0  0  0  0  0  0  0  0  0
   37.1690   74.0650   57.5040 H   0  0  0  0  0  0  0  0  0  0  0  0
   39.8640   76.7220   59.9670 C   0  0  0  0  0  2  0  0  0  0  0  0
   39.3270   75.9380   61.1340 C   0  0  0  0  0  2  0  0  0  0  0  0
   39.8930   76.2910   62.0340 H   0  0  0  0  0  0  0  0  0  0  0  0
  1 10  1  0  0  0  0
  2  7  1  0  0  0  0
  2  1  2  0  0  0  0
  3  2  1  0  0  0  0
  4  3  2  0  0  0  0
  4  5  1  0  0  0  0
  5  6  2  0  0  0  0
  6  1  1  0  0  0  0
  8  3  1  0  0  0  0
  9  5  1  0  0  0  0
 10 11  1  0  0  0  0
 11 12  1  0  0  0  0
M  END
>  <minimizedAffinity>
-2.99174666

$$$$

 OpenBabel03212520453D

 12 12  0  0  0  0  0  0  0  0999 V2000
   38.5960   75.9120   58.4810 C   0  0  0  0  0  0  0  0  0  0  0  0
   39.3720   76.7310   59.3110 C   0  0  0  0  0  0  0  0  0  0  0  0
   39.6710   76.2770   60.6050 C   0  0  0  0  0  0  0  0  0  0  0  0
   39.1860   75.0630   60.9810 N   0  0  0  0  0  0  0  0  0  0  0  0
   38.4370   74.2910   60.1580 C   0  0  0  0  0  0  0  0  0  0  0  0
   38.1470   74.7170   58.9170 N   0  0  0  0  0  0  0  0  0  0  0  0
   39.6890   77.6600   58.8950 H   0  0  0  0  0  0  0  0  0  0  0  0
   40.2590   76.9010   61.2290 H   0  0  0  0  0  0  0  0  0  0  0  0
   38.0950   73.3290   60.5570 H   0  0  0  0  0  0  0  0  0  0  0  0
   38.1870   76.2290   57.0970 C   0  0  0  0  0  2  0  0  0  0  0  0
   37.0530   75.3670   56.6100 C   0  0  0  0  0  2  0  0  0  0  0  0
   36.9530   75.5710   55.5140 H   0  0  0  0  0  0  0  0  0  0  0  0
  1  6  2  0  0  0  0
  1  2  1  0  0  0  0
  2  3  2  0  0  0  0
  3  4  1  0  0  0  0
  3  8  1  0  0  0  0
  5  9  1  0  0  0  0
  5  4  2  0  0  0  0
  6  5  1  0  0  0  0
  7  2  1  0  0  0  0
 10  1  1  0  0  0  0
 11 10  1  0  0  0  0
 12 11  1  0  0  0  0
M  END
>  <minimizedAffinity>
-2.93942213

$$$$

 OpenBabel03212520453D

 12 12  0  0  0  0  0  0  0  0999 V2000
   40.4440   75.6100   60.1650 C   0  0  0  0  0  0  0  0  0  0  0  0
   39.1440   75.6340   60.6870 C   0  0  0  0  0  0  0  0  0  0  0  0
   38.6040   74.4410   61.1910 C   0  0  0  0  0  0  0  0  0  0  0  0
   39.3790   73.3230   61.1430 N   0  0  0  0  0  0  0  0  0  0  0  0
   40.6330   73.3270   60.6330 C   0  0  0  0  0  0  0  0  0  0  0  0
   41.1580   74.4660   60.1480 N   0  0  0  0  0  0  0  0  0  0  0  0
   38.6430   76.5770   60.6650 H   0  0  0  0  0  0  0  0  0  0  0  0
   37.6200   74.4650   61.5850 H   0  0  0  0  0  0  0  0  0  0  0  0
   41.1740   72.3740   60.6400 H   0  0  0  0  0  0  0  0  0  0  0  0
   41.1650   76.7670   59.5960 C   0  0  0  0  0  2  0  0  0  0  0  0
   42.5670   76.4270   59.1650 C   0  0  0  0  0  2  0  0  0  0  0  0
   43.0640   77.4000   58.9230 H   0  0  0  0  0  0  0  0  0  0  0  0
  1  2  1  0  0  0  0
  2  3  2  0  0  0  0
  3  8  1  0  0  0  0
  4  3  1  0  0  0  0
  5  9  1  0  0  0  0
  5  4  2  0  0  0  0
  6  1  2  0  0  0  0
  6  5  1  0  0  0  0
  7  2  1  0  0  0  0
 10  1  1  0  0  0  0
 11 10  1  0  0  0  0
 12 11  1  0  0  0  0
M  END
>  <minimizedAffinity>
-2.92653584

$$$$

 OpenBabel03212520453D

 12 12  0  0  0  0  0  0  0  0999 V2000
   38.3780   75.1070   58.6870 C   0  0  0  0  0  0  0  0  0  0  0  0
   39.1300   76.2730   58.8760 C   0  0  0  0  0  0  0  0  0  0  0  0
   39.5990   76.5640   60.1670 C   0  0  0  0  0  0  0  0  0  0  0  0
   39.2940   75.6920   61.1650 N   0  0  0  0  0  0  0  0  0  0  0  0
   38.5640   74.5710   60.9550 C   0  0  0  0  0  0  0  0  0  0  0  0
   38.1110   74.2850   59.7230 N   0  0  0  0  0  0  0  0  0  0  0  0
   39.2990   76.8730   58.0090 H   0  0  0  0  0  0  0  0  0  0  0  0
   40.1690   77.4480   60.3040 H   0  0  0  0  0  0  0  0  0  0  0  0
   38.3730   73.9330   61.8260 H   0  0  0  0  0  0  0  0  0  0  0  0
   37.8080   74.6480   57.4040 C   0  0  0  0  0  2  0  0  0  0  0  0
   37.7860   73.1480   57.2770 C   0  0  0  0  0  2  0  0  0  0  0  0
   37.5070   72.9280   56.2160 H   0  0  0  0  0  0  0  0  0  0  0  0
  1  2  2  0  0  0  0
  1  6  1  0  0  0  0
  2  3  1  0  0  0  0
  3  8  1  0  0  0  0
  3  4  2  0  0  0  0
  5  4  1  0  0  0  0
  5  9  1  0  0  0  0
  6  5  2  0  0  0  0
  7  2  1  0  0  0  0
 10  1  1  0  0  0  0
 11 10  1  0  0  0  0
 12 11  1  0  0  0  0
M  END
>  <minimizedAffinity>
-2.89278126

$$$$

 OpenBabel03212520453D

 12 12  0  0  0  0  0  0  0  0999 V2000
   41.1880   66.5920   61.2490 C   0  0  0  0  0  0  0  0  0  0  0  0
   40.2050   66.1000   62.1170 C   0  0  0  0  0  0  0  0  0  0  0  0
   39.9060   66.8370   63.2740 C   0  0  0  0  0  0  0  0  0  0  0  0
   40.5920   67.9920   63.4860 N   0  0  0  0  0  0  0  0  0  0  0  0
   41.5390   68.4450   62.6300 C   0  0  0  0  0  0  0  0  0  0  0  0
   41.8310   67.7460   61.5210 N   0  0  0  0  0  0  0  0  0  0  0  0
   39.7410   65.1810   61.8340 H   0  0  0  0  0  0  0  0  0  0  0  0
   39.1600   66.4590   63.9270 H   0  0  0  0  0  0  0  0  0  0  0  0
   42.0340   69.3870   62.8930 H   0  0  0  0  0  0  0  0  0  0  0  0
   41.6280   65.9490   59.9930 C   0  0  0  0  0  2  0  0  0  0  0  0
   42.9600   65.2610   60.1250 C   0  0  0  0  0  2  0  0  0  0  0  0
   43.2660   64.9730   59.0870 H   0  0  0  0  0  0  0  0  0  0  0  0
  1  6  2  0  0  0  0
  1  2  1  0  0  0  0
  2  3  2  0  0  0  0
  3  4  1  0  0  0  0
  3  8  1  0  0  0  0
  5  9  1  0  0  0  0
  5  4  2  0  0  0  0
  6  5  1  0  0  0  0
  7  2  1  0  0  0  0
 10 11  1  0  0  0  0
 10  1  1  0  0  0  0
 12 11  1  0  0  0  0
M  END
>  <minimizedAffinity>
-2.87013435

$$$$
