
 OpenBabel03212520383D

 20 21  0  0  1  0  0  0  0  0999 V2000
   40.5250   73.6910   61.7240 O   0  0  0  0  0  0  0  0  0  0  0  0
   43.0300   71.1570   61.0950 C   0  0  0  0  0  0  0  0  0  0  0  0
   42.8670   70.3080   62.1860 C   0  0  0  0  0  0  0  0  0  0  0  0
   41.8760   70.6360   63.1340 C   0  0  0  0  0  0  0  0  0  0  0  0
   41.1640   71.7590   62.8970 N   0  0  0  0  0  0  0  0  0  0  0  0
   41.3290   72.5710   61.8410 C   0  0  0  0  0  0  0  0  0  0  0  0
   42.2630   72.2790   60.9290 N   0  0  0  0  0  0  0  0  0  0  0  0
   43.7830   70.9230   60.3590 H   0  0  0  0  0  0  0  0  0  0  0  0
   43.4530   69.4330   62.3310 H   0  0  0  0  0  0  0  0  0  0  0  0
   41.6830   70.0300   64.0140 H   0  0  0  0  0  0  0  0  0  0  0  0
   39.6290   73.8650   60.6540 C   0  0  1  0  0  0  0  0  0  0  0  0
   38.2160   74.1950   61.0830 C   0  0  0  0  0  0  0  0  0  0  0  0
   39.0870   75.2180   60.3920 C   0  0  1  0  0  0  0  0  0  0  0  0
   39.6260   73.1110   59.8230 H   0  0  0  0  0  0  0  0  0  0  0  0
   38.0260   74.3290   62.1580 H   0  0  0  0  0  0  0  0  0  0  0  0
   37.3490   73.8490   60.4960 H   0  0  0  0  0  0  0  0  0  0  0  0
   38.8780   75.4580   59.3220 H   0  0  0  0  0  0  0  0  0  0  0  0
   39.6610   76.3770   61.1450 C   0  0  0  0  0  2  0  0  0  0  0  0
   40.2670   77.3720   60.1560 C   0  0  0  0  0  2  0  0  0  0  0  0
   40.5500   76.7990   59.2450 H   0  0  0  0  0  0  0  0  0  0  0  0
  1  6  1  0  0  0  0
  2  3  1  0  0  0  0
  3  9  1  0  0  0  0
  3  4  2  0  0  0  0
  4 10  1  0  0  0  0
  5  4  1  0  0  0  0
  6  5  2  0  0  0  0
  7  2  2  0  0  0  0
  7  6  1  0  0  0  0
  8  2  1  0  0  0  0
 11 14  1  6  0  0  0
 11 12  1  0  0  0  0
 11  1  1  0  0  0  0
 12 15  1  0  0  0  0
 13 17  1  6  0  0  0
 13 11  1  0  0  0  0
 13 12  1  0  0  0  0
 13 18  1  0  0  0  0
 16 12  1  0  0  0  0
 19 18  1  0  0  0  0
 20 19  1  0  0  0  0
M  END
>  <minimizedAffinity>
-4.05430412

$$$$

 OpenBabel03212520383D

 20 21  0  0  1  0  0  0  0  0999 V2000
   38.4600   74.9610   59.0780 O   0  0  0  0  0  0  0  0  0  0  0  0
   36.7540   75.3900   55.9160 C   0  0  0  0  0  0  0  0  0  0  0  0
   37.1650   76.6640   55.5320 C   0  0  0  0  0  0  0  0  0  0  0  0
   38.0400   77.3610   56.3910 C   0  0  0  0  0  0  0  0  0  0  0  0
   38.4060   76.7230   57.5240 N   0  0  0  0  0  0  0  0  0  0  0  0
   38.0030   75.4940   57.8850 C   0  0  0  0  0  0  0  0  0  0  0  0
   37.1740   74.8150   57.0850 N   0  0  0  0  0  0  0  0  0  0  0  0
   36.0850   74.8420   55.2720 H   0  0  0  0  0  0  0  0  0  0  0  0
   36.8490   77.1270   54.6290 H   0  0  0  0  0  0  0  0  0  0  0  0
   38.4090   78.3570   56.1700 H   0  0  0  0  0  0  0  0  0  0  0  0
   39.5760   75.4840   59.7560 C   0  0  1  0  0  0  0  0  0  0  0  0
   39.2670   75.9820   61.1510 C   0  0  0  0  0  0  0  0  0  0  0  0
   40.1070   74.7460   60.9260 C   0  0  1  0  0  0  0  0  0  0  0  0
   40.2490   76.2010   59.2180 H   0  0  0  0  0  0  0  0  0  0  0  0
   38.2450   75.8420   61.5310 H   0  0  0  0  0  0  0  0  0  0  0  0
   39.8110   76.8410   61.5800 H   0  0  0  0  0  0  0  0  0  0  0  0
   41.2100   74.8170   61.0830 H   0  0  0  0  0  0  0  0  0  0  0  0
   39.5650   73.3820   61.2180 C   0  0  0  0  0  2  0  0  0  0  0  0
   40.6480   72.5420   61.8930 C   0  0  0  0  0  2  0  0  0  0  0  0
   41.6310   72.9540   61.5730 H   0  0  0  0  0  0  0  0  0  0  0  0
  1 11  1  0  0  0  0
  2  7  1  0  0  0  0
  3  2  2  0  0  0  0
  3  4  1  0  0  0  0
  4  5  2  0  0  0  0
  5  6  1  0  0  0  0
  6  1  1  0  0  0  0
  7  6  2  0  0  0  0
  8  2  1  0  0  0  0
  9  3  1  0  0  0  0
 10  4  1  0  0  0  0
 11 14  1  6  0  0  0
 11 13  1  0  0  0  0
 11 12  1  0  0  0  0
 12 15  1  0  0  0  0
 12 16  1  0  0  0  0
 13 17  1  1  0  0  0
 13 12  1  0  0  0  0
 13 18  1  0  0  0  0
 18 19  1  0  0  0  0
 20 19  1  0  0  0  0
M  END
>  <minimizedAffinity>
-4.02277136

$$$$

 OpenBabel03212520383D

 20 21  0  0  1  0  0  0  0  0999 V2000
   38.4590   75.1140   59.0850 O   0  0  0  0  0  0  0  0  0  0  0  0
   37.9150   77.2920   56.2460 C   0  0  0  0  0  0  0  0  0  0  0  0
   37.0890   76.5160   55.4370 C   0  0  0  0  0  0  0  0  0  0  0  0
   36.7310   75.2330   55.8990 C   0  0  0  0  0  0  0  0  0  0  0  0
   37.2270   74.8640   57.0990 N   0  0  0  0  0  0  0  0  0  0  0  0
   38.0240   75.6200   57.8720 C   0  0  0  0  0  0  0  0  0  0  0  0
   38.3760   76.8410   57.4540 N   0  0  0  0  0  0  0  0  0  0  0  0
   38.2000   78.2760   55.9100 H   0  0  0  0  0  0  0  0  0  0  0  0
   36.7220   76.8490   54.4970 H   0  0  0  0  0  0  0  0  0  0  0  0
   36.0920   74.5630   55.3320 H   0  0  0  0  0  0  0  0  0  0  0  0
   39.6460   75.5520   59.6980 C   0  0  1  0  0  0  0  0  0  0  0  0
   39.4500   76.0960   61.0960 C   0  0  0  0  0  0  0  0  0  0  0  0
   40.1710   74.7910   60.8560 C   0  0  1  0  0  0  0  0  0  0  0  0
   40.3500   76.2010   59.1150 H   0  0  0  0  0  0  0  0  0  0  0  0
   38.4390   76.0500   61.5270 H   0  0  0  0  0  0  0  0  0  0  0  0
   40.0830   76.9140   61.4820 H   0  0  0  0  0  0  0  0  0  0  0  0
   41.2820   74.7700   60.9590 H   0  0  0  0  0  0  0  0  0  0  0  0
   39.5320   73.4820   61.2010 C   0  0  0  0  0  2  0  0  0  0  0  0
   40.5710   72.5670   61.8470 C   0  0  0  0  0  2  0  0  0  0  0  0
   41.5700   72.8890   61.4750 H   0  0  0  0  0  0  0  0  0  0  0  0
  1 11  1  0  0  0  0
  2  7  1  0  0  0  0
  3  4  1  0  0  0  0
  3  2  2  0  0  0  0
  4  5  2  0  0  0  0
  5  6  1  0  0  0  0
  6  1  1  0  0  0  0
  7  6  2  0  0  0  0
  8  2  1  0  0  0  0
  9  3  1  0  0  0  0
 10  4  1  0  0  0  0
 11 14  1  6  0  0  0
 11 13  1  0  0  0  0
 11 12  1  0  0  0  0
 12 16  1  0  0  0  0
 12 15  1  0  0  0  0
 13 17  1  1  0  0  0
 13 12  1  0  0  0  0
 13 18  1  0  0  0  0
 18 19  1  0  0  0  0
 20 19  1  0  0  0  0
M  END
>  <minimizedAffinity>
-3.98984241

$$$$

 OpenBabel03212520383D

 20 21  0  0  1  0  0  0  0  0999 V2000
   38.8410   76.8710   58.5930 O   0  0  0  0  0  0  0  0  0  0  0  0
   37.0950   74.4400   56.5600 C   0  0  0  0  0  0  0  0  0  0  0  0
   36.5750   75.2330   55.5390 C   0  0  0  0  0  0  0  0  0  0  0  0
   36.8440   76.6160   55.5770 C   0  0  0  0  0  0  0  0  0  0  0  0
   37.5920   77.0570   56.6120 N   0  0  0  0  0  0  0  0  0  0  0  0
   38.0880   76.2840   57.5910 C   0  0  0  0  0  0  0  0  0  0  0  0
   37.8450   74.9690   57.5760 N   0  0  0  0  0  0  0  0  0  0  0  0
   36.8990   73.3800   56.5480 H   0  0  0  0  0  0  0  0  0  0  0  0
   35.9900   74.8400   54.7430 H   0  0  0  0  0  0  0  0  0  0  0  0
   36.4780   77.3060   54.8230 H   0  0  0  0  0  0  0  0  0  0  0  0
   40.1190   76.4020   58.9460 C   0  0  1  0  0  0  0  0  0  0  0  0
   40.7630   77.1700   60.0800 C   0  0  0  0  0  0  0  0  0  0  0  0
   40.2970   75.7440   60.2610 C   0  0  1  0  0  0  0  0  0  0  0  0
   40.8630   76.1960   58.1330 H   0  0  0  0  0  0  0  0  0  0  0  0
   40.1740   77.9640   60.5600 H   0  0  0  0  0  0  0  0  0  0  0  0
   41.8570   77.3100   60.1210 H   0  0  0  0  0  0  0  0  0  0  0  0
   41.0640   74.9340   60.2980 H   0  0  0  0  0  0  0  0  0  0  0  0
   39.0810   75.4270   61.0740 C   0  0  0  0  0  2  0  0  0  0  0  0
   38.8600   73.9160   61.0870 C   0  0  0  0  0  2  0  0  0  0  0  0
   39.3240   73.5080   60.1610 H   0  0  0  0  0  0  0  0  0  0  0  0
  1 11  1  0  0  0  0
  2  7  1  0  0  0  0
  3  4  1  0  0  0  0
  3  2  2  0  0  0  0
  4  5  2  0  0  0  0
  5  6  1  0  0  0  0
  6  1  1  0  0  0  0
  7  6  2  0  0  0  0
  8  2  1  0  0  0  0
  9  3  1  0  0  0  0
 10  4  1  0  0  0  0
 11 14  1  6  0  0  0
 11 12  1  0  0  0  0
 11 13  1  0  0  0  0
 12 16  1  0  0  0  0
 12 13  1  0  0  0  0
 12 15  1  0  0  0  0
 13 17  1  1  0  0  0
 13 18  1  0  0  0  0
 18 19  1  0  0  0  0
 20 19  1  0  0  0  0
M  END
>  <minimizedAffinity>
-3.93438601

$$$$

 OpenBabel03212520383D

 20 21  0  0  1  0  0  0  0  0999 V2000
   39.1240   77.2450   58.4470 O   0  0  0  0  0  0  0  0  0  0  0  0
   37.0480   76.7600   55.5230 C   0  0  0  0  0  0  0  0  0  0  0  0
   36.6620   75.4280   55.6570 C   0  0  0  0  0  0  0  0  0  0  0  0
   37.1370   74.7140   56.7750 C   0  0  0  0  0  0  0  0  0  0  0  0
   37.9340   75.3910   57.6300 N   0  0  0  0  0  0  0  0  0  0  0  0
   38.3010   76.6760   57.4920 C   0  0  0  0  0  0  0  0  0  0  0  0
   37.8620   77.3730   56.4380 N   0  0  0  0  0  0  0  0  0  0  0  0
   36.6950   77.3230   54.6740 H   0  0  0  0  0  0  0  0  0  0  0  0
   36.0320   74.9360   54.9570 H   0  0  0  0  0  0  0  0  0  0  0  0
   36.8860   73.6730   56.9560 H   0  0  0  0  0  0  0  0  0  0  0  0
   40.3720   76.6940   58.7880 C   0  0  1  0  0  0  0  0  0  0  0  0
   41.1540   77.5180   59.7880 C   0  0  0  0  0  0  0  0  0  0  0  0
   40.5700   76.1760   60.1620 C   0  0  1  0  0  0  0  0  0  0  0  0
   41.0420   76.3240   57.9690 H   0  0  0  0  0  0  0  0  0  0  0  0
   40.6720   78.4170   60.2000 H   0  0  0  0  0  0  0  0  0  0  0  0
   42.2560   77.5530   59.7570 H   0  0  0  0  0  0  0  0  0  0  0  0
   41.2590   75.3030   60.2560 H   0  0  0  0  0  0  0  0  0  0  0  0
   39.3820   76.0760   61.0670 C   0  0  0  0  0  2  0  0  0  0  0  0
   38.8680   74.6380   61.0710 C   0  0  0  0  0  2  0  0  0  0  0  0
   39.1680   74.1790   60.1020 H   0  0  0  0  0  0  0  0  0  0  0  0
  1 11  1  0  0  0  0
  2  3  2  0  0  0  0
  2  7  1  0  0  0  0
  3  4  1  0  0  0  0
  4 10  1  0  0  0  0
  4  5  2  0  0  0  0
  6  5  1  0  0  0  0
  6  1  1  0  0  0  0
  7  6  2  0  0  0  0
  8  2  1  0  0  0  0
  9  3  1  0  0  0  0
 11 14  1  6  0  0  0
 11 12  1  0  0  0  0
 11 13  1  0  0  0  0
 12 13  1  0  0  0  0
 12 15  1  0  0  0  0
 13 17  1  1  0  0  0
 13 18  1  0  0  0  0
 16 12  1  0  0  0  0
 18 19  1  0  0  0  0
 20 19  1  0  0  0  0
M  END
>  <minimizedAffinity>
-3.90490842

$$$$

 OpenBabel03212520383D

 20 21  0  0  1  0  0  0  0  0999 V2000
   38.8900   75.6140   58.7160 O   0  0  0  0  0  0  0  0  0  0  0  0
   36.5930   75.2350   55.9460 C   0  0  0  0  0  0  0  0  0  0  0  0
   36.6790   76.4770   55.3230 C   0  0  0  0  0  0  0  0  0  0  0  0
   37.5450   77.4370   55.8840 C   0  0  0  0  0  0  0  0  0  0  0  0
   38.2240   77.0630   56.9900 N   0  0  0  0  0  0  0  0  0  0  0  0
   38.1340   75.8620   57.5840 C   0  0  0  0  0  0  0  0  0  0  0  0
   37.3180   74.9350   57.0680 N   0  0  0  0  0  0  0  0  0  0  0  0
   35.9360   74.4870   55.5310 H   0  0  0  0  0  0  0  0  0  0  0  0
   36.1240   76.7270   54.4520 H   0  0  0  0  0  0  0  0  0  0  0  0
   37.6720   78.4300   55.4640 H   0  0  0  0  0  0  0  0  0  0  0  0
   39.3590   76.6460   59.5470 C   0  0  1  0  0  0  0  0  0  0  0  0
   39.6780   76.2010   60.9580 C   0  0  0  0  0  0  0  0  0  0  0  0
   40.7700   76.6110   59.9980 C   0  0  1  0  0  0  0  0  0  0  0  0
   38.8140   77.6260   59.5540 H   0  0  0  0  0  0  0  0  0  0  0  0
   39.5800   75.1310   61.1920 H   0  0  0  0  0  0  0  0  0  0  0  0
   39.5320   76.8810   61.8150 H   0  0  0  0  0  0  0  0  0  0  0  0
   41.2580   77.6050   60.1410 H   0  0  0  0  0  0  0  0  0  0  0  0
   41.6890   75.5950   59.3950 C   0  0  0  0  0  2  0  0  0  0  0  0
   42.4880   76.2430   58.2660 C   0  0  0  0  0  2  0  0  0  0  0  0
   41.8810   77.0920   57.8790 H   0  0  0  0  0  0  0  0  0  0  0  0
  1 11  1  0  0  0  0
  2  7  1  0  0  0  0
  3  4  1  0  0  0  0
  3  2  2  0  0  0  0
  4  5  2  0  0  0  0
  5  6  1  0  0  0  0
  6  1  1  0  0  0  0
  7  6  2  0  0  0  0
  8  2  1  0  0  0  0
  9  3  1  0  0  0  0
 10  4  1  0  0  0  0
 11 14  1  6  0  0  0
 11 13  1  0  0  0  0
 11 12  1  0  0  0  0
 12 15  1  0  0  0  0
 12 16  1  0  0  0  0
 13 17  1  1  0  0  0
 13 12  1  0  0  0  0
 18 13  1  0  0  0  0
 19 18  1  0  0  0  0
 20 19  1  0  0  0  0
M  END
>  <minimizedAffinity>
-3.82932878

$$$$

 OpenBabel03212520383D

 20 21  0  0  1  0  0  0  0  0999 V2000
   40.3250   72.6410   60.9300 O   0  0  0  0  0  0  0  0  0  0  0  0
   39.6800   76.0140   59.7890 C   0  0  0  0  0  0  0  0  0  0  0  0
   38.7280   75.8080   58.7920 C   0  0  0  0  0  0  0  0  0  0  0  0
   38.3240   74.4830   58.5310 C   0  0  0  0  0  0  0  0  0  0  0  0
   38.9010   73.5180   59.2800 N   0  0  0  0  0  0  0  0  0  0  0  0
   39.8170   73.7270   60.2380 C   0  0  0  0  0  0  0  0  0  0  0  0
   40.2160   74.9760   60.5030 N   0  0  0  0  0  0  0  0  0  0  0  0
   40.0020   77.0200   60.0030 H   0  0  0  0  0  0  0  0  0  0  0  0
   38.3020   76.6010   58.2280 H   0  0  0  0  0  0  0  0  0  0  0  0
   37.5890   74.2330   57.7720 H   0  0  0  0  0  0  0  0  0  0  0  0
   40.9950   72.7790   62.1580 C   0  0  1  0  0  0  0  0  0  0  0  0
   41.4810   71.4700   62.7420 C   0  0  0  0  0  0  0  0  0  0  0  0
   42.4490   72.5020   62.2110 C   0  0  1  0  0  0  0  0  0  0  0  0
   40.5390   73.4230   62.9540 H   0  0  0  0  0  0  0  0  0  0  0  0
   41.3320   70.5570   62.1490 H   0  0  0  0  0  0  0  0  0  0  0  0
   41.5200   71.3150   63.8340 H   0  0  0  0  0  0  0  0  0  0  0  0
   43.0320   73.1110   62.9420 H   0  0  0  0  0  0  0  0  0  0  0  0
   43.1830   72.2810   60.9250 C   0  0  0  0  0  2  0  0  0  0  0  0
   43.7510   73.6100   60.4320 C   0  0  0  0  0  2  0  0  0  0  0  0
   43.1100   74.4180   60.8510 H   0  0  0  0  0  0  0  0  0  0  0  0
  1 11  1  0  0  0  0
  2  8  1  0  0  0  0
  2  7  1  0  0  0  0
  3  2  2  0  0  0  0
  4  3  1  0  0  0  0
  4  5  2  0  0  0  0
  5  6  1  0  0  0  0
  6  7  2  0  0  0  0
  6  1  1  0  0  0  0
  9  3  1  0  0  0  0
 10  4  1  0  0  0  0
 11 13  1  0  0  0  0
 11 12  1  0  0  0  0
 11 14  1  1  0  0  0
 12 16  1  0  0  0  0
 13 12  1  0  0  0  0
 13 17  1  1  0  0  0
 15 12  1  0  0  0  0
 18 13  1  0  0  0  0
 19 20  1  0  0  0  0
 19 18  1  0  0  0  0
M  END
>  <minimizedAffinity>
-3.60416031

$$$$

 OpenBabel03212520383D

 20 21  0  0  1  0  0  0  0  0999 V2000
   40.8900   74.8390   59.7430 O   0  0  0  0  0  0  0  0  0  0  0  0
   43.1370   72.3510   61.1030 C   0  0  0  0  0  0  0  0  0  0  0  0
   42.3620   71.7730   62.1050 C   0  0  0  0  0  0  0  0  0  0  0  0
   41.0540   72.2650   62.2920 C   0  0  0  0  0  0  0  0  0  0  0  0
   40.6640   73.2660   61.4730 N   0  0  0  0  0  0  0  0  0  0  0  0
   41.4200   73.8170   60.5100 C   0  0  0  0  0  0  0  0  0  0  0  0
   42.6640   73.3650   60.3150 N   0  0  0  0  0  0  0  0  0  0  0  0
   44.1400   71.9880   60.9450 H   0  0  0  0  0  0  0  0  0  0  0  0
   42.7130   70.9850   62.7260 H   0  0  0  0  0  0  0  0  0  0  0  0
   40.3820   71.8730   63.0490 H   0  0  0  0  0  0  0  0  0  0  0  0
   40.1020   75.8640   60.2970 C   0  0  1  0  0  0  0  0  0  0  0  0
   40.6540   77.2540   60.0670 C   0  0  0  0  0  0  0  0  0  0  0  0
   39.3900   76.7870   59.3820 C   0  0  1  0  0  0  0  0  0  0  0  0
   39.7310   75.7530   61.3490 H   0  0  0  0  0  0  0  0  0  0  0  0
   41.5610   77.3510   59.4530 H   0  0  0  0  0  0  0  0  0  0  0  0
   40.5100   78.0530   60.8140 H   0  0  0  0  0  0  0  0  0  0  0  0
   38.4110   77.1750   59.7520 H   0  0  0  0  0  0  0  0  0  0  0  0
   39.3760   76.4750   57.9190 C   0  0  0  0  0  2  0  0  0  0  0  0
   38.0390   75.8340   57.5510 C   0  0  0  0  0  2  0  0  0  0  0  0
   37.6450   75.3460   58.4700 H   0  0  0  0  0  0  0  0  0  0  0  0
  1 11  1  0  0  0  0
  1  6  1  0  0  0  0
  2  3  1  0  0  0  0
  3  4  2  0  0  0  0
  3  9  1  0  0  0  0
  4 10  1  0  0  0  0
  5  4  1  0  0  0  0
  6  5  2  0  0  0  0
  7  6  1  0  0  0  0
  7  2  2  0  0  0  0
  8  2  1  0  0  0  0
 11 14  1  1  0  0  0
 12 11  1  0  0  0  0
 12 16  1  0  0  0  0
 13 17  1  1  0  0  0
 13 12  1  0  0  0  0
 13 11  1  0  0  0  0
 15 12  1  0  0  0  0
 18 13  1  0  0  0  0
 19 18  1  0  0  0  0
 19 20  1  0  0  0  0
M  END
>  <minimizedAffinity>
-3.47130132

$$$$

 OpenBabel03212520383D

 20 21  0  0  1  0  0  0  0  0999 V2000
   40.9780   74.0140   60.5350 O   0  0  0  0  0  0  0  0  0  0  0  0
   38.1290   74.1200   58.3070 C   0  0  0  0  0  0  0  0  0  0  0  0
   38.0800   75.4670   57.9590 C   0  0  0  0  0  0  0  0  0  0  0  0
   39.0510   76.3260   58.5130 C   0  0  0  0  0  0  0  0  0  0  0  0
   39.9540   75.7600   59.3420 N   0  0  0  0  0  0  0  0  0  0  0  0
   39.9920   74.4590   59.6710 C   0  0  0  0  0  0  0  0  0  0  0  0
   39.0810   73.6260   59.1570 N   0  0  0  0  0  0  0  0  0  0  0  0
   37.3950   73.4470   57.8930 H   0  0  0  0  0  0  0  0  0  0  0  0
   37.3480   75.8680   57.3000 H   0  0  0  0  0  0  0  0  0  0  0  0
   39.0850   77.3900   58.2960 H   0  0  0  0  0  0  0  0  0  0  0  0
   41.9700   73.1010   60.1370 C   0  0  1  0  0  0  0  0  0  0  0  0
   43.3640   73.4710   60.5940 C   0  0  0  0  0  0  0  0  0  0  0  0
   42.6380   72.2800   61.1730 C   0  0  1  0  0  0  0  0  0  0  0  0
   41.9830   72.7450   59.0740 H   0  0  0  0  0  0  0  0  0  0  0  0
   43.4750   74.3600   61.2320 H   0  0  0  0  0  0  0  0  0  0  0  0
   44.2480   73.2250   59.9810 H   0  0  0  0  0  0  0  0  0  0  0  0
   42.9530   71.2580   60.8520 H   0  0  0  0  0  0  0  0  0  0  0  0
   42.0970   72.3080   62.5680 C   0  0  0  0  0  2  0  0  0  0  0  0
   41.8180   70.8800   63.0330 C   0  0  0  0  0  2  0  0  0  0  0  0
   41.6310   70.2690   62.1210 H   0  0  0  0  0  0  0  0  0  0  0  0
  2  7  1  0  0  0  0
  3  2  2  0  0  0  0
  3  4  1  0  0  0  0
  4  5  2  0  0  0  0
  5  6  1  0  0  0  0
  6  1  1  0  0  0  0
  7  6  2  0  0  0  0
  8  2  1  0  0  0  0
  9  3  1  0  0  0  0
 10  4  1  0  0  0  0
 11 14  1  6  0  0  0
 11  1  1  0  0  0  0
 11 12  1  0  0  0  0
 11 13  1  0  0  0  0
 12 13  1  0  0  0  0
 12 15  1  0  0  0  0
 13 17  1  6  0  0  0
 13 18  1  0  0  0  0
 16 12  1  0  0  0  0
 18 19  1  0  0  0  0
 20 19  1  0  0  0  0
M  END
>  <minimizedAffinity>
-3.46607375

$$$$
