
 OpenBabel03212520423D

 12 12  0  0  0  0  0  0  0  0999 V2000
   40.2820   82.0360   61.2040 C   0  0  0  0  0  0  0  0  0  0  0  0
   40.3980   82.7330   59.9940 C   0  0  0  0  0  0  0  0  0  0  0  0
   39.6900   83.9350   59.8460 C   0  0  0  0  0  0  0  0  0  0  0  0
   38.9280   84.3570   60.8910 N   0  0  0  0  0  0  0  0  0  0  0  0
   38.8340   83.6640   62.0500 C   0  0  0  0  0  0  0  0  0  0  0  0
   39.5080   82.5110   62.2010 N   0  0  0  0  0  0  0  0  0  0  0  0
   41.0290   82.2930   59.2540 H   0  0  0  0  0  0  0  0  0  0  0  0
   39.7820   84.4590   58.9280 H   0  0  0  0  0  0  0  0  0  0  0  0
   38.1930   84.0890   62.8310 H   0  0  0  0  0  0  0  0  0  0  0  0
   40.9530   80.7610   61.5310 C   0  0  0  0  0  2  0  0  0  0  0  0
   40.3300   79.5780   60.8380 C   0  0  0  0  0  2  0  0  0  0  0  0
   40.8000   78.6680   61.2920 H   0  0  0  0  0  0  0  0  0  0  0  0
  1 10  1  0  0  0  0
  1  6  1  0  0  0  0
  2  1  2  0  0  0  0
  3  2  1  0  0  0  0
  3  4  2  0  0  0  0
  4  5  1  0  0  0  0
  5  6  2  0  0  0  0
  5  9  1  0  0  0  0
  7  2  1  0  0  0  0
  8  3  1  0  0  0  0
 11 12  1  0  0  0  0
 11 10  1  0  0  0  0
M  END
>  <minimizedAffinity>
-3.46672535

>  <minimizedRMSD>
0.430557996

$$$$
