
 OpenBabel03212520513D

 29 31  0  0  1  0  0  0  0  0999 V2000
   41.7900   83.9280   61.3970 C   0  0  0  0  0  0  0  0  0  0  0  0
   41.0150   84.2920   62.4790 C   0  0  0  0  0  0  0  0  0  0  0  0
   40.5220   83.3340   63.3690 C   0  0  0  0  0  0  0  0  0  0  0  0
   40.7970   82.0490   63.1830 N   0  0  0  0  0  0  0  0  0  0  0  0
   41.5580   81.7110   62.1180 C   0  0  0  0  0  0  0  0  0  0  0  0
   42.0570   82.6020   61.2310 N   0  0  0  0  0  0  0  0  0  0  0  0
   40.7710   85.3310   62.6620 H   0  0  0  0  0  0  0  0  0  0  0  0
   39.9220   83.6190   64.2040 H   0  0  0  0  0  0  0  0  0  0  0  0
   43.7670   86.6350   59.9290 C   0  0  0  0  0  0  0  0  0  0  0  0
   43.2180   86.7070   58.6390 C   0  0  0  0  0  0  0  0  0  0  0  0
   42.1950   85.8560   58.2660 C   0  0  0  0  0  0  0  0  0  0  0  0
   41.7760   84.9730   59.2170 N   0  0  0  0  0  0  0  0  0  0  0  0
   42.3080   84.9110   60.4500 C   0  0  0  0  0  0  0  0  0  0  0  0
   43.2870   85.7260   60.8070 N   0  0  0  0  0  0  0  0  0  0  0  0
   44.8020   87.5630   60.1610 N   0  0  0  0  0  0  0  0  0  0  0  0
   43.5420   87.4080   57.8670 H   0  0  0  0  0  0  0  0  0  0  0  0
   41.7400   85.8700   57.2920 H   0  0  0  0  0  0  0  0  0  0  0  0
   44.5970   88.2600   60.9340 H   0  0  0  0  0  0  0  0  0  0  0  0
   45.6240   87.4080   59.5170 H   0  0  0  0  0  0  0  0  0  0  0  0
   41.8170   80.2410   61.9450 C   0  0  1  0  0  0  0  0  0  0  0  0
   40.8220   79.2550   62.3110 C   0  0  0  0  0  0  0  0  0  0  0  0
   40.9640   79.5990   60.8700 C   0  0  1  0  0  0  0  0  0  0  0  0
   42.9220   80.0640   61.8690 H   0  0  0  0  0  0  0  0  0  0  0  0
   39.9450   79.6140   62.9120 H   0  0  0  0  0  0  0  0  0  0  0  0
   41.1650   78.2640   62.7080 H   0  0  0  0  0  0  0  0  0  0  0  0
   41.5060   78.8090   60.3080 H   0  0  0  0  0  0  0  0  0  0  0  0
   39.9870   80.3450   60.0680 C   0  0  0  0  0  2  0  0  0  0  0  0
   40.2680   80.5690   58.6310 C   0  0  0  0  0  2  0  0  0  0  0  0
   41.3310   80.5290   58.3470 H   0  0  0  0  0  0  0  0  0  0  0  0
  1  2  1  0  0  0  0
  2  7  1  0  0  0  0
  2  3  2  0  0  0  0
  3  8  1  0  0  0  0
  4  3  1  0  0  0  0
  5  4  2  0  0  0  0
  6  1  2  0  0  0  0
  6  5  1  0  0  0  0
  9 15  1  0  0  0  0
  9 14  1  0  0  0  0
 10  9  2  0  0  0  0
 11 10  1  0  0  0  0
 11 12  2  0  0  0  0
 12 13  1  0  0  0  0
 13 14  2  0  0  0  0
 13  1  1  0  0  0  0
 15 18  1  0  0  0  0
 16 10  1  0  0  0  0
 17 11  1  0  0  0  0
 19 15  1  0  0  0  0
 20 23  1  1  0  0  0
 20  5  1  0  0  0  0
 20 21  1  0  0  0  0
 21 25  1  0  0  0  0
 21 24  1  0  0  0  0
 22 26  1  6  0  0  0
 22 20  1  0  0  0  0
 22 21  1  0  0  0  0
 27 22  1  0  0  0  0
 28 27  1  0  0  0  0
 29 28  1  0  0  0  0
M  END
>  <minimizedAffinity>
-4.72649813

>  <minimizedRMSD>
0.506197751

$$$$
