
 OpenBabel03212520513D

 29 31  0  0  1  0  0  0  0  0999 V2000
   41.7910   83.9270   61.3960 C   0  0  0  0  0  0  0  0  0  0  0  0
   41.0160   84.2910   62.4770 C   0  0  0  0  0  0  0  0  0  0  0  0
   40.5220   83.3330   63.3670 C   0  0  0  0  0  0  0  0  0  0  0  0
   40.7970   82.0480   63.1810 N   0  0  0  0  0  0  0  0  0  0  0  0
   41.5590   81.7100   62.1160 C   0  0  0  0  0  0  0  0  0  0  0  0
   42.0580   82.6020   61.2290 N   0  0  0  0  0  0  0  0  0  0  0  0
   40.7710   85.3300   62.6610 H   0  0  0  0  0  0  0  0  0  0  0  0
   39.9230   83.6180   64.2020 H   0  0  0  0  0  0  0  0  0  0  0  0
   43.7660   86.6370   59.9290 C   0  0  0  0  0  0  0  0  0  0  0  0
   43.2190   86.7060   58.6370 C   0  0  0  0  0  0  0  0  0  0  0  0
   42.1980   85.8530   58.2640 C   0  0  0  0  0  0  0  0  0  0  0  0
   41.7790   84.9700   59.2140 N   0  0  0  0  0  0  0  0  0  0  0  0
   42.3090   84.9100   60.4490 C   0  0  0  0  0  0  0  0  0  0  0  0
   43.2860   85.7270   60.8060 N   0  0  0  0  0  0  0  0  0  0  0  0
   44.7990   87.5660   60.1620 N   0  0  0  0  0  0  0  0  0  0  0  0
   43.5430   87.4080   57.8660 H   0  0  0  0  0  0  0  0  0  0  0  0
   41.7450   85.8660   57.2890 H   0  0  0  0  0  0  0  0  0  0  0  0
   44.5910   88.2640   60.9340 H   0  0  0  0  0  0  0  0  0  0  0  0
   45.6220   87.4120   59.5200 H   0  0  0  0  0  0  0  0  0  0  0  0
   41.8180   80.2400   61.9420 C   0  0  1  0  0  0  0  0  0  0  0  0
   40.8230   79.2540   62.3080 C   0  0  0  0  0  0  0  0  0  0  0  0
   40.9650   79.5980   60.8680 C   0  0  1  0  0  0  0  0  0  0  0  0
   42.9220   80.0630   61.8670 H   0  0  0  0  0  0  0  0  0  0  0  0
   39.9460   79.6130   62.9100 H   0  0  0  0  0  0  0  0  0  0  0  0
   41.1660   78.2630   62.7060 H   0  0  0  0  0  0  0  0  0  0  0  0
   41.5060   78.8080   60.3060 H   0  0  0  0  0  0  0  0  0  0  0  0
   39.9880   80.3440   60.0660 C   0  0  0  0  0  2  0  0  0  0  0  0
   40.2670   80.5680   58.6290 C   0  0  0  0  0  2  0  0  0  0  0  0
   41.3310   80.5270   58.3450 H   0  0  0  0  0  0  0  0  0  0  0  0
  1  2  1  0  0  0  0
  2  7  1  0  0  0  0
  2  3  2  0  0  0  0
  3  8  1  0  0  0  0
  4  3  1  0  0  0  0
  5  4  2  0  0  0  0
  6  1  2  0  0  0  0
  6  5  1  0  0  0  0
  9 15  1  0  0  0  0
  9 14  1  0  0  0  0
 10  9  2  0  0  0  0
 11 10  1  0  0  0  0
 11 12  2  0  0  0  0
 12 13  1  0  0  0  0
 13 14  2  0  0  0  0
 13  1  1  0  0  0  0
 15 18  1  0  0  0  0
 16 10  1  0  0  0  0
 17 11  1  0  0  0  0
 19 15  1  0  0  0  0
 20 23  1  1  0  0  0
 20  5  1  0  0  0  0
 20 21  1  0  0  0  0
 21 25  1  0  0  0  0
 21 24  1  0  0  0  0
 22 26  1  6  0  0  0
 22 20  1  0  0  0  0
 22 21  1  0  0  0  0
 27 22  1  0  0  0  0
 28 27  1  0  0  0  0
 29 28  1  0  0  0  0
M  END
>  <minimizedAffinity>
-4.72424841

>  <minimizedRMSD>
0.67750299

$$$$
