
 OpenBabel03212520433D

 12 12  0  0  0  0  0  0  0  0999 V2000
   39.9470   81.8870   61.0980 C   0  0  0  0  0  0  0  0  0  0  0  0
   40.1600   82.5910   59.9050 C   0  0  0  0  0  0  0  0  0  0  0  0
   39.6740   83.9040   59.8090 C   0  0  0  0  0  0  0  0  0  0  0  0
   39.0200   84.4200   60.8840 N   0  0  0  0  0  0  0  0  0  0  0  0
   38.8270   83.7180   62.0260 C   0  0  0  0  0  0  0  0  0  0  0  0
   39.2890   82.4600   62.1270 N   0  0  0  0  0  0  0  0  0  0  0  0
   40.6880   82.0710   59.1370 H   0  0  0  0  0  0  0  0  0  0  0  0
   39.8390   84.4320   58.9040 H   0  0  0  0  0  0  0  0  0  0  0  0
   38.2880   84.2250   62.8340 H   0  0  0  0  0  0  0  0  0  0  0  0
   40.3870   80.5040   61.3720 C   0  0  0  0  0  2  0  0  0  0  0  0
   40.4560   79.6550   60.1310 C   0  0  0  0  0  2  0  0  0  0  0  0
   40.6240   78.6050   60.4800 H   0  0  0  0  0  0  0  0  0  0  0  0
  1 10  1  0  0  0  0
  1  6  1  0  0  0  0
  2  1  2  0  0  0  0
  3  2  1  0  0  0  0
  3  4  2  0  0  0  0
  4  5  1  0  0  0  0
  5  6  2  0  0  0  0
  5  9  1  0  0  0  0
  7  2  1  0  0  0  0
  8  3  1  0  0  0  0
 11 12  1  0  0  0  0
 11 10  1  0  0  0  0
M  END
>  <minimizedAffinity>
-3.56044173

>  <minimizedRMSD>
0.341979802

$$$$
