
 OpenBabel03212520433D

 12 12  0  0  0  0  0  0  0  0999 V2000
   40.0530   82.0160   60.5200 C   0  0  0  0  0  0  0  0  0  0  0  0
   40.1000   82.9940   59.5180 C   0  0  0  0  0  0  0  0  0  0  0  0
   39.5350   84.2510   59.7850 C   0  0  0  0  0  0  0  0  0  0  0  0
   38.9720   84.4480   61.0070 N   0  0  0  0  0  0  0  0  0  0  0  0
   38.9400   83.4850   61.9580 C   0  0  0  0  0  0  0  0  0  0  0  0
   39.4780   82.2780   61.7120 N   0  0  0  0  0  0  0  0  0  0  0  0
   40.5710   82.7110   58.6030 H   0  0  0  0  0  0  0  0  0  0  0  0
   39.5750   84.9870   59.0220 H   0  0  0  0  0  0  0  0  0  0  0  0
   38.4630   83.7440   62.9100 H   0  0  0  0  0  0  0  0  0  0  0  0
   40.5940   80.6450   60.4120 C   0  0  0  0  0  2  0  0  0  0  0  0
   40.4430   79.8540   61.6840 C   0  0  0  0  0  2  0  0  0  0  0  0
   41.0360   78.9160   61.5400 H   0  0  0  0  0  0  0  0  0  0  0  0
  1  6  1  0  0  0  0
  2  3  1  0  0  0  0
  2  1  2  0  0  0  0
  3  4  2  0  0  0  0
  4  5  1  0  0  0  0
  5  9  1  0  0  0  0
  6  5  2  0  0  0  0
  7  2  1  0  0  0  0
  8  3  1  0  0  0  0
 10  1  1  0  0  0  0
 10 11  1  0  0  0  0
 12 11  1  0  0  0  0
M  END
>  <minimizedAffinity>
-3.61272383

>  <minimizedRMSD>
0.400532067

$$$$
