
 OpenBabel03212520513D

 29 31  0  0  1  0  0  0  0  0999 V2000
   41.8320   83.9150   61.5420 C   0  0  0  0  0  0  0  0  0  0  0  0
   41.0520   84.2670   62.6230 C   0  0  0  0  0  0  0  0  0  0  0  0
   40.5320   83.2970   63.4840 C   0  0  0  0  0  0  0  0  0  0  0  0
   40.7860   82.0120   63.2700 N   0  0  0  0  0  0  0  0  0  0  0  0
   41.5540   81.6860   62.2050 C   0  0  0  0  0  0  0  0  0  0  0  0
   42.0780   82.5900   61.3460 N   0  0  0  0  0  0  0  0  0  0  0  0
   40.8230   85.3050   62.8300 H   0  0  0  0  0  0  0  0  0  0  0  0
   39.9280   83.5720   64.3200 H   0  0  0  0  0  0  0  0  0  0  0  0
   43.8060   86.6860   60.1910 C   0  0  0  0  0  0  0  0  0  0  0  0
   43.3450   86.7310   58.8660 C   0  0  0  0  0  0  0  0  0  0  0  0
   42.3800   85.8410   58.4310 C   0  0  0  0  0  0  0  0  0  0  0  0
   41.9300   84.9480   59.3580 N   0  0  0  0  0  0  0  0  0  0  0  0
   42.3790   84.9120   60.6250 C   0  0  0  0  0  0  0  0  0  0  0  0
   43.3010   85.7640   61.0410 N   0  0  0  0  0  0  0  0  0  0  0  0
   44.7890   87.6520   60.4860 N   0  0  0  0  0  0  0  0  0  0  0  0
   43.6950   87.4390   58.1130 H   0  0  0  0  0  0  0  0  0  0  0  0
   41.9930   85.8340   57.4290 H   0  0  0  0  0  0  0  0  0  0  0  0
   44.5060   88.3450   61.2380 H   0  0  0  0  0  0  0  0  0  0  0  0
   45.6570   87.5240   59.9010 H   0  0  0  0  0  0  0  0  0  0  0  0
   41.7890   80.2160   61.9990 C   0  0  1  0  0  0  0  0  0  0  0  0
   40.7770   79.2390   62.3390 C   0  0  0  0  0  0  0  0  0  0  0  0
   40.9300   79.6140   60.9070 C   0  0  1  0  0  0  0  0  0  0  0  0
   42.8910   80.0230   61.9230 H   0  0  0  0  0  0  0  0  0  0  0  0
   39.9030   79.5980   62.9450 H   0  0  0  0  0  0  0  0  0  0  0  0
   41.1010   78.2330   62.7140 H   0  0  0  0  0  0  0  0  0  0  0  0
   41.4600   78.8280   60.3290 H   0  0  0  0  0  0  0  0  0  0  0  0
   39.9680   80.3940   60.1200 C   0  0  0  0  0  2  0  0  0  0  0  0
   40.2670   80.6650   58.6950 C   0  0  0  0  0  2  0  0  0  0  0  0
   41.3340   80.6250   58.4210 H   0  0  0  0  0  0  0  0  0  0  0  0
  1  2  1  0  0  0  0
  2  7  1  0  0  0  0
  2  3  2  0  0  0  0
  3  8  1  0  0  0  0
  4  3  1  0  0  0  0
  5  4  2  0  0  0  0
  6  1  2  0  0  0  0
  6  5  1  0  0  0  0
  9 15  1  0  0  0  0
  9 14  1  0  0  0  0
 10  9  2  0  0  0  0
 11 10  1  0  0  0  0
 11 12  2  0  0  0  0
 12 13  1  0  0  0  0
 13 14  2  0  0  0  0
 13  1  1  0  0  0  0
 15 18  1  0  0  0  0
 16 10  1  0  0  0  0
 17 11  1  0  0  0  0
 19 15  1  0  0  0  0
 20 23  1  1  0  0  0
 20  5  1  0  0  0  0
 20 21  1  0  0  0  0
 21 25  1  0  0  0  0
 21 24  1  0  0  0  0
 22 26  1  6  0  0  0
 22 20  1  0  0  0  0
 22 21  1  0  0  0  0
 27 22  1  0  0  0  0
 28 27  1  0  0  0  0
 29 28  1  0  0  0  0
M  END
>  <minimizedAffinity>
-4.696455

>  <minimizedRMSD>
0.602820694

$$$$
