
 OpenBabel03212519583D

 12 12  0  0  0  0  0  0  0  0999 V2000
   39.9010   83.6400   59.7950 C   0  0  0  0  0  0  0  0  0  0  0  0
   39.3540   84.2660   60.9280 C   0  0  0  0  0  0  0  0  0  0  0  0
   39.1280   83.4900   62.0650 C   0  0  0  0  0  0  0  0  0  0  0  0
   39.4520   82.1590   62.0170 N   0  0  0  0  0  0  0  0  0  0  0  0
   39.9760   81.5970   60.9070 C   0  0  0  0  0  0  0  0  0  0  0  0
   40.1970   82.3320   59.8080 N   0  0  0  0  0  0  0  0  0  0  0  0
   40.0900   84.2080   58.8940 H   0  0  0  0  0  0  0  0  0  0  0  0
   39.1400   85.3230   60.8450 H   0  0  0  0  0  0  0  0  0  0  0  0
   38.7120   83.9710   62.9270 H   0  0  0  0  0  0  0  0  0  0  0  0
   40.3100   80.1280   60.9170 C   0  0  0  0  0  0  0  0  0  0  0  0
   40.9000   79.7050   62.2340 C   0  0  0  0  0  0  0  0  0  0  0  0
   41.9730   79.3900   62.0820 H   0  0  0  0  0  0  0  0  0  0  0  0
  1  6  2  0  0  0  0
  1  2  1  0  0  0  0
  2  3  2  0  0  0  0
  3  9  1  0  0  0  0
  4  3  1  0  0  0  0
  5 10  1  0  0  0  0
  5  4  2  0  0  0  0
  6  5  1  0  0  0  0
  7  1  1  0  0  0  0
  8  2  1  0  0  0  0
 10 11  1  0  0  0  0
 12 11  1  0  0  0  0
M  END
>  <minimizedAffinity>
-3.33612514

>  <minimizedRMSD>
3.38406181

$$$$
