
 OpenBabel03212520513D

 29 31  0  0  1  0  0  0  0  0999 V2000
   41.7190   83.9120   61.3680 C   0  0  0  0  0  0  0  0  0  0  0  0
   40.9520   84.2840   62.4520 C   0  0  0  0  0  0  0  0  0  0  0  0
   40.4840   83.3350   63.3650 C   0  0  0  0  0  0  0  0  0  0  0  0
   40.7760   82.0510   63.1980 N   0  0  0  0  0  0  0  0  0  0  0  0
   41.5290   81.7050   62.1300 C   0  0  0  0  0  0  0  0  0  0  0  0
   42.0040   82.5880   61.2210 N   0  0  0  0  0  0  0  0  0  0  0  0
   40.6940   85.3220   62.6210 H   0  0  0  0  0  0  0  0  0  0  0  0
   39.8900   83.6250   64.2030 H   0  0  0  0  0  0  0  0  0  0  0  0
   43.7120   86.5440   59.7880 C   0  0  0  0  0  0  0  0  0  0  0  0
   43.0670   86.6690   58.5470 C   0  0  0  0  0  0  0  0  0  0  0  0
   41.9750   85.8780   58.2450 C   0  0  0  0  0  0  0  0  0  0  0  0
   41.5870   84.9990   59.2120 N   0  0  0  0  0  0  0  0  0  0  0  0
   42.2120   84.8860   60.3980 C   0  0  0  0  0  0  0  0  0  0  0  0
   43.2570   85.6430   60.6870 N   0  0  0  0  0  0  0  0  0  0  0  0
   44.8090   87.4140   59.9510 N   0  0  0  0  0  0  0  0  0  0  0  0
   43.3650   87.3680   57.7630 H   0  0  0  0  0  0  0  0  0  0  0  0
   41.4450   85.9350   57.3110 H   0  0  0  0  0  0  0  0  0  0  0  0
   44.7020   88.1050   60.7490 H   0  0  0  0  0  0  0  0  0  0  0  0
   45.5680   87.2300   59.2410 H   0  0  0  0  0  0  0  0  0  0  0  0
   41.8090   80.2360   61.9790 C   0  0  1  0  0  0  0  0  0  0  0  0
   40.8190   79.2430   62.3390 C   0  0  0  0  0  0  0  0  0  0  0  0
   40.9830   79.5720   60.8980 C   0  0  1  0  0  0  0  0  0  0  0  0
   42.9160   80.0710   61.9260 H   0  0  0  0  0  0  0  0  0  0  0  0
   39.9270   79.5990   62.9200 H   0  0  0  0  0  0  0  0  0  0  0  0
   41.1660   78.2610   62.7550 H   0  0  0  0  0  0  0  0  0  0  0  0
   41.5430   78.7820   60.3550 H   0  0  0  0  0  0  0  0  0  0  0  0
   40.0120   80.2960   60.0690 C   0  0  0  0  0  2  0  0  0  0  0  0
   40.2390   80.3730   58.6070 C   0  0  0  0  0  2  0  0  0  0  0  0
   41.2850   80.2470   58.2860 H   0  0  0  0  0  0  0  0  0  0  0  0
  1  2  1  0  0  0  0
  2  7  1  0  0  0  0
  2  3  2  0  0  0  0
  3  8  1  0  0  0  0
  4  3  1  0  0  0  0
  5  4  2  0  0  0  0
  6  1  2  0  0  0  0
  6  5  1  0  0  0  0
  9 15  1  0  0  0  0
  9 14  1  0  0  0  0
 10  9  2  0  0  0  0
 11 10  1  0  0  0  0
 11 12  2  0  0  0  0
 12 13  1  0  0  0  0
 13 14  2  0  0  0  0
 13  1  1  0  0  0  0
 15 18  1  0  0  0  0
 16 10  1  0  0  0  0
 17 11  1  0  0  0  0
 19 15  1  0  0  0  0
 20 23  1  1  0  0  0
 20  5  1  0  0  0  0
 20 21  1  0  0  0  0
 21 25  1  0  0  0  0
 21 24  1  0  0  0  0
 22 26  1  6  0  0  0
 22 20  1  0  0  0  0
 22 21  1  0  0  0  0
 27 22  1  0  0  0  0
 28 27  1  0  0  0  0
 29 28  1  0  0  0  0
M  END
>  <minimizedAffinity>
-4.74858952

>  <minimizedRMSD>
0.783441305

$$$$
