
 OpenBabel03212520513D

 29 31  0  0  1  0  0  0  0  0999 V2000
   41.2390   83.9100   60.9190 C   0  0  0  0  0  0  0  0  0  0  0  0
   39.9350   84.1800   61.2760 C   0  0  0  0  0  0  0  0  0  0  0  0
   39.1210   83.1940   61.8380 C   0  0  0  0  0  0  0  0  0  0  0  0
   39.5980   81.9710   62.0380 N   0  0  0  0  0  0  0  0  0  0  0  0
   40.8790   81.7250   61.6820 C   0  0  0  0  0  0  0  0  0  0  0  0
   41.7040   82.6480   61.1360 N   0  0  0  0  0  0  0  0  0  0  0  0
   39.5110   85.1660   61.1280 H   0  0  0  0  0  0  0  0  0  0  0  0
   38.1110   83.4060   62.1130 H   0  0  0  0  0  0  0  0  0  0  0  0
   43.8940   86.3890   60.4720 C   0  0  0  0  0  0  0  0  0  0  0  0
   43.6680   86.7980   59.1480 C   0  0  0  0  0  0  0  0  0  0  0  0
   42.6340   86.2480   58.4140 C   0  0  0  0  0  0  0  0  0  0  0  0
   41.8790   85.3100   59.0550 N   0  0  0  0  0  0  0  0  0  0  0  0
   42.1050   84.9240   60.3230 C   0  0  0  0  0  0  0  0  0  0  0  0
   43.0940   85.4500   61.0250 N   0  0  0  0  0  0  0  0  0  0  0  0
   44.9830   87.0350   61.0900 N   0  0  0  0  0  0  0  0  0  0  0  0
   44.2620   87.5480   58.6220 H   0  0  0  0  0  0  0  0  0  0  0  0
   42.4170   86.5260   57.3990 H   0  0  0  0  0  0  0  0  0  0  0  0
   44.7210   87.6100   61.9440 H   0  0  0  0  0  0  0  0  0  0  0  0
   45.8940   86.8390   60.5950 H   0  0  0  0  0  0  0  0  0  0  0  0
   41.3580   80.3190   61.9110 C   0  0  1  0  0  0  0  0  0  0  0  0
   40.4250   79.2210   62.0450 C   0  0  0  0  0  0  0  0  0  0  0  0
   41.1080   79.3970   60.7350 C   0  0  1  0  0  0  0  0  0  0  0  0
   42.4070   80.3420   62.3050 H   0  0  0  0  0  0  0  0  0  0  0  0
   39.3420   79.4840   62.1780 H   0  0  0  0  0  0  0  0  0  0  0  0
   40.6860   78.3700   62.7280 H   0  0  0  0  0  0  0  0  0  0  0  0
   41.9220   78.6560   60.5910 H   0  0  0  0  0  0  0  0  0  0  0  0
   40.4690   79.8380   59.4900 C   0  0  0  0  0  2  0  0  0  0  0  0
   40.0120   78.8150   58.5220 C   0  0  0  0  0  2  0  0  0  0  0  0
   40.5190   77.8400   58.5910 H   0  0  0  0  0  0  0  0  0  0  0  0
  1  6  2  0  0  0  0
  1  2  1  0  0  0  0
  2  3  2  0  0  0  0
  3  4  1  0  0  0  0
  3  8  1  0  0  0  0
  5 20  1  0  0  0  0
  5  4  2  0  0  0  0
  6  5  1  0  0  0  0
  7  2  1  0  0  0  0
  9 14  1  0  0  0  0
  9 15  1  0  0  0  0
 10  9  2  0  0  0  0
 11 12  2  0  0  0  0
 11 10  1  0  0  0  0
 12 13  1  0  0  0  0
 13  1  1  0  0  0  0
 13 14  2  0  0  0  0
 15 18  1  0  0  0  0
 16 10  1  0  0  0  0
 17 11  1  0  0  0  0
 19 15  1  0  0  0  0
 20 21  1  0  0  0  0
 20 23  1  1  0  0  0
 21 24  1  0  0  0  0
 21 25  1  0  0  0  0
 22 26  1  6  0  0  0
 22 20  1  0  0  0  0
 22 21  1  0  0  0  0
 27 22  1  0  0  0  0
 28 29  1  0  0  0  0
 28 27  1  0  0  0  0
M  END
>  <minimizedAffinity>
-4.8444252

>  <minimizedRMSD>
1.42602277

$$$$
