
 OpenBabel03212520433D

 12 12  0  0  0  0  0  0  0  0999 V2000
   39.9670   81.9660   60.8420 C   0  0  0  0  0  0  0  0  0  0  0  0
   40.1340   82.7740   59.7100 C   0  0  0  0  0  0  0  0  0  0  0  0
   39.6340   84.0850   59.7460 C   0  0  0  0  0  0  0  0  0  0  0  0
   39.0120   84.4960   60.8840 N   0  0  0  0  0  0  0  0  0  0  0  0
   38.8630   83.6930   61.9640 C   0  0  0  0  0  0  0  0  0  0  0  0
   39.3390   82.4370   61.9380 N   0  0  0  0  0  0  0  0  0  0  0  0
   40.6410   82.3300   58.8820 H   0  0  0  0  0  0  0  0  0  0  0  0
   39.7640   84.6930   58.8870 H   0  0  0  0  0  0  0  0  0  0  0  0
   38.3460   84.1200   62.8320 H   0  0  0  0  0  0  0  0  0  0  0  0
   40.4280   80.5680   60.9770 C   0  0  0  0  0  2  0  0  0  0  0  0
   40.4110   79.8180   59.6720 C   0  0  0  0  0  2  0  0  0  0  0  0
   40.6050   78.7450   59.9270 H   0  0  0  0  0  0  0  0  0  0  0  0
  1 10  1  0  0  0  0
  1  6  1  0  0  0  0
  2  3  1  0  0  0  0
  2  1  2  0  0  0  0
  3  4  2  0  0  0  0
  4  5  1  0  0  0  0
  5  9  1  0  0  0  0
  6  5  2  0  0  0  0
  7  2  1  0  0  0  0
  8  3  1  0  0  0  0
 11 12  1  0  0  0  0
 11 10  1  0  0  0  0
M  END
>  <minimizedAffinity>
-3.53339624

>  <minimizedRMSD>
0.16774112

$$$$
