
 OpenBabel03212520513D

 29 31  0  0  1  0  0  0  0  0999 V2000
   41.4890   83.8460   61.1920 C   0  0  0  0  0  0  0  0  0  0  0  0
   40.1600   84.1280   61.4310 C   0  0  0  0  0  0  0  0  0  0  0  0
   39.2760   83.1350   61.8570 C   0  0  0  0  0  0  0  0  0  0  0  0
   39.7080   81.8930   62.0400 N   0  0  0  0  0  0  0  0  0  0  0  0
   41.0130   81.6340   61.8020 C   0  0  0  0  0  0  0  0  0  0  0  0
   41.9060   82.5640   61.3880 N   0  0  0  0  0  0  0  0  0  0  0  0
   39.7720   85.1300   61.2930 H   0  0  0  0  0  0  0  0  0  0  0  0
   38.2480   83.3570   62.0410 H   0  0  0  0  0  0  0  0  0  0  0  0
   43.8830   86.6140   61.1910 C   0  0  0  0  0  0  0  0  0  0  0  0
   44.1600   86.7360   59.8200 C   0  0  0  0  0  0  0  0  0  0  0  0
   43.5490   85.8980   58.9060 C   0  0  0  0  0  0  0  0  0  0  0  0
   42.6870   84.9770   59.4230 N   0  0  0  0  0  0  0  0  0  0  0  0
   42.4280   84.8670   60.7380 C   0  0  0  0  0  0  0  0  0  0  0  0
   43.0130   85.6690   61.6120 N   0  0  0  0  0  0  0  0  0  0  0  0
   44.5820   87.5330   61.9980 N   0  0  0  0  0  0  0  0  0  0  0  0
   44.8470   87.4680   59.3910 H   0  0  0  0  0  0  0  0  0  0  0  0
   43.7260   85.9510   57.8470 H   0  0  0  0  0  0  0  0  0  0  0  0
   43.9570   88.1990   62.5410 H   0  0  0  0  0  0  0  0  0  0  0  0
   45.6270   87.4060   61.9290 H   0  0  0  0  0  0  0  0  0  0  0  0
   41.4410   80.2080   62.0030 C   0  0  1  0  0  0  0  0  0  0  0  0
   40.4720   79.1330   62.0450 C   0  0  0  0  0  0  0  0  0  0  0  0
   41.2330   79.3360   60.7820 C   0  0  1  0  0  0  0  0  0  0  0  0
   42.4660   80.1860   62.4560 H   0  0  0  0  0  0  0  0  0  0  0  0
   39.3910   79.4230   62.1260 H   0  0  0  0  0  0  0  0  0  0  0  0
   40.6720   78.2510   62.7080 H   0  0  0  0  0  0  0  0  0  0  0  0
   42.0340   78.5780   60.6560 H   0  0  0  0  0  0  0  0  0  0  0  0
   40.6780   79.8400   59.5210 C   0  0  0  0  0  2  0  0  0  0  0  0
   40.0480   78.8800   58.5840 C   0  0  0  0  0  2  0  0  0  0  0  0
   40.3790   77.8350   58.6890 H   0  0  0  0  0  0  0  0  0  0  0  0
  1  6  2  0  0  0  0
  1  2  1  0  0  0  0
  2  3  2  0  0  0  0
  3  4  1  0  0  0  0
  3  8  1  0  0  0  0
  5 20  1  0  0  0  0
  5  4  2  0  0  0  0
  6  5  1  0  0  0  0
  7  2  1  0  0  0  0
  9 14  1  0  0  0  0
  9 15  1  0  0  0  0
 10  9  2  0  0  0  0
 11 12  2  0  0  0  0
 11 10  1  0  0  0  0
 12 13  1  0  0  0  0
 13  1  1  0  0  0  0
 13 14  2  0  0  0  0
 15 18  1  0  0  0  0
 16 10  1  0  0  0  0
 17 11  1  0  0  0  0
 19 15  1  0  0  0  0
 20 21  1  0  0  0  0
 20 23  1  1  0  0  0
 21 24  1  0  0  0  0
 21 25  1  0  0  0  0
 22 26  1  6  0  0  0
 22 20  1  0  0  0  0
 22 21  1  0  0  0  0
 27 22  1  0  0  0  0
 28 29  1  0  0  0  0
 28 27  1  0  0  0  0
M  END
>  <minimizedAffinity>
-4.61078691

>  <minimizedRMSD>
1.6041199

$$$$
