
 OpenBabel03212520243D

 12 12  0  0  0  0  0  0  0  0999 V2000
   38.5530   74.3500   60.4270 C   0  0  0  0  0  0  0  0  0  0  0  0
   39.3500   75.4280   60.8350 C   0  0  0  0  0  0  0  0  0  0  0  0
   39.6080   76.4370   59.9060 C   0  0  0  0  0  0  0  0  0  0  0  0
   39.0760   76.3290   58.6500 N   0  0  0  0  0  0  0  0  0  0  0  0
   38.3110   75.2670   58.3020 C   0  0  0  0  0  0  0  0  0  0  0  0
   38.0500   74.2870   59.1780 N   0  0  0  0  0  0  0  0  0  0  0  0
   38.4100   73.6230   61.2120 H   0  0  0  0  0  0  0  0  0  0  0  0
   39.7820   75.5420   61.8150 H   0  0  0  0  0  0  0  0  0  0  0  0
   37.9080   75.2290   57.2780 H   0  0  0  0  0  0  0  0  0  0  0  0
   40.4520   77.6350   60.2490 C   0  0  0  0  0  2  0  0  0  0  0  0
   41.8650   77.4490   59.7130 C   0  0  0  0  0  2  0  0  0  0  0  0
   41.9240   78.0380   58.7690 H   0  0  0  0  0  0  0  0  0  0  0  0
  1  2  1  0  0  0  0
  1  7  1  0  0  0  0
  2  8  1  0  0  0  0
  3 10  1  0  0  0  0
  3  2  2  0  0  0  0
  4  3  1  0  0  0  0
  5  4  2  0  0  0  0
  5  6  1  0  0  0  0
  6  1  2  0  0  0  0
  9  5  1  0  0  0  0
 11 10  1  0  0  0  0
 12 11  1  0  0  0  0
M  END
>  <minimizedAffinity>
-3.08798862

$$$$

 OpenBabel03212520243D

 12 12  0  0  0  0  0  0  0  0999 V2000
   38.8360   76.9720   57.8740 C   0  0  0  0  0  0  0  0  0  0  0  0
   39.3500   76.6400   59.1340 C   0  0  0  0  0  0  0  0  0  0  0  0
   39.0020   75.4010   59.6750 C   0  0  0  0  0  0  0  0  0  0  0  0
   38.1820   74.5750   58.9570 N   0  0  0  0  0  0  0  0  0  0  0  0
   37.7090   74.9400   57.7410 C   0  0  0  0  0  0  0  0  0  0  0  0
   38.0310   76.1250   57.2030 N   0  0  0  0  0  0  0  0  0  0  0  0
   39.1600   77.9470   57.5400 H   0  0  0  0  0  0  0  0  0  0  0  0
   39.9980   77.2680   59.7240 H   0  0  0  0  0  0  0  0  0  0  0  0
   37.0520   74.2370   57.2060 H   0  0  0  0  0  0  0  0  0  0  0  0
   39.5040   74.9540   61.0220 C   0  0  0  0  0  2  0  0  0  0  0  0
   39.2590   73.4620   61.2020 C   0  0  0  0  0  2  0  0  0  0  0  0
   40.2290   72.9560   60.9930 H   0  0  0  0  0  0  0  0  0  0  0  0
  1  2  1  0  0  0  0
  2  3  2  0  0  0  0
  2  8  1  0  0  0  0
  3 10  1  0  0  0  0
  4  3  1  0  0  0  0
  5  4  2  0  0  0  0
  6  5  1  0  0  0  0
  6  1  2  0  0  0  0
  7  1  1  0  0  0  0
  9  5  1  0  0  0  0
 10 11  1  0  0  0  0
 12 11  1  0  0  0  0
M  END
>  <minimizedAffinity>
-3.06236672

$$$$

 OpenBabel03212520243D

 12 12  0  0  0  0  0  0  0  0999 V2000
   37.6830   74.8790   57.6630 C   0  0  0  0  0  0  0  0  0  0  0  0
   38.1540   74.4340   58.9050 C   0  0  0  0  0  0  0  0  0  0  0  0
   38.9570   75.3020   59.6480 C   0  0  0  0  0  0  0  0  0  0  0  0
   39.2450   76.5370   59.1340 N   0  0  0  0  0  0  0  0  0  0  0  0
   38.7660   76.9230   57.9260 C   0  0  0  0  0  0  0  0  0  0  0  0
   37.9930   76.1060   57.1970 N   0  0  0  0  0  0  0  0  0  0  0  0
   37.0730   74.1410   57.1650 H   0  0  0  0  0  0  0  0  0  0  0  0
   37.9460   73.4700   59.3380 H   0  0  0  0  0  0  0  0  0  0  0  0
   39.0290   77.9270   57.5600 H   0  0  0  0  0  0  0  0  0  0  0  0
   39.5110   74.9160   60.9930 C   0  0  0  0  0  2  0  0  0  0  0  0
   39.3160   73.4250   61.2290 C   0  0  0  0  0  2  0  0  0  0  0  0
   40.2950   72.9400   61.0080 H   0  0  0  0  0  0  0  0  0  0  0  0
  1  2  1  0  0  0  0
  2  8  1  0  0  0  0
  2  3  2  0  0  0  0
  3 10  1  0  0  0  0
  4  3  1  0  0  0  0
  5  4  2  0  0  0  0
  6  1  2  0  0  0  0
  6  5  1  0  0  0  0
  7  1  1  0  0  0  0
  9  5  1  0  0  0  0
 10 11  1  0  0  0  0
 12 11  1  0  0  0  0
M  END
>  <minimizedAffinity>
-3.05004668

$$$$

 OpenBabel03212520243D

 12 12  0  0  0  0  0  0  0  0999 V2000
   38.6640   76.1350   58.3500 C   0  0  0  0  0  0  0  0  0  0  0  0
   38.5150   74.9400   59.0650 C   0  0  0  0  0  0  0  0  0  0  0  0
   39.1100   74.8540   60.3250 C   0  0  0  0  0  0  0  0  0  0  0  0
   39.8070   75.9320   60.8000 N   0  0  0  0  0  0  0  0  0  0  0  0
   39.9230   77.0680   60.0710 C   0  0  0  0  0  0  0  0  0  0  0  0
   39.3590   77.1720   58.8590 N   0  0  0  0  0  0  0  0  0  0  0  0
   38.1700   76.1060   57.3900 H   0  0  0  0  0  0  0  0  0  0  0  0
   37.9740   74.0740   58.7190 H   0  0  0  0  0  0  0  0  0  0  0  0
   40.4940   77.9050   60.5000 H   0  0  0  0  0  0  0  0  0  0  0  0
   39.0070   73.6130   61.1690 C   0  0  0  0  0  2  0  0  0  0  0  0
   40.3980   73.1000   61.5170 C   0  0  0  0  0  2  0  0  0  0  0  0
   40.6090   73.4410   62.5560 H   0  0  0  0  0  0  0  0  0  0  0  0
  1  6  2  0  0  0  0
  1  2  1  0  0  0  0
  2  3  2  0  0  0  0
  3  4  1  0  0  0  0
  3 10  1  0  0  0  0
  5  9  1  0  0  0  0
  5  4  2  0  0  0  0
  6  5  1  0  0  0  0
  7  1  1  0  0  0  0
  8  2  1  0  0  0  0
 10 11  1  0  0  0  0
 11 12  1  0  0  0  0
M  END
>  <minimizedAffinity>
-2.97633219

$$$$

 OpenBabel03212520243D

 12 12  0  0  0  0  0  0  0  0999 V2000
   42.1880   75.3390   59.2180 C   0  0  0  0  0  0  0  0  0  0  0  0
   41.0070   74.9730   59.8770 C   0  0  0  0  0  0  0  0  0  0  0  0
   40.2150   75.9910   60.4110 C   0  0  0  0  0  0  0  0  0  0  0  0
   40.6240   77.2890   60.2680 N   0  0  0  0  0  0  0  0  0  0  0  0
   41.7760   77.5940   59.6220 C   0  0  0  0  0  0  0  0  0  0  0  0
   42.5510   76.6320   59.1020 N   0  0  0  0  0  0  0  0  0  0  0  0
   42.7320   74.4860   58.8410 H   0  0  0  0  0  0  0  0  0  0  0  0
   40.6580   73.9620   60.0060 H   0  0  0  0  0  0  0  0  0  0  0  0
   42.0580   78.6540   59.5370 H   0  0  0  0  0  0  0  0  0  0  0  0
   38.9290   75.6990   61.1360 C   0  0  0  0  0  2  0  0  0  0  0  0
   38.6540   74.2020   61.1280 C   0  0  0  0  0  2  0  0  0  0  0  0
   38.9670   73.8190   62.1260 H   0  0  0  0  0  0  0  0  0  0  0  0
  1  2  1  0  0  0  0
  2  8  1  0  0  0  0
  2  3  2  0  0  0  0
  3 10  1  0  0  0  0
  4  3  1  0  0  0  0
  5  4  2  0  0  0  0
  6  1  2  0  0  0  0
  6  5  1  0  0  0  0
  7  1  1  0  0  0  0
  9  5  1  0  0  0  0
 11 10  1  0  0  0  0
 11 12  1  0  0  0  0
M  END
>  <minimizedAffinity>
-2.91889739

$$$$

 OpenBabel03212520243D

 12 12  0  0  0  0  0  0  0  0999 V2000
   40.3810   73.2930   60.6770 C   0  0  0  0  0  0  0  0  0  0  0  0
   41.0560   74.4000   60.1450 C   0  0  0  0  0  0  0  0  0  0  0  0
   40.3990   75.6320   60.1580 C   0  0  0  0  0  0  0  0  0  0  0  0
   39.1380   75.7020   60.6840 N   0  0  0  0  0  0  0  0  0  0  0  0
   38.5260   74.6030   61.1870 C   0  0  0  0  0  0  0  0  0  0  0  0
   39.1380   73.4110   61.1850 N   0  0  0  0  0  0  0  0  0  0  0  0
   40.9670   72.3880   60.6230 H   0  0  0  0  0  0  0  0  0  0  0  0
   42.0470   74.3770   59.7250 H   0  0  0  0  0  0  0  0  0  0  0  0
   37.5110   74.7160   61.5980 H   0  0  0  0  0  0  0  0  0  0  0  0
   41.0410   76.8790   59.6110 C   0  0  0  0  0  2  0  0  0  0  0  0
   42.4720   76.5850   59.1830 C   0  0  0  0  0  2  0  0  0  0  0  0
   42.4500   76.4570   58.0760 H   0  0  0  0  0  0  0  0  0  0  0  0
  1  6  1  0  0  0  0
  2  3  1  0  0  0  0
  2  1  2  0  0  0  0
  3  4  2  0  0  0  0
  4  5  1  0  0  0  0
  5  9  1  0  0  0  0
  6  5  2  0  0  0  0
  7  1  1  0  0  0  0
  8  2  1  0  0  0  0
 10  3  1  0  0  0  0
 11 10  1  0  0  0  0
 12 11  1  0  0  0  0
M  END
>  <minimizedAffinity>
-2.90101624

$$$$

 OpenBabel03212520243D

 12 12  0  0  0  0  0  0  0  0999 V2000
   42.7320   73.2760   60.3050 C   0  0  0  0  0  0  0  0  0  0  0  0
   41.3970   73.6810   60.1810 C   0  0  0  0  0  0  0  0  0  0  0  0
   40.5300   73.4030   61.2400 C   0  0  0  0  0  0  0  0  0  0  0  0
   41.0190   72.7540   62.3400 N   0  0  0  0  0  0  0  0  0  0  0  0
   42.3200   72.3810   62.4130 C   0  0  0  0  0  0  0  0  0  0  0  0
   43.1690   72.6380   61.4090 N   0  0  0  0  0  0  0  0  0  0  0  0
   43.3230   73.5340   59.4390 H   0  0  0  0  0  0  0  0  0  0  0  0
   40.9810   74.1940   59.3300 H   0  0  0  0  0  0  0  0  0  0  0  0
   42.6610   71.8610   63.3220 H   0  0  0  0  0  0  0  0  0  0  0  0
   39.0780   73.7990   61.2020 C   0  0  0  0  0  2  0  0  0  0  0  0
   38.9510   75.3120   61.0970 C   0  0  0  0  0  2  0  0  0  0  0  0
   38.7430   75.5370   60.0250 H   0  0  0  0  0  0  0  0  0  0  0  0
  1  6  1  0  0  0  0
  2  1  2  0  0  0  0
  2  3  1  0  0  0  0
  3  4  2  0  0  0  0
  4  5  1  0  0  0  0
  5  9  1  0  0  0  0
  6  5  2  0  0  0  0
  7  1  1  0  0  0  0
  8  2  1  0  0  0  0
 10  3  1  0  0  0  0
 11 10  1  0  0  0  0
 12 11  1  0  0  0  0
M  END
>  <minimizedAffinity>
-2.89581418

$$$$

 OpenBabel03212520243D

 12 12  0  0  0  0  0  0  0  0999 V2000
   39.6360   76.0930   60.7920 C   0  0  0  0  0  0  0  0  0  0  0  0
   39.3840   76.5610   59.4960 C   0  0  0  0  0  0  0  0  0  0  0  0
   38.6170   75.7580   58.6500 C   0  0  0  0  0  0  0  0  0  0  0  0
   38.1510   74.5600   59.1200 N   0  0  0  0  0  0  0  0  0  0  0  0
   38.4220   74.1500   60.3830 C   0  0  0  0  0  0  0  0  0  0  0  0
   39.1560   74.9050   61.2120 N   0  0  0  0  0  0  0  0  0  0  0  0
   40.2350   76.7810   61.3700 H   0  0  0  0  0  0  0  0  0  0  0  0
   39.7350   77.4980   59.0960 H   0  0  0  0  0  0  0  0  0  0  0  0
   38.0230   73.1770   60.7100 H   0  0  0  0  0  0  0  0  0  0  0  0
   38.2920   76.1730   57.2410 C   0  0  0  0  0  2  0  0  0  0  0  0
   38.6880   77.6270   57.0200 C   0  0  0  0  0  2  0  0  0  0  0  0
   39.6640   77.6080   56.4820 H   0  0  0  0  0  0  0  0  0  0  0  0
  1  6  1  0  0  0  0
  1  7  1  0  0  0  0
  2  1  2  0  0  0  0
  3  4  2  0  0  0  0
  3  2  1  0  0  0  0
  4  5  1  0  0  0  0
  5  9  1  0  0  0  0
  5  6  2  0  0  0  0
  8  2  1  0  0  0  0
 10  3  1  0  0  0  0
 11 10  1  0  0  0  0
 12 11  1  0  0  0  0
M  END
>  <minimizedAffinity>
-2.85602474

$$$$

 OpenBabel03212520243D

 12 12  0  0  0  0  0  0  0  0999 V2000
   42.1760   69.1470   61.2820 C   0  0  0  0  0  0  0  0  0  0  0  0
   41.6420   67.8650   61.0920 C   0  0  0  0  0  0  0  0  0  0  0  0
   40.9890   67.2650   62.1700 C   0  0  0  0  0  0  0  0  0  0  0  0
   40.9000   67.9480   63.3520 N   0  0  0  0  0  0  0  0  0  0  0  0
   41.4320   69.1870   63.4870 C   0  0  0  0  0  0  0  0  0  0  0  0
   42.0630   69.7820   62.4650 N   0  0  0  0  0  0  0  0  0  0  0  0
   42.6600   69.5270   60.3950 H   0  0  0  0  0  0  0  0  0  0  0  0
   41.6950   67.3010   60.1760 H   0  0  0  0  0  0  0  0  0  0  0  0
   41.3320   69.6930   64.4600 H   0  0  0  0  0  0  0  0  0  0  0  0
   40.3830   65.8910   62.0660 C   0  0  0  0  0  2  0  0  0  0  0  0
   40.1270   65.3260   63.4560 C   0  0  0  0  0  2  0  0  0  0  0  0
   39.0420   65.4740   63.6610 H   0  0  0  0  0  0  0  0  0  0  0  0
  1  6  1  0  0  0  0
  2  1  2  0  0  0  0
  2  3  1  0  0  0  0
  3  4  2  0  0  0  0
  4  5  1  0  0  0  0
  5  9  1  0  0  0  0
  6  5  2  0  0  0  0
  7  1  1  0  0  0  0
  8  2  1  0  0  0  0
 10  3  1  0  0  0  0
 10 11  1  0  0  0  0
 11 12  1  0  0  0  0
M  END
>  <minimizedAffinity>
-2.84279299

$$$$
