
 OpenBabel03212520523D

 29 31  0  0  1  0  0  0  0  0999 V2000
   39.0550   76.7020   57.7070 C   0  0  0  0  0  0  0  0  0  0  0  0
   40.1570   77.5270   57.7860 C   0  0  0  0  0  0  0  0  0  0  0  0
   40.9040   77.6240   58.9620 C   0  0  0  0  0  0  0  0  0  0  0  0
   40.5600   76.9150   60.0300 N   0  0  0  0  0  0  0  0  0  0  0  0
   39.4760   76.1110   59.9340 C   0  0  0  0  0  0  0  0  0  0  0  0
   38.7230   75.9860   58.8170 N   0  0  0  0  0  0  0  0  0  0  0  0
   40.4690   78.1200   56.9340 H   0  0  0  0  0  0  0  0  0  0  0  0
   41.7570   78.2630   59.0200 H   0  0  0  0  0  0  0  0  0  0  0  0
   37.7450   75.5170   54.5020 C   0  0  0  0  0  0  0  0  0  0  0  0
   36.7280   76.4540   54.2580 C   0  0  0  0  0  0  0  0  0  0  0  0
   36.4860   77.4740   55.1590 C   0  0  0  0  0  0  0  0  0  0  0  0
   37.2840   77.4950   56.2650 N   0  0  0  0  0  0  0  0  0  0  0  0
   38.2550   76.5920   56.4910 C   0  0  0  0  0  0  0  0  0  0  0  0
   38.4860   75.6170   55.6280 N   0  0  0  0  0  0  0  0  0  0  0  0
   37.8710   74.5370   53.4970 N   0  0  0  0  0  0  0  0  0  0  0  0
   36.0820   76.4500   53.3770 H   0  0  0  0  0  0  0  0  0  0  0  0
   35.7220   78.2160   55.0190 H   0  0  0  0  0  0  0  0  0  0  0  0
   38.8110   74.5370   53.0050 H   0  0  0  0  0  0  0  0  0  0  0  0
   36.9950   73.9560   53.3990 H   0  0  0  0  0  0  0  0  0  0  0  0
   39.1190   75.3510   61.1810 C   0  0  1  0  0  0  0  0  0  0  0  0
   38.2280   74.2110   61.1350 C   0  0  0  0  0  0  0  0  0  0  0  0
   39.6900   73.9480   61.2170 C   0  0  1  0  0  0  0  0  0  0  0  0
   39.3240   75.9900   62.0790 H   0  0  0  0  0  0  0  0  0  0  0  0
   37.6580   74.0460   60.1820 H   0  0  0  0  0  0  0  0  0  0  0  0
   37.5520   74.0180   62.0090 H   0  0  0  0  0  0  0  0  0  0  0  0
   39.9970   73.6370   62.2370 H   0  0  0  0  0  0  0  0  0  0  0  0
   40.5200   73.3910   60.1430 C   0  0  0  0  0  2  0  0  0  0  0  0
   39.8910   72.4930   59.1470 C   0  0  0  0  0  2  0  0  0  0  0  0
   38.9730   71.9850   59.4840 H   0  0  0  0  0  0  0  0  0  0  0  0
  1  2  2  0  0  0  0
  1  6  1  0  0  0  0
  2  3  1  0  0  0  0
  3  8  1  0  0  0  0
  3  4  2  0  0  0  0
  5  4  1  0  0  0  0
  5 20  1  0  0  0  0
  6  5  2  0  0  0  0
  7  2  1  0  0  0  0
  9 14  1  0  0  0  0
 10  9  2  0  0  0  0
 10 11  1  0  0  0  0
 11 12  2  0  0  0  0
 12 13  1  0  0  0  0
 13  1  1  0  0  0  0
 14 13  2  0  0  0  0
 15  9  1  0  0  0  0
 16 10  1  0  0  0  0
 17 11  1  0  0  0  0
 18 15  1  0  0  0  0
 19 15  1  0  0  0  0
 20 22  1  0  0  0  0
 20 23  1  1  0  0  0
 21 20  1  0  0  0  0
 21 22  1  0  0  0  0
 21 25  1  0  0  0  0
 22 26  1  1  0  0  0
 24 21  1  0  0  0  0
 27 22  1  0  0  0  0
 28 29  1  0  0  0  0
 28 27  1  0  0  0  0
M  END
>  <minimizedAffinity>
-5.48106861

$$$$

 OpenBabel03212520523D

 29 31  0  0  1  0  0  0  0  0999 V2000
   40.2690   74.9410   59.7220 C   0  0  0  0  0  0  0  0  0  0  0  0
   40.4420   76.3050   59.8350 C   0  0  0  0  0  0  0  0  0  0  0  0
   39.6410   77.1960   59.1170 C   0  0  0  0  0  0  0  0  0  0  0  0
   38.6920   76.7360   58.3100 N   0  0  0  0  0  0  0  0  0  0  0  0
   38.5370   75.3960   58.2120 C   0  0  0  0  0  0  0  0  0  0  0  0
   39.2890   74.4970   58.8870 N   0  0  0  0  0  0  0  0  0  0  0  0
   41.2050   76.7160   60.4840 H   0  0  0  0  0  0  0  0  0  0  0  0
   39.7770   78.2510   59.2060 H   0  0  0  0  0  0  0  0  0  0  0  0
   41.3280   72.3090   62.0340 C   0  0  0  0  0  0  0  0  0  0  0  0
   42.7080   72.2580   61.7780 C   0  0  0  0  0  0  0  0  0  0  0  0
   43.2760   73.0990   60.8400 C   0  0  0  0  0  0  0  0  0  0  0  0
   42.4210   73.9510   60.2060 N   0  0  0  0  0  0  0  0  0  0  0  0
   41.1010   73.9920   60.4570 C   0  0  0  0  0  0  0  0  0  0  0  0
   40.5570   73.1870   61.3550 N   0  0  0  0  0  0  0  0  0  0  0  0
   40.8950   71.3910   63.0120 N   0  0  0  0  0  0  0  0  0  0  0  0
   43.4050   71.5830   62.2780 H   0  0  0  0  0  0  0  0  0  0  0  0
   44.3260   73.1010   60.6080 H   0  0  0  0  0  0  0  0  0  0  0  0
   40.4660   71.8420   63.8720 H   0  0  0  0  0  0  0  0  0  0  0  0
   41.0730   70.3920   62.7230 H   0  0  0  0  0  0  0  0  0  0  0  0
   37.4640   74.9330   57.2670 C   0  0  1  0  0  0  0  0  0  0  0  0
   36.9890   75.7840   56.1970 C   0  0  0  0  0  0  0  0  0  0  0  0
   37.9600   74.7100   55.8530 C   0  0  1  0  0  0  0  0  0  0  0  0
   36.9000   74.0840   57.7320 H   0  0  0  0  0  0  0  0  0  0  0  0
   37.2990   76.8630   56.2250 H   0  0  0  0  0  0  0  0  0  0  0  0
   35.9130   75.7150   55.8890 H   0  0  0  0  0  0  0  0  0  0  0  0
   37.4650   73.8490   55.3570 H   0  0  0  0  0  0  0  0  0  0  0  0
   39.3560   74.9160   55.4490 C   0  0  0  0  0  2  0  0  0  0  0  0
   39.6970   76.1110   54.6430 C   0  0  0  0  0  2  0  0  0  0  0  0
   38.8630   76.5430   54.0670 H   0  0  0  0  0  0  0  0  0  0  0  0
  1  2  1  0  0  0  0
  1 13  1  0  0  0  0
  2  7  1  0  0  0  0
  3  8  1  0  0  0  0
  3  2  2  0  0  0  0
  4  3  1  0  0  0  0
  5  4  2  0  0  0  0
  5  6  1  0  0  0  0
  6  1  2  0  0  0  0
  9 15  1  0  0  0  0
 10  9  1  0  0  0  0
 10 16  1  0  0  0  0
 11 10  2  0  0  0  0
 12 13  2  0  0  0  0
 12 11  1  0  0  0  0
 13 14  1  0  0  0  0
 14  9  2  0  0  0  0
 15 18  1  0  0  0  0
 17 11  1  0  0  0  0
 19 15  1  0  0  0  0
 20 23  1  1  0  0  0
 20  5  1  0  0  0  0
 21 24  1  0  0  0  0
 21 20  1  0  0  0  0
 22 26  1  6  0  0  0
 22 21  1  0  0  0  0
 22 20  1  0  0  0  0
 25 21  1  0  0  0  0
 27 22  1  0  0  0  0
 28 27  1  0  0  0  0
 29 28  1  0  0  0  0
M  END
>  <minimizedAffinity>
-5.02845287

$$$$

 OpenBabel03212520523D

 29 31  0  0  1  0  0  0  0  0999 V2000
   41.4440   74.1150   59.5570 C   0  0  0  0  0  0  0  0  0  0  0  0
   42.6880   74.4850   59.0880 C   0  0  0  0  0  0  0  0  0  0  0  0
   43.8550   74.0730   59.7350 C   0  0  0  0  0  0  0  0  0  0  0  0
   43.7820   73.3110   60.8190 N   0  0  0  0  0  0  0  0  0  0  0  0
   42.5550   72.9580   61.2640 C   0  0  0  0  0  0  0  0  0  0  0  0
   41.3980   73.3330   60.6710 N   0  0  0  0  0  0  0  0  0  0  0  0
   42.7860   75.1060   58.2060 H   0  0  0  0  0  0  0  0  0  0  0  0
   44.8160   74.3620   59.3700 H   0  0  0  0  0  0  0  0  0  0  0  0
   38.2660   74.0440   57.7440 C   0  0  0  0  0  0  0  0  0  0  0  0
   37.9410   75.4100   57.7060 C   0  0  0  0  0  0  0  0  0  0  0  0
   38.7820   76.3440   58.2810 C   0  0  0  0  0  0  0  0  0  0  0  0
   39.9090   75.8520   58.8690 N   0  0  0  0  0  0  0  0  0  0  0  0
   40.2110   74.5420   58.9010 C   0  0  0  0  0  0  0  0  0  0  0  0
   39.4070   73.6480   58.3500 N   0  0  0  0  0  0  0  0  0  0  0  0
   37.3140   73.2140   57.1190 N   0  0  0  0  0  0  0  0  0  0  0  0
   37.0440   75.8190   57.2390 H   0  0  0  0  0  0  0  0  0  0  0  0
   38.5810   77.4000   58.2780 H   0  0  0  0  0  0  0  0  0  0  0  0
   37.6900   72.6680   56.2900 H   0  0  0  0  0  0  0  0  0  0  0  0
   36.3700   73.2730   57.5860 H   0  0  0  0  0  0  0  0  0  0  0  0
   42.5330   72.1140   62.5080 C   0  0  1  0  0  0  0  0  0  0  0  0
   41.3840   71.2990   62.8410 C   0  0  0  0  0  0  0  0  0  0  0  0
   42.5620   70.6260   62.2290 C   0  0  1  0  0  0  0  0  0  0  0  0
   43.3000   72.4960   63.2300 H   0  0  0  0  0  0  0  0  0  0  0  0
   40.4440   71.4760   62.2530 H   0  0  0  0  0  0  0  0  0  0  0  0
   41.1240   71.1470   63.9210 H   0  0  0  0  0  0  0  0  0  0  0  0
   43.1510   70.0610   62.9810 H   0  0  0  0  0  0  0  0  0  0  0  0
   42.6180   70.0630   60.8750 C   0  0  0  0  0  2  0  0  0  0  0  0
   42.0430   68.7190   60.6370 C   0  0  0  0  0  2  0  0  0  0  0  0
   41.9770   68.0710   61.5250 H   0  0  0  0  0  0  0  0  0  0  0  0
  1  6  1  0  0  0  0
  2  1  2  0  0  0  0
  2  3  1  0  0  0  0
  3  4  2  0  0  0  0
  4  5  1  0  0  0  0
  5 20  1  0  0  0  0
  6  5  2  0  0  0  0
  7  2  1  0  0  0  0
  8  3  1  0  0  0  0
  9 14  1  0  0  0  0
 10  9  2  0  0  0  0
 10 11  1  0  0  0  0
 11 12  2  0  0  0  0
 12 13  1  0  0  0  0
 13  1  1  0  0  0  0
 14 13  2  0  0  0  0
 15 19  1  0  0  0  0
 15  9  1  0  0  0  0
 16 10  1  0  0  0  0
 17 11  1  0  0  0  0
 18 15  1  0  0  0  0
 20 21  1  0  0  0  0
 20 23  1  1  0  0  0
 21 25  1  0  0  0  0
 22 20  1  0  0  0  0
 22 21  1  0  0  0  0
 22 26  1  1  0  0  0
 24 21  1  0  0  0  0
 27 22  1  0  0  0  0
 28 27  1  0  0  0  0
 28 29  1  0  0  0  0
M  END
>  <minimizedAffinity>
-4.99622488

$$$$

 OpenBabel03212520523D

 29 31  0  0  1  0  0  0  0  0999 V2000
   39.2500   76.0710   57.8860 C   0  0  0  0  0  0  0  0  0  0  0  0
   39.2560   77.2660   58.5740 C   0  0  0  0  0  0  0  0  0  0  0  0
   39.9830   77.4150   59.7580 C   0  0  0  0  0  0  0  0  0  0  0  0
   40.6860   76.3960   60.2390 N   0  0  0  0  0  0  0  0  0  0  0  0
   40.6680   75.2320   59.5510 C   0  0  0  0  0  0  0  0  0  0  0  0
   39.9790   75.0430   58.4020 N   0  0  0  0  0  0  0  0  0  0  0  0
   38.6950   78.1190   58.2110 H   0  0  0  0  0  0  0  0  0  0  0  0
   39.9860   78.3410   60.2880 H   0  0  0  0  0  0  0  0  0  0  0  0
   38.2080   74.8800   54.5860 C   0  0  0  0  0  0  0  0  0  0  0  0
   37.0260   75.6130   54.3910 C   0  0  0  0  0  0  0  0  0  0  0  0
   36.5850   76.4980   55.3570 C   0  0  0  0  0  0  0  0  0  0  0  0
   37.3600   76.5980   56.4740 N   0  0  0  0  0  0  0  0  0  0  0  0
   38.4900   75.8920   56.6520 C   0  0  0  0  0  0  0  0  0  0  0  0
   38.9120   75.0450   55.7280 N   0  0  0  0  0  0  0  0  0  0  0  0
   38.5280   74.0180   53.5180 N   0  0  0  0  0  0  0  0  0  0  0  0
   36.3950   75.5440   53.5020 H   0  0  0  0  0  0  0  0  0  0  0  0
   35.6890   77.0830   55.2560 H   0  0  0  0  0  0  0  0  0  0  0  0
   39.4500   74.2390   53.0420 H   0  0  0  0  0  0  0  0  0  0  0  0
   37.7850   73.2840   53.3660 H   0  0  0  0  0  0  0  0  0  0  0  0
   41.4620   74.1080   60.1550 C   0  0  1  0  0  0  0  0  0  0  0  0
   42.0120   73.0510   59.3330 C   0  0  0  0  0  0  0  0  0  0  0  0
   42.9290   74.1350   59.7800 C   0  0  1  0  0  0  0  0  0  0  0  0
   41.2350   74.0380   61.2510 H   0  0  0  0  0  0  0  0  0  0  0  0
   41.6540   72.9920   58.2710 H   0  0  0  0  0  0  0  0  0  0  0  0
   42.0830   72.0170   59.7600 H   0  0  0  0  0  0  0  0  0  0  0  0
   43.5890   73.8010   60.6080 H   0  0  0  0  0  0  0  0  0  0  0  0
   43.5190   75.1650   58.9180 C   0  0  0  0  0  2  0  0  0  0  0  0
   44.1960   74.7480   57.6680 C   0  0  0  0  0  2  0  0  0  0  0  0
   44.5650   73.7100   57.6560 H   0  0  0  0  0  0  0  0  0  0  0  0
  1  6  2  0  0  0  0
  1  2  1  0  0  0  0
  2  3  2  0  0  0  0
  3  4  1  0  0  0  0
  3  8  1  0  0  0  0
  5 20  1  0  0  0  0
  5  4  2  0  0  0  0
  6  5  1  0  0  0  0
  7  2  1  0  0  0  0
  9 14  1  0  0  0  0
 10  9  2  0  0  0  0
 10 11  1  0  0  0  0
 11 12  2  0  0  0  0
 12 13  1  0  0  0  0
 13  1  1  0  0  0  0
 14 13  2  0  0  0  0
 15  9  1  0  0  0  0
 16 10  1  0  0  0  0
 17 11  1  0  0  0  0
 18 15  1  0  0  0  0
 19 15  1  0  0  0  0
 20 23  1  1  0  0  0
 21 25  1  0  0  0  0
 21 22  1  0  0  0  0
 21 20  1  0  0  0  0
 22 20  1  0  0  0  0
 22 26  1  1  0  0  0
 24 21  1  0  0  0  0
 27 22  1  0  0  0  0
 28 27  1  0  0  0  0
 29 28  1  0  0  0  0
M  END
>  <minimizedAffinity>
-4.96809387

$$$$

 OpenBabel03212520523D

 29 31  0  0  1  0  0  0  0  0999 V2000
   41.6530   72.1330   60.1640 C   0  0  0  0  0  0  0  0  0  0  0  0
   42.6610   72.0910   59.2240 C   0  0  0  0  0  0  0  0  0  0  0  0
   43.7850   71.2830   59.4060 C   0  0  0  0  0  0  0  0  0  0  0  0
   43.8980   70.5360   60.4980 N   0  0  0  0  0  0  0  0  0  0  0  0
   42.9000   70.5900   61.4080 C   0  0  0  0  0  0  0  0  0  0  0  0
   41.7940   71.3570   61.2750 N   0  0  0  0  0  0  0  0  0  0  0  0
   42.6030   72.6870   58.3200 H   0  0  0  0  0  0  0  0  0  0  0  0
   44.5640   71.2530   58.6760 H   0  0  0  0  0  0  0  0  0  0  0  0
   39.0820   74.6720   60.7510 C   0  0  0  0  0  0  0  0  0  0  0  0
   38.2700   74.5070   59.6180 C   0  0  0  0  0  0  0  0  0  0  0  0
   38.5820   73.5530   58.6670 C   0  0  0  0  0  0  0  0  0  0  0  0
   39.7010   72.8120   58.9090 N   0  0  0  0  0  0  0  0  0  0  0  0
   40.4730   72.9780   59.9970 C   0  0  0  0  0  0  0  0  0  0  0  0
   40.1750   73.8900   60.9070 N   0  0  0  0  0  0  0  0  0  0  0  0
   38.6400   75.6830   61.6280 N   0  0  0  0  0  0  0  0  0  0  0  0
   37.3710   75.0910   59.4100 H   0  0  0  0  0  0  0  0  0  0  0  0
   37.9940   73.3860   57.7830 H   0  0  0  0  0  0  0  0  0  0  0  0
   38.3850   75.3360   62.5980 H   0  0  0  0  0  0  0  0  0  0  0  0
   38.6350   76.6320   61.1670 H   0  0  0  0  0  0  0  0  0  0  0  0
   43.0920   69.7420   62.6340 C   0  0  1  0  0  0  0  0  0  0  0  0
   41.9770   69.3920   63.4870 C   0  0  0  0  0  0  0  0  0  0  0  0
   42.4650   68.3680   62.5230 C   0  0  1  0  0  0  0  0  0  0  0  0
   44.1710   69.7680   62.9400 H   0  0  0  0  0  0  0  0  0  0  0  0
   41.0120   69.9390   63.3170 H   0  0  0  0  0  0  0  0  0  0  0  0
   42.1530   69.2830   64.5900 H   0  0  0  0  0  0  0  0  0  0  0  0
   43.0650   67.5810   63.0260 H   0  0  0  0  0  0  0  0  0  0  0  0
   41.7470   67.9070   61.3300 C   0  0  0  0  0  2  0  0  0  0  0  0
   40.7880   66.7860   61.4620 C   0  0  0  0  0  2  0  0  0  0  0  0
   40.9590   66.1190   62.3220 H   0  0  0  0  0  0  0  0  0  0  0  0
  1  6  1  0  0  0  0
  2  3  1  0  0  0  0
  2  1  2  0  0  0  0
  3  4  2  0  0  0  0
  4  5  1  0  0  0  0
  5 20  1  0  0  0  0
  6  5  2  0  0  0  0
  7  2  1  0  0  0  0
  8  3  1  0  0  0  0
  9 14  1  0  0  0  0
  9 15  1  0  0  0  0
 10  9  2  0  0  0  0
 11 12  2  0  0  0  0
 11 10  1  0  0  0  0
 12 13  1  0  0  0  0
 13  1  1  0  0  0  0
 13 14  2  0  0  0  0
 15 18  1  0  0  0  0
 16 10  1  0  0  0  0
 17 11  1  0  0  0  0
 19 15  1  0  0  0  0
 20 23  1  1  0  0  0
 20 21  1  0  0  0  0
 21 25  1  0  0  0  0
 22 20  1  0  0  0  0
 22 26  1  1  0  0  0
 22 21  1  0  0  0  0
 24 21  1  0  0  0  0
 27 28  1  0  0  0  0
 27 22  1  0  0  0  0
 28 29  1  0  0  0  0
M  END
>  <minimizedAffinity>
-4.96784067

$$$$

 OpenBabel03212520523D

 29 31  0  0  1  0  0  0  0  0999 V2000
   40.5640   73.3430   61.1110 C   0  0  0  0  0  0  0  0  0  0  0  0
   39.1920   73.3980   61.2450 C   0  0  0  0  0  0  0  0  0  0  0  0
   38.4690   74.5150   60.8200 C   0  0  0  0  0  0  0  0  0  0  0  0
   39.0990   75.5490   60.2770 N   0  0  0  0  0  0  0  0  0  0  0  0
   40.4440   75.4780   60.1530 C   0  0  0  0  0  0  0  0  0  0  0  0
   41.1850   74.4170   60.5490 N   0  0  0  0  0  0  0  0  0  0  0  0
   38.6440   72.5730   61.6830 H   0  0  0  0  0  0  0  0  0  0  0  0
   37.4070   74.5540   60.9260 H   0  0  0  0  0  0  0  0  0  0  0  0
   42.9430   70.5630   61.1590 C   0  0  0  0  0  0  0  0  0  0  0  0
   42.7420   70.0520   62.4510 C   0  0  0  0  0  0  0  0  0  0  0  0
   41.8160   70.6340   63.2960 C   0  0  0  0  0  0  0  0  0  0  0  0
   41.1400   71.7060   62.7940 N   0  0  0  0  0  0  0  0  0  0  0  0
   41.3400   72.1890   61.5550 C   0  0  0  0  0  0  0  0  0  0  0  0
   42.2250   71.6310   60.7460 N   0  0  0  0  0  0  0  0  0  0  0  0
   43.9190   69.8680   60.4160 N   0  0  0  0  0  0  0  0  0  0  0  0
   43.2750   69.1950   62.8670 H   0  0  0  0  0  0  0  0  0  0  0  0
   41.6230   70.2810   64.2930 H   0  0  0  0  0  0  0  0  0  0  0  0
   43.5490   69.4120   59.5310 H   0  0  0  0  0  0  0  0  0  0  0  0
   44.8700   69.9160   60.8690 H   0  0  0  0  0  0  0  0  0  0  0  0
   41.1060   76.6850   59.5520 C   0  0  1  0  0  0  0  0  0  0  0  0
   42.4700   76.6320   59.0700 C   0  0  0  0  0  0  0  0  0  0  0  0
   41.3740   76.5520   58.0670 C   0  0  1  0  0  0  0  0  0  0  0  0
   40.5580   77.6090   59.8730 H   0  0  0  0  0  0  0  0  0  0  0  0
   43.0740   75.7270   59.3470 H   0  0  0  0  0  0  0  0  0  0  0  0
   43.1110   77.5480   59.1590 H   0  0  0  0  0  0  0  0  0  0  0  0
   41.2440   77.5090   57.5210 H   0  0  0  0  0  0  0  0  0  0  0  0
   41.0110   75.3610   57.2900 C   0  0  0  0  0  2  0  0  0  0  0  0
   42.0910   74.5470   56.6860 C   0  0  0  0  0  2  0  0  0  0  0  0
   43.0410   75.0780   56.5120 H   0  0  0  0  0  0  0  0  0  0  0  0
  1  2  1  0  0  0  0
  1 13  1  0  0  0  0
  2  7  1  0  0  0  0
  3  8  1  0  0  0  0
  3  2  2  0  0  0  0
  4  3  1  0  0  0  0
  5  4  2  0  0  0  0
  5  6  1  0  0  0  0
  6  1  2  0  0  0  0
  9 10  1  0  0  0  0
 10 16  1  0  0  0  0
 10 11  2  0  0  0  0
 11 17  1  0  0  0  0
 12 11  1  0  0  0  0
 13 12  2  0  0  0  0
 14  9  2  0  0  0  0
 14 13  1  0  0  0  0
 15 19  1  0  0  0  0
 15  9  1  0  0  0  0
 18 15  1  0  0  0  0
 20 23  1  1  0  0  0
 20  5  1  0  0  0  0
 21 25  1  0  0  0  0
 21 24  1  0  0  0  0
 21 20  1  0  0  0  0
 22 26  1  6  0  0  0
 22 21  1  0  0  0  0
 22 20  1  0  0  0  0
 27 22  1  0  0  0  0
 28 27  1  0  0  0  0
 29 28  1  0  0  0  0
M  END
>  <minimizedAffinity>
-4.95584106

$$$$

 OpenBabel03212520523D

 29 31  0  0  1  0  0  0  0  0999 V2000
   41.7890   71.9390   61.4660 C   0  0  0  0  0  0  0  0  0  0  0  0
   41.5050   71.5050   62.7430 C   0  0  0  0  0  0  0  0  0  0  0  0
   42.0760   70.3360   63.2530 C   0  0  0  0  0  0  0  0  0  0  0  0
   42.9080   69.6210   62.5060 N   0  0  0  0  0  0  0  0  0  0  0  0
   43.1750   70.0620   61.2550 C   0  0  0  0  0  0  0  0  0  0  0  0
   42.6470   71.1870   60.7210 N   0  0  0  0  0  0  0  0  0  0  0  0
   40.8300   72.0620   63.3820 H   0  0  0  0  0  0  0  0  0  0  0  0
   41.8540   70.0030   64.2420 H   0  0  0  0  0  0  0  0  0  0  0  0
   39.6240   74.8530   61.0000 C   0  0  0  0  0  0  0  0  0  0  0  0
   40.1540   75.4030   59.8220 C   0  0  0  0  0  0  0  0  0  0  0  0
   41.2270   74.8010   59.1900 C   0  0  0  0  0  0  0  0  0  0  0  0
   41.7110   73.6720   59.7810 N   0  0  0  0  0  0  0  0  0  0  0  0
   41.1970   73.1530   60.9110 C   0  0  0  0  0  0  0  0  0  0  0  0
   40.1710   73.7290   61.5140 N   0  0  0  0  0  0  0  0  0  0  0  0
   38.5370   75.5770   61.5280 N   0  0  0  0  0  0  0  0  0  0  0  0
   39.7770   76.3050   59.3360 H   0  0  0  0  0  0  0  0  0  0  0  0
   41.6680   75.1800   58.2870 H   0  0  0  0  0  0  0  0  0  0  0  0
   37.6290   75.0280   61.5730 H   0  0  0  0  0  0  0  0  0  0  0  0
   38.8090   76.5600   61.7970 H   0  0  0  0  0  0  0  0  0  0  0  0
   44.1060   69.2020   60.4480 C   0  0  1  0  0  0  0  0  0  0  0  0
   44.3200   67.8100   60.7820 C   0  0  0  0  0  0  0  0  0  0  0  0
   43.3970   68.1220   59.6580 C   0  0  1  0  0  0  0  0  0  0  0  0
   44.8090   69.8550   59.8690 H   0  0  0  0  0  0  0  0  0  0  0  0
   43.9320   67.4570   61.7740 H   0  0  0  0  0  0  0  0  0  0  0  0
   45.3300   67.3590   60.5960 H   0  0  0  0  0  0  0  0  0  0  0  0
   43.8690   67.9330   58.6710 H   0  0  0  0  0  0  0  0  0  0  0  0
   41.9400   67.9410   59.6710 C   0  0  0  0  0  2  0  0  0  0  0  0
   41.2100   67.9320   58.3830 C   0  0  0  0  0  2  0  0  0  0  0  0
   41.7160   68.4490   57.5510 H   0  0  0  0  0  0  0  0  0  0  0  0
  1  2  1  0  0  0  0
  2  3  2  0  0  0  0
  2  7  1  0  0  0  0
  3  8  1  0  0  0  0
  4  3  1  0  0  0  0
  5  4  2  0  0  0  0
  6  5  1  0  0  0  0
  6  1  2  0  0  0  0
  9 14  1  0  0  0  0
  9 15  1  0  0  0  0
 10  9  2  0  0  0  0
 11 12  2  0  0  0  0
 11 10  1  0  0  0  0
 12 13  1  0  0  0  0
 13  1  1  0  0  0  0
 13 14  2  0  0  0  0
 15 18  1  0  0  0  0
 15 19  1  0  0  0  0
 16 10  1  0  0  0  0
 17 11  1  0  0  0  0
 20 23  1  6  0  0  0
 20 21  1  0  0  0  0
 20  5  1  0  0  0  0
 21 24  1  0  0  0  0
 22 26  1  6  0  0  0
 22 27  1  0  0  0  0
 22 20  1  0  0  0  0
 22 21  1  0  0  0  0
 25 21  1  0  0  0  0
 28 27  1  0  0  0  0
 29 28  1  0  0  0  0
M  END
>  <minimizedAffinity>
-4.92918682

$$$$

 OpenBabel03212520523D

 29 31  0  0  1  0  0  0  0  0999 V2000
   40.8500   71.9960   60.4670 C   0  0  0  0  0  0  0  0  0  0  0  0
   40.9340   72.5790   61.7140 C   0  0  0  0  0  0  0  0  0  0  0  0
   41.8490   72.1220   62.6660 C   0  0  0  0  0  0  0  0  0  0  0  0
   42.6580   71.1100   62.3780 N   0  0  0  0  0  0  0  0  0  0  0  0
   42.5620   70.5510   61.1500 C   0  0  0  0  0  0  0  0  0  0  0  0
   41.6930   70.9600   60.1980 N   0  0  0  0  0  0  0  0  0  0  0  0
   40.2900   73.4080   61.9850 H   0  0  0  0  0  0  0  0  0  0  0  0
   41.9110   72.5760   63.6300 H   0  0  0  0  0  0  0  0  0  0  0  0
   38.8440   72.1910   57.4130 C   0  0  0  0  0  0  0  0  0  0  0  0
   38.1050   73.3620   57.6440 C   0  0  0  0  0  0  0  0  0  0  0  0
   38.2800   74.0790   58.8130 C   0  0  0  0  0  0  0  0  0  0  0  0
   39.1930   73.5760   59.6920 N   0  0  0  0  0  0  0  0  0  0  0  0
   39.8950   72.4530   59.4610 C   0  0  0  0  0  0  0  0  0  0  0  0
   39.7280   71.7670   58.3430 N   0  0  0  0  0  0  0  0  0  0  0  0
   38.5560   71.5690   56.1810 N   0  0  0  0  0  0  0  0  0  0  0  0
   37.3710   73.7780   56.9510 H   0  0  0  0  0  0  0  0  0  0  0  0
   37.7410   74.9820   59.0380 H   0  0  0  0  0  0  0  0  0  0  0  0
   39.3850   71.5090   55.5200 H   0  0  0  0  0  0  0  0  0  0  0  0
   37.5490   71.2620   56.1190 H   0  0  0  0  0  0  0  0  0  0  0  0
   43.4870   69.3950   60.8890 C   0  0  1  0  0  0  0  0  0  0  0  0
   43.9830   68.5710   61.9700 C   0  0  0  0  0  0  0  0  0  0  0  0
   42.8560   68.0450   61.1540 C   0  0  1  0  0  0  0  0  0  0  0  0
   43.9710   69.5250   59.8860 H   0  0  0  0  0  0  0  0  0  0  0  0
   43.8190   68.9470   63.0150 H   0  0  0  0  0  0  0  0  0  0  0  0
   45.0130   68.1350   61.8890 H   0  0  0  0  0  0  0  0  0  0  0  0
   43.1930   67.2660   60.4380 H   0  0  0  0  0  0  0  0  0  0  0  0
   41.4710   67.8810   61.6120 C   0  0  0  0  0  2  0  0  0  0  0  0
   40.8420   66.5430   61.5180 C   0  0  0  0  0  2  0  0  0  0  0  0
   41.2810   65.8680   60.7660 H   0  0  0  0  0  0  0  0  0  0  0  0
  1  2  1  0  0  0  0
  2  7  1  0  0  0  0
  2  3  2  0  0  0  0
  3  8  1  0  0  0  0
  4  3  1  0  0  0  0
  5  4  2  0  0  0  0
  6  1  2  0  0  0  0
  6  5  1  0  0  0  0
  9 10  2  0  0  0  0
  9 14  1  0  0  0  0
 10 11  1  0  0  0  0
 11 17  1  0  0  0  0
 11 12  2  0  0  0  0
 13 12  1  0  0  0  0
 13  1  1  0  0  0  0
 14 13  2  0  0  0  0
 15  9  1  0  0  0  0
 16 10  1  0  0  0  0
 18 15  1  0  0  0  0
 19 15  1  0  0  0  0
 20 23  1  6  0  0  0
 20  5  1  0  0  0  0
 20 22  1  0  0  0  0
 20 21  1  0  0  0  0
 21 24  1  0  0  0  0
 22 26  1  6  0  0  0
 22 27  1  0  0  0  0
 22 21  1  0  0  0  0
 25 21  1  0  0  0  0
 28 27  1  0  0  0  0
 29 28  1  0  0  0  0
M  END
>  <minimizedAffinity>
-4.80188751

$$$$

 OpenBabel03212520523D

 29 31  0  0  1  0  0  0  0  0999 V2000
   39.0300   74.4770   58.7210 C   0  0  0  0  0  0  0  0  0  0  0  0
   38.2350   74.3480   59.8400 C   0  0  0  0  0  0  0  0  0  0  0  0
   38.7790   73.9910   61.0760 C   0  0  0  0  0  0  0  0  0  0  0  0
   40.0830   73.7700   61.1900 N   0  0  0  0  0  0  0  0  0  0  0  0
   40.8480   73.9010   60.0820 C   0  0  0  0  0  0  0  0  0  0  0  0
   40.3650   74.2440   58.8660 N   0  0  0  0  0  0  0  0  0  0  0  0
   37.1670   74.5210   59.7850 H   0  0  0  0  0  0  0  0  0  0  0  0
   38.1610   73.8920   61.9400 H   0  0  0  0  0  0  0  0  0  0  0  0
   38.3310   74.5110   55.1290 C   0  0  0  0  0  0  0  0  0  0  0  0
   37.4170   75.5730   55.0370 C   0  0  0  0  0  0  0  0  0  0  0  0
   37.0410   76.2700   56.1700 C   0  0  0  0  0  0  0  0  0  0  0  0
   37.6070   75.8590   57.3400 N   0  0  0  0  0  0  0  0  0  0  0  0
   38.4810   74.8400   57.4180 C   0  0  0  0  0  0  0  0  0  0  0  0
   38.8410   74.1730   56.3340 N   0  0  0  0  0  0  0  0  0  0  0  0
   38.6160   73.8950   53.8930 N   0  0  0  0  0  0  0  0  0  0  0  0
   36.9560   75.9140   54.1080 H   0  0  0  0  0  0  0  0  0  0  0  0
   36.3470   77.0910   56.1540 H   0  0  0  0  0  0  0  0  0  0  0  0
   39.6340   73.9590   53.5990 H   0  0  0  0  0  0  0  0  0  0  0  0
   37.7560   73.4660   53.4580 H   0  0  0  0  0  0  0  0  0  0  0  0
   42.3120   73.6160   60.2660 C   0  0  1  0  0  0  0  0  0  0  0  0
   42.7880   72.8190   61.3760 C   0  0  0  0  0  0  0  0  0  0  0  0
   42.6770   72.1630   60.0450 C   0  0  1  0  0  0  0  0  0  0  0  0
   42.9120   74.3690   59.6910 H   0  0  0  0  0  0  0  0  0  0  0  0
   42.0550   72.5980   62.1970 H   0  0  0  0  0  0  0  0  0  0  0  0
   43.7880   73.0600   61.8240 H   0  0  0  0  0  0  0  0  0  0  0  0
   43.6690   72.0400   59.5620 H   0  0  0  0  0  0  0  0  0  0  0  0
   41.6970   71.1350   59.6770 C   0  0  0  0  0  2  0  0  0  0  0  0
   41.9920   70.2450   58.5300 C   0  0  0  0  0  2  0  0  0  0  0  0
   42.7050   70.6480   57.7930 H   0  0  0  0  0  0  0  0  0  0  0  0
  1  6  2  0  0  0  0
  1  2  1  0  0  0  0
  2  3  2  0  0  0  0
  3  4  1  0  0  0  0
  3  8  1  0  0  0  0
  5 20  1  0  0  0  0
  5  4  2  0  0  0  0
  6  5  1  0  0  0  0
  7  2  1  0  0  0  0
  9 14  1  0  0  0  0
 10  9  2  0  0  0  0
 10 11  1  0  0  0  0
 11 12  2  0  0  0  0
 12 13  1  0  0  0  0
 13  1  1  0  0  0  0
 14 13  2  0  0  0  0
 15  9  1  0  0  0  0
 16 10  1  0  0  0  0
 17 11  1  0  0  0  0
 18 15  1  0  0  0  0
 19 15  1  0  0  0  0
 20 23  1  6  0  0  0
 20 21  1  0  0  0  0
 21 25  1  0  0  0  0
 21 24  1  0  0  0  0
 22 26  1  6  0  0  0
 22 20  1  0  0  0  0
 22 21  1  0  0  0  0
 27 22  1  0  0  0  0
 28 27  1  0  0  0  0
 29 28  1  0  0  0  0
M  END
>  <minimizedAffinity>
-4.69353533

$$$$
