
 OpenBabel03212520513D

 29 31  0  0  1  0  0  0  0  0999 V2000
   41.1770   83.9290   60.8410 C   0  0  0  0  0  0  0  0  0  0  0  0
   39.8860   84.1980   61.2420 C   0  0  0  0  0  0  0  0  0  0  0  0
   39.1020   83.2180   61.8570 C   0  0  0  0  0  0  0  0  0  0  0  0
   39.5960   82.0040   62.0660 N   0  0  0  0  0  0  0  0  0  0  0  0
   40.8650   81.7590   61.6660 C   0  0  0  0  0  0  0  0  0  0  0  0
   41.6600   82.6750   61.0670 N   0  0  0  0  0  0  0  0  0  0  0  0
   39.4480   85.1770   61.0880 H   0  0  0  0  0  0  0  0  0  0  0  0
   38.1020   83.4290   62.1650 H   0  0  0  0  0  0  0  0  0  0  0  0
   43.8330   86.3680   60.2110 C   0  0  0  0  0  0  0  0  0  0  0  0
   43.5090   86.7970   58.9140 C   0  0  0  0  0  0  0  0  0  0  0  0
   42.4110   86.2730   58.2580 C   0  0  0  0  0  0  0  0  0  0  0  0
   41.6930   85.3400   58.9460 N   0  0  0  0  0  0  0  0  0  0  0  0
   42.0110   84.9350   60.1890 C   0  0  0  0  0  0  0  0  0  0  0  0
   43.0610   85.4370   60.8160 N   0  0  0  0  0  0  0  0  0  0  0  0
   44.9780   86.9890   60.7480 N   0  0  0  0  0  0  0  0  0  0  0  0
   44.0730   87.5420   58.3500 H   0  0  0  0  0  0  0  0  0  0  0  0
   42.1200   86.5670   57.2660 H   0  0  0  0  0  0  0  0  0  0  0  0
   44.7940   87.5570   61.6260 H   0  0  0  0  0  0  0  0  0  0  0  0
   45.8430   86.7820   60.1800 H   0  0  0  0  0  0  0  0  0  0  0  0
   41.3630   80.3620   61.9070 C   0  0  1  0  0  0  0  0  0  0  0  0
   40.4450   79.2550   62.0690 C   0  0  0  0  0  0  0  0  0  0  0  0
   41.1090   79.4210   60.7480 C   0  0  1  0  0  0  0  0  0  0  0  0
   42.4180   80.4030   62.2870 H   0  0  0  0  0  0  0  0  0  0  0  0
   39.3610   79.5080   62.2130 H   0  0  0  0  0  0  0  0  0  0  0  0
   40.7260   78.4170   62.7600 H   0  0  0  0  0  0  0  0  0  0  0  0
   41.9290   78.6880   60.6030 H   0  0  0  0  0  0  0  0  0  0  0  0
   40.4480   79.8380   59.5050 C   0  0  0  0  0  2  0  0  0  0  0  0
   40.0150   78.7970   58.5440 C   0  0  0  0  0  2  0  0  0  0  0  0
   40.5550   77.8380   58.6130 H   0  0  0  0  0  0  0  0  0  0  0  0
  1  6  2  0  0  0  0
  1  2  1  0  0  0  0
  2  3  2  0  0  0  0
  3  4  1  0  0  0  0
  3  8  1  0  0  0  0
  5 20  1  0  0  0  0
  5  4  2  0  0  0  0
  6  5  1  0  0  0  0
  7  2  1  0  0  0  0
  9 15  1  0  0  0  0
  9 14  1  0  0  0  0
 10  9  2  0  0  0  0
 11 10  1  0  0  0  0
 11 12  2  0  0  0  0
 12 13  1  0  0  0  0
 13 14  2  0  0  0  0
 13  1  1  0  0  0  0
 15 18  1  0  0  0  0
 16 10  1  0  0  0  0
 17 11  1  0  0  0  0
 19 15  1  0  0  0  0
 20 21  1  0  0  0  0
 20 23  1  1  0  0  0
 21 24  1  0  0  0  0
 21 25  1  0  0  0  0
 22 26  1  6  0  0  0
 22 20  1  0  0  0  0
 22 21  1  0  0  0  0
 27 22  1  0  0  0  0
 28 29  1  0  0  0  0
 28 27  1  0  0  0  0
M  END
>  <minimizedAffinity>
-4.84427261

>  <minimizedRMSD>
1.38597143

$$$$
