
 OpenBabel03212520433D

 12 12  0  0  0  0  0  0  0  0999 V2000
   39.9650   81.9660   60.8430 C   0  0  0  0  0  0  0  0  0  0  0  0
   40.1330   82.7750   59.7110 C   0  0  0  0  0  0  0  0  0  0  0  0
   39.6330   84.0860   59.7470 C   0  0  0  0  0  0  0  0  0  0  0  0
   39.0110   84.4980   60.8840 N   0  0  0  0  0  0  0  0  0  0  0  0
   38.8610   83.6950   61.9650 C   0  0  0  0  0  0  0  0  0  0  0  0
   39.3370   82.4390   61.9390 N   0  0  0  0  0  0  0  0  0  0  0  0
   40.6400   82.3300   58.8840 H   0  0  0  0  0  0  0  0  0  0  0  0
   39.7640   84.6930   58.8870 H   0  0  0  0  0  0  0  0  0  0  0  0
   38.3450   84.1230   62.8320 H   0  0  0  0  0  0  0  0  0  0  0  0
   40.4260   80.5690   60.9800 C   0  0  0  0  0  2  0  0  0  0  0  0
   40.4120   79.8190   59.6750 C   0  0  0  0  0  2  0  0  0  0  0  0
   40.6050   78.7460   59.9300 H   0  0  0  0  0  0  0  0  0  0  0  0
  1 10  1  0  0  0  0
  1  6  1  0  0  0  0
  2  3  1  0  0  0  0
  2  1  2  0  0  0  0
  3  4  2  0  0  0  0
  4  5  1  0  0  0  0
  5  9  1  0  0  0  0
  6  5  2  0  0  0  0
  7  2  1  0  0  0  0
  8  3  1  0  0  0  0
 11 12  1  0  0  0  0
 11 10  1  0  0  0  0
M  END
>  <minimizedAffinity>
-3.5331316

>  <minimizedRMSD>
0.185673237

$$$$
