
 OpenBabel03212520513D

 29 31  0  0  1  0  0  0  0  0999 V2000
   41.6120   83.8290   61.1690 C   0  0  0  0  0  0  0  0  0  0  0  0
   40.2930   84.1560   61.4090 C   0  0  0  0  0  0  0  0  0  0  0  0
   39.3800   83.1940   61.8490 C   0  0  0  0  0  0  0  0  0  0  0  0
   39.7750   81.9420   62.0450 N   0  0  0  0  0  0  0  0  0  0  0  0
   41.0710   81.6410   61.8050 C   0  0  0  0  0  0  0  0  0  0  0  0
   41.9900   82.5380   61.3780 N   0  0  0  0  0  0  0  0  0  0  0  0
   39.9350   85.1670   61.2600 H   0  0  0  0  0  0  0  0  0  0  0  0
   38.3610   83.4500   62.0340 H   0  0  0  0  0  0  0  0  0  0  0  0
   43.9200   86.6680   61.0840 C   0  0  0  0  0  0  0  0  0  0  0  0
   44.3770   86.6110   59.7580 C   0  0  0  0  0  0  0  0  0  0  0  0
   43.9140   85.6300   58.9010 C   0  0  0  0  0  0  0  0  0  0  0  0
   43.0120   84.7540   59.4280 N   0  0  0  0  0  0  0  0  0  0  0  0
   42.5800   84.8170   60.7000 C   0  0  0  0  0  0  0  0  0  0  0  0
   43.0230   85.7550   61.5190 N   0  0  0  0  0  0  0  0  0  0  0  0
   44.4830   87.7190   61.8360 N   0  0  0  0  0  0  0  0  0  0  0  0
   45.0990   87.3040   59.3210 H   0  0  0  0  0  0  0  0  0  0  0  0
   44.2310   85.5420   57.8780 H   0  0  0  0  0  0  0  0  0  0  0  0
   43.7760   88.4270   62.1920 H   0  0  0  0  0  0  0  0  0  0  0  0
   45.5300   87.6270   61.9230 H   0  0  0  0  0  0  0  0  0  0  0  0
   41.4550   80.2040   62.0210 C   0  0  1  0  0  0  0  0  0  0  0  0
   40.4560   79.1580   62.0610 C   0  0  0  0  0  0  0  0  0  0  0  0
   41.2340   79.3300   60.8050 C   0  0  1  0  0  0  0  0  0  0  0  0
   42.4760   80.1570   62.4840 H   0  0  0  0  0  0  0  0  0  0  0  0
   39.3830   79.4790   62.1300 H   0  0  0  0  0  0  0  0  0  0  0  0
   40.6240   78.2760   62.7330 H   0  0  0  0  0  0  0  0  0  0  0  0
   42.0140   78.5480   60.6920 H   0  0  0  0  0  0  0  0  0  0  0  0
   40.7060   79.8400   59.5340 C   0  0  0  0  0  2  0  0  0  0  0  0
   40.0580   78.8910   58.5980 C   0  0  0  0  0  2  0  0  0  0  0  0
   40.3610   77.8370   58.7130 H   0  0  0  0  0  0  0  0  0  0  0  0
  1  6  2  0  0  0  0
  1  2  1  0  0  0  0
  2  3  2  0  0  0  0
  3  8  1  0  0  0  0
  3  4  1  0  0  0  0
  5 20  1  0  0  0  0
  5  4  2  0  0  0  0
  6  5  1  0  0  0  0
  7  2  1  0  0  0  0
  9 14  1  0  0  0  0
  9 15  1  0  0  0  0
 10  9  2  0  0  0  0
 11 12  2  0  0  0  0
 11 10  1  0  0  0  0
 12 13  1  0  0  0  0
 13  1  1  0  0  0  0
 13 14  2  0  0  0  0
 15 19  1  0  0  0  0
 15 18  1  0  0  0  0
 16 10  1  0  0  0  0
 17 11  1  0  0  0  0
 20 21  1  0  0  0  0
 20 23  1  1  0  0  0
 21 24  1  0  0  0  0
 21 25  1  0  0  0  0
 22 26  1  6  0  0  0
 22 20  1  0  0  0  0
 22 21  1  0  0  0  0
 27 22  1  0  0  0  0
 28 29  1  0  0  0  0
 28 27  1  0  0  0  0
M  END
>  <minimizedAffinity>
-4.6105895

>  <minimizedRMSD>
1.61743784

$$$$
