
 OpenBabel03212519593D

 12 12  0  0  0  0  0  0  0  0999 V2000
   39.0860   76.6530   58.3350 C   0  0  0  0  0  0  0  0  0  0  0  0
   39.8930   77.6350   58.9350 C   0  0  0  0  0  0  0  0  0  0  0  0
   40.2470   77.4690   60.2740 C   0  0  0  0  0  0  0  0  0  0  0  0
   39.7910   76.3560   60.9320 N   0  0  0  0  0  0  0  0  0  0  0  0
   39.0170   75.4360   60.3170 C   0  0  0  0  0  0  0  0  0  0  0  0
   38.6700   75.5860   59.0310 N   0  0  0  0  0  0  0  0  0  0  0  0
   38.7900   76.7470   57.2990 H   0  0  0  0  0  0  0  0  0  0  0  0
   40.1910   78.4690   58.3130 H   0  0  0  0  0  0  0  0  0  0  0  0
   40.8630   78.2190   60.7280 H   0  0  0  0  0  0  0  0  0  0  0  0
   38.5480   74.2360   61.0950 C   0  0  0  0  0  2  0  0  0  0  0  0
   39.6500   73.2290   61.2750 C   0  0  0  0  0  2  0  0  0  0  0  0
   39.3910   72.2840   60.7150 H   0  0  0  0  0  0  0  0  0  0  0  0
  1  2  2  0  0  0  0
  1  6  1  0  0  0  0
  2  3  1  0  0  0  0
  3  9  1  0  0  0  0
  3  4  2  0  0  0  0
  5  4  1  0  0  0  0
  5 10  1  0  0  0  0
  6  5  2  0  0  0  0
  7  1  1  0  0  0  0
  8  2  1  0  0  0  0
 10 11  1  0  0  0  0
 12 11  1  0  0  0  0
M  END
>  <minimizedAffinity>
-3.05901456

$$$$

 OpenBabel03212519593D

 12 12  0  0  0  0  0  0  0  0999 V2000
   37.9500   75.3030   57.7450 C   0  0  0  0  0  0  0  0  0  0  0  0
   38.6190   76.5380   57.7620 C   0  0  0  0  0  0  0  0  0  0  0  0
   39.3130   76.8970   58.9170 C   0  0  0  0  0  0  0  0  0  0  0  0
   39.3070   76.0240   59.9750 N   0  0  0  0  0  0  0  0  0  0  0  0
   38.6510   74.8460   59.9170 C   0  0  0  0  0  0  0  0  0  0  0  0
   37.9790   74.4910   58.8120 N   0  0  0  0  0  0  0  0  0  0  0  0
   37.4000   74.9900   56.8680 H   0  0  0  0  0  0  0  0  0  0  0  0
   38.5520   77.1410   56.8660 H   0  0  0  0  0  0  0  0  0  0  0  0
   39.8230   77.8400   58.9250 H   0  0  0  0  0  0  0  0  0  0  0  0
   38.6810   73.9320   61.1130 C   0  0  0  0  0  2  0  0  0  0  0  0
   40.0500   73.3470   61.3270 C   0  0  0  0  0  2  0  0  0  0  0  0
   40.0130   72.2320   61.1600 H   0  0  0  0  0  0  0  0  0  0  0  0
  1  2  2  0  0  0  0
  1  6  1  0  0  0  0
  2  3  1  0  0  0  0
  3  9  1  0  0  0  0
  3  4  2  0  0  0  0
  5  4  1  0  0  0  0
  5 10  1  0  0  0  0
  6  5  2  0  0  0  0
  7  1  1  0  0  0  0
  8  2  1  0  0  0  0
 10 11  1  0  0  0  0
 12 11  1  0  0  0  0
M  END
>  <minimizedAffinity>
-3.04180932

$$$$

 OpenBabel03212519593D

 12 12  0  0  0  0  0  0  0  0999 V2000
   39.1260   77.2870   58.1580 C   0  0  0  0  0  0  0  0  0  0  0  0
   38.3430   76.5490   57.2550 C   0  0  0  0  0  0  0  0  0  0  0  0
   37.9020   75.2840   57.6450 C   0  0  0  0  0  0  0  0  0  0  0  0
   38.2560   74.8290   58.8890 N   0  0  0  0  0  0  0  0  0  0  0  0
   39.0110   75.5710   59.7260 C   0  0  0  0  0  0  0  0  0  0  0  0
   39.4410   76.7880   59.3620 N   0  0  0  0  0  0  0  0  0  0  0  0
   39.4870   78.2710   57.8920 H   0  0  0  0  0  0  0  0  0  0  0  0
   38.1290   77.0140   56.3020 H   0  0  0  0  0  0  0  0  0  0  0  0
   37.3040   74.7250   56.9530 H   0  0  0  0  0  0  0  0  0  0  0  0
   39.3660   75.0140   61.0800 C   0  0  0  0  0  2  0  0  0  0  0  0
   39.1350   73.5300   61.1440 C   0  0  0  0  0  2  0  0  0  0  0  0
   38.3060   73.3090   61.8770 H   0  0  0  0  0  0  0  0  0  0  0  0
  1  6  1  0  0  0  0
  2  3  1  0  0  0  0
  2  1  2  0  0  0  0
  3  4  2  0  0  0  0
  4  5  1  0  0  0  0
  5 10  1  0  0  0  0
  6  5  2  0  0  0  0
  7  1  1  0  0  0  0
  8  2  1  0  0  0  0
  9  3  1  0  0  0  0
 10 11  1  0  0  0  0
 11 12  1  0  0  0  0
M  END
>  <minimizedAffinity>
-3.02358747

$$$$

 OpenBabel03212519593D

 12 12  0  0  0  0  0  0  0  0999 V2000
   39.6140   76.4140   60.3000 C   0  0  0  0  0  0  0  0  0  0  0  0
   39.2550   75.2250   60.9570 C   0  0  0  0  0  0  0  0  0  0  0  0
   38.4690   74.3020   60.2680 C   0  0  0  0  0  0  0  0  0  0  0  0
   38.0880   74.6040   58.9860 N   0  0  0  0  0  0  0  0  0  0  0  0
   38.4540   75.7590   58.3910 C   0  0  0  0  0  0  0  0  0  0  0  0
   39.2100   76.6540   59.0450 N   0  0  0  0  0  0  0  0  0  0  0  0
   40.2220   77.1540   60.8020 H   0  0  0  0  0  0  0  0  0  0  0  0
   39.6160   75.1000   61.9690 H   0  0  0  0  0  0  0  0  0  0  0  0
   38.1990   73.3960   60.7730 H   0  0  0  0  0  0  0  0  0  0  0  0
   38.0030   76.0320   56.9810 C   0  0  0  0  0  2  0  0  0  0  0  0
   36.8620   75.1370   56.5830 C   0  0  0  0  0  2  0  0  0  0  0  0
   37.1990   74.4430   55.7590 H   0  0  0  0  0  0  0  0  0  0  0  0
  1  7  1  0  0  0  0
  1  2  1  0  0  0  0
  2  8  1  0  0  0  0
  3  9  1  0  0  0  0
  3  2  2  0  0  0  0
  4  3  1  0  0  0  0
  5  4  2  0  0  0  0
  5  6  1  0  0  0  0
  6  1  2  0  0  0  0
 10  5  1  0  0  0  0
 11 10  1  0  0  0  0
 12 11  1  0  0  0  0
M  END
>  <minimizedAffinity>
-3.01084161

$$$$

 OpenBabel03212519593D

 12 12  0  0  0  0  0  0  0  0999 V2000
   41.0540   66.1280   61.7610 C   0  0  0  0  0  0  0  0  0  0  0  0
   39.9060   66.0660   62.5680 C   0  0  0  0  0  0  0  0  0  0  0  0
   39.6640   67.1170   63.4530 C   0  0  0  0  0  0  0  0  0  0  0  0
   40.5600   68.1540   63.4870 N   0  0  0  0  0  0  0  0  0  0  0  0
   41.6520   68.1740   62.6940 C   0  0  0  0  0  0  0  0  0  0  0  0
   41.8940   67.1690   61.8400 N   0  0  0  0  0  0  0  0  0  0  0  0
   41.2760   65.3320   61.0630 H   0  0  0  0  0  0  0  0  0  0  0  0
   39.2730   65.1960   62.4510 H   0  0  0  0  0  0  0  0  0  0  0  0
   38.7870   67.0660   64.0660 H   0  0  0  0  0  0  0  0  0  0  0  0
   42.5980   69.3430   62.7800 C   0  0  0  0  0  2  0  0  0  0  0  0
   41.8730   70.6180   63.1070 C   0  0  0  0  0  2  0  0  0  0  0  0
   41.9440   71.3270   62.2310 H   0  0  0  0  0  0  0  0  0  0  0  0
  1  6  2  0  0  0  0
  1  2  1  0  0  0  0
  2  3  2  0  0  0  0
  3  4  1  0  0  0  0
  3  9  1  0  0  0  0
  5 10  1  0  0  0  0
  5  4  2  0  0  0  0
  6  5  1  0  0  0  0
  7  1  1  0  0  0  0
  8  2  1  0  0  0  0
 10 11  1  0  0  0  0
 12 11  1  0  0  0  0
M  END
>  <minimizedAffinity>
-2.99413538

$$$$

 OpenBabel03212519593D

 12 12  0  0  0  0  0  0  0  0999 V2000
   41.4440   77.6340   59.7150 C   0  0  0  0  0  0  0  0  0  0  0  0
   42.4150   76.7950   59.1450 C   0  0  0  0  0  0  0  0  0  0  0  0
   42.2220   75.4150   59.2210 C   0  0  0  0  0  0  0  0  0  0  0  0
   41.0930   74.9530   59.8470 N   0  0  0  0  0  0  0  0  0  0  0  0
   40.1840   75.7940   60.3830 C   0  0  0  0  0  0  0  0  0  0  0  0
   40.3600   77.1220   60.3160 N   0  0  0  0  0  0  0  0  0  0  0  0
   41.5590   78.7090   59.6770 H   0  0  0  0  0  0  0  0  0  0  0  0
   43.2630   77.2780   58.6770 H   0  0  0  0  0  0  0  0  0  0  0  0
   42.9640   74.7790   58.7830 H   0  0  0  0  0  0  0  0  0  0  0  0
   38.9660   75.2230   61.0590 C   0  0  0  0  0  2  0  0  0  0  0  0
   39.0370   73.7240   61.1500 C   0  0  0  0  0  2  0  0  0  0  0  0
   38.2230   73.2690   60.5130 H   0  0  0  0  0  0  0  0  0  0  0  0
  1  6  1  0  0  0  0
  2  3  1  0  0  0  0
  2  1  2  0  0  0  0
  3  4  2  0  0  0  0
  4  5  1  0  0  0  0
  5 10  1  0  0  0  0
  6  5  2  0  0  0  0
  7  1  1  0  0  0  0
  8  2  1  0  0  0  0
  9  3  1  0  0  0  0
 10 11  1  0  0  0  0
 12 11  1  0  0  0  0
M  END
>  <minimizedAffinity>
-2.99188495

$$$$

 OpenBabel03212519593D

 12 12  0  0  0  0  0  0  0  0999 V2000
   38.2560   75.7510   57.7380 C   0  0  0  0  0  0  0  0  0  0  0  0
   38.0010   74.5330   58.3900 C   0  0  0  0  0  0  0  0  0  0  0  0
   38.4990   74.3590   59.6810 C   0  0  0  0  0  0  0  0  0  0  0  0
   39.2100   75.3860   60.2460 N   0  0  0  0  0  0  0  0  0  0  0  0
   39.4330   76.5420   59.5840 C   0  0  0  0  0  0  0  0  0  0  0  0
   38.9590   76.7200   58.3420 N   0  0  0  0  0  0  0  0  0  0  0  0
   37.8860   75.9230   56.7370 H   0  0  0  0  0  0  0  0  0  0  0  0
   37.4270   73.7970   57.8420 H   0  0  0  0  0  0  0  0  0  0  0  0
   38.3020   73.4280   60.1750 H   0  0  0  0  0  0  0  0  0  0  0  0
   40.2220   77.6320   60.2590 C   0  0  0  0  0  2  0  0  0  0  0  0
   41.6570   77.6330   59.8120 C   0  0  0  0  0  2  0  0  0  0  0  0
   42.3230   77.3640   60.6830 H   0  0  0  0  0  0  0  0  0  0  0  0
  1  6  2  0  0  0  0
  1  2  1  0  0  0  0
  2  3  2  0  0  0  0
  3  9  1  0  0  0  0
  3  4  1  0  0  0  0
  5  4  2  0  0  0  0
  5 10  1  0  0  0  0
  6  5  1  0  0  0  0
  7  1  1  0  0  0  0
  8  2  1  0  0  0  0
 11 10  1  0  0  0  0
 11 12  1  0  0  0  0
M  END
>  <minimizedAffinity>
-2.96521711

$$$$

 OpenBabel03212519593D

 12 12  0  0  0  0  0  0  0  0999 V2000
   41.7880   71.8300   62.6120 C   0  0  0  0  0  0  0  0  0  0  0  0
   42.8520   72.1500   61.7520 C   0  0  0  0  0  0  0  0  0  0  0  0
   42.6010   73.0170   60.6880 C   0  0  0  0  0  0  0  0  0  0  0  0
   41.3310   73.5110   60.5400 N   0  0  0  0  0  0  0  0  0  0  0  0
   40.3370   73.1770   61.3900 C   0  0  0  0  0  0  0  0  0  0  0  0
   40.5660   72.3440   62.4150 N   0  0  0  0  0  0  0  0  0  0  0  0
   41.9430   71.1610   63.4480 H   0  0  0  0  0  0  0  0  0  0  0  0
   43.8100   71.6980   61.9720 H   0  0  0  0  0  0  0  0  0  0  0  0
   43.4150   73.2600   60.0350 H   0  0  0  0  0  0  0  0  0  0  0  0
   38.9620   73.7530   61.1720 C   0  0  0  0  0  2  0  0  0  0  0  0
   39.0020   75.2530   61.0730 C   0  0  0  0  0  2  0  0  0  0  0  0
   38.4540   75.7030   61.9510 H   0  0  0  0  0  0  0  0  0  0  0  0
  1  7  1  0  0  0  0
  2  8  1  0  0  0  0
  2  1  2  0  0  0  0
  3  2  1  0  0  0  0
  4  3  2  0  0  0  0
  4  5  1  0  0  0  0
  5  6  2  0  0  0  0
  6  1  1  0  0  0  0
  9  3  1  0  0  0  0
 10  5  1  0  0  0  0
 11 10  1  0  0  0  0
 11 12  1  0  0  0  0
M  END
>  <minimizedAffinity>
-2.95336223

$$$$

 OpenBabel03212519593D

 12 12  0  0  0  0  0  0  0  0999 V2000
   38.6910   74.5540   61.1540 C   0  0  0  0  0  0  0  0  0  0  0  0
   39.5320   73.4860   60.7990 C   0  0  0  0  0  0  0  0  0  0  0  0
   40.7530   73.7820   60.1940 C   0  0  0  0  0  0  0  0  0  0  0  0
   41.0680   75.0990   59.9790 N   0  0  0  0  0  0  0  0  0  0  0  0
   40.2310   76.0950   60.3360 C   0  0  0  0  0  0  0  0  0  0  0  0
   39.0540   75.8220   60.9180 N   0  0  0  0  0  0  0  0  0  0  0  0
   37.7360   74.3650   61.6250 H   0  0  0  0  0  0  0  0  0  0  0  0
   39.1740   72.4890   61.0190 H   0  0  0  0  0  0  0  0  0  0  0  0
   41.3920   72.9640   59.9250 H   0  0  0  0  0  0  0  0  0  0  0  0
   40.6350   77.5220   60.0730 C   0  0  0  0  0  2  0  0  0  0  0  0
   42.0850   77.6230   59.6900 C   0  0  0  0  0  2  0  0  0  0  0  0
   42.6470   78.1870   60.4900 H   0  0  0  0  0  0  0  0  0  0  0  0
  1  7  1  0  0  0  0
  2  8  1  0  0  0  0
  2  1  2  0  0  0  0
  3  2  1  0  0  0  0
  4  3  2  0  0  0  0
  4  5  1  0  0  0  0
  5  6  2  0  0  0  0
  6  1  1  0  0  0  0
  9  3  1  0  0  0  0
 10  5  1  0  0  0  0
 11 10  1  0  0  0  0
 11 12  1  0  0  0  0
M  END
>  <minimizedAffinity>
-2.94961548

$$$$
