
 OpenBabel03212521033D

 22 23  0  0  0  0  0  0  0  0999 V2000
   41.8730   84.2120   61.7630 C   0  0  0  0  0  0  0  0  0  0  0  0
   42.4880   84.5150   62.9720 C   0  0  0  0  0  0  0  0  0  0  0  0
   41.8600   84.2920   64.1830 C   0  0  0  0  0  0  0  0  0  0  0  0
   40.5830   83.7530   64.1880 C   0  0  0  0  0  0  0  0  0  0  0  0
   39.9720   83.4520   62.9790 C   0  0  0  0  0  0  0  0  0  0  0  0
   40.5890   83.6690   61.7490 C   0  0  0  0  0  0  0  0  0  0  0  0
   43.5010   84.9420   62.9300 H   0  0  0  0  0  0  0  0  0  0  0  0
   42.4280   84.5640   65.0640 H   0  0  0  0  0  0  0  0  0  0  0  0
   40.1050   83.5850   65.1450 H   0  0  0  0  0  0  0  0  0  0  0  0
   38.9790   83.0370   63.0890 H   0  0  0  0  0  0  0  0  0  0  0  0
   44.0750   83.7970   58.8580 C   0  0  0  0  0  0  0  0  0  0  0  0
   43.9180   85.0050   58.1820 C   0  0  0  0  0  0  0  0  0  0  0  0
   43.0560   85.9640   58.7190 C   0  0  0  0  0  0  0  0  0  0  0  0
   42.4280   85.6440   59.8750 N   0  0  0  0  0  0  0  0  0  0  0  0
   42.5870   84.4700   60.5240 C   0  0  0  0  0  0  0  0  0  0  0  0
   43.4080   83.5700   60.0000 N   0  0  0  0  0  0  0  0  0  0  0  0
   44.7510   83.0810   58.4090 H   0  0  0  0  0  0  0  0  0  0  0  0
   44.4220   85.2550   57.2590 H   0  0  0  0  0  0  0  0  0  0  0  0
   42.8900   86.9080   58.2510 H   0  0  0  0  0  0  0  0  0  0  0  0
   39.8930   83.3270   60.5060 C   0  0  0  0  0  2  0  0  0  0  0  0
   40.0010   81.8430   60.2120 C   0  0  0  0  0  2  0  0  0  0  0  0
   39.6050   81.6790   59.1670 H   0  0  0  0  0  0  0  0  0  0  0  0
  1  2  1  0  0  0  0
  2  3  2  0  0  0  0
  3  4  1  0  0  0  0
  3  8  1  0  0  0  0
  4  9  1  0  0  0  0
  5 10  1  0  0  0  0
  5  4  2  0  0  0  0
  6  1  2  0  0  0  0
  6  5  1  0  0  0  0
  7  2  1  0  0  0  0
 11 16  1  0  0  0  0
 12 13  1  0  0  0  0
 12 11  2  0  0  0  0
 13 14  2  0  0  0  0
 14 15  1  0  0  0  0
 15  1  1  0  0  0  0
 16 15  2  0  0  0  0
 17 11  1  0  0  0  0
 18 12  1  0  0  0  0
 19 13  1  0  0  0  0
 20  6  1  0  0  0  0
 21 20  1  0  0  0  0
 22 21  1  0  0  0  0
M  END
>  <minimizedAffinity>
-4.3999896

>  <minimizedRMSD>
0.892662287

$$$$
