
 OpenBabel03212521043D

 22 23  0  0  0  0  0  0  0  0999 V2000
   40.5400   73.3580   60.9880 C   0  0  0  0  0  0  0  0  0  0  0  0
   39.1940   73.5650   61.2640 C   0  0  0  0  0  0  0  0  0  0  0  0
   38.5350   74.7080   60.8540 C   0  0  0  0  0  0  0  0  0  0  0  0
   39.2390   75.6730   60.1490 C   0  0  0  0  0  0  0  0  0  0  0  0
   40.5830   75.4630   59.8760 C   0  0  0  0  0  0  0  0  0  0  0  0
   41.2630   74.3160   60.2800 C   0  0  0  0  0  0  0  0  0  0  0  0
   38.6660   72.7790   61.8250 H   0  0  0  0  0  0  0  0  0  0  0  0
   37.4880   74.7700   61.1210 H   0  0  0  0  0  0  0  0  0  0  0  0
   38.7080   76.5640   59.8350 H   0  0  0  0  0  0  0  0  0  0  0  0
   41.0420   76.2710   59.3230 H   0  0  0  0  0  0  0  0  0  0  0  0
   41.9530   70.7740   63.1760 C   0  0  0  0  0  0  0  0  0  0  0  0
   42.3820   69.8080   62.2680 C   0  0  0  0  0  0  0  0  0  0  0  0
   42.1860   70.0380   60.9040 C   0  0  0  0  0  0  0  0  0  0  0  0
   41.5860   71.2020   60.5610 N   0  0  0  0  0  0  0  0  0  0  0  0
   41.1740   72.1340   61.4470 C   0  0  0  0  0  0  0  0  0  0  0  0
   41.3670   71.8990   62.7380 N   0  0  0  0  0  0  0  0  0  0  0  0
   42.1220   70.5580   64.2230 H   0  0  0  0  0  0  0  0  0  0  0  0
   42.8600   68.8800   62.5490 H   0  0  0  0  0  0  0  0  0  0  0  0
   42.4900   69.3390   60.1590 H   0  0  0  0  0  0  0  0  0  0  0  0
   42.6830   74.1510   59.9580 C   0  0  0  0  0  2  0  0  0  0  0  0
   43.2320   75.3840   59.2690 C   0  0  0  0  0  2  0  0  0  0  0  0
   44.2660   75.1270   58.8930 H   0  0  0  0  0  0  0  0  0  0  0  0
  1  2  1  0  0  0  0
  1 15  1  0  0  0  0
  2  7  1  0  0  0  0
  3  8  1  0  0  0  0
  3  2  2  0  0  0  0
  4  3  1  0  0  0  0
  5  4  2  0  0  0  0
  5  6  1  0  0  0  0
  6  1  2  0  0  0  0
  9  4  1  0  0  0  0
 10  5  1  0  0  0  0
 11 17  1  0  0  0  0
 12 18  1  0  0  0  0
 12 11  2  0  0  0  0
 13 12  1  0  0  0  0
 14 13  2  0  0  0  0
 14 15  1  0  0  0  0
 15 16  2  0  0  0  0
 16 11  1  0  0  0  0
 19 13  1  0  0  0  0
 20  6  1  0  0  0  0
 21 20  1  0  0  0  0
 22 21  1  0  0  0  0
M  END
>  <minimizedAffinity>
-4.51547527

$$$$

 OpenBabel03212521043D

 22 23  0  0  0  0  0  0  0  0999 V2000
   38.7490   75.6200   58.6300 C   0  0  0  0  0  0  0  0  0  0  0  0
   38.1320   74.4540   59.0680 C   0  0  0  0  0  0  0  0  0  0  0  0
   38.2350   74.0240   60.3780 C   0  0  0  0  0  0  0  0  0  0  0  0
   38.9760   74.7780   61.2760 C   0  0  0  0  0  0  0  0  0  0  0  0
   39.5910   75.9420   60.8340 C   0  0  0  0  0  0  0  0  0  0  0  0
   39.4970   76.3900   59.5190 C   0  0  0  0  0  0  0  0  0  0  0  0
   37.5530   73.8800   58.3290 H   0  0  0  0  0  0  0  0  0  0  0  0
   37.7170   73.1040   60.6140 H   0  0  0  0  0  0  0  0  0  0  0  0
   39.0480   74.4280   62.2980 H   0  0  0  0  0  0  0  0  0  0  0  0
   40.1430   76.4570   61.6080 H   0  0  0  0  0  0  0  0  0  0  0  0
   39.3900   76.0570   55.0450 C   0  0  0  0  0  0  0  0  0  0  0  0
   38.2830   76.7920   54.6250 C   0  0  0  0  0  0  0  0  0  0  0  0
   37.3130   77.1370   55.5690 C   0  0  0  0  0  0  0  0  0  0  0  0
   37.5250   76.7270   56.8410 N   0  0  0  0  0  0  0  0  0  0  0  0
   38.6020   76.0160   57.2400 C   0  0  0  0  0  0  0  0  0  0  0  0
   39.5130   75.6960   56.3310 N   0  0  0  0  0  0  0  0  0  0  0  0
   40.1180   75.8100   54.2830 H   0  0  0  0  0  0  0  0  0  0  0  0
   38.1190   77.1160   53.6070 H   0  0  0  0  0  0  0  0  0  0  0  0
   36.4430   77.6970   55.3130 H   0  0  0  0  0  0  0  0  0  0  0  0
   40.1670   77.6290   59.1140 C   0  0  0  0  0  2  0  0  0  0  0  0
   41.6260   77.6180   59.5250 C   0  0  0  0  0  2  0  0  0  0  0  0
   42.0330   78.6570   59.3470 H   0  0  0  0  0  0  0  0  0  0  0  0
  1  2  2  0  0  0  0
  1  6  1  0  0  0  0
  2  3  1  0  0  0  0
  3  8  1  0  0  0  0
  3  4  2  0  0  0  0
  4  9  1  0  0  0  0
  5  4  1  0  0  0  0
  5 10  1  0  0  0  0
  6  5  2  0  0  0  0
  7  2  1  0  0  0  0
 11 16  1  0  0  0  0
 12 11  2  0  0  0  0
 12 13  1  0  0  0  0
 13 14  2  0  0  0  0
 14 15  1  0  0  0  0
 15  1  1  0  0  0  0
 16 15  2  0  0  0  0
 17 11  1  0  0  0  0
 18 12  1  0  0  0  0
 19 13  1  0  0  0  0
 20  6  1  0  0  0  0
 20 21  1  0  0  0  0
 22 21  1  0  0  0  0
M  END
>  <minimizedAffinity>
-4.48751974

$$$$

 OpenBabel03212521043D

 22 23  0  0  0  0  0  0  0  0999 V2000
   38.9080   76.3730   58.2020 C   0  0  0  0  0  0  0  0  0  0  0  0
   39.5660   77.5180   58.6380 C   0  0  0  0  0  0  0  0  0  0  0  0
   40.0480   77.6320   59.9280 C   0  0  0  0  0  0  0  0  0  0  0  0
   39.8680   76.5760   60.8090 C   0  0  0  0  0  0  0  0  0  0  0  0
   39.2090   75.4360   60.3700 C   0  0  0  0  0  0  0  0  0  0  0  0
   38.7180   75.3030   59.0740 C   0  0  0  0  0  0  0  0  0  0  0  0
   39.6910   78.3360   57.9130 H   0  0  0  0  0  0  0  0  0  0  0  0
   40.5450   78.5640   60.1630 H   0  0  0  0  0  0  0  0  0  0  0  0
   40.2510   76.6820   61.8160 H   0  0  0  0  0  0  0  0  0  0  0  0
   39.1190   74.6720   61.1300 H   0  0  0  0  0  0  0  0  0  0  0  0
   38.7640   75.8260   54.5770 C   0  0  0  0  0  0  0  0  0  0  0  0
   37.4680   76.2290   54.2600 C   0  0  0  0  0  0  0  0  0  0  0  0
   36.6400   76.6860   55.2880 C   0  0  0  0  0  0  0  0  0  0  0  0
   37.1670   76.7070   56.5340 N   0  0  0  0  0  0  0  0  0  0  0  0
   38.4250   76.3160   56.8340 C   0  0  0  0  0  0  0  0  0  0  0  0
   39.1980   75.8830   55.8460 N   0  0  0  0  0  0  0  0  0  0  0  0
   39.3740   75.4780   53.7530 H   0  0  0  0  0  0  0  0  0  0  0  0
   37.0530   76.2100   53.2620 H   0  0  0  0  0  0  0  0  0  0  0  0
   35.6390   77.0080   55.1120 H   0  0  0  0  0  0  0  0  0  0  0  0
   38.0340   74.0710   58.6700 C   0  0  0  0  0  2  0  0  0  0  0  0
   39.0270   72.9560   58.4110 C   0  0  0  0  0  2  0  0  0  0  0  0
   38.4580   72.1020   57.9390 H   0  0  0  0  0  0  0  0  0  0  0  0
  1  2  2  0  0  0  0
  1  6  1  0  0  0  0
  2  3  1  0  0  0  0
  3  8  1  0  0  0  0
  3  4  2  0  0  0  0
  4  9  1  0  0  0  0
  5  4  1  0  0  0  0
  5 10  1  0  0  0  0
  6  5  2  0  0  0  0
  7  2  1  0  0  0  0
 11 16  1  0  0  0  0
 12 11  2  0  0  0  0
 12 13  1  0  0  0  0
 13 14  2  0  0  0  0
 14 15  1  0  0  0  0
 15  1  1  0  0  0  0
 16 15  2  0  0  0  0
 17 11  1  0  0  0  0
 18 12  1  0  0  0  0
 19 13  1  0  0  0  0
 20  6  1  0  0  0  0
 21 20  1  0  0  0  0
 22 21  1  0  0  0  0
M  END
>  <minimizedAffinity>
-4.45896769

$$$$

 OpenBabel03212521043D

 22 23  0  0  0  0  0  0  0  0999 V2000
   39.0630   74.9390   58.9840 C   0  0  0  0  0  0  0  0  0  0  0  0
   38.3650   74.5420   60.1190 C   0  0  0  0  0  0  0  0  0  0  0  0
   39.0070   73.9990   61.2150 C   0  0  0  0  0  0  0  0  0  0  0  0
   40.3860   73.8460   61.1790 C   0  0  0  0  0  0  0  0  0  0  0  0
   41.0790   74.2430   60.0440 C   0  0  0  0  0  0  0  0  0  0  0  0
   40.4480   74.7930   58.9300 C   0  0  0  0  0  0  0  0  0  0  0  0
   37.2730   74.6770   60.1130 H   0  0  0  0  0  0  0  0  0  0  0  0
   38.3700   73.7240   62.0460 H   0  0  0  0  0  0  0  0  0  0  0  0
   40.8740   73.4180   62.0460 H   0  0  0  0  0  0  0  0  0  0  0  0
   42.1460   74.0830   60.1140 H   0  0  0  0  0  0  0  0  0  0  0  0
   36.8000   75.2750   56.1170 C   0  0  0  0  0  0  0  0  0  0  0  0
   36.9650   76.6110   55.7540 C   0  0  0  0  0  0  0  0  0  0  0  0
   37.8500   77.3990   56.4930 C   0  0  0  0  0  0  0  0  0  0  0  0
   38.4930   76.7980   57.5210 N   0  0  0  0  0  0  0  0  0  0  0  0
   38.3280   75.5020   57.8650 C   0  0  0  0  0  0  0  0  0  0  0  0
   37.4840   74.7670   57.1540 N   0  0  0  0  0  0  0  0  0  0  0  0
   36.1050   74.6980   55.5200 H   0  0  0  0  0  0  0  0  0  0  0  0
   36.4470   77.0860   54.9320 H   0  0  0  0  0  0  0  0  0  0  0  0
   38.0200   78.4270   56.2680 H   0  0  0  0  0  0  0  0  0  0  0  0
   41.2370   75.1950   57.7620 C   0  0  0  0  0  2  0  0  0  0  0  0
   42.2710   76.2380   58.1370 C   0  0  0  0  0  2  0  0  0  0  0  0
   42.7160   76.6300   57.1760 H   0  0  0  0  0  0  0  0  0  0  0  0
  1  2  1  0  0  0  0
  2  3  2  0  0  0  0
  3  8  1  0  0  0  0
  4  3  1  0  0  0  0
  4  9  1  0  0  0  0
  5 10  1  0  0  0  0
  5  4  2  0  0  0  0
  6  1  2  0  0  0  0
  6  5  1  0  0  0  0
  7  2  1  0  0  0  0
 11 16  1  0  0  0  0
 12 11  2  0  0  0  0
 12 13  1  0  0  0  0
 13 14  2  0  0  0  0
 14 15  1  0  0  0  0
 15  1  1  0  0  0  0
 16 15  2  0  0  0  0
 17 11  1  0  0  0  0
 18 12  1  0  0  0  0
 19 13  1  0  0  0  0
 20 21  1  0  0  0  0
 20  6  1  0  0  0  0
 22 21  1  0  0  0  0
M  END
>  <minimizedAffinity>
-4.35719347

$$$$

 OpenBabel03212521043D

 22 23  0  0  0  0  0  0  0  0999 V2000
   40.0850   74.4620   59.7950 C   0  0  0  0  0  0  0  0  0  0  0  0
   40.0770   75.8290   60.0430 C   0  0  0  0  0  0  0  0  0  0  0  0
   39.3460   76.7050   59.2630 C   0  0  0  0  0  0  0  0  0  0  0  0
   38.6040   76.2040   58.2040 C   0  0  0  0  0  0  0  0  0  0  0  0
   38.6160   74.8370   57.9600 C   0  0  0  0  0  0  0  0  0  0  0  0
   39.3450   73.9400   58.7360 C   0  0  0  0  0  0  0  0  0  0  0  0
   40.6770   76.1930   60.8910 H   0  0  0  0  0  0  0  0  0  0  0  0
   39.4090   77.7490   59.5420 H   0  0  0  0  0  0  0  0  0  0  0  0
   38.0380   76.9030   57.6020 H   0  0  0  0  0  0  0  0  0  0  0  0
   38.0070   74.5470   57.1140 H   0  0  0  0  0  0  0  0  0  0  0  0
   41.0280   72.0800   62.4220 C   0  0  0  0  0  0  0  0  0  0  0  0
   42.4060   71.9700   62.2520 C   0  0  0  0  0  0  0  0  0  0  0  0
   43.0160   72.7100   61.2360 C   0  0  0  0  0  0  0  0  0  0  0  0
   42.2090   73.4920   60.4810 N   0  0  0  0  0  0  0  0  0  0  0  0
   40.8730   73.5940   60.6530 C   0  0  0  0  0  0  0  0  0  0  0  0
   40.3100   72.8840   61.6220 N   0  0  0  0  0  0  0  0  0  0  0  0
   40.5940   71.4910   63.2190 H   0  0  0  0  0  0  0  0  0  0  0  0
   43.0450   71.3430   62.8580 H   0  0  0  0  0  0  0  0  0  0  0  0
   44.0650   72.6710   61.0540 H   0  0  0  0  0  0  0  0  0  0  0  0
   39.3130   72.5070   58.4280 C   0  0  0  0  0  2  0  0  0  0  0  0
   38.3600   72.2160   57.2860 C   0  0  0  0  0  2  0  0  0  0  0  0
   38.2490   71.0940   57.2190 H   0  0  0  0  0  0  0  0  0  0  0  0
  1  2  1  0  0  0  0
  1 15  1  0  0  0  0
  2  7  1  0  0  0  0
  3  8  1  0  0  0  0
  3  2  2  0  0  0  0
  4  3  1  0  0  0  0
  5  4  2  0  0  0  0
  5  6  1  0  0  0  0
  6  1  2  0  0  0  0
  9  4  1  0  0  0  0
 10  5  1  0  0  0  0
 11 17  1  0  0  0  0
 12 11  1  0  0  0  0
 12 18  1  0  0  0  0
 13 12  2  0  0  0  0
 14 15  2  0  0  0  0
 14 13  1  0  0  0  0
 15 16  1  0  0  0  0
 16 11  2  0  0  0  0
 19 13  1  0  0  0  0
 20  6  1  0  0  0  0
 21 20  1  0  0  0  0
 22 21  1  0  0  0  0
M  END
>  <minimizedAffinity>
-4.35483503

$$$$

 OpenBabel03212521043D

 22 23  0  0  0  0  0  0  0  0999 V2000
   41.0440   73.8130   60.6080 C   0  0  0  0  0  0  0  0  0  0  0  0
   40.3590   73.0600   61.5550 C   0  0  0  0  0  0  0  0  0  0  0  0
   41.0040   72.1370   62.3550 C   0  0  0  0  0  0  0  0  0  0  0  0
   42.3710   71.9570   62.2070 C   0  0  0  0  0  0  0  0  0  0  0  0
   43.0510   72.7100   61.2590 C   0  0  0  0  0  0  0  0  0  0  0  0
   42.4180   73.6460   60.4450 C   0  0  0  0  0  0  0  0  0  0  0  0
   39.2750   73.2280   61.6460 H   0  0  0  0  0  0  0  0  0  0  0  0
   40.3770   71.6050   63.0590 H   0  0  0  0  0  0  0  0  0  0  0  0
   42.8610   71.2290   62.8410 H   0  0  0  0  0  0  0  0  0  0  0  0
   44.1110   72.4970   61.2210 H   0  0  0  0  0  0  0  0  0  0  0  0
   39.5400   76.9360   59.4060 C   0  0  0  0  0  0  0  0  0  0  0  0
   38.9000   76.5340   58.2360 C   0  0  0  0  0  0  0  0  0  0  0  0
   38.9830   75.1930   57.8550 C   0  0  0  0  0  0  0  0  0  0  0  0
   39.6900   74.3700   58.6640 N   0  0  0  0  0  0  0  0  0  0  0  0
   40.3080   74.7670   59.7980 C   0  0  0  0  0  0  0  0  0  0  0  0
   40.2190   76.0440   60.1450 N   0  0  0  0  0  0  0  0  0  0  0  0
   39.4520   77.9830   59.6670 H   0  0  0  0  0  0  0  0  0  0  0  0
   38.3370   77.1970   57.5940 H   0  0  0  0  0  0  0  0  0  0  0  0
   38.5160   74.8220   56.9710 H   0  0  0  0  0  0  0  0  0  0  0  0
   43.1940   74.4120   59.4660 C   0  0  0  0  0  2  0  0  0  0  0  0
   44.6690   74.0780   59.5570 C   0  0  0  0  0  2  0  0  0  0  0  0
   45.2220   74.8210   58.9110 H   0  0  0  0  0  0  0  0  0  0  0  0
  1  2  1  0  0  0  0
  2  7  1  0  0  0  0
  2  3  2  0  0  0  0
  3  8  1  0  0  0  0
  4  3  1  0  0  0  0
  4  9  1  0  0  0  0
  5  4  2  0  0  0  0
  6  1  2  0  0  0  0
  6  5  1  0  0  0  0
 10  5  1  0  0  0  0
 11 17  1  0  0  0  0
 11 16  1  0  0  0  0
 12 11  2  0  0  0  0
 13 12  1  0  0  0  0
 13 14  2  0  0  0  0
 14 15  1  0  0  0  0
 15 16  2  0  0  0  0
 15  1  1  0  0  0  0
 18 12  1  0  0  0  0
 19 13  1  0  0  0  0
 20 21  1  0  0  0  0
 20  6  1  0  0  0  0
 22 21  1  0  0  0  0
M  END
>  <minimizedAffinity>
-4.31561804

$$$$

 OpenBabel03212521043D

 22 23  0  0  0  0  0  0  0  0999 V2000
   39.6380   75.3550   59.1230 C   0  0  0  0  0  0  0  0  0  0  0  0
   40.1390   76.5030   58.5210 C   0  0  0  0  0  0  0  0  0  0  0  0
   40.4440   77.6340   59.2530 C   0  0  0  0  0  0  0  0  0  0  0  0
   40.2430   77.6210   60.6260 C   0  0  0  0  0  0  0  0  0  0  0  0
   39.7420   76.4730   61.2230 C   0  0  0  0  0  0  0  0  0  0  0  0
   39.4300   75.3230   60.5010 C   0  0  0  0  0  0  0  0  0  0  0  0
   40.2860   76.4790   57.4300 H   0  0  0  0  0  0  0  0  0  0  0  0
   40.8280   78.4730   58.6870 H   0  0  0  0  0  0  0  0  0  0  0  0
   40.4860   78.5160   61.1850 H   0  0  0  0  0  0  0  0  0  0  0  0
   39.6210   76.5630   62.2940 H   0  0  0  0  0  0  0  0  0  0  0  0
   40.0230   72.2810   57.1580 C   0  0  0  0  0  0  0  0  0  0  0  0
   38.7220   72.0290   56.7290 C   0  0  0  0  0  0  0  0  0  0  0  0
   37.7090   72.9100   57.1140 C   0  0  0  0  0  0  0  0  0  0  0  0
   38.0730   73.9610   57.8860 N   0  0  0  0  0  0  0  0  0  0  0  0
   39.3380   74.1990   58.2960 C   0  0  0  0  0  0  0  0  0  0  0  0
   40.2880   73.3520   57.9230 N   0  0  0  0  0  0  0  0  0  0  0  0
   40.7790   71.5740   56.8390 H   0  0  0  0  0  0  0  0  0  0  0  0
   38.4370   71.1870   56.1130 H   0  0  0  0  0  0  0  0  0  0  0  0
   36.6930   72.7730   56.8210 H   0  0  0  0  0  0  0  0  0  0  0  0
   38.9070   74.1400   61.1910 C   0  0  0  0  0  2  0  0  0  0  0  0
   40.0270   73.1940   61.5740 C   0  0  0  0  0  2  0  0  0  0  0  0
   39.5490   72.2370   61.9350 H   0  0  0  0  0  0  0  0  0  0  0  0
  1  6  1  0  0  0  0
  2  1  2  0  0  0  0
  2  3  1  0  0  0  0
  3  4  2  0  0  0  0
  4  9  1  0  0  0  0
  4  5  1  0  0  0  0
  5 10  1  0  0  0  0
  6 20  1  0  0  0  0
  6  5  2  0  0  0  0
  7  2  1  0  0  0  0
  8  3  1  0  0  0  0
 11 16  1  0  0  0  0
 12 13  1  0  0  0  0
 12 11  2  0  0  0  0
 13 14  2  0  0  0  0
 14 15  1  0  0  0  0
 15  1  1  0  0  0  0
 16 15  2  0  0  0  0
 17 11  1  0  0  0  0
 18 12  1  0  0  0  0
 19 13  1  0  0  0  0
 20 21  1  0  0  0  0
 21 22  1  0  0  0  0
M  END
>  <minimizedAffinity>
-4.22902679

$$$$

 OpenBabel03212521043D

 22 23  0  0  0  0  0  0  0  0999 V2000
   39.7060   73.9220   59.4840 C   0  0  0  0  0  0  0  0  0  0  0  0
   39.0990   73.0720   58.5660 C   0  0  0  0  0  0  0  0  0  0  0  0
   38.1800   73.5350   57.6440 C   0  0  0  0  0  0  0  0  0  0  0  0
   37.8540   74.8830   57.6370 C   0  0  0  0  0  0  0  0  0  0  0  0
   38.4610   75.7280   58.5560 C   0  0  0  0  0  0  0  0  0  0  0  0
   39.3900   75.2800   59.4920 C   0  0  0  0  0  0  0  0  0  0  0  0
   39.3810   72.0090   58.6000 H   0  0  0  0  0  0  0  0  0  0  0  0
   37.7680   72.7890   56.9760 H   0  0  0  0  0  0  0  0  0  0  0  0
   37.1310   75.2290   56.9090 H   0  0  0  0  0  0  0  0  0  0  0  0
   38.1410   76.7580   58.4700 H   0  0  0  0  0  0  0  0  0  0  0  0
   41.1450   72.2720   62.4270 C   0  0  0  0  0  0  0  0  0  0  0  0
   42.5150   72.3560   62.1830 C   0  0  0  0  0  0  0  0  0  0  0  0
   42.9480   72.9760   61.0090 C   0  0  0  0  0  0  0  0  0  0  0  0
   41.9900   73.4580   60.1830 N   0  0  0  0  0  0  0  0  0  0  0  0
   40.6640   73.3740   60.4270 C   0  0  0  0  0  0  0  0  0  0  0  0
   40.2700   72.7810   61.5460 N   0  0  0  0  0  0  0  0  0  0  0  0
   40.8500   71.7840   63.3470 H   0  0  0  0  0  0  0  0  0  0  0  0
   43.2750   71.9680   62.8470 H   0  0  0  0  0  0  0  0  0  0  0  0
   43.9810   73.0720   60.7630 H   0  0  0  0  0  0  0  0  0  0  0  0
   39.9990   76.2240   60.4330 C   0  0  0  0  0  2  0  0  0  0  0  0
   41.0310   77.0930   59.7430 C   0  0  0  0  0  2  0  0  0  0  0  0
   41.5810   77.6640   60.5470 H   0  0  0  0  0  0  0  0  0  0  0  0
  1  6  1  0  0  0  0
  1 15  1  0  0  0  0
  2  7  1  0  0  0  0
  2  1  2  0  0  0  0
  3  2  1  0  0  0  0
  4  3  2  0  0  0  0
  4  5  1  0  0  0  0
  5  6  2  0  0  0  0
  6 20  1  0  0  0  0
  8  3  1  0  0  0  0
  9  4  1  0  0  0  0
 10  5  1  0  0  0  0
 11 17  1  0  0  0  0
 12 11  1  0  0  0  0
 12 18  1  0  0  0  0
 13 12  2  0  0  0  0
 14 15  2  0  0  0  0
 14 13  1  0  0  0  0
 15 16  1  0  0  0  0
 16 11  2  0  0  0  0
 19 13  1  0  0  0  0
 21 20  1  0  0  0  0
 21 22  1  0  0  0  0
M  END
>  <minimizedAffinity>
-4.20386887

$$$$

 OpenBabel03212521043D

 22 23  0  0  0  0  0  0  0  0999 V2000
   39.7460   73.9710   59.4520 C   0  0  0  0  0  0  0  0  0  0  0  0
   39.1330   73.1290   58.5310 C   0  0  0  0  0  0  0  0  0  0  0  0
   38.2040   73.5990   57.6220 C   0  0  0  0  0  0  0  0  0  0  0  0
   37.8770   74.9470   57.6310 C   0  0  0  0  0  0  0  0  0  0  0  0
   38.4910   75.7840   58.5530 C   0  0  0  0  0  0  0  0  0  0  0  0
   39.4300   75.3280   59.4760 C   0  0  0  0  0  0  0  0  0  0  0  0
   39.4160   72.0660   58.5520 H   0  0  0  0  0  0  0  0  0  0  0  0
   37.7880   72.8600   56.9500 H   0  0  0  0  0  0  0  0  0  0  0  0
   37.1470   75.2990   56.9130 H   0  0  0  0  0  0  0  0  0  0  0  0
   38.1690   76.8140   58.4800 H   0  0  0  0  0  0  0  0  0  0  0  0
   42.9220   72.9850   61.0010 C   0  0  0  0  0  0  0  0  0  0  0  0
   42.5070   72.3430   62.1650 C   0  0  0  0  0  0  0  0  0  0  0  0
   41.1370   72.2480   62.4230 C   0  0  0  0  0  0  0  0  0  0  0  0
   40.3030   72.7940   61.5080 N   0  0  0  0  0  0  0  0  0  0  0  0
   40.7140   73.4140   60.3810 C   0  0  0  0  0  0  0  0  0  0  0  0
   42.0180   73.4970   60.1510 N   0  0  0  0  0  0  0  0  0  0  0  0
   43.9910   73.0380   60.8370 H   0  0  0  0  0  0  0  0  0  0  0  0
   43.1780   71.9090   62.8930 H   0  0  0  0  0  0  0  0  0  0  0  0
   40.7540   71.7700   63.2960 H   0  0  0  0  0  0  0  0  0  0  0  0
   40.0460   76.2630   60.4210 C   0  0  0  0  0  2  0  0  0  0  0  0
   41.0630   77.1470   59.7280 C   0  0  0  0  0  2  0  0  0  0  0  0
   41.6200   77.7120   60.5320 H   0  0  0  0  0  0  0  0  0  0  0  0
  1  6  1  0  0  0  0
  1 15  1  0  0  0  0
  2  7  1  0  0  0  0
  2  1  2  0  0  0  0
  3  4  2  0  0  0  0
  3  2  1  0  0  0  0
  4  5  1  0  0  0  0
  5  6  2  0  0  0  0
  6 20  1  0  0  0  0
  8  3  1  0  0  0  0
  9  4  1  0  0  0  0
 10  5  1  0  0  0  0
 11 12  1  0  0  0  0
 12 13  2  0  0  0  0
 12 18  1  0  0  0  0
 13 19  1  0  0  0  0
 14 13  1  0  0  0  0
 15 14  2  0  0  0  0
 16 15  1  0  0  0  0
 16 11  2  0  0  0  0
 17 11  1  0  0  0  0
 21 20  1  0  0  0  0
 21 22  1  0  0  0  0
M  END
>  <minimizedAffinity>
-4.16651964

$$$$
