
 OpenBabel03212520543D

 27 29  0  0  0  0  0  0  0  0999 V2000
   40.9700   80.3670   61.8520 C   0  0  0  0  0  0  0  0  0  0  0  0
   40.9900   79.1340   62.4990 C   0  0  0  0  0  0  0  0  0  0  0  0
   40.6000   78.0440   61.8030 C   0  0  0  0  0  0  0  0  0  0  0  0
   40.1920   78.1830   60.4740 C   0  0  0  0  0  0  0  0  0  0  0  0
   40.3720   79.9970   60.1740 S   0  0  0  0  0  0  0  0  0  0  0  0
   41.3060   79.0300   63.5290 H   0  0  0  0  0  0  0  0  0  0  0  0
   40.5460   77.0160   62.1250 H   0  0  0  0  0  0  0  0  0  0  0  0
   43.0670   83.1900   62.8630 C   0  0  0  0  0  0  0  0  0  0  0  0
   42.1780   83.9960   63.6300 C   0  0  0  0  0  0  0  0  0  0  0  0
   40.8710   83.5500   63.7840 C   0  0  0  0  0  0  0  0  0  0  0  0
   40.5220   82.3880   63.2000 N   0  0  0  0  0  0  0  0  0  0  0  0
   41.3710   81.6460   62.4840 C   0  0  0  0  0  0  0  0  0  0  0  0
   42.6120   82.0500   62.3270 N   0  0  0  0  0  0  0  0  0  0  0  0
   44.0850   83.5150   62.7300 H   0  0  0  0  0  0  0  0  0  0  0  0
   42.5190   84.9220   64.0740 H   0  0  0  0  0  0  0  0  0  0  0  0
   40.1510   84.1250   64.3590 H   0  0  0  0  0  0  0  0  0  0  0  0
   39.7240   77.3100   59.4400 C   0  0  0  0  0  0  0  0  0  0  0  0
   40.1340   75.9870   59.4610 C   0  0  0  0  0  0  0  0  0  0  0  0
   39.6050   75.2420   58.3950 C   0  0  0  0  0  0  0  0  0  0  0  0
   38.7900   75.7490   57.4540 N   0  0  0  0  0  0  0  0  0  0  0  0
   38.4470   77.0620   57.5250 C   0  0  0  0  0  0  0  0  0  0  0  0
   38.9230   77.8480   58.5340 N   0  0  0  0  0  0  0  0  0  0  0  0
   40.7810   75.5410   60.1890 H   0  0  0  0  0  0  0  0  0  0  0  0
   39.8400   74.1900   58.2830 H   0  0  0  0  0  0  0  0  0  0  0  0
   37.5430   77.5980   56.4710 C   0  0  0  0  0  0  0  0  0  0  0  0
   36.1210   77.3390   56.9190 C   0  0  0  0  0  0  0  0  0  0  0  0
   35.6910   76.5310   56.2860 H   0  0  0  0  0  0  0  0  0  0  0  0
  1 12  1  0  0  0  0
  1  2  2  0  0  0  0
  2  6  1  0  0  0  0
  3  7  1  0  0  0  0
  3  2  1  0  0  0  0
  4  3  2  0  0  0  0
  5  4  1  0  0  0  0
  5  1  1  0  0  0  0
  8  9  1  0  0  0  0
  9 10  2  0  0  0  0
  9 15  1  0  0  0  0
 10 16  1  0  0  0  0
 11 10  1  0  0  0  0
 12 11  2  0  0  0  0
 13 12  1  0  0  0  0
 13  8  2  0  0  0  0
 14  8  1  0  0  0  0
 17 18  1  0  0  0  0
 17  4  1  0  0  0  0
 18 23  1  0  0  0  0
 19 18  2  0  0  0  0
 20 21  2  0  0  0  0
 20 19  1  0  0  0  0
 21 22  1  0  0  0  0
 22 17  2  0  0  0  0
 24 19  1  0  0  0  0
 25 26  1  0  0  0  0
 25 21  1  0  0  0  0
 27 26  1  0  0  0  0
M  END
>  <minimizedAffinity>
-5.36106348

>  <minimizedRMSD>
7.15719509

$$$$
