
 OpenBabel03212520483D

 22 23  0  0  0  0  0  0  0  0999 V2000
   43.8570   86.0970   60.2870 C   0  0  0  0  0  0  0  0  0  0  0  0
   43.6050   86.6180   59.0030 C   0  0  0  0  0  0  0  0  0  0  0  0
   42.4640   86.2300   58.3150 C   0  0  0  0  0  0  0  0  0  0  0  0
   41.6350   85.3420   58.9420 N   0  0  0  0  0  0  0  0  0  0  0  0
   41.8950   84.8600   60.1640 C   0  0  0  0  0  0  0  0  0  0  0  0
   42.9900   85.2250   60.8410 N   0  0  0  0  0  0  0  0  0  0  0  0
   45.0480   86.5780   60.8660 N   0  0  0  0  0  0  0  0  0  0  0  0
   44.2370   87.3120   58.4940 H   0  0  0  0  0  0  0  0  0  0  0  0
   42.2310   86.6010   57.3330 H   0  0  0  0  0  0  0  0  0  0  0  0
   45.9020   86.7640   60.3230 H   0  0  0  0  0  0  0  0  0  0  0  0
   44.9660   86.7240   61.8990 H   0  0  0  0  0  0  0  0  0  0  0  0
   40.9560   83.9180   60.7560 C   0  0  0  0  0  0  0  0  0  0  0  0
   39.8740   84.3170   61.4950 C   0  0  0  0  0  0  0  0  0  0  0  0
   38.9760   83.3990   62.0610 C   0  0  0  0  0  0  0  0  0  0  0  0
   39.1860   82.0730   61.8690 N   0  0  0  0  0  0  0  0  0  0  0  0
   40.2510   81.6910   61.1430 C   0  0  0  0  0  0  0  0  0  0  0  0
   41.1030   82.5980   60.6060 N   0  0  0  0  0  0  0  0  0  0  0  0
   39.6900   85.3700   61.6590 H   0  0  0  0  0  0  0  0  0  0  0  0
   38.1260   83.7500   62.6430 H   0  0  0  0  0  0  0  0  0  0  0  0
   40.4770   80.2240   60.9350 C   0  0  0  0  0  0  0  0  0  0  0  0
   40.8310   79.5290   62.2090 C   0  0  0  0  0  0  0  0  0  0  0  0
   40.4090   80.1020   63.0850 H   0  0  0  0  0  0  0  0  0  0  0  0
  1  6  1  0  0  0  0
  1  7  1  0  0  0  0
  2  1  2  0  0  0  0
  3  4  2  0  0  0  0
  3  2  1  0  0  0  0
  4  5  1  0  0  0  0
  5 12  1  0  0  0  0
  5  6  2  0  0  0  0
  7 11  1  0  0  0  0
  8  2  1  0  0  0  0
  9  3  1  0  0  0  0
 10  7  1  0  0  0  0
 12 13  1  0  0  0  0
 13 18  1  0  0  0  0
 13 14  2  0  0  0  0
 14 19  1  0  0  0  0
 15 14  1  0  0  0  0
 16 15  2  0  0  0  0
 17 12  2  0  0  0  0
 17 16  1  0  0  0  0
 20 16  1  0  0  0  0
 20 21  1  0  0  0  0
 21 22  1  0  0  0  0
M  END
>  <minimizedAffinity>
-4.57628822

>  <minimizedRMSD>
1.29421437

$$$$
