
 OpenBabel03212521033D

 22 23  0  0  0  0  0  0  0  0999 V2000
   42.0330   84.2360   61.8820 C   0  0  0  0  0  0  0  0  0  0  0  0
   42.5540   84.4710   63.1480 C   0  0  0  0  0  0  0  0  0  0  0  0
   41.8160   84.2380   64.2930 C   0  0  0  0  0  0  0  0  0  0  0  0
   40.5200   83.7580   64.1720 C   0  0  0  0  0  0  0  0  0  0  0  0
   40.0030   83.5250   62.9050 C   0  0  0  0  0  0  0  0  0  0  0  0
   40.7330   83.7530   61.7400 C   0  0  0  0  0  0  0  0  0  0  0  0
   43.5850   84.8530   63.2080 H   0  0  0  0  0  0  0  0  0  0  0  0
   42.3160   84.4540   65.2280 H   0  0  0  0  0  0  0  0  0  0  0  0
   39.9550   83.5810   65.0780 H   0  0  0  0  0  0  0  0  0  0  0  0
   38.9880   83.1520   62.9160 H   0  0  0  0  0  0  0  0  0  0  0  0
   44.4360   83.8070   59.1440 C   0  0  0  0  0  0  0  0  0  0  0  0
   44.4100   85.0510   58.5180 C   0  0  0  0  0  0  0  0  0  0  0  0
   43.5680   86.0400   59.0320 C   0  0  0  0  0  0  0  0  0  0  0  0
   42.8290   85.7100   60.1170 N   0  0  0  0  0  0  0  0  0  0  0  0
   42.8600   84.5010   60.7180 C   0  0  0  0  0  0  0  0  0  0  0  0
   43.6650   83.5730   60.2170 N   0  0  0  0  0  0  0  0  0  0  0  0
   45.1020   83.0680   58.7150 H   0  0  0  0  0  0  0  0  0  0  0  0
   45.0030   85.3080   57.6510 H   0  0  0  0  0  0  0  0  0  0  0  0
   43.5000   87.0120   58.5990 H   0  0  0  0  0  0  0  0  0  0  0  0
   40.1310   83.4830   60.4310 C   0  0  0  0  0  2  0  0  0  0  0  0
   39.3390   84.6790   59.9390 C   0  0  0  0  0  2  0  0  0  0  0  0
   38.7640   84.3470   59.0250 H   0  0  0  0  0  0  0  0  0  0  0  0
  1  2  1  0  0  0  0
  2  7  1  0  0  0  0
  2  3  2  0  0  0  0
  3  8  1  0  0  0  0
  4  3  1  0  0  0  0
  4  9  1  0  0  0  0
  5 10  1  0  0  0  0
  5  4  2  0  0  0  0
  6  1  2  0  0  0  0
  6  5  1  0  0  0  0
 11 16  1  0  0  0  0
 12 13  1  0  0  0  0
 12 11  2  0  0  0  0
 13 14  2  0  0  0  0
 14 15  1  0  0  0  0
 15  1  1  0  0  0  0
 16 15  2  0  0  0  0
 17 11  1  0  0  0  0
 18 12  1  0  0  0  0
 19 13  1  0  0  0  0
 20  6  1  0  0  0  0
 21 20  1  0  0  0  0
 22 21  1  0  0  0  0
M  END
>  <minimizedAffinity>
-4.47152901

>  <minimizedRMSD>
0.963255167

$$$$
