
 OpenBabel03212521033D

 22 23  0  0  0  0  0  0  0  0999 V2000
   42.0320   84.2360   61.8810 C   0  0  0  0  0  0  0  0  0  0  0  0
   42.5530   84.4720   63.1470 C   0  0  0  0  0  0  0  0  0  0  0  0
   41.8150   84.2390   64.2920 C   0  0  0  0  0  0  0  0  0  0  0  0
   40.5200   83.7570   64.1710 C   0  0  0  0  0  0  0  0  0  0  0  0
   40.0030   83.5240   62.9030 C   0  0  0  0  0  0  0  0  0  0  0  0
   40.7330   83.7520   61.7390 C   0  0  0  0  0  0  0  0  0  0  0  0
   43.5840   84.8540   63.2070 H   0  0  0  0  0  0  0  0  0  0  0  0
   42.3150   84.4550   65.2270 H   0  0  0  0  0  0  0  0  0  0  0  0
   39.9550   83.5810   65.0770 H   0  0  0  0  0  0  0  0  0  0  0  0
   38.9880   83.1510   62.9150 H   0  0  0  0  0  0  0  0  0  0  0  0
   44.4370   83.8080   59.1430 C   0  0  0  0  0  0  0  0  0  0  0  0
   44.4100   85.0520   58.5170 C   0  0  0  0  0  0  0  0  0  0  0  0
   43.5670   86.0400   59.0300 C   0  0  0  0  0  0  0  0  0  0  0  0
   42.8280   85.7100   60.1150 N   0  0  0  0  0  0  0  0  0  0  0  0
   42.8600   84.5020   60.7170 C   0  0  0  0  0  0  0  0  0  0  0  0
   43.6660   83.5740   60.2170 N   0  0  0  0  0  0  0  0  0  0  0  0
   45.1030   83.0690   58.7150 H   0  0  0  0  0  0  0  0  0  0  0  0
   45.0030   85.3090   57.6500 H   0  0  0  0  0  0  0  0  0  0  0  0
   43.4990   87.0120   58.5980 H   0  0  0  0  0  0  0  0  0  0  0  0
   40.1320   83.4820   60.4300 C   0  0  0  0  0  2  0  0  0  0  0  0
   39.3390   84.6790   59.9380 C   0  0  0  0  0  2  0  0  0  0  0  0
   38.7640   84.3460   59.0240 H   0  0  0  0  0  0  0  0  0  0  0  0
  1  2  1  0  0  0  0
  2  7  1  0  0  0  0
  2  3  2  0  0  0  0
  3  8  1  0  0  0  0
  4  3  1  0  0  0  0
  4  9  1  0  0  0  0
  5 10  1  0  0  0  0
  5  4  2  0  0  0  0
  6  1  2  0  0  0  0
  6  5  1  0  0  0  0
 11 16  1  0  0  0  0
 12 13  1  0  0  0  0
 12 11  2  0  0  0  0
 13 14  2  0  0  0  0
 14 15  1  0  0  0  0
 15  1  1  0  0  0  0
 16 15  2  0  0  0  0
 17 11  1  0  0  0  0
 18 12  1  0  0  0  0
 19 13  1  0  0  0  0
 20  6  1  0  0  0  0
 21 20  1  0  0  0  0
 22 21  1  0  0  0  0
M  END
>  <minimizedAffinity>
-4.47174788

>  <minimizedRMSD>
0.965862036

$$$$
