
 OpenBabel03212520543D

 27 29  0  0  0  0  0  0  0  0999 V2000
   41.3980   72.8020   61.1650 C   0  0  0  0  0  0  0  0  0  0  0  0
   41.7040   72.5270   62.4950 C   0  0  0  0  0  0  0  0  0  0  0  0
   42.1460   71.2880   62.8020 C   0  0  0  0  0  0  0  0  0  0  0  0
   42.2830   70.3330   61.7920 C   0  0  0  0  0  0  0  0  0  0  0  0
   41.7440   71.2500   60.2810 S   0  0  0  0  0  0  0  0  0  0  0  0
   41.5960   73.2680   63.2760 H   0  0  0  0  0  0  0  0  0  0  0  0
   42.4310   70.8870   63.7630 H   0  0  0  0  0  0  0  0  0  0  0  0
   39.2800   75.7680   60.8300 C   0  0  0  0  0  0  0  0  0  0  0  0
   39.9400   76.5250   59.8210 C   0  0  0  0  0  0  0  0  0  0  0  0
   41.1050   75.9990   59.2750 C   0  0  0  0  0  0  0  0  0  0  0  0
   41.5390   74.8090   59.7310 N   0  0  0  0  0  0  0  0  0  0  0  0
   40.9060   74.1130   60.6780 C   0  0  0  0  0  0  0  0  0  0  0  0
   39.8020   74.5930   61.2070 N   0  0  0  0  0  0  0  0  0  0  0  0
   38.3760   76.1550   61.2680 H   0  0  0  0  0  0  0  0  0  0  0  0
   39.5400   77.4770   59.4980 H   0  0  0  0  0  0  0  0  0  0  0  0
   41.6490   76.5340   58.5030 H   0  0  0  0  0  0  0  0  0  0  0  0
   42.7000   68.9660   61.7110 C   0  0  0  0  0  0  0  0  0  0  0  0
   43.9150   68.6850   61.1070 C   0  0  0  0  0  0  0  0  0  0  0  0
   44.2050   67.3110   61.0930 C   0  0  0  0  0  0  0  0  0  0  0  0
   43.3980   66.3660   61.6070 N   0  0  0  0  0  0  0  0  0  0  0  0
   42.2250   66.7490   62.1780 C   0  0  0  0  0  0  0  0  0  0  0  0
   41.8780   68.0680   62.2280 N   0  0  0  0  0  0  0  0  0  0  0  0
   44.5890   69.4040   60.6860 H   0  0  0  0  0  0  0  0  0  0  0  0
   45.1240   66.9420   60.6530 H   0  0  0  0  0  0  0  0  0  0  0  0
   41.3500   65.6830   62.7380 C   0  0  0  0  0  2  0  0  0  0  0  0
   39.9200   66.0530   62.4090 C   0  0  0  0  0  2  0  0  0  0  0  0
   39.4130   66.3770   63.3450 H   0  0  0  0  0  0  0  0  0  0  0  0
  1  2  2  0  0  0  0
  2  3  1  0  0  0  0
  2  6  1  0  0  0  0
  3  7  1  0  0  0  0
  4  3  2  0  0  0  0
  5  1  1  0  0  0  0
  5  4  1  0  0  0  0
  8 13  1  0  0  0  0
  8 14  1  0  0  0  0
  9  8  2  0  0  0  0
 10 11  2  0  0  0  0
 10  9  1  0  0  0  0
 11 12  1  0  0  0  0
 12  1  1  0  0  0  0
 12 13  2  0  0  0  0
 15  9  1  0  0  0  0
 16 10  1  0  0  0  0
 17  4  1  0  0  0  0
 17 22  1  0  0  0  0
 18 17  2  0  0  0  0
 19 18  1  0  0  0  0
 19 20  2  0  0  0  0
 20 21  1  0  0  0  0
 21 22  2  0  0  0  0
 21 25  1  0  0  0  0
 23 18  1  0  0  0  0
 24 19  1  0  0  0  0
 26 25  1  0  0  0  0
 26 27  1  0  0  0  0
M  END
>  <minimizedAffinity>
-5.29746056

$$$$

 OpenBabel03212520543D

 27 29  0  0  0  0  0  0  0  0999 V2000
   41.9260   69.7630   62.0530 C   0  0  0  0  0  0  0  0  0  0  0  0
   41.8960   70.7650   63.0190 C   0  0  0  0  0  0  0  0  0  0  0  0
   42.0810   72.0420   62.6150 C   0  0  0  0  0  0  0  0  0  0  0  0
   42.2940   72.3150   61.2620 C   0  0  0  0  0  0  0  0  0  0  0  0
   42.2310   70.6390   60.4880 S   0  0  0  0  0  0  0  0  0  0  0  0
   41.7310   70.5510   64.0660 H   0  0  0  0  0  0  0  0  0  0  0  0
   42.0920   72.9450   63.2050 H   0  0  0  0  0  0  0  0  0  0  0  0
   42.4150   66.1380   61.9200 C   0  0  0  0  0  0  0  0  0  0  0  0
   41.4380   65.6460   62.8310 C   0  0  0  0  0  0  0  0  0  0  0  0
   40.6290   66.5750   63.4760 C   0  0  0  0  0  0  0  0  0  0  0  0
   40.8160   67.8790   63.2030 N   0  0  0  0  0  0  0  0  0  0  0  0
   41.7380   68.3220   62.3430 C   0  0  0  0  0  0  0  0  0  0  0  0
   42.5130   67.4590   61.7230 N   0  0  0  0  0  0  0  0  0  0  0  0
   43.0530   65.4390   61.4090 H   0  0  0  0  0  0  0  0  0  0  0  0
   41.3380   64.5840   63.0090 H   0  0  0  0  0  0  0  0  0  0  0  0
   39.8670   66.2550   64.1810 H   0  0  0  0  0  0  0  0  0  0  0  0
   42.5240   73.4830   60.4670 C   0  0  0  0  0  0  0  0  0  0  0  0
   43.8020   73.7040   59.9790 C   0  0  0  0  0  0  0  0  0  0  0  0
   43.8910   74.8810   59.2180 C   0  0  0  0  0  0  0  0  0  0  0  0
   42.8560   75.7070   58.9830 N   0  0  0  0  0  0  0  0  0  0  0  0
   41.6420   75.3970   59.5090 C   0  0  0  0  0  0  0  0  0  0  0  0
   41.4800   74.2690   60.2600 N   0  0  0  0  0  0  0  0  0  0  0  0
   44.6540   73.0750   60.1400 H   0  0  0  0  0  0  0  0  0  0  0  0
   44.8310   75.1830   58.7710 H   0  0  0  0  0  0  0  0  0  0  0  0
   40.5130   76.3280   59.2350 C   0  0  0  0  0  2  0  0  0  0  0  0
   39.5350   76.2030   60.3830 C   0  0  0  0  0  2  0  0  0  0  0  0
   38.6290   75.6670   60.0210 H   0  0  0  0  0  0  0  0  0  0  0  0
  1 12  1  0  0  0  0
  1  2  2  0  0  0  0
  2  6  1  0  0  0  0
  3  2  1  0  0  0  0
  3  7  1  0  0  0  0
  4  3  2  0  0  0  0
  5  4  1  0  0  0  0
  5  1  1  0  0  0  0
  8  9  1  0  0  0  0
  9 15  1  0  0  0  0
  9 10  2  0  0  0  0
 10 16  1  0  0  0  0
 11 10  1  0  0  0  0
 12 11  2  0  0  0  0
 13  8  2  0  0  0  0
 13 12  1  0  0  0  0
 14  8  1  0  0  0  0
 17  4  1  0  0  0  0
 18 23  1  0  0  0  0
 18 17  2  0  0  0  0
 19 18  1  0  0  0  0
 20 19  2  0  0  0  0
 20 21  1  0  0  0  0
 21 22  2  0  0  0  0
 22 17  1  0  0  0  0
 24 19  1  0  0  0  0
 25 21  1  0  0  0  0
 25 26  1  0  0  0  0
 27 26  1  0  0  0  0
M  END
>  <minimizedAffinity>
-5.26028299

$$$$

 OpenBabel03212520543D

 27 29  0  0  0  0  0  0  0  0999 V2000
   42.1320   71.9770   61.1440 C   0  0  0  0  0  0  0  0  0  0  0  0
   42.0860   71.7840   62.5220 C   0  0  0  0  0  0  0  0  0  0  0  0
   42.0540   70.5150   62.9860 C   0  0  0  0  0  0  0  0  0  0  0  0
   42.0670   69.4500   62.0830 C   0  0  0  0  0  0  0  0  0  0  0  0
   42.1300   70.2980   60.4430 S   0  0  0  0  0  0  0  0  0  0  0  0
   42.0750   72.6110   63.2200 H   0  0  0  0  0  0  0  0  0  0  0  0
   42.0170   70.1660   64.0060 H   0  0  0  0  0  0  0  0  0  0  0  0
   40.9810   75.1740   59.7850 C   0  0  0  0  0  0  0  0  0  0  0  0
   42.1780   75.7650   59.2900 C   0  0  0  0  0  0  0  0  0  0  0  0
   43.3610   75.0500   59.4350 C   0  0  0  0  0  0  0  0  0  0  0  0
   43.3060   73.8450   60.0330 N   0  0  0  0  0  0  0  0  0  0  0  0
   42.1720   73.3070   60.4910 C   0  0  0  0  0  0  0  0  0  0  0  0
   41.0430   73.9680   60.3630 N   0  0  0  0  0  0  0  0  0  0  0  0
   40.0530   75.7090   59.6840 H   0  0  0  0  0  0  0  0  0  0  0  0
   42.1570   76.7390   58.8190 H   0  0  0  0  0  0  0  0  0  0  0  0
   44.3030   75.4530   59.0760 H   0  0  0  0  0  0  0  0  0  0  0  0
   42.0430   68.0210   62.1700 C   0  0  0  0  0  0  0  0  0  0  0  0
   40.8570   67.4050   62.5340 C   0  0  0  0  0  0  0  0  0  0  0  0
   40.9680   66.0060   62.5820 C   0  0  0  0  0  0  0  0  0  0  0  0
   42.0980   65.3310   62.3060 N   0  0  0  0  0  0  0  0  0  0  0  0
   43.2090   66.0320   61.9580 C   0  0  0  0  0  0  0  0  0  0  0  0
   43.1750   67.3950   61.8900 N   0  0  0  0  0  0  0  0  0  0  0  0
   39.9350   67.9010   62.7620 H   0  0  0  0  0  0  0  0  0  0  0  0
   40.1180   65.3900   62.8520 H   0  0  0  0  0  0  0  0  0  0  0  0
   44.4460   65.2610   61.6570 C   0  0  0  0  0  2  0  0  0  0  0  0
   45.4500   65.5730   62.7450 C   0  0  0  0  0  2  0  0  0  0  0  0
   46.2500   66.2170   62.3170 H   0  0  0  0  0  0  0  0  0  0  0  0
  1  2  2  0  0  0  0
  2  3  1  0  0  0  0
  2  6  1  0  0  0  0
  3  7  1  0  0  0  0
  4 17  1  0  0  0  0
  4  3  2  0  0  0  0
  5  1  1  0  0  0  0
  5  4  1  0  0  0  0
  8 13  1  0  0  0  0
  9 10  1  0  0  0  0
  9  8  2  0  0  0  0
 10 11  2  0  0  0  0
 11 12  1  0  0  0  0
 12  1  1  0  0  0  0
 13 12  2  0  0  0  0
 14  8  1  0  0  0  0
 15  9  1  0  0  0  0
 16 10  1  0  0  0  0
 17 18  1  0  0  0  0
 18 19  2  0  0  0  0
 18 23  1  0  0  0  0
 19 24  1  0  0  0  0
 20 19  1  0  0  0  0
 21 20  2  0  0  0  0
 22 21  1  0  0  0  0
 22 17  2  0  0  0  0
 25 21  1  0  0  0  0
 25 26  1  0  0  0  0
 27 26  1  0  0  0  0
M  END
>  <minimizedAffinity>
-5.13156652

$$$$

 OpenBabel03212520543D

 27 29  0  0  0  0  0  0  0  0999 V2000
   42.1050   69.8170   61.8160 C   0  0  0  0  0  0  0  0  0  0  0  0
   42.0030   70.6550   62.9230 C   0  0  0  0  0  0  0  0  0  0  0  0
   41.7220   71.9590   62.7090 C   0  0  0  0  0  0  0  0  0  0  0  0
   41.5430   72.4220   61.4030 C   0  0  0  0  0  0  0  0  0  0  0  0
   41.7910   70.8980   60.3870 S   0  0  0  0  0  0  0  0  0  0  0  0
   42.1430   70.2950   63.9330 H   0  0  0  0  0  0  0  0  0  0  0  0
   41.6050   72.7560   63.4270 H   0  0  0  0  0  0  0  0  0  0  0  0
   41.5730   66.2100   62.1370 C   0  0  0  0  0  0  0  0  0  0  0  0
   42.8920   65.6800   62.0540 C   0  0  0  0  0  0  0  0  0  0  0  0
   43.9410   66.5770   61.8870 C   0  0  0  0  0  0  0  0  0  0  0  0
   43.6500   67.8890   61.8140 N   0  0  0  0  0  0  0  0  0  0  0  0
   42.4050   68.3680   61.8950 C   0  0  0  0  0  0  0  0  0  0  0  0
   41.4000   67.5350   62.0530 N   0  0  0  0  0  0  0  0  0  0  0  0
   40.7450   65.5350   62.2660 H   0  0  0  0  0  0  0  0  0  0  0  0
   43.0610   64.6130   62.1180 H   0  0  0  0  0  0  0  0  0  0  0  0
   44.9670   66.2270   61.8180 H   0  0  0  0  0  0  0  0  0  0  0  0
   41.2470   73.6780   60.7820 C   0  0  0  0  0  0  0  0  0  0  0  0
   40.0580   74.3080   61.1090 C   0  0  0  0  0  0  0  0  0  0  0  0
   39.8900   75.5270   60.4330 C   0  0  0  0  0  0  0  0  0  0  0  0
   40.7810   76.0340   59.5630 N   0  0  0  0  0  0  0  0  0  0  0  0
   41.9190   75.3350   59.3110 C   0  0  0  0  0  0  0  0  0  0  0  0
   42.1500   74.1410   59.9330 N   0  0  0  0  0  0  0  0  0  0  0  0
   39.3200   73.9420   61.7950 H   0  0  0  0  0  0  0  0  0  0  0  0
   39.0050   76.1320   60.5900 H   0  0  0  0  0  0  0  0  0  0  0  0
   42.8890   75.9180   58.3440 C   0  0  0  0  0  2  0  0  0  0  0  0
   43.9830   74.8950   58.1280 C   0  0  0  0  0  2  0  0  0  0  0  0
   44.9090   75.2540   58.6290 H   0  0  0  0  0  0  0  0  0  0  0  0
  1 12  1  0  0  0  0
  1  2  2  0  0  0  0
  2  6  1  0  0  0  0
  3  2  1  0  0  0  0
  3  7  1  0  0  0  0
  4  3  2  0  0  0  0
  5  4  1  0  0  0  0
  5  1  1  0  0  0  0
  8 14  1  0  0  0  0
  9 15  1  0  0  0  0
  9  8  1  0  0  0  0
 10  9  2  0  0  0  0
 11 10  1  0  0  0  0
 11 12  2  0  0  0  0
 12 13  1  0  0  0  0
 13  8  2  0  0  0  0
 16 10  1  0  0  0  0
 17 18  1  0  0  0  0
 17  4  1  0  0  0  0
 18 23  1  0  0  0  0
 19 24  1  0  0  0  0
 19 18  2  0  0  0  0
 20 19  1  0  0  0  0
 21 20  2  0  0  0  0
 21 22  1  0  0  0  0
 22 17  2  0  0  0  0
 25 21  1  0  0  0  0
 26 25  1  0  0  0  0
 26 27  1  0  0  0  0
M  END
>  <minimizedAffinity>
-5.09691954

$$$$

 OpenBabel03212520543D

 27 29  0  0  0  0  0  0  0  0999 V2000
   42.5770   70.4300   61.7910 C   0  0  0  0  0  0  0  0  0  0  0  0
   42.2080   71.3340   62.7850 C   0  0  0  0  0  0  0  0  0  0  0  0
   41.3930   72.3560   62.4430 C   0  0  0  0  0  0  0  0  0  0  0  0
   40.9510   72.4760   61.1240 C   0  0  0  0  0  0  0  0  0  0  0  0
   41.7450   71.0320   60.2890 S   0  0  0  0  0  0  0  0  0  0  0  0
   42.5520   71.2390   63.8060 H   0  0  0  0  0  0  0  0  0  0  0  0
   41.0020   73.1490   63.0630 H   0  0  0  0  0  0  0  0  0  0  0  0
   44.9220   67.7110   61.0870 C   0  0  0  0  0  0  0  0  0  0  0  0
   45.1030   67.1010   62.3610 C   0  0  0  0  0  0  0  0  0  0  0  0
   44.4130   67.6410   63.4410 C   0  0  0  0  0  0  0  0  0  0  0  0
   43.6180   68.7040   63.2190 N   0  0  0  0  0  0  0  0  0  0  0  0
   43.4600   69.2620   62.0160 C   0  0  0  0  0  0  0  0  0  0  0  0
   44.1030   68.7660   60.9820 N   0  0  0  0  0  0  0  0  0  0  0  0
   45.4450   67.3100   60.2360 H   0  0  0  0  0  0  0  0  0  0  0  0
   45.7580   66.2480   62.4750 H   0  0  0  0  0  0  0  0  0  0  0  0
   44.5140   67.2160   64.4350 H   0  0  0  0  0  0  0  0  0  0  0  0
   40.1170   73.3800   60.3910 C   0  0  0  0  0  0  0  0  0  0  0  0
   40.0730   74.7050   60.7930 C   0  0  0  0  0  0  0  0  0  0  0  0
   39.2200   75.4830   59.9930 C   0  0  0  0  0  0  0  0  0  0  0  0
   38.5190   75.0020   58.9510 N   0  0  0  0  0  0  0  0  0  0  0  0
   38.6320   73.6840   58.6400 C   0  0  0  0  0  0  0  0  0  0  0  0
   39.4440   72.8670   59.3740 N   0  0  0  0  0  0  0  0  0  0  0  0
   40.6130   75.1320   61.6140 H   0  0  0  0  0  0  0  0  0  0  0  0
   39.0860   76.5410   60.1890 H   0  0  0  0  0  0  0  0  0  0  0  0
   37.8460   73.1770   57.4830 C   0  0  0  0  0  2  0  0  0  0  0  0
   38.5870   71.9840   56.9200 C   0  0  0  0  0  2  0  0  0  0  0  0
   39.0410   72.2740   55.9460 H   0  0  0  0  0  0  0  0  0  0  0  0
  1 12  1  0  0  0  0
  1  2  2  0  0  0  0
  2  6  1  0  0  0  0
  3  2  1  0  0  0  0
  3  7  1  0  0  0  0
  4  3  2  0  0  0  0
  5  4  1  0  0  0  0
  5  1  1  0  0  0  0
  8  9  1  0  0  0  0
  9 15  1  0  0  0  0
  9 10  2  0  0  0  0
 10 16  1  0  0  0  0
 11 10  1  0  0  0  0
 12 11  2  0  0  0  0
 13  8  2  0  0  0  0
 13 12  1  0  0  0  0
 14  8  1  0  0  0  0
 17 18  1  0  0  0  0
 17  4  1  0  0  0  0
 18 23  1  0  0  0  0
 19 24  1  0  0  0  0
 19 18  2  0  0  0  0
 20 19  1  0  0  0  0
 21 20  2  0  0  0  0
 21 22  1  0  0  0  0
 22 17  2  0  0  0  0
 25 21  1  0  0  0  0
 26 25  1  0  0  0  0
 27 26  1  0  0  0  0
M  END
>  <minimizedAffinity>
-5.04508972

$$$$

 OpenBabel03212520543D

 27 29  0  0  0  0  0  0  0  0999 V2000
   41.7810   71.6850   61.1650 C   0  0  0  0  0  0  0  0  0  0  0  0
   41.2180   72.5310   62.1180 C   0  0  0  0  0  0  0  0  0  0  0  0
   40.5060   73.5930   61.6820 C   0  0  0  0  0  0  0  0  0  0  0  0
   40.3560   73.8090   60.3110 C   0  0  0  0  0  0  0  0  0  0  0  0
   41.2950   72.4030   59.5660 S   0  0  0  0  0  0  0  0  0  0  0  0
   41.3360   72.3620   63.1800 H   0  0  0  0  0  0  0  0  0  0  0  0
   40.0000   74.3530   62.2570 H   0  0  0  0  0  0  0  0  0  0  0  0
   43.3550   69.0360   63.1400 C   0  0  0  0  0  0  0  0  0  0  0  0
   44.0540   68.2740   62.1610 C   0  0  0  0  0  0  0  0  0  0  0  0
   43.9690   68.6890   60.8370 C   0  0  0  0  0  0  0  0  0  0  0  0
   43.2330   69.7800   60.5590 N   0  0  0  0  0  0  0  0  0  0  0  0
   42.5840   70.4830   61.4910 C   0  0  0  0  0  0  0  0  0  0  0  0
   42.6530   70.1070   62.7490 N   0  0  0  0  0  0  0  0  0  0  0  0
   43.4060   68.7350   64.1720 H   0  0  0  0  0  0  0  0  0  0  0  0
   44.6290   67.4040   62.4490 H   0  0  0  0  0  0  0  0  0  0  0  0
   44.4830   68.1450   60.0500 H   0  0  0  0  0  0  0  0  0  0  0  0
   39.7060   74.7790   59.4820 C   0  0  0  0  0  0  0  0  0  0  0  0
   40.0510   76.1110   59.6370 C   0  0  0  0  0  0  0  0  0  0  0  0
   39.3420   76.9560   58.7660 C   0  0  0  0  0  0  0  0  0  0  0  0
   38.4300   76.5260   57.8780 N   0  0  0  0  0  0  0  0  0  0  0  0
   38.1640   75.1950   57.8050 C   0  0  0  0  0  0  0  0  0  0  0  0
   38.8150   74.3150   58.6210 N   0  0  0  0  0  0  0  0  0  0  0  0
   40.7700   76.4980   60.3300 H   0  0  0  0  0  0  0  0  0  0  0  0
   39.5080   78.0270   58.7750 H   0  0  0  0  0  0  0  0  0  0  0  0
   37.1500   74.7450   56.8130 C   0  0  0  0  0  2  0  0  0  0  0  0
   36.8280   75.9280   55.9270 C   0  0  0  0  0  2  0  0  0  0  0  0
   35.8070   76.2930   56.1780 H   0  0  0  0  0  0  0  0  0  0  0  0
  1 12  1  0  0  0  0
  1  2  2  0  0  0  0
  2  6  1  0  0  0  0
  3  2  1  0  0  0  0
  3  7  1  0  0  0  0
  4  3  2  0  0  0  0
  5  4  1  0  0  0  0
  5  1  1  0  0  0  0
  8 14  1  0  0  0  0
  9 15  1  0  0  0  0
  9  8  2  0  0  0  0
 10  9  1  0  0  0  0
 11 10  2  0  0  0  0
 11 12  1  0  0  0  0
 12 13  2  0  0  0  0
 13  8  1  0  0  0  0
 16 10  1  0  0  0  0
 17 18  1  0  0  0  0
 17  4  1  0  0  0  0
 18 23  1  0  0  0  0
 19 24  1  0  0  0  0
 19 18  2  0  0  0  0
 20 19  1  0  0  0  0
 21 20  2  0  0  0  0
 21 22  1  0  0  0  0
 22 17  2  0  0  0  0
 25 21  1  0  0  0  0
 26 27  1  0  0  0  0
 26 25  1  0  0  0  0
M  END
>  <minimizedAffinity>
-4.99714422

$$$$

 OpenBabel03212520543D

 27 29  0  0  0  0  0  0  0  0999 V2000
   40.4710   73.5270   60.1970 C   0  0  0  0  0  0  0  0  0  0  0  0
   40.6860   73.5060   61.5730 C   0  0  0  0  0  0  0  0  0  0  0  0
   41.2530   72.4030   62.1100 C   0  0  0  0  0  0  0  0  0  0  0  0
   41.6020   71.3330   61.2830 C   0  0  0  0  0  0  0  0  0  0  0  0
   41.0910   71.9220   59.6080 S   0  0  0  0  0  0  0  0  0  0  0  0
   40.4150   74.3360   62.2120 H   0  0  0  0  0  0  0  0  0  0  0  0
   41.4980   72.1990   63.1410 H   0  0  0  0  0  0  0  0  0  0  0  0
   38.2690   75.3720   57.9300 C   0  0  0  0  0  0  0  0  0  0  0  0
   38.6980   76.7200   58.0880 C   0  0  0  0  0  0  0  0  0  0  0  0
   39.7390   76.9680   58.9750 C   0  0  0  0  0  0  0  0  0  0  0  0
   40.2780   75.9240   59.6300 N   0  0  0  0  0  0  0  0  0  0  0  0
   39.8620   74.6650   59.4690 C   0  0  0  0  0  0  0  0  0  0  0  0
   38.8790   74.4100   58.6340 N   0  0  0  0  0  0  0  0  0  0  0  0
   37.4650   75.1550   57.2490 H   0  0  0  0  0  0  0  0  0  0  0  0
   38.2230   77.5170   57.5320 H   0  0  0  0  0  0  0  0  0  0  0  0
   40.1060   77.9780   59.1340 H   0  0  0  0  0  0  0  0  0  0  0  0
   42.1950   70.0420   61.4580 C   0  0  0  0  0  0  0  0  0  0  0  0
   43.0010   69.8340   62.5660 C   0  0  0  0  0  0  0  0  0  0  0  0
   43.5190   68.5300   62.6180 C   0  0  0  0  0  0  0  0  0  0  0  0
   43.2660   67.5820   61.6990 N   0  0  0  0  0  0  0  0  0  0  0  0
   42.4620   67.8890   60.6480 C   0  0  0  0  0  0  0  0  0  0  0  0
   41.9220   69.1380   60.5320 N   0  0  0  0  0  0  0  0  0  0  0  0
   43.2290   70.5580   63.3220 H   0  0  0  0  0  0  0  0  0  0  0  0
   44.1670   68.2220   63.4310 H   0  0  0  0  0  0  0  0  0  0  0  0
   42.1980   66.8220   59.6440 C   0  0  0  0  0  2  0  0  0  0  0  0
   42.4980   65.4950   60.3050 C   0  0  0  0  0  2  0  0  0  0  0  0
   43.4380   65.0860   59.8720 H   0  0  0  0  0  0  0  0  0  0  0  0
  1  2  2  0  0  0  0
  2  3  1  0  0  0  0
  2  6  1  0  0  0  0
  3  7  1  0  0  0  0
  4 17  1  0  0  0  0
  4  3  2  0  0  0  0
  5  1  1  0  0  0  0
  5  4  1  0  0  0  0
  8  9  2  0  0  0  0
  8 13  1  0  0  0  0
  9 10  1  0  0  0  0
 10 16  1  0  0  0  0
 10 11  2  0  0  0  0
 12 11  1  0  0  0  0
 12  1  1  0  0  0  0
 13 12  2  0  0  0  0
 14  8  1  0  0  0  0
 15  9  1  0  0  0  0
 17 18  1  0  0  0  0
 18 19  2  0  0  0  0
 18 23  1  0  0  0  0
 19 24  1  0  0  0  0
 20 19  1  0  0  0  0
 21 20  2  0  0  0  0
 22 21  1  0  0  0  0
 22 17  2  0  0  0  0
 25 26  1  0  0  0  0
 25 21  1  0  0  0  0
 27 26  1  0  0  0  0
M  END
>  <minimizedAffinity>
-4.91050768

$$$$

 OpenBabel03212520543D

 27 29  0  0  0  0  0  0  0  0999 V2000
   38.6060   75.1650   57.7790 C   0  0  0  0  0  0  0  0  0  0  0  0
   39.0090   75.8620   58.9150 C   0  0  0  0  0  0  0  0  0  0  0  0
   39.6770   75.1830   59.8730 C   0  0  0  0  0  0  0  0  0  0  0  0
   39.9390   73.8220   59.7010 C   0  0  0  0  0  0  0  0  0  0  0  0
   39.1850   73.4620   58.0530 S   0  0  0  0  0  0  0  0  0  0  0  0
   38.8040   76.9160   59.0460 H   0  0  0  0  0  0  0  0  0  0  0  0
   40.0660   75.5430   60.8130 H   0  0  0  0  0  0  0  0  0  0  0  0
   36.8900   75.4650   54.5610 C   0  0  0  0  0  0  0  0  0  0  0  0
   36.5150   76.8380   54.5210 C   0  0  0  0  0  0  0  0  0  0  0  0
   36.8600   77.6350   55.6060 C   0  0  0  0  0  0  0  0  0  0  0  0
   37.5260   77.0650   56.6270 N   0  0  0  0  0  0  0  0  0  0  0  0
   37.8700   75.7740   56.6460 C   0  0  0  0  0  0  0  0  0  0  0  0
   37.5520   75.0040   55.6290 N   0  0  0  0  0  0  0  0  0  0  0  0
   36.6330   74.8280   53.7320 H   0  0  0  0  0  0  0  0  0  0  0  0
   35.9780   77.2380   53.6700 H   0  0  0  0  0  0  0  0  0  0  0  0
   36.5990   78.6890   55.6280 H   0  0  0  0  0  0  0  0  0  0  0  0
   40.5890   72.7910   60.4520 C   0  0  0  0  0  0  0  0  0  0  0  0
   40.5200   72.8440   61.8350 C   0  0  0  0  0  0  0  0  0  0  0  0
   41.1970   71.7780   62.4490 C   0  0  0  0  0  0  0  0  0  0  0  0
   41.8420   70.8080   61.7770 N   0  0  0  0  0  0  0  0  0  0  0  0
   41.8480   70.8490   60.4180 C   0  0  0  0  0  0  0  0  0  0  0  0
   41.2110   71.8560   59.7530 N   0  0  0  0  0  0  0  0  0  0  0  0
   40.0190   73.5960   62.4120 H   0  0  0  0  0  0  0  0  0  0  0  0
   41.2280   71.6880   63.5290 H   0  0  0  0  0  0  0  0  0  0  0  0
   42.5690   69.7640   59.6980 C   0  0  0  0  0  2  0  0  0  0  0  0
   41.5560   68.6920   59.3640 C   0  0  0  0  0  2  0  0  0  0  0  0
   41.7440   67.8090   60.0160 H   0  0  0  0  0  0  0  0  0  0  0  0
  1  5  1  0  0  0  0
  1  2  2  0  0  0  0
  2  6  1  0  0  0  0
  2  3  1  0  0  0  0
  3  7  1  0  0  0  0
  4  3  2  0  0  0  0
  4 17  1  0  0  0  0
  5  4  1  0  0  0  0
  8 13  1  0  0  0  0
  9  8  2  0  0  0  0
  9 10  1  0  0  0  0
 10 16  1  0  0  0  0
 10 11  2  0  0  0  0
 11 12  1  0  0  0  0
 12  1  1  0  0  0  0
 13 12  2  0  0  0  0
 14  8  1  0  0  0  0
 15  9  1  0  0  0  0
 17 18  1  0  0  0  0
 18 23  1  0  0  0  0
 18 19  2  0  0  0  0
 19 24  1  0  0  0  0
 20 19  1  0  0  0  0
 21 20  2  0  0  0  0
 22 21  1  0  0  0  0
 22 17  2  0  0  0  0
 25 21  1  0  0  0  0
 26 25  1  0  0  0  0
 26 27  1  0  0  0  0
M  END
>  <minimizedAffinity>
-4.81978035

$$$$

 OpenBabel03212520543D

 27 29  0  0  0  0  0  0  0  0999 V2000
   42.0370   70.6590   61.5250 C   0  0  0  0  0  0  0  0  0  0  0  0
   41.7900   71.5430   62.5730 C   0  0  0  0  0  0  0  0  0  0  0  0
   41.2800   72.7570   62.2720 C   0  0  0  0  0  0  0  0  0  0  0  0
   41.0180   73.0860   60.9400 C   0  0  0  0  0  0  0  0  0  0  0  0
   41.5320   71.5630   60.0300 S   0  0  0  0  0  0  0  0  0  0  0  0
   41.9940   71.2860   63.6030 H   0  0  0  0  0  0  0  0  0  0  0  0
   41.0240   73.5690   62.9350 H   0  0  0  0  0  0  0  0  0  0  0  0
   42.2240   67.1140   62.4130 C   0  0  0  0  0  0  0  0  0  0  0  0
   43.5560   66.7600   62.0550 C   0  0  0  0  0  0  0  0  0  0  0  0
   44.3650   67.7510   61.5130 C   0  0  0  0  0  0  0  0  0  0  0  0
   43.8450   68.9820   61.3580 N   0  0  0  0  0  0  0  0  0  0  0  0
   42.5920   69.2960   61.7010 C   0  0  0  0  0  0  0  0  0  0  0  0
   41.8110   68.3720   62.2150 N   0  0  0  0  0  0  0  0  0  0  0  0
   41.5790   66.3630   62.8350 H   0  0  0  0  0  0  0  0  0  0  0  0
   43.9160   65.7500   62.2040 H   0  0  0  0  0  0  0  0  0  0  0  0
   45.3900   67.5370   61.2230 H   0  0  0  0  0  0  0  0  0  0  0  0
   40.5020   74.2220   60.2380 C   0  0  0  0  0  0  0  0  0  0  0  0
   39.8610   75.2100   60.9680 C   0  0  0  0  0  0  0  0  0  0  0  0
   39.4030   76.2640   60.1620 C   0  0  0  0  0  0  0  0  0  0  0  0
   39.5640   76.3170   58.8280 N   0  0  0  0  0  0  0  0  0  0  0  0
   40.2080   75.2940   58.2070 C   0  0  0  0  0  0  0  0  0  0  0  0
   40.6810   74.2350   58.9270 N   0  0  0  0  0  0  0  0  0  0  0  0
   39.7110   75.2100   62.0290 H   0  0  0  0  0  0  0  0  0  0  0  0
   38.8830   77.1100   60.5960 H   0  0  0  0  0  0  0  0  0  0  0  0
   40.3730   75.3760   56.7300 C   0  0  0  0  0  2  0  0  0  0  0  0
   41.8060   75.0120   56.4130 C   0  0  0  0  0  2  0  0  0  0  0  0
   42.3480   75.9340   56.1030 H   0  0  0  0  0  0  0  0  0  0  0  0
  1 12  1  0  0  0  0
  1  2  2  0  0  0  0
  2  6  1  0  0  0  0
  3  2  1  0  0  0  0
  3  7  1  0  0  0  0
  4  3  2  0  0  0  0
  5  4  1  0  0  0  0
  5  1  1  0  0  0  0
  8 14  1  0  0  0  0
  9 15  1  0  0  0  0
  9  8  2  0  0  0  0
 10  9  1  0  0  0  0
 11 10  2  0  0  0  0
 11 12  1  0  0  0  0
 12 13  2  0  0  0  0
 13  8  1  0  0  0  0
 16 10  1  0  0  0  0
 17  4  1  0  0  0  0
 17 18  1  0  0  0  0
 18 23  1  0  0  0  0
 19 24  1  0  0  0  0
 19 18  2  0  0  0  0
 20 19  1  0  0  0  0
 21 20  2  0  0  0  0
 21 22  1  0  0  0  0
 22 17  2  0  0  0  0
 25 21  1  0  0  0  0
 26 25  1  0  0  0  0
 27 26  1  0  0  0  0
M  END
>  <minimizedAffinity>
-4.64540482

$$$$
