
 OpenBabel03212521033D

 22 23  0  0  0  0  0  0  0  0999 V2000
   41.8730   84.2120   61.7620 C   0  0  0  0  0  0  0  0  0  0  0  0
   42.4880   84.5160   62.9710 C   0  0  0  0  0  0  0  0  0  0  0  0
   41.8610   84.2930   64.1820 C   0  0  0  0  0  0  0  0  0  0  0  0
   40.5830   83.7530   64.1880 C   0  0  0  0  0  0  0  0  0  0  0  0
   39.9720   83.4520   62.9780 C   0  0  0  0  0  0  0  0  0  0  0  0
   40.5900   83.6690   61.7490 C   0  0  0  0  0  0  0  0  0  0  0  0
   43.5020   84.9430   62.9300 H   0  0  0  0  0  0  0  0  0  0  0  0
   42.4270   84.5640   65.0630 H   0  0  0  0  0  0  0  0  0  0  0  0
   40.1050   83.5860   65.1450 H   0  0  0  0  0  0  0  0  0  0  0  0
   38.9800   83.0370   63.0890 H   0  0  0  0  0  0  0  0  0  0  0  0
   44.0750   83.7970   58.8580 C   0  0  0  0  0  0  0  0  0  0  0  0
   43.9180   85.0050   58.1820 C   0  0  0  0  0  0  0  0  0  0  0  0
   43.0560   85.9640   58.7180 C   0  0  0  0  0  0  0  0  0  0  0  0
   42.4290   85.6440   59.8740 N   0  0  0  0  0  0  0  0  0  0  0  0
   42.5870   84.4700   60.5240 C   0  0  0  0  0  0  0  0  0  0  0  0
   43.4090   83.5700   60.0000 N   0  0  0  0  0  0  0  0  0  0  0  0
   44.7520   83.0800   58.4090 H   0  0  0  0  0  0  0  0  0  0  0  0
   44.4220   85.2550   57.2580 H   0  0  0  0  0  0  0  0  0  0  0  0
   42.8920   86.9080   58.2510 H   0  0  0  0  0  0  0  0  0  0  0  0
   39.8930   83.3260   60.5050 C   0  0  0  0  0  2  0  0  0  0  0  0
   40.0010   81.8440   60.2110 C   0  0  0  0  0  2  0  0  0  0  0  0
   39.6050   81.6800   59.1660 H   0  0  0  0  0  0  0  0  0  0  0  0
  1  2  1  0  0  0  0
  2  3  2  0  0  0  0
  3  4  1  0  0  0  0
  3  8  1  0  0  0  0
  4  9  1  0  0  0  0
  5 10  1  0  0  0  0
  5  4  2  0  0  0  0
  6  1  2  0  0  0  0
  6  5  1  0  0  0  0
  7  2  1  0  0  0  0
 11 16  1  0  0  0  0
 12 13  1  0  0  0  0
 12 11  2  0  0  0  0
 13 14  2  0  0  0  0
 14 15  1  0  0  0  0
 15  1  1  0  0  0  0
 16 15  2  0  0  0  0
 17 11  1  0  0  0  0
 18 12  1  0  0  0  0
 19 13  1  0  0  0  0
 20  6  1  0  0  0  0
 21 20  1  0  0  0  0
 22 21  1  0  0  0  0
M  END
>  <minimizedAffinity>
-4.39989758

>  <minimizedRMSD>
0.989437401

$$$$
