
 OpenBabel03212520043D

 35 38  0  0  0  0  0  0  0  0999 V2000
   40.6100   81.8850   57.0610 C   0  0  0  0  0  0  0  0  0  0  0  0
   41.6770   82.4690   56.3570 C   0  0  0  0  0  0  0  0  0  0  0  0
   42.4690   83.3610   57.0370 C   0  0  0  0  0  0  0  0  0  0  0  0
   42.2100   83.6460   58.3440 N   0  0  0  0  0  0  0  0  0  0  0  0
   41.1710   83.0610   58.9970 C   0  0  0  0  0  0  0  0  0  0  0  0
   40.3660   82.1780   58.3560 N   0  0  0  0  0  0  0  0  0  0  0  0
   39.9060   81.1730   56.6600 H   0  0  0  0  0  0  0  0  0  0  0  0
   41.7060   82.0680   55.3750 H   0  0  0  0  0  0  0  0  0  0  0  0
   39.6360   83.1410   60.8980 C   0  0  0  0  0  0  0  0  0  0  0  0
   40.9280   83.3450   60.4000 C   0  0  0  0  0  0  0  0  0  0  0  0
   41.9580   83.7870   61.2240 C   0  0  0  0  0  0  0  0  0  0  0  0
   41.7480   84.0460   62.5760 C   0  0  0  0  0  0  0  0  0  0  0  0
   42.4520   84.4600   63.6280 N   0  0  0  0  0  0  0  0  0  0  0  0
   41.6880   84.5230   64.7300 C   0  0  0  0  0  0  0  0  0  0  0  0
   40.4770   84.1310   64.3150 N   0  0  0  0  0  0  0  0  0  0  0  0
   40.4760   83.8330   63.0060 C   0  0  0  0  0  0  0  0  0  0  0  0
   39.3930   83.3920   62.2510 C   0  0  0  0  0  0  0  0  0  0  0  0
   38.8080   82.8000   60.2950 H   0  0  0  0  0  0  0  0  0  0  0  0
   42.9650   83.9470   60.8350 H   0  0  0  0  0  0  0  0  0  0  0  0
   43.4850   84.6870   63.5100 H   0  0  0  0  0  0  0  0  0  0  0  0
   42.1370   84.8460   65.6590 H   0  0  0  0  0  0  0  0  0  0  0  0
   38.4200   83.2520   62.6760 H   0  0  0  0  0  0  0  0  0  0  0  0
   42.5210   83.1730   54.0680 Cl  0  0  0  0  0  0  0  0  0  0  0  0
   43.7390   83.9930   55.0180 C   0  0  0  0  0  0  0  0  0  0  0  0
   43.5820   84.0140   56.3830 C   0  0  0  0  0  0  0  0  0  0  0  0
   44.5800   84.7120   57.0590 C   0  0  0  0  0  0  0  0  0  0  0  0
   45.6440   85.3350   56.4500 C   0  0  0  0  0  0  0  0  0  0  0  0
   45.7450   85.2730   55.0590 C   0  0  0  0  0  0  0  0  0  0  0  0
   47.0760   86.0460   54.2410 Cl  0  0  0  0  0  0  0  0  0  0  0  0
   44.7820   84.5940   54.3450 C   0  0  0  0  0  0  0  0  0  0  0  0
   44.5320   84.7770   58.1340 H   0  0  0  0  0  0  0  0  0  0  0  0
   46.3780   85.8570   57.0390 H   0  0  0  0  0  0  0  0  0  0  0  0
   44.9190   84.5430   52.8570 C   0  0  0  0  0  0  0  0  0  0  0  0
   44.2330   85.8330   52.3760 C   0  0  0  0  0  0  0  0  0  0  0  0
   44.0560   85.8360   51.2920 H   0  0  0  0  0  0  0  0  0  0  0  0
  1  6  1  0  0  0  0
  2  3  1  0  0  0  0
  2  1  2  0  0  0  0
  3  4  2  0  0  0  0
  4  5  1  0  0  0  0
  5 10  1  0  0  0  0
  6  5  2  0  0  0  0
  7  1  1  0  0  0  0
  8  2  1  0  0  0  0
  9 17  1  0  0  0  0
 10  9  2  0  0  0  0
 10 11  1  0  0  0  0
 11 12  2  0  0  0  0
 12 16  1  0  0  0  0
 12 13  1  0  0  0  0
 13 14  1  0  0  0  0
 14 21  1  0  0  0  0
 15 14  2  0  0  0  0
 16 15  1  0  0  0  0
 17 22  1  0  0  0  0
 17 16  2  0  0  0  0
 18  9  1  0  0  0  0
 19 11  1  0  0  0  0
 20 13  1  0  0  0  0
 23 24  1  0  0  0  0
 24 25  1  0  0  0  0
 25  3  1  0  0  0  0
 25 26  2  0  0  0  0
 26 31  1  0  0  0  0
 27 32  1  0  0  0  0
 27 26  1  0  0  0  0
 28 27  2  0  0  0  0
 29 28  1  0  0  0  0
 30 24  2  0  0  0  0
 30 28  1  0  0  0  0
 33 30  1  0  0  0  0
 34 33  1  0  0  0  0
 35 34  1  0  0  0  0
M  END
>  <minimizedAffinity>
-4.94299889

>  <minimizedRMSD>
0.287633151

$$$$
