
 OpenBabel03212521053D

 30 32  0  0  0  0  0  0  0  0999 V2000
   41.8080   84.2410   61.5730 C   0  0  0  0  0  0  0  0  0  0  0  0
   41.4460   83.9460   62.8780 C   0  0  0  0  0  0  0  0  0  0  0  0
   40.1570   83.5370   63.2010 C   0  0  0  0  0  0  0  0  0  0  0  0
   39.2080   83.4220   62.1840 C   0  0  0  0  0  0  0  0  0  0  0  0
   39.5760   83.7210   60.8700 C   0  0  0  0  0  0  0  0  0  0  0  0
   40.8570   84.1250   60.5600 C   0  0  0  0  0  0  0  0  0  0  0  0
   42.1340   84.0150   63.7130 H   0  0  0  0  0  0  0  0  0  0  0  0
   39.8740   83.3070   64.2160 H   0  0  0  0  0  0  0  0  0  0  0  0
   38.1980   83.1060   62.4170 H   0  0  0  0  0  0  0  0  0  0  0  0
   38.8340   83.6290   60.0920 H   0  0  0  0  0  0  0  0  0  0  0  0
   45.3490   84.1280   60.6910 C   0  0  0  0  0  0  0  0  0  0  0  0
   45.7350   85.4520   60.7570 C   0  0  0  0  0  0  0  0  0  0  0  0
   44.7640   86.4170   61.1110 C   0  0  0  0  0  0  0  0  0  0  0  0
   43.5090   85.9730   61.3650 N   0  0  0  0  0  0  0  0  0  0  0  0
   43.1660   84.6640   61.2910 C   0  0  0  0  0  0  0  0  0  0  0  0
   44.0770   83.7660   60.9580 N   0  0  0  0  0  0  0  0  0  0  0  0
   46.0500   83.3370   60.4240 H   0  0  0  0  0  0  0  0  0  0  0  0
   46.7480   85.7560   60.5450 H   0  0  0  0  0  0  0  0  0  0  0  0
   45.0140   87.4720   61.1780 H   0  0  0  0  0  0  0  0  0  0  0  0
   41.1890   84.4220   59.1890 C   0  0  0  0  0  0  0  0  0  0  0  0
   40.6750   85.6700   58.8000 C   0  0  0  0  0  0  0  0  0  0  0  0
   40.8850   86.1470   57.5040 C   0  0  0  0  0  0  0  0  0  0  0  0
   41.5920   85.3660   56.6650 N   0  0  0  0  0  0  0  0  0  0  0  0
   42.0810   84.1640   57.0560 C   0  0  0  0  0  0  0  0  0  0  0  0
   41.8810   83.7030   58.3010 N   0  0  0  0  0  0  0  0  0  0  0  0
   40.0970   86.3490   59.4270 H   0  0  0  0  0  0  0  0  0  0  0  0
   40.5120   87.0940   57.1610 H   0  0  0  0  0  0  0  0  0  0  0  0
   42.8560   83.3380   56.0900 C   0  0  0  0  0  2  0  0  0  0  0  0
   44.0530   82.7380   56.7580 C   0  0  0  0  0  2  0  0  0  0  0  0
   44.1480   81.6570   56.5220 H   0  0  0  0  0  0  0  0  0  0  0  0
  1  2  1  0  0  0  0
  2  3  2  0  0  0  0
  2  7  1  0  0  0  0
  3  8  1  0  0  0  0
  4  9  1  0  0  0  0
  4  3  1  0  0  0  0
  5  4  2  0  0  0  0
  6  5  1  0  0  0  0
  6  1  2  0  0  0  0
 10  5  1  0  0  0  0
 11 12  2  0  0  0  0
 11 16  1  0  0  0  0
 12 13  1  0  0  0  0
 13 19  1  0  0  0  0
 13 14  2  0  0  0  0
 15 14  1  0  0  0  0
 15  1  1  0  0  0  0
 16 15  2  0  0  0  0
 17 11  1  0  0  0  0
 18 12  1  0  0  0  0
 20  6  1  0  0  0  0
 21 20  1  0  0  0  0
 21 26  1  0  0  0  0
 22 21  2  0  0  0  0
 23 24  2  0  0  0  0
 23 22  1  0  0  0  0
 24 25  1  0  0  0  0
 25 20  2  0  0  0  0
 27 22  1  0  0  0  0
 28 29  1  0  0  0  0
 28 24  1  0  0  0  0
 30 29  1  0  0  0  0
M  END
>  <minimizedAffinity>
-5.10540009

>  <minimizedRMSD>
0.173390612

$$$$
