
 OpenBabel03212521063D

 30 32  0  0  0  0  0  0  0  0999 V2000
   41.8130   84.2410   61.5620 C   0  0  0  0  0  0  0  0  0  0  0  0
   41.4610   83.9530   62.8720 C   0  0  0  0  0  0  0  0  0  0  0  0
   40.1770   83.5350   63.2040 C   0  0  0  0  0  0  0  0  0  0  0  0
   39.2240   83.4030   62.1930 C   0  0  0  0  0  0  0  0  0  0  0  0
   39.5830   83.6940   60.8740 C   0  0  0  0  0  0  0  0  0  0  0  0
   40.8590   84.1080   60.5550 C   0  0  0  0  0  0  0  0  0  0  0  0
   42.1520   84.0350   63.7020 H   0  0  0  0  0  0  0  0  0  0  0  0
   39.9020   83.3100   64.2220 H   0  0  0  0  0  0  0  0  0  0  0  0
   38.2190   83.0790   62.4330 H   0  0  0  0  0  0  0  0  0  0  0  0
   38.8380   83.5890   60.1020 H   0  0  0  0  0  0  0  0  0  0  0  0
   45.3450   84.1570   60.6390 C   0  0  0  0  0  0  0  0  0  0  0  0
   45.7250   85.4820   60.7170 C   0  0  0  0  0  0  0  0  0  0  0  0
   44.7540   86.4370   61.0940 C   0  0  0  0  0  0  0  0  0  0  0  0
   43.5040   85.9840   61.3560 N   0  0  0  0  0  0  0  0  0  0  0  0
   43.1660   84.6740   61.2700 C   0  0  0  0  0  0  0  0  0  0  0  0
   44.0780   83.7840   60.9160 N   0  0  0  0  0  0  0  0  0  0  0  0
   46.0470   83.3720   60.3540 H   0  0  0  0  0  0  0  0  0  0  0  0
   46.7340   85.7930   60.4970 H   0  0  0  0  0  0  0  0  0  0  0  0
   44.9990   87.4920   61.1710 H   0  0  0  0  0  0  0  0  0  0  0  0
   41.1810   84.3970   59.1800 C   0  0  0  0  0  0  0  0  0  0  0  0
   40.7400   85.6790   58.8130 C   0  0  0  0  0  0  0  0  0  0  0  0
   40.9540   86.1550   57.5170 C   0  0  0  0  0  0  0  0  0  0  0  0
   41.5920   85.3390   56.6570 N   0  0  0  0  0  0  0  0  0  0  0  0
   42.0120   84.1040   57.0270 C   0  0  0  0  0  0  0  0  0  0  0  0
   41.8080   83.6440   58.2720 N   0  0  0  0  0  0  0  0  0  0  0  0
   40.2190   86.3870   59.4580 H   0  0  0  0  0  0  0  0  0  0  0  0
   40.6350   87.1270   57.1900 H   0  0  0  0  0  0  0  0  0  0  0  0
   42.7130   83.2400   56.0380 C   0  0  0  0  0  2  0  0  0  0  0  0
   42.6690   83.8620   54.6780 C   0  0  0  0  0  2  0  0  0  0  0  0
   43.6670   83.8440   54.1920 H   0  0  0  0  0  0  0  0  0  0  0  0
  1  2  1  0  0  0  0
  2  3  2  0  0  0  0
  2  7  1  0  0  0  0
  3  8  1  0  0  0  0
  4  9  1  0  0  0  0
  4  3  1  0  0  0  0
  5  4  2  0  0  0  0
  6  5  1  0  0  0  0
  6  1  2  0  0  0  0
 10  5  1  0  0  0  0
 11 12  2  0  0  0  0
 11 16  1  0  0  0  0
 12 13  1  0  0  0  0
 13 19  1  0  0  0  0
 13 14  2  0  0  0  0
 15 14  1  0  0  0  0
 15  1  1  0  0  0  0
 16 15  2  0  0  0  0
 17 11  1  0  0  0  0
 18 12  1  0  0  0  0
 20  6  1  0  0  0  0
 21 20  1  0  0  0  0
 21 26  1  0  0  0  0
 22 21  2  0  0  0  0
 23 24  2  0  0  0  0
 23 22  1  0  0  0  0
 24 25  1  0  0  0  0
 25 20  2  0  0  0  0
 27 22  1  0  0  0  0
 28 24  1  0  0  0  0
 29 28  1  0  0  0  0
 30 29  1  0  0  0  0
M  END
>  <minimizedAffinity>
-5.24798727

>  <minimizedRMSD>
0.164920136

$$$$
