
 OpenBabel03212521063D

 30 32  0  0  0  0  0  0  0  0999 V2000
   41.7930   84.1750   61.5690 C   0  0  0  0  0  0  0  0  0  0  0  0
   41.4310   83.9170   62.8830 C   0  0  0  0  0  0  0  0  0  0  0  0
   40.1300   83.5610   63.2210 C   0  0  0  0  0  0  0  0  0  0  0  0
   39.1700   83.4630   62.2140 C   0  0  0  0  0  0  0  0  0  0  0  0
   39.5390   83.7240   60.8910 C   0  0  0  0  0  0  0  0  0  0  0  0
   40.8320   84.0760   60.5650 C   0  0  0  0  0  0  0  0  0  0  0  0
   42.1270   83.9750   63.7110 H   0  0  0  0  0  0  0  0  0  0  0  0
   39.8470   83.3600   64.2420 H   0  0  0  0  0  0  0  0  0  0  0  0
   38.1510   83.1870   62.4590 H   0  0  0  0  0  0  0  0  0  0  0  0
   38.7880   83.6450   60.1210 H   0  0  0  0  0  0  0  0  0  0  0  0
   45.3040   83.9270   60.5950 C   0  0  0  0  0  0  0  0  0  0  0  0
   45.7560   85.2280   60.7040 C   0  0  0  0  0  0  0  0  0  0  0  0
   44.8420   86.2230   61.1200 C   0  0  0  0  0  0  0  0  0  0  0  0
   43.5730   85.8300   61.3870 N   0  0  0  0  0  0  0  0  0  0  0  0
   43.1640   84.5430   61.2710 C   0  0  0  0  0  0  0  0  0  0  0  0
   44.0220   83.6160   60.8800 N   0  0  0  0  0  0  0  0  0  0  0  0
   45.9580   83.1150   60.2790 H   0  0  0  0  0  0  0  0  0  0  0  0
   46.7770   85.4900   60.4790 H   0  0  0  0  0  0  0  0  0  0  0  0
   45.1450   87.2610   61.2220 H   0  0  0  0  0  0  0  0  0  0  0  0
   41.1630   84.3360   59.1870 C   0  0  0  0  0  0  0  0  0  0  0  0
   40.8750   85.6650   58.8360 C   0  0  0  0  0  0  0  0  0  0  0  0
   41.1240   86.1220   57.5400 C   0  0  0  0  0  0  0  0  0  0  0  0
   41.6440   85.2430   56.6630 N   0  0  0  0  0  0  0  0  0  0  0  0
   41.9170   83.9630   57.0180 C   0  0  0  0  0  0  0  0  0  0  0  0
   41.6790   83.5200   58.2630 N   0  0  0  0  0  0  0  0  0  0  0  0
   40.4550   86.4250   59.4950 H   0  0  0  0  0  0  0  0  0  0  0  0
   40.9200   87.1280   57.2250 H   0  0  0  0  0  0  0  0  0  0  0  0
   42.4900   83.0290   56.0110 C   0  0  0  0  0  2  0  0  0  0  0  0
   41.5450   81.8980   55.7500 C   0  0  0  0  0  2  0  0  0  0  0  0
   41.4240   81.7170   54.6600 H   0  0  0  0  0  0  0  0  0  0  0  0
  1  2  1  0  0  0  0
  2  3  2  0  0  0  0
  2  7  1  0  0  0  0
  3  8  1  0  0  0  0
  4  9  1  0  0  0  0
  4  3  1  0  0  0  0
  5  4  2  0  0  0  0
  6  5  1  0  0  0  0
  6  1  2  0  0  0  0
 10  5  1  0  0  0  0
 11 12  2  0  0  0  0
 11 16  1  0  0  0  0
 12 13  1  0  0  0  0
 13 19  1  0  0  0  0
 13 14  2  0  0  0  0
 15 14  1  0  0  0  0
 15  1  1  0  0  0  0
 16 15  2  0  0  0  0
 17 11  1  0  0  0  0
 18 12  1  0  0  0  0
 20  6  1  0  0  0  0
 21 20  1  0  0  0  0
 21 26  1  0  0  0  0
 22 21  2  0  0  0  0
 23 24  2  0  0  0  0
 23 22  1  0  0  0  0
 24 25  1  0  0  0  0
 25 20  2  0  0  0  0
 27 22  1  0  0  0  0
 28 24  1  0  0  0  0
 29 28  1  0  0  0  0
 30 29  1  0  0  0  0
M  END
>  <minimizedAffinity>
-5.25989151

>  <minimizedRMSD>
0.362890542

$$$$
