
 OpenBabel03212520063D

 35 38  0  0  0  0  0  0  0  0999 V2000
   43.3220   73.6260   60.4200 C   0  0  0  0  0  0  0  0  0  0  0  0
   43.3030   72.2430   60.6660 C   0  0  0  0  0  0  0  0  0  0  0  0
   42.1790   71.5500   60.2920 C   0  0  0  0  0  0  0  0  0  0  0  0
   41.1400   72.2030   59.7010 N   0  0  0  0  0  0  0  0  0  0  0  0
   41.1900   73.5420   59.4730 C   0  0  0  0  0  0  0  0  0  0  0  0
   42.2830   74.2600   59.8340 N   0  0  0  0  0  0  0  0  0  0  0  0
   44.1310   74.2980   60.6610 H   0  0  0  0  0  0  0  0  0  0  0  0
   44.2310   71.9550   61.0930 H   0  0  0  0  0  0  0  0  0  0  0  0
   40.0400   75.6170   58.8820 C   0  0  0  0  0  0  0  0  0  0  0  0
   40.0910   74.2200   58.8100 C   0  0  0  0  0  0  0  0  0  0  0  0
   39.1310   73.4970   58.1080 C   0  0  0  0  0  0  0  0  0  0  0  0
   38.0810   74.1320   57.4490 C   0  0  0  0  0  0  0  0  0  0  0  0
   37.0240   73.7940   56.7110 N   0  0  0  0  0  0  0  0  0  0  0  0
   36.3340   74.8800   56.3270 C   0  0  0  0  0  0  0  0  0  0  0  0
   37.0080   75.9060   56.8610 N   0  0  0  0  0  0  0  0  0  0  0  0
   38.0790   75.4880   57.5530 C   0  0  0  0  0  0  0  0  0  0  0  0
   38.9980   76.2830   58.2320 C   0  0  0  0  0  0  0  0  0  0  0  0
   40.7620   76.2160   59.4160 H   0  0  0  0  0  0  0  0  0  0  0  0
   39.1710   72.4090   58.0530 H   0  0  0  0  0  0  0  0  0  0  0  0
   36.8360   72.7680   56.5060 H   0  0  0  0  0  0  0  0  0  0  0  0
   35.4490   74.7470   55.7200 H   0  0  0  0  0  0  0  0  0  0  0  0
   38.9170   77.3510   58.2610 H   0  0  0  0  0  0  0  0  0  0  0  0
   41.6430   70.7190   63.0980 Cl  0  0  0  0  0  0  0  0  0  0  0  0
   41.8460   69.6020   61.7680 C   0  0  0  0  0  0  0  0  0  0  0  0
   42.0750   70.1250   60.5190 C   0  0  0  0  0  0  0  0  0  0  0  0
   42.1960   69.1660   59.5150 C   0  0  0  0  0  0  0  0  0  0  0  0
   42.1010   67.8090   59.7180 C   0  0  0  0  0  0  0  0  0  0  0  0
   41.8700   67.3450   61.0130 C   0  0  0  0  0  0  0  0  0  0  0  0
   41.7430   65.6340   61.3210 Cl  0  0  0  0  0  0  0  0  0  0  0  0
   41.7430   68.2540   62.0410 C   0  0  0  0  0  0  0  0  0  0  0  0
   42.3770   69.4930   58.5040 H   0  0  0  0  0  0  0  0  0  0  0  0
   42.2050   67.1280   58.8910 H   0  0  0  0  0  0  0  0  0  0  0  0
   41.4980   67.7250   63.4180 C   0  0  0  0  0  2  0  0  0  0  0  0
   39.9710   67.5520   63.4840 C   0  0  0  0  0  2  0  0  0  0  0  0
   39.6110   67.3790   64.5070 H   0  0  0  0  0  0  0  0  0  0  0  0
  1  7  1  0  0  0  0
  1  2  1  0  0  0  0
  2  8  1  0  0  0  0
  3 25  1  0  0  0  0
  3  2  2  0  0  0  0
  4  3  1  0  0  0  0
  5  4  2  0  0  0  0
  5  6  1  0  0  0  0
  6  1  2  0  0  0  0
  9 18  1  0  0  0  0
 10  9  1  0  0  0  0
 10  5  1  0  0  0  0
 11 10  2  0  0  0  0
 12 16  2  0  0  0  0
 12 11  1  0  0  0  0
 13 12  1  0  0  0  0
 14 13  1  0  0  0  0
 14 15  2  0  0  0  0
 15 16  1  0  0  0  0
 16 17  1  0  0  0  0
 17 22  1  0  0  0  0
 17  9  2  0  0  0  0
 19 11  1  0  0  0  0
 20 13  1  0  0  0  0
 21 14  1  0  0  0  0
 24 30  1  0  0  0  0
 24 23  1  0  0  0  0
 25 24  2  0  0  0  0
 26 27  2  0  0  0  0
 26 25  1  0  0  0  0
 27 28  1  0  0  0  0
 28 29  1  0  0  0  0
 28 30  2  0  0  0  0
 30 33  1  0  0  0  0
 31 26  1  0  0  0  0
 32 27  1  0  0  0  0
 33 34  1  0  0  0  0
 34 35  1  0  0  0  0
M  END
>  <minimizedAffinity>
-6.60080576

$$$$

 OpenBabel03212520063D

 35 38  0  0  0  0  0  0  0  0999 V2000
   43.4620   74.1250   60.1150 C   0  0  0  0  0  0  0  0  0  0  0  0
   43.4010   72.8870   60.7790 C   0  0  0  0  0  0  0  0  0  0  0  0
   42.1960   72.2290   60.7780 C   0  0  0  0  0  0  0  0  0  0  0  0
   41.1210   72.7750   60.1430 N   0  0  0  0  0  0  0  0  0  0  0  0
   41.2130   73.9720   59.5070 C   0  0  0  0  0  0  0  0  0  0  0  0
   42.3870   74.6530   59.4920 N   0  0  0  0  0  0  0  0  0  0  0  0
   44.3340   74.7540   60.0350 H   0  0  0  0  0  0  0  0  0  0  0  0
   44.3630   72.6500   61.1580 H   0  0  0  0  0  0  0  0  0  0  0  0
   39.9220   75.9170   58.7810 C   0  0  0  0  0  0  0  0  0  0  0  0
   40.0700   74.5250   58.8040 C   0  0  0  0  0  0  0  0  0  0  0  0
   39.1630   73.6910   58.1580 C   0  0  0  0  0  0  0  0  0  0  0  0
   38.0710   74.2050   57.4620 C   0  0  0  0  0  0  0  0  0  0  0  0
   37.0410   73.7450   56.7540 N   0  0  0  0  0  0  0  0  0  0  0  0
   36.2760   74.7520   56.3000 C   0  0  0  0  0  0  0  0  0  0  0  0
   36.8770   75.8560   56.7590 N   0  0  0  0  0  0  0  0  0  0  0  0
   37.9750   75.5610   57.4730 C   0  0  0  0  0  0  0  0  0  0  0  0
   38.8360   76.4630   58.0920 C   0  0  0  0  0  0  0  0  0  0  0  0
   40.6010   76.6000   59.2690 H   0  0  0  0  0  0  0  0  0  0  0  0
   39.2790   72.6070   58.1760 H   0  0  0  0  0  0  0  0  0  0  0  0
   36.9250   72.6970   56.6200 H   0  0  0  0  0  0  0  0  0  0  0  0
   35.4030   74.5170   55.7070 H   0  0  0  0  0  0  0  0  0  0  0  0
   38.6820   77.5220   58.0480 H   0  0  0  0  0  0  0  0  0  0  0  0
   42.2460   69.8270   59.0220 Cl  0  0  0  0  0  0  0  0  0  0  0  0
   42.0350   69.7670   60.7570 C   0  0  0  0  0  0  0  0  0  0  0  0
   42.0450   70.9560   61.4470 C   0  0  0  0  0  0  0  0  0  0  0  0
   41.8990   70.8130   62.8250 C   0  0  0  0  0  0  0  0  0  0  0  0
   41.7530   69.6090   63.4730 C   0  0  0  0  0  0  0  0  0  0  0  0
   41.7480   68.4400   62.7120 C   0  0  0  0  0  0  0  0  0  0  0  0
   41.5640   66.8900   63.4870 Cl  0  0  0  0  0  0  0  0  0  0  0  0
   41.8900   68.5280   61.3440 C   0  0  0  0  0  0  0  0  0  0  0  0
   41.8970   71.6980   63.4410 H   0  0  0  0  0  0  0  0  0  0  0  0
   41.6450   69.5790   64.5440 H   0  0  0  0  0  0  0  0  0  0  0  0
   41.8780   67.2580   60.5560 C   0  0  0  0  0  2  0  0  0  0  0  0
   43.3560   66.8360   60.5060 C   0  0  0  0  0  2  0  0  0  0  0  0
   43.5410   66.0370   59.7750 H   0  0  0  0  0  0  0  0  0  0  0  0
  1  2  1  0  0  0  0
  2  8  1  0  0  0  0
  3  2  2  0  0  0  0
  3 25  1  0  0  0  0
  4  3  1  0  0  0  0
  5  4  2  0  0  0  0
  6  5  1  0  0  0  0
  6  1  2  0  0  0  0
  7  1  1  0  0  0  0
  9 10  1  0  0  0  0
  9 18  1  0  0  0  0
 10  5  1  0  0  0  0
 11 19  1  0  0  0  0
 11 10  2  0  0  0  0
 12 16  2  0  0  0  0
 12 11  1  0  0  0  0
 13 12  1  0  0  0  0
 14 13  1  0  0  0  0
 14 15  2  0  0  0  0
 15 16  1  0  0  0  0
 16 17  1  0  0  0  0
 17  9  2  0  0  0  0
 20 13  1  0  0  0  0
 21 14  1  0  0  0  0
 22 17  1  0  0  0  0
 23 24  1  0  0  0  0
 24 30  2  0  0  0  0
 24 25  1  0  0  0  0
 25 26  2  0  0  0  0
 26 31  1  0  0  0  0
 26 27  1  0  0  0  0
 27 32  1  0  0  0  0
 28 27  2  0  0  0  0
 28 29  1  0  0  0  0
 30 28  1  0  0  0  0
 33 30  1  0  0  0  0
 34 33  1  0  0  0  0
 35 34  1  0  0  0  0
M  END
>  <minimizedAffinity>
-6.52348709

$$$$

 OpenBabel03212520063D

 35 38  0  0  0  0  0  0  0  0999 V2000
   41.4940   70.6440   56.1670 C   0  0  0  0  0  0  0  0  0  0  0  0
   41.6200   71.9900   56.5490 C   0  0  0  0  0  0  0  0  0  0  0  0
   41.7380   72.2570   57.8910 C   0  0  0  0  0  0  0  0  0  0  0  0
   41.7350   71.2360   58.7930 N   0  0  0  0  0  0  0  0  0  0  0  0
   41.6140   69.9440   58.3910 C   0  0  0  0  0  0  0  0  0  0  0  0
   41.4920   69.6430   57.0730 N   0  0  0  0  0  0  0  0  0  0  0  0
   41.3910   70.2830   55.1560 H   0  0  0  0  0  0  0  0  0  0  0  0
   41.6380   72.5970   55.6790 H   0  0  0  0  0  0  0  0  0  0  0  0
   41.4330   67.5590   58.8970 C   0  0  0  0  0  0  0  0  0  0  0  0
   41.6490   68.8630   59.3590 C   0  0  0  0  0  0  0  0  0  0  0  0
   41.9090   69.1200   60.7010 C   0  0  0  0  0  0  0  0  0  0  0  0
   41.9660   68.0930   61.6410 C   0  0  0  0  0  0  0  0  0  0  0  0
   42.1800   67.9560   62.9490 N   0  0  0  0  0  0  0  0  0  0  0  0
   42.1110   66.6670   63.3190 C   0  0  0  0  0  0  0  0  0  0  0  0
   41.8450   66.0110   62.1840 N   0  0  0  0  0  0  0  0  0  0  0  0
   41.7480   66.8490   61.1390 C   0  0  0  0  0  0  0  0  0  0  0  0
   41.4830   66.5070   59.8160 C   0  0  0  0  0  0  0  0  0  0  0  0
   41.2270   67.3150   57.8670 H   0  0  0  0  0  0  0  0  0  0  0  0
   42.0770   70.1360   61.0600 H   0  0  0  0  0  0  0  0  0  0  0  0
   42.3730   68.8190   63.5400 H   0  0  0  0  0  0  0  0  0  0  0  0
   42.2670   66.4150   64.3590 H   0  0  0  0  0  0  0  0  0  0  0  0
   41.3230   65.4940   59.5090 H   0  0  0  0  0  0  0  0  0  0  0  0
   39.1970   73.5960   58.6690 Cl  0  0  0  0  0  0  0  0  0  0  0  0
   40.7690   74.3580   58.7470 C   0  0  0  0  0  0  0  0  0  0  0  0
   41.8620   73.6170   58.3690 C   0  0  0  0  0  0  0  0  0  0  0  0
   43.0750   74.2920   58.4900 C   0  0  0  0  0  0  0  0  0  0  0  0
   43.2060   75.5840   58.9400 C   0  0  0  0  0  0  0  0  0  0  0  0
   42.0540   76.2820   59.3060 C   0  0  0  0  0  0  0  0  0  0  0  0
   42.1690   77.9220   59.8820 Cl  0  0  0  0  0  0  0  0  0  0  0  0
   40.8300   75.6580   59.2050 C   0  0  0  0  0  0  0  0  0  0  0  0
   43.9830   73.7810   58.2140 H   0  0  0  0  0  0  0  0  0  0  0  0
   44.1790   76.0400   59.0070 H   0  0  0  0  0  0  0  0  0  0  0  0
   39.6140   76.4320   59.6010 C   0  0  0  0  0  2  0  0  0  0  0  0
   39.4300   76.1000   61.0910 C   0  0  0  0  0  2  0  0  0  0  0  0
   38.4510   76.4180   61.4760 H   0  0  0  0  0  0  0  0  0  0  0  0
  1  2  2  0  0  0  0
  1  6  1  0  0  0  0
  2  3  1  0  0  0  0
  3 25  1  0  0  0  0
  3  4  2  0  0  0  0
  5  4  1  0  0  0  0
  5 10  1  0  0  0  0
  6  5  2  0  0  0  0
  7  1  1  0  0  0  0
  8  2  1  0  0  0  0
  9 10  2  0  0  0  0
  9 17  1  0  0  0  0
 10 11  1  0  0  0  0
 11 19  1  0  0  0  0
 11 12  2  0  0  0  0
 12 13  1  0  0  0  0
 13 14  1  0  0  0  0
 13 20  1  0  0  0  0
 14 21  1  0  0  0  0
 15 14  2  0  0  0  0
 16 12  1  0  0  0  0
 16 15  1  0  0  0  0
 17 16  2  0  0  0  0
 18  9  1  0  0  0  0
 22 17  1  0  0  0  0
 23 24  1  0  0  0  0
 24 30  1  0  0  0  0
 25 26  1  0  0  0  0
 25 24  2  0  0  0  0
 26 27  2  0  0  0  0
 27 32  1  0  0  0  0
 27 28  1  0  0  0  0
 28 29  1  0  0  0  0
 30 28  2  0  0  0  0
 30 33  1  0  0  0  0
 31 26  1  0  0  0  0
 33 34  1  0  0  0  0
 34 35  1  0  0  0  0
M  END
>  <minimizedAffinity>
-6.23531103

$$$$

 OpenBabel03212520063D

 35 38  0  0  0  0  0  0  0  0999 V2000
   44.4460   74.2970   59.9880 C   0  0  0  0  0  0  0  0  0  0  0  0
   43.4910   75.0830   59.3190 C   0  0  0  0  0  0  0  0  0  0  0  0
   42.1960   74.6290   59.3090 C   0  0  0  0  0  0  0  0  0  0  0  0
   41.8760   73.4620   59.9360 N   0  0  0  0  0  0  0  0  0  0  0  0
   42.8220   72.7270   60.5770 C   0  0  0  0  0  0  0  0  0  0  0  0
   44.1130   73.1430   60.6040 N   0  0  0  0  0  0  0  0  0  0  0  0
   45.4970   74.5230   60.0770 H   0  0  0  0  0  0  0  0  0  0  0  0
   43.9620   75.9580   58.9470 H   0  0  0  0  0  0  0  0  0  0  0  0
   42.1900   71.5840   62.6430 C   0  0  0  0  0  0  0  0  0  0  0  0
   42.4620   71.5050   61.2720 C   0  0  0  0  0  0  0  0  0  0  0  0
   42.3720   70.2980   60.5860 C   0  0  0  0  0  0  0  0  0  0  0  0
   42.0090   69.1190   61.2330 C   0  0  0  0  0  0  0  0  0  0  0  0
   41.8250   67.8350   60.9270 N   0  0  0  0  0  0  0  0  0  0  0  0
   41.4600   67.1260   62.0070 C   0  0  0  0  0  0  0  0  0  0  0  0
   41.4280   68.0260   62.9970 N   0  0  0  0  0  0  0  0  0  0  0  0
   41.7580   69.2520   62.5630 C   0  0  0  0  0  0  0  0  0  0  0  0
   41.8240   70.4180   63.3210 C   0  0  0  0  0  0  0  0  0  0  0  0
   42.2480   72.4980   63.2140 H   0  0  0  0  0  0  0  0  0  0  0  0
   42.5840   70.2370   59.5180 H   0  0  0  0  0  0  0  0  0  0  0  0
   41.9710   67.5110   59.9240 H   0  0  0  0  0  0  0  0  0  0  0  0
   41.2780   66.0660   61.8970 H   0  0  0  0  0  0  0  0  0  0  0  0
   41.6080   70.4290   64.3700 H   0  0  0  0  0  0  0  0  0  0  0  0
   41.8570   74.0470   56.4100 Cl  0  0  0  0  0  0  0  0  0  0  0  0
   40.8990   75.2150   57.2930 C   0  0  0  0  0  0  0  0  0  0  0  0
   41.1540   75.3720   58.6340 C   0  0  0  0  0  0  0  0  0  0  0  0
   40.3280   76.3000   59.2640 C   0  0  0  0  0  0  0  0  0  0  0  0
   39.3360   77.0150   58.6340 C   0  0  0  0  0  0  0  0  0  0  0  0
   39.1310   76.8080   57.2690 C   0  0  0  0  0  0  0  0  0  0  0  0
   37.8870   77.6900   56.4260 Cl  0  0  0  0  0  0  0  0  0  0  0  0
   39.9230   75.9000   56.6000 C   0  0  0  0  0  0  0  0  0  0  0  0
   40.4620   76.4840   60.3170 H   0  0  0  0  0  0  0  0  0  0  0  0
   38.7360   77.7160   59.1880 H   0  0  0  0  0  0  0  0  0  0  0  0
   39.6810   75.7030   55.1390 C   0  0  0  0  0  2  0  0  0  0  0  0
   38.6550   74.5590   55.0820 C   0  0  0  0  0  2  0  0  0  0  0  0
   38.5390   74.1470   54.0700 H   0  0  0  0  0  0  0  0  0  0  0  0
  1  7  1  0  0  0  0
  1  6  1  0  0  0  0
  2  1  2  0  0  0  0
  3  2  1  0  0  0  0
  3  4  2  0  0  0  0
  4  5  1  0  0  0  0
  5  6  2  0  0  0  0
  5 10  1  0  0  0  0
  8  2  1  0  0  0  0
  9 18  1  0  0  0  0
  9 17  1  0  0  0  0
 10  9  2  0  0  0  0
 11 12  2  0  0  0  0
 11 10  1  0  0  0  0
 12 16  1  0  0  0  0
 13 12  1  0  0  0  0
 13 14  1  0  0  0  0
 14 15  2  0  0  0  0
 16 15  1  0  0  0  0
 16 17  2  0  0  0  0
 17 22  1  0  0  0  0
 19 11  1  0  0  0  0
 20 13  1  0  0  0  0
 21 14  1  0  0  0  0
 23 24  1  0  0  0  0
 24 25  1  0  0  0  0
 25 26  2  0  0  0  0
 25  3  1  0  0  0  0
 26 31  1  0  0  0  0
 27 32  1  0  0  0  0
 27 26  1  0  0  0  0
 28 27  2  0  0  0  0
 29 28  1  0  0  0  0
 30 28  1  0  0  0  0
 30 24  2  0  0  0  0
 33 30  1  0  0  0  0
 34 33  1  0  0  0  0
 35 34  1  0  0  0  0
M  END
>  <minimizedAffinity>
-6.21922922

$$$$

 OpenBabel03212520063D

 35 38  0  0  0  0  0  0  0  0999 V2000
   43.9630   73.8800   60.1610 C   0  0  0  0  0  0  0  0  0  0  0  0
   43.1090   74.3080   59.1290 C   0  0  0  0  0  0  0  0  0  0  0  0
   42.0170   73.5250   58.8480 C   0  0  0  0  0  0  0  0  0  0  0  0
   41.7920   72.3860   59.5610 N   0  0  0  0  0  0  0  0  0  0  0  0
   42.6350   72.0010   60.5550 C   0  0  0  0  0  0  0  0  0  0  0  0
   43.7260   72.7490   60.8590 N   0  0  0  0  0  0  0  0  0  0  0  0
   44.8560   74.3880   60.4910 H   0  0  0  0  0  0  0  0  0  0  0  0
   43.4620   75.2340   58.7510 H   0  0  0  0  0  0  0  0  0  0  0  0
   42.3470   70.9170   62.7280 C   0  0  0  0  0  0  0  0  0  0  0  0
   42.3640   70.8050   61.3320 C   0  0  0  0  0  0  0  0  0  0  0  0
   42.1090   69.5920   60.7020 C   0  0  0  0  0  0  0  0  0  0  0  0
   41.8280   68.4380   61.4310 C   0  0  0  0  0  0  0  0  0  0  0  0
   41.5470   67.1580   61.1920 N   0  0  0  0  0  0  0  0  0  0  0  0
   41.3590   66.4810   62.3370 C   0  0  0  0  0  0  0  0  0  0  0  0
   41.5380   67.3980   63.2960 N   0  0  0  0  0  0  0  0  0  0  0  0
   41.8260   68.6030   62.7800 C   0  0  0  0  0  0  0  0  0  0  0  0
   42.0690   69.7770   63.4870 C   0  0  0  0  0  0  0  0  0  0  0  0
   42.5400   71.8370   63.2580 H   0  0  0  0  0  0  0  0  0  0  0  0
   42.1230   69.5050   59.6150 H   0  0  0  0  0  0  0  0  0  0  0  0
   41.4980   66.8120   60.1880 H   0  0  0  0  0  0  0  0  0  0  0  0
   41.1220   65.4270   62.2860 H   0  0  0  0  0  0  0  0  0  0  0  0
   42.0470   69.8150   64.5570 H   0  0  0  0  0  0  0  0  0  0  0  0
   39.8370   75.3950   59.6220 Cl  0  0  0  0  0  0  0  0  0  0  0  0
   40.0330   74.7310   58.0160 C   0  0  0  0  0  0  0  0  0  0  0  0
   41.0950   73.8880   57.7950 C   0  0  0  0  0  0  0  0  0  0  0  0
   41.1920   73.4280   56.4830 C   0  0  0  0  0  0  0  0  0  0  0  0
   40.3210   73.7640   55.4740 C   0  0  0  0  0  0  0  0  0  0  0  0
   39.2610   74.6230   55.7670 C   0  0  0  0  0  0  0  0  0  0  0  0
   38.1300   75.0770   54.5210 Cl  0  0  0  0  0  0  0  0  0  0  0  0
   39.1220   75.1060   57.0500 C   0  0  0  0  0  0  0  0  0  0  0  0
   41.9980   72.7620   56.2250 H   0  0  0  0  0  0  0  0  0  0  0  0
   40.4610   73.3690   54.4820 H   0  0  0  0  0  0  0  0  0  0  0  0
   37.9760   76.0220   57.3340 C   0  0  0  0  0  2  0  0  0  0  0  0
   38.5540   77.4270   57.0960 C   0  0  0  0  0  2  0  0  0  0  0  0
   37.8980   78.2220   57.4750 H   0  0  0  0  0  0  0  0  0  0  0  0
  1  7  1  0  0  0  0
  1  6  1  0  0  0  0
  2  1  2  0  0  0  0
  3  2  1  0  0  0  0
  3  4  2  0  0  0  0
  4  5  1  0  0  0  0
  5  6  2  0  0  0  0
  5 10  1  0  0  0  0
  8  2  1  0  0  0  0
  9 18  1  0  0  0  0
  9 17  1  0  0  0  0
 10  9  2  0  0  0  0
 11 10  1  0  0  0  0
 11 12  2  0  0  0  0
 12 16  1  0  0  0  0
 13 12  1  0  0  0  0
 13 14  1  0  0  0  0
 14 15  2  0  0  0  0
 16 15  1  0  0  0  0
 16 17  2  0  0  0  0
 17 22  1  0  0  0  0
 19 11  1  0  0  0  0
 20 13  1  0  0  0  0
 21 14  1  0  0  0  0
 24 23  1  0  0  0  0
 25 24  1  0  0  0  0
 25  3  1  0  0  0  0
 26 25  2  0  0  0  0
 27 28  2  0  0  0  0
 27 26  1  0  0  0  0
 28 30  1  0  0  0  0
 29 28  1  0  0  0  0
 30 33  1  0  0  0  0
 30 24  2  0  0  0  0
 31 26  1  0  0  0  0
 32 27  1  0  0  0  0
 34 33  1  0  0  0  0
 34 35  1  0  0  0  0
M  END
>  <minimizedAffinity>
-5.96926308

$$$$

 OpenBabel03212520063D

 35 38  0  0  0  0  0  0  0  0999 V2000
   41.7960   69.7130   58.9270 C   0  0  0  0  0  0  0  0  0  0  0  0
   41.9300   71.0520   59.3320 C   0  0  0  0  0  0  0  0  0  0  0  0
   41.7300   72.0220   58.3810 C   0  0  0  0  0  0  0  0  0  0  0  0
   41.4100   71.6710   57.1050 N   0  0  0  0  0  0  0  0  0  0  0  0
   41.2850   70.3660   56.7450 C   0  0  0  0  0  0  0  0  0  0  0  0
   41.4790   69.3800   57.6580 N   0  0  0  0  0  0  0  0  0  0  0  0
   41.9250   68.8480   59.5590 H   0  0  0  0  0  0  0  0  0  0  0  0
   42.1410   71.0800   60.3720 H   0  0  0  0  0  0  0  0  0  0  0  0
   41.0980   68.6800   54.9850 C   0  0  0  0  0  0  0  0  0  0  0  0
   40.9070   70.0060   55.3910 C   0  0  0  0  0  0  0  0  0  0  0  0
   40.3540   70.9510   54.5330 C   0  0  0  0  0  0  0  0  0  0  0  0
   39.9680   70.6190   53.2360 C   0  0  0  0  0  0  0  0  0  0  0  0
   39.4290   71.2210   52.1770 N   0  0  0  0  0  0  0  0  0  0  0  0
   39.2760   70.3620   51.1560 C   0  0  0  0  0  0  0  0  0  0  0  0
   39.7450   69.2010   51.6290 N   0  0  0  0  0  0  0  0  0  0  0  0
   40.1770   69.3200   52.8950 C   0  0  0  0  0  0  0  0  0  0  0  0
   40.7210   68.3160   53.6900 C   0  0  0  0  0  0  0  0  0  0  0  0
   41.5240   67.9150   55.6170 H   0  0  0  0  0  0  0  0  0  0  0  0
   40.2060   71.9840   54.8490 H   0  0  0  0  0  0  0  0  0  0  0  0
   39.1850   72.2550   52.2310 H   0  0  0  0  0  0  0  0  0  0  0  0
   38.8470   70.7220   50.2310 H   0  0  0  0  0  0  0  0  0  0  0  0
   40.8500   67.3130   53.3350 H   0  0  0  0  0  0  0  0  0  0  0  0
   39.1990   73.4310   59.0630 Cl  0  0  0  0  0  0  0  0  0  0  0  0
   40.7700   74.2000   59.0320 C   0  0  0  0  0  0  0  0  0  0  0  0
   41.8580   73.4240   58.7130 C   0  0  0  0  0  0  0  0  0  0  0  0
   43.0710   74.1090   58.7400 C   0  0  0  0  0  0  0  0  0  0  0  0
   43.2070   75.4420   59.0510 C   0  0  0  0  0  0  0  0  0  0  0  0
   42.0600   76.1720   59.3630 C   0  0  0  0  0  0  0  0  0  0  0  0
   42.1800   77.8640   59.7630 Cl  0  0  0  0  0  0  0  0  0  0  0  0
   40.8350   75.5400   59.3510 C   0  0  0  0  0  0  0  0  0  0  0  0
   43.9760   73.5740   58.5020 H   0  0  0  0  0  0  0  0  0  0  0  0
   44.1790   75.9030   59.0520 H   0  0  0  0  0  0  0  0  0  0  0  0
   39.6250   76.3500   59.6870 C   0  0  0  0  0  2  0  0  0  0  0  0
   39.4610   76.1620   61.2040 C   0  0  0  0  0  2  0  0  0  0  0  0
   38.4870   76.5160   61.5700 H   0  0  0  0  0  0  0  0  0  0  0  0
  1  2  1  0  0  0  0
  1  7  1  0  0  0  0
  2  8  1  0  0  0  0
  3 25  1  0  0  0  0
  3  2  2  0  0  0  0
  4  3  1  0  0  0  0
  5  4  2  0  0  0  0
  5  6  1  0  0  0  0
  6  1  2  0  0  0  0
  9 10  1  0  0  0  0
  9 18  1  0  0  0  0
 10  5  1  0  0  0  0
 11 19  1  0  0  0  0
 11 10  2  0  0  0  0
 12 11  1  0  0  0  0
 13 20  1  0  0  0  0
 13 12  1  0  0  0  0
 14 15  2  0  0  0  0
 14 13  1  0  0  0  0
 15 16  1  0  0  0  0
 16 12  2  0  0  0  0
 16 17  1  0  0  0  0
 17  9  2  0  0  0  0
 21 14  1  0  0  0  0
 22 17  1  0  0  0  0
 24 23  1  0  0  0  0
 24 30  1  0  0  0  0
 25 26  1  0  0  0  0
 25 24  2  0  0  0  0
 26 27  2  0  0  0  0
 27 32  1  0  0  0  0
 27 28  1  0  0  0  0
 28 29  1  0  0  0  0
 30 28  2  0  0  0  0
 30 33  1  0  0  0  0
 31 26  1  0  0  0  0
 33 34  1  0  0  0  0
 34 35  1  0  0  0  0
M  END
>  <minimizedAffinity>
-5.90857553

$$$$

 OpenBabel03212520063D

 35 38  0  0  0  0  0  0  0  0999 V2000
   44.0230   70.5530   57.6530 C   0  0  0  0  0  0  0  0  0  0  0  0
   43.1610   71.6530   57.5020 C   0  0  0  0  0  0  0  0  0  0  0  0
   41.9500   71.5980   58.1470 C   0  0  0  0  0  0  0  0  0  0  0  0
   41.6260   70.5110   58.9010 N   0  0  0  0  0  0  0  0  0  0  0  0
   42.4840   69.4650   59.0300 C   0  0  0  0  0  0  0  0  0  0  0  0
   43.6880   69.4820   58.4040 N   0  0  0  0  0  0  0  0  0  0  0  0
   45.0000   70.4530   57.2070 H   0  0  0  0  0  0  0  0  0  0  0  0
   43.6400   72.3900   56.9090 H   0  0  0  0  0  0  0  0  0  0  0  0
   42.3160   67.0450   59.3350 C   0  0  0  0  0  0  0  0  0  0  0  0
   42.1430   68.3280   59.8660 C   0  0  0  0  0  0  0  0  0  0  0  0
   41.6760   68.5160   61.1630 C   0  0  0  0  0  0  0  0  0  0  0  0
   41.3620   67.4380   61.9870 C   0  0  0  0  0  0  0  0  0  0  0  0
   40.9120   67.2320   63.2240 N   0  0  0  0  0  0  0  0  0  0  0  0
   40.7990   65.9200   63.4870 C   0  0  0  0  0  0  0  0  0  0  0  0
   41.1970   65.3210   62.3590 N   0  0  0  0  0  0  0  0  0  0  0  0
   41.5480   66.2150   61.4210 C   0  0  0  0  0  0  0  0  0  0  0  0
   42.0090   65.9420   60.1360 C   0  0  0  0  0  0  0  0  0  0  0  0
   42.6730   66.8530   58.3350 H   0  0  0  0  0  0  0  0  0  0  0  0
   41.5410   69.5160   61.5760 H   0  0  0  0  0  0  0  0  0  0  0  0
   40.6990   68.0670   63.8480 H   0  0  0  0  0  0  0  0  0  0  0  0
   40.4430   65.6130   64.4610 H   0  0  0  0  0  0  0  0  0  0  0  0
   42.1240   64.9410   59.7720 H   0  0  0  0  0  0  0  0  0  0  0  0
   42.1180   73.6910   60.2560 Cl  0  0  0  0  0  0  0  0  0  0  0  0
   40.9550   73.7090   58.9490 C   0  0  0  0  0  0  0  0  0  0  0  0
   41.0000   72.6830   58.0350 C   0  0  0  0  0  0  0  0  0  0  0  0
   40.0590   72.7920   57.0130 C   0  0  0  0  0  0  0  0  0  0  0  0
   39.1500   73.8170   56.8980 C   0  0  0  0  0  0  0  0  0  0  0  0
   39.1570   74.8250   57.8620 C   0  0  0  0  0  0  0  0  0  0  0  0
   38.0230   76.1450   57.7580 Cl  0  0  0  0  0  0  0  0  0  0  0  0
   40.0690   74.7640   58.8930 C   0  0  0  0  0  0  0  0  0  0  0  0
   40.0270   72.0280   56.2540 H   0  0  0  0  0  0  0  0  0  0  0  0
   38.4520   73.8330   56.0780 H   0  0  0  0  0  0  0  0  0  0  0  0
   40.0500   75.8580   59.9110 C   0  0  0  0  0  2  0  0  0  0  0  0
   39.1560   75.3060   61.0340 C   0  0  0  0  0  2  0  0  0  0  0  0
   38.8640   76.0800   61.7570 H   0  0  0  0  0  0  0  0  0  0  0  0
  1  6  1  0  0  0  0
  2  1  2  0  0  0  0
  2  3  1  0  0  0  0
  3  4  2  0  0  0  0
  4  5  1  0  0  0  0
  5 10  1  0  0  0  0
  6  5  2  0  0  0  0
  7  1  1  0  0  0  0
  8  2  1  0  0  0  0
  9 10  2  0  0  0  0
  9 17  1  0  0  0  0
 10 11  1  0  0  0  0
 11 19  1  0  0  0  0
 11 12  2  0  0  0  0
 12 13  1  0  0  0  0
 13 14  1  0  0  0  0
 13 20  1  0  0  0  0
 14 21  1  0  0  0  0
 15 14  2  0  0  0  0
 16 12  1  0  0  0  0
 16 15  1  0  0  0  0
 17 16  2  0  0  0  0
 18  9  1  0  0  0  0
 22 17  1  0  0  0  0
 24 23  1  0  0  0  0
 25  3  1  0  0  0  0
 25 24  2  0  0  0  0
 26 25  1  0  0  0  0
 27 26  2  0  0  0  0
 27 28  1  0  0  0  0
 28 30  2  0  0  0  0
 29 28  1  0  0  0  0
 30 24  1  0  0  0  0
 30 33  1  0  0  0  0
 31 26  1  0  0  0  0
 32 27  1  0  0  0  0
 33 34  1  0  0  0  0
 34 35  1  0  0  0  0
M  END
>  <minimizedAffinity>
-5.87337494

$$$$

 OpenBabel03212520063D

 35 38  0  0  0  0  0  0  0  0999 V2000
   38.5230   74.1980   61.1620 C   0  0  0  0  0  0  0  0  0  0  0  0
   39.5430   73.2350   61.2440 C   0  0  0  0  0  0  0  0  0  0  0  0
   40.1910   72.9010   60.0810 C   0  0  0  0  0  0  0  0  0  0  0  0
   39.8410   73.5000   58.9080 N   0  0  0  0  0  0  0  0  0  0  0  0
   38.8510   74.4300   58.8630 C   0  0  0  0  0  0  0  0  0  0  0  0
   38.1870   74.7830   59.9930 N   0  0  0  0  0  0  0  0  0  0  0  0
   37.9270   74.5570   61.9870 H   0  0  0  0  0  0  0  0  0  0  0  0
   39.6630   72.9440   62.2570 H   0  0  0  0  0  0  0  0  0  0  0  0
   39.2070   76.2560   57.2760 C   0  0  0  0  0  0  0  0  0  0  0  0
   38.5130   75.0880   57.6140 C   0  0  0  0  0  0  0  0  0  0  0  0
   37.5400   74.5580   56.7730 C   0  0  0  0  0  0  0  0  0  0  0  0
   37.2160   75.1650   55.5620 C   0  0  0  0  0  0  0  0  0  0  0  0
   36.3820   74.9620   54.5420 N   0  0  0  0  0  0  0  0  0  0  0  0
   36.5170   75.9170   53.6080 C   0  0  0  0  0  0  0  0  0  0  0  0
   37.4700   76.7220   54.0940 N   0  0  0  0  0  0  0  0  0  0  0  0
   37.9190   76.2950   55.2850 C   0  0  0  0  0  0  0  0  0  0  0  0
   38.9040   76.8890   56.0680 C   0  0  0  0  0  0  0  0  0  0  0  0
   39.9680   76.7020   57.8980 H   0  0  0  0  0  0  0  0  0  0  0  0
   36.9990   73.6480   57.0370 H   0  0  0  0  0  0  0  0  0  0  0  0
   35.7320   74.1200   54.5580 H   0  0  0  0  0  0  0  0  0  0  0  0
   35.8970   75.8710   52.7230 H   0  0  0  0  0  0  0  0  0  0  0  0
   39.4080   77.7850   55.7680 H   0  0  0  0  0  0  0  0  0  0  0  0
   39.9800   70.7890   57.9950 Cl  0  0  0  0  0  0  0  0  0  0  0  0
   41.2650   70.8720   59.1790 C   0  0  0  0  0  0  0  0  0  0  0  0
   41.2460   71.9120   60.0770 C   0  0  0  0  0  0  0  0  0  0  0  0
   42.3210   71.9160   60.9630 C   0  0  0  0  0  0  0  0  0  0  0  0
   43.3280   70.9800   60.9710 C   0  0  0  0  0  0  0  0  0  0  0  0
   43.2860   69.9480   60.0330 C   0  0  0  0  0  0  0  0  0  0  0  0
   44.5390   68.7380   60.0030 Cl  0  0  0  0  0  0  0  0  0  0  0  0
   42.2430   69.9000   59.1330 C   0  0  0  0  0  0  0  0  0  0  0  0
   42.3810   72.6990   61.7010 H   0  0  0  0  0  0  0  0  0  0  0  0
   44.1280   71.0500   61.6880 H   0  0  0  0  0  0  0  0  0  0  0  0
   42.2240   68.7810   58.1430 C   0  0  0  0  0  2  0  0  0  0  0  0
   41.3340   67.7140   58.8020 C   0  0  0  0  0  2  0  0  0  0  0  0
   41.4000   66.7410   58.2970 H   0  0  0  0  0  0  0  0  0  0  0  0
  1  2  1  0  0  0  0
  1  7  1  0  0  0  0
  2  8  1  0  0  0  0
  3  2  2  0  0  0  0
  4  3  1  0  0  0  0
  5  4  2  0  0  0  0
  5  6  1  0  0  0  0
  6  1  2  0  0  0  0
  9 10  1  0  0  0  0
  9 18  1  0  0  0  0
 10  5  1  0  0  0  0
 11 19  1  0  0  0  0
 11 10  2  0  0  0  0
 12 11  1  0  0  0  0
 13 20  1  0  0  0  0
 13 12  1  0  0  0  0
 14 15  2  0  0  0  0
 14 13  1  0  0  0  0
 15 16  1  0  0  0  0
 16 12  2  0  0  0  0
 16 17  1  0  0  0  0
 17  9  2  0  0  0  0
 21 14  1  0  0  0  0
 22 17  1  0  0  0  0
 23 24  1  0  0  0  0
 24 25  1  0  0  0  0
 25  3  1  0  0  0  0
 25 26  2  0  0  0  0
 26 27  1  0  0  0  0
 26 31  1  0  0  0  0
 27 32  1  0  0  0  0
 28 27  2  0  0  0  0
 29 28  1  0  0  0  0
 30 24  2  0  0  0  0
 30 28  1  0  0  0  0
 33 34  1  0  0  0  0
 33 30  1  0  0  0  0
 35 34  1  0  0  0  0
M  END
>  <minimizedAffinity>
-5.84472895

$$$$

 OpenBabel03212520063D

 35 38  0  0  0  0  0  0  0  0999 V2000
   42.9740   71.4700   56.5770 C   0  0  0  0  0  0  0  0  0  0  0  0
   43.1380   70.6140   57.6800 C   0  0  0  0  0  0  0  0  0  0  0  0
   42.1640   70.6380   58.6470 C   0  0  0  0  0  0  0  0  0  0  0  0
   41.0900   71.4660   58.5140 N   0  0  0  0  0  0  0  0  0  0  0  0
   40.9590   72.2790   57.4330 C   0  0  0  0  0  0  0  0  0  0  0  0
   41.9040   72.2840   56.4590 N   0  0  0  0  0  0  0  0  0  0  0  0
   43.6550   71.5620   55.7450 H   0  0  0  0  0  0  0  0  0  0  0  0
   44.0210   70.0410   57.5450 H   0  0  0  0  0  0  0  0  0  0  0  0
   39.1420   73.5620   58.4460 C   0  0  0  0  0  0  0  0  0  0  0  0
   39.7920   73.1280   57.2840 C   0  0  0  0  0  0  0  0  0  0  0  0
   39.3480   73.5110   56.0230 C   0  0  0  0  0  0  0  0  0  0  0  0
   38.2410   74.3410   55.8610 C   0  0  0  0  0  0  0  0  0  0  0  0
   37.5540   74.8960   54.8640 N   0  0  0  0  0  0  0  0  0  0  0  0
   36.5350   75.6360   55.3290 C   0  0  0  0  0  0  0  0  0  0  0  0
   36.6200   75.5150   56.6600 N   0  0  0  0  0  0  0  0  0  0  0  0
   37.6480   74.7320   57.0210 C   0  0  0  0  0  0  0  0  0  0  0  0
   38.0270   74.3960   58.3170 C   0  0  0  0  0  0  0  0  0  0  0  0
   39.4500   73.2890   59.4430 H   0  0  0  0  0  0  0  0  0  0  0  0
   39.8550   73.1730   55.1180 H   0  0  0  0  0  0  0  0  0  0  0  0
   37.8540   74.7160   53.8590 H   0  0  0  0  0  0  0  0  0  0  0  0
   35.8940   76.1440   54.6220 H   0  0  0  0  0  0  0  0  0  0  0  0
   37.4970   74.7520   59.1770 H   0  0  0  0  0  0  0  0  0  0  0  0
   40.9910   67.9160   58.3890 Cl  0  0  0  0  0  0  0  0  0  0  0  0
   41.7480   68.5220   59.8450 C   0  0  0  0  0  0  0  0  0  0  0  0
   42.2610   69.7970   59.8190 C   0  0  0  0  0  0  0  0  0  0  0  0
   42.8700   70.1880   61.0100 C   0  0  0  0  0  0  0  0  0  0  0  0
   42.9670   69.3980   62.1310 C   0  0  0  0  0  0  0  0  0  0  0  0
   42.4220   68.1140   62.0910 C   0  0  0  0  0  0  0  0  0  0  0  0
   42.5190   67.0760   63.4870 Cl  0  0  0  0  0  0  0  0  0  0  0  0
   41.8090   67.6800   60.9350 C   0  0  0  0  0  0  0  0  0  0  0  0
   43.2990   71.1740   61.0740 H   0  0  0  0  0  0  0  0  0  0  0  0
   43.4540   69.7700   63.0170 H   0  0  0  0  0  0  0  0  0  0  0  0
   41.2330   66.3010   60.9240 C   0  0  0  0  0  2  0  0  0  0  0  0
   42.3810   65.4220   60.3990 C   0  0  0  0  0  2  0  0  0  0  0  0
   42.0460   64.4130   60.1230 H   0  0  0  0  0  0  0  0  0  0  0  0
  1  2  1  0  0  0  0
  2  3  2  0  0  0  0
  3 25  1  0  0  0  0
  4  3  1  0  0  0  0
  5  4  2  0  0  0  0
  6  1  2  0  0  0  0
  6  5  1  0  0  0  0
  7  1  1  0  0  0  0
  8  2  1  0  0  0  0
  9 18  1  0  0  0  0
 10  5  1  0  0  0  0
 10  9  2  0  0  0  0
 11 10  1  0  0  0  0
 12 11  2  0  0  0  0
 12 16  1  0  0  0  0
 13 14  1  0  0  0  0
 13 12  1  0  0  0  0
 14 15  2  0  0  0  0
 15 16  1  0  0  0  0
 16 17  2  0  0  0  0
 17  9  1  0  0  0  0
 17 22  1  0  0  0  0
 19 11  1  0  0  0  0
 20 13  1  0  0  0  0
 21 14  1  0  0  0  0
 23 24  1  0  0  0  0
 24 30  1  0  0  0  0
 25 24  2  0  0  0  0
 25 26  1  0  0  0  0
 26 31  1  0  0  0  0
 26 27  2  0  0  0  0
 27 32  1  0  0  0  0
 28 27  1  0  0  0  0
 28 29  1  0  0  0  0
 30 28  2  0  0  0  0
 33 30  1  0  0  0  0
 34 33  1  0  0  0  0
 35 34  1  0  0  0  0
M  END
>  <minimizedAffinity>
-5.78309917

$$$$
