
 OpenBabel03212521063D

 30 32  0  0  0  0  0  0  0  0999 V2000
   41.8130   84.2340   61.5760 C   0  0  0  0  0  0  0  0  0  0  0  0
   41.4640   83.9740   62.8930 C   0  0  0  0  0  0  0  0  0  0  0  0
   40.1830   83.5570   63.2370 C   0  0  0  0  0  0  0  0  0  0  0  0
   39.2290   83.3980   62.2310 C   0  0  0  0  0  0  0  0  0  0  0  0
   39.5840   83.6610   60.9050 C   0  0  0  0  0  0  0  0  0  0  0  0
   40.8570   84.0740   60.5740 C   0  0  0  0  0  0  0  0  0  0  0  0
   42.1570   84.0770   63.7200 H   0  0  0  0  0  0  0  0  0  0  0  0
   39.9110   83.3540   64.2600 H   0  0  0  0  0  0  0  0  0  0  0  0
   38.2250   83.0750   62.4810 H   0  0  0  0  0  0  0  0  0  0  0  0
   38.8380   83.5350   60.1370 H   0  0  0  0  0  0  0  0  0  0  0  0
   45.3280   84.1530   60.5900 C   0  0  0  0  0  0  0  0  0  0  0  0
   45.7170   85.4740   60.6950 C   0  0  0  0  0  0  0  0  0  0  0  0
   44.7580   86.4250   61.1120 C   0  0  0  0  0  0  0  0  0  0  0  0
   43.5100   85.9720   61.3840 N   0  0  0  0  0  0  0  0  0  0  0  0
   43.1630   84.6660   61.2720 C   0  0  0  0  0  0  0  0  0  0  0  0
   44.0630   83.7810   60.8800 N   0  0  0  0  0  0  0  0  0  0  0  0
   46.0200   83.3720   60.2740 H   0  0  0  0  0  0  0  0  0  0  0  0
   46.7240   85.7850   60.4650 H   0  0  0  0  0  0  0  0  0  0  0  0
   45.0100   87.4760   61.2100 H   0  0  0  0  0  0  0  0  0  0  0  0
   41.1750   84.3330   59.1930 C   0  0  0  0  0  0  0  0  0  0  0  0
   40.8560   85.6540   58.8360 C   0  0  0  0  0  0  0  0  0  0  0  0
   41.0860   86.1100   57.5360 C   0  0  0  0  0  0  0  0  0  0  0  0
   41.6210   85.2360   56.6610 N   0  0  0  0  0  0  0  0  0  0  0  0
   41.9240   83.9650   57.0210 C   0  0  0  0  0  0  0  0  0  0  0  0
   41.7030   83.5240   58.2700 N   0  0  0  0  0  0  0  0  0  0  0  0
   40.4230   86.4080   59.4930 H   0  0  0  0  0  0  0  0  0  0  0  0
   40.8580   87.1090   57.2170 H   0  0  0  0  0  0  0  0  0  0  0  0
   42.5120   83.0390   56.0160 C   0  0  0  0  0  0  0  0  0  0  0  0
   41.5750   81.9060   55.7380 C   0  0  0  0  0  0  0  0  0  0  0  0
   41.4660   81.7290   54.6460 H   0  0  0  0  0  0  0  0  0  0  0  0
  1  2  1  0  0  0  0
  2  3  2  0  0  0  0
  2  7  1  0  0  0  0
  3  8  1  0  0  0  0
  4  9  1  0  0  0  0
  4  3  1  0  0  0  0
  5  4  2  0  0  0  0
  6  5  1  0  0  0  0
  6  1  2  0  0  0  0
 10  5  1  0  0  0  0
 11 12  2  0  0  0  0
 11 16  1  0  0  0  0
 12 13  1  0  0  0  0
 13 19  1  0  0  0  0
 13 14  2  0  0  0  0
 15 14  1  0  0  0  0
 15  1  1  0  0  0  0
 16 15  2  0  0  0  0
 17 11  1  0  0  0  0
 18 12  1  0  0  0  0
 20  6  1  0  0  0  0
 21 20  1  0  0  0  0
 21 26  1  0  0  0  0
 22 21  2  0  0  0  0
 23 24  2  0  0  0  0
 23 22  1  0  0  0  0
 24 25  1  0  0  0  0
 25 20  2  0  0  0  0
 27 22  1  0  0  0  0
 28 24  1  0  0  0  0
 29 28  1  0  0  0  0
 30 29  1  0  0  0  0
M  END
>  <minimizedAffinity>
-5.27359629

>  <minimizedRMSD>
0.219503284

$$$$
