
 OpenBabel03212520533D

 19 20  0  0  0  0  0  0  0  0999 V2000
   40.6710   82.4760   60.8120 C   0  0  0  0  0  0  0  0  0  0  0  0
   40.3490   81.1030   60.7410 C   0  0  0  0  0  0  0  0  0  0  0  0
   40.0900   80.5570   59.5270 C   0  0  0  0  0  0  0  0  0  0  0  0
   40.1540   81.3830   58.3860 C   0  0  0  0  0  0  0  0  0  0  0  0
   40.6110   83.0450   59.0720 S   0  0  0  0  0  0  0  0  0  0  0  0
   40.3100   80.5030   61.6360 H   0  0  0  0  0  0  0  0  0  0  0  0
   39.8330   79.5340   59.3220 H   0  0  0  0  0  0  0  0  0  0  0  0
   42.3170   84.6740   63.2210 C   0  0  0  0  0  0  0  0  0  0  0  0
   41.5350   84.5370   64.3820 C   0  0  0  0  0  0  0  0  0  0  0  0
   40.4320   83.6770   64.3230 C   0  0  0  0  0  0  0  0  0  0  0  0
   40.1720   83.0190   63.1550 N   0  0  0  0  0  0  0  0  0  0  0  0
   40.9710   83.1960   62.0620 C   0  0  0  0  0  0  0  0  0  0  0  0
   42.0240   84.0030   62.0800 N   0  0  0  0  0  0  0  0  0  0  0  0
   43.1730   85.3350   63.2480 H   0  0  0  0  0  0  0  0  0  0  0  0
   41.7570   85.0620   65.2870 H   0  0  0  0  0  0  0  0  0  0  0  0
   39.8280   83.5620   65.1990 H   0  0  0  0  0  0  0  0  0  0  0  0
   39.9390   81.1210   56.9770 C   0  0  0  0  0  0  0  0  0  0  0  0
   38.9000   80.0350   56.8340 C   0  0  0  0  0  0  0  0  0  0  0  0
   38.8370   79.8270   55.7380 H   0  0  0  0  0  0  0  0  0  0  0  0
  1 12  1  0  0  0  0
  2  1  2  0  0  0  0
  2  6  1  0  0  0  0
  3  2  1  0  0  0  0
  4  5  1  0  0  0  0
  4  3  2  0  0  0  0
  5  1  1  0  0  0  0
  7  3  1  0  0  0  0
  8 14  1  0  0  0  0
  8  9  1  0  0  0  0
  9 15  1  0  0  0  0
 10  9  2  0  0  0  0
 10 16  1  0  0  0  0
 11 10  1  0  0  0  0
 12 13  1  0  0  0  0
 12 11  2  0  0  0  0
 13  8  2  0  0  0  0
 17  4  1  0  0  0  0
 18 17  1  0  0  0  0
 19 18  1  0  0  0  0
M  END
>  <minimizedAffinity>
-4.1679759

>  <minimizedRMSD>
3.4741559

$$$$
