
 OpenBabel03212520533D

 19 20  0  0  0  0  0  0  0  0999 V2000
   38.8610   75.0020   59.0750 C   0  0  0  0  0  0  0  0  0  0  0  0
   39.1960   75.6390   60.2890 C   0  0  0  0  0  0  0  0  0  0  0  0
   39.7400   74.8980   61.2850 C   0  0  0  0  0  0  0  0  0  0  0  0
   39.9500   73.5210   61.0660 C   0  0  0  0  0  0  0  0  0  0  0  0
   39.3360   73.2530   59.3360 S   0  0  0  0  0  0  0  0  0  0  0  0
   39.0210   76.6960   60.4190 H   0  0  0  0  0  0  0  0  0  0  0  0
   40.0430   75.2450   62.2560 H   0  0  0  0  0  0  0  0  0  0  0  0
   38.1230   77.5700   56.5830 C   0  0  0  0  0  0  0  0  0  0  0  0
   37.1580   76.9640   55.7590 C   0  0  0  0  0  0  0  0  0  0  0  0
   36.7640   75.6570   56.0740 C   0  0  0  0  0  0  0  0  0  0  0  0
   37.3310   75.0420   57.1540 N   0  0  0  0  0  0  0  0  0  0  0  0
   38.2630   75.6860   57.9140 C   0  0  0  0  0  0  0  0  0  0  0  0
   38.6610   76.9240   57.6470 N   0  0  0  0  0  0  0  0  0  0  0  0
   38.4390   78.5780   56.3540 H   0  0  0  0  0  0  0  0  0  0  0  0
   36.7270   77.4640   54.9180 H   0  0  0  0  0  0  0  0  0  0  0  0
   36.0300   75.1830   55.4560 H   0  0  0  0  0  0  0  0  0  0  0  0
   40.4970   72.4710   61.9020 C   0  0  0  0  0  2  0  0  0  0  0  0
   41.9100   72.8380   62.2850 C   0  0  0  0  0  2  0  0  0  0  0  0
   42.2990   71.9610   62.8580 H   0  0  0  0  0  0  0  0  0  0  0  0
  1  5  1  0  0  0  0
  1  2  2  0  0  0  0
  2  6  1  0  0  0  0
  2  3  1  0  0  0  0
  3  7  1  0  0  0  0
  4  3  2  0  0  0  0
  4 17  1  0  0  0  0
  5  4  1  0  0  0  0
  8 13  1  0  0  0  0
  9 10  1  0  0  0  0
  9  8  2  0  0  0  0
 10 11  2  0  0  0  0
 11 12  1  0  0  0  0
 12  1  1  0  0  0  0
 13 12  2  0  0  0  0
 14  8  1  0  0  0  0
 15  9  1  0  0  0  0
 16 10  1  0  0  0  0
 17 18  1  0  0  0  0
 18 19  1  0  0  0  0
M  END
>  <minimizedAffinity>
-4.34899759

$$$$

 OpenBabel03212520533D

 19 20  0  0  0  0  0  0  0  0999 V2000
   38.0860   75.7530   57.5240 C   0  0  0  0  0  0  0  0  0  0  0  0
   38.8270   76.6570   58.3150 C   0  0  0  0  0  0  0  0  0  0  0  0
   39.2770   76.2460   59.5270 C   0  0  0  0  0  0  0  0  0  0  0  0
   38.9860   74.9320   59.9460 C   0  0  0  0  0  0  0  0  0  0  0  0
   38.0100   74.2270   58.5340 S   0  0  0  0  0  0  0  0  0  0  0  0
   39.0300   77.6550   57.9600 H   0  0  0  0  0  0  0  0  0  0  0  0
   39.8490   76.8220   60.2320 H   0  0  0  0  0  0  0  0  0  0  0  0
   36.4670   77.5670   54.7990 C   0  0  0  0  0  0  0  0  0  0  0  0
   36.5190   76.6630   53.7230 C   0  0  0  0  0  0  0  0  0  0  0  0
   37.1200   75.4180   53.9490 C   0  0  0  0  0  0  0  0  0  0  0  0
   37.6210   75.1460   55.1900 N   0  0  0  0  0  0  0  0  0  0  0  0
   37.5380   76.0680   56.1930 C   0  0  0  0  0  0  0  0  0  0  0  0
   36.9770   77.2580   56.0160 N   0  0  0  0  0  0  0  0  0  0  0  0
   36.0070   78.5320   54.6410 H   0  0  0  0  0  0  0  0  0  0  0  0
   36.1200   76.8970   52.7580 H   0  0  0  0  0  0  0  0  0  0  0  0
   37.1660   74.7200   53.1400 H   0  0  0  0  0  0  0  0  0  0  0  0
   39.3090   74.1970   61.1520 C   0  0  0  0  0  2  0  0  0  0  0  0
   40.4690   73.2750   60.8670 C   0  0  0  0  0  2  0  0  0  0  0  0
   40.6170   72.6860   61.8050 H   0  0  0  0  0  0  0  0  0  0  0  0
  1  2  2  0  0  0  0
  1  5  1  0  0  0  0
  2  3  1  0  0  0  0
  3  4  2  0  0  0  0
  3  7  1  0  0  0  0
  4 17  1  0  0  0  0
  5  4  1  0  0  0  0
  6  2  1  0  0  0  0
  8 13  1  0  0  0  0
  9 10  1  0  0  0  0
  9  8  2  0  0  0  0
 10 11  2  0  0  0  0
 11 12  1  0  0  0  0
 12  1  1  0  0  0  0
 13 12  2  0  0  0  0
 14  8  1  0  0  0  0
 15  9  1  0  0  0  0
 16 10  1  0  0  0  0
 18 17  1  0  0  0  0
 18 19  1  0  0  0  0
M  END
>  <minimizedAffinity>
-4.2801857

$$$$

 OpenBabel03212520533D

 19 20  0  0  0  0  0  0  0  0999 V2000
   40.7010   73.4830   60.9610 C   0  0  0  0  0  0  0  0  0  0  0  0
   39.3760   73.8370   61.2920 C   0  0  0  0  0  0  0  0  0  0  0  0
   38.8310   74.9350   60.7140 C   0  0  0  0  0  0  0  0  0  0  0  0
   39.6110   75.6780   59.8030 C   0  0  0  0  0  0  0  0  0  0  0  0
   41.2250   74.7630   59.7610 S   0  0  0  0  0  0  0  0  0  0  0  0
   38.8100   73.2440   61.9940 H   0  0  0  0  0  0  0  0  0  0  0  0
   37.8410   75.3230   60.8700 H   0  0  0  0  0  0  0  0  0  0  0  0
   41.6830   70.7970   63.2350 C   0  0  0  0  0  0  0  0  0  0  0  0
   42.7330   70.1550   62.5550 C   0  0  0  0  0  0  0  0  0  0  0  0
   43.0990   70.6600   61.3000 C   0  0  0  0  0  0  0  0  0  0  0  0
   42.4250   71.7400   60.8050 N   0  0  0  0  0  0  0  0  0  0  0  0
   41.4140   72.3180   61.5160 C   0  0  0  0  0  0  0  0  0  0  0  0
   41.0390   71.8670   62.7070 N   0  0  0  0  0  0  0  0  0  0  0  0
   41.3870   70.4200   64.2040 H   0  0  0  0  0  0  0  0  0  0  0  0
   43.2470   69.3100   62.9620 H   0  0  0  0  0  0  0  0  0  0  0  0
   43.8970   70.1820   60.7720 H   0  0  0  0  0  0  0  0  0  0  0  0
   39.3380   76.8720   59.0290 C   0  0  0  0  0  2  0  0  0  0  0  0
   38.5190   76.4940   57.8190 C   0  0  0  0  0  2  0  0  0  0  0  0
   38.4090   77.4360   57.2290 H   0  0  0  0  0  0  0  0  0  0  0  0
  1  2  2  0  0  0  0
  1 12  1  0  0  0  0
  2  6  1  0  0  0  0
  3  7  1  0  0  0  0
  3  2  1  0  0  0  0
  4  3  2  0  0  0  0
  5  4  1  0  0  0  0
  5  1  1  0  0  0  0
  8 14  1  0  0  0  0
  9 15  1  0  0  0  0
  9  8  2  0  0  0  0
 10  9  1  0  0  0  0
 11 10  2  0  0  0  0
 11 12  1  0  0  0  0
 12 13  2  0  0  0  0
 13  8  1  0  0  0  0
 16 10  1  0  0  0  0
 17  4  1  0  0  0  0
 18 17  1  0  0  0  0
 19 18  1  0  0  0  0
M  END
>  <minimizedAffinity>
-4.22534227

$$$$

 OpenBabel03212520533D

 19 20  0  0  0  0  0  0  0  0999 V2000
   41.3300   72.0780   61.5050 C   0  0  0  0  0  0  0  0  0  0  0  0
   41.3060   71.5730   62.8230 C   0  0  0  0  0  0  0  0  0  0  0  0
   42.0480   70.4760   63.1140 C   0  0  0  0  0  0  0  0  0  0  0  0
   42.8140   69.8850   62.0880 C   0  0  0  0  0  0  0  0  0  0  0  0
   42.4630   70.9510   60.6100 S   0  0  0  0  0  0  0  0  0  0  0  0
   40.7080   72.0520   63.5820 H   0  0  0  0  0  0  0  0  0  0  0  0
   42.1260   69.9840   64.0670 H   0  0  0  0  0  0  0  0  0  0  0  0
   38.5700   74.4070   60.9580 C   0  0  0  0  0  0  0  0  0  0  0  0
   39.1580   75.4480   60.2170 C   0  0  0  0  0  0  0  0  0  0  0  0
   40.5200   75.3370   59.9080 C   0  0  0  0  0  0  0  0  0  0  0  0
   41.2030   74.2340   60.3370 N   0  0  0  0  0  0  0  0  0  0  0  0
   40.5730   73.2580   61.0530 C   0  0  0  0  0  0  0  0  0  0  0  0
   39.2850   73.3300   61.3650 N   0  0  0  0  0  0  0  0  0  0  0  0
   37.5200   74.4780   61.2060 H   0  0  0  0  0  0  0  0  0  0  0  0
   38.6040   76.3030   59.8920 H   0  0  0  0  0  0  0  0  0  0  0  0
   40.9800   76.1210   59.3440 H   0  0  0  0  0  0  0  0  0  0  0  0
   43.6940   68.7350   62.0650 C   0  0  0  0  0  2  0  0  0  0  0  0
   43.9260   68.2670   63.4810 C   0  0  0  0  0  2  0  0  0  0  0  0
   44.6660   67.4350   63.4010 H   0  0  0  0  0  0  0  0  0  0  0  0
  1  2  2  0  0  0  0
  2  3  1  0  0  0  0
  2  6  1  0  0  0  0
  3  7  1  0  0  0  0
  4  3  2  0  0  0  0
  5  1  1  0  0  0  0
  5  4  1  0  0  0  0
  8 14  1  0  0  0  0
  8 13  1  0  0  0  0
  9  8  2  0  0  0  0
 10  9  1  0  0  0  0
 10 11  2  0  0  0  0
 11 12  1  0  0  0  0
 12 13  2  0  0  0  0
 12  1  1  0  0  0  0
 15  9  1  0  0  0  0
 16 10  1  0  0  0  0
 17  4  1  0  0  0  0
 17 18  1  0  0  0  0
 19 18  1  0  0  0  0
M  END
>  <minimizedAffinity>
-4.12927151

$$$$

 OpenBabel03212520533D

 19 20  0  0  0  0  0  0  0  0999 V2000
   40.1380   74.5350   59.7610 C   0  0  0  0  0  0  0  0  0  0  0  0
   40.0120   75.9300   59.9360 C   0  0  0  0  0  0  0  0  0  0  0  0
   39.2620   76.6330   59.0510 C   0  0  0  0  0  0  0  0  0  0  0  0
   38.6390   75.9410   57.9930 C   0  0  0  0  0  0  0  0  0  0  0  0
   39.1450   74.1760   58.2640 S   0  0  0  0  0  0  0  0  0  0  0  0
   40.5040   76.4250   60.7580 H   0  0  0  0  0  0  0  0  0  0  0  0
   39.0790   77.6920   59.0590 H   0  0  0  0  0  0  0  0  0  0  0  0
   40.9690   72.1170   62.3700 C   0  0  0  0  0  0  0  0  0  0  0  0
   42.3690   72.0120   62.2900 C   0  0  0  0  0  0  0  0  0  0  0  0
   43.0240   72.7860   61.3230 C   0  0  0  0  0  0  0  0  0  0  0  0
   42.2780   73.5970   60.5150 N   0  0  0  0  0  0  0  0  0  0  0  0
   40.9210   73.6530   60.6450 C   0  0  0  0  0  0  0  0  0  0  0  0
   40.2660   72.9340   61.5470 N   0  0  0  0  0  0  0  0  0  0  0  0
   40.4470   71.5260   63.1100 H   0  0  0  0  0  0  0  0  0  0  0  0
   42.9330   71.3700   62.9330 H   0  0  0  0  0  0  0  0  0  0  0  0
   44.0890   72.7170   61.2510 H   0  0  0  0  0  0  0  0  0  0  0  0
   37.7910   76.3800   56.9030 C   0  0  0  0  0  2  0  0  0  0  0  0
   36.8820   75.2450   56.5010 C   0  0  0  0  0  2  0  0  0  0  0  0
   36.3150   75.6190   55.6150 H   0  0  0  0  0  0  0  0  0  0  0  0
  1  2  2  0  0  0  0
  1 12  1  0  0  0  0
  2  6  1  0  0  0  0
  3  7  1  0  0  0  0
  3  2  1  0  0  0  0
  4  5  1  0  0  0  0
  4  3  2  0  0  0  0
  5  1  1  0  0  0  0
  8 14  1  0  0  0  0
  9  8  1  0  0  0  0
  9 15  1  0  0  0  0
 10  9  2  0  0  0  0
 11 12  2  0  0  0  0
 11 10  1  0  0  0  0
 12 13  1  0  0  0  0
 13  8  2  0  0  0  0
 16 10  1  0  0  0  0
 17  4  1  0  0  0  0
 18 17  1  0  0  0  0
 19 18  1  0  0  0  0
M  END
>  <minimizedAffinity>
-4.05600786

$$$$

 OpenBabel03212520533D

 19 20  0  0  0  0  0  0  0  0999 V2000
   41.3850   72.0650   61.4720 C   0  0  0  0  0  0  0  0  0  0  0  0
   41.4590   71.5720   62.7930 C   0  0  0  0  0  0  0  0  0  0  0  0
   42.2190   70.4760   63.0370 C   0  0  0  0  0  0  0  0  0  0  0  0
   42.9050   69.8750   61.9620 C   0  0  0  0  0  0  0  0  0  0  0  0
   42.4460   70.9280   60.5050 S   0  0  0  0  0  0  0  0  0  0  0  0
   40.9190   72.0590   63.5900 H   0  0  0  0  0  0  0  0  0  0  0  0
   42.3670   69.9930   63.9860 H   0  0  0  0  0  0  0  0  0  0  0  0
   40.5100   75.3020   60.0220 C   0  0  0  0  0  0  0  0  0  0  0  0
   39.1390   75.4340   60.3110 C   0  0  0  0  0  0  0  0  0  0  0  0
   38.5200   74.3920   61.0130 C   0  0  0  0  0  0  0  0  0  0  0  0
   39.2700   73.3100   61.3790 N   0  0  0  0  0  0  0  0  0  0  0  0
   40.5970   73.2430   61.0680 C   0  0  0  0  0  0  0  0  0  0  0  0
   41.2170   74.2100   60.4030 N   0  0  0  0  0  0  0  0  0  0  0  0
   41.0030   76.0970   59.4800 H   0  0  0  0  0  0  0  0  0  0  0  0
   38.5720   76.2910   60.0150 H   0  0  0  0  0  0  0  0  0  0  0  0
   37.4790   74.4790   61.2410 H   0  0  0  0  0  0  0  0  0  0  0  0
   43.7790   68.7220   61.8830 C   0  0  0  0  0  2  0  0  0  0  0  0
   44.4850   68.7340   60.5490 C   0  0  0  0  0  2  0  0  0  0  0  0
   45.0780   67.7880   60.5200 H   0  0  0  0  0  0  0  0  0  0  0  0
  1  2  2  0  0  0  0
  2  3  1  0  0  0  0
  2  6  1  0  0  0  0
  3  7  1  0  0  0  0
  4  3  2  0  0  0  0
  5  1  1  0  0  0  0
  5  4  1  0  0  0  0
  8  9  2  0  0  0  0
  8 13  1  0  0  0  0
  9 10  1  0  0  0  0
 10 16  1  0  0  0  0
 10 11  2  0  0  0  0
 12 11  1  0  0  0  0
 12  1  1  0  0  0  0
 13 12  2  0  0  0  0
 14  8  1  0  0  0  0
 15  9  1  0  0  0  0
 17  4  1  0  0  0  0
 18 17  1  0  0  0  0
 19 18  1  0  0  0  0
M  END
>  <minimizedAffinity>
-3.9902823

$$$$

 OpenBabel03212520533D

 19 20  0  0  0  0  0  0  0  0999 V2000
   42.6130   71.6120   61.4500 C   0  0  0  0  0  0  0  0  0  0  0  0
   41.9750   71.5820   62.7090 C   0  0  0  0  0  0  0  0  0  0  0  0
   41.7540   70.3810   63.2980 C   0  0  0  0  0  0  0  0  0  0  0  0
   42.1700   69.2120   62.6300 C   0  0  0  0  0  0  0  0  0  0  0  0
   42.9270   69.8500   61.0600 S   0  0  0  0  0  0  0  0  0  0  0  0
   41.6710   72.4980   63.1900 H   0  0  0  0  0  0  0  0  0  0  0  0
   41.2820   70.2060   64.2480 H   0  0  0  0  0  0  0  0  0  0  0  0
   44.4820   74.2800   59.7970 C   0  0  0  0  0  0  0  0  0  0  0  0
   43.4770   75.1310   59.3030 C   0  0  0  0  0  0  0  0  0  0  0  0
   42.1450   74.7720   59.5460 C   0  0  0  0  0  0  0  0  0  0  0  0
   41.8900   73.6260   60.2450 N   0  0  0  0  0  0  0  0  0  0  0  0
   42.9130   72.8440   60.6990 C   0  0  0  0  0  0  0  0  0  0  0  0
   44.1860   73.1510   60.4860 N   0  0  0  0  0  0  0  0  0  0  0  0
   45.5160   74.5410   59.6180 H   0  0  0  0  0  0  0  0  0  0  0  0
   43.7000   76.0240   58.7580 H   0  0  0  0  0  0  0  0  0  0  0  0
   41.3700   75.4100   59.1760 H   0  0  0  0  0  0  0  0  0  0  0  0
   42.0860   67.8070   62.9740 C   0  0  0  0  0  2  0  0  0  0  0  0
   41.0130   67.1600   62.1330 C   0  0  0  0  0  2  0  0  0  0  0  0
   40.9460   66.1060   62.4980 H   0  0  0  0  0  0  0  0  0  0  0  0
  1  2  2  0  0  0  0
  2  6  1  0  0  0  0
  2  3  1  0  0  0  0
  3  7  1  0  0  0  0
  4 17  1  0  0  0  0
  4  3  2  0  0  0  0
  5  1  1  0  0  0  0
  5  4  1  0  0  0  0
  8 13  1  0  0  0  0
  9 10  1  0  0  0  0
  9  8  2  0  0  0  0
 10 11  2  0  0  0  0
 11 12  1  0  0  0  0
 12  1  1  0  0  0  0
 13 12  2  0  0  0  0
 14  8  1  0  0  0  0
 15  9  1  0  0  0  0
 16 10  1  0  0  0  0
 18 19  1  0  0  0  0
 18 17  1  0  0  0  0
M  END
>  <minimizedAffinity>
-3.94412971

$$$$

 OpenBabel03212520533D

 19 20  0  0  0  0  0  0  0  0999 V2000
   38.1830   75.3040   57.0130 C   0  0  0  0  0  0  0  0  0  0  0  0
   36.9000   75.5540   56.4790 C   0  0  0  0  0  0  0  0  0  0  0  0
   36.7380   75.5300   55.1340 C   0  0  0  0  0  0  0  0  0  0  0  0
   37.8580   75.2550   54.3220 C   0  0  0  0  0  0  0  0  0  0  0  0
   39.2350   75.0150   55.5420 S   0  0  0  0  0  0  0  0  0  0  0  0
   36.0670   75.7600   57.1320 H   0  0  0  0  0  0  0  0  0  0  0  0
   35.8260   75.7000   54.5900 H   0  0  0  0  0  0  0  0  0  0  0  0
   39.4540   76.3600   60.2710 C   0  0  0  0  0  0  0  0  0  0  0  0
   39.0880   75.3050   61.1260 C   0  0  0  0  0  0  0  0  0  0  0  0
   38.3970   74.2240   60.5650 C   0  0  0  0  0  0  0  0  0  0  0  0
   38.1150   74.2470   59.2280 N   0  0  0  0  0  0  0  0  0  0  0  0
   38.4990   75.3020   58.4520 C   0  0  0  0  0  0  0  0  0  0  0  0
   39.1540   76.3430   58.9490 N   0  0  0  0  0  0  0  0  0  0  0  0
   39.9870   77.2030   60.6880 H   0  0  0  0  0  0  0  0  0  0  0  0
   39.3190   75.3080   62.1710 H   0  0  0  0  0  0  0  0  0  0  0  0
   38.1130   73.4140   61.2040 H   0  0  0  0  0  0  0  0  0  0  0  0
   38.0240   75.1570   52.8860 C   0  0  0  0  0  2  0  0  0  0  0  0
   38.0410   76.5480   52.2990 C   0  0  0  0  0  2  0  0  0  0  0  0
   38.0930   76.4020   51.1930 H   0  0  0  0  0  0  0  0  0  0  0  0
  1 12  1  0  0  0  0
  2  1  2  0  0  0  0
  2  6  1  0  0  0  0
  3  2  1  0  0  0  0
  4  3  2  0  0  0  0
  4  5  1  0  0  0  0
  5  1  1  0  0  0  0
  7  3  1  0  0  0  0
  8 14  1  0  0  0  0
  8  9  1  0  0  0  0
  9 15  1  0  0  0  0
 10  9  2  0  0  0  0
 10 16  1  0  0  0  0
 11 10  1  0  0  0  0
 12 13  1  0  0  0  0
 12 11  2  0  0  0  0
 13  8  2  0  0  0  0
 17  4  1  0  0  0  0
 18 17  1  0  0  0  0
 19 18  1  0  0  0  0
M  END
>  <minimizedAffinity>
-3.92422748

$$$$

 OpenBabel03212520533D

 19 20  0  0  0  0  0  0  0  0999 V2000
   41.9800   69.8100   61.9340 C   0  0  0  0  0  0  0  0  0  0  0  0
   42.0520   70.8290   62.9080 C   0  0  0  0  0  0  0  0  0  0  0  0
   42.2610   72.1050   62.5010 C   0  0  0  0  0  0  0  0  0  0  0  0
   42.3970   72.3620   61.1220 C   0  0  0  0  0  0  0  0  0  0  0  0
   42.2170   70.6870   60.3440 S   0  0  0  0  0  0  0  0  0  0  0  0
   41.9440   70.5940   63.9550 H   0  0  0  0  0  0  0  0  0  0  0  0
   42.3390   72.9770   63.1260 H   0  0  0  0  0  0  0  0  0  0  0  0
   40.6710   66.7710   63.4820 C   0  0  0  0  0  0  0  0  0  0  0  0
   41.3430   65.7380   62.8040 C   0  0  0  0  0  0  0  0  0  0  0  0
   42.2540   66.1030   61.8050 C   0  0  0  0  0  0  0  0  0  0  0  0
   42.4440   67.4300   61.5410 N   0  0  0  0  0  0  0  0  0  0  0  0
   41.7590   68.3840   62.2370 C   0  0  0  0  0  0  0  0  0  0  0  0
   40.8880   68.0770   63.1890 N   0  0  0  0  0  0  0  0  0  0  0  0
   39.9630   66.5070   64.2560 H   0  0  0  0  0  0  0  0  0  0  0  0
   41.1790   64.7050   63.0280 H   0  0  0  0  0  0  0  0  0  0  0  0
   42.7740   65.3280   61.2820 H   0  0  0  0  0  0  0  0  0  0  0  0
   42.6220   73.5810   60.3720 C   0  0  0  0  0  2  0  0  0  0  0  0
   44.1080   73.8250   60.2700 C   0  0  0  0  0  2  0  0  0  0  0  0
   44.2120   74.8110   59.7540 H   0  0  0  0  0  0  0  0  0  0  0  0
  1 12  1  0  0  0  0
  1  2  2  0  0  0  0
  2  6  1  0  0  0  0
  3  2  1  0  0  0  0
  3  7  1  0  0  0  0
  4  3  2  0  0  0  0
  5  4  1  0  0  0  0
  5  1  1  0  0  0  0
  8 14  1  0  0  0  0
  9 15  1  0  0  0  0
  9  8  2  0  0  0  0
 10  9  1  0  0  0  0
 11 10  2  0  0  0  0
 11 12  1  0  0  0  0
 12 13  2  0  0  0  0
 13  8  1  0  0  0  0
 16 10  1  0  0  0  0
 17  4  1  0  0  0  0
 18 17  1  0  0  0  0
 19 18  1  0  0  0  0
M  END
>  <minimizedAffinity>
-3.86733365

$$$$
