
 OpenBabel03212521063D

 30 32  0  0  0  0  0  0  0  0999 V2000
   41.8360   84.2400   61.5710 C   0  0  0  0  0  0  0  0  0  0  0  0
   41.4750   83.9730   62.8830 C   0  0  0  0  0  0  0  0  0  0  0  0
   40.1920   83.5510   63.2130 C   0  0  0  0  0  0  0  0  0  0  0  0
   39.2490   83.3920   62.1970 C   0  0  0  0  0  0  0  0  0  0  0  0
   39.6160   83.6620   60.8760 C   0  0  0  0  0  0  0  0  0  0  0  0
   40.8910   84.0810   60.5590 C   0  0  0  0  0  0  0  0  0  0  0  0
   42.1590   84.0760   63.7180 H   0  0  0  0  0  0  0  0  0  0  0  0
   39.9110   83.3430   64.2330 H   0  0  0  0  0  0  0  0  0  0  0  0
   38.2440   83.0640   62.4350 H   0  0  0  0  0  0  0  0  0  0  0  0
   38.8780   83.5370   60.1000 H   0  0  0  0  0  0  0  0  0  0  0  0
   45.3760   84.1680   60.6780 C   0  0  0  0  0  0  0  0  0  0  0  0
   45.7450   85.4970   60.7340 C   0  0  0  0  0  0  0  0  0  0  0  0
   44.7620   86.4520   61.0860 C   0  0  0  0  0  0  0  0  0  0  0  0
   43.5140   85.9930   61.3460 N   0  0  0  0  0  0  0  0  0  0  0  0
   43.1880   84.6780   61.2820 C   0  0  0  0  0  0  0  0  0  0  0  0
   44.1090   83.7900   60.9520 N   0  0  0  0  0  0  0  0  0  0  0  0
   46.0860   83.3840   60.4130 H   0  0  0  0  0  0  0  0  0  0  0  0
   46.7530   85.8120   60.5170 H   0  0  0  0  0  0  0  0  0  0  0  0
   44.9980   87.5100   61.1450 H   0  0  0  0  0  0  0  0  0  0  0  0
   41.2210   84.3470   59.1820 C   0  0  0  0  0  0  0  0  0  0  0  0
   40.7820   85.6220   58.7900 C   0  0  0  0  0  0  0  0  0  0  0  0
   41.0040   86.0770   57.4890 C   0  0  0  0  0  0  0  0  0  0  0  0
   41.6490   85.2470   56.6460 N   0  0  0  0  0  0  0  0  0  0  0  0
   42.0670   84.0190   57.0400 C   0  0  0  0  0  0  0  0  0  0  0  0
   41.8550   83.5800   58.2900 N   0  0  0  0  0  0  0  0  0  0  0  0
   40.2570   86.3410   59.4200 H   0  0  0  0  0  0  0  0  0  0  0  0
   40.6860   87.0420   57.1430 H   0  0  0  0  0  0  0  0  0  0  0  0
   42.7750   83.1400   56.0700 C   0  0  0  0  0  2  0  0  0  0  0  0
   43.5680   82.0980   56.7930 C   0  0  0  0  0  2  0  0  0  0  0  0
   43.4050   81.0900   56.3560 H   0  0  0  0  0  0  0  0  0  0  0  0
  1  2  1  0  0  0  0
  2  3  2  0  0  0  0
  2  7  1  0  0  0  0
  3  8  1  0  0  0  0
  4  9  1  0  0  0  0
  4  3  1  0  0  0  0
  5  4  2  0  0  0  0
  6  5  1  0  0  0  0
  6  1  2  0  0  0  0
 10  5  1  0  0  0  0
 11 12  2  0  0  0  0
 11 16  1  0  0  0  0
 12 13  1  0  0  0  0
 13 19  1  0  0  0  0
 13 14  2  0  0  0  0
 15 14  1  0  0  0  0
 15  1  1  0  0  0  0
 16 15  2  0  0  0  0
 17 11  1  0  0  0  0
 18 12  1  0  0  0  0
 20  6  1  0  0  0  0
 21 20  1  0  0  0  0
 21 26  1  0  0  0  0
 22 21  2  0  0  0  0
 23 24  2  0  0  0  0
 23 22  1  0  0  0  0
 24 25  1  0  0  0  0
 25 20  2  0  0  0  0
 27 22  1  0  0  0  0
 28 29  1  0  0  0  0
 28 24  1  0  0  0  0
 30 29  1  0  0  0  0
M  END
>  <minimizedAffinity>
-5.11099005

>  <minimizedRMSD>
0.118970275

$$$$
