
 OpenBabel03212521063D

 30 32  0  0  0  0  0  0  0  0999 V2000
   41.8420   84.2370   61.5720 C   0  0  0  0  0  0  0  0  0  0  0  0
   41.4830   83.9710   62.8850 C   0  0  0  0  0  0  0  0  0  0  0  0
   40.2010   83.5450   63.2160 C   0  0  0  0  0  0  0  0  0  0  0  0
   39.2570   83.3850   62.2020 C   0  0  0  0  0  0  0  0  0  0  0  0
   39.6220   83.6550   60.8800 C   0  0  0  0  0  0  0  0  0  0  0  0
   40.8960   84.0760   60.5620 C   0  0  0  0  0  0  0  0  0  0  0  0
   42.1680   84.0750   63.7180 H   0  0  0  0  0  0  0  0  0  0  0  0
   39.9210   83.3370   64.2370 H   0  0  0  0  0  0  0  0  0  0  0  0
   38.2530   83.0550   62.4410 H   0  0  0  0  0  0  0  0  0  0  0  0
   38.8830   83.5280   60.1050 H   0  0  0  0  0  0  0  0  0  0  0  0
   45.3800   84.1720   60.6720 C   0  0  0  0  0  0  0  0  0  0  0  0
   45.7470   85.5020   60.7300 C   0  0  0  0  0  0  0  0  0  0  0  0
   44.7640   86.4540   61.0850 C   0  0  0  0  0  0  0  0  0  0  0  0
   43.5160   85.9930   61.3470 N   0  0  0  0  0  0  0  0  0  0  0  0
   43.1920   84.6780   61.2820 C   0  0  0  0  0  0  0  0  0  0  0  0
   44.1150   83.7920   60.9480 N   0  0  0  0  0  0  0  0  0  0  0  0
   46.0910   83.3900   60.4050 H   0  0  0  0  0  0  0  0  0  0  0  0
   46.7540   85.8190   60.5110 H   0  0  0  0  0  0  0  0  0  0  0  0
   44.9980   87.5120   61.1450 H   0  0  0  0  0  0  0  0  0  0  0  0
   41.2240   84.3420   59.1840 C   0  0  0  0  0  0  0  0  0  0  0  0
   40.7890   85.6190   58.7940 C   0  0  0  0  0  0  0  0  0  0  0  0
   41.0090   86.0740   57.4930 C   0  0  0  0  0  0  0  0  0  0  0  0
   41.6490   85.2430   56.6470 N   0  0  0  0  0  0  0  0  0  0  0  0
   42.0630   84.0120   57.0390 C   0  0  0  0  0  0  0  0  0  0  0  0
   41.8520   83.5730   58.2900 N   0  0  0  0  0  0  0  0  0  0  0  0
   40.2680   86.3390   59.4260 H   0  0  0  0  0  0  0  0  0  0  0  0
   40.6950   87.0420   57.1490 H   0  0  0  0  0  0  0  0  0  0  0  0
   42.7650   83.1310   56.0670 C   0  0  0  0  0  2  0  0  0  0  0  0
   43.4180   81.9870   56.7760 C   0  0  0  0  0  2  0  0  0  0  0  0
   43.2070   81.0230   56.2690 H   0  0  0  0  0  0  0  0  0  0  0  0
  1  2  1  0  0  0  0
  2  3  2  0  0  0  0
  2  7  1  0  0  0  0
  3  8  1  0  0  0  0
  4  9  1  0  0  0  0
  4  3  1  0  0  0  0
  5  4  2  0  0  0  0
  6  5  1  0  0  0  0
  6  1  2  0  0  0  0
 10  5  1  0  0  0  0
 11 12  2  0  0  0  0
 11 16  1  0  0  0  0
 12 13  1  0  0  0  0
 13 19  1  0  0  0  0
 13 14  2  0  0  0  0
 15 14  1  0  0  0  0
 15  1  1  0  0  0  0
 16 15  2  0  0  0  0
 17 11  1  0  0  0  0
 18 12  1  0  0  0  0
 20  6  1  0  0  0  0
 21 20  1  0  0  0  0
 21 26  1  0  0  0  0
 22 21  2  0  0  0  0
 23 24  2  0  0  0  0
 23 22  1  0  0  0  0
 24 25  1  0  0  0  0
 25 20  2  0  0  0  0
 27 22  1  0  0  0  0
 28 29  1  0  0  0  0
 28 24  1  0  0  0  0
 30 29  1  0  0  0  0
M  END
>  <minimizedAffinity>
-5.10446262

>  <minimizedRMSD>
0.09906324

$$$$
