
 OpenBabel03212521053D

 30 32  0  0  0  0  0  0  0  0999 V2000
   41.7930   84.1740   61.5690 C   0  0  0  0  0  0  0  0  0  0  0  0
   41.4310   83.9160   62.8820 C   0  0  0  0  0  0  0  0  0  0  0  0
   40.1290   83.5610   63.2210 C   0  0  0  0  0  0  0  0  0  0  0  0
   39.1700   83.4620   62.2130 C   0  0  0  0  0  0  0  0  0  0  0  0
   39.5390   83.7240   60.8910 C   0  0  0  0  0  0  0  0  0  0  0  0
   40.8310   84.0750   60.5650 C   0  0  0  0  0  0  0  0  0  0  0  0
   42.1260   83.9740   63.7110 H   0  0  0  0  0  0  0  0  0  0  0  0
   39.8470   83.3590   64.2420 H   0  0  0  0  0  0  0  0  0  0  0  0
   38.1510   83.1870   62.4580 H   0  0  0  0  0  0  0  0  0  0  0  0
   38.7880   83.6450   60.1210 H   0  0  0  0  0  0  0  0  0  0  0  0
   45.3040   83.9260   60.5960 C   0  0  0  0  0  0  0  0  0  0  0  0
   45.7560   85.2260   60.7040 C   0  0  0  0  0  0  0  0  0  0  0  0
   44.8420   86.2210   61.1200 C   0  0  0  0  0  0  0  0  0  0  0  0
   43.5730   85.8290   61.3880 N   0  0  0  0  0  0  0  0  0  0  0  0
   43.1640   84.5420   61.2710 C   0  0  0  0  0  0  0  0  0  0  0  0
   44.0210   83.6150   60.8800 N   0  0  0  0  0  0  0  0  0  0  0  0
   45.9580   83.1130   60.2800 H   0  0  0  0  0  0  0  0  0  0  0  0
   46.7780   85.4880   60.4790 H   0  0  0  0  0  0  0  0  0  0  0  0
   45.1450   87.2590   61.2220 H   0  0  0  0  0  0  0  0  0  0  0  0
   41.1630   84.3350   59.1870 C   0  0  0  0  0  0  0  0  0  0  0  0
   40.8760   85.6650   58.8360 C   0  0  0  0  0  0  0  0  0  0  0  0
   41.1250   86.1220   57.5410 C   0  0  0  0  0  0  0  0  0  0  0  0
   41.6440   85.2420   56.6630 N   0  0  0  0  0  0  0  0  0  0  0  0
   41.9160   83.9620   57.0180 C   0  0  0  0  0  0  0  0  0  0  0  0
   41.6780   83.5200   58.2630 N   0  0  0  0  0  0  0  0  0  0  0  0
   40.4570   86.4250   59.4950 H   0  0  0  0  0  0  0  0  0  0  0  0
   40.9210   87.1290   57.2260 H   0  0  0  0  0  0  0  0  0  0  0  0
   42.4890   83.0290   56.0100 C   0  0  0  0  0  2  0  0  0  0  0  0
   41.5460   81.8980   55.7490 C   0  0  0  0  0  2  0  0  0  0  0  0
   41.4240   81.7170   54.6600 H   0  0  0  0  0  0  0  0  0  0  0  0
  1  2  1  0  0  0  0
  2  3  2  0  0  0  0
  2  7  1  0  0  0  0
  3  8  1  0  0  0  0
  4  9  1  0  0  0  0
  4  3  1  0  0  0  0
  5  4  2  0  0  0  0
  6  5  1  0  0  0  0
  6  1  2  0  0  0  0
 10  5  1  0  0  0  0
 11 12  2  0  0  0  0
 11 16  1  0  0  0  0
 12 13  1  0  0  0  0
 13 19  1  0  0  0  0
 13 14  2  0  0  0  0
 15 14  1  0  0  0  0
 15  1  1  0  0  0  0
 16 15  2  0  0  0  0
 17 11  1  0  0  0  0
 18 12  1  0  0  0  0
 20  6  1  0  0  0  0
 21 20  1  0  0  0  0
 21 26  1  0  0  0  0
 22 21  2  0  0  0  0
 23 24  2  0  0  0  0
 23 22  1  0  0  0  0
 24 25  1  0  0  0  0
 25 20  2  0  0  0  0
 27 22  1  0  0  0  0
 28 24  1  0  0  0  0
 29 28  1  0  0  0  0
 30 29  1  0  0  0  0
M  END
>  <minimizedAffinity>
-5.25979424

>  <minimizedRMSD>
0.291023076

$$$$
