
 OpenBabel03212521063D

 30 32  0  0  0  0  0  0  0  0999 V2000
   41.8130   84.2340   61.5770 C   0  0  0  0  0  0  0  0  0  0  0  0
   41.4640   83.9750   62.8930 C   0  0  0  0  0  0  0  0  0  0  0  0
   40.1830   83.5580   63.2380 C   0  0  0  0  0  0  0  0  0  0  0  0
   39.2290   83.3990   62.2320 C   0  0  0  0  0  0  0  0  0  0  0  0
   39.5840   83.6610   60.9060 C   0  0  0  0  0  0  0  0  0  0  0  0
   40.8570   84.0740   60.5750 C   0  0  0  0  0  0  0  0  0  0  0  0
   42.1560   84.0790   63.7210 H   0  0  0  0  0  0  0  0  0  0  0  0
   39.9100   83.3560   64.2610 H   0  0  0  0  0  0  0  0  0  0  0  0
   38.2250   83.0760   62.4810 H   0  0  0  0  0  0  0  0  0  0  0  0
   38.8380   83.5350   60.1380 H   0  0  0  0  0  0  0  0  0  0  0  0
   45.3280   84.1530   60.5920 C   0  0  0  0  0  0  0  0  0  0  0  0
   45.7170   85.4740   60.6950 C   0  0  0  0  0  0  0  0  0  0  0  0
   44.7580   86.4250   61.1110 C   0  0  0  0  0  0  0  0  0  0  0  0
   43.5090   85.9730   61.3840 N   0  0  0  0  0  0  0  0  0  0  0  0
   43.1630   84.6670   61.2730 C   0  0  0  0  0  0  0  0  0  0  0  0
   44.0630   83.7810   60.8820 N   0  0  0  0  0  0  0  0  0  0  0  0
   46.0200   83.3720   60.2770 H   0  0  0  0  0  0  0  0  0  0  0  0
   46.7240   85.7850   60.4660 H   0  0  0  0  0  0  0  0  0  0  0  0
   45.0100   87.4770   61.2090 H   0  0  0  0  0  0  0  0  0  0  0  0
   41.1750   84.3330   59.1930 C   0  0  0  0  0  0  0  0  0  0  0  0
   40.8540   85.6520   58.8350 C   0  0  0  0  0  0  0  0  0  0  0  0
   41.0850   86.1070   57.5350 C   0  0  0  0  0  0  0  0  0  0  0  0
   41.6210   85.2340   56.6610 N   0  0  0  0  0  0  0  0  0  0  0  0
   41.9250   83.9630   57.0220 C   0  0  0  0  0  0  0  0  0  0  0  0
   41.7050   83.5240   58.2710 N   0  0  0  0  0  0  0  0  0  0  0  0
   40.4200   86.4070   59.4920 H   0  0  0  0  0  0  0  0  0  0  0  0
   40.8550   87.1060   57.2150 H   0  0  0  0  0  0  0  0  0  0  0  0
   42.5150   83.0370   56.0180 C   0  0  0  0  0  2  0  0  0  0  0  0
   41.5760   81.9090   55.7320 C   0  0  0  0  0  2  0  0  0  0  0  0
   41.4720   81.7350   54.6410 H   0  0  0  0  0  0  0  0  0  0  0  0
  1  2  1  0  0  0  0
  2  3  2  0  0  0  0
  2  7  1  0  0  0  0
  3  8  1  0  0  0  0
  4  9  1  0  0  0  0
  4  3  1  0  0  0  0
  5  4  2  0  0  0  0
  6  5  1  0  0  0  0
  6  1  2  0  0  0  0
 10  5  1  0  0  0  0
 11 12  2  0  0  0  0
 11 16  1  0  0  0  0
 12 13  1  0  0  0  0
 13 19  1  0  0  0  0
 13 14  2  0  0  0  0
 15 14  1  0  0  0  0
 15  1  1  0  0  0  0
 16 15  2  0  0  0  0
 17 11  1  0  0  0  0
 18 12  1  0  0  0  0
 20  6  1  0  0  0  0
 21 20  1  0  0  0  0
 21 26  1  0  0  0  0
 22 21  2  0  0  0  0
 23 24  2  0  0  0  0
 23 22  1  0  0  0  0
 24 25  1  0  0  0  0
 25 20  2  0  0  0  0
 27 22  1  0  0  0  0
 28 24  1  0  0  0  0
 29 28  1  0  0  0  0
 30 29  1  0  0  0  0
M  END
>  <minimizedAffinity>
-5.27358532

>  <minimizedRMSD>
0.193909988

$$$$
