
 OpenBabel03212521053D

 30 32  0  0  0  0  0  0  0  0999 V2000
   41.8410   84.2380   61.5720 C   0  0  0  0  0  0  0  0  0  0  0  0
   41.4820   83.9710   62.8850 C   0  0  0  0  0  0  0  0  0  0  0  0
   40.1990   83.5460   63.2160 C   0  0  0  0  0  0  0  0  0  0  0  0
   39.2560   83.3850   62.2010 C   0  0  0  0  0  0  0  0  0  0  0  0
   39.6220   83.6550   60.8790 C   0  0  0  0  0  0  0  0  0  0  0  0
   40.8950   84.0760   60.5620 C   0  0  0  0  0  0  0  0  0  0  0  0
   42.1660   84.0750   63.7190 H   0  0  0  0  0  0  0  0  0  0  0  0
   39.9190   83.3380   64.2360 H   0  0  0  0  0  0  0  0  0  0  0  0
   38.2520   83.0550   62.4400 H   0  0  0  0  0  0  0  0  0  0  0  0
   38.8830   83.5280   60.1040 H   0  0  0  0  0  0  0  0  0  0  0  0
   45.3800   84.1720   60.6760 C   0  0  0  0  0  0  0  0  0  0  0  0
   45.7460   85.5030   60.7320 C   0  0  0  0  0  0  0  0  0  0  0  0
   44.7620   86.4550   61.0840 C   0  0  0  0  0  0  0  0  0  0  0  0
   43.5150   85.9940   61.3460 N   0  0  0  0  0  0  0  0  0  0  0  0
   43.1910   84.6790   61.2820 C   0  0  0  0  0  0  0  0  0  0  0  0
   44.1140   83.7920   60.9510 N   0  0  0  0  0  0  0  0  0  0  0  0
   46.0910   83.3900   60.4110 H   0  0  0  0  0  0  0  0  0  0  0  0
   46.7530   85.8200   60.5130 H   0  0  0  0  0  0  0  0  0  0  0  0
   44.9960   87.5130   61.1420 H   0  0  0  0  0  0  0  0  0  0  0  0
   41.2240   84.3430   59.1840 C   0  0  0  0  0  0  0  0  0  0  0  0
   40.7890   85.6200   58.7940 C   0  0  0  0  0  0  0  0  0  0  0  0
   41.0100   86.0740   57.4920 C   0  0  0  0  0  0  0  0  0  0  0  0
   41.6500   85.2430   56.6470 N   0  0  0  0  0  0  0  0  0  0  0  0
   42.0640   84.0130   57.0390 C   0  0  0  0  0  0  0  0  0  0  0  0
   41.8530   83.5730   58.2900 N   0  0  0  0  0  0  0  0  0  0  0  0
   40.2670   86.3390   59.4250 H   0  0  0  0  0  0  0  0  0  0  0  0
   40.6950   87.0420   57.1480 H   0  0  0  0  0  0  0  0  0  0  0  0
   42.7660   83.1310   56.0670 C   0  0  0  0  0  2  0  0  0  0  0  0
   43.0580   81.8000   56.6850 C   0  0  0  0  0  2  0  0  0  0  0  0
   42.7760   80.9680   56.0060 H   0  0  0  0  0  0  0  0  0  0  0  0
  1  2  1  0  0  0  0
  2  3  2  0  0  0  0
  2  7  1  0  0  0  0
  3  8  1  0  0  0  0
  4  9  1  0  0  0  0
  4  3  1  0  0  0  0
  5  4  2  0  0  0  0
  6  5  1  0  0  0  0
  6  1  2  0  0  0  0
 10  5  1  0  0  0  0
 11 12  2  0  0  0  0
 11 16  1  0  0  0  0
 12 13  1  0  0  0  0
 13 19  1  0  0  0  0
 13 14  2  0  0  0  0
 15 14  1  0  0  0  0
 15  1  1  0  0  0  0
 16 15  2  0  0  0  0
 17 11  1  0  0  0  0
 18 12  1  0  0  0  0
 20  6  1  0  0  0  0
 21 20  1  0  0  0  0
 21 26  1  0  0  0  0
 22 21  2  0  0  0  0
 23 24  2  0  0  0  0
 23 22  1  0  0  0  0
 24 25  1  0  0  0  0
 25 20  2  0  0  0  0
 27 22  1  0  0  0  0
 28 29  1  0  0  0  0
 28 24  1  0  0  0  0
 30 29  1  0  0  0  0
M  END
>  <minimizedAffinity>
-5.11312485

>  <minimizedRMSD>
0.105506495

$$$$
