
 OpenBabel03212521063D

 30 32  0  0  0  0  0  0  0  0999 V2000
   41.8160   84.2420   61.5620 C   0  0  0  0  0  0  0  0  0  0  0  0
   41.4640   83.9540   62.8720 C   0  0  0  0  0  0  0  0  0  0  0  0
   40.1810   83.5340   63.2050 C   0  0  0  0  0  0  0  0  0  0  0  0
   39.2280   83.4010   62.1940 C   0  0  0  0  0  0  0  0  0  0  0  0
   39.5870   83.6930   60.8750 C   0  0  0  0  0  0  0  0  0  0  0  0
   40.8610   84.1080   60.5560 C   0  0  0  0  0  0  0  0  0  0  0  0
   42.1560   84.0360   63.7020 H   0  0  0  0  0  0  0  0  0  0  0  0
   39.9060   83.3100   64.2230 H   0  0  0  0  0  0  0  0  0  0  0  0
   38.2230   83.0760   62.4350 H   0  0  0  0  0  0  0  0  0  0  0  0
   38.8410   83.5870   60.1030 H   0  0  0  0  0  0  0  0  0  0  0  0
   45.3480   84.1600   60.6380 C   0  0  0  0  0  0  0  0  0  0  0  0
   45.7270   85.4860   60.7150 C   0  0  0  0  0  0  0  0  0  0  0  0
   44.7540   86.4400   61.0920 C   0  0  0  0  0  0  0  0  0  0  0  0
   43.5050   85.9860   61.3550 N   0  0  0  0  0  0  0  0  0  0  0  0
   43.1690   84.6750   61.2700 C   0  0  0  0  0  0  0  0  0  0  0  0
   44.0810   83.7870   60.9160 N   0  0  0  0  0  0  0  0  0  0  0  0
   46.0500   83.3760   60.3530 H   0  0  0  0  0  0  0  0  0  0  0  0
   46.7350   85.7970   60.4950 H   0  0  0  0  0  0  0  0  0  0  0  0
   44.9990   87.4950   61.1690 H   0  0  0  0  0  0  0  0  0  0  0  0
   41.1820   84.3970   59.1810 C   0  0  0  0  0  0  0  0  0  0  0  0
   40.7410   85.6780   58.8130 C   0  0  0  0  0  0  0  0  0  0  0  0
   40.9540   86.1540   57.5170 C   0  0  0  0  0  0  0  0  0  0  0  0
   41.5930   85.3380   56.6570 N   0  0  0  0  0  0  0  0  0  0  0  0
   42.0130   84.1030   57.0270 C   0  0  0  0  0  0  0  0  0  0  0  0
   41.8100   83.6440   58.2720 N   0  0  0  0  0  0  0  0  0  0  0  0
   40.2200   86.3860   59.4580 H   0  0  0  0  0  0  0  0  0  0  0  0
   40.6340   87.1250   57.1900 H   0  0  0  0  0  0  0  0  0  0  0  0
   42.7130   83.2400   56.0380 C   0  0  0  0  0  2  0  0  0  0  0  0
   42.6690   83.8610   54.6780 C   0  0  0  0  0  2  0  0  0  0  0  0
   43.6690   83.8430   54.1920 H   0  0  0  0  0  0  0  0  0  0  0  0
  1  2  1  0  0  0  0
  2  3  2  0  0  0  0
  2  7  1  0  0  0  0
  3  8  1  0  0  0  0
  4  9  1  0  0  0  0
  4  3  1  0  0  0  0
  5  4  2  0  0  0  0
  6  5  1  0  0  0  0
  6  1  2  0  0  0  0
 10  5  1  0  0  0  0
 11 12  2  0  0  0  0
 11 16  1  0  0  0  0
 12 13  1  0  0  0  0
 13 19  1  0  0  0  0
 13 14  2  0  0  0  0
 15 14  1  0  0  0  0
 15  1  1  0  0  0  0
 16 15  2  0  0  0  0
 17 11  1  0  0  0  0
 18 12  1  0  0  0  0
 20  6  1  0  0  0  0
 21 20  1  0  0  0  0
 21 26  1  0  0  0  0
 22 21  2  0  0  0  0
 23 24  2  0  0  0  0
 23 22  1  0  0  0  0
 24 25  1  0  0  0  0
 25 20  2  0  0  0  0
 27 22  1  0  0  0  0
 28 24  1  0  0  0  0
 29 28  1  0  0  0  0
 30 29  1  0  0  0  0
M  END
>  <minimizedAffinity>
-5.24796247

>  <minimizedRMSD>
0.227407187

$$$$
