
 OpenBabel03212521053D

 30 32  0  0  0  0  0  0  0  0999 V2000
   41.8130   84.2340   61.5770 C   0  0  0  0  0  0  0  0  0  0  0  0
   41.4650   83.9750   62.8940 C   0  0  0  0  0  0  0  0  0  0  0  0
   40.1830   83.5580   63.2380 C   0  0  0  0  0  0  0  0  0  0  0  0
   39.2300   83.3990   62.2330 C   0  0  0  0  0  0  0  0  0  0  0  0
   39.5850   83.6610   60.9070 C   0  0  0  0  0  0  0  0  0  0  0  0
   40.8580   84.0740   60.5750 C   0  0  0  0  0  0  0  0  0  0  0  0
   42.1570   84.0790   63.7210 H   0  0  0  0  0  0  0  0  0  0  0  0
   39.9110   83.3560   64.2620 H   0  0  0  0  0  0  0  0  0  0  0  0
   38.2260   83.0750   62.4820 H   0  0  0  0  0  0  0  0  0  0  0  0
   38.8380   83.5350   60.1380 H   0  0  0  0  0  0  0  0  0  0  0  0
   45.3280   84.1530   60.5920 C   0  0  0  0  0  0  0  0  0  0  0  0
   45.7170   85.4750   60.6950 C   0  0  0  0  0  0  0  0  0  0  0  0
   44.7580   86.4260   61.1120 C   0  0  0  0  0  0  0  0  0  0  0  0
   43.5100   85.9730   61.3840 N   0  0  0  0  0  0  0  0  0  0  0  0
   43.1640   84.6670   61.2730 C   0  0  0  0  0  0  0  0  0  0  0  0
   44.0640   83.7810   60.8820 N   0  0  0  0  0  0  0  0  0  0  0  0
   46.0200   83.3720   60.2760 H   0  0  0  0  0  0  0  0  0  0  0  0
   46.7240   85.7850   60.4660 H   0  0  0  0  0  0  0  0  0  0  0  0
   45.0100   87.4770   61.2100 H   0  0  0  0  0  0  0  0  0  0  0  0
   41.1750   84.3330   59.1940 C   0  0  0  0  0  0  0  0  0  0  0  0
   40.8540   85.6520   58.8360 C   0  0  0  0  0  0  0  0  0  0  0  0
   41.0850   86.1070   57.5360 C   0  0  0  0  0  0  0  0  0  0  0  0
   41.6210   85.2340   56.6610 N   0  0  0  0  0  0  0  0  0  0  0  0
   41.9250   83.9640   57.0230 C   0  0  0  0  0  0  0  0  0  0  0  0
   41.7050   83.5240   58.2720 N   0  0  0  0  0  0  0  0  0  0  0  0
   40.4200   86.4070   59.4920 H   0  0  0  0  0  0  0  0  0  0  0  0
   40.8550   87.1060   57.2150 H   0  0  0  0  0  0  0  0  0  0  0  0
   42.5160   83.0370   56.0180 C   0  0  0  0  0  2  0  0  0  0  0  0
   41.5770   81.9080   55.7330 C   0  0  0  0  0  2  0  0  0  0  0  0
   41.4730   81.7340   54.6410 H   0  0  0  0  0  0  0  0  0  0  0  0
  1  2  1  0  0  0  0
  2  3  2  0  0  0  0
  2  7  1  0  0  0  0
  3  8  1  0  0  0  0
  4  9  1  0  0  0  0
  4  3  1  0  0  0  0
  5  4  2  0  0  0  0
  6  5  1  0  0  0  0
  6  1  2  0  0  0  0
 10  5  1  0  0  0  0
 11 12  2  0  0  0  0
 11 16  1  0  0  0  0
 12 13  1  0  0  0  0
 13 19  1  0  0  0  0
 13 14  2  0  0  0  0
 15 14  1  0  0  0  0
 15  1  1  0  0  0  0
 16 15  2  0  0  0  0
 17 11  1  0  0  0  0
 18 12  1  0  0  0  0
 20  6  1  0  0  0  0
 21 20  1  0  0  0  0
 21 26  1  0  0  0  0
 22 21  2  0  0  0  0
 23 24  2  0  0  0  0
 23 22  1  0  0  0  0
 24 25  1  0  0  0  0
 25 20  2  0  0  0  0
 27 22  1  0  0  0  0
 28 24  1  0  0  0  0
 29 28  1  0  0  0  0
 30 29  1  0  0  0  0
M  END
>  <minimizedAffinity>
-5.27352142

>  <minimizedRMSD>
0.212038234

$$$$
