
 OpenBabel03212521063D

 30 32  0  0  0  0  0  0  0  0999 V2000
   41.8160   84.2410   61.5620 C   0  0  0  0  0  0  0  0  0  0  0  0
   41.4640   83.9530   62.8720 C   0  0  0  0  0  0  0  0  0  0  0  0
   40.1810   83.5340   63.2050 C   0  0  0  0  0  0  0  0  0  0  0  0
   39.2280   83.4010   62.1940 C   0  0  0  0  0  0  0  0  0  0  0  0
   39.5870   83.6920   60.8750 C   0  0  0  0  0  0  0  0  0  0  0  0
   40.8620   84.1070   60.5560 C   0  0  0  0  0  0  0  0  0  0  0  0
   42.1550   84.0350   63.7030 H   0  0  0  0  0  0  0  0  0  0  0  0
   39.9060   83.3090   64.2230 H   0  0  0  0  0  0  0  0  0  0  0  0
   38.2230   83.0760   62.4350 H   0  0  0  0  0  0  0  0  0  0  0  0
   38.8410   83.5860   60.1030 H   0  0  0  0  0  0  0  0  0  0  0  0
   45.3480   84.1600   60.6380 C   0  0  0  0  0  0  0  0  0  0  0  0
   45.7270   85.4850   60.7160 C   0  0  0  0  0  0  0  0  0  0  0  0
   44.7540   86.4400   61.0930 C   0  0  0  0  0  0  0  0  0  0  0  0
   43.5050   85.9850   61.3560 N   0  0  0  0  0  0  0  0  0  0  0  0
   43.1690   84.6750   61.2700 C   0  0  0  0  0  0  0  0  0  0  0  0
   44.0810   83.7860   60.9160 N   0  0  0  0  0  0  0  0  0  0  0  0
   46.0500   83.3760   60.3540 H   0  0  0  0  0  0  0  0  0  0  0  0
   46.7350   85.7970   60.4960 H   0  0  0  0  0  0  0  0  0  0  0  0
   44.9980   87.4950   61.1690 H   0  0  0  0  0  0  0  0  0  0  0  0
   41.1830   84.3960   59.1810 C   0  0  0  0  0  0  0  0  0  0  0  0
   40.7410   85.6770   58.8130 C   0  0  0  0  0  0  0  0  0  0  0  0
   40.9540   86.1530   57.5170 C   0  0  0  0  0  0  0  0  0  0  0  0
   41.5930   85.3370   56.6570 N   0  0  0  0  0  0  0  0  0  0  0  0
   42.0130   84.1030   57.0280 C   0  0  0  0  0  0  0  0  0  0  0  0
   41.8100   83.6430   58.2720 N   0  0  0  0  0  0  0  0  0  0  0  0
   40.2200   86.3850   59.4580 H   0  0  0  0  0  0  0  0  0  0  0  0
   40.6350   87.1240   57.1900 H   0  0  0  0  0  0  0  0  0  0  0  0
   42.7140   83.2390   56.0380 C   0  0  0  0  0  2  0  0  0  0  0  0
   42.6690   83.8610   54.6780 C   0  0  0  0  0  2  0  0  0  0  0  0
   43.6680   83.8440   54.1920 H   0  0  0  0  0  0  0  0  0  0  0  0
  1  2  1  0  0  0  0
  2  3  2  0  0  0  0
  2  7  1  0  0  0  0
  3  8  1  0  0  0  0
  4  9  1  0  0  0  0
  4  3  1  0  0  0  0
  5  4  2  0  0  0  0
  6  5  1  0  0  0  0
  6  1  2  0  0  0  0
 10  5  1  0  0  0  0
 11 12  2  0  0  0  0
 11 16  1  0  0  0  0
 12 13  1  0  0  0  0
 13 19  1  0  0  0  0
 13 14  2  0  0  0  0
 15 14  1  0  0  0  0
 15  1  1  0  0  0  0
 16 15  2  0  0  0  0
 17 11  1  0  0  0  0
 18 12  1  0  0  0  0
 20  6  1  0  0  0  0
 21 20  1  0  0  0  0
 21 26  1  0  0  0  0
 22 21  2  0  0  0  0
 23 24  2  0  0  0  0
 23 22  1  0  0  0  0
 24 25  1  0  0  0  0
 25 20  2  0  0  0  0
 27 22  1  0  0  0  0
 28 24  1  0  0  0  0
 29 28  1  0  0  0  0
 30 29  1  0  0  0  0
M  END
>  <minimizedAffinity>
-5.24827719

>  <minimizedRMSD>
0.483964443

$$$$
