
 OpenBabel03212520303D

 35 37  0  0  0  0  0  0  0  0999 V2000
   41.2380   79.9410   58.9220 C   0  0  0  0  0  0  0  0  0  0  0  0
   40.6810   80.9130   58.0820 C   0  0  0  0  0  0  0  0  0  0  0  0
   41.0230   82.2480   58.3460 C   0  0  0  0  0  0  0  0  0  0  0  0
   41.8600   82.4820   59.3840 N   0  0  0  0  0  0  0  0  0  0  0  0
   42.3760   81.5600   60.1630 C   0  0  0  0  0  0  0  0  0  0  0  0
   42.0550   80.2970   59.9180 N   0  0  0  0  0  0  0  0  0  0  0  0
   40.9800   78.9060   58.7270 H   0  0  0  0  0  0  0  0  0  0  0  0
   40.6140   83.0320   57.7210 H   0  0  0  0  0  0  0  0  0  0  0  0
   39.8130   80.5440   57.0240 N   0  0  0  0  0  0  0  0  0  0  0  0
   38.7750   79.7980   57.4140 C   0  0  0  0  0  0  0  0  0  0  0  0
   37.8600   79.3830   56.4440 C   0  0  0  0  0  0  0  0  0  0  0  0
   38.0640   79.7600   55.1110 C   0  0  0  0  0  0  0  0  0  0  0  0
   37.3010   79.4370   54.1680 O   0  0  0  0  0  0  0  0  0  0  0  0
   39.1520   80.5230   54.8020 N   0  0  0  0  0  0  0  0  0  0  0  0
   40.0400   80.9260   55.7500 C   0  0  0  0  0  0  0  0  0  0  0  0
   41.0360   81.6250   55.4770 O   0  0  0  0  0  0  0  0  0  0  0  0
   38.5860   79.4910   58.4220 H   0  0  0  0  0  0  0  0  0  0  0  0
   37.0060   78.7860   56.6710 H   0  0  0  0  0  0  0  0  0  0  0  0
   39.3860   80.8500   53.8490 H   0  0  0  0  0  0  0  0  0  0  0  0
   42.7390   82.5670   62.3950 C   0  0  0  0  0  0  0  0  0  0  0  0
   43.2490   82.0020   61.2410 C   0  0  0  0  0  0  0  0  0  0  0  0
   44.6070   81.8070   61.0850 C   0  0  0  0  0  0  0  0  0  0  0  0
   45.5360   82.1600   62.0640 C   0  0  0  0  0  0  0  0  0  0  0  0
   45.0550   82.7240   63.2220 C   0  0  0  0  0  0  0  0  0  0  0  0
   43.6960   82.9160   63.3710 C   0  0  0  0  0  0  0  0  0  0  0  0
   44.9760   81.3540   60.1530 H   0  0  0  0  0  0  0  0  0  0  0  0
   46.5700   81.9650   61.8410 H   0  0  0  0  0  0  0  0  0  0  0  0
   45.7510   82.9980   63.9740 H   0  0  0  0  0  0  0  0  0  0  0  0
   43.2820   83.3580   64.2690 H   0  0  0  0  0  0  0  0  0  0  0  0
   41.0560   82.8430   62.6220 S   0  0  0  0  0  0  0  0  0  0  0  0
   40.7540   82.9220   64.1140 O   0  0  0  0  0  0  0  0  0  0  0  0
   40.3410   81.5370   62.2560 O   0  0  0  0  0  0  0  0  0  0  0  0
   40.3060   84.2380   61.9350 C   0  0  0  0  0  2  0  0  0  0  0  0
   39.0050   83.8350   61.1690 C   0  0  0  0  0  2  0  0  0  0  0  0
   38.6720   84.6620   60.5460 H   0  0  0  0  0  0  0  0  0  0  0  0
  1  6  1  0  0  0  0
  2  3  1  0  0  0  0
  2  1  2  0  0  0  0
  3  4  2  0  0  0  0
  4  5  1  0  0  0  0
  5 21  1  0  0  0  0
  6  5  2  0  0  0  0
  7  1  1  0  0  0  0
  8  3  1  0  0  0  0
  9 10  1  0  0  0  0
  9  2  1  0  0  0  0
 10 17  1  0  0  0  0
 11 18  1  0  0  0  0
 11 10  2  0  0  0  0
 12 11  1  0  0  0  0
 13 12  2  0  0  0  0
 14 12  1  0  0  0  0
 14 15  1  0  0  0  0
 15  9  1  0  0  0  0
 16 15  2  0  0  0  0
 19 14  1  0  0  0  0
 20 30  1  0  0  0  0
 20 25  1  0  0  0  0
 21 20  2  0  0  0  0
 22 21  1  0  0  0  0
 22 23  2  0  0  0  0
 23 24  1  0  0  0  0
 24 25  2  0  0  0  0
 24 28  1  0  0  0  0
 25 29  1  0  0  0  0
 26 22  1  0  0  0  0
 27 23  1  0  0  0  0
 30 31  2  0  0  0  0
 32 30  2  0  0  0  0
 33 30  1  0  0  0  0
 34 33  1  0  0  0  0
 35 34  1  0  0  0  0
M  END
>  <minimizedAffinity>
-5.47043991

>  <minimizedRMSD>
0.844508231

$$$$
