
 OpenBabel03212520313D

 35 37  0  0  0  0  0  0  0  0999 V2000
   40.9910   80.0060   58.4180 C   0  0  0  0  0  0  0  0  0  0  0  0
   40.3490   80.8990   57.5500 C   0  0  0  0  0  0  0  0  0  0  0  0
   40.5980   82.2650   57.7510 C   0  0  0  0  0  0  0  0  0  0  0  0
   41.4340   82.6030   58.7620 N   0  0  0  0  0  0  0  0  0  0  0  0
   42.0290   81.7540   59.5680 C   0  0  0  0  0  0  0  0  0  0  0  0
   41.7960   80.4620   59.3820 N   0  0  0  0  0  0  0  0  0  0  0  0
   40.8050   78.9480   58.2720 H   0  0  0  0  0  0  0  0  0  0  0  0
   40.1230   82.9900   57.1040 H   0  0  0  0  0  0  0  0  0  0  0  0
   39.4930   80.4240   56.5270 N   0  0  0  0  0  0  0  0  0  0  0  0
   38.3960   79.8120   56.9830 C   0  0  0  0  0  0  0  0  0  0  0  0
   37.4860   79.3070   56.0510 C   0  0  0  0  0  0  0  0  0  0  0  0
   37.7570   79.4600   54.6850 C   0  0  0  0  0  0  0  0  0  0  0  0
   37.0030   79.0410   53.7720 O   0  0  0  0  0  0  0  0  0  0  0  0
   38.9020   80.0980   54.3090 N   0  0  0  0  0  0  0  0  0  0  0  0
   39.7840   80.5890   55.2200 C   0  0  0  0  0  0  0  0  0  0  0  0
   40.8330   81.1750   54.8840 O   0  0  0  0  0  0  0  0  0  0  0  0
   38.1560   79.6760   58.0180 H   0  0  0  0  0  0  0  0  0  0  0  0
   36.5880   78.8050   56.3310 H   0  0  0  0  0  0  0  0  0  0  0  0
   39.1870   80.2590   53.3270 H   0  0  0  0  0  0  0  0  0  0  0  0
   42.4250   82.4860   61.9000 C   0  0  0  0  0  0  0  0  0  0  0  0
   42.8860   82.3040   60.6090 C   0  0  0  0  0  0  0  0  0  0  0  0
   44.1890   82.6070   60.2700 C   0  0  0  0  0  0  0  0  0  0  0  0
   45.1100   83.1070   61.1900 C   0  0  0  0  0  0  0  0  0  0  0  0
   44.6780   83.2990   62.4820 C   0  0  0  0  0  0  0  0  0  0  0  0
   43.3730   82.9930   62.8130 C   0  0  0  0  0  0  0  0  0  0  0  0
   44.5200   82.4480   59.2330 H   0  0  0  0  0  0  0  0  0  0  0  0
   46.1000   83.3110   60.8220 H   0  0  0  0  0  0  0  0  0  0  0  0
   45.3670   83.6790   63.1920 H   0  0  0  0  0  0  0  0  0  0  0  0
   42.9970   83.1300   63.8200 H   0  0  0  0  0  0  0  0  0  0  0  0
   40.8040   82.1360   62.3590 S   0  0  0  0  0  0  0  0  0  0  0  0
   40.5780   82.5920   63.7960 O   0  0  0  0  0  0  0  0  0  0  0  0
   40.7100   80.6150   62.5250 O   0  0  0  0  0  0  0  0  0  0  0  0
   39.4870   82.7990   61.4620 C   0  0  0  0  0  2  0  0  0  0  0  0
   39.6650   84.3390   61.2860 C   0  0  0  0  0  2  0  0  0  0  0  0
   38.7350   84.7830   60.9390 H   0  0  0  0  0  0  0  0  0  0  0  0
  1  6  1  0  0  0  0
  2  3  1  0  0  0  0
  2  1  2  0  0  0  0
  3  4  2  0  0  0  0
  4  5  1  0  0  0  0
  5 21  1  0  0  0  0
  6  5  2  0  0  0  0
  7  1  1  0  0  0  0
  8  3  1  0  0  0  0
  9 10  1  0  0  0  0
  9  2  1  0  0  0  0
 10 17  1  0  0  0  0
 11 18  1  0  0  0  0
 11 10  2  0  0  0  0
 12 11  1  0  0  0  0
 13 12  2  0  0  0  0
 14 12  1  0  0  0  0
 14 15  1  0  0  0  0
 15  9  1  0  0  0  0
 16 15  2  0  0  0  0
 19 14  1  0  0  0  0
 20 30  1  0  0  0  0
 20 25  1  0  0  0  0
 21 20  2  0  0  0  0
 22 21  1  0  0  0  0
 22 23  2  0  0  0  0
 23 24  1  0  0  0  0
 24 25  2  0  0  0  0
 24 28  1  0  0  0  0
 25 29  1  0  0  0  0
 26 22  1  0  0  0  0
 27 23  1  0  0  0  0
 30 32  2  0  0  0  0
 30 31  2  0  0  0  0
 33 30  1  0  0  0  0
 34 33  1  0  0  0  0
 35 34  1  0  0  0  0
M  END
>  <minimizedAffinity>
-5.64847612

>  <minimizedRMSD>
0.816803515

$$$$
