
 OpenBabel03212520303D

 35 37  0  0  0  0  0  0  0  0999 V2000
   40.9950   80.0060   58.4140 C   0  0  0  0  0  0  0  0  0  0  0  0
   40.3500   80.8990   57.5490 C   0  0  0  0  0  0  0  0  0  0  0  0
   40.5950   82.2660   57.7530 C   0  0  0  0  0  0  0  0  0  0  0  0
   41.4310   82.6040   58.7640 N   0  0  0  0  0  0  0  0  0  0  0  0
   42.0300   81.7550   59.5670 C   0  0  0  0  0  0  0  0  0  0  0  0
   41.8000   80.4630   59.3790 N   0  0  0  0  0  0  0  0  0  0  0  0
   40.8120   78.9480   58.2670 H   0  0  0  0  0  0  0  0  0  0  0  0
   40.1170   82.9900   57.1080 H   0  0  0  0  0  0  0  0  0  0  0  0
   39.4940   80.4240   56.5260 N   0  0  0  0  0  0  0  0  0  0  0  0
   38.3970   79.8110   56.9820 C   0  0  0  0  0  0  0  0  0  0  0  0
   37.4870   79.3060   56.0500 C   0  0  0  0  0  0  0  0  0  0  0  0
   37.7580   79.4590   54.6840 C   0  0  0  0  0  0  0  0  0  0  0  0
   37.0050   79.0400   53.7710 O   0  0  0  0  0  0  0  0  0  0  0  0
   38.9030   80.0980   54.3080 N   0  0  0  0  0  0  0  0  0  0  0  0
   39.7850   80.5890   55.2190 C   0  0  0  0  0  0  0  0  0  0  0  0
   40.8340   81.1750   54.8830 O   0  0  0  0  0  0  0  0  0  0  0  0
   38.1570   79.6760   58.0170 H   0  0  0  0  0  0  0  0  0  0  0  0
   36.5890   78.8040   56.3300 H   0  0  0  0  0  0  0  0  0  0  0  0
   39.1880   80.2580   53.3260 H   0  0  0  0  0  0  0  0  0  0  0  0
   42.4250   82.4860   61.8990 C   0  0  0  0  0  0  0  0  0  0  0  0
   42.8860   82.3050   60.6080 C   0  0  0  0  0  0  0  0  0  0  0  0
   44.1890   82.6090   60.2690 C   0  0  0  0  0  0  0  0  0  0  0  0
   45.1100   83.1100   61.1900 C   0  0  0  0  0  0  0  0  0  0  0  0
   44.6770   83.3000   62.4810 C   0  0  0  0  0  0  0  0  0  0  0  0
   43.3730   82.9930   62.8130 C   0  0  0  0  0  0  0  0  0  0  0  0
   44.5200   82.4510   59.2320 H   0  0  0  0  0  0  0  0  0  0  0  0
   46.0990   83.3130   60.8220 H   0  0  0  0  0  0  0  0  0  0  0  0
   45.3670   83.6810   63.1920 H   0  0  0  0  0  0  0  0  0  0  0  0
   42.9970   83.1300   63.8190 H   0  0  0  0  0  0  0  0  0  0  0  0
   40.8050   82.1350   62.3590 S   0  0  0  0  0  0  0  0  0  0  0  0
   40.5780   82.5890   63.7960 O   0  0  0  0  0  0  0  0  0  0  0  0
   40.7120   80.6140   62.5220 O   0  0  0  0  0  0  0  0  0  0  0  0
   39.4870   82.7990   61.4620 C   0  0  0  0  0  2  0  0  0  0  0  0
   39.6660   84.3400   61.2880 C   0  0  0  0  0  2  0  0  0  0  0  0
   38.7350   84.7830   60.9410 H   0  0  0  0  0  0  0  0  0  0  0  0
  1  6  1  0  0  0  0
  2  3  1  0  0  0  0
  2  1  2  0  0  0  0
  3  4  2  0  0  0  0
  4  5  1  0  0  0  0
  5 21  1  0  0  0  0
  6  5  2  0  0  0  0
  7  1  1  0  0  0  0
  8  3  1  0  0  0  0
  9 10  1  0  0  0  0
  9  2  1  0  0  0  0
 10 17  1  0  0  0  0
 11 18  1  0  0  0  0
 11 10  2  0  0  0  0
 12 11  1  0  0  0  0
 13 12  2  0  0  0  0
 14 12  1  0  0  0  0
 14 15  1  0  0  0  0
 15  9  1  0  0  0  0
 16 15  2  0  0  0  0
 19 14  1  0  0  0  0
 20 30  1  0  0  0  0
 20 25  1  0  0  0  0
 21 20  2  0  0  0  0
 22 21  1  0  0  0  0
 22 23  2  0  0  0  0
 23 24  1  0  0  0  0
 24 25  2  0  0  0  0
 24 28  1  0  0  0  0
 25 29  1  0  0  0  0
 26 22  1  0  0  0  0
 27 23  1  0  0  0  0
 30 32  2  0  0  0  0
 30 31  2  0  0  0  0
 33 30  1  0  0  0  0
 34 33  1  0  0  0  0
 35 34  1  0  0  0  0
M  END
>  <minimizedAffinity>
-5.64718246

>  <minimizedRMSD>
0.830305457

$$$$
