
 OpenBabel03212520303D

 35 37  0  0  0  0  0  0  0  0999 V2000
   40.3160   79.7290   58.4820 C   0  0  0  0  0  0  0  0  0  0  0  0
   40.0440   80.6260   57.4410 C   0  0  0  0  0  0  0  0  0  0  0  0
   40.6110   81.9050   57.5440 C   0  0  0  0  0  0  0  0  0  0  0  0
   41.3710   82.1630   58.6350 N   0  0  0  0  0  0  0  0  0  0  0  0
   41.6180   81.3120   59.6040 C   0  0  0  0  0  0  0  0  0  0  0  0
   41.0830   80.1020   59.5120 N   0  0  0  0  0  0  0  0  0  0  0  0
   39.8830   78.7380   58.4130 H   0  0  0  0  0  0  0  0  0  0  0  0
   40.4270   82.6290   56.7610 H   0  0  0  0  0  0  0  0  0  0  0  0
   39.2320   80.2390   56.3470 N   0  0  0  0  0  0  0  0  0  0  0  0
   38.0800   79.6640   56.7080 C   0  0  0  0  0  0  0  0  0  0  0  0
   37.2070   79.2460   55.7010 C   0  0  0  0  0  0  0  0  0  0  0  0
   37.5690   79.4440   54.3630 C   0  0  0  0  0  0  0  0  0  0  0  0
   36.8550   79.1040   53.3870 O   0  0  0  0  0  0  0  0  0  0  0  0
   38.7650   80.0390   54.0850 N   0  0  0  0  0  0  0  0  0  0  0  0
   39.6110   80.4450   55.0690 C   0  0  0  0  0  0  0  0  0  0  0  0
   40.7050   80.9920   54.8240 O   0  0  0  0  0  0  0  0  0  0  0  0
   37.7700   79.4960   57.7190 H   0  0  0  0  0  0  0  0  0  0  0  0
   36.2700   78.7790   55.9040 H   0  0  0  0  0  0  0  0  0  0  0  0
   39.1170   80.2280   53.1310 H   0  0  0  0  0  0  0  0  0  0  0  0
   41.9020   82.4250   61.7970 C   0  0  0  0  0  0  0  0  0  0  0  0
   42.4480   81.7720   60.7080 C   0  0  0  0  0  0  0  0  0  0  0  0
   43.8010   81.5040   60.6450 C   0  0  0  0  0  0  0  0  0  0  0  0
   44.6890   81.8680   61.6570 C   0  0  0  0  0  0  0  0  0  0  0  0
   44.1710   82.5190   62.7530 C   0  0  0  0  0  0  0  0  0  0  0  0
   42.8170   82.7820   62.8090 C   0  0  0  0  0  0  0  0  0  0  0  0
   44.2000   80.9830   59.7620 H   0  0  0  0  0  0  0  0  0  0  0  0
   45.7220   81.6120   61.5080 H   0  0  0  0  0  0  0  0  0  0  0  0
   44.8350   82.8010   63.5300 H   0  0  0  0  0  0  0  0  0  0  0  0
   42.3750   83.2930   63.6550 H   0  0  0  0  0  0  0  0  0  0  0  0
   40.2240   82.7920   61.9070 S   0  0  0  0  0  0  0  0  0  0  0  0
   39.9040   83.2740   63.3170 O   0  0  0  0  0  0  0  0  0  0  0  0
   39.4770   81.4540   61.8880 O   0  0  0  0  0  0  0  0  0  0  0  0
   39.5240   83.9700   60.8570 C   0  0  0  0  0  0  0  0  0  0  0  0
   40.6240   84.9300   60.3030 C   0  0  0  0  0  0  0  0  0  0  0  0
   40.1590   85.7990   59.8440 H   0  0  0  0  0  0  0  0  0  0  0  0
  1  6  1  0  0  0  0
  2  3  1  0  0  0  0
  2  1  2  0  0  0  0
  3  4  2  0  0  0  0
  4  5  1  0  0  0  0
  5 21  1  0  0  0  0
  6  5  2  0  0  0  0
  7  1  1  0  0  0  0
  8  3  1  0  0  0  0
  9 10  1  0  0  0  0
  9  2  1  0  0  0  0
 10 17  1  0  0  0  0
 11 18  1  0  0  0  0
 11 10  2  0  0  0  0
 12 11  1  0  0  0  0
 13 12  2  0  0  0  0
 14 12  1  0  0  0  0
 14 15  1  0  0  0  0
 15  9  1  0  0  0  0
 16 15  2  0  0  0  0
 19 14  1  0  0  0  0
 20 30  1  0  0  0  0
 20 25  1  0  0  0  0
 21 20  2  0  0  0  0
 22 21  1  0  0  0  0
 22 23  2  0  0  0  0
 23 24  1  0  0  0  0
 24 25  2  0  0  0  0
 24 28  1  0  0  0  0
 25 29  1  0  0  0  0
 26 22  1  0  0  0  0
 27 23  1  0  0  0  0
 30 31  2  0  0  0  0
 32 30  2  0  0  0  0
 33 30  1  0  0  0  0
 34 33  1  0  0  0  0
 35 34  1  0  0  0  0
M  END
>  <minimizedAffinity>
-5.69182682

>  <minimizedRMSD>
0.396629512

$$$$
