
 OpenBabel03212520303D

 35 37  0  0  0  0  0  0  0  0999 V2000
   40.8580   79.9380   58.7430 C   0  0  0  0  0  0  0  0  0  0  0  0
   40.5490   80.8990   57.7730 C   0  0  0  0  0  0  0  0  0  0  0  0
   41.0930   82.1800   57.9560 C   0  0  0  0  0  0  0  0  0  0  0  0
   41.8690   82.3750   59.0490 N   0  0  0  0  0  0  0  0  0  0  0  0
   42.1510   81.4630   59.9510 C   0  0  0  0  0  0  0  0  0  0  0  0
   41.6380   80.2520   59.7820 N   0  0  0  0  0  0  0  0  0  0  0  0
   40.4420   78.9450   58.6120 H   0  0  0  0  0  0  0  0  0  0  0  0
   40.8800   82.9530   57.2310 H   0  0  0  0  0  0  0  0  0  0  0  0
   39.7220   80.5740   56.6700 N   0  0  0  0  0  0  0  0  0  0  0  0
   38.4740   80.2400   57.0120 C   0  0  0  0  0  0  0  0  0  0  0  0
   37.5780   79.9020   55.9940 C   0  0  0  0  0  0  0  0  0  0  0  0
   38.0200   79.9260   54.6650 C   0  0  0  0  0  0  0  0  0  0  0  0
   37.2940   79.6390   53.6820 O   0  0  0  0  0  0  0  0  0  0  0  0
   39.3130   80.2790   54.4070 N   0  0  0  0  0  0  0  0  0  0  0  0
   40.1800   80.6080   55.4020 C   0  0  0  0  0  0  0  0  0  0  0  0
   41.3630   80.9330   55.1740 O   0  0  0  0  0  0  0  0  0  0  0  0
   38.1010   80.2120   58.0150 H   0  0  0  0  0  0  0  0  0  0  0  0
   36.5670   79.6240   56.1810 H   0  0  0  0  0  0  0  0  0  0  0  0
   39.7290   80.3250   53.4610 H   0  0  0  0  0  0  0  0  0  0  0  0
   42.4710   82.5150   62.1690 C   0  0  0  0  0  0  0  0  0  0  0  0
   42.9940   81.8610   61.0690 C   0  0  0  0  0  0  0  0  0  0  0  0
   44.3340   81.5340   61.0070 C   0  0  0  0  0  0  0  0  0  0  0  0
   45.2300   81.8340   62.0330 C   0  0  0  0  0  0  0  0  0  0  0  0
   44.7360   82.4840   63.1390 C   0  0  0  0  0  0  0  0  0  0  0  0
   43.3950   82.8080   63.1930 C   0  0  0  0  0  0  0  0  0  0  0  0
   44.7140   81.0140   60.1160 H   0  0  0  0  0  0  0  0  0  0  0  0
   46.2520   81.5350   61.8840 H   0  0  0  0  0  0  0  0  0  0  0  0
   45.4070   82.7190   63.9260 H   0  0  0  0  0  0  0  0  0  0  0  0
   42.9700   83.3200   64.0480 H   0  0  0  0  0  0  0  0  0  0  0  0
   40.8110   82.9560   62.2770 S   0  0  0  0  0  0  0  0  0  0  0  0
   40.4060   83.0410   63.7440 O   0  0  0  0  0  0  0  0  0  0  0  0
   39.9990   81.7350   61.8290 O   0  0  0  0  0  0  0  0  0  0  0  0
   40.2580   84.4300   61.5690 C   0  0  0  0  0  2  0  0  0  0  0  0
   39.2310   84.1350   60.4290 C   0  0  0  0  0  2  0  0  0  0  0  0
   39.0710   85.0310   59.8350 H   0  0  0  0  0  0  0  0  0  0  0  0
  1  6  1  0  0  0  0
  2  3  1  0  0  0  0
  2  1  2  0  0  0  0
  3  4  2  0  0  0  0
  4  5  1  0  0  0  0
  5 21  1  0  0  0  0
  6  5  2  0  0  0  0
  7  1  1  0  0  0  0
  8  3  1  0  0  0  0
  9 10  1  0  0  0  0
  9  2  1  0  0  0  0
 10 17  1  0  0  0  0
 11 18  1  0  0  0  0
 11 10  2  0  0  0  0
 12 11  1  0  0  0  0
 13 12  2  0  0  0  0
 14 12  1  0  0  0  0
 14 15  1  0  0  0  0
 15  9  1  0  0  0  0
 16 15  2  0  0  0  0
 19 14  1  0  0  0  0
 20 30  1  0  0  0  0
 20 25  1  0  0  0  0
 21 20  2  0  0  0  0
 22 21  1  0  0  0  0
 22 23  2  0  0  0  0
 23 24  1  0  0  0  0
 24 25  2  0  0  0  0
 24 28  1  0  0  0  0
 25 29  1  0  0  0  0
 26 22  1  0  0  0  0
 27 23  1  0  0  0  0
 30 31  2  0  0  0  0
 32 30  2  0  0  0  0
 33 30  1  0  0  0  0
 34 33  1  0  0  0  0
 35 34  1  0  0  0  0
M  END
>  <minimizedAffinity>
-5.36799574

>  <minimizedRMSD>
0.590167224

$$$$
