
 OpenBabel03212520313D

 35 37  0  0  0  0  0  0  0  0999 V2000
   40.9730   79.8580   58.3080 C   0  0  0  0  0  0  0  0  0  0  0  0
   40.3670   80.8050   57.4730 C   0  0  0  0  0  0  0  0  0  0  0  0
   40.6770   82.1520   57.7150 C   0  0  0  0  0  0  0  0  0  0  0  0
   41.5330   82.4200   58.7300 N   0  0  0  0  0  0  0  0  0  0  0  0
   42.0940   81.5210   59.5050 C   0  0  0  0  0  0  0  0  0  0  0  0
   41.8030   80.2470   59.2800 N   0  0  0  0  0  0  0  0  0  0  0  0
   40.7400   78.8140   58.1300 H   0  0  0  0  0  0  0  0  0  0  0  0
   40.2310   82.9170   57.0930 H   0  0  0  0  0  0  0  0  0  0  0  0
   39.4850   80.4000   56.4410 N   0  0  0  0  0  0  0  0  0  0  0  0
   38.3510   79.8500   56.8860 C   0  0  0  0  0  0  0  0  0  0  0  0
   37.4130   79.4180   55.9450 C   0  0  0  0  0  0  0  0  0  0  0  0
   37.6950   79.5760   54.5820 C   0  0  0  0  0  0  0  0  0  0  0  0
   36.9190   79.2190   53.6620 O   0  0  0  0  0  0  0  0  0  0  0  0
   38.8790   80.1470   54.2170 N   0  0  0  0  0  0  0  0  0  0  0  0
   39.7880   80.5680   55.1370 C   0  0  0  0  0  0  0  0  0  0  0  0
   40.8720   81.0930   54.8120 O   0  0  0  0  0  0  0  0  0  0  0  0
   38.1010   79.7140   57.9180 H   0  0  0  0  0  0  0  0  0  0  0  0
   36.4850   78.9690   56.2170 H   0  0  0  0  0  0  0  0  0  0  0  0
   39.1750   80.3060   53.2390 H   0  0  0  0  0  0  0  0  0  0  0  0
   42.5340   82.1660   61.8540 C   0  0  0  0  0  0  0  0  0  0  0  0
   42.9810   81.9990   60.5560 C   0  0  0  0  0  0  0  0  0  0  0  0
   44.2950   82.2510   60.2190 C   0  0  0  0  0  0  0  0  0  0  0  0
   45.2430   82.6800   61.1480 C   0  0  0  0  0  0  0  0  0  0  0  0
   44.8250   82.8540   62.4470 C   0  0  0  0  0  0  0  0  0  0  0  0
   43.5090   82.6010   62.7770 C   0  0  0  0  0  0  0  0  0  0  0  0
   44.6140   82.1070   59.1760 H   0  0  0  0  0  0  0  0  0  0  0  0
   46.2390   82.8470   60.7800 H   0  0  0  0  0  0  0  0  0  0  0  0
   45.5350   83.1810   63.1640 H   0  0  0  0  0  0  0  0  0  0  0  0
   43.1440   82.7270   63.7880 H   0  0  0  0  0  0  0  0  0  0  0  0
   40.9010   81.8800   62.3120 S   0  0  0  0  0  0  0  0  0  0  0  0
   40.6630   82.4390   63.7100 O   0  0  0  0  0  0  0  0  0  0  0  0
   40.7740   80.3760   62.5830 O   0  0  0  0  0  0  0  0  0  0  0  0
   39.6090   82.5020   61.3510 C   0  0  0  0  0  2  0  0  0  0  0  0
   38.8770   83.6590   62.1020 C   0  0  0  0  0  2  0  0  0  0  0  0
   37.9340   83.8820   61.6100 H   0  0  0  0  0  0  0  0  0  0  0  0
  1  6  1  0  0  0  0
  2  3  1  0  0  0  0
  2  1  2  0  0  0  0
  3  4  2  0  0  0  0
  4  5  1  0  0  0  0
  5 21  1  0  0  0  0
  6  5  2  0  0  0  0
  7  1  1  0  0  0  0
  8  3  1  0  0  0  0
  9 10  1  0  0  0  0
  9  2  1  0  0  0  0
 10 17  1  0  0  0  0
 11 18  1  0  0  0  0
 11 10  2  0  0  0  0
 12 11  1  0  0  0  0
 13 12  2  0  0  0  0
 14 12  1  0  0  0  0
 14 15  1  0  0  0  0
 15  9  1  0  0  0  0
 16 15  2  0  0  0  0
 19 14  1  0  0  0  0
 20 30  1  0  0  0  0
 20 25  1  0  0  0  0
 21 20  2  0  0  0  0
 22 21  1  0  0  0  0
 22 23  2  0  0  0  0
 23 24  1  0  0  0  0
 24 25  2  0  0  0  0
 24 28  1  0  0  0  0
 25 29  1  0  0  0  0
 26 22  1  0  0  0  0
 27 23  1  0  0  0  0
 30 32  2  0  0  0  0
 30 31  2  0  0  0  0
 33 34  1  0  0  0  0
 33 30  1  0  0  0  0
 35 34  1  0  0  0  0
M  END
>  <minimizedAffinity>
-5.62444067

>  <minimizedRMSD>
0.90444988

$$$$
