
 OpenBabel03212520303D

 35 37  0  0  0  0  0  0  0  0999 V2000
   41.1590   79.9400   58.9230 C   0  0  0  0  0  0  0  0  0  0  0  0
   40.6630   80.9060   58.0380 C   0  0  0  0  0  0  0  0  0  0  0  0
   41.0580   82.2330   58.2640 C   0  0  0  0  0  0  0  0  0  0  0  0
   41.8840   82.4660   59.3120 N   0  0  0  0  0  0  0  0  0  0  0  0
   42.3420   81.5500   60.1340 C   0  0  0  0  0  0  0  0  0  0  0  0
   41.9700   80.2940   59.9250 N   0  0  0  0  0  0  0  0  0  0  0  0
   40.8580   78.9110   58.7580 H   0  0  0  0  0  0  0  0  0  0  0  0
   40.6990   83.0110   57.6040 H   0  0  0  0  0  0  0  0  0  0  0  0
   39.8020   80.5380   56.9750 N   0  0  0  0  0  0  0  0  0  0  0  0
   38.7550   79.8020   57.3590 C   0  0  0  0  0  0  0  0  0  0  0  0
   37.8450   79.3880   56.3820 C   0  0  0  0  0  0  0  0  0  0  0  0
   38.0640   79.7580   55.0500 C   0  0  0  0  0  0  0  0  0  0  0  0
   37.3060   79.4370   54.1010 O   0  0  0  0  0  0  0  0  0  0  0  0
   39.1600   80.5120   54.7470 N   0  0  0  0  0  0  0  0  0  0  0  0
   40.0420   80.9130   55.7010 C   0  0  0  0  0  0  0  0  0  0  0  0
   41.0470   81.6020   55.4330 O   0  0  0  0  0  0  0  0  0  0  0  0
   38.5550   79.5010   58.3670 H   0  0  0  0  0  0  0  0  0  0  0  0
   36.9850   78.7990   56.6050 H   0  0  0  0  0  0  0  0  0  0  0  0
   39.4050   80.8330   53.7950 H   0  0  0  0  0  0  0  0  0  0  0  0
   42.6980   82.5740   62.3590 C   0  0  0  0  0  0  0  0  0  0  0  0
   43.2110   81.9900   61.2150 C   0  0  0  0  0  0  0  0  0  0  0  0
   44.5670   81.7760   61.0730 C   0  0  0  0  0  0  0  0  0  0  0  0
   45.4920   82.1260   62.0570 C   0  0  0  0  0  0  0  0  0  0  0  0
   45.0090   82.7080   63.2050 C   0  0  0  0  0  0  0  0  0  0  0  0
   43.6520   82.9190   63.3400 C   0  0  0  0  0  0  0  0  0  0  0  0
   44.9380   81.3090   60.1490 H   0  0  0  0  0  0  0  0  0  0  0  0
   46.5250   81.9150   61.8460 H   0  0  0  0  0  0  0  0  0  0  0  0
   45.7010   82.9800   63.9610 H   0  0  0  0  0  0  0  0  0  0  0  0
   43.2350   83.3750   64.2290 H   0  0  0  0  0  0  0  0  0  0  0  0
   41.0170   82.8740   62.5680 S   0  0  0  0  0  0  0  0  0  0  0  0
   40.6980   82.9430   64.0570 O   0  0  0  0  0  0  0  0  0  0  0  0
   40.2860   81.5840   62.1800 O   0  0  0  0  0  0  0  0  0  0  0  0
   40.2980   84.2880   61.8860 C   0  0  0  0  0  2  0  0  0  0  0  0
   39.0950   83.8990   60.9690 C   0  0  0  0  0  2  0  0  0  0  0  0
   38.8010   84.7530   60.3620 H   0  0  0  0  0  0  0  0  0  0  0  0
  1  6  1  0  0  0  0
  2  3  1  0  0  0  0
  2  1  2  0  0  0  0
  3  4  2  0  0  0  0
  4  5  1  0  0  0  0
  5 21  1  0  0  0  0
  6  5  2  0  0  0  0
  7  1  1  0  0  0  0
  8  3  1  0  0  0  0
  9 10  1  0  0  0  0
  9  2  1  0  0  0  0
 10 17  1  0  0  0  0
 11 18  1  0  0  0  0
 11 10  2  0  0  0  0
 12 11  1  0  0  0  0
 13 12  2  0  0  0  0
 14 12  1  0  0  0  0
 14 15  1  0  0  0  0
 15  9  1  0  0  0  0
 16 15  2  0  0  0  0
 19 14  1  0  0  0  0
 20 30  1  0  0  0  0
 20 25  1  0  0  0  0
 21 20  2  0  0  0  0
 22 21  1  0  0  0  0
 22 23  2  0  0  0  0
 23 24  1  0  0  0  0
 24 25  2  0  0  0  0
 24 28  1  0  0  0  0
 25 29  1  0  0  0  0
 26 22  1  0  0  0  0
 27 23  1  0  0  0  0
 30 31  2  0  0  0  0
 32 30  2  0  0  0  0
 33 30  1  0  0  0  0
 34 33  1  0  0  0  0
 35 34  1  0  0  0  0
M  END
>  <minimizedAffinity>
-5.50101376

>  <minimizedRMSD>
0.81072098

$$$$
