
 OpenBabel03212520313D

 35 37  0  0  0  0  0  0  0  0999 V2000
   40.3250   80.1120   58.8030 C   0  0  0  0  0  0  0  0  0  0  0  0
   40.4210   80.8710   57.6300 C   0  0  0  0  0  0  0  0  0  0  0  0
   41.3460   81.9270   57.6350 C   0  0  0  0  0  0  0  0  0  0  0  0
   42.0630   82.1200   58.7680 N   0  0  0  0  0  0  0  0  0  0  0  0
   41.9620   81.3990   59.8600 C   0  0  0  0  0  0  0  0  0  0  0  0
   41.0890   80.4010   59.8600 N   0  0  0  0  0  0  0  0  0  0  0  0
   39.6130   79.2940   58.8100 H   0  0  0  0  0  0  0  0  0  0  0  0
   41.4530   82.5400   56.7500 H   0  0  0  0  0  0  0  0  0  0  0  0
   39.6130   80.5720   56.5060 N   0  0  0  0  0  0  0  0  0  0  0  0
   38.3080   80.4950   56.7840 C   0  0  0  0  0  0  0  0  0  0  0  0
   37.4260   80.2050   55.7410 C   0  0  0  0  0  0  0  0  0  0  0  0
   37.9390   80.0060   54.4530 C   0  0  0  0  0  0  0  0  0  0  0  0
   37.2300   79.7400   53.4510 O   0  0  0  0  0  0  0  0  0  0  0  0
   39.2860   80.1030   54.2590 N   0  0  0  0  0  0  0  0  0  0  0  0
   40.1410   80.3880   55.2780 C   0  0  0  0  0  0  0  0  0  0  0  0
   41.3730   80.4790   55.1080 O   0  0  0  0  0  0  0  0  0  0  0  0
   37.8800   80.6410   57.7550 H   0  0  0  0  0  0  0  0  0  0  0  0
   36.3720   80.1250   55.8790 H   0  0  0  0  0  0  0  0  0  0  0  0
   39.7570   79.9740   53.3470 H   0  0  0  0  0  0  0  0  0  0  0  0
   42.4120   82.7160   61.9070 C   0  0  0  0  0  0  0  0  0  0  0  0
   42.8090   81.7630   60.9870 C   0  0  0  0  0  0  0  0  0  0  0  0
   44.0110   81.1000   61.1240 C   0  0  0  0  0  0  0  0  0  0  0  0
   44.8890   81.3410   62.1810 C   0  0  0  0  0  0  0  0  0  0  0  0
   44.5190   82.2850   63.1110 C   0  0  0  0  0  0  0  0  0  0  0  0
   43.3150   82.9440   62.9670 C   0  0  0  0  0  0  0  0  0  0  0  0
   44.2930   80.3480   60.3720 H   0  0  0  0  0  0  0  0  0  0  0  0
   45.7990   80.7690   62.1940 H   0  0  0  0  0  0  0  0  0  0  0  0
   45.1770   82.4790   63.9200 H   0  0  0  0  0  0  0  0  0  0  0  0
   42.9910   83.6930   63.6790 H   0  0  0  0  0  0  0  0  0  0  0  0
   40.9300   83.5780   61.7640 S   0  0  0  0  0  0  0  0  0  0  0  0
   40.7040   84.4060   63.0230 O   0  0  0  0  0  0  0  0  0  0  0  0
   39.8040   82.5450   61.8960 O   0  0  0  0  0  0  0  0  0  0  0  0
   40.6880   84.6740   60.4520 C   0  0  0  0  0  2  0  0  0  0  0  0
   39.3380   84.3690   59.7290 C   0  0  0  0  0  2  0  0  0  0  0  0
   39.3020   84.8920   58.7760 H   0  0  0  0  0  0  0  0  0  0  0  0
  1  7  1  0  0  0  0
  1  6  1  0  0  0  0
  2  3  1  0  0  0  0
  2  1  2  0  0  0  0
  3  4  2  0  0  0  0
  4  5  1  0  0  0  0
  5 21  1  0  0  0  0
  6  5  2  0  0  0  0
  8  3  1  0  0  0  0
  9 10  1  0  0  0  0
  9  2  1  0  0  0  0
 10 17  1  0  0  0  0
 11 18  1  0  0  0  0
 11 10  2  0  0  0  0
 12 11  1  0  0  0  0
 13 12  2  0  0  0  0
 14 12  1  0  0  0  0
 14 15  1  0  0  0  0
 15  9  1  0  0  0  0
 16 15  2  0  0  0  0
 19 14  1  0  0  0  0
 20 25  1  0  0  0  0
 21 22  1  0  0  0  0
 21 20  2  0  0  0  0
 22 23  2  0  0  0  0
 23 27  1  0  0  0  0
 23 24  1  0  0  0  0
 24 28  1  0  0  0  0
 25 24  2  0  0  0  0
 25 29  1  0  0  0  0
 26 22  1  0  0  0  0
 30 32  2  0  0  0  0
 30 20  1  0  0  0  0
 30 31  2  0  0  0  0
 33 30  1  0  0  0  0
 34 33  1  0  0  0  0
 35 34  1  0  0  0  0
M  END
>  <minimizedAffinity>
-5.21635199

>  <minimizedRMSD>
0.737573445

$$$$
