
 OpenBabel03212520153D

 26 27  0  0  0  0  0  0  0  0999 V2000
   43.1590   83.9170   58.6300 Cl  0  0  0  0  0  0  0  0  0  0  0  0
   41.8880   82.7600   58.2230 C   0  0  0  0  0  0  0  0  0  0  0  0
   41.0320   82.2570   59.1660 C   0  0  0  0  0  0  0  0  0  0  0  0
   40.1060   81.3270   58.6830 C   0  0  0  0  0  0  0  0  0  0  0  0
   39.9880   80.8890   57.3840 C   0  0  0  0  0  0  0  0  0  0  0  0
   40.8820   81.4370   56.4860 C   0  0  0  0  0  0  0  0  0  0  0  0
   40.8520   80.9410   54.7980 Cl  0  0  0  0  0  0  0  0  0  0  0  0
   41.8310   82.3770   56.9130 C   0  0  0  0  0  0  0  0  0  0  0  0
   39.4140   80.9080   59.4020 H   0  0  0  0  0  0  0  0  0  0  0  0
   39.2490   80.1740   57.1080 H   0  0  0  0  0  0  0  0  0  0  0  0
   41.9590   82.1430   61.5130 C   0  0  0  0  0  0  0  0  0  0  0  0
   41.1240   82.6840   60.5180 C   0  0  0  0  0  0  0  0  0  0  0  0
   40.2820   83.7530   60.8550 C   0  0  0  0  0  0  0  0  0  0  0  0
   40.3420   84.1900   62.1440 N   0  0  0  0  0  0  0  0  0  0  0  0
   41.1430   83.6640   63.0740 C   0  0  0  0  0  0  0  0  0  0  0  0
   41.9580   82.6320   62.7590 N   0  0  0  0  0  0  0  0  0  0  0  0
   42.5860   81.3250   61.2050 H   0  0  0  0  0  0  0  0  0  0  0  0
   39.6090   84.2350   60.1720 H   0  0  0  0  0  0  0  0  0  0  0  0
   41.0500   84.2950   64.4180 C   0  0  0  0  0  0  0  0  0  0  0  0
   40.7400   85.6460   64.3420 F   0  0  0  0  0  0  0  0  0  0  0  0
   40.1180   83.6530   65.1900 F   0  0  0  0  0  0  0  0  0  0  0  0
   42.3050   84.2730   65.0550 F   0  0  0  0  0  0  0  0  0  0  0  0
   42.6760   82.8740   55.9490 O   0  0  0  0  0  0  0  0  0  0  0  0
   42.5030   84.0460   55.2070 C   0  0  0  0  0  2  0  0  0  0  0  0
   43.3610   84.1990   54.0010 C   0  0  0  0  0  2  0  0  0  0  0  0
   43.1130   83.5500   53.1460 H   0  0  0  0  0  0  0  0  0  0  0  0
  2  1  1  0  0  0  0
  2  3  1  0  0  0  0
  3 12  1  0  0  0  0
  4  3  2  0  0  0  0
  4  9  1  0  0  0  0
  5  4  1  0  0  0  0
  6  8  1  0  0  0  0
  6  5  2  0  0  0  0
  7  6  1  0  0  0  0
  8  2  2  0  0  0  0
 10  5  1  0  0  0  0
 11 16  1  0  0  0  0
 12 13  1  0  0  0  0
 12 11  2  0  0  0  0
 13 14  2  0  0  0  0
 14 15  1  0  0  0  0
 15 19  1  0  0  0  0
 16 15  2  0  0  0  0
 17 11  1  0  0  0  0
 18 13  1  0  0  0  0
 19 22  1  0  0  0  0
 19 21  1  0  0  0  0
 20 19  1  0  0  0  0
 23  8  1  0  0  0  0
 24 23  1  0  0  0  0
 25 24  1  0  0  0  0
 26 25  1  0  0  0  0
M  END
>  <minimizedAffinity>
-4.84198236

>  <minimizedRMSD>
0.757076979

$$$$
