
 OpenBabel03212520153D

 26 27  0  0  0  0  0  0  0  0999 V2000
   43.1780   83.8890   58.6960 Cl  0  0  0  0  0  0  0  0  0  0  0  0
   41.8980   82.7440   58.2810 C   0  0  0  0  0  0  0  0  0  0  0  0
   41.0280   82.2530   59.2190 C   0  0  0  0  0  0  0  0  0  0  0  0
   40.0960   81.3320   58.7310 C   0  0  0  0  0  0  0  0  0  0  0  0
   39.9850   80.8900   57.4320 C   0  0  0  0  0  0  0  0  0  0  0  0
   40.8930   81.4260   56.5400 C   0  0  0  0  0  0  0  0  0  0  0  0
   40.8720   80.9240   54.8540 Cl  0  0  0  0  0  0  0  0  0  0  0  0
   41.8480   82.3560   56.9730 C   0  0  0  0  0  0  0  0  0  0  0  0
   39.3930   80.9230   59.4450 H   0  0  0  0  0  0  0  0  0  0  0  0
   39.2400   80.1830   57.1520 H   0  0  0  0  0  0  0  0  0  0  0  0
   41.9270   82.1320   61.5760 C   0  0  0  0  0  0  0  0  0  0  0  0
   41.1130   82.6840   60.5700 C   0  0  0  0  0  0  0  0  0  0  0  0
   40.2870   83.7700   60.8930 C   0  0  0  0  0  0  0  0  0  0  0  0
   40.3410   84.2110   62.1810 N   0  0  0  0  0  0  0  0  0  0  0  0
   41.1210   83.6740   63.1220 C   0  0  0  0  0  0  0  0  0  0  0  0
   41.9210   82.6260   62.8200 N   0  0  0  0  0  0  0  0  0  0  0  0
   42.5420   81.3010   61.2790 H   0  0  0  0  0  0  0  0  0  0  0  0
   39.6300   84.2610   60.2020 H   0  0  0  0  0  0  0  0  0  0  0  0
   41.0250   84.3120   64.4630 C   0  0  0  0  0  0  0  0  0  0  0  0
   40.7100   85.6610   64.3790 F   0  0  0  0  0  0  0  0  0  0  0  0
   40.0960   83.6700   65.2380 F   0  0  0  0  0  0  0  0  0  0  0  0
   42.2800   84.2990   65.1000 F   0  0  0  0  0  0  0  0  0  0  0  0
   42.7070   82.8410   56.0140 O   0  0  0  0  0  0  0  0  0  0  0  0
   42.5270   83.9830   55.2290 C   0  0  0  0  0  2  0  0  0  0  0  0
   42.9440   83.8790   53.8030 C   0  0  0  0  0  2  0  0  0  0  0  0
   42.3050   83.2600   53.1570 H   0  0  0  0  0  0  0  0  0  0  0  0
  2  1  1  0  0  0  0
  2  3  1  0  0  0  0
  3 12  1  0  0  0  0
  4  3  2  0  0  0  0
  4  9  1  0  0  0  0
  5  4  1  0  0  0  0
  6  8  1  0  0  0  0
  6  5  2  0  0  0  0
  7  6  1  0  0  0  0
  8  2  2  0  0  0  0
 10  5  1  0  0  0  0
 11 16  1  0  0  0  0
 12 13  1  0  0  0  0
 12 11  2  0  0  0  0
 13 14  2  0  0  0  0
 14 15  1  0  0  0  0
 15 19  1  0  0  0  0
 16 15  2  0  0  0  0
 17 11  1  0  0  0  0
 18 13  1  0  0  0  0
 19 22  1  0  0  0  0
 19 21  1  0  0  0  0
 20 19  1  0  0  0  0
 23  8  1  0  0  0  0
 24 23  1  0  0  0  0
 25 24  1  0  0  0  0
 26 25  1  0  0  0  0
M  END
>  <minimizedAffinity>
-4.8096571

>  <minimizedRMSD>
0.826350689

$$$$
