
 OpenBabel03212520153D

 26 27  0  0  0  0  0  0  0  0999 V2000
   43.1590   83.9170   58.6290 Cl  0  0  0  0  0  0  0  0  0  0  0  0
   41.8880   82.7600   58.2220 C   0  0  0  0  0  0  0  0  0  0  0  0
   41.0320   82.2570   59.1650 C   0  0  0  0  0  0  0  0  0  0  0  0
   40.1060   81.3260   58.6830 C   0  0  0  0  0  0  0  0  0  0  0  0
   39.9880   80.8880   57.3830 C   0  0  0  0  0  0  0  0  0  0  0  0
   40.8820   81.4370   56.4850 C   0  0  0  0  0  0  0  0  0  0  0  0
   40.8520   80.9410   54.7980 Cl  0  0  0  0  0  0  0  0  0  0  0  0
   41.8310   82.3770   56.9120 C   0  0  0  0  0  0  0  0  0  0  0  0
   39.4140   80.9080   59.4020 H   0  0  0  0  0  0  0  0  0  0  0  0
   39.2490   80.1730   57.1070 H   0  0  0  0  0  0  0  0  0  0  0  0
   41.9590   82.1430   61.5120 C   0  0  0  0  0  0  0  0  0  0  0  0
   41.1240   82.6830   60.5180 C   0  0  0  0  0  0  0  0  0  0  0  0
   40.2820   83.7530   60.8540 C   0  0  0  0  0  0  0  0  0  0  0  0
   40.3420   84.1900   62.1430 N   0  0  0  0  0  0  0  0  0  0  0  0
   41.1430   83.6640   63.0730 C   0  0  0  0  0  0  0  0  0  0  0  0
   41.9590   82.6320   62.7580 N   0  0  0  0  0  0  0  0  0  0  0  0
   42.5860   81.3250   61.2040 H   0  0  0  0  0  0  0  0  0  0  0  0
   39.6080   84.2350   60.1720 H   0  0  0  0  0  0  0  0  0  0  0  0
   41.0500   84.2940   64.4170 C   0  0  0  0  0  0  0  0  0  0  0  0
   40.7410   85.6460   64.3410 F   0  0  0  0  0  0  0  0  0  0  0  0
   40.1180   83.6530   65.1890 F   0  0  0  0  0  0  0  0  0  0  0  0
   42.3050   84.2720   65.0540 F   0  0  0  0  0  0  0  0  0  0  0  0
   42.6750   82.8740   55.9480 O   0  0  0  0  0  0  0  0  0  0  0  0
   42.5020   84.0460   55.2070 C   0  0  0  0  0  2  0  0  0  0  0  0
   43.3610   84.1990   53.9990 C   0  0  0  0  0  2  0  0  0  0  0  0
   43.1130   83.5510   53.1460 H   0  0  0  0  0  0  0  0  0  0  0  0
  2  1  1  0  0  0  0
  2  3  1  0  0  0  0
  3 12  1  0  0  0  0
  4  3  2  0  0  0  0
  4  9  1  0  0  0  0
  5  4  1  0  0  0  0
  6  8  1  0  0  0  0
  6  5  2  0  0  0  0
  7  6  1  0  0  0  0
  8  2  2  0  0  0  0
 10  5  1  0  0  0  0
 11 16  1  0  0  0  0
 12 13  1  0  0  0  0
 12 11  2  0  0  0  0
 13 14  2  0  0  0  0
 14 15  1  0  0  0  0
 15 19  1  0  0  0  0
 16 15  2  0  0  0  0
 17 11  1  0  0  0  0
 18 13  1  0  0  0  0
 19 22  1  0  0  0  0
 19 21  1  0  0  0  0
 20 19  1  0  0  0  0
 23  8  1  0  0  0  0
 24 23  1  0  0  0  0
 25 24  1  0  0  0  0
 26 25  1  0  0  0  0
M  END
>  <minimizedAffinity>
-4.84212923

>  <minimizedRMSD>
0.702112377

$$$$
