
 OpenBabel03212520163D

 26 27  0  0  0  0  0  0  0  0999 V2000
   39.4690   73.1370   61.2960 Cl  0  0  0  0  0  0  0  0  0  0  0  0
   41.0580   73.5800   60.6660 C   0  0  0  0  0  0  0  0  0  0  0  0
   42.1420   72.7500   60.7760 C   0  0  0  0  0  0  0  0  0  0  0  0
   43.3330   73.2660   60.2540 C   0  0  0  0  0  0  0  0  0  0  0  0
   43.5010   74.4960   59.6610 C   0  0  0  0  0  0  0  0  0  0  0  0
   42.3670   75.2810   59.5830 C   0  0  0  0  0  0  0  0  0  0  0  0
   42.4540   76.8870   58.8700 Cl  0  0  0  0  0  0  0  0  0  0  0  0
   41.1450   74.8140   60.0870 C   0  0  0  0  0  0  0  0  0  0  0  0
   44.2110   72.6370   60.3250 H   0  0  0  0  0  0  0  0  0  0  0  0
   44.4510   74.8060   59.2920 H   0  0  0  0  0  0  0  0  0  0  0  0
   41.8470   71.2100   62.7560 C   0  0  0  0  0  0  0  0  0  0  0  0
   42.0090   71.4730   61.3830 C   0  0  0  0  0  0  0  0  0  0  0  0
   42.0480   70.3910   60.4910 C   0  0  0  0  0  0  0  0  0  0  0  0
   41.9230   69.1490   61.0380 N   0  0  0  0  0  0  0  0  0  0  0  0
   41.7680   68.9200   62.3440 C   0  0  0  0  0  0  0  0  0  0  0  0
   41.7300   69.9570   63.2130 N   0  0  0  0  0  0  0  0  0  0  0  0
   41.8230   72.0720   63.3980 H   0  0  0  0  0  0  0  0  0  0  0  0
   42.1680   70.4830   59.4290 H   0  0  0  0  0  0  0  0  0  0  0  0
   41.6510   67.4870   62.7250 C   0  0  0  0  0  0  0  0  0  0  0  0
   42.7710   67.0350   63.4100 F   0  0  0  0  0  0  0  0  0  0  0  0
   40.5320   67.2800   63.4870 F   0  0  0  0  0  0  0  0  0  0  0  0
   41.6110   66.6780   61.5740 F   0  0  0  0  0  0  0  0  0  0  0  0
   40.0690   75.6600   59.9600 O   0  0  0  0  0  0  0  0  0  0  0  0
   39.0990   75.6360   58.9550 C   0  0  0  0  0  2  0  0  0  0  0  0
   38.9300   76.8880   58.1680 C   0  0  0  0  0  2  0  0  0  0  0  0
   39.7390   77.1290   57.4640 H   0  0  0  0  0  0  0  0  0  0  0  0
  2  3  1  0  0  0  0
  2  1  1  0  0  0  0
  3 12  1  0  0  0  0
  4  9  1  0  0  0  0
  4  3  2  0  0  0  0
  5  4  1  0  0  0  0
  6  5  2  0  0  0  0
  6  8  1  0  0  0  0
  7  6  1  0  0  0  0
  8  2  2  0  0  0  0
 10  5  1  0  0  0  0
 11 16  1  0  0  0  0
 11 17  1  0  0  0  0
 12 11  2  0  0  0  0
 13 14  2  0  0  0  0
 13 12  1  0  0  0  0
 14 15  1  0  0  0  0
 15 19  1  0  0  0  0
 15 16  2  0  0  0  0
 18 13  1  0  0  0  0
 19 20  1  0  0  0  0
 19 21  1  0  0  0  0
 22 19  1  0  0  0  0
 23  8  1  0  0  0  0
 24 23  1  0  0  0  0
 25 24  1  0  0  0  0
 26 25  1  0  0  0  0
M  END
>  <minimizedAffinity>
-5.33399916

$$$$

 OpenBabel03212520163D

 26 27  0  0  0  0  0  0  0  0999 V2000
   41.7350   70.8310   58.7990 Cl  0  0  0  0  0  0  0  0  0  0  0  0
   41.9100   70.6750   60.5500 C   0  0  0  0  0  0  0  0  0  0  0  0
   41.7650   71.7430   61.3940 C   0  0  0  0  0  0  0  0  0  0  0  0
   41.9690   71.4550   62.7480 C   0  0  0  0  0  0  0  0  0  0  0  0
   42.2940   70.2300   63.2830 C   0  0  0  0  0  0  0  0  0  0  0  0
   42.4250   69.1970   62.3750 C   0  0  0  0  0  0  0  0  0  0  0  0
   42.8640   67.5860   62.9290 Cl  0  0  0  0  0  0  0  0  0  0  0  0
   42.2290   69.4280   61.0060 C   0  0  0  0  0  0  0  0  0  0  0  0
   41.8620   72.2770   63.4440 H   0  0  0  0  0  0  0  0  0  0  0  0
   42.4310   70.1050   64.3320 H   0  0  0  0  0  0  0  0  0  0  0  0
   42.2550   73.8550   60.0990 C   0  0  0  0  0  0  0  0  0  0  0  0
   41.4310   73.0240   60.8790 C   0  0  0  0  0  0  0  0  0  0  0  0
   40.1410   73.4690   61.2030 C   0  0  0  0  0  0  0  0  0  0  0  0
   39.7850   74.6950   60.7260 N   0  0  0  0  0  0  0  0  0  0  0  0
   40.5810   75.4690   59.9850 C   0  0  0  0  0  0  0  0  0  0  0  0
   41.8280   75.0480   59.6680 N   0  0  0  0  0  0  0  0  0  0  0  0
   43.2340   73.4690   59.8770 H   0  0  0  0  0  0  0  0  0  0  0  0
   39.4360   72.9140   61.7910 H   0  0  0  0  0  0  0  0  0  0  0  0
   39.9910   76.7690   59.5690 C   0  0  0  0  0  0  0  0  0  0  0  0
   40.8220   77.4670   58.7020 F   0  0  0  0  0  0  0  0  0  0  0  0
   38.7700   76.5800   58.9810 F   0  0  0  0  0  0  0  0  0  0  0  0
   39.8690   77.6260   60.6790 F   0  0  0  0  0  0  0  0  0  0  0  0
   42.3740   68.3400   60.1770 O   0  0  0  0  0  0  0  0  0  0  0  0
   41.3780   67.4330   59.8040 C   0  0  0  0  0  2  0  0  0  0  0  0
   41.7220   65.9900   59.9180 C   0  0  0  0  0  2  0  0  0  0  0  0
   41.7890   65.5880   60.9390 H   0  0  0  0  0  0  0  0  0  0  0  0
  1  2  1  0  0  0  0
  2  8  2  0  0  0  0
  2  3  1  0  0  0  0
  3  4  2  0  0  0  0
  4  5  1  0  0  0  0
  4  9  1  0  0  0  0
  5 10  1  0  0  0  0
  6  7  1  0  0  0  0
  6  5  2  0  0  0  0
  8  6  1  0  0  0  0
 11 12  1  0  0  0  0
 12 13  2  0  0  0  0
 12  3  1  0  0  0  0
 13 18  1  0  0  0  0
 14 13  1  0  0  0  0
 15 14  2  0  0  0  0
 16 15  1  0  0  0  0
 16 11  2  0  0  0  0
 17 11  1  0  0  0  0
 19 15  1  0  0  0  0
 19 22  1  0  0  0  0
 20 19  1  0  0  0  0
 21 19  1  0  0  0  0
 23  8  1  0  0  0  0
 24 25  1  0  0  0  0
 24 23  1  0  0  0  0
 25 26  1  0  0  0  0
M  END
>  <minimizedAffinity>
-5.22863197

$$$$

 OpenBabel03212520163D

 26 27  0  0  0  0  0  0  0  0999 V2000
   42.4090   71.3780   62.6420 Cl  0  0  0  0  0  0  0  0  0  0  0  0
   42.0700   70.5450   61.1220 C   0  0  0  0  0  0  0  0  0  0  0  0
   41.5200   71.1890   60.0460 C   0  0  0  0  0  0  0  0  0  0  0  0
   41.2850   70.3770   58.9310 C   0  0  0  0  0  0  0  0  0  0  0  0
   41.5500   69.0310   58.8300 C   0  0  0  0  0  0  0  0  0  0  0  0
   42.1040   68.4450   59.9510 C   0  0  0  0  0  0  0  0  0  0  0  0
   42.4660   66.7240   59.9590 Cl  0  0  0  0  0  0  0  0  0  0  0  0
   42.3640   69.2120   61.0960 C   0  0  0  0  0  0  0  0  0  0  0  0
   40.8500   70.8540   58.0620 H   0  0  0  0  0  0  0  0  0  0  0  0
   41.3360   68.4920   57.9360 H   0  0  0  0  0  0  0  0  0  0  0  0
   42.0510   73.6280   59.6590 C   0  0  0  0  0  0  0  0  0  0  0  0
   41.2310   72.5790   60.1120 C   0  0  0  0  0  0  0  0  0  0  0  0
   39.9940   72.8940   60.6940 C   0  0  0  0  0  0  0  0  0  0  0  0
   39.6830   74.2180   60.7750 N   0  0  0  0  0  0  0  0  0  0  0  0
   40.4740   75.2000   60.3380 C   0  0  0  0  0  0  0  0  0  0  0  0
   41.6700   74.9060   59.7760 N   0  0  0  0  0  0  0  0  0  0  0  0
   42.9880   73.3350   59.2210 H   0  0  0  0  0  0  0  0  0  0  0  0
   39.2970   72.1710   61.0710 H   0  0  0  0  0  0  0  0  0  0  0  0
   39.9380   76.5750   60.5240 C   0  0  0  0  0  0  0  0  0  0  0  0
   39.1120   76.9610   59.4770 F   0  0  0  0  0  0  0  0  0  0  0  0
   39.2560   76.6720   61.7070 F   0  0  0  0  0  0  0  0  0  0  0  0
   40.9850   77.5160   60.4890 F   0  0  0  0  0  0  0  0  0  0  0  0
   42.9220   68.5460   62.1620 O   0  0  0  0  0  0  0  0  0  0  0  0
   42.2490   68.0310   63.2740 C   0  0  0  0  0  2  0  0  0  0  0  0
   40.8010   67.7370   63.0930 C   0  0  0  0  0  2  0  0  0  0  0  0
   40.5590   66.8660   62.4670 H   0  0  0  0  0  0  0  0  0  0  0  0
  2  1  1  0  0  0  0
  3 12  1  0  0  0  0
  3  2  2  0  0  0  0
  4  3  1  0  0  0  0
  5  4  2  0  0  0  0
  5  6  1  0  0  0  0
  6  7  1  0  0  0  0
  6  8  2  0  0  0  0
  8  2  1  0  0  0  0
  8 23  1  0  0  0  0
  9  4  1  0  0  0  0
 10  5  1  0  0  0  0
 11 16  2  0  0  0  0
 11 12  1  0  0  0  0
 12 13  2  0  0  0  0
 13 14  1  0  0  0  0
 13 18  1  0  0  0  0
 15 19  1  0  0  0  0
 15 14  2  0  0  0  0
 16 15  1  0  0  0  0
 17 11  1  0  0  0  0
 19 21  1  0  0  0  0
 20 19  1  0  0  0  0
 22 19  1  0  0  0  0
 23 24  1  0  0  0  0
 25 24  1  0  0  0  0
 26 25  1  0  0  0  0
M  END
>  <minimizedAffinity>
-5.10837412

$$$$

 OpenBabel03212520163D

 26 27  0  0  0  0  0  0  0  0999 V2000
   41.6900   70.7560   58.6480 Cl  0  0  0  0  0  0  0  0  0  0  0  0
   41.7420   70.7860   60.4130 C   0  0  0  0  0  0  0  0  0  0  0  0
   41.4560   71.9180   61.1300 C   0  0  0  0  0  0  0  0  0  0  0  0
   41.5760   71.7810   62.5170 C   0  0  0  0  0  0  0  0  0  0  0  0
   41.9460   70.6440   63.1980 C   0  0  0  0  0  0  0  0  0  0  0  0
   42.2190   69.5400   62.4130 C   0  0  0  0  0  0  0  0  0  0  0  0
   42.7280   68.0320   63.1610 Cl  0  0  0  0  0  0  0  0  0  0  0  0
   42.1130   69.6190   61.0170 C   0  0  0  0  0  0  0  0  0  0  0  0
   41.3580   72.6560   63.1150 H   0  0  0  0  0  0  0  0  0  0  0  0
   42.0100   70.6340   64.2610 H   0  0  0  0  0  0  0  0  0  0  0  0
   41.9320   74.1140   59.9760 C   0  0  0  0  0  0  0  0  0  0  0  0
   41.0720   73.1120   60.4630 C   0  0  0  0  0  0  0  0  0  0  0  0
   39.6890   73.2700   60.2920 C   0  0  0  0  0  0  0  0  0  0  0  0
   39.2830   74.4040   59.6550 N   0  0  0  0  0  0  0  0  0  0  0  0
   40.1150   75.3440   59.1990 C   0  0  0  0  0  0  0  0  0  0  0  0
   41.4510   75.2000   59.3610 N   0  0  0  0  0  0  0  0  0  0  0  0
   42.9820   73.9460   60.1320 H   0  0  0  0  0  0  0  0  0  0  0  0
   38.9510   72.5670   60.6250 H   0  0  0  0  0  0  0  0  0  0  0  0
   39.4580   76.5010   58.5340 C   0  0  0  0  0  0  0  0  0  0  0  0
   39.4200   77.6220   59.3530 F   0  0  0  0  0  0  0  0  0  0  0  0
   40.0940   76.8100   57.3620 F   0  0  0  0  0  0  0  0  0  0  0  0
   38.1010   76.2180   58.2900 F   0  0  0  0  0  0  0  0  0  0  0  0
   42.3980   68.4710   60.3170 O   0  0  0  0  0  0  0  0  0  0  0  0
   41.4880   67.4910   59.9080 C   0  0  0  0  0  2  0  0  0  0  0  0
   41.9880   66.0900   59.8910 C   0  0  0  0  0  2  0  0  0  0  0  0
   42.1430   65.6200   60.8740 H   0  0  0  0  0  0  0  0  0  0  0  0
  1  2  1  0  0  0  0
  2  8  2  0  0  0  0
  2  3  1  0  0  0  0
  3  4  2  0  0  0  0
  4  9  1  0  0  0  0
  4  5  1  0  0  0  0
  5 10  1  0  0  0  0
  6  7  1  0  0  0  0
  6  5  2  0  0  0  0
  8  6  1  0  0  0  0
 11 17  1  0  0  0  0
 11 12  1  0  0  0  0
 12  3  1  0  0  0  0
 13 12  2  0  0  0  0
 13 18  1  0  0  0  0
 14 13  1  0  0  0  0
 15 16  1  0  0  0  0
 15 14  2  0  0  0  0
 16 11  2  0  0  0  0
 19 15  1  0  0  0  0
 19 20  1  0  0  0  0
 21 19  1  0  0  0  0
 22 19  1  0  0  0  0
 23  8  1  0  0  0  0
 24 23  1  0  0  0  0
 25 24  1  0  0  0  0
 25 26  1  0  0  0  0
M  END
>  <minimizedAffinity>
-5.04415655

$$$$

 OpenBabel03212520163D

 26 27  0  0  0  0  0  0  0  0999 V2000
   39.5490   72.4280   59.4430 Cl  0  0  0  0  0  0  0  0  0  0  0  0
   41.1600   73.1370   59.5860 C   0  0  0  0  0  0  0  0  0  0  0  0
   42.2360   72.4160   60.0290 C   0  0  0  0  0  0  0  0  0  0  0  0
   43.4320   73.1360   60.1150 C   0  0  0  0  0  0  0  0  0  0  0  0
   43.6110   74.4640   59.8030 C   0  0  0  0  0  0  0  0  0  0  0  0
   42.4840   75.1310   59.3620 C   0  0  0  0  0  0  0  0  0  0  0  0
   42.5740   76.8400   58.9560 Cl  0  0  0  0  0  0  0  0  0  0  0  0
   41.2590   74.4580   59.2550 C   0  0  0  0  0  0  0  0  0  0  0  0
   44.3040   72.5970   60.4620 H   0  0  0  0  0  0  0  0  0  0  0  0
   44.5640   74.9310   59.9000 H   0  0  0  0  0  0  0  0  0  0  0  0
   42.0380   69.9630   59.4620 C   0  0  0  0  0  0  0  0  0  0  0  0
   42.0910   71.0420   60.3620 C   0  0  0  0  0  0  0  0  0  0  0  0
   41.9960   70.7780   61.7360 C   0  0  0  0  0  0  0  0  0  0  0  0
   41.8550   69.4710   62.0940 N   0  0  0  0  0  0  0  0  0  0  0  0
   41.8080   68.4590   61.2240 C   0  0  0  0  0  0  0  0  0  0  0  0
   41.8990   68.7040   59.8960 N   0  0  0  0  0  0  0  0  0  0  0  0
   42.1160   70.2170   58.4200 H   0  0  0  0  0  0  0  0  0  0  0  0
   42.0250   71.5280   62.5030 H   0  0  0  0  0  0  0  0  0  0  0  0
   41.6520   67.1100   61.8300 C   0  0  0  0  0  0  0  0  0  0  0  0
   40.3860   66.5820   61.6130 F   0  0  0  0  0  0  0  0  0  0  0  0
   42.5980   66.2490   61.3440 F   0  0  0  0  0  0  0  0  0  0  0  0
   41.7460   67.1920   63.2330 F   0  0  0  0  0  0  0  0  0  0  0  0
   40.1930   75.2000   58.8020 O   0  0  0  0  0  0  0  0  0  0  0  0
   39.2010   75.8020   59.5800 C   0  0  0  0  0  2  0  0  0  0  0  0
   39.5510   76.0790   61.0000 C   0  0  0  0  0  2  0  0  0  0  0  0
   40.2650   76.8980   61.1710 H   0  0  0  0  0  0  0  0  0  0  0  0
  1  2  1  0  0  0  0
  2  3  1  0  0  0  0
  3  4  2  0  0  0  0
  3 12  1  0  0  0  0
  4  9  1  0  0  0  0
  5 10  1  0  0  0  0
  5  4  1  0  0  0  0
  6  5  2  0  0  0  0
  7  6  1  0  0  0  0
  8  6  1  0  0  0  0
  8  2  2  0  0  0  0
 11 16  2  0  0  0  0
 11 12  1  0  0  0  0
 12 13  2  0  0  0  0
 13 14  1  0  0  0  0
 13 18  1  0  0  0  0
 15 19  1  0  0  0  0
 15 14  2  0  0  0  0
 16 15  1  0  0  0  0
 17 11  1  0  0  0  0
 19 22  1  0  0  0  0
 20 19  1  0  0  0  0
 21 19  1  0  0  0  0
 23  8  1  0  0  0  0
 23 24  1  0  0  0  0
 24 25  1  0  0  0  0
 25 26  1  0  0  0  0
M  END
>  <minimizedAffinity>
-4.94638777

$$$$

 OpenBabel03212520163D

 26 27  0  0  0  0  0  0  0  0999 V2000
   40.1980   71.0990   57.6430 Cl  0  0  0  0  0  0  0  0  0  0  0  0
   41.1650   70.4390   58.9660 C   0  0  0  0  0  0  0  0  0  0  0  0
   41.6190   71.2190   59.9960 C   0  0  0  0  0  0  0  0  0  0  0  0
   42.3980   70.5470   60.9430 C   0  0  0  0  0  0  0  0  0  0  0  0
   42.7360   69.2130   60.9270 C   0  0  0  0  0  0  0  0  0  0  0  0
   42.2450   68.4860   59.8600 C   0  0  0  0  0  0  0  0  0  0  0  0
   42.6270   66.7760   59.7090 Cl  0  0  0  0  0  0  0  0  0  0  0  0
   41.4560   69.1070   58.8820 C   0  0  0  0  0  0  0  0  0  0  0  0
   42.7740   71.1340   61.7710 H   0  0  0  0  0  0  0  0  0  0  0  0
   43.3370   68.7870   61.6950 H   0  0  0  0  0  0  0  0  0  0  0  0
   41.9720   73.6480   59.3980 C   0  0  0  0  0  0  0  0  0  0  0  0
   41.2920   72.6010   60.0470 C   0  0  0  0  0  0  0  0  0  0  0  0
   40.1720   72.9110   60.8330 C   0  0  0  0  0  0  0  0  0  0  0  0
   39.8280   74.2270   60.9050 N   0  0  0  0  0  0  0  0  0  0  0  0
   40.4860   75.2070   60.2810 C   0  0  0  0  0  0  0  0  0  0  0  0
   41.5680   74.9180   59.5210 N   0  0  0  0  0  0  0  0  0  0  0  0
   42.8230   73.3590   58.8080 H   0  0  0  0  0  0  0  0  0  0  0  0
   39.5860   72.1880   61.3670 H   0  0  0  0  0  0  0  0  0  0  0  0
   39.9390   76.5730   60.4960 C   0  0  0  0  0  0  0  0  0  0  0  0
   40.9420   77.5280   60.5970 F   0  0  0  0  0  0  0  0  0  0  0  0
   39.0800   76.9150   59.4870 F   0  0  0  0  0  0  0  0  0  0  0  0
   39.2810   76.6450   61.7390 F   0  0  0  0  0  0  0  0  0  0  0  0
   41.0060   68.3040   57.8600 O   0  0  0  0  0  0  0  0  0  0  0  0
   41.5510   68.1960   56.5780 C   0  0  0  0  0  2  0  0  0  0  0  0
   42.9870   68.5590   56.4360 C   0  0  0  0  0  2  0  0  0  0  0  0
   43.7090   67.8510   56.8670 H   0  0  0  0  0  0  0  0  0  0  0  0
  1  2  1  0  0  0  0
  2  3  1  0  0  0  0
  3 12  1  0  0  0  0
  3  4  2  0  0  0  0
  4  9  1  0  0  0  0
  5  4  1  0  0  0  0
  5 10  1  0  0  0  0
  6  5  2  0  0  0  0
  7  6  1  0  0  0  0
  8  2  2  0  0  0  0
  8  6  1  0  0  0  0
 11 16  2  0  0  0  0
 11 12  1  0  0  0  0
 12 13  2  0  0  0  0
 13 14  1  0  0  0  0
 13 18  1  0  0  0  0
 15 19  1  0  0  0  0
 15 14  2  0  0  0  0
 16 15  1  0  0  0  0
 17 11  1  0  0  0  0
 19 20  1  0  0  0  0
 19 22  1  0  0  0  0
 21 19  1  0  0  0  0
 23  8  1  0  0  0  0
 24 23  1  0  0  0  0
 25 24  1  0  0  0  0
 25 26  1  0  0  0  0
M  END
>  <minimizedAffinity>
-4.80393553

$$$$

 OpenBabel03212520163D

 26 27  0  0  0  0  0  0  0  0999 V2000
   41.1110   76.3230   57.8090 Cl  0  0  0  0  0  0  0  0  0  0  0  0
   39.4810   75.7180   57.4960 C   0  0  0  0  0  0  0  0  0  0  0  0
   38.9940   74.5910   58.1030 C   0  0  0  0  0  0  0  0  0  0  0  0
   37.6980   74.2300   57.7200 C   0  0  0  0  0  0  0  0  0  0  0  0
   36.8990   74.8890   56.8140 C   0  0  0  0  0  0  0  0  0  0  0  0
   37.4530   76.0170   56.2400 C   0  0  0  0  0  0  0  0  0  0  0  0
   36.5440   76.9350   55.0470 Cl  0  0  0  0  0  0  0  0  0  0  0  0
   38.7480   76.4270   56.5890 C   0  0  0  0  0  0  0  0  0  0  0  0
   37.2810   73.3440   58.1810 H   0  0  0  0  0  0  0  0  0  0  0  0
   35.9200   74.5390   56.5840 H   0  0  0  0  0  0  0  0  0  0  0  0
   40.8010   72.9490   58.7510 C   0  0  0  0  0  0  0  0  0  0  0  0
   39.7890   73.8820   59.0440 C   0  0  0  0  0  0  0  0  0  0  0  0
   39.5060   74.1690   60.3870 C   0  0  0  0  0  0  0  0  0  0  0  0
   40.2490   73.5070   61.3180 N   0  0  0  0  0  0  0  0  0  0  0  0
   41.2070   72.6260   61.0200 C   0  0  0  0  0  0  0  0  0  0  0  0
   41.4870   72.3420   59.7270 N   0  0  0  0  0  0  0  0  0  0  0  0
   40.9800   72.7640   57.7070 H   0  0  0  0  0  0  0  0  0  0  0  0
   38.7560   74.8620   60.7150 H   0  0  0  0  0  0  0  0  0  0  0  0
   41.8950   72.0200   62.1920 C   0  0  0  0  0  0  0  0  0  0  0  0
   42.6550   70.9130   61.8370 F   0  0  0  0  0  0  0  0  0  0  0  0
   42.6910   72.9430   62.8150 F   0  0  0  0  0  0  0  0  0  0  0  0
   40.9510   71.5030   63.0980 F   0  0  0  0  0  0  0  0  0  0  0  0
   39.2150   77.5640   55.9720 O   0  0  0  0  0  0  0  0  0  0  0  0
   40.1900   77.6350   54.9730 C   0  0  0  0  0  2  0  0  0  0  0  0
   39.9370   76.8350   53.7440 C   0  0  0  0  0  2  0  0  0  0  0  0
   39.1440   77.2080   53.0790 H   0  0  0  0  0  0  0  0  0  0  0  0
  2  1  1  0  0  0  0
  2  3  1  0  0  0  0
  3 12  1  0  0  0  0
  4  3  2  0  0  0  0
  4  9  1  0  0  0  0
  5  4  1  0  0  0  0
  6  8  1  0  0  0  0
  6  5  2  0  0  0  0
  7  6  1  0  0  0  0
  8  2  2  0  0  0  0
 10  5  1  0  0  0  0
 11 12  2  0  0  0  0
 11 16  1  0  0  0  0
 12 13  1  0  0  0  0
 13 18  1  0  0  0  0
 13 14  2  0  0  0  0
 15 14  1  0  0  0  0
 15 19  1  0  0  0  0
 16 15  2  0  0  0  0
 17 11  1  0  0  0  0
 19 21  1  0  0  0  0
 19 22  1  0  0  0  0
 20 19  1  0  0  0  0
 23  8  1  0  0  0  0
 24 23  1  0  0  0  0
 25 24  1  0  0  0  0
 26 25  1  0  0  0  0
M  END
>  <minimizedAffinity>
-4.7730689

$$$$

 OpenBabel03212520163D

 26 27  0  0  0  0  0  0  0  0999 V2000
   41.5620   69.9160   59.0340 Cl  0  0  0  0  0  0  0  0  0  0  0  0
   41.9030   69.8960   60.7670 C   0  0  0  0  0  0  0  0  0  0  0  0
   42.0980   71.0460   61.4840 C   0  0  0  0  0  0  0  0  0  0  0  0
   42.3910   70.8530   62.8380 C   0  0  0  0  0  0  0  0  0  0  0  0
   42.4970   69.6450   63.4870 C   0  0  0  0  0  0  0  0  0  0  0  0
   42.2880   68.5260   62.7040 C   0  0  0  0  0  0  0  0  0  0  0  0
   42.4210   66.9200   63.4100 Cl  0  0  0  0  0  0  0  0  0  0  0  0
   41.9890   68.6600   61.3420 C   0  0  0  0  0  0  0  0  0  0  0  0
   42.5510   71.7410   63.4350 H   0  0  0  0  0  0  0  0  0  0  0  0
   42.7250   69.5950   64.5260 H   0  0  0  0  0  0  0  0  0  0  0  0
   40.8310   73.0850   60.6960 C   0  0  0  0  0  0  0  0  0  0  0  0
   41.9980   72.3130   60.8480 C   0  0  0  0  0  0  0  0  0  0  0  0
   43.2050   72.8100   60.3360 C   0  0  0  0  0  0  0  0  0  0  0  0
   43.1480   74.0240   59.7190 N   0  0  0  0  0  0  0  0  0  0  0  0
   42.0300   74.7420   59.5850 C   0  0  0  0  0  0  0  0  0  0  0  0
   40.8610   74.2710   60.0760 N   0  0  0  0  0  0  0  0  0  0  0  0
   39.9320   72.6610   61.1060 H   0  0  0  0  0  0  0  0  0  0  0  0
   44.1480   72.3020   60.3990 H   0  0  0  0  0  0  0  0  0  0  0  0
   42.1940   76.0410   58.8790 C   0  0  0  0  0  0  0  0  0  0  0  0
   42.0750   77.1230   59.7410 F   0  0  0  0  0  0  0  0  0  0  0  0
   43.4020   76.0940   58.2380 F   0  0  0  0  0  0  0  0  0  0  0  0
   41.1470   76.2290   57.9570 F   0  0  0  0  0  0  0  0  0  0  0  0
   41.7910   67.4930   60.6420 O   0  0  0  0  0  0  0  0  0  0  0  0
   42.7590   66.7490   59.9620 C   0  0  0  0  0  2  0  0  0  0  0  0
   42.7160   65.2740   60.1530 C   0  0  0  0  0  2  0  0  0  0  0  0
   41.8830   64.7470   59.6650 H   0  0  0  0  0  0  0  0  0  0  0  0
  1  2  1  0  0  0  0
  2  8  2  0  0  0  0
  2  3  1  0  0  0  0
  3  4  2  0  0  0  0
  4  9  1  0  0  0  0
  4  5  1  0  0  0  0
  5 10  1  0  0  0  0
  6  7  1  0  0  0  0
  6  5  2  0  0  0  0
  8  6  1  0  0  0  0
 11 12  1  0  0  0  0
 11 17  1  0  0  0  0
 12  3  1  0  0  0  0
 13 18  1  0  0  0  0
 13 12  2  0  0  0  0
 14 13  1  0  0  0  0
 15 14  2  0  0  0  0
 15 16  1  0  0  0  0
 16 11  2  0  0  0  0
 19 15  1  0  0  0  0
 19 20  1  0  0  0  0
 21 19  1  0  0  0  0
 22 19  1  0  0  0  0
 23  8  1  0  0  0  0
 24 25  1  0  0  0  0
 24 23  1  0  0  0  0
 26 25  1  0  0  0  0
M  END
>  <minimizedAffinity>
-4.71605396

$$$$

 OpenBabel03212520163D

 26 27  0  0  0  0  0  0  0  0999 V2000
   41.0540   75.7050   59.2440 Cl  0  0  0  0  0  0  0  0  0  0  0  0
   39.6420   74.9340   58.5160 C   0  0  0  0  0  0  0  0  0  0  0  0
   39.3540   73.6090   58.7120 C   0  0  0  0  0  0  0  0  0  0  0  0
   38.2190   73.1480   58.0380 C   0  0  0  0  0  0  0  0  0  0  0  0
   37.3960   73.8880   57.2200 C   0  0  0  0  0  0  0  0  0  0  0  0
   37.7440   75.2160   57.0670 C   0  0  0  0  0  0  0  0  0  0  0  0
   36.7880   76.2630   56.0270 Cl  0  0  0  0  0  0  0  0  0  0  0  0
   38.8710   75.7330   57.7210 C   0  0  0  0  0  0  0  0  0  0  0  0
   37.9620   72.1050   58.1710 H   0  0  0  0  0  0  0  0  0  0  0  0
   36.5490   73.4490   56.7460 H   0  0  0  0  0  0  0  0  0  0  0  0
   40.4970   73.0600   60.8970 C   0  0  0  0  0  0  0  0  0  0  0  0
   40.1810   72.8110   59.5490 C   0  0  0  0  0  0  0  0  0  0  0  0
   40.7140   71.6710   58.9320 C   0  0  0  0  0  0  0  0  0  0  0  0
   41.5120   70.8810   59.7030 N   0  0  0  0  0  0  0  0  0  0  0  0
   41.8000   71.1330   60.9820 C   0  0  0  0  0  0  0  0  0  0  0  0
   41.2910   72.2320   61.5860 N   0  0  0  0  0  0  0  0  0  0  0  0
   40.0640   73.9470   61.3240 H   0  0  0  0  0  0  0  0  0  0  0  0
   40.5340   71.3910   57.9110 H   0  0  0  0  0  0  0  0  0  0  0  0
   42.6910   70.1390   61.6380 C   0  0  0  0  0  0  0  0  0  0  0  0
   42.1370   68.8660   61.6480 F   0  0  0  0  0  0  0  0  0  0  0  0
   43.9130   70.1030   61.0200 F   0  0  0  0  0  0  0  0  0  0  0  0
   42.8460   70.4480   63.0020 F   0  0  0  0  0  0  0  0  0  0  0  0
   39.1380   77.0660   57.5160 O   0  0  0  0  0  0  0  0  0  0  0  0
   40.0460   77.6070   56.6010 C   0  0  0  0  0  2  0  0  0  0  0  0
   40.5350   76.6920   55.5340 C   0  0  0  0  0  2  0  0  0  0  0  0
   39.8100   76.4300   54.7500 H   0  0  0  0  0  0  0  0  0  0  0  0
  2  3  1  0  0  0  0
  2  1  1  0  0  0  0
  3 12  1  0  0  0  0
  4  9  1  0  0  0  0
  4  3  2  0  0  0  0
  5  4  1  0  0  0  0
  6  5  2  0  0  0  0
  6  8  1  0  0  0  0
  7  6  1  0  0  0  0
  8  2  2  0  0  0  0
 10  5  1  0  0  0  0
 11 17  1  0  0  0  0
 11 16  1  0  0  0  0
 12 11  2  0  0  0  0
 13 12  1  0  0  0  0
 13 14  2  0  0  0  0
 14 15  1  0  0  0  0
 15 16  2  0  0  0  0
 15 19  1  0  0  0  0
 18 13  1  0  0  0  0
 19 20  1  0  0  0  0
 19 22  1  0  0  0  0
 21 19  1  0  0  0  0
 23  8  1  0  0  0  0
 24 23  1  0  0  0  0
 25 24  1  0  0  0  0
 26 25  1  0  0  0  0
M  END
>  <minimizedAffinity>
-4.58326769

$$$$
