
 OpenBabel03212520153D

 26 27  0  0  0  0  0  0  0  0999 V2000
   43.1590   83.9180   58.6310 Cl  0  0  0  0  0  0  0  0  0  0  0  0
   41.8880   82.7610   58.2240 C   0  0  0  0  0  0  0  0  0  0  0  0
   41.0330   82.2570   59.1670 C   0  0  0  0  0  0  0  0  0  0  0  0
   40.1070   81.3260   58.6840 C   0  0  0  0  0  0  0  0  0  0  0  0
   39.9890   80.8890   57.3850 C   0  0  0  0  0  0  0  0  0  0  0  0
   40.8830   81.4370   56.4860 C   0  0  0  0  0  0  0  0  0  0  0  0
   40.8530   80.9410   54.7990 Cl  0  0  0  0  0  0  0  0  0  0  0  0
   41.8310   82.3770   56.9140 C   0  0  0  0  0  0  0  0  0  0  0  0
   39.4140   80.9080   59.4030 H   0  0  0  0  0  0  0  0  0  0  0  0
   39.2490   80.1730   57.1090 H   0  0  0  0  0  0  0  0  0  0  0  0
   41.9590   82.1430   61.5140 C   0  0  0  0  0  0  0  0  0  0  0  0
   41.1240   82.6840   60.5190 C   0  0  0  0  0  0  0  0  0  0  0  0
   40.2820   83.7530   60.8550 C   0  0  0  0  0  0  0  0  0  0  0  0
   40.3420   84.1900   62.1450 N   0  0  0  0  0  0  0  0  0  0  0  0
   41.1430   83.6650   63.0750 C   0  0  0  0  0  0  0  0  0  0  0  0
   41.9580   82.6320   62.7600 N   0  0  0  0  0  0  0  0  0  0  0  0
   42.5850   81.3250   61.2060 H   0  0  0  0  0  0  0  0  0  0  0  0
   39.6090   84.2350   60.1730 H   0  0  0  0  0  0  0  0  0  0  0  0
   41.0500   84.2950   64.4190 C   0  0  0  0  0  0  0  0  0  0  0  0
   40.7400   85.6470   64.3430 F   0  0  0  0  0  0  0  0  0  0  0  0
   40.1180   83.6540   65.1900 F   0  0  0  0  0  0  0  0  0  0  0  0
   42.3050   84.2730   65.0560 F   0  0  0  0  0  0  0  0  0  0  0  0
   42.6760   82.8740   55.9500 O   0  0  0  0  0  0  0  0  0  0  0  0
   42.5030   84.0460   55.2080 C   0  0  0  0  0  2  0  0  0  0  0  0
   43.3610   84.1980   54.0010 C   0  0  0  0  0  2  0  0  0  0  0  0
   43.1130   83.5510   53.1470 H   0  0  0  0  0  0  0  0  0  0  0  0
  2  1  1  0  0  0  0
  2  3  1  0  0  0  0
  3 12  1  0  0  0  0
  4  3  2  0  0  0  0
  4  9  1  0  0  0  0
  5  4  1  0  0  0  0
  6  8  1  0  0  0  0
  6  5  2  0  0  0  0
  7  6  1  0  0  0  0
  8  2  2  0  0  0  0
 10  5  1  0  0  0  0
 11 16  1  0  0  0  0
 12 13  1  0  0  0  0
 12 11  2  0  0  0  0
 13 14  2  0  0  0  0
 14 15  1  0  0  0  0
 15 19  1  0  0  0  0
 16 15  2  0  0  0  0
 17 11  1  0  0  0  0
 18 13  1  0  0  0  0
 19 22  1  0  0  0  0
 19 21  1  0  0  0  0
 20 19  1  0  0  0  0
 23  8  1  0  0  0  0
 24 23  1  0  0  0  0
 25 24  1  0  0  0  0
 26 25  1  0  0  0  0
M  END
>  <minimizedAffinity>
-4.8419075

>  <minimizedRMSD>
0.705556452

$$$$
