
 OpenBabel03212520153D

 26 27  0  0  0  0  0  0  0  0999 V2000
   42.7150   83.2650   59.0650 Cl  0  0  0  0  0  0  0  0  0  0  0  0
   41.5620   83.1550   60.3980 C   0  0  0  0  0  0  0  0  0  0  0  0
   40.4790   82.3170   60.3570 C   0  0  0  0  0  0  0  0  0  0  0  0
   39.6470   82.3760   61.4800 C   0  0  0  0  0  0  0  0  0  0  0  0
   39.8190   83.1790   62.5840 C   0  0  0  0  0  0  0  0  0  0  0  0
   40.9300   83.9990   62.5590 C   0  0  0  0  0  0  0  0  0  0  0  0
   41.2490   85.0920   63.8990 Cl  0  0  0  0  0  0  0  0  0  0  0  0
   41.8010   83.9800   61.4600 C   0  0  0  0  0  0  0  0  0  0  0  0
   38.7810   81.7270   61.4810 H   0  0  0  0  0  0  0  0  0  0  0  0
   39.1290   83.1560   63.3960 H   0  0  0  0  0  0  0  0  0  0  0  0
   40.0250   81.8850   57.9100 C   0  0  0  0  0  0  0  0  0  0  0  0
   40.2670   81.4740   59.2340 C   0  0  0  0  0  0  0  0  0  0  0  0
   40.3120   80.1000   59.5140 C   0  0  0  0  0  0  0  0  0  0  0  0
   40.1130   79.2600   58.4600 N   0  0  0  0  0  0  0  0  0  0  0  0
   39.8850   79.6700   57.2100 C   0  0  0  0  0  0  0  0  0  0  0  0
   39.8400   80.9930   56.9300 N   0  0  0  0  0  0  0  0  0  0  0  0
   40.0000   82.9480   57.7470 H   0  0  0  0  0  0  0  0  0  0  0  0
   40.4890   79.6840   60.4870 H   0  0  0  0  0  0  0  0  0  0  0  0
   39.6960   78.5830   56.2120 C   0  0  0  0  0  0  0  0  0  0  0  0
   40.8650   77.8650   55.9930 F   0  0  0  0  0  0  0  0  0  0  0  0
   38.7010   77.7300   56.6090 F   0  0  0  0  0  0  0  0  0  0  0  0
   39.3940   79.1270   54.9500 F   0  0  0  0  0  0  0  0  0  0  0  0
   42.8840   84.8240   61.5250 O   0  0  0  0  0  0  0  0  0  0  0  0
   44.1850   84.4890   61.9100 C   0  0  0  0  0  2  0  0  0  0  0  0
   45.2790   85.3230   61.3420 C   0  0  0  0  0  2  0  0  0  0  0  0
   45.3620   86.3470   61.7380 H   0  0  0  0  0  0  0  0  0  0  0  0
  1  2  1  0  0  0  0
  2  8  1  0  0  0  0
  3  2  2  0  0  0  0
  3  4  1  0  0  0  0
  4  9  1  0  0  0  0
  4  5  2  0  0  0  0
  5 10  1  0  0  0  0
  6  5  1  0  0  0  0
  6  7  1  0  0  0  0
  8 23  1  0  0  0  0
  8  6  2  0  0  0  0
 11 12  1  0  0  0  0
 12 13  2  0  0  0  0
 12  3  1  0  0  0  0
 13 18  1  0  0  0  0
 14 13  1  0  0  0  0
 15 14  2  0  0  0  0
 16 15  1  0  0  0  0
 16 11  2  0  0  0  0
 17 11  1  0  0  0  0
 19 21  1  0  0  0  0
 19 15  1  0  0  0  0
 20 19  1  0  0  0  0
 22 19  1  0  0  0  0
 23 24  1  0  0  0  0
 25 26  1  0  0  0  0
 25 24  1  0  0  0  0
M  END
>  <minimizedAffinity>
-4.29371166

>  <minimizedRMSD>
6.93061733

$$$$
