
 OpenBabel03212520153D

 26 27  0  0  0  0  0  0  0  0999 V2000
   43.1590   83.9170   58.6230 Cl  0  0  0  0  0  0  0  0  0  0  0  0
   41.8880   82.7600   58.2170 C   0  0  0  0  0  0  0  0  0  0  0  0
   41.0320   82.2560   59.1600 C   0  0  0  0  0  0  0  0  0  0  0  0
   40.1060   81.3260   58.6780 C   0  0  0  0  0  0  0  0  0  0  0  0
   39.9870   80.8890   57.3780 C   0  0  0  0  0  0  0  0  0  0  0  0
   40.8810   81.4370   56.4800 C   0  0  0  0  0  0  0  0  0  0  0  0
   40.8500   80.9410   54.7920 Cl  0  0  0  0  0  0  0  0  0  0  0  0
   41.8300   82.3760   56.9070 C   0  0  0  0  0  0  0  0  0  0  0  0
   39.4140   80.9080   59.3970 H   0  0  0  0  0  0  0  0  0  0  0  0
   39.2470   80.1740   57.1020 H   0  0  0  0  0  0  0  0  0  0  0  0
   41.9610   82.1430   61.5060 C   0  0  0  0  0  0  0  0  0  0  0  0
   41.1240   82.6830   60.5120 C   0  0  0  0  0  0  0  0  0  0  0  0
   40.2810   83.7510   60.8500 C   0  0  0  0  0  0  0  0  0  0  0  0
   40.3420   84.1880   62.1390 N   0  0  0  0  0  0  0  0  0  0  0  0
   41.1440   83.6630   63.0680 C   0  0  0  0  0  0  0  0  0  0  0  0
   41.9610   82.6320   62.7520 N   0  0  0  0  0  0  0  0  0  0  0  0
   42.5880   81.3260   61.1980 H   0  0  0  0  0  0  0  0  0  0  0  0
   39.6070   84.2320   60.1680 H   0  0  0  0  0  0  0  0  0  0  0  0
   41.0520   84.2930   64.4130 C   0  0  0  0  0  0  0  0  0  0  0  0
   40.7440   85.6450   64.3370 F   0  0  0  0  0  0  0  0  0  0  0  0
   40.1190   83.6520   65.1840 F   0  0  0  0  0  0  0  0  0  0  0  0
   42.3070   84.2700   65.0490 F   0  0  0  0  0  0  0  0  0  0  0  0
   42.6740   82.8740   55.9430 O   0  0  0  0  0  0  0  0  0  0  0  0
   42.4990   84.0430   55.1970 C   0  0  0  0  0  2  0  0  0  0  0  0
   43.3700   84.2030   54.0020 C   0  0  0  0  0  2  0  0  0  0  0  0
   43.1410   83.5520   53.1450 H   0  0  0  0  0  0  0  0  0  0  0  0
  2  1  1  0  0  0  0
  2  3  1  0  0  0  0
  3 12  1  0  0  0  0
  4  3  2  0  0  0  0
  4  9  1  0  0  0  0
  5  4  1  0  0  0  0
  6  8  1  0  0  0  0
  6  5  2  0  0  0  0
  7  6  1  0  0  0  0
  8  2  2  0  0  0  0
 10  5  1  0  0  0  0
 11 16  1  0  0  0  0
 12 13  1  0  0  0  0
 12 11  2  0  0  0  0
 13 14  2  0  0  0  0
 14 15  1  0  0  0  0
 15 19  1  0  0  0  0
 16 15  2  0  0  0  0
 17 11  1  0  0  0  0
 18 13  1  0  0  0  0
 19 22  1  0  0  0  0
 19 21  1  0  0  0  0
 20 19  1  0  0  0  0
 23  8  1  0  0  0  0
 24 23  1  0  0  0  0
 25 24  1  0  0  0  0
 26 25  1  0  0  0  0
M  END
>  <minimizedAffinity>
-4.84265709

>  <minimizedRMSD>
0.72353375

$$$$
