
 OpenBabel03212520153D

 26 27  0  0  0  0  0  0  0  0999 V2000
   42.7480   84.7650   59.6180 Cl  0  0  0  0  0  0  0  0  0  0  0  0
   41.9470   83.2240   59.3000 C   0  0  0  0  0  0  0  0  0  0  0  0
   41.9380   82.6490   58.0570 C   0  0  0  0  0  0  0  0  0  0  0  0
   41.2310   81.4460   57.9700 C   0  0  0  0  0  0  0  0  0  0  0  0
   40.5640   80.8130   58.9930 C   0  0  0  0  0  0  0  0  0  0  0  0
   40.6130   81.4470   60.2200 C   0  0  0  0  0  0  0  0  0  0  0  0
   39.7790   80.7530   61.6040 Cl  0  0  0  0  0  0  0  0  0  0  0  0
   41.3100   82.6540   60.3660 C   0  0  0  0  0  0  0  0  0  0  0  0
   41.2040   80.9640   57.0010 H   0  0  0  0  0  0  0  0  0  0  0  0
   40.0500   79.8940   58.8320 H   0  0  0  0  0  0  0  0  0  0  0  0
   42.0830   84.2390   56.0990 C   0  0  0  0  0  0  0  0  0  0  0  0
   42.6140   83.2730   56.9740 C   0  0  0  0  0  0  0  0  0  0  0  0
   43.9420   82.8590   56.7940 C   0  0  0  0  0  0  0  0  0  0  0  0
   44.6220   83.4360   55.7640 N   0  0  0  0  0  0  0  0  0  0  0  0
   44.1010   84.3520   54.9440 C   0  0  0  0  0  0  0  0  0  0  0  0
   42.8210   84.7580   55.1100 N   0  0  0  0  0  0  0  0  0  0  0  0
   41.0620   84.5230   56.2790 H   0  0  0  0  0  0  0  0  0  0  0  0
   44.4400   82.1310   57.4040 H   0  0  0  0  0  0  0  0  0  0  0  0
   45.0210   84.8520   53.8880 C   0  0  0  0  0  0  0  0  0  0  0  0
   45.8650   85.8490   54.3580 F   0  0  0  0  0  0  0  0  0  0  0  0
   45.7650   83.8260   53.3700 F   0  0  0  0  0  0  0  0  0  0  0  0
   44.2900   85.4850   52.8650 F   0  0  0  0  0  0  0  0  0  0  0  0
   41.3110   83.2100   61.6240 O   0  0  0  0  0  0  0  0  0  0  0  0
   42.2630   83.0100   62.6270 C   0  0  0  0  0  2  0  0  0  0  0  0
   42.3450   84.0580   63.6820 C   0  0  0  0  0  2  0  0  0  0  0  0
   41.5100   84.0890   64.3970 H   0  0  0  0  0  0  0  0  0  0  0  0
  2  1  1  0  0  0  0
  2  8  1  0  0  0  0
  3  2  2  0  0  0  0
  4  3  1  0  0  0  0
  4  5  2  0  0  0  0
  5  6  1  0  0  0  0
  6  8  2  0  0  0  0
  6  7  1  0  0  0  0
  8 23  1  0  0  0  0
  9  4  1  0  0  0  0
 10  5  1  0  0  0  0
 11 17  1  0  0  0  0
 11 12  1  0  0  0  0
 12  3  1  0  0  0  0
 13 12  2  0  0  0  0
 13 18  1  0  0  0  0
 14 13  1  0  0  0  0
 15 16  1  0  0  0  0
 15 14  2  0  0  0  0
 16 11  2  0  0  0  0
 19 20  1  0  0  0  0
 19 15  1  0  0  0  0
 21 19  1  0  0  0  0
 22 19  1  0  0  0  0
 23 24  1  0  0  0  0
 24 25  1  0  0  0  0
 25 26  1  0  0  0  0
M  END
>  <minimizedAffinity>
-3.34060836

>  <minimizedRMSD>
7.32410669

$$$$
