
 OpenBabel03212520393D

 21 22  0  0  1  0  0  0  0  0999 V2000
   42.1730   85.2790   59.7500 C   0  0  1  0  0  0  0  0  0  0  0  0
   43.1160   85.2910   58.5520 C   0  0  0  0  0  0  0  0  0  0  0  0
   41.7680   84.5940   58.5140 C   0  0  1  0  0  0  0  0  0  0  0  0
   41.8560   86.3050   60.0300 H   0  0  0  0  0  0  0  0  0  0  0  0
   43.9730   84.5930   58.5240 H   0  0  0  0  0  0  0  0  0  0  0  0
   43.2580   86.2210   57.9720 H   0  0  0  0  0  0  0  0  0  0  0  0
   41.0120   85.1170   57.9000 H   0  0  0  0  0  0  0  0  0  0  0  0
   42.6990   84.5010   60.8260 O   0  0  0  0  0  0  0  0  0  0  0  0
   40.0160   83.5760   63.0700 C   0  0  0  0  0  0  0  0  0  0  0  0
   40.5800   83.8380   64.3190 C   0  0  0  0  0  0  0  0  0  0  0  0
   41.9110   84.3410   64.3530 C   0  0  0  0  0  0  0  0  0  0  0  0
   42.4920   84.5140   63.1580 N   0  0  0  0  0  0  0  0  0  0  0  0
   41.9470   84.2610   61.9520 C   0  0  0  0  0  0  0  0  0  0  0  0
   40.7070   83.7910   61.9040 N   0  0  0  0  0  0  0  0  0  0  0  0
   38.9950   83.1870   63.0170 H   0  0  0  0  0  0  0  0  0  0  0  0
   40.0710   83.6810   65.2400 H   0  0  0  0  0  0  0  0  0  0  0  0
   42.4290   84.5740   65.2730 H   0  0  0  0  0  0  0  0  0  0  0  0
   41.7560   83.1910   58.5530 O   0  0  0  0  0  0  0  0  0  0  0  0
   40.4600   82.7340   58.5220 C   0  0  0  0  0  2  0  0  0  0  0  0
   40.2510   81.4450   57.7970 C   0  0  0  0  0  2  0  0  0  0  0  0
   40.0130   81.5980   56.7210 H   0  0  0  0  0  0  0  0  0  0  0  0
  1  4  1  1  0  0  0
  1  8  1  0  0  0  0
  2  1  1  0  0  0  0
  3  7  1  6  0  0  0
  3  2  1  0  0  0  0
  3 18  1  0  0  0  0
  3  1  1  0  0  0  0
  5  2  1  0  0  0  0
  6  2  1  0  0  0  0
  8 13  1  0  0  0  0
  9 10  1  0  0  0  0
 10 11  2  0  0  0  0
 10 16  1  0  0  0  0
 11 17  1  0  0  0  0
 12 11  1  0  0  0  0
 13 12  2  0  0  0  0
 14 13  1  0  0  0  0
 14  9  2  0  0  0  0
 15  9  1  0  0  0  0
 19 18  1  0  0  0  0
 20 19  1  0  0  0  0
 21 20  1  0  0  0  0
M  END
>  <minimizedAffinity>
-3.57813144

>  <minimizedRMSD>
1.95428538

$$$$
