
 OpenBabel03212520393D

 21 22  0  0  1  0  0  0  0  0999 V2000
   42.1210   85.3400   59.6840 C   0  0  1  0  0  0  0  0  0  0  0  0
   43.1110   86.1350   58.8400 C   0  0  0  0  0  0  0  0  0  0  0  0
   42.5450   84.8020   58.3830 C   0  0  1  0  0  0  0  0  0  0  0  0
   41.1810   85.9060   59.8510 H   0  0  0  0  0  0  0  0  0  0  0  0
   44.1900   86.0950   59.0810 H   0  0  0  0  0  0  0  0  0  0  0  0
   42.7850   87.0610   58.3340 H   0  0  0  0  0  0  0  0  0  0  0  0
   41.8080   84.8880   57.5640 H   0  0  0  0  0  0  0  0  0  0  0  0
   42.7310   84.8300   60.8710 O   0  0  0  0  0  0  0  0  0  0  0  0
   40.0640   83.4950   62.9190 C   0  0  0  0  0  0  0  0  0  0  0  0
   40.5540   83.7080   64.2070 C   0  0  0  0  0  0  0  0  0  0  0  0
   41.8300   84.3250   64.3380 C   0  0  0  0  0  0  0  0  0  0  0  0
   42.4370   84.6420   63.1850 N   0  0  0  0  0  0  0  0  0  0  0  0
   41.9630   84.4360   61.9420 C   0  0  0  0  0  0  0  0  0  0  0  0
   40.7750   83.8610   61.8040 N   0  0  0  0  0  0  0  0  0  0  0  0
   39.0860   83.0210   62.7910 H   0  0  0  0  0  0  0  0  0  0  0  0
   40.0280   83.4340   65.0910 H   0  0  0  0  0  0  0  0  0  0  0  0
   42.2890   84.5300   65.2950 H   0  0  0  0  0  0  0  0  0  0  0  0
   43.3940   83.6850   58.4170 O   0  0  0  0  0  0  0  0  0  0  0  0
   42.8370   82.6530   57.7010 C   0  0  0  0  0  2  0  0  0  0  0  0
   41.8520   83.0550   56.6520 C   0  0  0  0  0  2  0  0  0  0  0  0
   40.8110   83.0850   57.0410 H   0  0  0  0  0  0  0  0  0  0  0  0
  1  4  1  1  0  0  0
  1  8  1  0  0  0  0
  2  5  1  0  0  0  0
  2  1  1  0  0  0  0
  3  7  1  6  0  0  0
  3 18  1  0  0  0  0
  3  2  1  0  0  0  0
  3  1  1  0  0  0  0
  6  2  1  0  0  0  0
  8 13  1  0  0  0  0
  9 10  1  0  0  0  0
 10 11  2  0  0  0  0
 10 16  1  0  0  0  0
 11 17  1  0  0  0  0
 12 11  1  0  0  0  0
 13 12  2  0  0  0  0
 14 13  1  0  0  0  0
 14  9  2  0  0  0  0
 15  9  1  0  0  0  0
 19 18  1  0  0  0  0
 20 21  1  0  0  0  0
 20 19  1  0  0  0  0
M  END
>  <minimizedAffinity>
-3.36373258

>  <minimizedRMSD>
1.09100711

$$$$
