
 OpenBabel03212520393D

 21 22  0  0  1  0  0  0  0  0999 V2000
   42.3020   85.4290   59.7530 C   0  0  1  0  0  0  0  0  0  0  0  0
   43.3530   86.3340   59.1220 C   0  0  0  0  0  0  0  0  0  0  0  0
   42.7930   85.1210   58.4020 C   0  0  1  0  0  0  0  0  0  0  0  0
   41.3630   85.9820   59.9670 H   0  0  0  0  0  0  0  0  0  0  0  0
   44.4150   86.2220   59.4110 H   0  0  0  0  0  0  0  0  0  0  0  0
   43.0740   87.3450   58.7730 H   0  0  0  0  0  0  0  0  0  0  0  0
   42.1070   85.3720   57.5720 H   0  0  0  0  0  0  0  0  0  0  0  0
   42.8310   84.7000   60.8610 O   0  0  0  0  0  0  0  0  0  0  0  0
   40.0650   83.5290   62.8790 C   0  0  0  0  0  0  0  0  0  0  0  0
   40.5500   83.7200   64.1730 C   0  0  0  0  0  0  0  0  0  0  0  0
   41.8580   84.2630   64.3180 C   0  0  0  0  0  0  0  0  0  0  0  0
   42.4970   84.5400   63.1720 N   0  0  0  0  0  0  0  0  0  0  0  0
   42.0280   84.3550   61.9230 C   0  0  0  0  0  0  0  0  0  0  0  0
   40.8100   83.8490   61.7720 N   0  0  0  0  0  0  0  0  0  0  0  0
   39.0630   83.1120   62.7410 H   0  0  0  0  0  0  0  0  0  0  0  0
   39.9980   83.4810   65.0510 H   0  0  0  0  0  0  0  0  0  0  0  0
   42.3170   84.4460   65.2800 H   0  0  0  0  0  0  0  0  0  0  0  0
   43.6190   83.9920   58.2820 O   0  0  0  0  0  0  0  0  0  0  0  0
   43.1280   83.1550   57.3090 C   0  0  0  0  0  2  0  0  0  0  0  0
   42.0880   83.7480   56.4140 C   0  0  0  0  0  2  0  0  0  0  0  0
   41.0580   83.5830   56.7970 H   0  0  0  0  0  0  0  0  0  0  0  0
  1  4  1  1  0  0  0
  1  8  1  0  0  0  0
  2  5  1  0  0  0  0
  2  1  1  0  0  0  0
  3  7  1  6  0  0  0
  3  2  1  0  0  0  0
  3  1  1  0  0  0  0
  6  2  1  0  0  0  0
  8 13  1  0  0  0  0
  9 10  1  0  0  0  0
 10 11  2  0  0  0  0
 10 16  1  0  0  0  0
 11 17  1  0  0  0  0
 12 11  1  0  0  0  0
 13 12  2  0  0  0  0
 14 13  1  0  0  0  0
 14  9  2  0  0  0  0
 15  9  1  0  0  0  0
 18  3  1  0  0  0  0
 19 18  1  0  0  0  0
 20 21  1  0  0  0  0
 20 19  1  0  0  0  0
M  END
>  <minimizedAffinity>
-3.36738658

>  <minimizedRMSD>
0.961422563

$$$$
