
 OpenBabel03212520393D

 21 22  0  0  1  0  0  0  0  0999 V2000
   41.9140   85.1500   59.6520 C   0  0  1  0  0  0  0  0  0  0  0  0
   42.9060   85.4090   58.5240 C   0  0  0  0  0  0  0  0  0  0  0  0
   42.0090   84.1840   58.5470 C   0  0  1  0  0  0  0  0  0  0  0  0
   41.1520   85.9530   59.7170 H   0  0  0  0  0  0  0  0  0  0  0  0
   43.9770   85.1720   58.6720 H   0  0  0  0  0  0  0  0  0  0  0  0
   42.7070   86.2090   57.7870 H   0  0  0  0  0  0  0  0  0  0  0  0
   41.1890   84.2180   57.8070 H   0  0  0  0  0  0  0  0  0  0  0  0
   42.5790   84.8560   60.8810 O   0  0  0  0  0  0  0  0  0  0  0  0
   40.0130   83.5340   63.0630 C   0  0  0  0  0  0  0  0  0  0  0  0
   40.5730   83.7370   64.3240 C   0  0  0  0  0  0  0  0  0  0  0  0
   41.8600   84.3420   64.3890 C   0  0  0  0  0  0  0  0  0  0  0  0
   42.4070   84.6600   63.2070 N   0  0  0  0  0  0  0  0  0  0  0  0
   41.8660   84.4630   61.9890 C   0  0  0  0  0  0  0  0  0  0  0  0
   40.6670   83.9000   61.9130 N   0  0  0  0  0  0  0  0  0  0  0  0
   39.0250   83.0700   62.9860 H   0  0  0  0  0  0  0  0  0  0  0  0
   40.0920   83.4640   65.2330 H   0  0  0  0  0  0  0  0  0  0  0  0
   42.3720   84.5390   65.3210 H   0  0  0  0  0  0  0  0  0  0  0  0
   42.5980   82.9470   58.8490 O   0  0  0  0  0  0  0  0  0  0  0  0
   41.6230   81.9940   59.0200 C   0  0  0  0  0  2  0  0  0  0  0  0
   40.4360   82.1200   58.1240 C   0  0  0  0  0  2  0  0  0  0  0  0
   39.6300   82.7410   58.5750 H   0  0  0  0  0  0  0  0  0  0  0  0
  1  4  1  1  0  0  0
  1  8  1  0  0  0  0
  2  3  1  0  0  0  0
  2  5  1  0  0  0  0
  2  1  1  0  0  0  0
  3  7  1  6  0  0  0
  3 18  1  0  0  0  0
  3  1  1  0  0  0  0
  6  2  1  0  0  0  0
  8 13  1  0  0  0  0
  9 10  1  0  0  0  0
 10 11  2  0  0  0  0
 10 16  1  0  0  0  0
 11 17  1  0  0  0  0
 12 11  1  0  0  0  0
 13 12  2  0  0  0  0
 14 13  1  0  0  0  0
 14  9  2  0  0  0  0
 15  9  1  0  0  0  0
 18 19  1  0  0  0  0
 20 21  1  0  0  0  0
 20 19  1  0  0  0  0
M  END
>  <minimizedAffinity>
-3.45382667

>  <minimizedRMSD>
1.98951626

$$$$
