
 OpenBabel03212520393D

 21 22  0  0  1  0  0  0  0  0999 V2000
   42.2910   85.4490   59.7680 C   0  0  1  0  0  0  0  0  0  0  0  0
   43.3910   85.8200   58.7800 C   0  0  0  0  0  0  0  0  0  0  0  0
   42.2130   84.9460   58.3890 C   0  0  1  0  0  0  0  0  0  0  0  0
   41.7540   86.3470   60.1380 H   0  0  0  0  0  0  0  0  0  0  0  0
   44.3530   85.2760   58.8040 H   0  0  0  0  0  0  0  0  0  0  0  0
   43.4520   86.8510   58.3850 H   0  0  0  0  0  0  0  0  0  0  0  0
   41.4810   85.4510   57.7340 H   0  0  0  0  0  0  0  0  0  0  0  0
   42.7750   84.5780   60.7920 O   0  0  0  0  0  0  0  0  0  0  0  0
   40.0510   83.5450   62.9380 C   0  0  0  0  0  0  0  0  0  0  0  0
   40.5860   83.7610   64.2080 C   0  0  0  0  0  0  0  0  0  0  0  0
   41.9120   84.2710   64.2910 C   0  0  0  0  0  0  0  0  0  0  0  0
   42.5170   84.4960   63.1170 N   0  0  0  0  0  0  0  0  0  0  0  0
   42.0000   84.2870   61.8910 C   0  0  0  0  0  0  0  0  0  0  0  0
   40.7650   83.8120   61.7970 N   0  0  0  0  0  0  0  0  0  0  0  0
   39.0340   83.1530   62.8470 H   0  0  0  0  0  0  0  0  0  0  0  0
   40.0590   83.5630   65.1110 H   0  0  0  0  0  0  0  0  0  0  0  0
   42.4090   84.4690   65.2310 H   0  0  0  0  0  0  0  0  0  0  0  0
   42.4480   83.5730   58.2120 O   0  0  0  0  0  0  0  0  0  0  0  0
   41.3590   82.9860   57.6130 C   0  0  0  0  0  2  0  0  0  0  0  0
   40.3820   82.3440   58.5430 C   0  0  0  0  0  2  0  0  0  0  0  0
   40.6140   81.2700   58.7220 H   0  0  0  0  0  0  0  0  0  0  0  0
  1  4  1  1  0  0  0
  1  8  1  0  0  0  0
  2  5  1  0  0  0  0
  2  1  1  0  0  0  0
  3  7  1  6  0  0  0
  3  2  1  0  0  0  0
  3  1  1  0  0  0  0
  6  2  1  0  0  0  0
  8 13  1  0  0  0  0
  9 10  1  0  0  0  0
 10 11  2  0  0  0  0
 10 16  1  0  0  0  0
 11 17  1  0  0  0  0
 12 11  1  0  0  0  0
 13 12  2  0  0  0  0
 14 13  1  0  0  0  0
 14  9  2  0  0  0  0
 15  9  1  0  0  0  0
 18  3  1  0  0  0  0
 19 18  1  0  0  0  0
 19 20  1  0  0  0  0
 20 21  1  0  0  0  0
M  END
>  <minimizedAffinity>
-3.51472473

>  <minimizedRMSD>
1.39507627

$$$$
