
 OpenBabel03212520393D

 21 22  0  0  1  0  0  0  0  0999 V2000
   41.5990   85.2450   59.4710 C   0  0  1  0  0  0  0  0  0  0  0  0
   42.4280   85.4160   58.2040 C   0  0  0  0  0  0  0  0  0  0  0  0
   41.2670   84.4420   58.2860 C   0  0  1  0  0  0  0  0  0  0  0  0
   41.0840   86.1880   59.7530 H   0  0  0  0  0  0  0  0  0  0  0  0
   43.4130   84.9200   58.1240 H   0  0  0  0  0  0  0  0  0  0  0  0
   42.3220   86.3320   57.5940 H   0  0  0  0  0  0  0  0  0  0  0  0
   40.3730   84.7650   57.7210 H   0  0  0  0  0  0  0  0  0  0  0  0
   42.3570   84.6420   60.5200 O   0  0  0  0  0  0  0  0  0  0  0  0
   40.0060   83.6050   63.0680 C   0  0  0  0  0  0  0  0  0  0  0  0
   40.7500   83.7780   64.2350 C   0  0  0  0  0  0  0  0  0  0  0  0
   42.0830   84.2610   64.1070 C   0  0  0  0  0  0  0  0  0  0  0  0
   42.4890   84.5050   62.8530 N   0  0  0  0  0  0  0  0  0  0  0  0
   41.7710   84.3380   61.7260 C   0  0  0  0  0  0  0  0  0  0  0  0
   40.5260   83.8880   61.8290 N   0  0  0  0  0  0  0  0  0  0  0  0
   38.9800   83.2340   63.1390 H   0  0  0  0  0  0  0  0  0  0  0  0
   40.3760   83.5680   65.2090 H   0  0  0  0  0  0  0  0  0  0  0  0
   42.7330   84.4260   64.9550 H   0  0  0  0  0  0  0  0  0  0  0  0
   41.5650   83.0730   58.3560 O   0  0  0  0  0  0  0  0  0  0  0  0
   40.4060   82.3370   58.2920 C   0  0  0  0  0  2  0  0  0  0  0  0
   40.2340   81.3130   59.3650 C   0  0  0  0  0  2  0  0  0  0  0  0
   40.6460   80.3210   59.0720 H   0  0  0  0  0  0  0  0  0  0  0  0
  1  4  1  1  0  0  0
  1  8  1  0  0  0  0
  2  3  1  0  0  0  0
  2  1  1  0  0  0  0
  3  7  1  6  0  0  0
  3 18  1  0  0  0  0
  3  1  1  0  0  0  0
  5  2  1  0  0  0  0
  6  2  1  0  0  0  0
  8 13  1  0  0  0  0
  9 15  1  0  0  0  0
  9 10  1  0  0  0  0
 10 16  1  0  0  0  0
 11 10  2  0  0  0  0
 11 17  1  0  0  0  0
 12 11  1  0  0  0  0
 13 14  1  0  0  0  0
 13 12  2  0  0  0  0
 14  9  2  0  0  0  0
 19 18  1  0  0  0  0
 19 20  1  0  0  0  0
 21 20  1  0  0  0  0
M  END
>  <minimizedAffinity>
-3.61180925

>  <minimizedRMSD>
2.04159045

$$$$
