
 OpenBabel03212520393D

 21 22  0  0  1  0  0  0  0  0999 V2000
   42.3770   85.4260   59.7920 C   0  0  1  0  0  0  0  0  0  0  0  0
   43.4280   86.4720   59.4370 C   0  0  0  0  0  0  0  0  0  0  0  0
   43.0320   85.3650   58.4780 C   0  0  1  0  0  0  0  0  0  0  0  0
   41.3850   85.8900   59.9760 H   0  0  0  0  0  0  0  0  0  0  0  0
   44.4570   86.3680   59.8290 H   0  0  0  0  0  0  0  0  0  0  0  0
   43.1200   87.5110   59.2180 H   0  0  0  0  0  0  0  0  0  0  0  0
   42.4260   85.7120   57.6210 H   0  0  0  0  0  0  0  0  0  0  0  0
   42.8300   84.5550   60.8280 O   0  0  0  0  0  0  0  0  0  0  0  0
   40.0540   83.5240   62.9070 C   0  0  0  0  0  0  0  0  0  0  0  0
   40.5510   83.7550   64.1890 C   0  0  0  0  0  0  0  0  0  0  0  0
   41.8710   84.2750   64.3050 C   0  0  0  0  0  0  0  0  0  0  0  0
   42.5080   84.4930   63.1460 N   0  0  0  0  0  0  0  0  0  0  0  0
   42.0270   84.2690   61.9080 C   0  0  0  0  0  0  0  0  0  0  0  0
   40.7980   83.7840   61.7830 N   0  0  0  0  0  0  0  0  0  0  0  0
   39.0420   83.1230   62.7900 H   0  0  0  0  0  0  0  0  0  0  0  0
   40.0000   83.5620   65.0780 H   0  0  0  0  0  0  0  0  0  0  0  0
   42.3390   84.4860   65.2570 H   0  0  0  0  0  0  0  0  0  0  0  0
   43.9410   84.3130   58.2830 O   0  0  0  0  0  0  0  0  0  0  0  0
   44.3110   84.2530   56.9600 C   0  0  0  0  0  2  0  0  0  0  0  0
   45.4540   85.1330   56.5720 C   0  0  0  0  0  2  0  0  0  0  0  0
   45.1160   86.1350   56.2270 H   0  0  0  0  0  0  0  0  0  0  0  0
  1  4  1  1  0  0  0
  1  8  1  0  0  0  0
  2  1  1  0  0  0  0
  2  5  1  0  0  0  0
  3  7  1  6  0  0  0
  3  2  1  0  0  0  0
  3  1  1  0  0  0  0
  6  2  1  0  0  0  0
  8 13  1  0  0  0  0
  9 10  1  0  0  0  0
 10 11  2  0  0  0  0
 10 16  1  0  0  0  0
 11 17  1  0  0  0  0
 12 11  1  0  0  0  0
 13 12  2  0  0  0  0
 14 13  1  0  0  0  0
 14  9  2  0  0  0  0
 15  9  1  0  0  0  0
 18  3  1  0  0  0  0
 19 18  1  0  0  0  0
 20 19  1  0  0  0  0
 21 20  1  0  0  0  0
M  END
>  <minimizedAffinity>
-3.27960777

>  <minimizedRMSD>
0.336220741

$$$$
