
 OpenBabel03212520393D

 21 22  0  0  1  0  0  0  0  0999 V2000
   42.3890   85.4250   59.8100 C   0  0  1  0  0  0  0  0  0  0  0  0
   43.4330   86.4590   59.4050 C   0  0  0  0  0  0  0  0  0  0  0  0
   43.0340   85.3120   58.4940 C   0  0  1  0  0  0  0  0  0  0  0  0
   41.3970   85.8920   59.9830 H   0  0  0  0  0  0  0  0  0  0  0  0
   44.4660   86.3730   59.7920 H   0  0  0  0  0  0  0  0  0  0  0  0
   43.1200   87.4870   59.1460 H   0  0  0  0  0  0  0  0  0  0  0  0
   42.4200   85.6220   57.6290 H   0  0  0  0  0  0  0  0  0  0  0  0
   42.8530   84.5970   60.8770 O   0  0  0  0  0  0  0  0  0  0  0  0
   40.0470   83.5280   62.8970 C   0  0  0  0  0  0  0  0  0  0  0  0
   40.5220   83.7460   64.1900 C   0  0  0  0  0  0  0  0  0  0  0  0
   41.8380   84.2710   64.3340 C   0  0  0  0  0  0  0  0  0  0  0  0
   42.4920   84.5060   63.1880 N   0  0  0  0  0  0  0  0  0  0  0  0
   42.0330   84.2950   61.9390 C   0  0  0  0  0  0  0  0  0  0  0  0
   40.8090   83.8050   61.7890 N   0  0  0  0  0  0  0  0  0  0  0  0
   39.0400   83.1240   62.7590 H   0  0  0  0  0  0  0  0  0  0  0  0
   39.9570   83.5400   65.0680 H   0  0  0  0  0  0  0  0  0  0  0  0
   42.2890   84.4730   65.2960 H   0  0  0  0  0  0  0  0  0  0  0  0
   43.9440   84.2560   58.3340 O   0  0  0  0  0  0  0  0  0  0  0  0
   44.1820   84.0410   56.9980 C   0  0  0  0  0  2  0  0  0  0  0  0
   45.1430   84.9860   56.3550 C   0  0  0  0  0  2  0  0  0  0  0  0
   44.6350   85.8750   55.9190 H   0  0  0  0  0  0  0  0  0  0  0  0
  1  4  1  1  0  0  0
  1  8  1  0  0  0  0
  2  5  1  0  0  0  0
  2  1  1  0  0  0  0
  3  7  1  6  0  0  0
  3  2  1  0  0  0  0
  3  1  1  0  0  0  0
  6  2  1  0  0  0  0
  8 13  1  0  0  0  0
  9 10  1  0  0  0  0
 10 11  2  0  0  0  0
 10 16  1  0  0  0  0
 11 17  1  0  0  0  0
 12 11  1  0  0  0  0
 13 12  2  0  0  0  0
 14 13  1  0  0  0  0
 14  9  2  0  0  0  0
 15  9  1  0  0  0  0
 18  3  1  0  0  0  0
 19 18  1  0  0  0  0
 20 19  1  0  0  0  0
 21 20  1  0  0  0  0
M  END
>  <minimizedAffinity>
-3.26540136

>  <minimizedRMSD>
0.197985664

$$$$
