
 OpenBabel03212520213D

 30 31  0  0  0  0  0  0  0  0999 V2000
   42.2830   71.2230   62.3400 Cl  0  0  0  0  0  0  0  0  0  0  0  0
   41.8740   70.4790   60.8110 C   0  0  0  0  0  0  0  0  0  0  0  0
   41.3630   71.1770   59.7310 C   0  0  0  0  0  0  0  0  0  0  0  0
   41.0960   70.4430   58.6030 C   0  0  0  0  0  0  0  0  0  0  0  0
   41.2840   69.0840   58.4350 C   0  0  0  0  0  0  0  0  0  0  0  0
   41.7860   68.4320   59.5120 C   0  0  0  0  0  0  0  0  0  0  0  0
   42.0830   66.6910   59.4550 Cl  0  0  0  0  0  0  0  0  0  0  0  0
   42.0800   69.1090   60.6880 C   0  0  0  0  0  0  0  0  0  0  0  0
   40.6930   71.0280   57.7670 H   0  0  0  0  0  0  0  0  0  0  0  0
   41.0490   68.5790   57.5150 H   0  0  0  0  0  0  0  0  0  0  0  0
   42.0870   73.6090   59.6150 C   0  0  0  0  0  0  0  0  0  0  0  0
   41.1550   72.5790   59.8630 C   0  0  0  0  0  0  0  0  0  0  0  0
   39.8920   72.9580   60.2830 C   0  0  0  0  0  0  0  0  0  0  0  0
   39.6630   74.3040   60.4200 N   0  0  0  0  0  0  0  0  0  0  0  0
   40.5560   75.2490   60.1800 C   0  0  0  0  0  0  0  0  0  0  0  0
   41.8110   74.8980   59.7630 N   0  0  0  0  0  0  0  0  0  0  0  0
   43.0600   73.2670   59.2890 H   0  0  0  0  0  0  0  0  0  0  0  0
   39.0580   72.2890   60.5180 H   0  0  0  0  0  0  0  0  0  0  0  0
   40.1020   76.6460   60.3890 C   0  0  0  0  0  0  0  0  0  0  0  0
   39.2000   77.0480   59.4480 F   0  0  0  0  0  0  0  0  0  0  0  0
   39.5150   76.7580   61.6540 F   0  0  0  0  0  0  0  0  0  0  0  0
   41.1840   77.5450   60.2890 F   0  0  0  0  0  0  0  0  0  0  0  0
   42.5930   68.4070   61.7680 O   0  0  0  0  0  0  0  0  0  0  0  0
   41.7950   67.7780   62.7510 C   0  0  0  0  0  0  0  0  0  0  0  0
   40.7270   67.8620   62.4710 H   0  0  0  0  0  0  0  0  0  0  0  0
   41.9880   68.3010   63.7320 H   0  0  0  0  0  0  0  0  0  0  0  0
   42.2170   66.4420   62.8240 O   0  0  0  0  0  0  0  0  0  0  0  0
   41.0920   65.6780   63.1230 C   0  0  0  0  0  2  0  0  0  0  0  0
   39.9090   66.2920   62.4200 C   0  0  0  0  0  2  0  0  0  0  0  0
   39.2220   65.4780   62.0910 H   0  0  0  0  0  0  0  0  0  0  0  0
  2  1  1  0  0  0  0
  3 12  1  0  0  0  0
  3  2  2  0  0  0  0
  4  3  1  0  0  0  0
  5  4  2  0  0  0  0
  5  6  1  0  0  0  0
  6  8  2  0  0  0  0
  7  6  1  0  0  0  0
  8  2  1  0  0  0  0
  8 23  1  0  0  0  0
  9  4  1  0  0  0  0
 10  5  1  0  0  0  0
 11 16  2  0  0  0  0
 11 12  1  0  0  0  0
 12 13  2  0  0  0  0
 13 14  1  0  0  0  0
 13 18  1  0  0  0  0
 15 19  1  0  0  0  0
 15 14  2  0  0  0  0
 16 15  1  0  0  0  0
 17 11  1  0  0  0  0
 19 21  1  0  0  0  0
 20 19  1  0  0  0  0
 22 19  1  0  0  0  0
 23 24  1  0  0  0  0
 24 27  1  0  0  0  0
 24 26  1  0  0  0  0
 25 24  1  0  0  0  0
 27 28  1  0  0  0  0
 29 28  1  0  0  0  0
 30 29  1  0  0  0  0
M  END
>  <minimizedAffinity>
-5.36887693

$$$$

 OpenBabel03212520213D

 30 31  0  0  0  0  0  0  0  0999 V2000
   41.3890   70.0340   59.1150 Cl  0  0  0  0  0  0  0  0  0  0  0  0
   42.0670   69.8750   60.7190 C   0  0  0  0  0  0  0  0  0  0  0  0
   42.0930   70.9010   61.6470 C   0  0  0  0  0  0  0  0  0  0  0  0
   42.6610   70.6100   62.8610 C   0  0  0  0  0  0  0  0  0  0  0  0
   43.2090   69.4020   63.2510 C   0  0  0  0  0  0  0  0  0  0  0  0
   43.1670   68.4200   62.3190 C   0  0  0  0  0  0  0  0  0  0  0  0
   43.8260   66.8180   62.6670 Cl  0  0  0  0  0  0  0  0  0  0  0  0
   42.6070   68.6410   61.0680 C   0  0  0  0  0  0  0  0  0  0  0  0
   42.6640   71.4460   63.5710 H   0  0  0  0  0  0  0  0  0  0  0  0
   43.6380   69.2540   64.2260 H   0  0  0  0  0  0  0  0  0  0  0  0
   42.1380   73.1590   60.4830 C   0  0  0  0  0  0  0  0  0  0  0  0
   41.5390   72.1610   61.2830 C   0  0  0  0  0  0  0  0  0  0  0  0
   40.2730   72.4210   61.7750 C   0  0  0  0  0  0  0  0  0  0  0  0
   39.7140   73.6290   61.4400 N   0  0  0  0  0  0  0  0  0  0  0  0
   40.2990   74.5470   60.6880 C   0  0  0  0  0  0  0  0  0  0  0  0
   41.5500   74.3110   60.1890 N   0  0  0  0  0  0  0  0  0  0  0  0
   43.1270   72.9120   60.1210 H   0  0  0  0  0  0  0  0  0  0  0  0
   39.6720   71.7590   62.4060 H   0  0  0  0  0  0  0  0  0  0  0  0
   39.5180   75.7860   60.4450 C   0  0  0  0  0  0  0  0  0  0  0  0
   40.3140   76.8560   60.1570 F   0  0  0  0  0  0  0  0  0  0  0  0
   38.6380   75.5780   59.3790 F   0  0  0  0  0  0  0  0  0  0  0  0
   38.7890   76.1520   61.5960 F   0  0  0  0  0  0  0  0  0  0  0  0
   42.5820   67.6100   60.1410 O   0  0  0  0  0  0  0  0  0  0  0  0
   41.6220   66.5720   60.1420 C   0  0  0  0  0  0  0  0  0  0  0  0
   42.1040   65.6210   60.4410 H   0  0  0  0  0  0  0  0  0  0  0  0
   41.2070   66.4920   59.0960 H   0  0  0  0  0  0  0  0  0  0  0  0
   40.6100   66.9550   61.0350 O   0  0  0  0  0  0  0  0  0  0  0  0
   40.4420   65.9030   61.9310 C   0  0  0  0  0  2  0  0  0  0  0  0
   40.0200   66.4810   63.2580 C   0  0  0  0  0  2  0  0  0  0  0  0
   39.3050   65.7790   63.7460 H   0  0  0  0  0  0  0  0  0  0  0  0
  1  2  1  0  0  0  0
  2  8  2  0  0  0  0
  2  3  1  0  0  0  0
  3  4  2  0  0  0  0
  4  5  1  0  0  0  0
  4  9  1  0  0  0  0
  5 10  1  0  0  0  0
  6  7  1  0  0  0  0
  6  5  2  0  0  0  0
  8  6  1  0  0  0  0
 11 12  1  0  0  0  0
 12  3  1  0  0  0  0
 12 13  2  0  0  0  0
 13 18  1  0  0  0  0
 14 13  1  0  0  0  0
 15 14  2  0  0  0  0
 16 11  2  0  0  0  0
 16 15  1  0  0  0  0
 17 11  1  0  0  0  0
 19 15  1  0  0  0  0
 19 22  1  0  0  0  0
 20 19  1  0  0  0  0
 21 19  1  0  0  0  0
 23 24  1  0  0  0  0
 23  8  1  0  0  0  0
 24 25  1  0  0  0  0
 24 27  1  0  0  0  0
 26 24  1  0  0  0  0
 27 28  1  0  0  0  0
 28 29  1  0  0  0  0
 29 30  1  0  0  0  0
M  END
>  <minimizedAffinity>
-5.26550817

$$$$

 OpenBabel03212520213D

 30 31  0  0  0  0  0  0  0  0999 V2000
   39.4630   73.1670   61.2690 Cl  0  0  0  0  0  0  0  0  0  0  0  0
   41.0140   73.6880   60.6490 C   0  0  0  0  0  0  0  0  0  0  0  0
   42.1600   72.9150   60.7020 C   0  0  0  0  0  0  0  0  0  0  0  0
   43.2960   73.4730   60.1700 C   0  0  0  0  0  0  0  0  0  0  0  0
   43.4110   74.7220   59.5900 C   0  0  0  0  0  0  0  0  0  0  0  0
   42.2700   75.4510   59.5540 C   0  0  0  0  0  0  0  0  0  0  0  0
   42.2550   77.0680   58.8430 Cl  0  0  0  0  0  0  0  0  0  0  0  0
   41.0830   74.9520   60.0730 C   0  0  0  0  0  0  0  0  0  0  0  0
   44.1840   72.8320   60.2300 H   0  0  0  0  0  0  0  0  0  0  0  0
   44.3420   75.0880   59.1940 H   0  0  0  0  0  0  0  0  0  0  0  0
   42.0980   71.3100   62.6700 C   0  0  0  0  0  0  0  0  0  0  0  0
   42.0830   71.6220   61.2930 C   0  0  0  0  0  0  0  0  0  0  0  0
   41.9820   70.5650   60.4070 C   0  0  0  0  0  0  0  0  0  0  0  0
   41.9050   69.3070   60.9490 N   0  0  0  0  0  0  0  0  0  0  0  0
   41.9220   69.0430   62.2450 C   0  0  0  0  0  0  0  0  0  0  0  0
   42.0200   70.0720   63.1400 N   0  0  0  0  0  0  0  0  0  0  0  0
   42.1790   72.1660   63.3260 H   0  0  0  0  0  0  0  0  0  0  0  0
   41.9570   70.6330   59.3150 H   0  0  0  0  0  0  0  0  0  0  0  0
   41.8270   67.6100   62.6210 C   0  0  0  0  0  0  0  0  0  0  0  0
   41.8800   66.7820   61.5380 F   0  0  0  0  0  0  0  0  0  0  0  0
   42.8760   67.2870   63.4870 F   0  0  0  0  0  0  0  0  0  0  0  0
   40.5940   67.3370   63.2500 F   0  0  0  0  0  0  0  0  0  0  0  0
   39.9350   75.7290   60.0170 O   0  0  0  0  0  0  0  0  0  0  0  0
   38.9520   75.6120   59.0070 C   0  0  0  0  0  0  0  0  0  0  0  0
   37.9910   75.3020   59.4610 H   0  0  0  0  0  0  0  0  0  0  0  0
   39.3110   74.8360   58.2720 H   0  0  0  0  0  0  0  0  0  0  0  0
   38.8600   76.8650   58.3830 O   0  0  0  0  0  0  0  0  0  0  0  0
   38.5450   76.6300   57.0480 C   0  0  0  0  0  2  0  0  0  0  0  0
   37.4900   75.5540   56.9980 C   0  0  0  0  0  2  0  0  0  0  0  0
   36.7950   75.7680   56.1540 H   0  0  0  0  0  0  0  0  0  0  0  0
  2  3  1  0  0  0  0
  2  1  1  0  0  0  0
  3 12  1  0  0  0  0
  4  9  1  0  0  0  0
  4  3  2  0  0  0  0
  5  4  1  0  0  0  0
  6  5  2  0  0  0  0
  6  8  1  0  0  0  0
  7  6  1  0  0  0  0
  8  2  2  0  0  0  0
 10  5  1  0  0  0  0
 11 16  1  0  0  0  0
 11 17  1  0  0  0  0
 12 11  2  0  0  0  0
 13 14  2  0  0  0  0
 13 12  1  0  0  0  0
 14 15  1  0  0  0  0
 15 19  1  0  0  0  0
 15 16  2  0  0  0  0
 18 13  1  0  0  0  0
 19 22  1  0  0  0  0
 19 21  1  0  0  0  0
 20 19  1  0  0  0  0
 23  8  1  0  0  0  0
 24 25  1  0  0  0  0
 24 23  1  0  0  0  0
 26 24  1  0  0  0  0
 27 24  1  0  0  0  0
 28 27  1  0  0  0  0
 29 28  1  0  0  0  0
 30 29  1  0  0  0  0
M  END
>  <minimizedAffinity>
-5.2654953

$$$$

 OpenBabel03212520213D

 30 31  0  0  0  0  0  0  0  0999 V2000
   41.1900   70.5330   58.4500 Cl  0  0  0  0  0  0  0  0  0  0  0  0
   41.5600   71.0260   60.0870 C   0  0  0  0  0  0  0  0  0  0  0  0
   41.2820   72.2840   60.5910 C   0  0  0  0  0  0  0  0  0  0  0  0
   41.6360   72.5080   61.8970 C   0  0  0  0  0  0  0  0  0  0  0  0
   42.2400   71.6110   62.7580 C   0  0  0  0  0  0  0  0  0  0  0  0
   42.4970   70.3890   62.2320 C   0  0  0  0  0  0  0  0  0  0  0  0
   43.2660   69.1310   63.2070 Cl  0  0  0  0  0  0  0  0  0  0  0  0
   42.1670   70.0890   60.9170 C   0  0  0  0  0  0  0  0  0  0  0  0
   41.4010   73.5150   62.2630 H   0  0  0  0  0  0  0  0  0  0  0  0
   42.4880   71.8640   63.7730 H   0  0  0  0  0  0  0  0  0  0  0  0
   41.2920   74.0860   58.8010 C   0  0  0  0  0  0  0  0  0  0  0  0
   40.6610   73.2380   59.7360 C   0  0  0  0  0  0  0  0  0  0  0  0
   39.2850   73.3310   59.8450 C   0  0  0  0  0  0  0  0  0  0  0  0
   38.6600   74.2430   59.0320 N   0  0  0  0  0  0  0  0  0  0  0  0
   39.2770   75.0260   58.1640 C   0  0  0  0  0  0  0  0  0  0  0  0
   40.6370   74.9510   58.0380 N   0  0  0  0  0  0  0  0  0  0  0  0
   42.3670   73.9800   58.7500 H   0  0  0  0  0  0  0  0  0  0  0  0
   38.6460   72.7490   60.5160 H   0  0  0  0  0  0  0  0  0  0  0  0
   38.4110   75.9430   57.3810 C   0  0  0  0  0  0  0  0  0  0  0  0
   38.8620   76.1250   56.1060 F   0  0  0  0  0  0  0  0  0  0  0  0
   37.1130   75.4250   57.3310 F   0  0  0  0  0  0  0  0  0  0  0  0
   38.3850   77.2280   57.9630 F   0  0  0  0  0  0  0  0  0  0  0  0
   42.4460   68.8270   60.4150 O   0  0  0  0  0  0  0  0  0  0  0  0
   41.5380   67.7430   60.4560 C   0  0  0  0  0  0  0  0  0  0  0  0
   41.2330   67.4770   59.4260 H   0  0  0  0  0  0  0  0  0  0  0  0
   40.6440   68.0720   61.0610 H   0  0  0  0  0  0  0  0  0  0  0  0
   42.1960   66.6860   61.1020 O   0  0  0  0  0  0  0  0  0  0  0  0
   41.2170   65.9250   61.7340 C   0  0  0  0  0  2  0  0  0  0  0  0
   40.3640   66.8540   62.5600 C   0  0  0  0  0  2  0  0  0  0  0  0
   39.3110   66.4890   62.5400 H   0  0  0  0  0  0  0  0  0  0  0  0
  1  2  1  0  0  0  0
  2  3  2  0  0  0  0
  2  8  1  0  0  0  0
  3  4  1  0  0  0  0
  4  9  1  0  0  0  0
  4  5  2  0  0  0  0
  5 10  1  0  0  0  0
  6  5  1  0  0  0  0
  6  7  1  0  0  0  0
  8  6  2  0  0  0  0
 11 12  1  0  0  0  0
 12 13  2  0  0  0  0
 12  3  1  0  0  0  0
 13 18  1  0  0  0  0
 14 13  1  0  0  0  0
 15 14  2  0  0  0  0
 16 15  1  0  0  0  0
 16 11  2  0  0  0  0
 17 11  1  0  0  0  0
 19 22  1  0  0  0  0
 19 15  1  0  0  0  0
 20 19  1  0  0  0  0
 21 19  1  0  0  0  0
 23 24  1  0  0  0  0
 23  8  1  0  0  0  0
 24 26  1  0  0  0  0
 24 27  1  0  0  0  0
 25 24  1  0  0  0  0
 27 28  1  0  0  0  0
 28 29  1  0  0  0  0
 30 29  1  0  0  0  0
M  END
>  <minimizedAffinity>
-4.99040985

$$$$

 OpenBabel03212520213D

 30 31  0  0  0  0  0  0  0  0999 V2000
   40.1470   71.4140   58.6290 Cl  0  0  0  0  0  0  0  0  0  0  0  0
   41.5180   72.2100   59.3670 C   0  0  0  0  0  0  0  0  0  0  0  0
   42.3780   71.5900   60.2560 C   0  0  0  0  0  0  0  0  0  0  0  0
   43.4050   72.3570   60.7440 C   0  0  0  0  0  0  0  0  0  0  0  0
   43.6690   73.6800   60.4400 C   0  0  0  0  0  0  0  0  0  0  0  0
   42.8070   74.2550   59.5670 C   0  0  0  0  0  0  0  0  0  0  0  0
   43.0100   75.9410   59.0780 Cl  0  0  0  0  0  0  0  0  0  0  0  0
   41.7440   73.5410   59.0320 C   0  0  0  0  0  0  0  0  0  0  0  0
   44.0670   71.8340   61.4450 H   0  0  0  0  0  0  0  0  0  0  0  0
   44.4990   74.2140   60.8670 H   0  0  0  0  0  0  0  0  0  0  0  0
   42.1790   69.1130   59.7310 C   0  0  0  0  0  0  0  0  0  0  0  0
   42.1410   70.2280   60.5950 C   0  0  0  0  0  0  0  0  0  0  0  0
   41.8410   69.9870   61.9240 C   0  0  0  0  0  0  0  0  0  0  0  0
   41.6080   68.6820   62.2790 N   0  0  0  0  0  0  0  0  0  0  0  0
   41.6500   67.6550   61.4470 C   0  0  0  0  0  0  0  0  0  0  0  0
   41.9450   67.8690   60.1290 N   0  0  0  0  0  0  0  0  0  0  0  0
   42.4170   69.3480   58.7020 H   0  0  0  0  0  0  0  0  0  0  0  0
   41.7710   70.7350   62.7200 H   0  0  0  0  0  0  0  0  0  0  0  0
   41.3660   66.3230   62.0380 C   0  0  0  0  0  0  0  0  0  0  0  0
   41.8190   65.3000   61.2590 F   0  0  0  0  0  0  0  0  0  0  0  0
   41.9710   66.2360   63.2960 F   0  0  0  0  0  0  0  0  0  0  0  0
   39.9760   66.1190   62.1670 F   0  0  0  0  0  0  0  0  0  0  0  0
   40.8840   74.1650   58.1400 O   0  0  0  0  0  0  0  0  0  0  0  0
   39.5720   74.5790   58.4670 C   0  0  0  0  0  0  0  0  0  0  0  0
   38.9580   73.6940   58.7220 H   0  0  0  0  0  0  0  0  0  0  0  0
   39.1480   75.1080   57.5660 H   0  0  0  0  0  0  0  0  0  0  0  0
   39.6840   75.4710   59.5440 O   0  0  0  0  0  0  0  0  0  0  0  0
   39.4110   76.7420   59.0470 C   0  0  0  0  0  2  0  0  0  0  0  0
   38.5380   76.5900   57.8270 C   0  0  0  0  0  2  0  0  0  0  0  0
   37.8190   77.4400   57.7900 H   0  0  0  0  0  0  0  0  0  0  0  0
  1  2  1  0  0  0  0
  2  3  1  0  0  0  0
  3 12  1  0  0  0  0
  3  4  2  0  0  0  0
  4  9  1  0  0  0  0
  5  4  1  0  0  0  0
  5 10  1  0  0  0  0
  6  5  2  0  0  0  0
  7  6  1  0  0  0  0
  8  2  2  0  0  0  0
  8  6  1  0  0  0  0
 11 16  2  0  0  0  0
 11 12  1  0  0  0  0
 12 13  2  0  0  0  0
 13 14  1  0  0  0  0
 13 18  1  0  0  0  0
 15 19  1  0  0  0  0
 15 14  2  0  0  0  0
 16 15  1  0  0  0  0
 17 11  1  0  0  0  0
 19 22  1  0  0  0  0
 19 21  1  0  0  0  0
 20 19  1  0  0  0  0
 23 24  1  0  0  0  0
 23  8  1  0  0  0  0
 24 25  1  0  0  0  0
 24 27  1  0  0  0  0
 26 24  1  0  0  0  0
 28 27  1  0  0  0  0
 29 28  1  0  0  0  0
 30 29  1  0  0  0  0
M  END
>  <minimizedAffinity>
-4.91751337

$$$$

 OpenBabel03212520213D

 30 31  0  0  0  0  0  0  0  0999 V2000
   40.4210   75.6440   55.0770 Cl  0  0  0  0  0  0  0  0  0  0  0  0
   38.8950   76.4430   54.7690 C   0  0  0  0  0  0  0  0  0  0  0  0
   37.9750   76.7450   55.7570 C   0  0  0  0  0  0  0  0  0  0  0  0
   36.8260   77.3740   55.3460 C   0  0  0  0  0  0  0  0  0  0  0  0
   36.4960   77.7350   54.0530 C   0  0  0  0  0  0  0  0  0  0  0  0
   37.4200   77.4240   53.1120 C   0  0  0  0  0  0  0  0  0  0  0  0
   37.1440   77.8200   51.4120 Cl  0  0  0  0  0  0  0  0  0  0  0  0
   38.6050   76.7870   53.4530 C   0  0  0  0  0  0  0  0  0  0  0  0
   36.1200   77.5980   56.1550 H   0  0  0  0  0  0  0  0  0  0  0  0
   35.5710   78.2270   53.8120 H   0  0  0  0  0  0  0  0  0  0  0  0
   38.9990   77.1520   58.0450 C   0  0  0  0  0  0  0  0  0  0  0  0
   38.2770   76.3900   57.1010 C   0  0  0  0  0  0  0  0  0  0  0  0
   37.8050   75.1570   57.5140 C   0  0  0  0  0  0  0  0  0  0  0  0
   38.0820   74.7880   58.8060 N   0  0  0  0  0  0  0  0  0  0  0  0
   38.7610   75.5230   59.6700 C   0  0  0  0  0  0  0  0  0  0  0  0
   39.2380   76.7460   59.2850 N   0  0  0  0  0  0  0  0  0  0  0  0
   39.3490   78.1080   57.6790 H   0  0  0  0  0  0  0  0  0  0  0  0
   37.2310   74.4460   56.9110 H   0  0  0  0  0  0  0  0  0  0  0  0
   38.9490   74.9370   61.0210 C   0  0  0  0  0  0  0  0  0  0  0  0
   38.4560   75.7360   62.0100 F   0  0  0  0  0  0  0  0  0  0  0  0
   38.3070   73.6960   61.0820 F   0  0  0  0  0  0  0  0  0  0  0  0
   40.3200   74.7740   61.3100 F   0  0  0  0  0  0  0  0  0  0  0  0
   39.5260   76.4860   52.4610 O   0  0  0  0  0  0  0  0  0  0  0  0
   39.3850   75.4100   51.5530 C   0  0  0  0  0  0  0  0  0  0  0  0
   40.3710   75.1640   51.1140 H   0  0  0  0  0  0  0  0  0  0  0  0
   38.6650   75.7370   50.7490 H   0  0  0  0  0  0  0  0  0  0  0  0
   38.8470   74.3360   52.2770 O   0  0  0  0  0  0  0  0  0  0  0  0
   39.7800   73.3040   52.2240 C   0  0  0  0  0  2  0  0  0  0  0  0
   39.6780   72.5140   53.5030 C   0  0  0  0  0  2  0  0  0  0  0  0
   39.8650   71.4380   53.2790 H   0  0  0  0  0  0  0  0  0  0  0  0
  2  1  1  0  0  0  0
  2  3  1  0  0  0  0
  3 12  1  0  0  0  0
  4  3  2  0  0  0  0
  4  9  1  0  0  0  0
  5  4  1  0  0  0  0
  6  8  1  0  0  0  0
  6  5  2  0  0  0  0
  7  6  1  0  0  0  0
  8  2  2  0  0  0  0
 10  5  1  0  0  0  0
 11 16  1  0  0  0  0
 12 13  1  0  0  0  0
 12 11  2  0  0  0  0
 13 14  2  0  0  0  0
 14 15  1  0  0  0  0
 15 19  1  0  0  0  0
 16 15  2  0  0  0  0
 17 11  1  0  0  0  0
 18 13  1  0  0  0  0
 19 21  1  0  0  0  0
 19 22  1  0  0  0  0
 19 20  1  0  0  0  0
 23  8  1  0  0  0  0
 24 27  1  0  0  0  0
 24 23  1  0  0  0  0
 25 24  1  0  0  0  0
 26 24  1  0  0  0  0
 28 27  1  0  0  0  0
 28 29  1  0  0  0  0
 30 29  1  0  0  0  0
M  END
>  <minimizedAffinity>
-4.85343933

$$$$

 OpenBabel03212520213D

 30 31  0  0  0  0  0  0  0  0999 V2000
   40.4880   70.7690   58.2920 Cl  0  0  0  0  0  0  0  0  0  0  0  0
   41.5960   70.3560   59.5820 C   0  0  0  0  0  0  0  0  0  0  0  0
   42.0000   71.2470   60.5600 C   0  0  0  0  0  0  0  0  0  0  0  0
   42.8740   70.7630   61.5000 C   0  0  0  0  0  0  0  0  0  0  0  0
   43.3890   69.4820   61.5710 C   0  0  0  0  0  0  0  0  0  0  0  0
   42.9710   68.6360   60.5990 C   0  0  0  0  0  0  0  0  0  0  0  0
   43.5400   66.9640   60.5520 Cl  0  0  0  0  0  0  0  0  0  0  0  0
   42.0880   69.0560   59.6130 C   0  0  0  0  0  0  0  0  0  0  0  0
   43.1730   71.4960   62.2600 H   0  0  0  0  0  0  0  0  0  0  0  0
   44.0720   69.1790   62.3440 H   0  0  0  0  0  0  0  0  0  0  0  0
   42.0290   73.6760   59.8170 C   0  0  0  0  0  0  0  0  0  0  0  0
   41.4930   72.5770   60.5220 C   0  0  0  0  0  0  0  0  0  0  0  0
   40.3460   72.8000   61.2620 C   0  0  0  0  0  0  0  0  0  0  0  0
   39.8340   74.0730   61.2440 N   0  0  0  0  0  0  0  0  0  0  0  0
   40.3580   75.0860   60.5740 C   0  0  0  0  0  0  0  0  0  0  0  0
   41.4910   74.8890   59.8340 N   0  0  0  0  0  0  0  0  0  0  0  0
   42.9250   73.4560   59.2520 H   0  0  0  0  0  0  0  0  0  0  0  0
   39.8060   72.0600   61.8620 H   0  0  0  0  0  0  0  0  0  0  0  0
   39.6450   76.3830   60.6880 C   0  0  0  0  0  0  0  0  0  0  0  0
   38.9530   76.7000   59.5560 F   0  0  0  0  0  0  0  0  0  0  0  0
   38.7510   76.3280   61.7630 F   0  0  0  0  0  0  0  0  0  0  0  0
   40.5580   77.4400   60.8870 F   0  0  0  0  0  0  0  0  0  0  0  0
   41.6840   68.1600   58.6340 O   0  0  0  0  0  0  0  0  0  0  0  0
   42.3000   68.0450   57.3670 C   0  0  0  0  0  0  0  0  0  0  0  0
   42.9600   67.1560   57.3550 H   0  0  0  0  0  0  0  0  0  0  0  0
   42.8990   68.9850   57.1940 H   0  0  0  0  0  0  0  0  0  0  0  0
   41.2680   67.9490   56.4210 O   0  0  0  0  0  0  0  0  0  0  0  0
   41.7510   68.4990   55.2370 C   0  0  0  0  0  2  0  0  0  0  0  0
   42.6920   69.6220   55.5930 C   0  0  0  0  0  2  0  0  0  0  0  0
   43.5210   69.6480   54.8480 H   0  0  0  0  0  0  0  0  0  0  0  0
  1  2  1  0  0  0  0
  2  8  2  0  0  0  0
  2  3  1  0  0  0  0
  3  4  2  0  0  0  0
  4  5  1  0  0  0  0
  4  9  1  0  0  0  0
  5 10  1  0  0  0  0
  6  5  2  0  0  0  0
  7  6  1  0  0  0  0
  8  6  1  0  0  0  0
 11 16  2  0  0  0  0
 11 12  1  0  0  0  0
 12  3  1  0  0  0  0
 12 13  2  0  0  0  0
 13 18  1  0  0  0  0
 14 13  1  0  0  0  0
 15 19  1  0  0  0  0
 15 14  2  0  0  0  0
 16 15  1  0  0  0  0
 17 11  1  0  0  0  0
 19 22  1  0  0  0  0
 19 21  1  0  0  0  0
 20 19  1  0  0  0  0
 23  8  1  0  0  0  0
 24 23  1  0  0  0  0
 25 24  1  0  0  0  0
 26 24  1  0  0  0  0
 27 24  1  0  0  0  0
 28 29  1  0  0  0  0
 28 27  1  0  0  0  0
 30 29  1  0  0  0  0
M  END
>  <minimizedAffinity>
-4.79465723

$$$$

 OpenBabel03212520213D

 30 31  0  0  0  0  0  0  0  0999 V2000
   43.6050   73.1580   60.2760 Cl  0  0  0  0  0  0  0  0  0  0  0  0
   41.9100   73.4690   60.5720 C   0  0  0  0  0  0  0  0  0  0  0  0
   41.0760   72.5960   61.2480 C   0  0  0  0  0  0  0  0  0  0  0  0
   39.7710   72.9920   61.3950 C   0  0  0  0  0  0  0  0  0  0  0  0
   39.2050   74.1680   60.9390 C   0  0  0  0  0  0  0  0  0  0  0  0
   40.0500   74.9990   60.2820 C   0  0  0  0  0  0  0  0  0  0  0  0
   39.4770   76.5420   59.6390 Cl  0  0  0  0  0  0  0  0  0  0  0  0
   41.3840   74.6650   60.0950 C   0  0  0  0  0  0  0  0  0  0  0  0
   39.1390   72.2760   61.9360 H   0  0  0  0  0  0  0  0  0  0  0  0
   38.1680   74.4060   61.0950 H   0  0  0  0  0  0  0  0  0  0  0  0
   41.8980   71.0350   63.0760 C   0  0  0  0  0  0  0  0  0  0  0  0
   41.6200   71.3740   61.7340 C   0  0  0  0  0  0  0  0  0  0  0  0
   41.9030   70.4220   60.7710 C   0  0  0  0  0  0  0  0  0  0  0  0
   42.4280   69.2330   61.2110 N   0  0  0  0  0  0  0  0  0  0  0  0
   42.6790   68.9410   62.4760 C   0  0  0  0  0  0  0  0  0  0  0  0
   42.4070   69.8670   63.4460 N   0  0  0  0  0  0  0  0  0  0  0  0
   41.6610   71.8080   63.7940 H   0  0  0  0  0  0  0  0  0  0  0  0
   41.7490   70.5230   59.6920 H   0  0  0  0  0  0  0  0  0  0  0  0
   43.2480   67.5950   62.7360 C   0  0  0  0  0  0  0  0  0  0  0  0
   43.5110   66.9090   61.5870 F   0  0  0  0  0  0  0  0  0  0  0  0
   44.4340   67.7270   63.4650 F   0  0  0  0  0  0  0  0  0  0  0  0
   42.3350   66.7970   63.4580 F   0  0  0  0  0  0  0  0  0  0  0  0
   42.2170   75.5430   59.4170 O   0  0  0  0  0  0  0  0  0  0  0  0
   42.5410   75.4230   58.0460 C   0  0  0  0  0  0  0  0  0  0  0  0
   42.1550   74.4620   57.6570 H   0  0  0  0  0  0  0  0  0  0  0  0
   43.6650   75.4620   57.9580 H   0  0  0  0  0  0  0  0  0  0  0  0
   41.9670   76.5250   57.3950 O   0  0  0  0  0  0  0  0  0  0  0  0
   41.1150   76.0190   56.4180 C   0  0  0  0  0  2  0  0  0  0  0  0
   41.4770   74.5750   56.1830 C   0  0  0  0  0  2  0  0  0  0  0  0
   40.5480   74.0000   55.9650 H   0  0  0  0  0  0  0  0  0  0  0  0
  1  2  1  0  0  0  0
  2  3  1  0  0  0  0
  3  4  2  0  0  0  0
  3 12  1  0  0  0  0
  4  9  1  0  0  0  0
  5 10  1  0  0  0  0
  5  4  1  0  0  0  0
  6  5  2  0  0  0  0
  7  6  1  0  0  0  0
  8  6  1  0  0  0  0
  8  2  2  0  0  0  0
 11 16  1  0  0  0  0
 11 17  1  0  0  0  0
 12 11  2  0  0  0  0
 13 14  2  0  0  0  0
 13 12  1  0  0  0  0
 14 15  1  0  0  0  0
 15 19  1  0  0  0  0
 15 16  2  0  0  0  0
 18 13  1  0  0  0  0
 19 22  1  0  0  0  0
 19 21  1  0  0  0  0
 20 19  1  0  0  0  0
 23  8  1  0  0  0  0
 24 23  1  0  0  0  0
 25 24  1  0  0  0  0
 26 24  1  0  0  0  0
 27 24  1  0  0  0  0
 28 27  1  0  0  0  0
 29 28  1  0  0  0  0
 30 29  1  0  0  0  0
M  END
>  <minimizedAffinity>
-4.77896547

$$$$

 OpenBabel03212520213D

 30 31  0  0  0  0  0  0  0  0999 V2000
   41.1920   70.7500   58.6350 Cl  0  0  0  0  0  0  0  0  0  0  0  0
   41.5880   70.8340   60.3360 C   0  0  0  0  0  0  0  0  0  0  0  0
   41.3810   71.9560   61.1180 C   0  0  0  0  0  0  0  0  0  0  0  0
   41.7470   71.8560   62.4370 C   0  0  0  0  0  0  0  0  0  0  0  0
   42.3010   70.7530   63.0610 C   0  0  0  0  0  0  0  0  0  0  0  0
   42.4900   69.6720   62.2660 C   0  0  0  0  0  0  0  0  0  0  0  0
   43.1880   68.1850   62.9170 Cl  0  0  0  0  0  0  0  0  0  0  0  0
   42.1430   69.7010   60.9220 C   0  0  0  0  0  0  0  0  0  0  0  0
   41.5680   72.7630   63.0260 H   0  0  0  0  0  0  0  0  0  0  0  0
   42.5620   70.7540   64.1040 H   0  0  0  0  0  0  0  0  0  0  0  0
   39.4440   73.3790   60.2970 C   0  0  0  0  0  0  0  0  0  0  0  0
   40.8130   73.1120   60.5130 C   0  0  0  0  0  0  0  0  0  0  0  0
   41.7170   74.0720   60.0940 C   0  0  0  0  0  0  0  0  0  0  0  0
   41.1980   75.1980   59.5070 N   0  0  0  0  0  0  0  0  0  0  0  0
   39.9090   75.4220   59.3160 C   0  0  0  0  0  0  0  0  0  0  0  0
   38.9960   74.4880   59.7220 N   0  0  0  0  0  0  0  0  0  0  0  0
   38.7740   72.6020   60.6390 H   0  0  0  0  0  0  0  0  0  0  0  0
   42.8070   74.0220   60.1860 H   0  0  0  0  0  0  0  0  0  0  0  0
   39.5580   76.7080   58.6610 C   0  0  0  0  0  0  0  0  0  0  0  0
   38.2940   76.7050   58.1500 F   0  0  0  0  0  0  0  0  0  0  0  0
   39.6680   77.7470   59.5910 F   0  0  0  0  0  0  0  0  0  0  0  0
   40.4120   76.9610   57.5670 F   0  0  0  0  0  0  0  0  0  0  0  0
   42.3520   68.5740   60.1410 O   0  0  0  0  0  0  0  0  0  0  0  0
   43.5910   68.2470   59.5430 C   0  0  0  0  0  0  0  0  0  0  0  0
   44.3860   68.2490   60.3130 H   0  0  0  0  0  0  0  0  0  0  0  0
   43.8030   69.0250   58.7540 H   0  0  0  0  0  0  0  0  0  0  0  0
   43.4350   66.9850   58.9490 O   0  0  0  0  0  0  0  0  0  0  0  0
   42.5010   66.2910   59.7120 C   0  0  0  0  0  2  0  0  0  0  0  0
   43.1780   65.0740   60.2870 C   0  0  0  0  0  2  0  0  0  0  0  0
   42.7670   64.8790   61.3050 H   0  0  0  0  0  0  0  0  0  0  0  0
  1  2  1  0  0  0  0
  2  8  2  0  0  0  0
  2  3  1  0  0  0  0
  3  4  2  0  0  0  0
  4  9  1  0  0  0  0
  4  5  1  0  0  0  0
  5 10  1  0  0  0  0
  6  7  1  0  0  0  0
  6  5  2  0  0  0  0
  8  6  1  0  0  0  0
 11 12  1  0  0  0  0
 11 17  1  0  0  0  0
 12  3  1  0  0  0  0
 13 18  1  0  0  0  0
 13 12  2  0  0  0  0
 14 13  1  0  0  0  0
 15 14  2  0  0  0  0
 15 16  1  0  0  0  0
 16 11  2  0  0  0  0
 19 15  1  0  0  0  0
 19 21  1  0  0  0  0
 20 19  1  0  0  0  0
 22 19  1  0  0  0  0
 23  8  1  0  0  0  0
 24 23  1  0  0  0  0
 24 25  1  0  0  0  0
 26 24  1  0  0  0  0
 27 24  1  0  0  0  0
 27 28  1  0  0  0  0
 28 29  1  0  0  0  0
 29 30  1  0  0  0  0
M  END
>  <minimizedAffinity>
-4.74037743

$$$$
