
 OpenBabel03212520393D

 21 22  0  0  1  0  0  0  0  0999 V2000
   42.3020   85.4470   59.7790 C   0  0  1  0  0  0  0  0  0  0  0  0
   43.3970   86.3390   59.2050 C   0  0  0  0  0  0  0  0  0  0  0  0
   42.7710   85.2090   58.4060 C   0  0  1  0  0  0  0  0  0  0  0  0
   41.3950   86.0300   60.0380 H   0  0  0  0  0  0  0  0  0  0  0  0
   44.4530   86.1520   59.4770 H   0  0  0  0  0  0  0  0  0  0  0  0
   43.1680   87.3840   58.9300 H   0  0  0  0  0  0  0  0  0  0  0  0
   42.0960   85.5530   57.6010 H   0  0  0  0  0  0  0  0  0  0  0  0
   42.7980   84.6140   60.8290 O   0  0  0  0  0  0  0  0  0  0  0  0
   40.0530   83.5240   62.9190 C   0  0  0  0  0  0  0  0  0  0  0  0
   40.5600   83.7420   64.2000 C   0  0  0  0  0  0  0  0  0  0  0  0
   41.8760   84.2750   64.3100 C   0  0  0  0  0  0  0  0  0  0  0  0
   42.4990   84.5160   63.1480 N   0  0  0  0  0  0  0  0  0  0  0  0
   42.0080   84.3050   61.9120 C   0  0  0  0  0  0  0  0  0  0  0  0
   40.7830   83.8080   61.7920 N   0  0  0  0  0  0  0  0  0  0  0  0
   39.0440   83.1150   62.8070 H   0  0  0  0  0  0  0  0  0  0  0  0
   40.0200   83.5310   65.0920 H   0  0  0  0  0  0  0  0  0  0  0  0
   42.3510   84.4770   65.2600 H   0  0  0  0  0  0  0  0  0  0  0  0
   43.5370   84.0510   58.2000 O   0  0  0  0  0  0  0  0  0  0  0  0
   43.0400   83.3460   57.1310 C   0  0  0  0  0  2  0  0  0  0  0  0
   42.1780   84.1240   56.1920 C   0  0  0  0  0  2  0  0  0  0  0  0
   41.1020   84.0770   56.4690 H   0  0  0  0  0  0  0  0  0  0  0  0
  1  4  1  1  0  0  0
  1  8  1  0  0  0  0
  2  5  1  0  0  0  0
  2  1  1  0  0  0  0
  3  7  1  6  0  0  0
  3  2  1  0  0  0  0
  3  1  1  0  0  0  0
  6  2  1  0  0  0  0
  8 13  1  0  0  0  0
  9 10  1  0  0  0  0
 10 11  2  0  0  0  0
 10 16  1  0  0  0  0
 11 17  1  0  0  0  0
 12 11  1  0  0  0  0
 13 12  2  0  0  0  0
 14 13  1  0  0  0  0
 14  9  2  0  0  0  0
 15  9  1  0  0  0  0
 18  3  1  0  0  0  0
 19 18  1  0  0  0  0
 20 21  1  0  0  0  0
 20 19  1  0  0  0  0
M  END
>  <minimizedAffinity>
-3.37530088

>  <minimizedRMSD>
0.429534227

$$$$
