
 OpenBabel03212520393D

 21 22  0  0  1  0  0  0  0  0999 V2000
   42.3800   85.4400   59.7980 C   0  0  1  0  0  0  0  0  0  0  0  0
   43.4410   86.4710   59.4320 C   0  0  0  0  0  0  0  0  0  0  0  0
   43.0210   85.3680   58.4780 C   0  0  1  0  0  0  0  0  0  0  0  0
   41.3970   85.9170   59.9920 H   0  0  0  0  0  0  0  0  0  0  0  0
   44.4730   86.3520   59.8140 H   0  0  0  0  0  0  0  0  0  0  0  0
   43.1460   87.5140   59.2160 H   0  0  0  0  0  0  0  0  0  0  0  0
   42.4110   85.7240   57.6270 H   0  0  0  0  0  0  0  0  0  0  0  0
   42.8310   84.5620   60.8310 O   0  0  0  0  0  0  0  0  0  0  0  0
   40.0540   83.5220   62.9030 C   0  0  0  0  0  0  0  0  0  0  0  0
   40.5500   83.7500   64.1870 C   0  0  0  0  0  0  0  0  0  0  0  0
   41.8690   84.2720   64.3060 C   0  0  0  0  0  0  0  0  0  0  0  0
   42.5070   84.4930   63.1480 N   0  0  0  0  0  0  0  0  0  0  0  0
   42.0280   84.2730   61.9080 C   0  0  0  0  0  0  0  0  0  0  0  0
   40.7990   83.7860   61.7820 N   0  0  0  0  0  0  0  0  0  0  0  0
   39.0430   83.1210   62.7850 H   0  0  0  0  0  0  0  0  0  0  0  0
   39.9980   83.5550   65.0750 H   0  0  0  0  0  0  0  0  0  0  0  0
   42.3360   84.4810   65.2580 H   0  0  0  0  0  0  0  0  0  0  0  0
   43.9120   84.3040   58.2740 O   0  0  0  0  0  0  0  0  0  0  0  0
   43.8200   83.8570   56.9770 C   0  0  0  0  0  2  0  0  0  0  0  0
   44.0970   82.4030   56.7770 C   0  0  0  0  0  2  0  0  0  0  0  0
   45.1690   82.2040   56.5600 H   0  0  0  0  0  0  0  0  0  0  0  0
  1  4  1  1  0  0  0
  1  8  1  0  0  0  0
  2  1  1  0  0  0  0
  2  5  1  0  0  0  0
  3  7  1  6  0  0  0
  3  2  1  0  0  0  0
  3  1  1  0  0  0  0
  6  2  1  0  0  0  0
  8 13  1  0  0  0  0
  9 10  1  0  0  0  0
 10 11  2  0  0  0  0
 10 16  1  0  0  0  0
 11 17  1  0  0  0  0
 12 11  1  0  0  0  0
 13 12  2  0  0  0  0
 14 13  1  0  0  0  0
 14  9  2  0  0  0  0
 15  9  1  0  0  0  0
 18  3  1  0  0  0  0
 19 18  1  0  0  0  0
 20 19  1  0  0  0  0
 21 20  1  0  0  0  0
M  END
>  <minimizedAffinity>
-3.22012281

>  <minimizedRMSD>
0.105172344

$$$$
