
 OpenBabel03212520393D

 21 22  0  0  1  0  0  0  0  0999 V2000
   42.3750   85.3500   59.7820 C   0  0  1  0  0  0  0  0  0  0  0  0
   43.2990   86.4250   59.2220 C   0  0  0  0  0  0  0  0  0  0  0  0
   43.0880   85.0940   58.5230 C   0  0  1  0  0  0  0  0  0  0  0  0
   41.3260   85.7070   59.8460 H   0  0  0  0  0  0  0  0  0  0  0  0
   44.3160   86.5440   59.6420 H   0  0  0  0  0  0  0  0  0  0  0  0
   42.8730   87.3420   58.7760 H   0  0  0  0  0  0  0  0  0  0  0  0
   42.4800   85.1650   57.6030 H   0  0  0  0  0  0  0  0  0  0  0  0
   42.8890   84.7890   60.9910 O   0  0  0  0  0  0  0  0  0  0  0  0
   40.0560   83.5340   62.8580 C   0  0  0  0  0  0  0  0  0  0  0  0
   40.4700   83.7260   64.1760 C   0  0  0  0  0  0  0  0  0  0  0  0
   41.7550   84.3000   64.3910 C   0  0  0  0  0  0  0  0  0  0  0  0
   42.4430   84.6020   63.2810 N   0  0  0  0  0  0  0  0  0  0  0  0
   42.0430   84.4160   62.0090 C   0  0  0  0  0  0  0  0  0  0  0  0
   40.8470   83.8820   61.7920 N   0  0  0  0  0  0  0  0  0  0  0  0
   39.0730   83.0930   62.6660 H   0  0  0  0  0  0  0  0  0  0  0  0
   39.8800   83.4670   65.0230 H   0  0  0  0  0  0  0  0  0  0  0  0
   42.1590   84.4870   65.3760 H   0  0  0  0  0  0  0  0  0  0  0  0
   44.1290   84.1540   58.5760 O   0  0  0  0  0  0  0  0  0  0  0  0
   44.3170   83.5930   57.3360 C   0  0  0  0  0  2  0  0  0  0  0  0
   44.6250   84.5530   56.2350 C   0  0  0  0  0  2  0  0  0  0  0  0
   43.7080   84.9100   55.7160 H   0  0  0  0  0  0  0  0  0  0  0  0
  1  4  1  6  0  0  0
  1  8  1  0  0  0  0
  2  5  1  0  0  0  0
  2  1  1  0  0  0  0
  3  7  1  6  0  0  0
  3 18  1  0  0  0  0
  3  2  1  0  0  0  0
  3  1  1  0  0  0  0
  6  2  1  0  0  0  0
  8 13  1  0  0  0  0
  9 10  1  0  0  0  0
 10 11  2  0  0  0  0
 10 16  1  0  0  0  0
 11 17  1  0  0  0  0
 12 11  1  0  0  0  0
 13 12  2  0  0  0  0
 14 13  1  0  0  0  0
 14  9  2  0  0  0  0
 15  9  1  0  0  0  0
 19 18  1  0  0  0  0
 20 19  1  0  0  0  0
 21 20  1  0  0  0  0
M  END
>  <minimizedAffinity>
-3.2593298

>  <minimizedRMSD>
0.404705584

$$$$
