
 OpenBabel03212520193D

 30 31  0  0  0  0  0  0  0  0999 V2000
   43.0620   84.1060   58.6350 Cl  0  0  0  0  0  0  0  0  0  0  0  0
   41.8900   82.8660   58.2510 C   0  0  0  0  0  0  0  0  0  0  0  0
   41.0450   82.2930   59.1850 C   0  0  0  0  0  0  0  0  0  0  0  0
   40.1830   81.3330   58.7180 C   0  0  0  0  0  0  0  0  0  0  0  0
   40.0730   80.8810   57.4160 C   0  0  0  0  0  0  0  0  0  0  0  0
   40.9140   81.4640   56.5280 C   0  0  0  0  0  0  0  0  0  0  0  0
   40.8940   80.9950   54.8250 Cl  0  0  0  0  0  0  0  0  0  0  0  0
   41.8140   82.4420   56.9280 C   0  0  0  0  0  0  0  0  0  0  0  0
   39.5290   80.9010   59.4850 H   0  0  0  0  0  0  0  0  0  0  0  0
   39.3680   80.1210   57.1280 H   0  0  0  0  0  0  0  0  0  0  0  0
   41.9800   82.2310   61.5460 C   0  0  0  0  0  0  0  0  0  0  0  0
   41.1280   82.7300   60.5370 C   0  0  0  0  0  0  0  0  0  0  0  0
   40.2730   83.7600   60.8850 C   0  0  0  0  0  0  0  0  0  0  0  0
   40.3320   84.2020   62.1830 N   0  0  0  0  0  0  0  0  0  0  0  0
   41.1410   83.7150   63.1090 C   0  0  0  0  0  0  0  0  0  0  0  0
   41.9960   82.6980   62.7880 N   0  0  0  0  0  0  0  0  0  0  0  0
   42.6310   81.4270   61.2290 H   0  0  0  0  0  0  0  0  0  0  0  0
   39.5530   84.2570   60.2280 H   0  0  0  0  0  0  0  0  0  0  0  0
   41.0450   84.3380   64.4530 C   0  0  0  0  0  0  0  0  0  0  0  0
   40.6890   85.6530   64.3940 F   0  0  0  0  0  0  0  0  0  0  0  0
   40.1000   83.6480   65.2180 F   0  0  0  0  0  0  0  0  0  0  0  0
   42.2950   84.3100   65.1080 F   0  0  0  0  0  0  0  0  0  0  0  0
   42.6590   83.0160   55.9890 O   0  0  0  0  0  0  0  0  0  0  0  0
   42.3460   84.1830   55.2550 C   0  0  0  0  0  0  0  0  0  0  0  0
   41.7870   84.8880   55.9010 H   0  0  0  0  0  0  0  0  0  0  0  0
   41.7170   83.8710   54.3730 H   0  0  0  0  0  0  0  0  0  0  0  0
   43.5630   84.7240   54.8150 O   0  0  0  0  0  0  0  0  0  0  0  0
   43.7470   84.2930   53.5040 C   0  0  0  0  0  0  0  0  0  0  0  0
   44.4010   85.4100   52.7310 C   0  0  0  0  0  0  0  0  0  0  0  0
   45.1030   84.9690   51.9860 H   0  0  0  0  0  0  0  0  0  0  0  0
  2  1  1  0  0  0  0
  2  3  1  0  0  0  0
  3 12  1  0  0  0  0
  4  3  2  0  0  0  0
  4  9  1  0  0  0  0
  5  4  1  0  0  0  0
  6  8  1  0  0  0  0
  6  5  2  0  0  0  0
  7  6  1  0  0  0  0
  8  2  2  0  0  0  0
 10  5  1  0  0  0  0
 11 16  1  0  0  0  0
 12 13  1  0  0  0  0
 12 11  2  0  0  0  0
 13 14  2  0  0  0  0
 14 15  1  0  0  0  0
 15 19  1  0  0  0  0
 16 15  2  0  0  0  0
 17 11  1  0  0  0  0
 18 13  1  0  0  0  0
 19 22  1  0  0  0  0
 19 21  1  0  0  0  0
 20 19  1  0  0  0  0
 23  8  1  0  0  0  0
 24 25  1  0  0  0  0
 24 23  1  0  0  0  0
 26 24  1  0  0  0  0
 27 24  1  0  0  0  0
 28 27  1  0  0  0  0
 29 28  1  0  0  0  0
 30 29  1  0  0  0  0
M  END
>  <minimizedAffinity>
-4.7282443

>  <minimizedRMSD>
0.727869749

$$$$
