
 OpenBabel03212520393D

 21 22  0  0  1  0  0  0  0  0999 V2000
   42.2970   85.4340   59.7750 C   0  0  1  0  0  0  0  0  0  0  0  0
   43.3470   85.6580   58.6930 C   0  0  0  0  0  0  0  0  0  0  0  0
   42.1050   84.8190   58.4540 C   0  0  1  0  0  0  0  0  0  0  0  0
   41.8300   86.3890   60.0950 H   0  0  0  0  0  0  0  0  0  0  0  0
   44.2820   85.0660   58.7080 H   0  0  0  0  0  0  0  0  0  0  0  0
   43.4330   86.6450   58.2040 H   0  0  0  0  0  0  0  0  0  0  0  0
   41.3570   85.3050   57.8010 H   0  0  0  0  0  0  0  0  0  0  0  0
   42.8020   84.6300   60.8420 O   0  0  0  0  0  0  0  0  0  0  0  0
   40.0500   83.5480   62.9260 C   0  0  0  0  0  0  0  0  0  0  0  0
   40.5600   83.7510   64.2080 C   0  0  0  0  0  0  0  0  0  0  0  0
   41.8810   84.2700   64.3220 C   0  0  0  0  0  0  0  0  0  0  0  0
   42.5050   84.5150   63.1610 N   0  0  0  0  0  0  0  0  0  0  0  0
   42.0110   84.3190   61.9230 C   0  0  0  0  0  0  0  0  0  0  0  0
   40.7820   83.8350   61.8010 N   0  0  0  0  0  0  0  0  0  0  0  0
   39.0370   83.1490   62.8120 H   0  0  0  0  0  0  0  0  0  0  0  0
   40.0190   83.5380   65.0990 H   0  0  0  0  0  0  0  0  0  0  0  0
   42.3590   84.4600   65.2730 H   0  0  0  0  0  0  0  0  0  0  0  0
   42.2600   83.4250   58.3870 O   0  0  0  0  0  0  0  0  0  0  0  0
   41.1270   82.8540   57.8570 C   0  0  0  0  0  2  0  0  0  0  0  0
   40.3730   81.9510   58.7760 C   0  0  0  0  0  2  0  0  0  0  0  0
   40.7050   80.8920   58.6970 H   0  0  0  0  0  0  0  0  0  0  0  0
  1  4  1  1  0  0  0
  1  8  1  0  0  0  0
  2  5  1  0  0  0  0
  2  1  1  0  0  0  0
  3  7  1  6  0  0  0
  3  2  1  0  0  0  0
  3  1  1  0  0  0  0
  6  2  1  0  0  0  0
  8 13  1  0  0  0  0
  9 10  1  0  0  0  0
 10 11  2  0  0  0  0
 10 16  1  0  0  0  0
 11 17  1  0  0  0  0
 12 11  1  0  0  0  0
 13 12  2  0  0  0  0
 14 13  1  0  0  0  0
 14  9  2  0  0  0  0
 15  9  1  0  0  0  0
 18  3  1  0  0  0  0
 19 18  1  0  0  0  0
 19 20  1  0  0  0  0
 21 20  1  0  0  0  0
M  END
>  <minimizedAffinity>
-3.54093719

>  <minimizedRMSD>
1.49507558

$$$$
