
 OpenBabel03212520283D

 28 29  0  0  0  0  0  0  0  0999 V2000
   42.4280   84.6380   61.2780 C   0  0  0  0  0  0  0  0  0  0  0  0
   43.2000   85.1400   62.3390 C   0  0  0  0  0  0  0  0  0  0  0  0
   44.1330   85.9210   61.6480 C   0  0  0  0  0  0  0  0  0  0  0  0
   43.9090   85.8650   60.3120 N   0  0  0  0  0  0  0  0  0  0  0  0
   42.8570   85.0720   60.1160 N   0  0  0  0  0  0  0  0  0  0  0  0
   43.1360   84.9970   63.4090 H   0  0  0  0  0  0  0  0  0  0  0  0
   44.9150   86.4790   62.1590 H   0  0  0  0  0  0  0  0  0  0  0  0
   40.3630   81.5340   61.4500 C   0  0  0  0  0  0  0  0  0  0  0  0
   41.4220   82.3960   61.2710 C   0  0  0  0  0  0  0  0  0  0  0  0
   41.2970   83.7490   61.4730 C   0  0  0  0  0  0  0  0  0  0  0  0
   40.1000   84.2240   61.8570 N   0  0  0  0  0  0  0  0  0  0  0  0
   39.0650   83.3510   62.0290 C   0  0  0  0  0  0  0  0  0  0  0  0
   39.1980   82.0300   61.8280 N   0  0  0  0  0  0  0  0  0  0  0  0
   40.5460   80.4710   61.2680 H   0  0  0  0  0  0  0  0  0  0  0  0
   42.3870   81.9910   60.9590 H   0  0  0  0  0  0  0  0  0  0  0  0
   38.1020   83.7580   62.3410 H   0  0  0  0  0  0  0  0  0  0  0  0
   44.6890   86.5540   59.3180 C   0  0  0  0  0  0  0  0  0  0  0  0
   44.3570   86.2460   58.3000 H   0  0  0  0  0  0  0  0  0  0  0  0
   45.7380   86.1630   59.4130 H   0  0  0  0  0  0  0  0  0  0  0  0
   44.7230   87.9010   59.5250 O   0  0  0  0  0  0  0  0  0  0  0  0
   44.0720   90.2870   58.7160 O   0  0  0  0  0  0  0  0  0  0  0  0
   44.1890   88.8450   58.2670 P   0  0  2  0  0  0  0  0  0  0  0  0
   42.6620   88.3230   57.7820 O   0  0  0  0  0  0  0  0  0  0  0  0
   42.2200   88.9620   57.1940 H   0  0  0  0  0  0  0  0  0  0  0  0
   45.2100   88.7330   56.9300 O   0  0  0  0  0  0  0  0  0  0  0  0
   46.4900   89.1950   57.2040 C   0  0  0  0  0  0  0  0  0  0  0  0
   47.4200   87.9820   57.0710 C   0  0  0  0  0  0  0  0  0  0  0  0
   46.8970   87.1530   57.6080 H   0  0  0  0  0  0  0  0  0  0  0  0
  1 10  1  0  0  0  0
  1  2  1  0  0  0  0
  2  6  1  0  0  0  0
  3  7  1  0  0  0  0
  3  2  2  0  0  0  0
  4  3  1  0  0  0  0
  5  4  1  0  0  0  0
  5  1  2  0  0  0  0
  8 13  1  0  0  0  0
  9  8  2  0  0  0  0
  9 10  1  0  0  0  0
 10 11  2  0  0  0  0
 11 12  1  0  0  0  0
 12 16  1  0  0  0  0
 13 12  2  0  0  0  0
 14  8  1  0  0  0  0
 15  9  1  0  0  0  0
 17 19  1  0  0  0  0
 17 20  1  0  0  0  0
 17  4  1  0  0  0  0
 18 17  1  0  0  0  0
 22 21  2  1  0  0  0
 22 20  1  0  0  0  0
 23 22  1  0  0  0  0
 24 23  1  0  0  0  0
 25 26  1  0  0  0  0
 25 22  1  0  0  0  0
 27 26  1  0  0  0  0
 27 28  1  0  0  0  0
M  END
>  <minimizedAffinity>
-4.36262989

>  <minimizedRMSD>
1.55238938

$$$$
