
 OpenBabel03212520393D

 21 22  0  0  1  0  0  0  0  0999 V2000
   42.5780   85.5390   59.8110 C   0  0  1  0  0  0  0  0  0  0  0  0
   43.6170   86.6250   59.5570 C   0  0  0  0  0  0  0  0  0  0  0  0
   43.3160   85.5380   58.5400 C   0  0  1  0  0  0  0  0  0  0  0  0
   41.5630   85.9680   59.9460 H   0  0  0  0  0  0  0  0  0  0  0  0
   44.6220   86.5360   60.0110 H   0  0  0  0  0  0  0  0  0  0  0  0
   43.2930   87.6610   59.3510 H   0  0  0  0  0  0  0  0  0  0  0  0
   42.7550   85.8970   57.6580 H   0  0  0  0  0  0  0  0  0  0  0  0
   42.9910   84.6460   60.8470 O   0  0  0  0  0  0  0  0  0  0  0  0
   40.1410   83.4030   62.6970 C   0  0  0  0  0  0  0  0  0  0  0  0
   40.5160   83.6620   64.0160 C   0  0  0  0  0  0  0  0  0  0  0  0
   41.7810   84.2770   64.2360 C   0  0  0  0  0  0  0  0  0  0  0  0
   42.4900   84.5470   63.1320 N   0  0  0  0  0  0  0  0  0  0  0  0
   42.1280   84.2970   61.8590 C   0  0  0  0  0  0  0  0  0  0  0  0
   40.9510   83.7240   61.6370 N   0  0  0  0  0  0  0  0  0  0  0  0
   39.1740   82.9300   62.5010 H   0  0  0  0  0  0  0  0  0  0  0  0
   39.9110   83.4250   64.8580 H   0  0  0  0  0  0  0  0  0  0  0  0
   42.1550   84.5160   65.2220 H   0  0  0  0  0  0  0  0  0  0  0  0
   44.2660   84.5190   58.3710 O   0  0  0  0  0  0  0  0  0  0  0  0
   43.7960   83.5850   57.4800 C   0  0  0  0  0  2  0  0  0  0  0  0
   43.4080   82.2690   58.0720 C   0  0  0  0  0  2  0  0  0  0  0  0
   44.2540   81.5450   58.0820 H   0  0  0  0  0  0  0  0  0  0  0  0
  1  4  1  6  0  0  0
  1  8  1  0  0  0  0
  2  1  1  0  0  0  0
  2  5  1  0  0  0  0
  3  7  1  6  0  0  0
  3  2  1  0  0  0  0
  3  1  1  0  0  0  0
  6  2  1  0  0  0  0
  8 13  1  0  0  0  0
  9 10  1  0  0  0  0
 10 11  2  0  0  0  0
 10 16  1  0  0  0  0
 11 17  1  0  0  0  0
 12 11  1  0  0  0  0
 13 12  2  0  0  0  0
 14 13  1  0  0  0  0
 14  9  2  0  0  0  0
 15  9  1  0  0  0  0
 18  3  1  0  0  0  0
 19 20  1  0  0  0  0
 19 18  1  0  0  0  0
 20 21  1  0  0  0  0
M  END
>  <minimizedAffinity>
-3.209512

>  <minimizedRMSD>
0.496546507

$$$$
