
 OpenBabel03212520143D

 25 26  0  0  0  0  0  0  0  0999 V2000
   43.3220   74.1710   60.0520 Cl  0  0  0  0  0  0  0  0  0  0  0  0
   41.5630   74.3260   60.0330 C   0  0  0  0  0  0  0  0  0  0  0  0
   40.7390   73.3840   60.6250 C   0  0  0  0  0  0  0  0  0  0  0  0
   39.3820   73.6560   60.5200 C   0  0  0  0  0  0  0  0  0  0  0  0
   38.7990   74.7420   59.8980 C   0  0  0  0  0  0  0  0  0  0  0  0
   39.6590   75.6300   59.3360 C   0  0  0  0  0  0  0  0  0  0  0  0
   39.0550   77.0700   58.5090 Cl  0  0  0  0  0  0  0  0  0  0  0  0
   41.0280   75.4240   59.4030 C   0  0  0  0  0  0  0  0  0  0  0  0
   38.7100   72.9200   60.9790 H   0  0  0  0  0  0  0  0  0  0  0  0
   37.7370   74.8560   59.8730 H   0  0  0  0  0  0  0  0  0  0  0  0
   41.6180   72.1090   62.6220 C   0  0  0  0  0  0  0  0  0  0  0  0
   41.3040   72.2560   61.2700 C   0  0  0  0  0  0  0  0  0  0  0  0
   41.5710   71.1650   60.4300 C   0  0  0  0  0  0  0  0  0  0  0  0
   42.1150   70.0510   60.9950 N   0  0  0  0  0  0  0  0  0  0  0  0
   42.4050   69.9470   62.3070 C   0  0  0  0  0  0  0  0  0  0  0  0
   42.1510   70.9850   63.1090 N   0  0  0  0  0  0  0  0  0  0  0  0
   41.3930   72.9770   63.2300 H   0  0  0  0  0  0  0  0  0  0  0  0
   41.3810   71.1450   59.3880 H   0  0  0  0  0  0  0  0  0  0  0  0
   42.9930   68.6550   62.7390 C   0  0  0  0  0  0  0  0  0  0  0  0
   43.3310   67.8580   61.6750 F   0  0  0  0  0  0  0  0  0  0  0  0
   44.1300   68.8900   63.4870 F   0  0  0  0  0  0  0  0  0  0  0  0
   42.0700   67.9190   63.4740 F   0  0  0  0  0  0  0  0  0  0  0  0
   41.9520   76.4270   58.7710 C   0  0  0  0  0  2  0  0  0  0  0  0
   42.1530   77.5900   59.7350 C   0  0  0  0  0  2  0  0  0  0  0  0
   41.4200   77.5380   60.5940 H   0  0  0  0  0  0  0  0  0  0  0  0
  2  1  1  0  0  0  0
  2  3  1  0  0  0  0
  3 12  1  0  0  0  0
  4  3  2  0  0  0  0
  4  9  1  0  0  0  0
  5  4  1  0  0  0  0
  6  8  1  0  0  0  0
  6  5  2  0  0  0  0
  7  6  1  0  0  0  0
  8  2  2  0  0  0  0
 10  5  1  0  0  0  0
 11 16  1  0  0  0  0
 11 17  1  0  0  0  0
 12 11  2  0  0  0  0
 13 14  2  0  0  0  0
 13 12  1  0  0  0  0
 14 15  1  0  0  0  0
 15 19  1  0  0  0  0
 15 16  2  0  0  0  0
 18 13  1  0  0  0  0
 19 22  1  0  0  0  0
 19 21  1  0  0  0  0
 20 19  1  0  0  0  0
 23  8  1  0  0  0  0
 23 24  1  0  0  0  0
 24 25  1  0  0  0  0
M  END
>  <minimizedAffinity>
-5.49281168

$$$$

 OpenBabel03212520143D

 25 26  0  0  0  0  0  0  0  0999 V2000
   39.5240   73.1030   61.2400 Cl  0  0  0  0  0  0  0  0  0  0  0  0
   41.0820   73.6000   60.5750 C   0  0  0  0  0  0  0  0  0  0  0  0
   42.2050   72.7950   60.6610 C   0  0  0  0  0  0  0  0  0  0  0  0
   43.3480   73.3350   60.0890 C   0  0  0  0  0  0  0  0  0  0  0  0
   43.4640   74.5610   59.4640 C   0  0  0  0  0  0  0  0  0  0  0  0
   42.3300   75.3050   59.4110 C   0  0  0  0  0  0  0  0  0  0  0  0
   42.3280   76.8930   58.6370 Cl  0  0  0  0  0  0  0  0  0  0  0  0
   41.1490   74.8290   59.9610 C   0  0  0  0  0  0  0  0  0  0  0  0
   44.2520   72.7160   60.1500 H   0  0  0  0  0  0  0  0  0  0  0  0
   44.3980   74.8830   59.0550 H   0  0  0  0  0  0  0  0  0  0  0  0
   42.0950   71.2630   62.6680 C   0  0  0  0  0  0  0  0  0  0  0  0
   42.1220   71.5320   61.2980 C   0  0  0  0  0  0  0  0  0  0  0  0
   42.0620   70.4330   60.4290 C   0  0  0  0  0  0  0  0  0  0  0  0
   41.9810   69.1920   60.9850 N   0  0  0  0  0  0  0  0  0  0  0  0
   41.9570   68.9710   62.3150 C   0  0  0  0  0  0  0  0  0  0  0  0
   42.0140   70.0170   63.1440 N   0  0  0  0  0  0  0  0  0  0  0  0
   42.1430   72.1430   63.2970 H   0  0  0  0  0  0  0  0  0  0  0  0
   42.0740   70.4980   59.3720 H   0  0  0  0  0  0  0  0  0  0  0  0
   41.8670   67.5510   62.7340 C   0  0  0  0  0  0  0  0  0  0  0  0
   42.9450   67.1630   63.4870 F   0  0  0  0  0  0  0  0  0  0  0  0
   40.7210   67.3600   63.4820 F   0  0  0  0  0  0  0  0  0  0  0  0
   41.8690   66.7120   61.6240 F   0  0  0  0  0  0  0  0  0  0  0  0
   39.9110   75.6760   59.8840 C   0  0  0  0  0  2  0  0  0  0  0  0
   39.8500   76.5760   61.1120 C   0  0  0  0  0  2  0  0  0  0  0  0
   40.6160   76.2650   61.8840 H   0  0  0  0  0  0  0  0  0  0  0  0
  2  3  1  0  0  0  0
  2  1  1  0  0  0  0
  3 12  1  0  0  0  0
  4  9  1  0  0  0  0
  4  3  2  0  0  0  0
  5  4  1  0  0  0  0
  6  5  2  0  0  0  0
  6  8  1  0  0  0  0
  7  6  1  0  0  0  0
  8  2  2  0  0  0  0
 10  5  1  0  0  0  0
 11 16  1  0  0  0  0
 11 17  1  0  0  0  0
 12 11  2  0  0  0  0
 13 14  2  0  0  0  0
 13 12  1  0  0  0  0
 14 15  1  0  0  0  0
 15 19  1  0  0  0  0
 15 16  2  0  0  0  0
 18 13  1  0  0  0  0
 19 21  1  0  0  0  0
 19 20  1  0  0  0  0
 22 19  1  0  0  0  0
 23  8  1  0  0  0  0
 23 24  1  0  0  0  0
 24 25  1  0  0  0  0
M  END
>  <minimizedAffinity>
-5.33183527

$$$$

 OpenBabel03212520143D

 25 26  0  0  0  0  0  0  0  0999 V2000
   41.5570   70.2990   58.7460 Cl  0  0  0  0  0  0  0  0  0  0  0  0
   42.1730   70.0150   60.3760 C   0  0  0  0  0  0  0  0  0  0  0  0
   42.1230   70.9900   61.3570 C   0  0  0  0  0  0  0  0  0  0  0  0
   42.6500   70.6050   62.5820 C   0  0  0  0  0  0  0  0  0  0  0  0
   43.2010   69.3790   62.9000 C   0  0  0  0  0  0  0  0  0  0  0  0
   43.2220   68.4650   61.8970 C   0  0  0  0  0  0  0  0  0  0  0  0
   43.8940   66.8530   62.1600 Cl  0  0  0  0  0  0  0  0  0  0  0  0
   42.7130   68.7800   60.6460 C   0  0  0  0  0  0  0  0  0  0  0  0
   42.6250   71.3640   63.3740 H   0  0  0  0  0  0  0  0  0  0  0  0
   43.5820   69.1850   63.8800 H   0  0  0  0  0  0  0  0  0  0  0  0
   42.1180   73.2790   60.2860 C   0  0  0  0  0  0  0  0  0  0  0  0
   41.5670   72.2600   61.0650 C   0  0  0  0  0  0  0  0  0  0  0  0
   40.3090   72.5030   61.6370 C   0  0  0  0  0  0  0  0  0  0  0  0
   39.7250   73.7070   61.3910 N   0  0  0  0  0  0  0  0  0  0  0  0
   40.2890   74.6690   60.6320 C   0  0  0  0  0  0  0  0  0  0  0  0
   41.4870   74.4400   60.0860 N   0  0  0  0  0  0  0  0  0  0  0  0
   43.0890   73.0450   59.8660 H   0  0  0  0  0  0  0  0  0  0  0  0
   39.7810   71.8160   62.2470 H   0  0  0  0  0  0  0  0  0  0  0  0
   39.5010   75.9160   60.4760 C   0  0  0  0  0  0  0  0  0  0  0  0
   40.3020   77.0170   60.3090 F   0  0  0  0  0  0  0  0  0  0  0  0
   38.6740   75.8080   59.3750 F   0  0  0  0  0  0  0  0  0  0  0  0
   38.7550   76.1700   61.6220 F   0  0  0  0  0  0  0  0  0  0  0  0
   42.7490   67.7440   59.5580 C   0  0  0  0  0  2  0  0  0  0  0  0
   41.4820   66.9020   59.6330 C   0  0  0  0  0  2  0  0  0  0  0  0
   40.9160   67.1030   60.5920 H   0  0  0  0  0  0  0  0  0  0  0  0
  1  2  1  0  0  0  0
  2  8  2  0  0  0  0
  2  3  1  0  0  0  0
  3  4  2  0  0  0  0
  4  5  1  0  0  0  0
  4  9  1  0  0  0  0
  5 10  1  0  0  0  0
  6  7  1  0  0  0  0
  6  5  2  0  0  0  0
  8  6  1  0  0  0  0
 11 12  1  0  0  0  0
 12  3  1  0  0  0  0
 12 13  2  0  0  0  0
 13 18  1  0  0  0  0
 14 13  1  0  0  0  0
 15 14  2  0  0  0  0
 16 11  2  0  0  0  0
 16 15  1  0  0  0  0
 17 11  1  0  0  0  0
 19 15  1  0  0  0  0
 19 22  1  0  0  0  0
 20 19  1  0  0  0  0
 21 19  1  0  0  0  0
 23 24  1  0  0  0  0
 23  8  1  0  0  0  0
 24 25  1  0  0  0  0
M  END
>  <minimizedAffinity>
-5.2854228

$$$$

 OpenBabel03212520143D

 25 26  0  0  0  0  0  0  0  0999 V2000
   41.7950   71.3830   62.9210 Cl  0  0  0  0  0  0  0  0  0  0  0  0
   41.8090   70.5300   61.3750 C   0  0  0  0  0  0  0  0  0  0  0  0
   41.5750   71.1830   60.1780 C   0  0  0  0  0  0  0  0  0  0  0  0
   41.6210   70.3660   59.0560 C   0  0  0  0  0  0  0  0  0  0  0  0
   41.8680   69.0080   59.0280 C   0  0  0  0  0  0  0  0  0  0  0  0
   42.0890   68.4250   60.2330 C   0  0  0  0  0  0  0  0  0  0  0  0
   42.4240   66.6940   60.3490 Cl  0  0  0  0  0  0  0  0  0  0  0  0
   42.0600   69.1790   61.3970 C   0  0  0  0  0  0  0  0  0  0  0  0
   41.4340   70.8620   58.0960 H   0  0  0  0  0  0  0  0  0  0  0  0
   41.8800   68.4710   58.1040 H   0  0  0  0  0  0  0  0  0  0  0  0
   42.1840   73.6080   59.8140 C   0  0  0  0  0  0  0  0  0  0  0  0
   41.3150   72.5760   60.1700 C   0  0  0  0  0  0  0  0  0  0  0  0
   40.0210   72.9400   60.5720 C   0  0  0  0  0  0  0  0  0  0  0  0
   39.7140   74.2660   60.5850 N   0  0  0  0  0  0  0  0  0  0  0  0
   40.5820   75.2360   60.2340 C   0  0  0  0  0  0  0  0  0  0  0  0
   41.8140   74.8920   59.8500 N   0  0  0  0  0  0  0  0  0  0  0  0
   43.1700   73.2770   59.5100 H   0  0  0  0  0  0  0  0  0  0  0  0
   39.2670   72.2580   60.8660 H   0  0  0  0  0  0  0  0  0  0  0  0
   40.0660   76.6250   60.3100 C   0  0  0  0  0  0  0  0  0  0  0  0
   41.0500   77.5560   60.0930 F   0  0  0  0  0  0  0  0  0  0  0  0
   39.0780   76.8060   59.3630 F   0  0  0  0  0  0  0  0  0  0  0  0
   39.5760   76.8960   61.5840 F   0  0  0  0  0  0  0  0  0  0  0  0
   42.3100   68.5020   62.7150 C   0  0  0  0  0  2  0  0  0  0  0  0
   43.8050   68.5280   63.0080 C   0  0  0  0  0  2  0  0  0  0  0  0
   44.3930   68.8530   62.0980 H   0  0  0  0  0  0  0  0  0  0  0  0
  2  8  1  0  0  0  0
  2  1  1  0  0  0  0
  3  2  2  0  0  0  0
  4  3  1  0  0  0  0
  5  4  2  0  0  0  0
  5  6  1  0  0  0  0
  6  7  1  0  0  0  0
  6  8  2  0  0  0  0
  8 23  1  0  0  0  0
  9  4  1  0  0  0  0
 10  5  1  0  0  0  0
 11 16  2  0  0  0  0
 11 12  1  0  0  0  0
 12  3  1  0  0  0  0
 12 13  2  0  0  0  0
 13 14  1  0  0  0  0
 13 18  1  0  0  0  0
 15 19  1  0  0  0  0
 15 14  2  0  0  0  0
 16 15  1  0  0  0  0
 17 11  1  0  0  0  0
 19 22  1  0  0  0  0
 20 19  1  0  0  0  0
 21 19  1  0  0  0  0
 23 24  1  0  0  0  0
 25 24  1  0  0  0  0
M  END
>  <minimizedAffinity>
-5.10746574

$$$$

 OpenBabel03212520143D

 25 26  0  0  0  0  0  0  0  0999 V2000
   42.4220   70.4460   58.9020 Cl  0  0  0  0  0  0  0  0  0  0  0  0
   42.2330   70.3990   60.6570 C   0  0  0  0  0  0  0  0  0  0  0  0
   41.9970   71.5440   61.3980 C   0  0  0  0  0  0  0  0  0  0  0  0
   41.8750   71.3330   62.7650 C   0  0  0  0  0  0  0  0  0  0  0  0
   41.9650   70.1250   63.4290 C   0  0  0  0  0  0  0  0  0  0  0  0
   42.1980   69.0400   62.6480 C   0  0  0  0  0  0  0  0  0  0  0  0
   42.3330   67.4290   63.3610 Cl  0  0  0  0  0  0  0  0  0  0  0  0
   42.3310   69.1750   61.2740 C   0  0  0  0  0  0  0  0  0  0  0  0
   41.6920   72.2270   63.3720 H   0  0  0  0  0  0  0  0  0  0  0  0
   41.8560   70.0730   64.4910 H   0  0  0  0  0  0  0  0  0  0  0  0
   40.7440   73.4870   60.3770 C   0  0  0  0  0  0  0  0  0  0  0  0
   41.9020   72.8000   60.7490 C   0  0  0  0  0  0  0  0  0  0  0  0
   43.1300   73.4110   60.4540 C   0  0  0  0  0  0  0  0  0  0  0  0
   43.0990   74.6210   59.8300 N   0  0  0  0  0  0  0  0  0  0  0  0
   41.9600   75.2540   59.4850 C   0  0  0  0  0  0  0  0  0  0  0  0
   40.7890   74.6740   59.7660 N   0  0  0  0  0  0  0  0  0  0  0  0
   39.8220   72.9760   60.6260 H   0  0  0  0  0  0  0  0  0  0  0  0
   44.0780   72.9990   60.6820 H   0  0  0  0  0  0  0  0  0  0  0  0
   42.1260   76.5650   58.8120 C   0  0  0  0  0  0  0  0  0  0  0  0
   40.9300   77.0840   58.3860 F   0  0  0  0  0  0  0  0  0  0  0  0
   42.7050   77.4650   59.6860 F   0  0  0  0  0  0  0  0  0  0  0  0
   42.9020   76.4320   57.6660 F   0  0  0  0  0  0  0  0  0  0  0  0
   42.5860   67.9530   60.4380 C   0  0  0  0  0  2  0  0  0  0  0  0
   41.2510   67.3520   60.0180 C   0  0  0  0  0  2  0  0  0  0  0  0
   40.3950   67.8260   60.5870 H   0  0  0  0  0  0  0  0  0  0  0  0
  1  2  1  0  0  0  0
  2  8  2  0  0  0  0
  2  3  1  0  0  0  0
  3  4  2  0  0  0  0
  4  9  1  0  0  0  0
  4  5  1  0  0  0  0
  5 10  1  0  0  0  0
  6  7  1  0  0  0  0
  6  5  2  0  0  0  0
  8  6  1  0  0  0  0
 11 17  1  0  0  0  0
 11 12  1  0  0  0  0
 12  3  1  0  0  0  0
 13 18  1  0  0  0  0
 13 12  2  0  0  0  0
 14 13  1  0  0  0  0
 15 16  1  0  0  0  0
 15 14  2  0  0  0  0
 16 11  2  0  0  0  0
 19 15  1  0  0  0  0
 19 21  1  0  0  0  0
 20 19  1  0  0  0  0
 22 19  1  0  0  0  0
 23  8  1  0  0  0  0
 24 23  1  0  0  0  0
 24 25  1  0  0  0  0
M  END
>  <minimizedAffinity>
-5.05620146

$$$$

 OpenBabel03212520143D

 25 26  0  0  0  0  0  0  0  0999 V2000
   41.5270   70.8770   58.5240 Cl  0  0  0  0  0  0  0  0  0  0  0  0
   41.7480   71.0310   60.2690 C   0  0  0  0  0  0  0  0  0  0  0  0
   41.2920   72.1340   60.9700 C   0  0  0  0  0  0  0  0  0  0  0  0
   41.5480   72.0980   62.3340 C   0  0  0  0  0  0  0  0  0  0  0  0
   42.1950   71.0970   63.0310 C   0  0  0  0  0  0  0  0  0  0  0  0
   42.6180   70.0420   62.2890 C   0  0  0  0  0  0  0  0  0  0  0  0
   43.4580   68.6850   63.0480 Cl  0  0  0  0  0  0  0  0  0  0  0  0
   42.3970   70.0090   60.9200 C   0  0  0  0  0  0  0  0  0  0  0  0
   41.1990   72.9650   62.9080 H   0  0  0  0  0  0  0  0  0  0  0  0
   42.3410   71.1690   64.0870 H   0  0  0  0  0  0  0  0  0  0  0  0
   39.2590   73.3090   60.0360 C   0  0  0  0  0  0  0  0  0  0  0  0
   40.6270   73.1810   60.2860 C   0  0  0  0  0  0  0  0  0  0  0  0
   41.4610   74.2040   59.8110 C   0  0  0  0  0  0  0  0  0  0  0  0
   40.8770   75.2380   59.1450 N   0  0  0  0  0  0  0  0  0  0  0  0
   39.5500   75.3260   58.9220 C   0  0  0  0  0  0  0  0  0  0  0  0
   38.7530   74.3530   59.3740 N   0  0  0  0  0  0  0  0  0  0  0  0
   38.6570   72.4950   60.4220 H   0  0  0  0  0  0  0  0  0  0  0  0
   42.5130   74.2300   59.9330 H   0  0  0  0  0  0  0  0  0  0  0  0
   39.0970   76.5270   58.1780 C   0  0  0  0  0  0  0  0  0  0  0  0
   37.8130   76.3940   57.7130 F   0  0  0  0  0  0  0  0  0  0  0  0
   39.1490   77.6320   59.0050 F   0  0  0  0  0  0  0  0  0  0  0  0
   39.8820   76.7270   57.0470 F   0  0  0  0  0  0  0  0  0  0  0  0
   42.8780   68.8250   60.1280 C   0  0  0  0  0  2  0  0  0  0  0  0
   41.7790   67.7710   60.0990 C   0  0  0  0  0  2  0  0  0  0  0  0
   40.9550   68.0200   60.8330 H   0  0  0  0  0  0  0  0  0  0  0  0
  1  2  1  0  0  0  0
  2  8  2  0  0  0  0
  2  3  1  0  0  0  0
  3  4  2  0  0  0  0
  4  9  1  0  0  0  0
  4  5  1  0  0  0  0
  5 10  1  0  0  0  0
  6  5  2  0  0  0  0
  6  7  1  0  0  0  0
  8  6  1  0  0  0  0
 11 12  1  0  0  0  0
 11 17  1  0  0  0  0
 12  3  1  0  0  0  0
 13 18  1  0  0  0  0
 13 12  2  0  0  0  0
 14 13  1  0  0  0  0
 15 14  2  0  0  0  0
 15 16  1  0  0  0  0
 16 11  2  0  0  0  0
 19 15  1  0  0  0  0
 19 21  1  0  0  0  0
 20 19  1  0  0  0  0
 22 19  1  0  0  0  0
 23  8  1  0  0  0  0
 24 23  1  0  0  0  0
 24 25  1  0  0  0  0
M  END
>  <minimizedAffinity>
-5.03078222

$$$$

 OpenBabel03212520143D

 25 26  0  0  0  0  0  0  0  0999 V2000
   40.5250   71.1170   57.5180 Cl  0  0  0  0  0  0  0  0  0  0  0  0
   41.3170   70.3950   58.9210 C   0  0  0  0  0  0  0  0  0  0  0  0
   41.6300   71.1370   60.0470 C   0  0  0  0  0  0  0  0  0  0  0  0
   42.2500   70.4170   61.0590 C   0  0  0  0  0  0  0  0  0  0  0  0
   42.5750   69.0750   61.0440 C   0  0  0  0  0  0  0  0  0  0  0  0
   42.2440   68.4020   59.9130 C   0  0  0  0  0  0  0  0  0  0  0  0
   42.5950   66.6770   59.7550 Cl  0  0  0  0  0  0  0  0  0  0  0  0
   41.6210   69.0560   58.8610 C   0  0  0  0  0  0  0  0  0  0  0  0
   42.5110   70.9860   61.9600 H   0  0  0  0  0  0  0  0  0  0  0  0
   43.0560   68.6170   61.8810 H   0  0  0  0  0  0  0  0  0  0  0  0
   42.0550   73.5850   59.5860 C   0  0  0  0  0  0  0  0  0  0  0  0
   41.3130   72.5170   60.0950 C   0  0  0  0  0  0  0  0  0  0  0  0
   40.1040   72.8260   60.7360 C   0  0  0  0  0  0  0  0  0  0  0  0
   39.7480   74.1380   60.8120 N   0  0  0  0  0  0  0  0  0  0  0  0
   40.4920   75.1440   60.3080 C   0  0  0  0  0  0  0  0  0  0  0  0
   41.6440   74.8510   59.6980 N   0  0  0  0  0  0  0  0  0  0  0  0
   42.9800   73.2950   59.1010 H   0  0  0  0  0  0  0  0  0  0  0  0
   39.4480   72.1130   61.1630 H   0  0  0  0  0  0  0  0  0  0  0  0
   39.9410   76.5090   60.4870 C   0  0  0  0  0  0  0  0  0  0  0  0
   39.0710   76.8520   59.4840 F   0  0  0  0  0  0  0  0  0  0  0  0
   39.2690   76.5840   61.6920 F   0  0  0  0  0  0  0  0  0  0  0  0
   40.9570   77.4580   60.4370 F   0  0  0  0  0  0  0  0  0  0  0  0
   41.2660   68.2800   57.6230 C   0  0  0  0  0  2  0  0  0  0  0  0
   42.4350   68.3440   56.6480 C   0  0  0  0  0  2  0  0  0  0  0  0
   43.1990   69.1100   56.9770 H   0  0  0  0  0  0  0  0  0  0  0  0
  1  2  1  0  0  0  0
  2  3  1  0  0  0  0
  3 12  1  0  0  0  0
  3  4  2  0  0  0  0
  4  9  1  0  0  0  0
  5  4  1  0  0  0  0
  5 10  1  0  0  0  0
  6  5  2  0  0  0  0
  7  6  1  0  0  0  0
  8  2  2  0  0  0  0
  8  6  1  0  0  0  0
 11 16  2  0  0  0  0
 11 12  1  0  0  0  0
 12 13  2  0  0  0  0
 13 14  1  0  0  0  0
 13 18  1  0  0  0  0
 15 19  1  0  0  0  0
 15 14  2  0  0  0  0
 16 15  1  0  0  0  0
 17 11  1  0  0  0  0
 19 21  1  0  0  0  0
 20 19  1  0  0  0  0
 22 19  1  0  0  0  0
 23  8  1  0  0  0  0
 24 25  1  0  0  0  0
 24 23  1  0  0  0  0
M  END
>  <minimizedAffinity>
-4.96719933

$$$$

 OpenBabel03212520143D

 25 26  0  0  0  0  0  0  0  0999 V2000
   40.2880   75.0110   54.9010 Cl  0  0  0  0  0  0  0  0  0  0  0  0
   38.8730   76.0100   54.5570 C   0  0  0  0  0  0  0  0  0  0  0  0
   37.9920   76.3970   55.5510 C   0  0  0  0  0  0  0  0  0  0  0  0
   36.9330   77.1790   55.1120 C   0  0  0  0  0  0  0  0  0  0  0  0
   36.6860   77.5910   53.8180 C   0  0  0  0  0  0  0  0  0  0  0  0
   37.5850   77.1800   52.8870 C   0  0  0  0  0  0  0  0  0  0  0  0
   37.3990   77.6350   51.1900 Cl  0  0  0  0  0  0  0  0  0  0  0  0
   38.6690   76.3960   53.2540 C   0  0  0  0  0  0  0  0  0  0  0  0
   36.2190   77.4940   55.8830 H   0  0  0  0  0  0  0  0  0  0  0  0
   35.8360   78.1950   53.5860 H   0  0  0  0  0  0  0  0  0  0  0  0
   37.8460   74.7840   57.4920 C   0  0  0  0  0  0  0  0  0  0  0  0
   38.2130   75.9900   56.8900 C   0  0  0  0  0  0  0  0  0  0  0  0
   38.8840   76.9250   57.6920 C   0  0  0  0  0  0  0  0  0  0  0  0
   39.1240   76.5880   58.9890 N   0  0  0  0  0  0  0  0  0  0  0  0
   38.7540   75.4130   59.5350 C   0  0  0  0  0  0  0  0  0  0  0  0
   38.1150   74.5200   58.7730 N   0  0  0  0  0  0  0  0  0  0  0  0
   37.3320   74.0950   56.8330 H   0  0  0  0  0  0  0  0  0  0  0  0
   39.2170   77.8740   57.3610 H   0  0  0  0  0  0  0  0  0  0  0  0
   39.1030   75.2250   60.9650 C   0  0  0  0  0  0  0  0  0  0  0  0
   39.3650   76.4140   61.5950 F   0  0  0  0  0  0  0  0  0  0  0  0
   38.0560   74.6060   61.6200 F   0  0  0  0  0  0  0  0  0  0  0  0
   40.2670   74.4750   61.0900 F   0  0  0  0  0  0  0  0  0  0  0  0
   39.6470   75.9590   52.1990 C   0  0  0  0  0  2  0  0  0  0  0  0
   39.1570   74.6560   51.5800 C   0  0  0  0  0  2  0  0  0  0  0  0
   38.3050   74.2150   52.1790 H   0  0  0  0  0  0  0  0  0  0  0  0
  2  1  1  0  0  0  0
  2  3  1  0  0  0  0
  3 12  1  0  0  0  0
  4  3  2  0  0  0  0
  4  9  1  0  0  0  0
  5  4  1  0  0  0  0
  6  8  1  0  0  0  0
  6  5  2  0  0  0  0
  7  6  1  0  0  0  0
  8  2  2  0  0  0  0
 10  5  1  0  0  0  0
 11 16  1  0  0  0  0
 12 11  2  0  0  0  0
 12 13  1  0  0  0  0
 13 14  2  0  0  0  0
 14 15  1  0  0  0  0
 15 19  1  0  0  0  0
 16 15  2  0  0  0  0
 17 11  1  0  0  0  0
 18 13  1  0  0  0  0
 19 22  1  0  0  0  0
 19 20  1  0  0  0  0
 19 21  1  0  0  0  0
 23  8  1  0  0  0  0
 24 25  1  0  0  0  0
 24 23  1  0  0  0  0
M  END
>  <minimizedAffinity>
-4.96712112

$$$$

 OpenBabel03212520143D

 25 26  0  0  0  0  0  0  0  0999 V2000
   40.7430   72.8560   55.5500 Cl  0  0  0  0  0  0  0  0  0  0  0  0
   39.5890   73.8970   54.7130 C   0  0  0  0  0  0  0  0  0  0  0  0
   38.7690   74.7780   55.3970 C   0  0  0  0  0  0  0  0  0  0  0  0
   37.9200   75.5220   54.5900 C   0  0  0  0  0  0  0  0  0  0  0  0
   37.8210   75.4640   53.2140 C   0  0  0  0  0  0  0  0  0  0  0  0
   38.6500   74.5810   52.6000 C   0  0  0  0  0  0  0  0  0  0  0  0
   38.6350   74.4030   50.8430 Cl  0  0  0  0  0  0  0  0  0  0  0  0
   39.5260   73.8050   53.3430 C   0  0  0  0  0  0  0  0  0  0  0  0
   37.2580   76.2240   55.1110 H   0  0  0  0  0  0  0  0  0  0  0  0
   37.1280   76.0840   52.6860 H   0  0  0  0  0  0  0  0  0  0  0  0
   39.7090   75.6410   57.5780 C   0  0  0  0  0  0  0  0  0  0  0  0
   38.8430   74.8620   56.8100 C   0  0  0  0  0  0  0  0  0  0  0  0
   37.9250   74.0560   57.5000 C   0  0  0  0  0  0  0  0  0  0  0  0
   37.9500   74.0950   58.8610 N   0  0  0  0  0  0  0  0  0  0  0  0
   38.8030   74.8620   59.5700 C   0  0  0  0  0  0  0  0  0  0  0  0
   39.6770   75.6300   58.9140 N   0  0  0  0  0  0  0  0  0  0  0  0
   40.3980   76.2460   57.0000 H   0  0  0  0  0  0  0  0  0  0  0  0
   37.2150   73.4200   57.0390 H   0  0  0  0  0  0  0  0  0  0  0  0
   38.6800   74.7720   61.0450 C   0  0  0  0  0  0  0  0  0  0  0  0
   38.6930   76.0070   61.6420 F   0  0  0  0  0  0  0  0  0  0  0  0
   37.4970   74.1410   61.3750 F   0  0  0  0  0  0  0  0  0  0  0  0
   39.7640   74.0880   61.5860 F   0  0  0  0  0  0  0  0  0  0  0  0
   40.4310   72.8380   52.6330 C   0  0  0  0  0  2  0  0  0  0  0  0
   39.7320   71.4890   52.5300 C   0  0  0  0  0  2  0  0  0  0  0  0
   38.8030   71.4610   53.1750 H   0  0  0  0  0  0  0  0  0  0  0  0
  2  3  1  0  0  0  0
  2  1  1  0  0  0  0
  3 12  1  0  0  0  0
  4  9  1  0  0  0  0
  4  3  2  0  0  0  0
  5  4  1  0  0  0  0
  6  5  2  0  0  0  0
  6  8  1  0  0  0  0
  7  6  1  0  0  0  0
  8  2  2  0  0  0  0
 10  5  1  0  0  0  0
 11 16  1  0  0  0  0
 12 13  1  0  0  0  0
 12 11  2  0  0  0  0
 13 14  2  0  0  0  0
 14 15  1  0  0  0  0
 15 19  1  0  0  0  0
 16 15  2  0  0  0  0
 17 11  1  0  0  0  0
 18 13  1  0  0  0  0
 19 21  1  0  0  0  0
 19 22  1  0  0  0  0
 19 20  1  0  0  0  0
 23  8  1  0  0  0  0
 24 23  1  0  0  0  0
 24 25  1  0  0  0  0
M  END
>  <minimizedAffinity>
-4.77733421

$$$$
