
 OpenBabel03212521013D

 36 39  0  0  1  0  0  0  0  0999 V2000
   41.1670   72.0570   61.1310 C   0  0  0  0  0  0  0  0  0  0  0  0
   41.7170   72.2190   62.3560 C   0  0  0  0  0  0  0  0  0  0  0  0
   42.4790   71.1130   62.7530 C   0  0  0  0  0  0  0  0  0  0  0  0
   42.6500   70.0060   62.0040 N   0  0  0  0  0  0  0  0  0  0  0  0
   42.0490   69.9460   60.7790 C   0  0  0  0  0  0  0  0  0  0  0  0
   41.3030   70.9870   60.3490 N   0  0  0  0  0  0  0  0  0  0  0  0
   41.6110   73.0840   62.9980 H   0  0  0  0  0  0  0  0  0  0  0  0
   42.9870   71.1020   63.7290 H   0  0  0  0  0  0  0  0  0  0  0  0
   39.0660   74.7710   58.9210 C   0  0  0  0  0  0  0  0  0  0  0  0
   38.9270   74.9800   60.2710 C   0  0  0  0  0  0  0  0  0  0  0  0
   39.5720   74.1490   61.1100 C   0  0  0  0  0  0  0  0  0  0  0  0
   40.3480   73.1220   60.5830 C   0  0  0  0  0  0  0  0  0  0  0  0
   40.1650   73.3300   58.7690 S   0  0  0  0  0  0  0  0  0  0  0  0
   38.3160   75.7870   60.6780 H   0  0  0  0  0  0  0  0  0  0  0  0
   39.5910   74.1440   62.1910 H   0  0  0  0  0  0  0  0  0  0  0  0
   36.8150   75.7300   56.1830 C   0  0  0  0  0  0  0  0  0  0  0  0
   37.2070   77.0650   55.9070 C   0  0  0  0  0  0  0  0  0  0  0  0
   38.2430   77.6350   56.6660 C   0  0  0  0  0  0  0  0  0  0  0  0
   38.8180   76.8820   57.6260 N   0  0  0  0  0  0  0  0  0  0  0  0
   38.4180   75.5980   57.8690 C   0  0  0  0  0  0  0  0  0  0  0  0
   37.4350   75.0480   57.1540 N   0  0  0  0  0  0  0  0  0  0  0  0
   36.0140   75.3270   55.5770 H   0  0  0  0  0  0  0  0  0  0  0  0
   36.7710   77.6900   55.1530 H   0  0  0  0  0  0  0  0  0  0  0  0
   38.5960   78.6410   56.5170 H   0  0  0  0  0  0  0  0  0  0  0  0
   42.2550   68.7490   59.9870 C   0  0  0  0  0  0  0  0  0  0  0  0
   43.1510   68.7800   59.1290 O   0  0  0  0  0  0  0  0  0  0  0  0
   41.4160   67.5090   60.1740 C   0  0  1  0  0  0  0  0  0  0  0  0
   42.2450   66.2500   60.2790 C   0  0  0  0  0  0  0  0  0  0  0  0
   41.4800   66.7670   61.4140 C   0  0  2  0  0  0  0  0  0  0  0  0
   40.6580   67.4230   59.3640 H   0  0  0  0  0  0  0  0  0  0  0  0
   41.9040   65.3620   59.7150 H   0  0  0  0  0  0  0  0  0  0  0  0
   43.3660   66.3330   60.2630 H   0  0  0  0  0  0  0  0  0  0  0  0
   42.0980   67.2580   62.2220 H   0  0  0  0  0  0  0  0  0  0  0  0
   40.2950   66.0170   61.9800 C   0  0  0  0  0  2  0  0  0  0  0  0
   39.6530   66.8280   63.0960 C   0  0  0  0  0  2  0  0  0  0  0  0
   40.4770   67.1730   63.7700 H   0  0  0  0  0  0  0  0  0  0  0  0
  1  2  1  0  0  0  0
  2  3  2  0  0  0  0
  2  7  1  0  0  0  0
  3  8  1  0  0  0  0
  4  3  1  0  0  0  0
  5  4  2  0  0  0  0
  6  5  1  0  0  0  0
  6  1  2  0  0  0  0
  9 10  2  0  0  0  0
 10 14  1  0  0  0  0
 10 11  1  0  0  0  0
 11 15  1  0  0  0  0
 12 11  2  0  0  0  0
 12  1  1  0  0  0  0
 13  9  1  0  0  0  0
 13 12  1  0  0  0  0
 16 21  1  0  0  0  0
 17 16  2  0  0  0  0
 17 18  1  0  0  0  0
 18 19  2  0  0  0  0
 19 20  1  0  0  0  0
 20  9  1  0  0  0  0
 21 20  2  0  0  0  0
 22 16  1  0  0  0  0
 23 17  1  0  0  0  0
 24 18  1  0  0  0  0
 25 27  1  0  0  0  0
 25  5  1  0  0  0  0
 26 25  2  0  0  0  0
 27 30  1  6  0  0  0
 27 28  1  0  0  0  0
 27 29  1  0  0  0  0
 28 29  1  0  0  0  0
 29 34  1  0  0  0  0
 29 33  1  1  0  0  0
 31 28  1  0  0  0  0
 32 28  1  0  0  0  0
 34 35  1  0  0  0  0
 35 36  1  0  0  0  0
M  END
>  <minimizedAffinity>
-5.98520994

$$$$

 OpenBabel03212521013D

 36 39  0  0  1  0  0  0  0  0999 V2000
   42.3780   73.5230   60.4850 C   0  0  0  0  0  0  0  0  0  0  0  0
   43.5570   73.7310   59.8580 C   0  0  0  0  0  0  0  0  0  0  0  0
   43.5850   74.9410   59.1530 C   0  0  0  0  0  0  0  0  0  0  0  0
   42.5540   75.8080   59.1010 N   0  0  0  0  0  0  0  0  0  0  0  0
   41.4060   75.4990   59.7730 C   0  0  0  0  0  0  0  0  0  0  0  0
   41.3280   74.3430   60.4690 N   0  0  0  0  0  0  0  0  0  0  0  0
   44.4140   73.0700   59.8650 H   0  0  0  0  0  0  0  0  0  0  0  0
   44.4810   75.2440   58.5910 H   0  0  0  0  0  0  0  0  0  0  0  0
   41.8870   69.7600   61.9910 C   0  0  0  0  0  0  0  0  0  0  0  0
   41.9200   70.7150   62.9770 C   0  0  0  0  0  0  0  0  0  0  0  0
   42.0780   72.0000   62.6090 C   0  0  0  0  0  0  0  0  0  0  0  0
   42.1990   72.3080   61.2590 C   0  0  0  0  0  0  0  0  0  0  0  0
   42.0840   70.6740   60.4310 S   0  0  0  0  0  0  0  0  0  0  0  0
   41.8250   70.4660   64.0350 H   0  0  0  0  0  0  0  0  0  0  0  0
   42.1290   72.8880   63.2230 H   0  0  0  0  0  0  0  0  0  0  0  0
   40.7070   66.6210   63.4870 C   0  0  0  0  0  0  0  0  0  0  0  0
   41.3990   65.6360   62.7360 C   0  0  0  0  0  0  0  0  0  0  0  0
   42.2670   66.0530   61.7140 C   0  0  0  0  0  0  0  0  0  0  0  0
   42.4020   67.3770   61.4930 N   0  0  0  0  0  0  0  0  0  0  0  0
   41.7220   68.3030   62.2340 C   0  0  0  0  0  0  0  0  0  0  0  0
   40.8950   67.9170   63.2070 N   0  0  0  0  0  0  0  0  0  0  0  0
   40.0480   66.2600   64.2650 H   0  0  0  0  0  0  0  0  0  0  0  0
   41.3130   64.5780   62.8860 H   0  0  0  0  0  0  0  0  0  0  0  0
   42.8270   65.3670   61.1010 H   0  0  0  0  0  0  0  0  0  0  0  0
   40.3140   76.4510   59.7100 C   0  0  0  0  0  0  0  0  0  0  0  0
   40.5110   77.5770   60.1930 O   0  0  0  0  0  0  0  0  0  0  0  0
   38.9790   76.1020   59.0990 C   0  0  1  0  0  0  0  0  0  0  0  0
   38.7240   76.8250   57.7970 C   0  0  0  0  0  0  0  0  0  0  0  0
   38.9190   75.3750   57.8500 C   0  0  2  0  0  0  0  0  0  0  0  0
   38.1560   76.2830   59.8250 H   0  0  0  0  0  0  0  0  0  0  0  0
   37.7210   77.2630   57.6410 H   0  0  0  0  0  0  0  0  0  0  0  0
   39.5260   77.4920   57.3780 H   0  0  0  0  0  0  0  0  0  0  0  0
   39.9190   75.0150   57.4700 H   0  0  0  0  0  0  0  0  0  0  0  0
   37.8020   74.4120   57.5180 C   0  0  0  0  0  2  0  0  0  0  0  0
   36.9060   75.0070   56.4430 C   0  0  0  0  0  2  0  0  0  0  0  0
   36.6730   76.0580   56.7500 H   0  0  0  0  0  0  0  0  0  0  0  0
  1 12  1  0  0  0  0
  2  7  1  0  0  0  0
  2  1  2  0  0  0  0
  3  2  1  0  0  0  0
  4  3  2  0  0  0  0
  4  5  1  0  0  0  0
  5  6  2  0  0  0  0
  6  1  1  0  0  0  0
  8  3  1  0  0  0  0
  9 20  1  0  0  0  0
  9 10  2  0  0  0  0
 10 14  1  0  0  0  0
 11 10  1  0  0  0  0
 11 15  1  0  0  0  0
 12 11  2  0  0  0  0
 13 12  1  0  0  0  0
 13  9  1  0  0  0  0
 16 22  1  0  0  0  0
 17 23  1  0  0  0  0
 17 16  2  0  0  0  0
 18 17  1  0  0  0  0
 19 18  2  0  0  0  0
 19 20  1  0  0  0  0
 20 21  2  0  0  0  0
 21 16  1  0  0  0  0
 24 18  1  0  0  0  0
 25  5  1  0  0  0  0
 25 26  2  0  0  0  0
 27 25  1  0  0  0  0
 27 30  1  1  0  0  0
 28 29  1  0  0  0  0
 28 27  1  0  0  0  0
 29 33  1  6  0  0  0
 29 27  1  0  0  0  0
 31 28  1  0  0  0  0
 32 28  1  0  0  0  0
 34 29  1  0  0  0  0
 35 36  1  0  0  0  0
 35 34  1  0  0  0  0
M  END
>  <minimizedAffinity>
-5.95300484

$$$$

 OpenBabel03212521013D

 36 39  0  0  1  0  0  0  0  0999 V2000
   42.2630   73.5670   60.3600 C   0  0  0  0  0  0  0  0  0  0  0  0
   43.4810   74.0630   60.0450 C   0  0  0  0  0  0  0  0  0  0  0  0
   43.4030   75.2200   59.2590 C   0  0  0  0  0  0  0  0  0  0  0  0
   42.2470   75.7830   58.8580 N   0  0  0  0  0  0  0  0  0  0  0  0
   41.0700   75.2000   59.2340 C   0  0  0  0  0  0  0  0  0  0  0  0
   41.0900   74.0820   59.9920 N   0  0  0  0  0  0  0  0  0  0  0  0
   44.4370   73.6510   60.3390 H   0  0  0  0  0  0  0  0  0  0  0  0
   44.3160   75.7340   58.9240 H   0  0  0  0  0  0  0  0  0  0  0  0
   41.9940   69.8320   61.9850 C   0  0  0  0  0  0  0  0  0  0  0  0
   42.0960   70.8100   62.9440 C   0  0  0  0  0  0  0  0  0  0  0  0
   42.1910   72.0890   62.5350 C   0  0  0  0  0  0  0  0  0  0  0  0
   42.1820   72.3670   61.1730 C   0  0  0  0  0  0  0  0  0  0  0  0
   42.0290   70.7130   60.3950 S   0  0  0  0  0  0  0  0  0  0  0  0
   42.1030   70.5840   64.0110 H   0  0  0  0  0  0  0  0  0  0  0  0
   42.2790   72.9920   63.1230 H   0  0  0  0  0  0  0  0  0  0  0  0
   42.6570   66.2230   61.8360 C   0  0  0  0  0  0  0  0  0  0  0  0
   41.7110   65.6920   62.7500 C   0  0  0  0  0  0  0  0  0  0  0  0
   40.8490   66.5760   63.4190 C   0  0  0  0  0  0  0  0  0  0  0  0
   40.9630   67.8960   63.1600 N   0  0  0  0  0  0  0  0  0  0  0  0
   41.8850   68.3780   62.2740 C   0  0  0  0  0  0  0  0  0  0  0  0
   42.7080   67.5460   61.6330 N   0  0  0  0  0  0  0  0  0  0  0  0
   43.3030   65.5100   61.3410 H   0  0  0  0  0  0  0  0  0  0  0  0
   41.5960   64.6520   62.9780 H   0  0  0  0  0  0  0  0  0  0  0  0
   40.1060   66.2510   64.1260 H   0  0  0  0  0  0  0  0  0  0  0  0
   39.8390   75.8300   58.7980 C   0  0  0  0  0  0  0  0  0  0  0  0
   39.3820   76.7400   59.5070 O   0  0  0  0  0  0  0  0  0  0  0  0
   39.1190   75.4000   57.5430 C   0  0  1  0  0  0  0  0  0  0  0  0
   38.2490   74.1830   57.7540 C   0  0  0  0  0  0  0  0  0  0  0  0
   37.6780   75.4990   57.4620 C   0  0  2  0  0  0  0  0  0  0  0  0
   39.8410   75.2370   56.7130 H   0  0  0  0  0  0  0  0  0  0  0  0
   38.2820   73.3890   56.9850 H   0  0  0  0  0  0  0  0  0  0  0  0
   38.1670   73.7440   58.7850 H   0  0  0  0  0  0  0  0  0  0  0  0
   37.1940   76.0140   58.3410 H   0  0  0  0  0  0  0  0  0  0  0  0
   36.9500   75.7780   56.1650 C   0  0  0  0  0  2  0  0  0  0  0  0
   37.1670   77.2250   55.7500 C   0  0  0  0  0  2  0  0  0  0  0  0
   36.9770   77.8600   56.6520 H   0  0  0  0  0  0  0  0  0  0  0  0
  1 12  1  0  0  0  0
  2  7  1  0  0  0  0
  2  1  1  0  0  0  0
  3  2  2  0  0  0  0
  4  5  2  0  0  0  0
  4  3  1  0  0  0  0
  5  6  1  0  0  0  0
  6  1  2  0  0  0  0
  8  3  1  0  0  0  0
  9 20  1  0  0  0  0
  9 10  2  0  0  0  0
 10 14  1  0  0  0  0
 11 10  1  0  0  0  0
 11 15  1  0  0  0  0
 12 11  2  0  0  0  0
 13 12  1  0  0  0  0
 13  9  1  0  0  0  0
 16 17  1  0  0  0  0
 17 23  1  0  0  0  0
 17 18  2  0  0  0  0
 18 24  1  0  0  0  0
 19 18  1  0  0  0  0
 20 19  2  0  0  0  0
 21 16  2  0  0  0  0
 21 20  1  0  0  0  0
 22 16  1  0  0  0  0
 25  5  1  0  0  0  0
 25 26  2  0  0  0  0
 27 30  1  6  0  0  0
 27 28  1  0  0  0  0
 27 25  1  0  0  0  0
 28 32  1  0  0  0  0
 29 27  1  0  0  0  0
 29 28  1  0  0  0  0
 29 33  1  1  0  0  0
 31 28  1  0  0  0  0
 34 29  1  0  0  0  0
 35 34  1  0  0  0  0
 35 36  1  0  0  0  0
M  END
>  <minimizedAffinity>
-5.83083582

$$$$

 OpenBabel03212521013D

 36 39  0  0  1  0  0  0  0  0999 V2000
   40.0630   75.3470   59.6060 C   0  0  0  0  0  0  0  0  0  0  0  0
   40.3480   76.5720   60.1040 C   0  0  0  0  0  0  0  0  0  0  0  0
   39.7890   77.6050   59.3390 C   0  0  0  0  0  0  0  0  0  0  0  0
   39.0500   77.4080   58.2310 N   0  0  0  0  0  0  0  0  0  0  0  0
   38.8210   76.1270   57.8150 C   0  0  0  0  0  0  0  0  0  0  0  0
   39.3380   75.0940   58.5170 N   0  0  0  0  0  0  0  0  0  0  0  0
   40.9360   76.7850   60.9860 H   0  0  0  0  0  0  0  0  0  0  0  0
   39.9390   78.6570   59.6230 H   0  0  0  0  0  0  0  0  0  0  0  0
   41.8760   71.9240   60.8960 C   0  0  0  0  0  0  0  0  0  0  0  0
   41.0650   72.4770   61.8560 C   0  0  0  0  0  0  0  0  0  0  0  0
   40.4080   73.6120   61.5530 C   0  0  0  0  0  0  0  0  0  0  0  0
   40.5740   74.1750   60.2930 C   0  0  0  0  0  0  0  0  0  0  0  0
   41.7420   73.0300   59.4590 S   0  0  0  0  0  0  0  0  0  0  0  0
   40.9390   72.0300   62.8430 H   0  0  0  0  0  0  0  0  0  0  0  0
   39.7310   74.1950   62.1610 H   0  0  0  0  0  0  0  0  0  0  0  0
   44.3650   69.2960   60.2780 C   0  0  0  0  0  0  0  0  0  0  0  0
   44.1390   68.3910   61.3480 C   0  0  0  0  0  0  0  0  0  0  0  0
   43.1340   68.6890   62.2820 C   0  0  0  0  0  0  0  0  0  0  0  0
   42.4270   69.8270   62.1170 N   0  0  0  0  0  0  0  0  0  0  0  0
   42.6680   70.6790   61.0760 C   0  0  0  0  0  0  0  0  0  0  0  0
   43.6210   70.4050   60.1830 N   0  0  0  0  0  0  0  0  0  0  0  0
   45.1480   69.0310   59.5800 H   0  0  0  0  0  0  0  0  0  0  0  0
   44.6820   67.4820   61.5070 H   0  0  0  0  0  0  0  0  0  0  0  0
   42.9030   68.0540   63.1200 H   0  0  0  0  0  0  0  0  0  0  0  0
   38.0150   75.9400   56.6250 C   0  0  0  0  0  0  0  0  0  0  0  0
   36.7820   75.9390   56.7670 O   0  0  0  0  0  0  0  0  0  0  0  0
   38.6300   75.7400   55.2620 C   0  0  1  0  0  0  0  0  0  0  0  0
   38.8560   74.2830   54.9290 C   0  0  0  0  0  0  0  0  0  0  0  0
   37.8740   75.0960   54.2100 C   0  0  2  0  0  0  0  0  0  0  0  0
   39.5730   76.3230   55.1670 H   0  0  0  0  0  0  0  0  0  0  0  0
   39.8210   74.0070   54.4650 H   0  0  0  0  0  0  0  0  0  0  0  0
   38.5190   73.4990   55.6600 H   0  0  0  0  0  0  0  0  0  0  0  0
   36.7960   74.8840   54.4710 H   0  0  0  0  0  0  0  0  0  0  0  0
   38.0480   75.4430   52.7480 C   0  0  0  0  0  2  0  0  0  0  0  0
   37.6530   76.8930   52.5090 C   0  0  0  0  0  2  0  0  0  0  0  0
   36.6670   77.0550   53.0140 H   0  0  0  0  0  0  0  0  0  0  0  0
  1  2  1  0  0  0  0
  1 12  1  0  0  0  0
  2  7  1  0  0  0  0
  3  8  1  0  0  0  0
  3  2  2  0  0  0  0
  4  3  1  0  0  0  0
  5  4  2  0  0  0  0
  5  6  1  0  0  0  0
  6  1  2  0  0  0  0
  9 20  1  0  0  0  0
  9 10  2  0  0  0  0
 10 14  1  0  0  0  0
 11 10  1  0  0  0  0
 11 15  1  0  0  0  0
 12 11  2  0  0  0  0
 13 12  1  0  0  0  0
 13  9  1  0  0  0  0
 16 17  1  0  0  0  0
 17 23  1  0  0  0  0
 17 18  2  0  0  0  0
 18 24  1  0  0  0  0
 19 18  1  0  0  0  0
 20 19  2  0  0  0  0
 21 16  2  0  0  0  0
 21 20  1  0  0  0  0
 22 16  1  0  0  0  0
 25 26  2  0  0  0  0
 25  5  1  0  0  0  0
 27 30  1  6  0  0  0
 27 25  1  0  0  0  0
 28 27  1  0  0  0  0
 28 32  1  0  0  0  0
 29 33  1  1  0  0  0
 29 28  1  0  0  0  0
 29 27  1  0  0  0  0
 31 28  1  0  0  0  0
 34 29  1  0  0  0  0
 35 34  1  0  0  0  0
 35 36  1  0  0  0  0
M  END
>  <minimizedAffinity>
-5.40061665

$$$$

 OpenBabel03212521013D

 36 39  0  0  1  0  0  0  0  0999 V2000
   41.2610   72.0920   61.1020 C   0  0  0  0  0  0  0  0  0  0  0  0
   41.6430   72.2040   62.3950 C   0  0  0  0  0  0  0  0  0  0  0  0
   42.3740   71.0940   62.8370 C   0  0  0  0  0  0  0  0  0  0  0  0
   42.6680   70.0280   62.0680 N   0  0  0  0  0  0  0  0  0  0  0  0
   42.2330   70.0170   60.7720 C   0  0  0  0  0  0  0  0  0  0  0  0
   41.5240   71.0640   60.2960 N   0  0  0  0  0  0  0  0  0  0  0  0
   41.4330   73.0350   63.0560 H   0  0  0  0  0  0  0  0  0  0  0  0
   42.7500   71.0450   63.8700 H   0  0  0  0  0  0  0  0  0  0  0  0
   39.0980   74.6770   58.8000 C   0  0  0  0  0  0  0  0  0  0  0  0
   39.3210   75.1670   60.0630 C   0  0  0  0  0  0  0  0  0  0  0  0
   40.0260   74.4070   60.9210 C   0  0  0  0  0  0  0  0  0  0  0  0
   40.4950   73.1670   60.5010 C   0  0  0  0  0  0  0  0  0  0  0  0
   39.9080   73.0490   58.7660 S   0  0  0  0  0  0  0  0  0  0  0  0
   38.9490   76.1400   60.3860 H   0  0  0  0  0  0  0  0  0  0  0  0
   40.3060   74.6090   61.9460 H   0  0  0  0  0  0  0  0  0  0  0  0
   36.6710   75.3000   56.1150 C   0  0  0  0  0  0  0  0  0  0  0  0
   36.9270   76.6510   55.7670 C   0  0  0  0  0  0  0  0  0  0  0  0
   37.9310   77.3480   56.4600 C   0  0  0  0  0  0  0  0  0  0  0  0
   38.6070   76.6950   57.4280 N   0  0  0  0  0  0  0  0  0  0  0  0
   38.3380   75.3920   57.7400 C   0  0  0  0  0  0  0  0  0  0  0  0
   37.3870   74.7220   57.0880 N   0  0  0  0  0  0  0  0  0  0  0  0
   35.8910   74.7980   55.5580 H   0  0  0  0  0  0  0  0  0  0  0  0
   36.4080   77.1980   55.0060 H   0  0  0  0  0  0  0  0  0  0  0  0
   38.1840   78.3740   56.2550 H   0  0  0  0  0  0  0  0  0  0  0  0
   42.5700   68.8640   59.9610 C   0  0  0  0  0  0  0  0  0  0  0  0
   42.9400   67.8380   60.5530 O   0  0  0  0  0  0  0  0  0  0  0  0
   42.4930   68.8930   58.4540 C   0  0  1  0  0  0  0  0  0  0  0  0
   41.3830   68.0260   57.9070 C   0  0  0  0  0  0  0  0  0  0  0  0
   41.3490   69.4850   57.7960 C   0  0  2  0  0  0  0  0  0  0  0  0
   43.4730   68.6180   58.0050 H   0  0  0  0  0  0  0  0  0  0  0  0
   41.6120   67.3900   57.0320 H   0  0  0  0  0  0  0  0  0  0  0  0
   40.7010   67.4950   58.6260 H   0  0  0  0  0  0  0  0  0  0  0  0
   40.6230   69.9990   58.4910 H   0  0  0  0  0  0  0  0  0  0  0  0
   41.4460   70.1810   56.4560 C   0  0  0  0  0  2  0  0  0  0  0  0
   41.1860   69.1870   55.3350 C   0  0  0  0  0  2  0  0  0  0  0  0
   41.8070   68.2800   55.5470 H   0  0  0  0  0  0  0  0  0  0  0  0
  1  2  1  0  0  0  0
  2  3  2  0  0  0  0
  2  7  1  0  0  0  0
  3  8  1  0  0  0  0
  4  3  1  0  0  0  0
  5  4  2  0  0  0  0
  6  5  1  0  0  0  0
  6  1  2  0  0  0  0
  9 10  2  0  0  0  0
 10 14  1  0  0  0  0
 10 11  1  0  0  0  0
 11 15  1  0  0  0  0
 12 11  2  0  0  0  0
 12  1  1  0  0  0  0
 13  9  1  0  0  0  0
 13 12  1  0  0  0  0
 16 21  1  0  0  0  0
 17 16  2  0  0  0  0
 17 18  1  0  0  0  0
 18 19  2  0  0  0  0
 19 20  1  0  0  0  0
 20  9  1  0  0  0  0
 21 20  2  0  0  0  0
 22 16  1  0  0  0  0
 23 17  1  0  0  0  0
 24 18  1  0  0  0  0
 25 26  2  0  0  0  0
 25  5  1  0  0  0  0
 27 30  1  6  0  0  0
 27 25  1  0  0  0  0
 28 27  1  0  0  0  0
 28 32  1  0  0  0  0
 29 28  1  0  0  0  0
 29 27  1  0  0  0  0
 29 33  1  1  0  0  0
 31 28  1  0  0  0  0
 34 29  1  0  0  0  0
 35 36  1  0  0  0  0
 35 34  1  0  0  0  0
M  END
>  <minimizedAffinity>
-5.32708311

$$$$

 OpenBabel03212521013D

 36 39  0  0  1  0  0  0  0  0999 V2000
   41.5320   72.9640   59.4440 C   0  0  0  0  0  0  0  0  0  0  0  0
   42.5100   73.8810   59.6300 C   0  0  0  0  0  0  0  0  0  0  0  0
   43.5370   73.4100   60.4580 C   0  0  0  0  0  0  0  0  0  0  0  0
   43.5560   72.1820   61.0120 N   0  0  0  0  0  0  0  0  0  0  0  0
   42.5160   71.3330   60.7580 C   0  0  0  0  0  0  0  0  0  0  0  0
   41.5010   71.7390   59.9650 N   0  0  0  0  0  0  0  0  0  0  0  0
   42.5430   74.8780   59.2110 H   0  0  0  0  0  0  0  0  0  0  0  0
   44.4000   74.0470   60.7000 H   0  0  0  0  0  0  0  0  0  0  0  0
   38.7390   74.5530   56.9270 C   0  0  0  0  0  0  0  0  0  0  0  0
   38.3460   73.3430   57.4430 C   0  0  0  0  0  0  0  0  0  0  0  0
   39.1820   72.7150   58.2900 C   0  0  0  0  0  0  0  0  0  0  0  0
   40.3990   73.3090   58.6060 C   0  0  0  0  0  0  0  0  0  0  0  0
   40.3790   74.8730   57.6460 S   0  0  0  0  0  0  0  0  0  0  0  0
   37.3900   72.8830   57.1900 H   0  0  0  0  0  0  0  0  0  0  0  0
   39.0600   71.7680   58.7970 H   0  0  0  0  0  0  0  0  0  0  0  0
   37.0540   75.5920   53.8340 C   0  0  0  0  0  0  0  0  0  0  0  0
   36.4770   76.8380   54.1930 C   0  0  0  0  0  0  0  0  0  0  0  0
   36.6650   77.3160   55.5000 C   0  0  0  0  0  0  0  0  0  0  0  0
   37.3890   76.5650   56.3560 N   0  0  0  0  0  0  0  0  0  0  0  0
   37.9330   75.3690   55.9800 C   0  0  0  0  0  0  0  0  0  0  0  0
   37.7590   74.9050   54.7410 N   0  0  0  0  0  0  0  0  0  0  0  0
   36.8870   75.2590   52.8180 H   0  0  0  0  0  0  0  0  0  0  0  0
   35.8970   77.4570   53.5390 H   0  0  0  0  0  0  0  0  0  0  0  0
   36.2600   78.2500   55.8490 H   0  0  0  0  0  0  0  0  0  0  0  0
   42.5640   70.0140   61.3570 C   0  0  0  0  0  0  0  0  0  0  0  0
   43.1810   69.8960   62.4280 O   0  0  0  0  0  0  0  0  0  0  0  0
   41.9090   68.8160   60.7140 C   0  0  1  0  0  0  0  0  0  0  0  0
   42.8820   67.9690   59.9260 C   0  0  0  0  0  0  0  0  0  0  0  0
   42.2490   67.4790   61.1510 C   0  0  2  0  0  0  0  0  0  0  0  0
   41.0490   69.1310   60.0830 H   0  0  0  0  0  0  0  0  0  0  0  0
   42.5590   67.6090   58.9310 H   0  0  0  0  0  0  0  0  0  0  0  0
   43.9700   68.2510   59.9210 H   0  0  0  0  0  0  0  0  0  0  0  0
   42.9260   67.4400   62.0540 H   0  0  0  0  0  0  0  0  0  0  0  0
   41.2580   66.3360   61.1310 C   0  0  0  0  0  2  0  0  0  0  0  0
   40.7090   66.1020   62.5300 C   0  0  0  0  0  2  0  0  0  0  0  0
   41.5820   66.0790   63.2290 H   0  0  0  0  0  0  0  0  0  0  0  0
  1  2  2  0  0  0  0
  1  6  1  0  0  0  0
  2  3  1  0  0  0  0
  3  8  1  0  0  0  0
  3  4  2  0  0  0  0
  5  4  1  0  0  0  0
  5 25  1  0  0  0  0
  6  5  2  0  0  0  0
  7  2  1  0  0  0  0
  9 10  2  0  0  0  0
  9 13  1  0  0  0  0
 10 11  1  0  0  0  0
 11 12  2  0  0  0  0
 11 15  1  0  0  0  0
 12  1  1  0  0  0  0
 13 12  1  0  0  0  0
 14 10  1  0  0  0  0
 16 17  2  0  0  0  0
 16 21  1  0  0  0  0
 17 18  1  0  0  0  0
 18 24  1  0  0  0  0
 18 19  2  0  0  0  0
 20 19  1  0  0  0  0
 20  9  1  0  0  0  0
 21 20  2  0  0  0  0
 22 16  1  0  0  0  0
 23 17  1  0  0  0  0
 25 26  2  0  0  0  0
 27 30  1  6  0  0  0
 27 29  1  0  0  0  0
 27 25  1  0  0  0  0
 28 27  1  0  0  0  0
 28 29  1  0  0  0  0
 29 33  1  1  0  0  0
 31 28  1  0  0  0  0
 32 28  1  0  0  0  0
 34 29  1  0  0  0  0
 34 35  1  0  0  0  0
 35 36  1  0  0  0  0
M  END
>  <minimizedAffinity>
-5.28687716

$$$$

 OpenBabel03212521013D

 36 39  0  0  1  0  0  0  0  0999 V2000
   43.0360   72.7880   58.7220 C   0  0  0  0  0  0  0  0  0  0  0  0
   44.1260   72.9410   57.9370 C   0  0  0  0  0  0  0  0  0  0  0  0
   44.4160   74.2880   57.6790 C   0  0  0  0  0  0  0  0  0  0  0  0
   43.6940   75.3200   58.1550 N   0  0  0  0  0  0  0  0  0  0  0  0
   42.6090   75.0520   58.9420 C   0  0  0  0  0  0  0  0  0  0  0  0
   42.2870   73.7700   59.2210 N   0  0  0  0  0  0  0  0  0  0  0  0
   44.7390   72.1500   57.5270 H   0  0  0  0  0  0  0  0  0  0  0  0
   45.2760   74.5670   57.0520 H   0  0  0  0  0  0  0  0  0  0  0  0
   42.1020   69.1890   60.4070 C   0  0  0  0  0  0  0  0  0  0  0  0
   41.7490   69.2500   59.0820 C   0  0  0  0  0  0  0  0  0  0  0  0
   42.0050   70.3880   58.4110 C   0  0  0  0  0  0  0  0  0  0  0  0
   42.6110   71.4460   59.0780 C   0  0  0  0  0  0  0  0  0  0  0  0
   42.8450   70.8060   60.7820 S   0  0  0  0  0  0  0  0  0  0  0  0
   41.2730   68.4150   58.5650 H   0  0  0  0  0  0  0  0  0  0  0  0
   41.8070   70.6330   57.3760 H   0  0  0  0  0  0  0  0  0  0  0  0
   41.9950   65.6930   61.5260 C   0  0  0  0  0  0  0  0  0  0  0  0
   41.4840   65.8010   62.8460 C   0  0  0  0  0  0  0  0  0  0  0  0
   41.1810   67.0770   63.3500 C   0  0  0  0  0  0  0  0  0  0  0  0
   41.3920   68.1440   62.5510 N   0  0  0  0  0  0  0  0  0  0  0  0
   41.8850   68.0080   61.2840 C   0  0  0  0  0  0  0  0  0  0  0  0
   42.1760   66.8000   60.7960 N   0  0  0  0  0  0  0  0  0  0  0  0
   42.2150   64.6940   61.1750 H   0  0  0  0  0  0  0  0  0  0  0  0
   41.3060   64.9750   63.5050 H   0  0  0  0  0  0  0  0  0  0  0  0
   40.7920   67.2410   64.3390 H   0  0  0  0  0  0  0  0  0  0  0  0
   41.8540   76.1800   59.4510 C   0  0  0  0  0  0  0  0  0  0  0  0
   42.4210   77.2830   59.4730 O   0  0  0  0  0  0  0  0  0  0  0  0
   40.4370   76.0360   59.9520 C   0  0  1  0  0  0  0  0  0  0  0  0
   39.4390   76.8020   59.1160 C   0  0  0  0  0  0  0  0  0  0  0  0
   39.4510   75.3390   59.1550 C   0  0  2  0  0  0  0  0  0  0  0  0
   40.3690   76.3260   61.0240 H   0  0  0  0  0  0  0  0  0  0  0  0
   38.6630   77.3840   59.6480 H   0  0  0  0  0  0  0  0  0  0  0  0
   39.8000   77.3500   58.2030 H   0  0  0  0  0  0  0  0  0  0  0  0
   39.8640   74.8410   58.2300 H   0  0  0  0  0  0  0  0  0  0  0  0
   38.3130   74.5520   59.7670 C   0  0  0  0  0  2  0  0  0  0  0  0
   38.7580   73.9400   61.0870 C   0  0  0  0  0  2  0  0  0  0  0  0
   39.7500   73.4520   60.9080 H   0  0  0  0  0  0  0  0  0  0  0  0
  1 12  1  0  0  0  0
  1  6  1  0  0  0  0
  2  1  2  0  0  0  0
  3  2  1  0  0  0  0
  3  4  2  0  0  0  0
  4  5  1  0  0  0  0
  5  6  2  0  0  0  0
  5 25  1  0  0  0  0
  7  2  1  0  0  0  0
  8  3  1  0  0  0  0
  9 13  1  0  0  0  0
  9 20  1  0  0  0  0
 10  9  2  0  0  0  0
 11 12  2  0  0  0  0
 11 10  1  0  0  0  0
 12 13  1  0  0  0  0
 14 10  1  0  0  0  0
 15 11  1  0  0  0  0
 16 17  1  0  0  0  0
 17 18  2  0  0  0  0
 17 23  1  0  0  0  0
 18 24  1  0  0  0  0
 19 18  1  0  0  0  0
 20 19  2  0  0  0  0
 21 20  1  0  0  0  0
 21 16  2  0  0  0  0
 22 16  1  0  0  0  0
 25 26  2  0  0  0  0
 25 27  1  0  0  0  0
 27 30  1  1  0  0  0
 28 29  1  0  0  0  0
 28 31  1  0  0  0  0
 28 27  1  0  0  0  0
 29 33  1  6  0  0  0
 29 34  1  0  0  0  0
 29 27  1  0  0  0  0
 32 28  1  0  0  0  0
 34 35  1  0  0  0  0
 36 35  1  0  0  0  0
M  END
>  <minimizedAffinity>
-5.27966833

$$$$

 OpenBabel03212521013D

 36 39  0  0  1  0  0  0  0  0999 V2000
   42.1880   69.8220   59.3660 C   0  0  0  0  0  0  0  0  0  0  0  0
   43.0220   69.0390   60.0870 C   0  0  0  0  0  0  0  0  0  0  0  0
   43.2850   69.5640   61.3600 C   0  0  0  0  0  0  0  0  0  0  0  0
   42.7680   70.7190   61.8210 N   0  0  0  0  0  0  0  0  0  0  0  0
   41.9340   71.4340   61.0080 C   0  0  0  0  0  0  0  0  0  0  0  0
   41.6490   70.9710   59.7710 N   0  0  0  0  0  0  0  0  0  0  0  0
   43.4650   68.1060   59.7660 H   0  0  0  0  0  0  0  0  0  0  0  0
   43.9490   69.0350   62.0590 H   0  0  0  0  0  0  0  0  0  0  0  0
   40.9970   69.3850   55.4860 C   0  0  0  0  0  0  0  0  0  0  0  0
   41.3940   68.1950   56.0460 C   0  0  0  0  0  0  0  0  0  0  0  0
   41.8110   68.2060   57.3250 C   0  0  0  0  0  0  0  0  0  0  0  0
   41.8230   69.4080   58.0240 C   0  0  0  0  0  0  0  0  0  0  0  0
   41.2020   70.6260   56.8000 S   0  0  0  0  0  0  0  0  0  0  0  0
   41.3830   67.2560   55.4910 H   0  0  0  0  0  0  0  0  0  0  0  0
   42.1600   67.3880   57.9400 H   0  0  0  0  0  0  0  0  0  0  0  0
   39.7520   70.9760   52.4200 C   0  0  0  0  0  0  0  0  0  0  0  0
   39.6010   69.8770   51.5350 C   0  0  0  0  0  0  0  0  0  0  0  0
   39.9310   68.5910   51.9930 C   0  0  0  0  0  0  0  0  0  0  0  0
   40.3790   68.4610   53.2590 N   0  0  0  0  0  0  0  0  0  0  0  0
   40.5140   69.5390   54.0880 C   0  0  0  0  0  0  0  0  0  0  0  0
   40.2030   70.7650   53.6620 N   0  0  0  0  0  0  0  0  0  0  0  0
   39.4870   71.9500   52.0300 H   0  0  0  0  0  0  0  0  0  0  0  0
   39.2490   69.9460   50.5250 H   0  0  0  0  0  0  0  0  0  0  0  0
   39.8440   67.7090   51.3830 H   0  0  0  0  0  0  0  0  0  0  0  0
   41.3840   72.6690   61.5300 C   0  0  0  0  0  0  0  0  0  0  0  0
   41.6210   72.9430   62.7170 O   0  0  0  0  0  0  0  0  0  0  0  0
   40.5410   73.5930   60.6840 C   0  0  1  0  0  0  0  0  0  0  0  0
   39.0640   73.4710   60.9770 C   0  0  0  0  0  0  0  0  0  0  0  0
   39.8170   74.6830   61.2980 C   0  0  2  0  0  0  0  0  0  0  0  0
   40.7490   73.4330   59.6020 H   0  0  0  0  0  0  0  0  0  0  0  0
   38.3710   73.4380   60.1150 H   0  0  0  0  0  0  0  0  0  0  0  0
   38.7260   72.7770   61.7940 H   0  0  0  0  0  0  0  0  0  0  0  0
   40.0360   74.8310   62.3960 H   0  0  0  0  0  0  0  0  0  0  0  0
   39.5540   75.9930   60.5880 C   0  0  0  0  0  2  0  0  0  0  0  0
   40.7430   76.3540   59.7100 C   0  0  0  0  0  2  0  0  0  0  0  0
   41.6650   76.2240   60.3320 H   0  0  0  0  0  0  0  0  0  0  0  0
  1  6  2  0  0  0  0
  1  2  1  0  0  0  0
  2  3  2  0  0  0  0
  3  4  1  0  0  0  0
  3  8  1  0  0  0  0
  5 25  1  0  0  0  0
  5  4  2  0  0  0  0
  6  5  1  0  0  0  0
  7  2  1  0  0  0  0
  9 10  2  0  0  0  0
  9 13  1  0  0  0  0
 10 11  1  0  0  0  0
 11 15  1  0  0  0  0
 11 12  2  0  0  0  0
 12  1  1  0  0  0  0
 13 12  1  0  0  0  0
 14 10  1  0  0  0  0
 16 21  1  0  0  0  0
 17 18  1  0  0  0  0
 17 16  2  0  0  0  0
 18 19  2  0  0  0  0
 19 20  1  0  0  0  0
 20  9  1  0  0  0  0
 21 20  2  0  0  0  0
 22 16  1  0  0  0  0
 23 17  1  0  0  0  0
 24 18  1  0  0  0  0
 25 26  2  0  0  0  0
 27 30  1  6  0  0  0
 27 28  1  0  0  0  0
 27 29  1  0  0  0  0
 27 25  1  0  0  0  0
 28 29  1  0  0  0  0
 28 32  1  0  0  0  0
 29 33  1  1  0  0  0
 31 28  1  0  0  0  0
 34 29  1  0  0  0  0
 35 36  1  0  0  0  0
 35 34  1  0  0  0  0
M  END
>  <minimizedAffinity>
-5.1915226

$$$$

 OpenBabel03212521013D

 36 39  0  0  1  0  0  0  0  0999 V2000
   41.6730   71.3490   60.1670 C   0  0  0  0  0  0  0  0  0  0  0  0
   42.3890   71.2410   61.3090 C   0  0  0  0  0  0  0  0  0  0  0  0
   42.0220   72.1980   62.2650 C   0  0  0  0  0  0  0  0  0  0  0  0
   41.0640   73.1260   62.0750 N   0  0  0  0  0  0  0  0  0  0  0  0
   40.4000   73.1460   60.8810 C   0  0  0  0  0  0  0  0  0  0  0  0
   40.7160   72.2440   59.9260 N   0  0  0  0  0  0  0  0  0  0  0  0
   43.1670   70.5190   61.5140 H   0  0  0  0  0  0  0  0  0  0  0  0
   42.5200   72.2330   63.2450 H   0  0  0  0  0  0  0  0  0  0  0  0
   41.8980   69.1360   56.7440 C   0  0  0  0  0  0  0  0  0  0  0  0
   42.7710   68.6940   57.7080 C   0  0  0  0  0  0  0  0  0  0  0  0
   42.7930   69.3430   58.8870 C   0  0  0  0  0  0  0  0  0  0  0  0
   41.9400   70.4230   59.0820 C   0  0  0  0  0  0  0  0  0  0  0  0
   41.0310   70.5490   57.4930 S   0  0  0  0  0  0  0  0  0  0  0  0
   43.4380   67.8460   57.5480 H   0  0  0  0  0  0  0  0  0  0  0  0
   43.3990   69.1540   59.7620 H   0  0  0  0  0  0  0  0  0  0  0  0
   40.4250   68.2280   53.5050 C   0  0  0  0  0  0  0  0  0  0  0  0
   41.4340   67.4230   52.9160 C   0  0  0  0  0  0  0  0  0  0  0  0
   42.6210   67.1970   53.6320 C   0  0  0  0  0  0  0  0  0  0  0  0
   42.7460   67.7600   54.8520 N   0  0  0  0  0  0  0  0  0  0  0  0
   41.7560   68.5310   55.3940 C   0  0  0  0  0  0  0  0  0  0  0  0
   40.6250   68.7510   54.7220 N   0  0  0  0  0  0  0  0  0  0  0  0
   39.5260   68.3790   52.9230 H   0  0  0  0  0  0  0  0  0  0  0  0
   41.3660   66.9630   51.9510 H   0  0  0  0  0  0  0  0  0  0  0  0
   43.4310   66.5990   53.2530 H   0  0  0  0  0  0  0  0  0  0  0  0
   39.3670   74.1470   60.7030 C   0  0  0  0  0  0  0  0  0  0  0  0
   38.2770   73.9470   61.2620 O   0  0  0  0  0  0  0  0  0  0  0  0
   39.5830   75.3840   59.8650 C   0  0  1  0  0  0  0  0  0  0  0  0
   39.8510   76.6160   60.6970 C   0  0  0  0  0  0  0  0  0  0  0  0
   40.8790   76.0260   59.8390 C   0  0  2  0  0  0  0  0  0  0  0  0
   38.7260   75.5450   59.1750 H   0  0  0  0  0  0  0  0  0  0  0  0
   39.3320   77.5500   60.4120 H   0  0  0  0  0  0  0  0  0  0  0  0
   39.9160   76.5150   61.8150 H   0  0  0  0  0  0  0  0  0  0  0  0
   41.6910   75.4650   60.3850 H   0  0  0  0  0  0  0  0  0  0  0  0
   41.4060   76.7510   58.6200 C   0  0  0  0  0  2  0  0  0  0  0  0
   42.0610   75.7590   57.6710 C   0  0  0  0  0  2  0  0  0  0  0  0
   42.7410   75.1140   58.2820 H   0  0  0  0  0  0  0  0  0  0  0  0
  1  2  1  0  0  0  0
  2  7  1  0  0  0  0
  2  3  2  0  0  0  0
  3  8  1  0  0  0  0
  4  3  1  0  0  0  0
  5  4  2  0  0  0  0
  6  1  2  0  0  0  0
  6  5  1  0  0  0  0
  9 13  1  0  0  0  0
  9 10  2  0  0  0  0
 10 11  1  0  0  0  0
 11 12  2  0  0  0  0
 11 15  1  0  0  0  0
 12  1  1  0  0  0  0
 13 12  1  0  0  0  0
 14 10  1  0  0  0  0
 16 21  1  0  0  0  0
 17 16  2  0  0  0  0
 17 18  1  0  0  0  0
 18 19  2  0  0  0  0
 19 20  1  0  0  0  0
 20  9  1  0  0  0  0
 21 20  2  0  0  0  0
 22 16  1  0  0  0  0
 23 17  1  0  0  0  0
 24 18  1  0  0  0  0
 25  5  1  0  0  0  0
 25 26  2  0  0  0  0
 27 30  1  6  0  0  0
 27 28  1  0  0  0  0
 27 25  1  0  0  0  0
 28 32  1  0  0  0  0
 29 27  1  0  0  0  0
 29 33  1  1  0  0  0
 29 28  1  0  0  0  0
 31 28  1  0  0  0  0
 34 29  1  0  0  0  0
 35 36  1  0  0  0  0
 35 34  1  0  0  0  0
M  END
>  <minimizedAffinity>
-5.11458588

$$$$
