
 OpenBabel03212520593D

 36 39  0  0  1  0  0  0  0  0999 V2000
   39.7480   77.3810   59.2160 C   0  0  0  0  0  0  0  0  0  0  0  0
   40.3950   76.2180   58.9740 C   0  0  0  0  0  0  0  0  0  0  0  0
   39.8390   75.5070   57.9020 C   0  0  0  0  0  0  0  0  0  0  0  0
   38.7780   75.9280   57.1870 N   0  0  0  0  0  0  0  0  0  0  0  0
   38.1990   77.1210   57.5160 C   0  0  0  0  0  0  0  0  0  0  0  0
   38.6970   77.8460   58.5420 N   0  0  0  0  0  0  0  0  0  0  0  0
   41.2480   75.8330   59.5170 H   0  0  0  0  0  0  0  0  0  0  0  0
   40.2610   74.5400   57.5910 H   0  0  0  0  0  0  0  0  0  0  0  0
   40.9760   80.3250   61.7620 C   0  0  0  0  0  0  0  0  0  0  0  0
   40.9750   79.0890   62.3590 C   0  0  0  0  0  0  0  0  0  0  0  0
   40.5890   78.0310   61.6220 C   0  0  0  0  0  0  0  0  0  0  0  0
   40.2110   78.2290   60.2990 C   0  0  0  0  0  0  0  0  0  0  0  0
   40.4080   80.0380   60.0590 S   0  0  0  0  0  0  0  0  0  0  0  0
   41.2730   78.9410   63.3980 H   0  0  0  0  0  0  0  0  0  0  0  0
   40.5190   76.9890   61.9020 H   0  0  0  0  0  0  0  0  0  0  0  0
   43.0580   83.1330   62.8900 C   0  0  0  0  0  0  0  0  0  0  0  0
   42.1590   83.8920   63.6830 C   0  0  0  0  0  0  0  0  0  0  0  0
   40.8370   83.4390   63.8250 C   0  0  0  0  0  0  0  0  0  0  0  0
   40.4830   82.2980   63.1970 N   0  0  0  0  0  0  0  0  0  0  0  0
   41.3720   81.5880   62.4400 C   0  0  0  0  0  0  0  0  0  0  0  0
   42.6300   82.0100   62.2990 N   0  0  0  0  0  0  0  0  0  0  0  0
   44.0670   83.5140   62.8050 H   0  0  0  0  0  0  0  0  0  0  0  0
   42.4080   84.8010   64.1920 H   0  0  0  0  0  0  0  0  0  0  0  0
   40.0970   83.9590   64.4080 H   0  0  0  0  0  0  0  0  0  0  0  0
   37.0650   77.5570   56.7250 C   0  0  0  0  0  0  0  0  0  0  0  0
   35.9430   77.1450   57.0610 O   0  0  0  0  0  0  0  0  0  0  0  0
   37.2210   78.4650   55.5300 C   0  0  1  0  0  0  0  0  0  0  0  0
   37.3090   79.9240   55.9100 C   0  0  0  0  0  0  0  0  0  0  0  0
   38.4480   79.2060   55.3360 C   0  0  2  0  0  0  0  0  0  0  0  0
   36.4040   78.2910   54.7950 H   0  0  0  0  0  0  0  0  0  0  0  0
   36.7250   80.6470   55.3090 H   0  0  0  0  0  0  0  0  0  0  0  0
   37.3040   80.2060   56.9980 H   0  0  0  0  0  0  0  0  0  0  0  0
   39.2690   78.9530   56.0670 H   0  0  0  0  0  0  0  0  0  0  0  0
   38.9900   79.5450   53.9640 C   0  0  0  0  0  2  0  0  0  0  0  0
   37.8410   79.8110   53.0040 C   0  0  0  0  0  2  0  0  0  0  0  0
   37.1050   78.9770   53.1300 H   0  0  0  0  0  0  0  0  0  0  0  0
  1 12  1  0  0  0  0
  2  1  1  0  0  0  0
  2  7  1  0  0  0  0
  3  2  2  0  0  0  0
  4  5  2  0  0  0  0
  4  3  1  0  0  0  0
  5  6  1  0  0  0  0
  6  1  2  0  0  0  0
  8  3  1  0  0  0  0
  9 10  2  0  0  0  0
  9 20  1  0  0  0  0
 10 14  1  0  0  0  0
 11 15  1  0  0  0  0
 11 10  1  0  0  0  0
 12 11  2  0  0  0  0
 13 12  1  0  0  0  0
 13  9  1  0  0  0  0
 16 17  1  0  0  0  0
 17 18  2  0  0  0  0
 17 23  1  0  0  0  0
 18 24  1  0  0  0  0
 19 18  1  0  0  0  0
 20 19  2  0  0  0  0
 21 20  1  0  0  0  0
 21 16  2  0  0  0  0
 22 16  1  0  0  0  0
 25 26  2  0  0  0  0
 25  5  1  0  0  0  0
 27 30  1  6  0  0  0
 27 28  1  0  0  0  0
 27 25  1  0  0  0  0
 28 32  1  0  0  0  0
 29 27  1  0  0  0  0
 29 28  1  0  0  0  0
 29 33  1  1  0  0  0
 31 28  1  0  0  0  0
 34 29  1  0  0  0  0
 35 36  1  0  0  0  0
 35 34  1  0  0  0  0
M  END
>  <minimizedAffinity>
-5.98453045

>  <minimizedRMSD>
0.497506946

$$$$
