
 OpenBabel03212520583D

 36 39  0  0  1  0  0  0  0  0999 V2000
   39.7420   77.3730   59.2200 C   0  0  0  0  0  0  0  0  0  0  0  0
   40.3760   76.2010   58.9900 C   0  0  0  0  0  0  0  0  0  0  0  0
   39.8190   75.4900   57.9190 C   0  0  0  0  0  0  0  0  0  0  0  0
   38.7680   75.9200   57.1930 N   0  0  0  0  0  0  0  0  0  0  0  0
   38.2020   77.1220   57.5100 C   0  0  0  0  0  0  0  0  0  0  0  0
   38.7020   77.8470   58.5350 N   0  0  0  0  0  0  0  0  0  0  0  0
   41.2200   75.8090   59.5410 H   0  0  0  0  0  0  0  0  0  0  0  0
   40.2310   74.5160   57.6160 H   0  0  0  0  0  0  0  0  0  0  0  0
   40.9750   80.3200   61.7610 C   0  0  0  0  0  0  0  0  0  0  0  0
   40.9790   79.0840   62.3570 C   0  0  0  0  0  0  0  0  0  0  0  0
   40.5920   78.0250   61.6220 C   0  0  0  0  0  0  0  0  0  0  0  0
   40.2070   78.2220   60.3010 C   0  0  0  0  0  0  0  0  0  0  0  0
   40.4000   80.0310   60.0600 S   0  0  0  0  0  0  0  0  0  0  0  0
   41.2820   78.9370   63.3950 H   0  0  0  0  0  0  0  0  0  0  0  0
   40.5260   76.9830   61.9020 H   0  0  0  0  0  0  0  0  0  0  0  0
   43.0580   83.1280   62.8860 C   0  0  0  0  0  0  0  0  0  0  0  0
   42.1580   83.8890   63.6760 C   0  0  0  0  0  0  0  0  0  0  0  0
   40.8360   83.4380   63.8180 C   0  0  0  0  0  0  0  0  0  0  0  0
   40.4820   82.2960   63.1910 N   0  0  0  0  0  0  0  0  0  0  0  0
   41.3710   81.5840   62.4370 C   0  0  0  0  0  0  0  0  0  0  0  0
   42.6300   82.0050   62.2960 N   0  0  0  0  0  0  0  0  0  0  0  0
   44.0670   83.5080   62.8010 H   0  0  0  0  0  0  0  0  0  0  0  0
   42.4070   84.7990   64.1850 H   0  0  0  0  0  0  0  0  0  0  0  0
   40.0960   83.9590   64.3990 H   0  0  0  0  0  0  0  0  0  0  0  0
   37.0790   77.5670   56.7090 C   0  0  0  0  0  0  0  0  0  0  0  0
   35.9500   77.1660   57.0360 O   0  0  0  0  0  0  0  0  0  0  0  0
   37.2540   78.4720   55.5130 C   0  0  1  0  0  0  0  0  0  0  0  0
   37.3090   79.9340   55.8880 C   0  0  0  0  0  0  0  0  0  0  0  0
   38.4740   79.2310   55.3490 C   0  0  2  0  0  0  0  0  0  0  0  0
   36.4600   78.2810   54.7580 H   0  0  0  0  0  0  0  0  0  0  0  0
   36.7310   80.6450   55.2680 H   0  0  0  0  0  0  0  0  0  0  0  0
   37.2690   80.2200   56.9740 H   0  0  0  0  0  0  0  0  0  0  0  0
   39.2780   78.9940   56.1050 H   0  0  0  0  0  0  0  0  0  0  0  0
   39.0490   79.5710   53.9920 C   0  0  0  0  0  2  0  0  0  0  0  0
   40.2100   78.6420   53.6720 C   0  0  0  0  0  2  0  0  0  0  0  0
   40.8710   78.6160   54.5750 H   0  0  0  0  0  0  0  0  0  0  0  0
  1 12  1  0  0  0  0
  2  1  1  0  0  0  0
  2  7  1  0  0  0  0
  3  2  2  0  0  0  0
  4  5  2  0  0  0  0
  4  3  1  0  0  0  0
  5  6  1  0  0  0  0
  6  1  2  0  0  0  0
  8  3  1  0  0  0  0
  9 10  2  0  0  0  0
  9 20  1  0  0  0  0
 10 14  1  0  0  0  0
 11 15  1  0  0  0  0
 11 10  1  0  0  0  0
 12 11  2  0  0  0  0
 13 12  1  0  0  0  0
 13  9  1  0  0  0  0
 16 17  1  0  0  0  0
 17 18  2  0  0  0  0
 17 23  1  0  0  0  0
 18 24  1  0  0  0  0
 19 18  1  0  0  0  0
 20 19  2  0  0  0  0
 21 20  1  0  0  0  0
 21 16  2  0  0  0  0
 22 16  1  0  0  0  0
 25 26  2  0  0  0  0
 25  5  1  0  0  0  0
 27 30  1  6  0  0  0
 27 28  1  0  0  0  0
 27 25  1  0  0  0  0
 28 32  1  0  0  0  0
 29 27  1  0  0  0  0
 29 28  1  0  0  0  0
 29 33  1  1  0  0  0
 31 28  1  0  0  0  0
 34 29  1  0  0  0  0
 35 34  1  0  0  0  0
 35 36  1  0  0  0  0
M  END
>  <minimizedAffinity>
-5.85784435

>  <minimizedRMSD>
0.0344926454

$$$$
