
 OpenBabel03212520583D

 36 39  0  0  1  0  0  0  0  0999 V2000
   39.7450   77.3810   59.2150 C   0  0  0  0  0  0  0  0  0  0  0  0
   40.3880   76.2140   58.9790 C   0  0  0  0  0  0  0  0  0  0  0  0
   39.8340   75.5030   57.9060 C   0  0  0  0  0  0  0  0  0  0  0  0
   38.7780   75.9270   57.1850 N   0  0  0  0  0  0  0  0  0  0  0  0
   38.2030   77.1240   57.5080 C   0  0  0  0  0  0  0  0  0  0  0  0
   38.6990   77.8480   58.5350 N   0  0  0  0  0  0  0  0  0  0  0  0
   41.2370   75.8270   59.5260 H   0  0  0  0  0  0  0  0  0  0  0  0
   40.2530   74.5340   57.5980 H   0  0  0  0  0  0  0  0  0  0  0  0
   40.9730   80.3250   61.7610 C   0  0  0  0  0  0  0  0  0  0  0  0
   40.9670   79.0890   62.3600 C   0  0  0  0  0  0  0  0  0  0  0  0
   40.5800   78.0320   61.6230 C   0  0  0  0  0  0  0  0  0  0  0  0
   40.2060   78.2290   60.2980 C   0  0  0  0  0  0  0  0  0  0  0  0
   40.4110   80.0360   60.0560 S   0  0  0  0  0  0  0  0  0  0  0  0
   41.2600   78.9420   63.4000 H   0  0  0  0  0  0  0  0  0  0  0  0
   40.5060   76.9900   61.9040 H   0  0  0  0  0  0  0  0  0  0  0  0
   43.0580   83.1320   62.8860 C   0  0  0  0  0  0  0  0  0  0  0  0
   42.1600   83.8910   63.6800 C   0  0  0  0  0  0  0  0  0  0  0  0
   40.8380   83.4390   63.8240 C   0  0  0  0  0  0  0  0  0  0  0  0
   40.4830   82.2980   63.1970 N   0  0  0  0  0  0  0  0  0  0  0  0
   41.3710   81.5880   62.4390 C   0  0  0  0  0  0  0  0  0  0  0  0
   42.6290   82.0090   62.2960 N   0  0  0  0  0  0  0  0  0  0  0  0
   44.0660   83.5120   62.8000 H   0  0  0  0  0  0  0  0  0  0  0  0
   42.4100   84.8000   64.1900 H   0  0  0  0  0  0  0  0  0  0  0  0
   40.0990   83.9590   64.4080 H   0  0  0  0  0  0  0  0  0  0  0  0
   37.0740   77.5630   56.7120 C   0  0  0  0  0  0  0  0  0  0  0  0
   35.9500   77.1540   57.0410 O   0  0  0  0  0  0  0  0  0  0  0  0
   37.2400   78.4720   55.5180 C   0  0  1  0  0  0  0  0  0  0  0  0
   37.3040   79.9330   55.8980 C   0  0  0  0  0  0  0  0  0  0  0  0
   38.4610   79.2280   55.3430 C   0  0  2  0  0  0  0  0  0  0  0  0
   36.4370   78.2870   54.7700 H   0  0  0  0  0  0  0  0  0  0  0  0
   36.7220   80.6480   55.2870 H   0  0  0  0  0  0  0  0  0  0  0  0
   37.2780   80.2150   56.9860 H   0  0  0  0  0  0  0  0  0  0  0  0
   39.2730   78.9840   56.0890 H   0  0  0  0  0  0  0  0  0  0  0  0
   39.0210   79.5710   53.9810 C   0  0  0  0  0  2  0  0  0  0  0  0
   40.4120   78.9750   53.8270 C   0  0  0  0  0  2  0  0  0  0  0  0
   40.9850   79.2290   54.7540 H   0  0  0  0  0  0  0  0  0  0  0  0
  1 12  1  0  0  0  0
  2  1  1  0  0  0  0
  2  7  1  0  0  0  0
  3  2  2  0  0  0  0
  4  5  2  0  0  0  0
  4  3  1  0  0  0  0
  5  6  1  0  0  0  0
  6  1  2  0  0  0  0
  8  3  1  0  0  0  0
  9 10  2  0  0  0  0
  9 20  1  0  0  0  0
 10 14  1  0  0  0  0
 11 15  1  0  0  0  0
 11 10  1  0  0  0  0
 12 11  2  0  0  0  0
 13 12  1  0  0  0  0
 13  9  1  0  0  0  0
 16 17  1  0  0  0  0
 17 18  2  0  0  0  0
 17 23  1  0  0  0  0
 18 24  1  0  0  0  0
 19 18  1  0  0  0  0
 20 19  2  0  0  0  0
 21 20  1  0  0  0  0
 21 16  2  0  0  0  0
 22 16  1  0  0  0  0
 25 26  2  0  0  0  0
 25  5  1  0  0  0  0
 27 30  1  6  0  0  0
 27 28  1  0  0  0  0
 27 25  1  0  0  0  0
 28 32  1  0  0  0  0
 29 27  1  0  0  0  0
 29 28  1  0  0  0  0
 29 33  1  1  0  0  0
 31 28  1  0  0  0  0
 34 29  1  0  0  0  0
 35 34  1  0  0  0  0
 35 36  1  0  0  0  0
M  END
>  <minimizedAffinity>
-5.85823584

>  <minimizedRMSD>
0.0361616015

$$$$
