
 OpenBabel03212520123D

 25 26  0  0  0  0  0  0  0  0999 V2000
   40.3160   82.4810   58.4210 Cl  0  0  0  0  0  0  0  0  0  0  0  0
   40.1960   80.7730   58.8510 C   0  0  0  0  0  0  0  0  0  0  0  0
   40.3900   80.3300   60.1470 C   0  0  0  0  0  0  0  0  0  0  0  0
   40.2610   78.9580   60.3140 C   0  0  0  0  0  0  0  0  0  0  0  0
   39.9690   78.0270   59.3370 C   0  0  0  0  0  0  0  0  0  0  0  0
   39.7900   78.5220   58.0860 C   0  0  0  0  0  0  0  0  0  0  0  0
   39.4070   77.4480   56.7370 Cl  0  0  0  0  0  0  0  0  0  0  0  0
   39.9030   79.8830   57.8450 C   0  0  0  0  0  0  0  0  0  0  0  0
   40.4150   78.5830   61.3340 H   0  0  0  0  0  0  0  0  0  0  0  0
   39.8930   76.9870   59.5740 H   0  0  0  0  0  0  0  0  0  0  0  0
   41.9370   81.5150   61.7560 C   0  0  0  0  0  0  0  0  0  0  0  0
   40.6940   81.2570   61.1740 C   0  0  0  0  0  0  0  0  0  0  0  0
   39.6010   81.9960   61.6490 C   0  0  0  0  0  0  0  0  0  0  0  0
   39.8330   82.9040   62.6370 N   0  0  0  0  0  0  0  0  0  0  0  0
   41.0490   83.1250   63.1760 C   0  0  0  0  0  0  0  0  0  0  0  0
   42.0920   82.4230   62.7240 N   0  0  0  0  0  0  0  0  0  0  0  0
   42.7490   80.9200   61.3570 H   0  0  0  0  0  0  0  0  0  0  0  0
   38.6070   81.8990   61.2940 H   0  0  0  0  0  0  0  0  0  0  0  0
   41.1070   84.1540   64.2420 C   0  0  0  0  0  0  0  0  0  0  0  0
   40.9400   85.4230   63.7480 F   0  0  0  0  0  0  0  0  0  0  0  0
   40.1140   83.9150   65.1720 F   0  0  0  0  0  0  0  0  0  0  0  0
   42.3560   84.1560   64.8530 F   0  0  0  0  0  0  0  0  0  0  0  0
   39.6980   80.3990   56.4480 C   0  0  0  0  0  0  0  0  0  0  0  0
   38.2040   80.4710   56.1620 C   0  0  0  0  0  0  0  0  0  0  0  0
   37.6090   79.9380   56.9630 H   0  0  0  0  0  0  0  0  0  0  0  0
  1  2  1  0  0  0  0
  2  3  1  0  0  0  0
  3  4  2  0  0  0  0
  3 12  1  0  0  0  0
  4  9  1  0  0  0  0
  5 10  1  0  0  0  0
  5  4  1  0  0  0  0
  6  5  2  0  0  0  0
  7  6  1  0  0  0  0
  8  6  1  0  0  0  0
  8  2  2  0  0  0  0
 11 16  1  0  0  0  0
 12 13  1  0  0  0  0
 12 11  2  0  0  0  0
 13 14  2  0  0  0  0
 14 15  1  0  0  0  0
 15 19  1  0  0  0  0
 16 15  2  0  0  0  0
 17 11  1  0  0  0  0
 18 13  1  0  0  0  0
 19 22  1  0  0  0  0
 19 21  1  0  0  0  0
 20 19  1  0  0  0  0
 23  8  1  0  0  0  0
 24 23  1  0  0  0  0
 24 25  1  0  0  0  0
M  END
>  <minimizedAffinity>
-5.76065063

>  <minimizedRMSD>
1.97814214

$$$$
