
 OpenBabel03212520593D

 36 39  0  0  1  0  0  0  0  0999 V2000
   39.7450   77.3580   59.2350 C   0  0  0  0  0  0  0  0  0  0  0  0
   40.3670   76.1760   59.0230 C   0  0  0  0  0  0  0  0  0  0  0  0
   39.8140   75.4620   57.9520 C   0  0  0  0  0  0  0  0  0  0  0  0
   38.7780   75.8980   57.2090 N   0  0  0  0  0  0  0  0  0  0  0  0
   38.2230   77.1100   57.5090 C   0  0  0  0  0  0  0  0  0  0  0  0
   38.7200   77.8380   58.5330 N   0  0  0  0  0  0  0  0  0  0  0  0
   41.1990   75.7780   59.5880 H   0  0  0  0  0  0  0  0  0  0  0  0
   40.2170   74.4800   57.6630 H   0  0  0  0  0  0  0  0  0  0  0  0
   40.9760   80.3140   61.7670 C   0  0  0  0  0  0  0  0  0  0  0  0
   40.9740   79.0800   62.3690 C   0  0  0  0  0  0  0  0  0  0  0  0
   40.5870   78.0190   61.6370 C   0  0  0  0  0  0  0  0  0  0  0  0
   40.2090   78.2110   60.3130 C   0  0  0  0  0  0  0  0  0  0  0  0
   40.4070   80.0180   60.0650 S   0  0  0  0  0  0  0  0  0  0  0  0
   41.2720   78.9370   63.4090 H   0  0  0  0  0  0  0  0  0  0  0  0
   40.5170   76.9780   61.9220 H   0  0  0  0  0  0  0  0  0  0  0  0
   43.0590   83.1260   62.8800 C   0  0  0  0  0  0  0  0  0  0  0  0
   42.1610   83.8890   63.6700 C   0  0  0  0  0  0  0  0  0  0  0  0
   40.8390   83.4370   63.8150 C   0  0  0  0  0  0  0  0  0  0  0  0
   40.4840   82.2930   63.1930 N   0  0  0  0  0  0  0  0  0  0  0  0
   41.3730   81.5800   62.4380 C   0  0  0  0  0  0  0  0  0  0  0  0
   42.6300   82.0000   62.2940 N   0  0  0  0  0  0  0  0  0  0  0  0
   44.0680   83.5060   62.7930 H   0  0  0  0  0  0  0  0  0  0  0  0
   42.4100   84.8000   64.1750 H   0  0  0  0  0  0  0  0  0  0  0  0
   40.0990   83.9600   64.3960 H   0  0  0  0  0  0  0  0  0  0  0  0
   37.1160   77.5630   56.6900 C   0  0  0  0  0  0  0  0  0  0  0  0
   35.9840   77.1450   56.9810 O   0  0  0  0  0  0  0  0  0  0  0  0
   37.3120   78.4930   55.5170 C   0  0  1  0  0  0  0  0  0  0  0  0
   37.2980   79.9500   55.9170 C   0  0  0  0  0  0  0  0  0  0  0  0
   38.5100   79.2970   55.4200 C   0  0  2  0  0  0  0  0  0  0  0  0
   36.5600   78.2880   54.7240 H   0  0  0  0  0  0  0  0  0  0  0  0
   36.7230   80.6500   55.2820 H   0  0  0  0  0  0  0  0  0  0  0  0
   37.2000   80.2160   57.0050 H   0  0  0  0  0  0  0  0  0  0  0  0
   39.2880   79.0750   56.2070 H   0  0  0  0  0  0  0  0  0  0  0  0
   39.1320   79.6800   54.0950 C   0  0  0  0  0  2  0  0  0  0  0  0
   40.5670   80.1380   54.3090 C   0  0  0  0  0  2  0  0  0  0  0  0
   40.5600   80.8650   55.1600 H   0  0  0  0  0  0  0  0  0  0  0  0
  1 12  1  0  0  0  0
  2  1  1  0  0  0  0
  2  7  1  0  0  0  0
  3  2  2  0  0  0  0
  4  5  2  0  0  0  0
  4  3  1  0  0  0  0
  5  6  1  0  0  0  0
  6  1  2  0  0  0  0
  8  3  1  0  0  0  0
  9 10  2  0  0  0  0
  9 20  1  0  0  0  0
 10 14  1  0  0  0  0
 11 15  1  0  0  0  0
 11 10  1  0  0  0  0
 12 11  2  0  0  0  0
 13 12  1  0  0  0  0
 13  9  1  0  0  0  0
 16 17  1  0  0  0  0
 17 18  2  0  0  0  0
 17 23  1  0  0  0  0
 18 24  1  0  0  0  0
 19 18  1  0  0  0  0
 20 19  2  0  0  0  0
 21 20  1  0  0  0  0
 21 16  2  0  0  0  0
 22 16  1  0  0  0  0
 25 26  2  0  0  0  0
 25  5  1  0  0  0  0
 27 30  1  6  0  0  0
 27 28  1  0  0  0  0
 27 25  1  0  0  0  0
 28 32  1  0  0  0  0
 29 27  1  0  0  0  0
 29 28  1  0  0  0  0
 29 33  1  1  0  0  0
 31 28  1  0  0  0  0
 34 35  1  0  0  0  0
 34 29  1  0  0  0  0
 35 36  1  0  0  0  0
M  END
>  <minimizedAffinity>
-5.90248203

>  <minimizedRMSD>
0.149126709

$$$$
