
 OpenBabel03212520583D

 36 39  0  0  1  0  0  0  0  0999 V2000
   39.7450   77.3780   59.2180 C   0  0  0  0  0  0  0  0  0  0  0  0
   40.3830   76.2070   58.9860 C   0  0  0  0  0  0  0  0  0  0  0  0
   39.8280   75.4970   57.9140 C   0  0  0  0  0  0  0  0  0  0  0  0
   38.7760   75.9240   57.1880 N   0  0  0  0  0  0  0  0  0  0  0  0
   38.2070   77.1250   57.5070 C   0  0  0  0  0  0  0  0  0  0  0  0
   38.7040   77.8490   58.5330 N   0  0  0  0  0  0  0  0  0  0  0  0
   41.2280   75.8170   59.5370 H   0  0  0  0  0  0  0  0  0  0  0  0
   40.2430   74.5240   57.6100 H   0  0  0  0  0  0  0  0  0  0  0  0
   40.9750   80.3230   61.7620 C   0  0  0  0  0  0  0  0  0  0  0  0
   40.9730   79.0870   62.3600 C   0  0  0  0  0  0  0  0  0  0  0  0
   40.5860   78.0290   61.6230 C   0  0  0  0  0  0  0  0  0  0  0  0
   40.2080   78.2260   60.3000 C   0  0  0  0  0  0  0  0  0  0  0  0
   40.4070   80.0350   60.0590 S   0  0  0  0  0  0  0  0  0  0  0  0
   41.2700   78.9400   63.3990 H   0  0  0  0  0  0  0  0  0  0  0  0
   40.5160   76.9870   61.9040 H   0  0  0  0  0  0  0  0  0  0  0  0
   43.0580   83.1300   62.8890 C   0  0  0  0  0  0  0  0  0  0  0  0
   42.1590   83.8910   63.6800 C   0  0  0  0  0  0  0  0  0  0  0  0
   40.8360   83.4390   63.8220 C   0  0  0  0  0  0  0  0  0  0  0  0
   40.4820   82.2980   63.1950 N   0  0  0  0  0  0  0  0  0  0  0  0
   41.3710   81.5860   62.4390 C   0  0  0  0  0  0  0  0  0  0  0  0
   42.6290   82.0070   62.2990 N   0  0  0  0  0  0  0  0  0  0  0  0
   44.0670   83.5100   62.8050 H   0  0  0  0  0  0  0  0  0  0  0  0
   42.4080   84.8000   64.1890 H   0  0  0  0  0  0  0  0  0  0  0  0
   40.0960   83.9600   64.4040 H   0  0  0  0  0  0  0  0  0  0  0  0
   37.0820   77.5680   56.7060 C   0  0  0  0  0  0  0  0  0  0  0  0
   35.9550   77.1670   57.0350 O   0  0  0  0  0  0  0  0  0  0  0  0
   37.2570   78.4700   55.5080 C   0  0  1  0  0  0  0  0  0  0  0  0
   37.3160   79.9330   55.8810 C   0  0  0  0  0  0  0  0  0  0  0  0
   38.4780   79.2260   55.3400 C   0  0  2  0  0  0  0  0  0  0  0  0
   36.4600   78.2800   54.7560 H   0  0  0  0  0  0  0  0  0  0  0  0
   36.7380   80.6440   55.2610 H   0  0  0  0  0  0  0  0  0  0  0  0
   37.2800   80.2210   56.9670 H   0  0  0  0  0  0  0  0  0  0  0  0
   39.2840   78.9890   56.0930 H   0  0  0  0  0  0  0  0  0  0  0  0
   39.0490   79.5630   53.9800 C   0  0  0  0  0  2  0  0  0  0  0  0
   39.9780   78.4510   53.5180 C   0  0  0  0  0  2  0  0  0  0  0  0
   40.6600   78.2120   54.3730 H   0  0  0  0  0  0  0  0  0  0  0  0
  1 12  1  0  0  0  0
  2  1  1  0  0  0  0
  2  7  1  0  0  0  0
  3  2  2  0  0  0  0
  4  5  2  0  0  0  0
  4  3  1  0  0  0  0
  5  6  1  0  0  0  0
  6  1  2  0  0  0  0
  8  3  1  0  0  0  0
  9 10  2  0  0  0  0
  9 20  1  0  0  0  0
 10 14  1  0  0  0  0
 11 15  1  0  0  0  0
 11 10  1  0  0  0  0
 12 11  2  0  0  0  0
 13 12  1  0  0  0  0
 13  9  1  0  0  0  0
 16 17  1  0  0  0  0
 17 18  2  0  0  0  0
 17 23  1  0  0  0  0
 18 24  1  0  0  0  0
 19 18  1  0  0  0  0
 20 19  2  0  0  0  0
 21 20  1  0  0  0  0
 21 16  2  0  0  0  0
 22 16  1  0  0  0  0
 25 26  2  0  0  0  0
 25  5  1  0  0  0  0
 27 30  1  6  0  0  0
 27 28  1  0  0  0  0
 27 25  1  0  0  0  0
 28 32  1  0  0  0  0
 29 27  1  0  0  0  0
 29 28  1  0  0  0  0
 29 33  1  1  0  0  0
 31 28  1  0  0  0  0
 34 29  1  0  0  0  0
 35 34  1  0  0  0  0
 35 36  1  0  0  0  0
M  END
>  <minimizedAffinity>
-5.85948324

>  <minimizedRMSD>
0.0273139551

$$$$
