
 OpenBabel03212520583D

 36 39  0  0  1  0  0  0  0  0999 V2000
   39.7280   77.2880   59.2100 C   0  0  0  0  0  0  0  0  0  0  0  0
   40.3890   76.1360   58.9550 C   0  0  0  0  0  0  0  0  0  0  0  0
   39.8240   75.4170   57.8940 C   0  0  0  0  0  0  0  0  0  0  0  0
   38.7430   75.8200   57.1990 N   0  0  0  0  0  0  0  0  0  0  0  0
   38.1510   77.0040   57.5400 C   0  0  0  0  0  0  0  0  0  0  0  0
   38.6570   77.7360   58.5570 N   0  0  0  0  0  0  0  0  0  0  0  0
   41.2590   75.7650   59.4810 H   0  0  0  0  0  0  0  0  0  0  0  0
   40.2560   74.4570   57.5740 H   0  0  0  0  0  0  0  0  0  0  0  0
   40.9760   80.2490   61.7290 C   0  0  0  0  0  0  0  0  0  0  0  0
   40.9750   79.0160   62.3350 C   0  0  0  0  0  0  0  0  0  0  0  0
   40.5830   77.9540   61.6070 C   0  0  0  0  0  0  0  0  0  0  0  0
   40.1980   78.1430   60.2850 C   0  0  0  0  0  0  0  0  0  0  0  0
   40.3990   79.9500   60.0300 S   0  0  0  0  0  0  0  0  0  0  0  0
   41.2770   78.8760   63.3730 H   0  0  0  0  0  0  0  0  0  0  0  0
   40.5120   76.9140   61.8950 H   0  0  0  0  0  0  0  0  0  0  0  0
   43.0690   83.0600   62.8240 C   0  0  0  0  0  0  0  0  0  0  0  0
   42.1760   83.8260   63.6170 C   0  0  0  0  0  0  0  0  0  0  0  0
   40.8540   83.3770   63.7700 C   0  0  0  0  0  0  0  0  0  0  0  0
   40.4940   82.2330   63.1520 N   0  0  0  0  0  0  0  0  0  0  0  0
   41.3780   81.5150   62.3950 C   0  0  0  0  0  0  0  0  0  0  0  0
   42.6360   81.9340   62.2440 N   0  0  0  0  0  0  0  0  0  0  0  0
   44.0780   83.4390   62.7310 H   0  0  0  0  0  0  0  0  0  0  0  0
   42.4290   84.7390   64.1190 H   0  0  0  0  0  0  0  0  0  0  0  0
   40.1180   83.9020   64.3530 H   0  0  0  0  0  0  0  0  0  0  0  0
   36.9950   77.4220   56.7720 C   0  0  0  0  0  0  0  0  0  0  0  0
   35.8780   77.0760   57.1890 O   0  0  0  0  0  0  0  0  0  0  0  0
   37.1230   78.2340   55.5060 C   0  0  1  0  0  0  0  0  0  0  0  0
   37.3890   79.6970   55.7730 C   0  0  0  0  0  0  0  0  0  0  0  0
   38.3910   78.8310   55.1510 C   0  0  2  0  0  0  0  0  0  0  0  0
   36.2250   78.1010   54.8630 H   0  0  0  0  0  0  0  0  0  0  0  0
   36.8230   80.4380   55.1780 H   0  0  0  0  0  0  0  0  0  0  0  0
   37.5160   80.0430   56.8350 H   0  0  0  0  0  0  0  0  0  0  0  0
   39.2510   78.5390   55.8220 H   0  0  0  0  0  0  0  0  0  0  0  0
   38.8290   79.0270   53.7160 C   0  0  0  0  0  2  0  0  0  0  0  0
   37.6810   78.6970   52.7750 C   0  0  0  0  0  2  0  0  0  0  0  0
   37.2530   77.7170   53.1060 H   0  0  0  0  0  0  0  0  0  0  0  0
  1 12  1  0  0  0  0
  2  1  1  0  0  0  0
  2  7  1  0  0  0  0
  3  2  2  0  0  0  0
  4  5  2  0  0  0  0
  4  3  1  0  0  0  0
  5  6  1  0  0  0  0
  6  1  2  0  0  0  0
  8  3  1  0  0  0  0
  9 10  2  0  0  0  0
  9 20  1  0  0  0  0
 10 14  1  0  0  0  0
 11 15  1  0  0  0  0
 11 10  1  0  0  0  0
 12 11  2  0  0  0  0
 13 12  1  0  0  0  0
 13  9  1  0  0  0  0
 16 17  1  0  0  0  0
 17 18  2  0  0  0  0
 17 23  1  0  0  0  0
 18 24  1  0  0  0  0
 19 18  1  0  0  0  0
 20 19  2  0  0  0  0
 21 20  1  0  0  0  0
 21 16  2  0  0  0  0
 22 16  1  0  0  0  0
 25 26  2  0  0  0  0
 25  5  1  0  0  0  0
 27 30  1  6  0  0  0
 27 28  1  0  0  0  0
 27 25  1  0  0  0  0
 28 32  1  0  0  0  0
 29 27  1  0  0  0  0
 29 28  1  0  0  0  0
 29 33  1  1  0  0  0
 31 28  1  0  0  0  0
 34 29  1  0  0  0  0
 35 36  1  0  0  0  0
 35 34  1  0  0  0  0
M  END
>  <minimizedAffinity>
-5.92954493

>  <minimizedRMSD>
0.59847784

$$$$
