
 OpenBabel03212520583D

 36 39  0  0  1  0  0  0  0  0999 V2000
   39.7770   77.3930   59.1640 C   0  0  0  0  0  0  0  0  0  0  0  0
   40.4740   76.2690   58.8810 C   0  0  0  0  0  0  0  0  0  0  0  0
   39.9290   75.5570   57.8040 C   0  0  0  0  0  0  0  0  0  0  0  0
   38.8330   75.9420   57.1220 N   0  0  0  0  0  0  0  0  0  0  0  0
   38.2040   77.0970   57.4920 C   0  0  0  0  0  0  0  0  0  0  0  0
   38.6900   77.8210   58.5240 N   0  0  0  0  0  0  0  0  0  0  0  0
   41.3570   75.9140   59.3960 H   0  0  0  0  0  0  0  0  0  0  0  0
   40.3900   74.6190   57.4610 H   0  0  0  0  0  0  0  0  0  0  0  0
   40.9710   80.3280   61.7380 C   0  0  0  0  0  0  0  0  0  0  0  0
   40.9500   79.0910   62.3340 C   0  0  0  0  0  0  0  0  0  0  0  0
   40.5720   78.0370   61.5880 C   0  0  0  0  0  0  0  0  0  0  0  0
   40.2230   78.2380   60.2570 C   0  0  0  0  0  0  0  0  0  0  0  0
   40.4370   80.0450   60.0230 S   0  0  0  0  0  0  0  0  0  0  0  0
   41.2250   78.9410   63.3780 H   0  0  0  0  0  0  0  0  0  0  0  0
   40.4890   76.9950   61.8650 H   0  0  0  0  0  0  0  0  0  0  0  0
   43.0430   83.1320   62.8930 C   0  0  0  0  0  0  0  0  0  0  0  0
   42.1370   83.8860   63.6840 C   0  0  0  0  0  0  0  0  0  0  0  0
   40.8150   83.4320   63.8140 C   0  0  0  0  0  0  0  0  0  0  0  0
   40.4660   82.2940   63.1780 N   0  0  0  0  0  0  0  0  0  0  0  0
   41.3610   81.5880   62.4240 C   0  0  0  0  0  0  0  0  0  0  0  0
   42.6200   82.0120   62.2940 N   0  0  0  0  0  0  0  0  0  0  0  0
   44.0520   83.5140   62.8180 H   0  0  0  0  0  0  0  0  0  0  0  0
   42.3820   84.7930   64.1990 H   0  0  0  0  0  0  0  0  0  0  0  0
   40.0700   83.9480   64.3950 H   0  0  0  0  0  0  0  0  0  0  0  0
   37.0330   77.4960   56.7370 C   0  0  0  0  0  0  0  0  0  0  0  0
   35.9290   77.1040   57.1480 O   0  0  0  0  0  0  0  0  0  0  0  0
   37.1310   78.3410   55.4910 C   0  0  1  0  0  0  0  0  0  0  0  0
   37.3680   79.8030   55.7920 C   0  0  0  0  0  0  0  0  0  0  0  0
   38.3820   78.9740   55.1380 C   0  0  2  0  0  0  0  0  0  0  0  0
   36.2290   78.2050   54.8530 H   0  0  0  0  0  0  0  0  0  0  0  0
   36.7810   80.5460   55.2210 H   0  0  0  0  0  0  0  0  0  0  0  0
   37.5000   80.1250   56.8610 H   0  0  0  0  0  0  0  0  0  0  0  0
   39.2550   78.6840   55.7930 H   0  0  0  0  0  0  0  0  0  0  0  0
   38.8010   79.2150   53.7050 C   0  0  0  0  0  2  0  0  0  0  0  0
   37.7020   78.7530   52.7590 C   0  0  0  0  0  2  0  0  0  0  0  0
   37.3880   77.7310   53.0910 H   0  0  0  0  0  0  0  0  0  0  0  0
  1 12  1  0  0  0  0
  2  1  1  0  0  0  0
  2  7  1  0  0  0  0
  3  2  2  0  0  0  0
  4  5  2  0  0  0  0
  4  3  1  0  0  0  0
  5  6  1  0  0  0  0
  6  1  2  0  0  0  0
  8  3  1  0  0  0  0
  9 10  2  0  0  0  0
  9 20  1  0  0  0  0
 10 14  1  0  0  0  0
 11 15  1  0  0  0  0
 11 10  1  0  0  0  0
 12 11  2  0  0  0  0
 13 12  1  0  0  0  0
 13  9  1  0  0  0  0
 16 17  1  0  0  0  0
 17 18  2  0  0  0  0
 17 23  1  0  0  0  0
 18 24  1  0  0  0  0
 19 18  1  0  0  0  0
 20 19  2  0  0  0  0
 21 20  1  0  0  0  0
 21 16  2  0  0  0  0
 22 16  1  0  0  0  0
 25 26  2  0  0  0  0
 25  5  1  0  0  0  0
 27 30  1  6  0  0  0
 27 28  1  0  0  0  0
 27 25  1  0  0  0  0
 28 32  1  0  0  0  0
 29 27  1  0  0  0  0
 29 28  1  0  0  0  0
 29 33  1  1  0  0  0
 31 28  1  0  0  0  0
 34 29  1  0  0  0  0
 35 36  1  0  0  0  0
 35 34  1  0  0  0  0
M  END
>  <minimizedAffinity>
-5.94762754

>  <minimizedRMSD>
0.329833567

$$$$
