
 OpenBabel03212520583D

 36 39  0  0  1  0  0  0  0  0999 V2000
   39.7440   77.3570   59.2350 C   0  0  0  0  0  0  0  0  0  0  0  0
   40.3650   76.1740   59.0240 C   0  0  0  0  0  0  0  0  0  0  0  0
   39.8100   75.4610   57.9530 C   0  0  0  0  0  0  0  0  0  0  0  0
   38.7750   75.8980   57.2100 N   0  0  0  0  0  0  0  0  0  0  0  0
   38.2210   77.1110   57.5090 C   0  0  0  0  0  0  0  0  0  0  0  0
   38.7190   77.8380   58.5330 N   0  0  0  0  0  0  0  0  0  0  0  0
   41.1970   75.7750   59.5890 H   0  0  0  0  0  0  0  0  0  0  0  0
   40.2120   74.4780   57.6650 H   0  0  0  0  0  0  0  0  0  0  0  0
   40.9760   80.3130   61.7670 C   0  0  0  0  0  0  0  0  0  0  0  0
   40.9770   79.0790   62.3680 C   0  0  0  0  0  0  0  0  0  0  0  0
   40.5900   78.0180   61.6360 C   0  0  0  0  0  0  0  0  0  0  0  0
   40.2090   78.2100   60.3130 C   0  0  0  0  0  0  0  0  0  0  0  0
   40.4050   80.0180   60.0660 S   0  0  0  0  0  0  0  0  0  0  0  0
   41.2770   78.9360   63.4070 H   0  0  0  0  0  0  0  0  0  0  0  0
   40.5220   76.9770   61.9200 H   0  0  0  0  0  0  0  0  0  0  0  0
   43.0590   83.1250   62.8800 C   0  0  0  0  0  0  0  0  0  0  0  0
   42.1600   83.8880   63.6700 C   0  0  0  0  0  0  0  0  0  0  0  0
   40.8380   83.4370   63.8140 C   0  0  0  0  0  0  0  0  0  0  0  0
   40.4840   82.2930   63.1920 N   0  0  0  0  0  0  0  0  0  0  0  0
   41.3730   81.5790   62.4380 C   0  0  0  0  0  0  0  0  0  0  0  0
   42.6310   82.0000   62.2950 N   0  0  0  0  0  0  0  0  0  0  0  0
   44.0680   83.5050   62.7940 H   0  0  0  0  0  0  0  0  0  0  0  0
   42.4090   84.7990   64.1750 H   0  0  0  0  0  0  0  0  0  0  0  0
   40.0980   83.9590   64.3950 H   0  0  0  0  0  0  0  0  0  0  0  0
   37.1140   77.5640   56.6900 C   0  0  0  0  0  0  0  0  0  0  0  0
   35.9820   77.1490   56.9820 O   0  0  0  0  0  0  0  0  0  0  0  0
   37.3120   78.4930   55.5170 C   0  0  1  0  0  0  0  0  0  0  0  0
   37.2970   79.9500   55.9150 C   0  0  0  0  0  0  0  0  0  0  0  0
   38.5100   79.2970   55.4200 C   0  0  2  0  0  0  0  0  0  0  0  0
   36.5600   78.2870   54.7230 H   0  0  0  0  0  0  0  0  0  0  0  0
   36.7230   80.6500   55.2790 H   0  0  0  0  0  0  0  0  0  0  0  0
   37.1980   80.2180   57.0030 H   0  0  0  0  0  0  0  0  0  0  0  0
   39.2870   79.0760   56.2080 H   0  0  0  0  0  0  0  0  0  0  0  0
   39.1330   79.6790   54.0960 C   0  0  0  0  0  2  0  0  0  0  0  0
   40.5680   80.1390   54.3110 C   0  0  0  0  0  2  0  0  0  0  0  0
   40.5570   80.8670   55.1610 H   0  0  0  0  0  0  0  0  0  0  0  0
  1 12  1  0  0  0  0
  2  1  1  0  0  0  0
  2  7  1  0  0  0  0
  3  2  2  0  0  0  0
  4  5  2  0  0  0  0
  4  3  1  0  0  0  0
  5  6  1  0  0  0  0
  6  1  2  0  0  0  0
  8  3  1  0  0  0  0
  9 10  2  0  0  0  0
  9 20  1  0  0  0  0
 10 14  1  0  0  0  0
 11 15  1  0  0  0  0
 11 10  1  0  0  0  0
 12 11  2  0  0  0  0
 13 12  1  0  0  0  0
 13  9  1  0  0  0  0
 16 17  1  0  0  0  0
 17 18  2  0  0  0  0
 17 23  1  0  0  0  0
 18 24  1  0  0  0  0
 19 18  1  0  0  0  0
 20 19  2  0  0  0  0
 21 20  1  0  0  0  0
 21 16  2  0  0  0  0
 22 16  1  0  0  0  0
 25 26  2  0  0  0  0
 25  5  1  0  0  0  0
 27 30  1  6  0  0  0
 27 28  1  0  0  0  0
 27 25  1  0  0  0  0
 28 32  1  0  0  0  0
 29 27  1  0  0  0  0
 29 28  1  0  0  0  0
 29 33  1  1  0  0  0
 31 28  1  0  0  0  0
 34 35  1  0  0  0  0
 34 29  1  0  0  0  0
 35 36  1  0  0  0  0
M  END
>  <minimizedAffinity>
-5.90173769

>  <minimizedRMSD>
0.0876754448

$$$$
