
 OpenBabel03212520593D

 36 39  0  0  1  0  0  0  0  0999 V2000
   39.7410   77.3650   59.2310 C   0  0  0  0  0  0  0  0  0  0  0  0
   40.3720   76.1900   59.0070 C   0  0  0  0  0  0  0  0  0  0  0  0
   39.8150   75.4770   57.9370 C   0  0  0  0  0  0  0  0  0  0  0  0
   38.7690   75.9070   57.2060 N   0  0  0  0  0  0  0  0  0  0  0  0
   38.2060   77.1130   57.5170 C   0  0  0  0  0  0  0  0  0  0  0  0
   38.7050   77.8400   58.5410 N   0  0  0  0  0  0  0  0  0  0  0  0
   41.2130   75.7960   59.5630 H   0  0  0  0  0  0  0  0  0  0  0  0
   40.2250   74.5000   57.6400 H   0  0  0  0  0  0  0  0  0  0  0  0
   40.9750   80.3170   61.7650 C   0  0  0  0  0  0  0  0  0  0  0  0
   40.9760   79.0820   62.3660 C   0  0  0  0  0  0  0  0  0  0  0  0
   40.5880   78.0230   61.6320 C   0  0  0  0  0  0  0  0  0  0  0  0
   40.2060   78.2170   60.3100 C   0  0  0  0  0  0  0  0  0  0  0  0
   40.4030   80.0240   60.0640 S   0  0  0  0  0  0  0  0  0  0  0  0
   41.2770   78.9380   63.4040 H   0  0  0  0  0  0  0  0  0  0  0  0
   40.5200   76.9810   61.9160 H   0  0  0  0  0  0  0  0  0  0  0  0
   43.0600   83.1280   62.8800 C   0  0  0  0  0  0  0  0  0  0  0  0
   42.1620   83.8900   63.6720 C   0  0  0  0  0  0  0  0  0  0  0  0
   40.8400   83.4380   63.8180 C   0  0  0  0  0  0  0  0  0  0  0  0
   40.4850   82.2950   63.1940 N   0  0  0  0  0  0  0  0  0  0  0  0
   41.3730   81.5820   62.4380 C   0  0  0  0  0  0  0  0  0  0  0  0
   42.6310   82.0030   62.2930 N   0  0  0  0  0  0  0  0  0  0  0  0
   44.0680   83.5090   62.7920 H   0  0  0  0  0  0  0  0  0  0  0  0
   42.4120   84.8000   64.1780 H   0  0  0  0  0  0  0  0  0  0  0  0
   40.1010   83.9590   64.4010 H   0  0  0  0  0  0  0  0  0  0  0  0
   37.0870   77.5600   56.7100 C   0  0  0  0  0  0  0  0  0  0  0  0
   35.9590   77.1480   57.0230 O   0  0  0  0  0  0  0  0  0  0  0  0
   37.2680   78.4770   55.5250 C   0  0  1  0  0  0  0  0  0  0  0  0
   37.2930   79.9370   55.9130 C   0  0  0  0  0  0  0  0  0  0  0  0
   38.4780   79.2570   55.3880 C   0  0  2  0  0  0  0  0  0  0  0  0
   36.4900   78.2810   54.7550 H   0  0  0  0  0  0  0  0  0  0  0  0
   36.7140   80.6440   55.2900 H   0  0  0  0  0  0  0  0  0  0  0  0
   37.2310   80.2130   57.0010 H   0  0  0  0  0  0  0  0  0  0  0  0
   39.2740   79.0260   56.1540 H   0  0  0  0  0  0  0  0  0  0  0  0
   39.0690   79.6180   54.0430 C   0  0  0  0  0  2  0  0  0  0  0  0
   40.5840   79.4820   54.0890 C   0  0  0  0  0  2  0  0  0  0  0  0
   40.9350   79.9990   55.0170 H   0  0  0  0  0  0  0  0  0  0  0  0
  1 12  1  0  0  0  0
  2  1  1  0  0  0  0
  2  7  1  0  0  0  0
  3  2  2  0  0  0  0
  4  5  2  0  0  0  0
  4  3  1  0  0  0  0
  5  6  1  0  0  0  0
  6  1  2  0  0  0  0
  8  3  1  0  0  0  0
  9 10  2  0  0  0  0
  9 20  1  0  0  0  0
 10 14  1  0  0  0  0
 11 15  1  0  0  0  0
 11 10  1  0  0  0  0
 12 11  2  0  0  0  0
 13 12  1  0  0  0  0
 13  9  1  0  0  0  0
 16 17  1  0  0  0  0
 17 18  2  0  0  0  0
 17 23  1  0  0  0  0
 18 24  1  0  0  0  0
 19 18  1  0  0  0  0
 20 19  2  0  0  0  0
 21 20  1  0  0  0  0
 21 16  2  0  0  0  0
 22 16  1  0  0  0  0
 25 26  2  0  0  0  0
 25  5  1  0  0  0  0
 27 30  1  6  0  0  0
 27 28  1  0  0  0  0
 27 25  1  0  0  0  0
 28 32  1  0  0  0  0
 29 27  1  0  0  0  0
 29 28  1  0  0  0  0
 29 33  1  1  0  0  0
 31 28  1  0  0  0  0
 34 35  1  0  0  0  0
 34 29  1  0  0  0  0
 35 36  1  0  0  0  0
M  END
>  <minimizedAffinity>
-5.86664391

>  <minimizedRMSD>
0.065364778

$$$$
