
 OpenBabel03212520583D

 36 39  0  0  1  0  0  0  0  0999 V2000
   39.7390   77.3710   59.2220 C   0  0  0  0  0  0  0  0  0  0  0  0
   40.3750   76.2000   58.9910 C   0  0  0  0  0  0  0  0  0  0  0  0
   39.8180   75.4880   57.9200 C   0  0  0  0  0  0  0  0  0  0  0  0
   38.7660   75.9160   57.1960 N   0  0  0  0  0  0  0  0  0  0  0  0
   38.1980   77.1180   57.5140 C   0  0  0  0  0  0  0  0  0  0  0  0
   38.6980   77.8430   58.5380 N   0  0  0  0  0  0  0  0  0  0  0  0
   41.2210   75.8090   59.5410 H   0  0  0  0  0  0  0  0  0  0  0  0
   40.2310   74.5150   57.6170 H   0  0  0  0  0  0  0  0  0  0  0  0
   40.9740   80.3190   61.7620 C   0  0  0  0  0  0  0  0  0  0  0  0
   40.9750   79.0830   62.3600 C   0  0  0  0  0  0  0  0  0  0  0  0
   40.5870   78.0240   61.6250 C   0  0  0  0  0  0  0  0  0  0  0  0
   40.2050   78.2200   60.3030 C   0  0  0  0  0  0  0  0  0  0  0  0
   40.4010   80.0290   60.0600 S   0  0  0  0  0  0  0  0  0  0  0  0
   41.2760   78.9360   63.3980 H   0  0  0  0  0  0  0  0  0  0  0  0
   40.5180   76.9820   61.9060 H   0  0  0  0  0  0  0  0  0  0  0  0
   43.0590   83.1260   62.8830 C   0  0  0  0  0  0  0  0  0  0  0  0
   42.1610   83.8870   63.6750 C   0  0  0  0  0  0  0  0  0  0  0  0
   40.8390   83.4360   63.8180 C   0  0  0  0  0  0  0  0  0  0  0  0
   40.4830   82.2950   63.1930 N   0  0  0  0  0  0  0  0  0  0  0  0
   41.3710   81.5820   62.4370 C   0  0  0  0  0  0  0  0  0  0  0  0
   42.6300   82.0030   62.2940 N   0  0  0  0  0  0  0  0  0  0  0  0
   44.0680   83.5060   62.7970 H   0  0  0  0  0  0  0  0  0  0  0  0
   42.4110   84.7970   64.1830 H   0  0  0  0  0  0  0  0  0  0  0  0
   40.0990   83.9580   64.4010 H   0  0  0  0  0  0  0  0  0  0  0  0
   37.0730   77.5620   56.7140 C   0  0  0  0  0  0  0  0  0  0  0  0
   35.9450   77.1630   57.0450 O   0  0  0  0  0  0  0  0  0  0  0  0
   37.2470   78.4610   55.5140 C   0  0  1  0  0  0  0  0  0  0  0  0
   37.3120   79.9240   55.8840 C   0  0  0  0  0  0  0  0  0  0  0  0
   38.4700   79.2130   55.3410 C   0  0  2  0  0  0  0  0  0  0  0  0
   36.4480   78.2730   54.7640 H   0  0  0  0  0  0  0  0  0  0  0  0
   36.7340   80.6360   55.2650 H   0  0  0  0  0  0  0  0  0  0  0  0
   37.2800   80.2140   56.9700 H   0  0  0  0  0  0  0  0  0  0  0  0
   39.2770   78.9740   56.0930 H   0  0  0  0  0  0  0  0  0  0  0  0
   39.0380   79.5460   53.9790 C   0  0  0  0  0  2  0  0  0  0  0  0
   40.4830   80.0060   54.1180 C   0  0  0  0  0  2  0  0  0  0  0  0
   40.5100   80.7630   54.9420 H   0  0  0  0  0  0  0  0  0  0  0  0
  1 12  1  0  0  0  0
  2  1  1  0  0  0  0
  2  7  1  0  0  0  0
  3  2  2  0  0  0  0
  4  5  2  0  0  0  0
  4  3  1  0  0  0  0
  5  6  1  0  0  0  0
  6  1  2  0  0  0  0
  8  3  1  0  0  0  0
  9 10  2  0  0  0  0
  9 20  1  0  0  0  0
 10 14  1  0  0  0  0
 11 15  1  0  0  0  0
 11 10  1  0  0  0  0
 12 11  2  0  0  0  0
 13 12  1  0  0  0  0
 13  9  1  0  0  0  0
 16 17  1  0  0  0  0
 17 18  2  0  0  0  0
 17 23  1  0  0  0  0
 18 24  1  0  0  0  0
 19 18  1  0  0  0  0
 20 19  2  0  0  0  0
 21 20  1  0  0  0  0
 21 16  2  0  0  0  0
 22 16  1  0  0  0  0
 25 26  2  0  0  0  0
 25  5  1  0  0  0  0
 27 30  1  6  0  0  0
 27 28  1  0  0  0  0
 27 25  1  0  0  0  0
 28 32  1  0  0  0  0
 29 27  1  0  0  0  0
 29 28  1  0  0  0  0
 29 33  1  1  0  0  0
 31 28  1  0  0  0  0
 34 35  1  0  0  0  0
 34 29  1  0  0  0  0
 35 36  1  0  0  0  0
M  END
>  <minimizedAffinity>
-5.89411116

>  <minimizedRMSD>
0.0348791853

$$$$
