
 OpenBabel03212520583D

 36 39  0  0  1  0  0  0  0  0999 V2000
   39.7450   77.3600   59.2340 C   0  0  0  0  0  0  0  0  0  0  0  0
   40.3640   76.1760   59.0230 C   0  0  0  0  0  0  0  0  0  0  0  0
   39.8090   75.4640   57.9510 C   0  0  0  0  0  0  0  0  0  0  0  0
   38.7740   75.9010   57.2090 N   0  0  0  0  0  0  0  0  0  0  0  0
   38.2220   77.1150   57.5080 C   0  0  0  0  0  0  0  0  0  0  0  0
   38.7200   77.8420   58.5320 N   0  0  0  0  0  0  0  0  0  0  0  0
   41.1960   75.7770   59.5880 H   0  0  0  0  0  0  0  0  0  0  0  0
   40.2100   74.4810   57.6630 H   0  0  0  0  0  0  0  0  0  0  0  0
   40.9770   80.3150   61.7660 C   0  0  0  0  0  0  0  0  0  0  0  0
   40.9800   79.0800   62.3670 C   0  0  0  0  0  0  0  0  0  0  0  0
   40.5930   78.0190   61.6340 C   0  0  0  0  0  0  0  0  0  0  0  0
   40.2100   78.2120   60.3120 C   0  0  0  0  0  0  0  0  0  0  0  0
   40.4030   80.0200   60.0660 S   0  0  0  0  0  0  0  0  0  0  0  0
   41.2820   78.9360   63.4050 H   0  0  0  0  0  0  0  0  0  0  0  0
   40.5260   76.9780   61.9180 H   0  0  0  0  0  0  0  0  0  0  0  0
   43.0590   83.1260   62.8820 C   0  0  0  0  0  0  0  0  0  0  0  0
   42.1600   83.8890   63.6710 C   0  0  0  0  0  0  0  0  0  0  0  0
   40.8380   83.4380   63.8150 C   0  0  0  0  0  0  0  0  0  0  0  0
   40.4840   82.2940   63.1920 N   0  0  0  0  0  0  0  0  0  0  0  0
   41.3730   81.5800   62.4390 C   0  0  0  0  0  0  0  0  0  0  0  0
   42.6310   82.0010   62.2960 N   0  0  0  0  0  0  0  0  0  0  0  0
   44.0680   83.5070   62.7960 H   0  0  0  0  0  0  0  0  0  0  0  0
   42.4090   84.8000   64.1770 H   0  0  0  0  0  0  0  0  0  0  0  0
   40.0970   83.9600   64.3950 H   0  0  0  0  0  0  0  0  0  0  0  0
   37.1150   77.5690   56.6890 C   0  0  0  0  0  0  0  0  0  0  0  0
   35.9820   77.1570   56.9820 O   0  0  0  0  0  0  0  0  0  0  0  0
   37.3130   78.4960   55.5140 C   0  0  1  0  0  0  0  0  0  0  0  0
   37.2940   79.9540   55.9090 C   0  0  0  0  0  0  0  0  0  0  0  0
   38.5100   79.3030   55.4190 C   0  0  2  0  0  0  0  0  0  0  0  0
   36.5650   78.2860   54.7180 H   0  0  0  0  0  0  0  0  0  0  0  0
   36.7200   80.6510   55.2690 H   0  0  0  0  0  0  0  0  0  0  0  0
   37.1910   80.2240   56.9950 H   0  0  0  0  0  0  0  0  0  0  0  0
   39.2850   79.0860   56.2100 H   0  0  0  0  0  0  0  0  0  0  0  0
   39.1360   79.6830   54.0950 C   0  0  0  0  0  2  0  0  0  0  0  0
   40.5720   80.1380   54.3120 C   0  0  0  0  0  2  0  0  0  0  0  0
   40.5630   80.8660   55.1620 H   0  0  0  0  0  0  0  0  0  0  0  0
  1 12  1  0  0  0  0
  2  1  1  0  0  0  0
  2  7  1  0  0  0  0
  3  2  2  0  0  0  0
  4  5  2  0  0  0  0
  4  3  1  0  0  0  0
  5  6  1  0  0  0  0
  6  1  2  0  0  0  0
  8  3  1  0  0  0  0
  9 10  2  0  0  0  0
  9 20  1  0  0  0  0
 10 14  1  0  0  0  0
 11 15  1  0  0  0  0
 11 10  1  0  0  0  0
 12 11  2  0  0  0  0
 13 12  1  0  0  0  0
 13  9  1  0  0  0  0
 16 17  1  0  0  0  0
 17 18  2  0  0  0  0
 17 23  1  0  0  0  0
 18 24  1  0  0  0  0
 19 18  1  0  0  0  0
 20 19  2  0  0  0  0
 21 20  1  0  0  0  0
 21 16  2  0  0  0  0
 22 16  1  0  0  0  0
 25 26  2  0  0  0  0
 25  5  1  0  0  0  0
 27 30  1  6  0  0  0
 27 28  1  0  0  0  0
 27 25  1  0  0  0  0
 28 32  1  0  0  0  0
 29 27  1  0  0  0  0
 29 28  1  0  0  0  0
 29 33  1  1  0  0  0
 31 28  1  0  0  0  0
 34 35  1  0  0  0  0
 34 29  1  0  0  0  0
 35 36  1  0  0  0  0
M  END
>  <minimizedAffinity>
-5.90328503

>  <minimizedRMSD>
0.128904432

$$$$
