
 OpenBabel03212520593D

 36 39  0  0  1  0  0  0  0  0999 V2000
   39.7990   77.4060   59.1830 C   0  0  0  0  0  0  0  0  0  0  0  0
   40.4830   76.2690   58.9190 C   0  0  0  0  0  0  0  0  0  0  0  0
   39.9450   75.5570   57.8390 C   0  0  0  0  0  0  0  0  0  0  0  0
   38.8670   75.9530   57.1360 N   0  0  0  0  0  0  0  0  0  0  0  0
   38.2500   77.1210   57.4870 C   0  0  0  0  0  0  0  0  0  0  0  0
   38.7290   77.8450   58.5220 N   0  0  0  0  0  0  0  0  0  0  0  0
   41.3510   75.9040   59.4510 H   0  0  0  0  0  0  0  0  0  0  0  0
   40.3970   74.6100   57.5100 H   0  0  0  0  0  0  0  0  0  0  0  0
   40.9810   80.3430   61.7590 C   0  0  0  0  0  0  0  0  0  0  0  0
   40.9560   79.1070   62.3560 C   0  0  0  0  0  0  0  0  0  0  0  0
   40.5820   78.0510   61.6100 C   0  0  0  0  0  0  0  0  0  0  0  0
   40.2390   78.2510   60.2770 C   0  0  0  0  0  0  0  0  0  0  0  0
   40.4550   80.0580   60.0420 S   0  0  0  0  0  0  0  0  0  0  0  0
   41.2260   78.9580   63.4030 H   0  0  0  0  0  0  0  0  0  0  0  0
   40.4980   77.0100   61.8880 H   0  0  0  0  0  0  0  0  0  0  0  0
   43.0440   83.1530   62.9140 C   0  0  0  0  0  0  0  0  0  0  0  0
   42.1370   83.9030   63.7070 C   0  0  0  0  0  0  0  0  0  0  0  0
   40.8160   83.4440   63.8390 C   0  0  0  0  0  0  0  0  0  0  0  0
   40.4710   82.3050   63.2030 N   0  0  0  0  0  0  0  0  0  0  0  0
   41.3670   81.6040   62.4470 C   0  0  0  0  0  0  0  0  0  0  0  0
   42.6240   82.0320   62.3150 N   0  0  0  0  0  0  0  0  0  0  0  0
   44.0510   83.5390   62.8370 H   0  0  0  0  0  0  0  0  0  0  0  0
   42.3790   84.8100   64.2230 H   0  0  0  0  0  0  0  0  0  0  0  0
   40.0710   83.9570   64.4220 H   0  0  0  0  0  0  0  0  0  0  0  0
   37.0970   77.5320   56.7090 C   0  0  0  0  0  0  0  0  0  0  0  0
   35.9910   77.0810   57.0470 O   0  0  0  0  0  0  0  0  0  0  0  0
   37.2180   78.4590   55.5240 C   0  0  1  0  0  0  0  0  0  0  0  0
   37.3050   79.9130   55.9250 C   0  0  0  0  0  0  0  0  0  0  0  0
   38.4340   79.2120   55.3110 C   0  0  2  0  0  0  0  0  0  0  0  0
   36.3830   78.2900   54.8080 H   0  0  0  0  0  0  0  0  0  0  0  0
   36.7020   80.6400   55.3500 H   0  0  0  0  0  0  0  0  0  0  0  0
   37.3250   80.1770   57.0170 H   0  0  0  0  0  0  0  0  0  0  0  0
   39.2750   78.9530   56.0180 H   0  0  0  0  0  0  0  0  0  0  0  0
   38.9390   79.5750   53.9320 C   0  0  0  0  0  2  0  0  0  0  0  0
   37.7640   79.8200   52.9970 C   0  0  0  0  0  2  0  0  0  0  0  0
   37.0520   78.9670   53.1320 H   0  0  0  0  0  0  0  0  0  0  0  0
  1 12  1  0  0  0  0
  2  1  1  0  0  0  0
  2  7  1  0  0  0  0
  3  2  2  0  0  0  0
  4  5  2  0  0  0  0
  4  3  1  0  0  0  0
  5  6  1  0  0  0  0
  6  1  2  0  0  0  0
  8  3  1  0  0  0  0
  9 10  2  0  0  0  0
  9 20  1  0  0  0  0
 10 14  1  0  0  0  0
 11 15  1  0  0  0  0
 11 10  1  0  0  0  0
 12 11  2  0  0  0  0
 13 12  1  0  0  0  0
 13  9  1  0  0  0  0
 16 17  1  0  0  0  0
 17 18  2  0  0  0  0
 17 23  1  0  0  0  0
 18 24  1  0  0  0  0
 19 18  1  0  0  0  0
 20 19  2  0  0  0  0
 21 20  1  0  0  0  0
 21 16  2  0  0  0  0
 22 16  1  0  0  0  0
 25 26  2  0  0  0  0
 25  5  1  0  0  0  0
 27 30  1  6  0  0  0
 27 28  1  0  0  0  0
 27 25  1  0  0  0  0
 28 32  1  0  0  0  0
 29 27  1  0  0  0  0
 29 28  1  0  0  0  0
 29 33  1  1  0  0  0
 31 28  1  0  0  0  0
 34 29  1  0  0  0  0
 35 36  1  0  0  0  0
 35 34  1  0  0  0  0
M  END
>  <minimizedAffinity>
-5.98421526

>  <minimizedRMSD>
0.134637937

$$$$
