
 OpenBabel03212520583D

 36 39  0  0  1  0  0  0  0  0999 V2000
   39.6370   77.1370   59.1710 C   0  0  0  0  0  0  0  0  0  0  0  0
   40.2560   75.9550   58.9490 C   0  0  0  0  0  0  0  0  0  0  0  0
   39.6760   75.2340   57.8970 C   0  0  0  0  0  0  0  0  0  0  0  0
   38.6190   75.6630   57.1800 N   0  0  0  0  0  0  0  0  0  0  0  0
   38.0690   76.8750   57.4880 C   0  0  0  0  0  0  0  0  0  0  0  0
   38.5910   77.6100   58.4940 N   0  0  0  0  0  0  0  0  0  0  0  0
   41.1050   75.5630   59.4930 H   0  0  0  0  0  0  0  0  0  0  0  0
   40.0740   74.2510   57.6030 H   0  0  0  0  0  0  0  0  0  0  0  0
   40.9550   80.1050   61.6430 C   0  0  0  0  0  0  0  0  0  0  0  0
   40.9220   78.8840   62.2680 C   0  0  0  0  0  0  0  0  0  0  0  0
   40.5040   77.8200   61.5580 C   0  0  0  0  0  0  0  0  0  0  0  0
   40.1260   77.9970   60.2320 C   0  0  0  0  0  0  0  0  0  0  0  0
   40.3730   79.7930   59.9480 S   0  0  0  0  0  0  0  0  0  0  0  0
   41.2190   78.7520   63.3100 H   0  0  0  0  0  0  0  0  0  0  0  0
   40.4070   76.7870   61.8620 H   0  0  0  0  0  0  0  0  0  0  0  0
   43.1150   82.8840   62.6910 C   0  0  0  0  0  0  0  0  0  0  0  0
   42.2420   83.6820   63.4740 C   0  0  0  0  0  0  0  0  0  0  0  0
   40.9100   83.2660   63.6360 C   0  0  0  0  0  0  0  0  0  0  0  0
   40.5230   82.1210   63.0370 N   0  0  0  0  0  0  0  0  0  0  0  0
   41.3880   81.3720   62.2890 C   0  0  0  0  0  0  0  0  0  0  0  0
   42.6550   81.7590   62.1290 N   0  0  0  0  0  0  0  0  0  0  0  0
   44.1330   83.2370   62.5900 H   0  0  0  0  0  0  0  0  0  0  0  0
   42.5180   84.5960   63.9610 H   0  0  0  0  0  0  0  0  0  0  0  0
   40.1880   83.8170   64.2130 H   0  0  0  0  0  0  0  0  0  0  0  0
   36.9380   77.3200   56.6970 C   0  0  0  0  0  0  0  0  0  0  0  0
   35.8070   77.1650   57.1820 O   0  0  0  0  0  0  0  0  0  0  0  0
   37.1080   77.9360   55.3290 C   0  0  1  0  0  0  0  0  0  0  0  0
   37.4320   79.4100   55.3870 C   0  0  0  0  0  0  0  0  0  0  0  0
   38.4030   78.4250   54.9080 C   0  0  2  0  0  0  0  0  0  0  0  0
   36.2110   77.7470   54.7000 H   0  0  0  0  0  0  0  0  0  0  0  0
   36.9010   80.0800   54.6850 H   0  0  0  0  0  0  0  0  0  0  0  0
   37.5670   79.9000   56.3900 H   0  0  0  0  0  0  0  0  0  0  0  0
   39.2450   78.1980   55.6250 H   0  0  0  0  0  0  0  0  0  0  0  0
   38.8580   78.3950   53.4660 C   0  0  0  0  0  2  0  0  0  0  0  0
   39.5200   79.7170   53.1040 C   0  0  0  0  0  2  0  0  0  0  0  0
   38.8470   80.5340   53.4670 H   0  0  0  0  0  0  0  0  0  0  0  0
  1 12  1  0  0  0  0
  2  1  1  0  0  0  0
  2  7  1  0  0  0  0
  3  2  2  0  0  0  0
  4  5  2  0  0  0  0
  4  3  1  0  0  0  0
  5  6  1  0  0  0  0
  6  1  2  0  0  0  0
  8  3  1  0  0  0  0
  9 10  2  0  0  0  0
  9 20  1  0  0  0  0
 10 14  1  0  0  0  0
 11 15  1  0  0  0  0
 11 10  1  0  0  0  0
 12 11  2  0  0  0  0
 13 12  1  0  0  0  0
 13  9  1  0  0  0  0
 16 17  1  0  0  0  0
 17 18  2  0  0  0  0
 17 23  1  0  0  0  0
 18 24  1  0  0  0  0
 19 18  1  0  0  0  0
 20 19  2  0  0  0  0
 21 20  1  0  0  0  0
 21 16  2  0  0  0  0
 22 16  1  0  0  0  0
 25 26  2  0  0  0  0
 25  5  1  0  0  0  0
 27 30  1  6  0  0  0
 27 28  1  0  0  0  0
 27 25  1  0  0  0  0
 28 32  1  0  0  0  0
 29 27  1  0  0  0  0
 29 28  1  0  0  0  0
 29 33  1  1  0  0  0
 31 28  1  0  0  0  0
 34 29  1  0  0  0  0
 35 34  1  0  0  0  0
 35 36  1  0  0  0  0
M  END
>  <minimizedAffinity>
-5.78483343

>  <minimizedRMSD>
0.546800435

$$$$
