
 OpenBabel03212520133D

 32 34  0  0  0  0  0  0  0  0999 V2000
   44.3360   82.7160   58.7830 Cl  0  0  0  0  0  0  0  0  0  0  0  0
   42.6590   82.7840   59.3020 C   0  0  0  0  0  0  0  0  0  0  0  0
   41.6130   83.0470   58.4240 C   0  0  0  0  0  0  0  0  0  0  0  0
   40.3500   83.0680   58.9810 C   0  0  0  0  0  0  0  0  0  0  0  0
   40.0520   82.8540   60.3120 C   0  0  0  0  0  0  0  0  0  0  0  0
   41.1000   82.5990   61.1390 C   0  0  0  0  0  0  0  0  0  0  0  0
   40.8340   82.3120   62.8570 Cl  0  0  0  0  0  0  0  0  0  0  0  0
   42.3810   82.5670   60.6350 C   0  0  0  0  0  0  0  0  0  0  0  0
   39.5100   83.2730   58.3120 H   0  0  0  0  0  0  0  0  0  0  0  0
   39.0160   82.8920   60.6530 H   0  0  0  0  0  0  0  0  0  0  0  0
   42.2530   84.4600   56.4220 C   0  0  0  0  0  0  0  0  0  0  0  0
   41.9010   83.2700   57.0480 C   0  0  0  0  0  0  0  0  0  0  0  0
   41.8130   82.1330   56.2320 C   0  0  0  0  0  0  0  0  0  0  0  0
   42.0760   82.2770   54.9050 N   0  0  0  0  0  0  0  0  0  0  0  0
   42.4130   83.4410   54.3400 C   0  0  0  0  0  0  0  0  0  0  0  0
   42.4990   84.5340   55.1120 N   0  0  0  0  0  0  0  0  0  0  0  0
   42.3020   85.2900   57.1030 H   0  0  0  0  0  0  0  0  0  0  0  0
   41.5450   81.1550   56.6240 H   0  0  0  0  0  0  0  0  0  0  0  0
   42.6680   83.4250   52.8770 C   0  0  0  0  0  0  0  0  0  0  0  0
   43.3580   82.2960   52.4950 F   0  0  0  0  0  0  0  0  0  0  0  0
   41.4530   83.4170   52.1970 F   0  0  0  0  0  0  0  0  0  0  0  0
   43.4330   84.5080   52.4880 F   0  0  0  0  0  0  0  0  0  0  0  0
   44.2180   83.2320   62.2420 C   0  0  0  0  0  0  0  0  0  0  0  0
   43.4900   82.2900   61.5600 C   0  0  0  0  0  0  0  0  0  0  0  0
   43.7380   80.9310   61.6810 C   0  0  0  0  0  0  0  0  0  0  0  0
   43.2010   80.1390   61.1700 H   0  0  0  0  0  0  0  0  0  0  0  0
   44.7710   80.5400   62.5330 C   0  0  0  0  0  0  0  0  0  0  0  0
   44.9950   79.4900   62.6530 H   0  0  0  0  0  0  0  0  0  0  0  0
   45.5060   81.4770   63.2210 C   0  0  0  0  0  3  0  0  0  0  0  0
   45.2420   82.8410   63.0870 C   0  0  0  0  0  3  0  0  0  0  0  0
   43.5480   85.7110   61.8620 N   0  0  0  0  0  0  0  0  0  0  0  0
   43.8530   84.6030   62.0230 C   0  0  0  0  0  0  0  0  0  0  0  0
  1  2  1  0  0  0  0
  2  8  1  0  0  0  0
  3  4  1  0  0  0  0
  3  2  2  0  0  0  0
  4  5  2  0  0  0  0
  5 10  1  0  0  0  0
  5  6  1  0  0  0  0
  6  7  1  0  0  0  0
  8  6  2  0  0  0  0
  8 24  1  0  0  0  0
  9  4  1  0  0  0  0
 11 12  1  0  0  0  0
 11 17  1  0  0  0  0
 12  3  1  0  0  0  0
 13 18  1  0  0  0  0
 13 12  2  0  0  0  0
 14 13  1  0  0  0  0
 15 14  2  0  0  0  0
 15 16  1  0  0  0  0
 16 11  2  0  0  0  0
 19 15  1  0  0  0  0
 20 19  1  0  0  0  0
 21 19  1  0  0  0  0
 22 19  1  0  0  0  0
 23 30  1  0  0  0  0
 24 25  1  0  0  0  0
 24 23  2  0  0  0  0
 25 27  2  0  0  0  0
 26 25  1  0  0  0  0
 27 28  1  0  0  0  0
 27 29  1  0  0  0  0
 30 29  2  0  0  0  0
 31 32  3  0  0  0  0
 32 23  1  0  0  0  0
M  END
>  <minimizedAffinity>
-5.00143337

>  <minimizedRMSD>
7.78691435

$$$$
