
 OpenBabel03212520133D

 32 34  0  0  0  0  0  0  0  0999 V2000
   44.4090   80.7710   59.2500 Cl  0  0  0  0  0  0  0  0  0  0  0  0
   42.9690   80.9050   60.2480 C   0  0  0  0  0  0  0  0  0  0  0  0
   42.6790   80.0070   61.2710 C   0  0  0  0  0  0  0  0  0  0  0  0
   41.5100   80.2440   61.9660 C   0  0  0  0  0  0  0  0  0  0  0  0
   40.6260   81.2790   61.7310 C   0  0  0  0  0  0  0  0  0  0  0  0
   40.9440   82.1350   60.7240 C   0  0  0  0  0  0  0  0  0  0  0  0
   39.8860   83.4900   60.3370 Cl  0  0  0  0  0  0  0  0  0  0  0  0
   42.0980   81.9450   59.9980 C   0  0  0  0  0  0  0  0  0  0  0  0
   41.2590   79.5530   62.7740 H   0  0  0  0  0  0  0  0  0  0  0  0
   39.7260   81.3780   62.3400 H   0  0  0  0  0  0  0  0  0  0  0  0
   43.4950   77.6160   61.0960 C   0  0  0  0  0  0  0  0  0  0  0  0
   43.5780   78.9350   61.5280 C   0  0  0  0  0  0  0  0  0  0  0  0
   44.6850   79.2670   62.3220 C   0  0  0  0  0  0  0  0  0  0  0  0
   45.5840   78.2870   62.6070 N   0  0  0  0  0  0  0  0  0  0  0  0
   45.4690   77.0280   62.1710 C   0  0  0  0  0  0  0  0  0  0  0  0
   44.4140   76.7010   61.4110 N   0  0  0  0  0  0  0  0  0  0  0  0
   42.6240   77.4290   60.4940 H   0  0  0  0  0  0  0  0  0  0  0  0
   44.8420   80.2710   62.7100 H   0  0  0  0  0  0  0  0  0  0  0  0
   46.5400   76.0810   62.5720 C   0  0  0  0  0  0  0  0  0  0  0  0
   47.5310   76.7110   63.2910 F   0  0  0  0  0  0  0  0  0  0  0  0
   45.9990   75.0940   63.3910 F   0  0  0  0  0  0  0  0  0  0  0  0
   47.1490   75.5140   61.4690 F   0  0  0  0  0  0  0  0  0  0  0  0
   41.9660   82.7970   57.6210 C   0  0  0  0  0  0  0  0  0  0  0  0
   42.4080   82.8910   58.9160 C   0  0  0  0  0  0  0  0  0  0  0  0
   43.2220   83.9270   59.3480 C   0  0  0  0  0  0  0  0  0  0  0  0
   43.6040   84.0570   60.3550 H   0  0  0  0  0  0  0  0  0  0  0  0
   43.5860   84.8920   58.4090 C   0  0  0  0  0  0  0  0  0  0  0  0
   44.2210   85.7140   58.7100 H   0  0  0  0  0  0  0  0  0  0  0  0
   43.1480   84.8060   57.1080 C   0  0  0  0  0  3  0  0  0  0  0  0
   42.3290   83.7570   56.6910 C   0  0  0  0  0  3  0  0  0  0  0  0
   40.4360   80.7760   57.0620 N   0  0  0  0  0  0  0  0  0  0  0  0
   41.1290   81.6730   57.3110 C   0  0  0  0  0  0  0  0  0  0  0  0
  1  2  1  0  0  0  0
  2  3  1  0  0  0  0
  3 12  1  0  0  0  0
  3  4  2  0  0  0  0
  4  9  1  0  0  0  0
  5  4  1  0  0  0  0
  5 10  1  0  0  0  0
  6  5  2  0  0  0  0
  7  6  1  0  0  0  0
  8  2  2  0  0  0  0
  8  6  1  0  0  0  0
 11 16  2  0  0  0  0
 11 12  1  0  0  0  0
 12 13  2  0  0  0  0
 13 14  1  0  0  0  0
 13 18  1  0  0  0  0
 15 19  1  0  0  0  0
 15 14  2  0  0  0  0
 16 15  1  0  0  0  0
 17 11  1  0  0  0  0
 19 20  1  0  0  0  0
 19 21  1  0  0  0  0
 22 19  1  0  0  0  0
 23 24  1  0  0  0  0
 24 25  2  0  0  0  0
 24  8  1  0  0  0  0
 25 26  1  0  0  0  0
 27 28  1  0  0  0  0
 27 25  1  0  0  0  0
 29 27  2  0  0  0  0
 30 29  1  0  0  0  0
 30 23  2  0  0  0  0
 31 32  3  0  0  0  0
 32 23  1  0  0  0  0
M  END
>  <minimizedAffinity>
-3.74867916

>  <minimizedRMSD>
5.99951649

$$$$
