
 OpenBabel03212520133D

 32 34  0  0  0  0  0  0  0  0999 V2000
   43.2140   83.5680   58.6410 Cl  0  0  0  0  0  0  0  0  0  0  0  0
   41.8880   82.4860   58.2410 C   0  0  0  0  0  0  0  0  0  0  0  0
   40.9560   82.0630   59.1820 C   0  0  0  0  0  0  0  0  0  0  0  0
   39.9730   81.2140   58.7150 C   0  0  0  0  0  0  0  0  0  0  0  0
   39.8460   80.7620   57.4170 C   0  0  0  0  0  0  0  0  0  0  0  0
   40.7750   81.1980   56.5260 C   0  0  0  0  0  0  0  0  0  0  0  0
   40.7090   80.6840   54.8420 Cl  0  0  0  0  0  0  0  0  0  0  0  0
   41.7780   82.0460   56.9380 C   0  0  0  0  0  0  0  0  0  0  0  0
   39.2280   80.8650   59.4360 H   0  0  0  0  0  0  0  0  0  0  0  0
   39.0290   80.0890   57.1490 H   0  0  0  0  0  0  0  0  0  0  0  0
   41.7970   81.9550   61.5680 C   0  0  0  0  0  0  0  0  0  0  0  0
   41.0700   82.5180   60.5260 C   0  0  0  0  0  0  0  0  0  0  0  0
   40.3510   83.6850   60.8190 C   0  0  0  0  0  0  0  0  0  0  0  0
   40.4170   84.1740   62.0870 N   0  0  0  0  0  0  0  0  0  0  0  0
   41.1290   83.6030   63.0630 C   0  0  0  0  0  0  0  0  0  0  0  0
   41.8200   82.4860   62.7920 N   0  0  0  0  0  0  0  0  0  0  0  0
   42.3240   81.0650   61.2760 H   0  0  0  0  0  0  0  0  0  0  0  0
   39.7510   84.2020   60.0730 H   0  0  0  0  0  0  0  0  0  0  0  0
   41.0940   84.2660   64.3920 C   0  0  0  0  0  0  0  0  0  0  0  0
   40.7530   85.5960   64.2860 F   0  0  0  0  0  0  0  0  0  0  0  0
   40.1300   83.6540   65.1870 F   0  0  0  0  0  0  0  0  0  0  0  0
   42.3300   84.2220   65.0090 F   0  0  0  0  0  0  0  0  0  0  0  0
   43.9580   81.8770   55.6660 C   0  0  0  0  0  0  0  0  0  0  0  0
   42.7660   82.4960   55.9460 C   0  0  0  0  0  0  0  0  0  0  0  0
   42.3610   83.6530   55.2960 C   0  0  0  0  0  0  0  0  0  0  0  0
   41.4350   84.1880   55.4710 H   0  0  0  0  0  0  0  0  0  0  0  0
   43.2160   84.1790   54.3290 C   0  0  0  0  0  0  0  0  0  0  0  0
   42.9340   85.0790   53.8010 H   0  0  0  0  0  0  0  0  0  0  0  0
   44.4140   83.5640   54.0410 C   0  0  0  0  0  3  0  0  0  0  0  0
   44.8050   82.4010   54.7060 C   0  0  0  0  0  3  0  0  0  0  0  0
   44.4810   79.7150   57.0040 N   0  0  0  0  0  0  0  0  0  0  0  0
   44.2510   80.6870   56.4150 C   0  0  0  0  0  0  0  0  0  0  0  0
  2  1  1  0  0  0  0
  2  3  1  0  0  0  0
  3 12  1  0  0  0  0
  4  3  2  0  0  0  0
  4  9  1  0  0  0  0
  5  4  1  0  0  0  0
  6  8  1  0  0  0  0
  6  5  2  0  0  0  0
  7  6  1  0  0  0  0
  8  2  2  0  0  0  0
 10  5  1  0  0  0  0
 11 16  1  0  0  0  0
 12 13  1  0  0  0  0
 12 11  2  0  0  0  0
 13 14  2  0  0  0  0
 14 15  1  0  0  0  0
 15 19  1  0  0  0  0
 16 15  2  0  0  0  0
 17 11  1  0  0  0  0
 18 13  1  0  0  0  0
 19 22  1  0  0  0  0
 19 21  1  0  0  0  0
 20 19  1  0  0  0  0
 23 24  1  0  0  0  0
 23 32  1  0  0  0  0
 24  8  1  0  0  0  0
 25 26  1  0  0  0  0
 25 24  2  0  0  0  0
 27 25  1  0  0  0  0
 28 27  1  0  0  0  0
 29 27  2  0  0  0  0
 29 30  1  0  0  0  0
 30 23  2  0  0  0  0
 32 31  3  0  0  0  0
M  END
>  <minimizedAffinity>
-4.98971987

>  <minimizedRMSD>
1.54806161

$$$$
