
 OpenBabel03212520133D

 32 34  0  0  0  0  0  0  0  0999 V2000
   42.1840   81.9940   58.7790 Cl  0  0  0  0  0  0  0  0  0  0  0  0
   41.3750   80.5670   59.4080 C   0  0  0  0  0  0  0  0  0  0  0  0
   40.6740   79.6830   58.5950 C   0  0  0  0  0  0  0  0  0  0  0  0
   40.0920   78.6080   59.2360 C   0  0  0  0  0  0  0  0  0  0  0  0
   40.1500   78.3480   60.5910 C   0  0  0  0  0  0  0  0  0  0  0  0
   40.8450   79.2340   61.3530 C   0  0  0  0  0  0  0  0  0  0  0  0
   40.9830   78.9990   63.0930 Cl  0  0  0  0  0  0  0  0  0  0  0  0
   41.4450   80.3240   60.7640 C   0  0  0  0  0  0  0  0  0  0  0  0
   39.5340   77.8980   58.6190 H   0  0  0  0  0  0  0  0  0  0  0  0
   39.6530   77.4660   61.0000 H   0  0  0  0  0  0  0  0  0  0  0  0
   39.6800   80.7100   56.5040 C   0  0  0  0  0  0  0  0  0  0  0  0
   40.6030   79.9340   57.1960 C   0  0  0  0  0  0  0  0  0  0  0  0
   41.5990   79.3110   56.4310 C   0  0  0  0  0  0  0  0  0  0  0  0
   41.5890   79.5100   55.0850 N   0  0  0  0  0  0  0  0  0  0  0  0
   40.6820   80.2650   54.4560 C   0  0  0  0  0  0  0  0  0  0  0  0
   39.7260   80.8650   55.1790 N   0  0  0  0  0  0  0  0  0  0  0  0
   38.9450   81.1580   57.1490 H   0  0  0  0  0  0  0  0  0  0  0  0
   42.3670   78.6830   56.8760 H   0  0  0  0  0  0  0  0  0  0  0  0
   40.8140   80.3790   52.9810 C   0  0  0  0  0  0  0  0  0  0  0  0
   41.6490   79.4100   52.4700 F   0  0  0  0  0  0  0  0  0  0  0  0
   39.5660   80.2020   52.3920 F   0  0  0  0  0  0  0  0  0  0  0  0
   41.3530   81.5980   52.6160 F   0  0  0  0  0  0  0  0  0  0  0  0
   41.6600   82.3590   62.2500 C   0  0  0  0  0  0  0  0  0  0  0  0
   42.1870   81.2610   61.6200 C   0  0  0  0  0  0  0  0  0  0  0  0
   43.5250   80.9130   61.7330 C   0  0  0  0  0  0  0  0  0  0  0  0
   44.0020   80.0610   61.2610 H   0  0  0  0  0  0  0  0  0  0  0  0
   44.3360   81.7290   62.5220 C   0  0  0  0  0  0  0  0  0  0  0  0
   45.3840   81.4900   62.6330 H   0  0  0  0  0  0  0  0  0  0  0  0
   43.8160   82.8320   63.1580 C   0  0  0  0  0  3  0  0  0  0  0  0
   42.4670   83.1660   63.0320 C   0  0  0  0  0  3  0  0  0  0  0  0
   39.1260   82.8020   61.9010 N   0  0  0  0  0  0  0  0  0  0  0  0
   40.2600   82.6010   62.0460 C   0  0  0  0  0  0  0  0  0  0  0  0
  1  2  1  0  0  0  0
  2  8  1  0  0  0  0
  3  4  1  0  0  0  0
  3  2  2  0  0  0  0
  4  5  2  0  0  0  0
  5 10  1  0  0  0  0
  5  6  1  0  0  0  0
  6  7  1  0  0  0  0
  8  6  2  0  0  0  0
  8 24  1  0  0  0  0
  9  4  1  0  0  0  0
 11 17  1  0  0  0  0
 11 12  1  0  0  0  0
 12  3  1  0  0  0  0
 13 18  1  0  0  0  0
 13 12  2  0  0  0  0
 14 13  1  0  0  0  0
 15 14  2  0  0  0  0
 15 16  1  0  0  0  0
 16 11  2  0  0  0  0
 19 15  1  0  0  0  0
 20 19  1  0  0  0  0
 21 19  1  0  0  0  0
 22 19  1  0  0  0  0
 23 30  1  0  0  0  0
 24 25  1  0  0  0  0
 24 23  2  0  0  0  0
 25 27  2  0  0  0  0
 26 25  1  0  0  0  0
 27 28  1  0  0  0  0
 27 29  1  0  0  0  0
 30 29  2  0  0  0  0
 31 32  3  0  0  0  0
 32 23  1  0  0  0  0
M  END
>  <minimizedAffinity>
-4.82935381

>  <minimizedRMSD>
7.92421532

$$$$
