
 OpenBabel03212520133D

 32 34  0  0  0  0  0  0  0  0999 V2000
   43.3870   83.5630   58.9630 Cl  0  0  0  0  0  0  0  0  0  0  0  0
   42.0200   82.5760   58.4700 C   0  0  0  0  0  0  0  0  0  0  0  0
   41.0110   82.2000   59.3500 C   0  0  0  0  0  0  0  0  0  0  0  0
   40.0040   81.4230   58.8130 C   0  0  0  0  0  0  0  0  0  0  0  0
   39.9230   80.9990   57.5020 C   0  0  0  0  0  0  0  0  0  0  0  0
   40.9270   81.3870   56.6720 C   0  0  0  0  0  0  0  0  0  0  0  0
   40.9240   80.9020   54.9780 Cl  0  0  0  0  0  0  0  0  0  0  0  0
   41.9570   82.1620   57.1560 C   0  0  0  0  0  0  0  0  0  0  0  0
   39.1980   81.1130   59.4840 H   0  0  0  0  0  0  0  0  0  0  0  0
   39.0810   80.3850   57.1760 H   0  0  0  0  0  0  0  0  0  0  0  0
   41.7010   82.0010   61.7780 C   0  0  0  0  0  0  0  0  0  0  0  0
   41.0770   82.6270   60.7060 C   0  0  0  0  0  0  0  0  0  0  0  0
   40.4230   83.8370   60.9780 C   0  0  0  0  0  0  0  0  0  0  0  0
   40.4480   84.3030   62.2560 N   0  0  0  0  0  0  0  0  0  0  0  0
   41.0610   83.6700   63.2620 C   0  0  0  0  0  0  0  0  0  0  0  0
   41.6880   82.5120   63.0110 N   0  0  0  0  0  0  0  0  0  0  0  0
   42.1810   81.0800   61.5010 H   0  0  0  0  0  0  0  0  0  0  0  0
   39.9060   84.4050   60.2090 H   0  0  0  0  0  0  0  0  0  0  0  0
   40.9930   84.3150   64.5980 C   0  0  0  0  0  0  0  0  0  0  0  0
   40.5960   85.6300   64.5060 F   0  0  0  0  0  0  0  0  0  0  0  0
   40.0530   83.6530   65.3830 F   0  0  0  0  0  0  0  0  0  0  0  0
   42.2280   84.3160   65.2190 F   0  0  0  0  0  0  0  0  0  0  0  0
   43.1790   83.8060   55.6720 C   0  0  0  0  0  0  0  0  0  0  0  0
   43.0270   82.5620   56.2290 C   0  0  0  0  0  0  0  0  0  0  0  0
   43.9000   81.5180   55.9610 C   0  0  0  0  0  0  0  0  0  0  0  0
   43.8340   80.5150   56.3680 H   0  0  0  0  0  0  0  0  0  0  0  0
   44.9600   81.7750   55.0920 C   0  0  0  0  0  0  0  0  0  0  0  0
   45.6620   80.9860   54.8610 H   0  0  0  0  0  0  0  0  0  0  0  0
   45.1210   83.0190   54.5300 C   0  0  0  0  0  3  0  0  0  0  0  0
   44.2320   84.0580   54.8100 C   0  0  0  0  0  3  0  0  0  0  0  0
   41.4240   85.5980   56.3430 N   0  0  0  0  0  0  0  0  0  0  0  0
   42.2020   84.7930   56.0360 C   0  0  0  0  0  0  0  0  0  0  0  0
  2  1  1  0  0  0  0
  2  3  1  0  0  0  0
  3 12  1  0  0  0  0
  4  3  2  0  0  0  0
  4  9  1  0  0  0  0
  5  4  1  0  0  0  0
  6  8  1  0  0  0  0
  6  5  2  0  0  0  0
  7  6  1  0  0  0  0
  8  2  2  0  0  0  0
 10  5  1  0  0  0  0
 11 16  1  0  0  0  0
 12 13  1  0  0  0  0
 12 11  2  0  0  0  0
 13 14  2  0  0  0  0
 14 15  1  0  0  0  0
 15 19  1  0  0  0  0
 16 15  2  0  0  0  0
 17 11  1  0  0  0  0
 18 13  1  0  0  0  0
 19 22  1  0  0  0  0
 19 21  1  0  0  0  0
 20 19  1  0  0  0  0
 23 32  1  0  0  0  0
 23 24  1  0  0  0  0
 24  8  1  0  0  0  0
 25 24  2  0  0  0  0
 25 26  1  0  0  0  0
 27 25  1  0  0  0  0
 28 27  1  0  0  0  0
 29 30  1  0  0  0  0
 29 27  2  0  0  0  0
 30 23  2  0  0  0  0
 32 31  3  0  0  0  0
M  END
>  <minimizedAffinity>
-5.15923595

>  <minimizedRMSD>
1.52058554

$$$$
