
 OpenBabel03212520133D

 32 34  0  0  0  0  0  0  0  0999 V2000
   43.4260   83.6080   58.5970 Cl  0  0  0  0  0  0  0  0  0  0  0  0
   42.0920   82.5260   58.2250 C   0  0  0  0  0  0  0  0  0  0  0  0
   41.1590   82.1300   59.1790 C   0  0  0  0  0  0  0  0  0  0  0  0
   40.1690   81.2780   58.7340 C   0  0  0  0  0  0  0  0  0  0  0  0
   40.0350   80.7980   57.4460 C   0  0  0  0  0  0  0  0  0  0  0  0
   40.9650   81.2070   56.5430 C   0  0  0  0  0  0  0  0  0  0  0  0
   40.8890   80.6560   54.8710 Cl  0  0  0  0  0  0  0  0  0  0  0  0
   41.9740   82.0580   56.9340 C   0  0  0  0  0  0  0  0  0  0  0  0
   39.4240   80.9510   59.4640 H   0  0  0  0  0  0  0  0  0  0  0  0
   39.2130   80.1250   57.1960 H   0  0  0  0  0  0  0  0  0  0  0  0
   42.2970   82.3720   61.4290 C   0  0  0  0  0  0  0  0  0  0  0  0
   41.2810   82.6150   60.5110 C   0  0  0  0  0  0  0  0  0  0  0  0
   40.2330   83.4430   60.9390 C   0  0  0  0  0  0  0  0  0  0  0  0
   40.2870   83.9400   62.2040 N   0  0  0  0  0  0  0  0  0  0  0  0
   41.2840   83.6820   63.0570 C   0  0  0  0  0  0  0  0  0  0  0  0
   42.2910   82.8920   62.6580 N   0  0  0  0  0  0  0  0  0  0  0  0
   43.0670   81.7310   61.0380 H   0  0  0  0  0  0  0  0  0  0  0  0
   39.3920   83.6940   60.2980 H   0  0  0  0  0  0  0  0  0  0  0  0
   41.1900   84.3050   64.4020 C   0  0  0  0  0  0  0  0  0  0  0  0
   40.6970   85.5890   64.3330 F   0  0  0  0  0  0  0  0  0  0  0  0
   40.3140   83.5670   65.1920 F   0  0  0  0  0  0  0  0  0  0  0  0
   42.4310   84.3900   65.0050 F   0  0  0  0  0  0  0  0  0  0  0  0
   44.0760   81.7700   55.5550 C   0  0  0  0  0  0  0  0  0  0  0  0
   42.9620   82.4790   55.9290 C   0  0  0  0  0  0  0  0  0  0  0  0
   42.6470   83.7110   55.3740 C   0  0  0  0  0  0  0  0  0  0  0  0
   41.7840   84.3180   55.6250 H   0  0  0  0  0  0  0  0  0  0  0  0
   43.5110   84.2180   54.4040 C   0  0  0  0  0  0  0  0  0  0  0  0
   43.2980   85.1760   53.9490 H   0  0  0  0  0  0  0  0  0  0  0  0
   44.6300   83.5150   54.0230 C   0  0  0  0  0  3  0  0  0  0  0  0
   44.9320   82.2770   54.5920 C   0  0  0  0  0  3  0  0  0  0  0  0
   44.4380   79.4820   56.7270 N   0  0  0  0  0  0  0  0  0  0  0  0
   44.2800   80.5100   56.2120 C   0  0  0  0  0  0  0  0  0  0  0  0
  2  1  1  0  0  0  0
  2  3  1  0  0  0  0
  3 12  1  0  0  0  0
  4  3  2  0  0  0  0
  4  9  1  0  0  0  0
  5  4  1  0  0  0  0
  6  8  1  0  0  0  0
  6  5  2  0  0  0  0
  7  6  1  0  0  0  0
  8  2  2  0  0  0  0
 10  5  1  0  0  0  0
 11 16  1  0  0  0  0
 12 13  1  0  0  0  0
 12 11  2  0  0  0  0
 13 14  2  0  0  0  0
 14 15  1  0  0  0  0
 15 19  1  0  0  0  0
 16 15  2  0  0  0  0
 17 11  1  0  0  0  0
 18 13  1  0  0  0  0
 19 22  1  0  0  0  0
 19 21  1  0  0  0  0
 20 19  1  0  0  0  0
 23 24  1  0  0  0  0
 23 32  1  0  0  0  0
 24  8  1  0  0  0  0
 25 26  1  0  0  0  0
 25 24  2  0  0  0  0
 27 25  1  0  0  0  0
 28 27  1  0  0  0  0
 29 27  2  0  0  0  0
 29 30  1  0  0  0  0
 30 23  2  0  0  0  0
 32 31  3  0  0  0  0
M  END
>  <minimizedAffinity>
-4.80528164

>  <minimizedRMSD>
1.36726153

$$$$
