
 OpenBabel03212520133D

 32 34  0  0  0  0  0  0  0  0999 V2000
   43.2300   83.6400   58.6700 Cl  0  0  0  0  0  0  0  0  0  0  0  0
   41.9090   82.5500   58.2770 C   0  0  0  0  0  0  0  0  0  0  0  0
   40.9810   82.1240   59.2220 C   0  0  0  0  0  0  0  0  0  0  0  0
   40.0010   81.2690   58.7600 C   0  0  0  0  0  0  0  0  0  0  0  0
   39.8740   80.8120   57.4640 C   0  0  0  0  0  0  0  0  0  0  0  0
   40.7980   81.2500   56.5690 C   0  0  0  0  0  0  0  0  0  0  0  0
   40.7300   80.7300   54.8870 Cl  0  0  0  0  0  0  0  0  0  0  0  0
   41.7980   82.1050   56.9760 C   0  0  0  0  0  0  0  0  0  0  0  0
   39.2600   80.9190   59.4840 H   0  0  0  0  0  0  0  0  0  0  0  0
   39.0600   80.1350   57.2000 H   0  0  0  0  0  0  0  0  0  0  0  0
   41.9020   82.0850   61.5810 C   0  0  0  0  0  0  0  0  0  0  0  0
   41.0970   82.5850   60.5640 C   0  0  0  0  0  0  0  0  0  0  0  0
   40.2880   83.6840   60.8850 C   0  0  0  0  0  0  0  0  0  0  0  0
   40.3490   84.1730   62.1530 N   0  0  0  0  0  0  0  0  0  0  0  0
   41.1390   83.6640   63.1040 C   0  0  0  0  0  0  0  0  0  0  0  0
   41.9160   82.6130   62.8060 N   0  0  0  0  0  0  0  0  0  0  0  0
   42.4950   81.2450   61.2680 H   0  0  0  0  0  0  0  0  0  0  0  0
   39.6220   84.1480   60.1610 H   0  0  0  0  0  0  0  0  0  0  0  0
   41.0870   84.3180   64.4370 C   0  0  0  0  0  0  0  0  0  0  0  0
   40.7420   85.6480   64.3360 F   0  0  0  0  0  0  0  0  0  0  0  0
   40.1160   83.6970   65.2180 F   0  0  0  0  0  0  0  0  0  0  0  0
   42.3160   84.2750   65.0670 F   0  0  0  0  0  0  0  0  0  0  0  0
   43.9800   81.9500   55.7060 C   0  0  0  0  0  0  0  0  0  0  0  0
   42.7810   82.5570   55.9800 C   0  0  0  0  0  0  0  0  0  0  0  0
   42.3620   83.7020   55.3180 C   0  0  0  0  0  0  0  0  0  0  0  0
   41.4280   84.2280   55.4880 H   0  0  0  0  0  0  0  0  0  0  0  0
   43.2110   84.2290   54.3460 C   0  0  0  0  0  0  0  0  0  0  0  0
   42.9180   85.1200   53.8100 H   0  0  0  0  0  0  0  0  0  0  0  0
   44.4150   83.6270   54.0650 C   0  0  0  0  0  3  0  0  0  0  0  0
   44.8200   82.4760   54.7410 C   0  0  0  0  0  3  0  0  0  0  0  0
   44.5300   79.8080   57.0670 N   0  0  0  0  0  0  0  0  0  0  0  0
   44.2870   80.7710   56.4660 C   0  0  0  0  0  0  0  0  0  0  0  0
  2  1  1  0  0  0  0
  2  3  1  0  0  0  0
  3 12  1  0  0  0  0
  4  3  2  0  0  0  0
  4  9  1  0  0  0  0
  5  4  1  0  0  0  0
  6  8  1  0  0  0  0
  6  5  2  0  0  0  0
  7  6  1  0  0  0  0
  8  2  2  0  0  0  0
 10  5  1  0  0  0  0
 11 16  1  0  0  0  0
 12 13  1  0  0  0  0
 12 11  2  0  0  0  0
 13 14  2  0  0  0  0
 14 15  1  0  0  0  0
 15 19  1  0  0  0  0
 16 15  2  0  0  0  0
 17 11  1  0  0  0  0
 18 13  1  0  0  0  0
 19 22  1  0  0  0  0
 19 21  1  0  0  0  0
 20 19  1  0  0  0  0
 23 24  1  0  0  0  0
 23 32  1  0  0  0  0
 24  8  1  0  0  0  0
 25 26  1  0  0  0  0
 25 24  2  0  0  0  0
 27 25  1  0  0  0  0
 28 27  1  0  0  0  0
 29 27  2  0  0  0  0
 29 30  1  0  0  0  0
 30 23  2  0  0  0  0
 32 31  3  0  0  0  0
M  END
>  <minimizedAffinity>
-4.99366951

>  <minimizedRMSD>
1.254287

$$$$
