
 OpenBabel03212520133D

 32 34  0  0  0  0  0  0  0  0999 V2000
   44.3460   82.7020   58.8140 Cl  0  0  0  0  0  0  0  0  0  0  0  0
   42.6660   82.7220   59.3270 C   0  0  0  0  0  0  0  0  0  0  0  0
   41.6160   82.9710   58.4490 C   0  0  0  0  0  0  0  0  0  0  0  0
   40.3520   82.9530   59.0030 C   0  0  0  0  0  0  0  0  0  0  0  0
   40.0540   82.7130   60.3290 C   0  0  0  0  0  0  0  0  0  0  0  0
   41.1060   82.4730   61.1560 C   0  0  0  0  0  0  0  0  0  0  0  0
   40.8410   82.1550   62.8690 Cl  0  0  0  0  0  0  0  0  0  0  0  0
   42.3890   82.4790   60.6560 C   0  0  0  0  0  0  0  0  0  0  0  0
   39.5090   83.1470   58.3330 H   0  0  0  0  0  0  0  0  0  0  0  0
   39.0170   82.7220   60.6670 H   0  0  0  0  0  0  0  0  0  0  0  0
   42.2390   84.4260   56.4720 C   0  0  0  0  0  0  0  0  0  0  0  0
   41.9030   83.2210   57.0780 C   0  0  0  0  0  0  0  0  0  0  0  0
   41.8340   82.0960   56.2440 C   0  0  0  0  0  0  0  0  0  0  0  0
   42.0970   82.2650   54.9200 N   0  0  0  0  0  0  0  0  0  0  0  0
   42.4170   83.4430   54.3740 C   0  0  0  0  0  0  0  0  0  0  0  0
   42.4860   84.5240   55.1640 N   0  0  0  0  0  0  0  0  0  0  0  0
   42.2730   85.2460   57.1660 H   0  0  0  0  0  0  0  0  0  0  0  0
   41.5800   81.1080   56.6200 H   0  0  0  0  0  0  0  0  0  0  0  0
   42.6750   83.4550   52.9120 C   0  0  0  0  0  0  0  0  0  0  0  0
   43.3780   82.3400   52.5120 F   0  0  0  0  0  0  0  0  0  0  0  0
   41.4620   83.4440   52.2300 F   0  0  0  0  0  0  0  0  0  0  0  0
   43.4280   84.5520   52.5420 F   0  0  0  0  0  0  0  0  0  0  0  0
   44.2010   83.1660   62.2820 C   0  0  0  0  0  0  0  0  0  0  0  0
   43.5010   82.2160   61.5810 C   0  0  0  0  0  0  0  0  0  0  0  0
   43.7860   80.8630   61.6810 C   0  0  0  0  0  0  0  0  0  0  0  0
   43.2710   80.0650   61.1560 H   0  0  0  0  0  0  0  0  0  0  0  0
   44.8240   80.4860   62.5320 C   0  0  0  0  0  0  0  0  0  0  0  0
   45.0760   79.4400   62.6360 H   0  0  0  0  0  0  0  0  0  0  0  0
   45.5320   81.4300   63.2380 C   0  0  0  0  0  3  0  0  0  0  0  0
   45.2310   82.7890   63.1250 C   0  0  0  0  0  3  0  0  0  0  0  0
   43.4660   85.6330   61.9400 N   0  0  0  0  0  0  0  0  0  0  0  0
   43.8000   84.5310   62.0840 C   0  0  0  0  0  0  0  0  0  0  0  0
  1  2  1  0  0  0  0
  2  8  1  0  0  0  0
  3  4  1  0  0  0  0
  3  2  2  0  0  0  0
  4  5  2  0  0  0  0
  5 10  1  0  0  0  0
  5  6  1  0  0  0  0
  6  7  1  0  0  0  0
  8  6  2  0  0  0  0
  8 24  1  0  0  0  0
  9  4  1  0  0  0  0
 11 12  1  0  0  0  0
 11 17  1  0  0  0  0
 12  3  1  0  0  0  0
 13 18  1  0  0  0  0
 13 12  2  0  0  0  0
 14 13  1  0  0  0  0
 15 14  2  0  0  0  0
 15 16  1  0  0  0  0
 16 11  2  0  0  0  0
 19 15  1  0  0  0  0
 20 19  1  0  0  0  0
 21 19  1  0  0  0  0
 22 19  1  0  0  0  0
 23 30  1  0  0  0  0
 24 25  1  0  0  0  0
 24 23  2  0  0  0  0
 25 27  2  0  0  0  0
 26 25  1  0  0  0  0
 27 28  1  0  0  0  0
 27 29  1  0  0  0  0
 30 29  2  0  0  0  0
 31 32  3  0  0  0  0
 32 23  1  0  0  0  0
M  END
>  <minimizedAffinity>
-5.01392651

>  <minimizedRMSD>
7.95582819

$$$$
