
 OpenBabel03212520133D

 32 34  0  0  0  0  0  0  0  0999 V2000
   41.1250   82.7060   57.0180 Cl  0  0  0  0  0  0  0  0  0  0  0  0
   40.8020   81.5480   58.2990 C   0  0  0  0  0  0  0  0  0  0  0  0
   40.0640   80.3870   58.0920 C   0  0  0  0  0  0  0  0  0  0  0  0
   39.8960   79.5760   59.1970 C   0  0  0  0  0  0  0  0  0  0  0  0
   40.3920   79.8220   60.4610 C   0  0  0  0  0  0  0  0  0  0  0  0
   41.1090   80.9650   60.6240 C   0  0  0  0  0  0  0  0  0  0  0  0
   41.7880   81.3780   62.1970 Cl  0  0  0  0  0  0  0  0  0  0  0  0
   41.3060   81.8100   59.5550 C   0  0  0  0  0  0  0  0  0  0  0  0
   39.3190   78.6580   59.0610 H   0  0  0  0  0  0  0  0  0  0  0  0
   40.2020   79.1140   61.2700 H   0  0  0  0  0  0  0  0  0  0  0  0
   38.3830   80.6080   56.2110 C   0  0  0  0  0  0  0  0  0  0  0  0
   39.5450   80.1170   56.7950 C   0  0  0  0  0  0  0  0  0  0  0  0
   40.3160   79.2400   56.0190 C   0  0  0  0  0  0  0  0  0  0  0  0
   39.8760   78.9390   54.7670 N   0  0  0  0  0  0  0  0  0  0  0  0
   38.7500   79.4340   54.2410 C   0  0  0  0  0  0  0  0  0  0  0  0
   38.0060   80.2730   54.9750 N   0  0  0  0  0  0  0  0  0  0  0  0
   37.8400   81.2720   56.8590 H   0  0  0  0  0  0  0  0  0  0  0  0
   41.2420   78.8010   56.3830 H   0  0  0  0  0  0  0  0  0  0  0  0
   38.4130   79.0040   52.8600 C   0  0  0  0  0  0  0  0  0  0  0  0
   39.5450   78.8040   52.1010 F   0  0  0  0  0  0  0  0  0  0  0  0
   37.7290   77.7920   52.9080 F   0  0  0  0  0  0  0  0  0  0  0  0
   37.6600   79.9590   52.2050 F   0  0  0  0  0  0  0  0  0  0  0  0
   41.5850   84.2410   60.2000 C   0  0  0  0  0  0  0  0  0  0  0  0
   42.0860   83.0390   59.7690 C   0  0  0  0  0  0  0  0  0  0  0  0
   43.4320   82.8570   59.4820 C   0  0  0  0  0  0  0  0  0  0  0  0
   43.8880   81.9350   59.1400 H   0  0  0  0  0  0  0  0  0  0  0  0
   44.2770   83.9540   59.6480 C   0  0  0  0  0  0  0  0  0  0  0  0
   45.3310   83.8500   59.4330 H   0  0  0  0  0  0  0  0  0  0  0  0
   43.7830   85.1630   60.0780 C   0  0  0  0  0  0  0  0  0  0  0  0
   42.4270   85.3270   60.3620 C   0  0  0  0  0  0  0  0  0  0  0  0
   39.0340   84.3410   60.6790 N   0  0  0  0  0  0  0  0  0  0  0  0
   40.1740   84.2870   60.4600 C   0  0  0  0  0  0  0  0  0  0  0  0
  1  2  1  0  0  0  0
  2  8  1  0  0  0  0
  3  2  2  0  0  0  0
  3  4  1  0  0  0  0
  4  5  2  0  0  0  0
  5  6  1  0  0  0  0
  5 10  1  0  0  0  0
  6  7  1  0  0  0  0
  8 24  1  0  0  0  0
  8  6  2  0  0  0  0
  9  4  1  0  0  0  0
 11 12  1  0  0  0  0
 11 17  1  0  0  0  0
 12  3  1  0  0  0  0
 13 18  1  0  0  0  0
 13 12  2  0  0  0  0
 14 13  1  0  0  0  0
 15 14  2  0  0  0  0
 15 16  1  0  0  0  0
 16 11  2  0  0  0  0
 19 21  1  0  0  0  0
 19 15  1  0  0  0  0
 20 19  1  0  0  0  0
 22 19  1  0  0  0  0
 23 30  1  0  0  0  0
 23 32  1  0  0  0  0
 24 23  2  0  0  0  0
 25 27  2  0  0  0  0
 25 24  1  0  0  0  0
 26 25  1  0  0  0  0
 27 29  1  0  0  0  0
 28 27  1  0  0  0  0
 29 30  2  0  0  0  0
 32 31  3  0  0  0  0
M  END
>  <minimizedAffinity>
-5.2205615

>  <minimizedRMSD>
7.58802891

$$$$
