
 OpenBabel03212520133D

 32 34  0  0  0  0  0  0  0  0999 V2000
   42.4030   82.0860   58.0810 Cl  0  0  0  0  0  0  0  0  0  0  0  0
   41.5120   82.2220   59.5890 C   0  0  0  0  0  0  0  0  0  0  0  0
   40.4440   81.3880   59.9060 C   0  0  0  0  0  0  0  0  0  0  0  0
   39.8440   81.6180   61.1280 C   0  0  0  0  0  0  0  0  0  0  0  0
   40.2120   82.5890   62.0380 C   0  0  0  0  0  0  0  0  0  0  0  0
   41.2600   83.3830   61.6930 C   0  0  0  0  0  0  0  0  0  0  0  0
   41.8130   84.6540   62.7800 Cl  0  0  0  0  0  0  0  0  0  0  0  0
   41.8940   83.1970   60.4860 C   0  0  0  0  0  0  0  0  0  0  0  0
   39.0020   80.9770   61.4010 H   0  0  0  0  0  0  0  0  0  0  0  0
   39.6700   82.6880   62.9800 H   0  0  0  0  0  0  0  0  0  0  0  0
   39.5330   80.5420   57.7000 C   0  0  0  0  0  0  0  0  0  0  0  0
   40.0510   80.3820   58.9800 C   0  0  0  0  0  0  0  0  0  0  0  0
   40.2110   79.0640   59.4330 C   0  0  0  0  0  0  0  0  0  0  0  0
   39.8530   78.0530   58.5970 N   0  0  0  0  0  0  0  0  0  0  0  0
   39.3590   78.2490   57.3700 C   0  0  0  0  0  0  0  0  0  0  0  0
   39.2020   79.5050   56.9280 N   0  0  0  0  0  0  0  0  0  0  0  0
   39.4360   81.5740   57.4160 H   0  0  0  0  0  0  0  0  0  0  0  0
   40.6080   78.8320   60.4190 H   0  0  0  0  0  0  0  0  0  0  0  0
   39.0190   77.0350   56.5850 C   0  0  0  0  0  0  0  0  0  0  0  0
   40.0320   76.1030   56.6280 F   0  0  0  0  0  0  0  0  0  0  0  0
   37.8850   76.4370   57.1270 F   0  0  0  0  0  0  0  0  0  0  0  0
   38.8160   77.3380   55.2520 F   0  0  0  0  0  0  0  0  0  0  0  0
   42.9560   85.1960   59.3570 C   0  0  0  0  0  0  0  0  0  0  0  0
   43.0230   84.0760   60.1460 C   0  0  0  0  0  0  0  0  0  0  0  0
   44.2090   83.6450   60.7220 C   0  0  0  0  0  0  0  0  0  0  0  0
   44.3280   82.7720   61.3540 H   0  0  0  0  0  0  0  0  0  0  0  0
   45.3550   84.4000   60.4730 C   0  0  0  0  0  0  0  0  0  0  0  0
   46.2980   84.0960   60.9050 H   0  0  0  0  0  0  0  0  0  0  0  0
   45.2980   85.5240   59.6840 C   0  0  0  0  0  3  0  0  0  0  0  0
   44.0950   85.9420   59.1110 C   0  0  0  0  0  3  0  0  0  0  0  0
   40.6180   85.8050   58.4080 N   0  0  0  0  0  0  0  0  0  0  0  0
   41.6640   85.5250   58.8240 C   0  0  0  0  0  0  0  0  0  0  0  0
  1  2  1  0  0  0  0
  2  3  2  0  0  0  0
  2  8  1  0  0  0  0
  3  4  1  0  0  0  0
  4  9  1  0  0  0  0
  4  5  2  0  0  0  0
  5 10  1  0  0  0  0
  6  5  1  0  0  0  0
  6  7  1  0  0  0  0
  8  6  2  0  0  0  0
 11 12  1  0  0  0  0
 12 13  2  0  0  0  0
 12  3  1  0  0  0  0
 13 18  1  0  0  0  0
 14 13  1  0  0  0  0
 15 14  2  0  0  0  0
 16 15  1  0  0  0  0
 16 11  2  0  0  0  0
 17 11  1  0  0  0  0
 19 20  1  0  0  0  0
 19 21  1  0  0  0  0
 19 15  1  0  0  0  0
 22 19  1  0  0  0  0
 23 24  1  0  0  0  0
 24  8  1  0  0  0  0
 24 25  2  0  0  0  0
 25 26  1  0  0  0  0
 27 25  1  0  0  0  0
 27 28  1  0  0  0  0
 29 27  2  0  0  0  0
 30 23  2  0  0  0  0
 30 29  1  0  0  0  0
 31 32  3  0  0  0  0
 32 23  1  0  0  0  0
M  END
>  <minimizedAffinity>
-4.80836439

>  <minimizedRMSD>
6.75470495

$$$$
