
 OpenBabel03212521063D

 37 40  0  0  0  0  0  0  0  0999 V2000
   41.8450   84.2440   61.6140 C   0  0  0  0  0  0  0  0  0  0  0  0
   41.4610   83.9920   62.9240 C   0  0  0  0  0  0  0  0  0  0  0  0
   40.1910   83.5760   63.2530 C   0  0  0  0  0  0  0  0  0  0  0  0
   39.2520   83.4010   62.2420 C   0  0  0  0  0  0  0  0  0  0  0  0
   39.6260   83.6500   60.9260 C   0  0  0  0  0  0  0  0  0  0  0  0
   40.9020   84.0670   60.6090 C   0  0  0  0  0  0  0  0  0  0  0  0
   42.1360   84.1070   63.7580 H   0  0  0  0  0  0  0  0  0  0  0  0
   39.8680   83.3740   64.2650 H   0  0  0  0  0  0  0  0  0  0  0  0
   38.2460   83.0730   62.4860 H   0  0  0  0  0  0  0  0  0  0  0  0
   38.8510   83.4950   60.1920 H   0  0  0  0  0  0  0  0  0  0  0  0
   45.4020   84.1290   60.7850 C   0  0  0  0  0  0  0  0  0  0  0  0
   45.7630   85.4830   60.7870 C   0  0  0  0  0  0  0  0  0  0  0  0
   44.7670   86.4300   61.0780 C   0  0  0  0  0  0  0  0  0  0  0  0
   43.5080   85.9930   61.3410 N   0  0  0  0  0  0  0  0  0  0  0  0
   43.1940   84.6790   61.3300 C   0  0  0  0  0  0  0  0  0  0  0  0
   44.1340   83.7860   61.0560 N   0  0  0  0  0  0  0  0  0  0  0  0
   46.0850   83.3150   60.5750 H   0  0  0  0  0  0  0  0  0  0  0  0
   46.7950   85.7150   60.5640 H   0  0  0  0  0  0  0  0  0  0  0  0
   45.0590   87.4690   61.0770 H   0  0  0  0  0  0  0  0  0  0  0  0
   41.2410   84.3130   59.2240 C   0  0  0  0  0  0  0  0  0  0  0  0
   40.7450   85.5500   58.7920 C   0  0  0  0  0  0  0  0  0  0  0  0
   40.9630   85.9810   57.4850 C   0  0  0  0  0  0  0  0  0  0  0  0
   41.6590   85.1660   56.6740 N   0  0  0  0  0  0  0  0  0  0  0  0
   42.1400   83.9630   57.1010 C   0  0  0  0  0  0  0  0  0  0  0  0
   41.9290   83.5490   58.3650 N   0  0  0  0  0  0  0  0  0  0  0  0
   40.1780   86.2550   59.3870 H   0  0  0  0  0  0  0  0  0  0  0  0
   40.5850   86.9430   57.1220 H   0  0  0  0  0  0  0  0  0  0  0  0
   42.3130   81.9070   55.7870 C   0  0  0  0  0  0  0  0  0  0  0  0
   42.8950   83.0960   56.2000 C   0  0  0  0  0  0  0  0  0  0  0  0
   44.1580   83.4360   55.7620 C   0  0  0  0  0  0  0  0  0  0  0  0
   44.6170   84.3790   56.0910 H   0  0  0  0  0  0  0  0  0  0  0  0
   44.8470   82.5880   54.9060 C   0  0  0  0  0  0  0  0  0  0  0  0
   45.8380   82.8540   54.5620 H   0  0  0  0  0  0  0  0  0  0  0  0
   44.2210   81.4030   54.5160 C   0  0  0  0  0  3  0  0  0  0  0  0
   42.9600   81.0320   54.9370 C   0  0  0  0  0  3  0  0  0  0  0  0
   39.9190   81.1910   56.5620 N   0  0  0  0  0  0  0  0  0  0  0  0
   40.9890   81.5110   56.2230 C   0  0  0  0  0  0  0  0  0  0  0  0
  1  2  1  0  0  0  0
  2  3  2  0  0  0  0
  2  7  1  0  0  0  0
  3  8  1  0  0  0  0
  4  9  1  0  0  0  0
  4  3  1  0  0  0  0
  5  4  2  0  0  0  0
  6  5  1  0  0  0  0
  6  1  2  0  0  0  0
 10  5  1  0  0  0  0
 11 12  2  0  0  0  0
 11 16  1  0  0  0  0
 12 13  1  0  0  0  0
 13 14  2  0  0  0  0
 15 14  1  0  0  0  0
 15  1  1  0  0  0  0
 16 15  2  0  0  0  0
 17 11  1  0  0  0  0
 18 12  1  0  0  0  0
 19 13  1  0  0  0  0
 20  6  1  0  0  0  0
 21 20  1  0  0  0  0
 21 26  1  0  0  0  0
 22 21  2  0  0  0  0
 23 24  2  0  0  0  0
 23 22  1  0  0  0  0
 24 25  1  0  0  0  0
 25 20  2  0  0  0  0
 27 22  1  0  0  0  0
 28 29  1  0  0  0  0
 28 37  1  0  0  0  0
 29 24  1  0  0  0  0
 30 31  1  0  0  0  0
 30 29  2  0  0  0  0
 32 30  1  0  0  0  0
 33 32  1  0  0  0  0
 34 32  2  0  0  0  0
 34 35  1  0  0  0  0
 35 28  2  0  0  0  0
 37 36  3  0  0  0  0
M  END
>  <minimizedAffinity>
-5.45017815

>  <minimizedRMSD>
0.86291337

$$$$
