
 OpenBabel03212521063D

 37 40  0  0  0  0  0  0  0  0999 V2000
   42.5210   83.2110   62.9120 C   0  0  0  0  0  0  0  0  0  0  0  0
   42.7320   84.0620   63.9880 C   0  0  0  0  0  0  0  0  0  0  0  0
   41.7010   84.5400   64.7630 C   0  0  0  0  0  0  0  0  0  0  0  0
   40.3960   84.1620   64.4640 C   0  0  0  0  0  0  0  0  0  0  0  0
   40.1740   83.3090   63.3890 C   0  0  0  0  0  0  0  0  0  0  0  0
   41.2160   82.8370   62.6190 C   0  0  0  0  0  0  0  0  0  0  0  0
   43.7170   84.3960   64.2770 H   0  0  0  0  0  0  0  0  0  0  0  0
   41.8400   85.2040   65.6060 H   0  0  0  0  0  0  0  0  0  0  0  0
   39.5730   84.5310   65.0670 H   0  0  0  0  0  0  0  0  0  0  0  0
   39.1400   83.0560   63.2110 H   0  0  0  0  0  0  0  0  0  0  0  0
   45.3550   81.1730   61.8280 C   0  0  0  0  0  0  0  0  0  0  0  0
   45.7840   81.8320   60.6690 C   0  0  0  0  0  0  0  0  0  0  0  0
   45.0840   82.9830   60.2690 C   0  0  0  0  0  0  0  0  0  0  0  0
   44.0320   83.4020   61.0200 N   0  0  0  0  0  0  0  0  0  0  0  0
   43.6450   82.7410   62.1330 C   0  0  0  0  0  0  0  0  0  0  0  0
   44.3050   81.6560   62.5100 N   0  0  0  0  0  0  0  0  0  0  0  0
   45.8170   80.2790   62.2290 H   0  0  0  0  0  0  0  0  0  0  0  0
   46.6330   81.4100   60.1510 H   0  0  0  0  0  0  0  0  0  0  0  0
   45.4260   83.4820   59.3750 H   0  0  0  0  0  0  0  0  0  0  0  0
   40.9310   81.9520   61.5090 C   0  0  0  0  0  0  0  0  0  0  0  0
   40.4410   82.6630   60.4050 C   0  0  0  0  0  0  0  0  0  0  0  0
   40.1040   81.9960   59.2290 C   0  0  0  0  0  0  0  0  0  0  0  0
   40.2680   80.6620   59.2060 N   0  0  0  0  0  0  0  0  0  0  0  0
   40.7460   79.9760   60.2840 C   0  0  0  0  0  0  0  0  0  0  0  0
   41.0720   80.6230   61.4200 N   0  0  0  0  0  0  0  0  0  0  0  0
   40.2830   83.7320   60.3520 H   0  0  0  0  0  0  0  0  0  0  0  0
   39.7190   82.5280   58.3530 H   0  0  0  0  0  0  0  0  0  0  0  0
   42.0570   78.0160   59.6340 C   0  0  0  0  0  0  0  0  0  0  0  0
   40.9160   78.5270   60.2340 C   0  0  0  0  0  0  0  0  0  0  0  0
   39.9730   77.6720   60.7670 C   0  0  0  0  0  0  0  0  0  0  0  0
   39.0710   78.0790   61.2430 H   0  0  0  0  0  0  0  0  0  0  0  0
   40.1670   76.3000   60.7030 C   0  0  0  0  0  0  0  0  0  0  0  0
   39.4280   75.6280   61.1210 H   0  0  0  0  0  0  0  0  0  0  0  0
   41.3300   75.8310   60.0890 C   0  0  0  0  0  3  0  0  0  0  0  0
   42.2920   76.6580   59.5460 C   0  0  0  0  0  3  0  0  0  0  0  0
   43.8970   79.5660   58.6080 N   0  0  0  0  0  0  0  0  0  0  0  0
   43.0720   78.8770   59.0610 C   0  0  0  0  0  0  0  0  0  0  0  0
  1  2  1  0  0  0  0
  2  7  1  0  0  0  0
  2  3  2  0  0  0  0
  3  8  1  0  0  0  0
  4  3  1  0  0  0  0
  4  9  1  0  0  0  0
  5  4  2  0  0  0  0
  6  1  2  0  0  0  0
  6  5  1  0  0  0  0
 10  5  1  0  0  0  0
 11 17  1  0  0  0  0
 11 16  1  0  0  0  0
 12 11  2  0  0  0  0
 13 12  1  0  0  0  0
 13 14  2  0  0  0  0
 14 15  1  0  0  0  0
 15 16  2  0  0  0  0
 15  1  1  0  0  0  0
 18 12  1  0  0  0  0
 19 13  1  0  0  0  0
 20  6  1  0  0  0  0
 21 20  2  0  0  0  0
 22 21  1  0  0  0  0
 23 22  2  0  0  0  0
 23 24  1  0  0  0  0
 24 25  2  0  0  0  0
 25 20  1  0  0  0  0
 26 21  1  0  0  0  0
 27 22  1  0  0  0  0
 28 29  1  0  0  0  0
 29 24  1  0  0  0  0
 29 30  2  0  0  0  0
 30 31  1  0  0  0  0
 32 30  1  0  0  0  0
 32 33  1  0  0  0  0
 34 32  2  0  0  0  0
 35 28  2  0  0  0  0
 35 34  1  0  0  0  0
 36 37  3  0  0  0  0
 37 28  1  0  0  0  0
M  END
>  <minimizedAffinity>
-5.05407953

>  <minimizedRMSD>
5.10651207

$$$$
