
 OpenBabel03212520463D

 21 22  0  0  0  0  0  0  0  0999 V2000
   40.6740   85.5700   58.2690 C   0  0  0  0  0  0  0  0  0  0  0  0
   41.5530   84.8570   57.4390 C   0  0  0  0  0  0  0  0  0  0  0  0
   42.4140   83.9230   58.0510 C   0  0  0  0  0  0  0  0  0  0  0  0
   42.3290   83.7820   59.3910 N   0  0  0  0  0  0  0  0  0  0  0  0
   41.4760   84.4830   60.1480 C   0  0  0  0  0  0  0  0  0  0  0  0
   40.6530   85.3740   59.5810 N   0  0  0  0  0  0  0  0  0  0  0  0
   39.8750   86.4660   57.5190 N   0  0  0  0  0  0  0  0  0  0  0  0
   41.6530   84.9390   56.3630 H   0  0  0  0  0  0  0  0  0  0  0  0
   43.1200   83.3380   57.4680 H   0  0  0  0  0  0  0  0  0  0  0  0
   39.0550   86.0290   57.0390 H   0  0  0  0  0  0  0  0  0  0  0  0
   40.1970   87.4790   57.5290 H   0  0  0  0  0  0  0  0  0  0  0  0
   42.4690   84.7130   62.4210 C   0  0  0  0  0  0  0  0  0  0  0  0
   41.4770   84.2430   61.5870 C   0  0  0  0  0  0  0  0  0  0  0  0
   40.4360   83.5140   62.1280 C   0  0  0  0  0  0  0  0  0  0  0  0
   39.6280   83.1230   61.5010 H   0  0  0  0  0  0  0  0  0  0  0  0
   40.3290   83.2220   63.4790 C   0  0  0  0  0  0  0  0  0  0  0  0
   39.5260   82.6590   63.8970 H   0  0  0  0  0  0  0  0  0  0  0  0
   41.3460   83.7070   64.3090 C   0  0  0  0  0  3  0  0  0  0  0  0
   42.3820   84.4310   63.7830 C   0  0  0  0  0  3  0  0  0  0  0  0
   44.4440   86.0660   61.4480 N   0  0  0  0  0  0  0  0  0  0  0  0
   43.5560   85.4700   61.8850 C   0  0  0  0  0  0  0  0  0  0  0  0
  1  6  1  0  0  0  0
  2  3  1  0  0  0  0
  2  1  2  0  0  0  0
  3  4  2  0  0  0  0
  4  5  1  0  0  0  0
  5 13  1  0  0  0  0
  6  5  2  0  0  0  0
  7 11  1  0  0  0  0
  7  1  1  0  0  0  0
  8  2  1  0  0  0  0
  9  3  1  0  0  0  0
 10  7  1  0  0  0  0
 12 19  1  0  0  0  0
 13 14  1  0  0  0  0
 13 12  2  0  0  0  0
 14 16  2  0  0  0  0
 15 14  1  0  0  0  0
 16 17  1  0  0  0  0
 16 18  1  0  0  0  0
 19 18  2  0  0  0  0
 20 21  3  0  0  0  0
 21 12  1  0  0  0  0
M  END
>  <minimizedAffinity>
-4.09186602

>  <minimizedRMSD>
4.20039463

$$$$
