
 OpenBabel03212520463D

 21 22  0  0  0  0  0  0  0  0999 V2000
   38.1270   73.9500   57.8900 C   0  0  0  0  0  0  0  0  0  0  0  0
   37.9740   75.3430   57.8190 C   0  0  0  0  0  0  0  0  0  0  0  0
   38.8200   76.1340   58.6230 C   0  0  0  0  0  0  0  0  0  0  0  0
   39.7160   75.4930   59.4030 N   0  0  0  0  0  0  0  0  0  0  0  0
   39.8300   74.1590   59.4420 C   0  0  0  0  0  0  0  0  0  0  0  0
   39.0340   73.3960   58.6840 N   0  0  0  0  0  0  0  0  0  0  0  0
   37.2150   73.2900   57.0320 N   0  0  0  0  0  0  0  0  0  0  0  0
   37.2700   75.8970   57.2080 H   0  0  0  0  0  0  0  0  0  0  0  0
   38.7540   77.2190   58.6180 H   0  0  0  0  0  0  0  0  0  0  0  0
   37.4990   73.2620   56.0250 H   0  0  0  0  0  0  0  0  0  0  0  0
   36.3480   72.8980   57.5050 H   0  0  0  0  0  0  0  0  0  0  0  0
   42.1860   73.6210   60.0460 C   0  0  0  0  0  0  0  0  0  0  0  0
   40.8370   73.5810   60.3260 C   0  0  0  0  0  0  0  0  0  0  0  0
   40.4100   72.9730   61.4890 C   0  0  0  0  0  0  0  0  0  0  0  0
   39.3480   72.9200   61.7500 H   0  0  0  0  0  0  0  0  0  0  0  0
   41.2710   72.3880   62.4070 C   0  0  0  0  0  0  0  0  0  0  0  0
   40.9430   71.9180   63.3050 H   0  0  0  0  0  0  0  0  0  0  0  0
   42.6370   72.4380   62.1050 C   0  0  0  0  0  3  0  0  0  0  0  0
   43.0700   73.0390   60.9540 C   0  0  0  0  0  3  0  0  0  0  0  0
   43.0450   74.7480   57.8860 N   0  0  0  0  0  0  0  0  0  0  0  0
   42.6520   74.2450   58.8490 C   0  0  0  0  0  0  0  0  0  0  0  0
  1  6  1  0  0  0  0
  2  1  2  0  0  0  0
  2  3  1  0  0  0  0
  3  4  2  0  0  0  0
  4  5  1  0  0  0  0
  5 13  1  0  0  0  0
  6  5  2  0  0  0  0
  7 11  1  0  0  0  0
  7  1  1  0  0  0  0
  8  2  1  0  0  0  0
  9  3  1  0  0  0  0
 10  7  1  0  0  0  0
 12 13  2  0  0  0  0
 12 19  1  0  0  0  0
 13 14  1  0  0  0  0
 14 15  1  0  0  0  0
 14 16  2  0  0  0  0
 16 17  1  0  0  0  0
 18 16  1  0  0  0  0
 19 18  2  0  0  0  0
 20 21  3  0  0  0  0
 21 12  1  0  0  0  0
M  END
>  <minimizedAffinity>
-4.61207628

$$$$

 OpenBabel03212520463D

 21 22  0  0  0  0  0  0  0  0999 V2000
   39.5360   72.0890   57.3910 C   0  0  0  0  0  0  0  0  0  0  0  0
   40.2470   71.0410   57.9970 C   0  0  0  0  0  0  0  0  0  0  0  0
   41.1260   71.3730   59.0480 C   0  0  0  0  0  0  0  0  0  0  0  0
   41.2200   72.6740   59.3960 N   0  0  0  0  0  0  0  0  0  0  0  0
   40.5240   73.6440   58.7910 C   0  0  0  0  0  0  0  0  0  0  0  0
   39.6860   73.3450   57.7910 N   0  0  0  0  0  0  0  0  0  0  0  0
   38.6970   71.6080   56.3580 N   0  0  0  0  0  0  0  0  0  0  0  0
   40.2010   69.9870   57.7510 H   0  0  0  0  0  0  0  0  0  0  0  0
   41.7070   70.6110   59.5610 H   0  0  0  0  0  0  0  0  0  0  0  0
   37.7930   71.1930   56.6820 H   0  0  0  0  0  0  0  0  0  0  0  0
   39.0780   71.7230   55.3730 H   0  0  0  0  0  0  0  0  0  0  0  0
   39.8920   75.6020   60.1950 C   0  0  0  0  0  0  0  0  0  0  0  0
   40.7110   75.0150   59.2550 C   0  0  0  0  0  0  0  0  0  0  0  0
   41.7550   75.7450   58.7240 C   0  0  0  0  0  0  0  0  0  0  0  0
   42.4290   75.3170   57.9750 H   0  0  0  0  0  0  0  0  0  0  0  0
   42.0330   77.0560   59.0850 C   0  0  0  0  0  0  0  0  0  0  0  0
   42.8380   77.6210   58.6760 H   0  0  0  0  0  0  0  0  0  0  0  0
   41.1900   77.6350   60.0410 C   0  0  0  0  0  3  0  0  0  0  0  0
   40.1530   76.9190   60.5730 C   0  0  0  0  0  3  0  0  0  0  0  0
   37.9350   74.2560   61.2120 N   0  0  0  0  0  0  0  0  0  0  0  0
   38.8060   74.8670   60.7590 C   0  0  0  0  0  0  0  0  0  0  0  0
  1  6  2  0  0  0  0
  1  2  1  0  0  0  0
  2  3  2  0  0  0  0
  3  4  1  0  0  0  0
  3  9  1  0  0  0  0
  5 13  1  0  0  0  0
  5  4  2  0  0  0  0
  6  5  1  0  0  0  0
  7 10  1  0  0  0  0
  7  1  1  0  0  0  0
  8  2  1  0  0  0  0
 11  7  1  0  0  0  0
 12 19  1  0  0  0  0
 12 21  1  0  0  0  0
 13 12  2  0  0  0  0
 14 16  2  0  0  0  0
 14 13  1  0  0  0  0
 15 14  1  0  0  0  0
 16 18  1  0  0  0  0
 17 16  1  0  0  0  0
 18 19  2  0  0  0  0
 21 20  3  0  0  0  0
M  END
>  <minimizedAffinity>
-4.57545185

$$$$

 OpenBabel03212520463D

 21 22  0  0  0  0  0  0  0  0999 V2000
   41.3390   72.1250   62.1560 C   0  0  0  0  0  0  0  0  0  0  0  0
   42.7140   72.0170   61.9020 C   0  0  0  0  0  0  0  0  0  0  0  0
   43.2590   72.8460   60.9010 C   0  0  0  0  0  0  0  0  0  0  0  0
   42.4170   73.6850   60.2590 N   0  0  0  0  0  0  0  0  0  0  0  0
   41.1080   73.7570   60.5320 C   0  0  0  0  0  0  0  0  0  0  0  0
   40.5770   72.9750   61.4800 N   0  0  0  0  0  0  0  0  0  0  0  0
   40.9360   71.2360   63.1810 N   0  0  0  0  0  0  0  0  0  0  0  0
   43.4240   71.3600   62.3920 H   0  0  0  0  0  0  0  0  0  0  0  0
   44.3170   72.8140   60.6520 H   0  0  0  0  0  0  0  0  0  0  0  0
   41.1330   71.5670   64.1540 H   0  0  0  0  0  0  0  0  0  0  0  0
   40.4790   70.3360   62.8490 H   0  0  0  0  0  0  0  0  0  0  0  0
   39.4510   74.3100   58.7560 C   0  0  0  0  0  0  0  0  0  0  0  0
   40.2990   74.7020   59.7700 C   0  0  0  0  0  0  0  0  0  0  0  0
   40.3920   76.0420   60.0870 C   0  0  0  0  0  0  0  0  0  0  0  0
   41.0530   76.3960   60.8850 H   0  0  0  0  0  0  0  0  0  0  0  0
   39.6740   77.0330   59.4340 C   0  0  0  0  0  0  0  0  0  0  0  0
   39.7450   78.0690   59.6770 H   0  0  0  0  0  0  0  0  0  0  0  0
   38.8190   76.6160   58.4070 C   0  0  0  0  0  3  0  0  0  0  0  0
   38.7200   75.2890   58.0870 C   0  0  0  0  0  3  0  0  0  0  0  0
   39.2330   71.8150   58.1200 N   0  0  0  0  0  0  0  0  0  0  0  0
   39.3380   72.9290   58.4110 C   0  0  0  0  0  0  0  0  0  0  0  0
  1  7  1  0  0  0  0
  2  1  1  0  0  0  0
  2  8  1  0  0  0  0
  3  2  2  0  0  0  0
  4  5  2  0  0  0  0
  4  3  1  0  0  0  0
  5  6  1  0  0  0  0
  6  1  2  0  0  0  0
  7 10  1  0  0  0  0
  9  3  1  0  0  0  0
 11  7  1  0  0  0  0
 12 13  1  0  0  0  0
 13 14  2  0  0  0  0
 13  5  1  0  0  0  0
 14 15  1  0  0  0  0
 16 17  1  0  0  0  0
 16 14  1  0  0  0  0
 18 16  2  0  0  0  0
 19 18  1  0  0  0  0
 19 12  2  0  0  0  0
 20 21  3  0  0  0  0
 21 12  1  0  0  0  0
M  END
>  <minimizedAffinity>
-4.56834745

$$$$

 OpenBabel03212520463D

 21 22  0  0  0  0  0  0  0  0999 V2000
   39.0790   76.3210   54.9740 C   0  0  0  0  0  0  0  0  0  0  0  0
   37.7550   76.6570   54.6480 C   0  0  0  0  0  0  0  0  0  0  0  0
   36.7800   76.5120   55.6560 C   0  0  0  0  0  0  0  0  0  0  0  0
   37.1890   76.0610   56.8600 N   0  0  0  0  0  0  0  0  0  0  0  0
   38.4630   75.7510   57.1310 C   0  0  0  0  0  0  0  0  0  0  0  0
   39.4010   75.8830   56.1850 N   0  0  0  0  0  0  0  0  0  0  0  0
   39.9430   76.5170   53.8710 N   0  0  0  0  0  0  0  0  0  0  0  0
   37.3850   77.0220   53.6980 H   0  0  0  0  0  0  0  0  0  0  0  0
   35.7360   76.7530   55.4710 H   0  0  0  0  0  0  0  0  0  0  0  0
   40.2420   77.5080   53.7150 H   0  0  0  0  0  0  0  0  0  0  0  0
   40.1920   75.6390   53.3270 H   0  0  0  0  0  0  0  0  0  0  0  0
   38.7360   73.9390   58.8180 C   0  0  0  0  0  0  0  0  0  0  0  0
   38.7850   75.2720   58.4710 C   0  0  0  0  0  0  0  0  0  0  0  0
   39.1520   76.2010   59.4240 C   0  0  0  0  0  0  0  0  0  0  0  0
   39.2030   77.2690   59.1900 H   0  0  0  0  0  0  0  0  0  0  0  0
   39.4790   75.8670   60.7300 C   0  0  0  0  0  0  0  0  0  0  0  0
   39.7630   76.5830   61.4670 H   0  0  0  0  0  0  0  0  0  0  0  0
   39.4240   74.5090   61.0640 C   0  0  0  0  0  3  0  0  0  0  0  0
   39.0610   73.5810   60.1250 C   0  0  0  0  0  3  0  0  0  0  0  0
   38.0470   72.1570   57.0780 N   0  0  0  0  0  0  0  0  0  0  0  0
   38.3590   72.9600   57.8500 C   0  0  0  0  0  0  0  0  0  0  0  0
  1  6  1  0  0  0  0
  2  1  2  0  0  0  0
  2  3  1  0  0  0  0
  3  4  2  0  0  0  0
  4  5  1  0  0  0  0
  5 13  1  0  0  0  0
  6  5  2  0  0  0  0
  7  1  1  0  0  0  0
  8  2  1  0  0  0  0
  9  3  1  0  0  0  0
 10  7  1  0  0  0  0
 11  7  1  0  0  0  0
 12 19  1  0  0  0  0
 13 12  2  0  0  0  0
 13 14  1  0  0  0  0
 14 16  2  0  0  0  0
 15 14  1  0  0  0  0
 16 18  1  0  0  0  0
 16 17  1  0  0  0  0
 19 18  2  0  0  0  0
 20 21  3  0  0  0  0
 21 12  1  0  0  0  0
M  END
>  <minimizedAffinity>
-4.53915167

$$$$

 OpenBabel03212520463D

 21 22  0  0  0  0  0  0  0  0999 V2000
   42.1290   70.0540   60.9390 C   0  0  0  0  0  0  0  0  0  0  0  0
   42.3040   69.7850   62.3060 C   0  0  0  0  0  0  0  0  0  0  0  0
   41.8730   70.7660   63.2230 C   0  0  0  0  0  0  0  0  0  0  0  0
   41.3230   71.8910   62.7200 N   0  0  0  0  0  0  0  0  0  0  0  0
   41.1740   72.1090   61.4070 C   0  0  0  0  0  0  0  0  0  0  0  0
   41.5790   71.1880   60.5240 N   0  0  0  0  0  0  0  0  0  0  0  0
   42.6060   68.9860   60.1420 N   0  0  0  0  0  0  0  0  0  0  0  0
   42.7390   68.8980   62.7510 H   0  0  0  0  0  0  0  0  0  0  0  0
   41.9790   70.6230   64.2950 H   0  0  0  0  0  0  0  0  0  0  0  0
   41.9520   68.1730   60.0580 H   0  0  0  0  0  0  0  0  0  0  0  0
   43.5700   69.1290   59.7200 H   0  0  0  0  0  0  0  0  0  0  0  0
   41.2660   74.3440   60.3100 C   0  0  0  0  0  0  0  0  0  0  0  0
   40.5660   73.3660   60.9840 C   0  0  0  0  0  0  0  0  0  0  0  0
   39.2320   73.5750   61.2750 C   0  0  0  0  0  0  0  0  0  0  0  0
   38.6400   72.8240   61.8080 H   0  0  0  0  0  0  0  0  0  0  0  0
   38.5460   74.7280   60.9250 C   0  0  0  0  0  0  0  0  0  0  0  0
   37.5160   74.8910   61.1490 H   0  0  0  0  0  0  0  0  0  0  0  0
   39.2730   75.7090   60.2410 C   0  0  0  0  0  3  0  0  0  0  0  0
   40.5950   75.5110   59.9490 C   0  0  0  0  0  3  0  0  0  0  0  0
   43.7590   73.9810   59.7350 N   0  0  0  0  0  0  0  0  0  0  0  0
   42.6460   74.1510   59.9980 C   0  0  0  0  0  0  0  0  0  0  0  0
  1  2  1  0  0  0  0
  2  8  1  0  0  0  0
  2  3  2  0  0  0  0
  3  9  1  0  0  0  0
  4  3  1  0  0  0  0
  5  4  2  0  0  0  0
  6  1  2  0  0  0  0
  6  5  1  0  0  0  0
  7  1  1  0  0  0  0
 10  7  1  0  0  0  0
 11  7  1  0  0  0  0
 12 13  1  0  0  0  0
 13 14  2  0  0  0  0
 13  5  1  0  0  0  0
 14 15  1  0  0  0  0
 16 17  1  0  0  0  0
 16 14  1  0  0  0  0
 18 16  2  0  0  0  0
 19 18  1  0  0  0  0
 19 12  2  0  0  0  0
 20 21  3  0  0  0  0
 21 12  1  0  0  0  0
M  END
>  <minimizedAffinity>
-4.45548105

$$$$

 OpenBabel03212520463D

 21 22  0  0  0  0  0  0  0  0999 V2000
   37.2330   75.5150   55.9060 C   0  0  0  0  0  0  0  0  0  0  0  0
   37.3780   76.9040   55.7660 C   0  0  0  0  0  0  0  0  0  0  0  0
   38.1200   77.5830   56.7530 C   0  0  0  0  0  0  0  0  0  0  0  0
   38.6380   76.8490   57.7610 N   0  0  0  0  0  0  0  0  0  0  0  0
   38.4760   75.5240   57.8580 C   0  0  0  0  0  0  0  0  0  0  0  0
   37.7730   74.8640   56.9290 N   0  0  0  0  0  0  0  0  0  0  0  0
   36.4670   74.9700   54.8470 N   0  0  0  0  0  0  0  0  0  0  0  0
   36.9810   77.5300   54.9760 H   0  0  0  0  0  0  0  0  0  0  0  0
   38.2720   78.6590   56.7060 H   0  0  0  0  0  0  0  0  0  0  0  0
   36.9940   74.8170   53.9560 H   0  0  0  0  0  0  0  0  0  0  0  0
   35.4470   74.7790   55.0750 H   0  0  0  0  0  0  0  0  0  0  0  0
   40.4250   74.5320   59.0500 C   0  0  0  0  0  0  0  0  0  0  0  0
   39.0820   74.8390   58.9940 C   0  0  0  0  0  0  0  0  0  0  0  0
   38.2690   74.4880   60.0530 C   0  0  0  0  0  0  0  0  0  0  0  0
   37.1970   74.7130   60.0490 H   0  0  0  0  0  0  0  0  0  0  0  0
   38.7290   73.8350   61.1870 C   0  0  0  0  0  0  0  0  0  0  0  0
   38.1020   73.5630   62.0050 H   0  0  0  0  0  0  0  0  0  0  0  0
   40.0950   73.5310   61.2250 C   0  0  0  0  0  3  0  0  0  0  0  0
   40.9090   73.8750   60.1800 C   0  0  0  0  0  3  0  0  0  0  0  0
   41.9920   75.1550   57.0920 N   0  0  0  0  0  0  0  0  0  0  0  0
   41.2860   74.8840   57.9670 C   0  0  0  0  0  0  0  0  0  0  0  0
  1  6  1  0  0  0  0
  2  1  2  0  0  0  0
  2  3  1  0  0  0  0
  3  4  2  0  0  0  0
  4  5  1  0  0  0  0
  5 13  1  0  0  0  0
  6  5  2  0  0  0  0
  7 11  1  0  0  0  0
  7  1  1  0  0  0  0
  8  2  1  0  0  0  0
  9  3  1  0  0  0  0
 10  7  1  0  0  0  0
 12 19  1  0  0  0  0
 13 12  2  0  0  0  0
 13 14  1  0  0  0  0
 14 16  2  0  0  0  0
 15 14  1  0  0  0  0
 16 18  1  0  0  0  0
 16 17  1  0  0  0  0
 19 18  2  0  0  0  0
 20 21  3  0  0  0  0
 21 12  1  0  0  0  0
M  END
>  <minimizedAffinity>
-4.45390892

$$$$

 OpenBabel03212520463D

 21 22  0  0  0  0  0  0  0  0999 V2000
   39.5480   74.8400   61.0540 C   0  0  0  0  0  0  0  0  0  0  0  0
   40.2650   75.6990   60.2080 C   0  0  0  0  0  0  0  0  0  0  0  0
   41.4850   75.2260   59.6810 C   0  0  0  0  0  0  0  0  0  0  0  0
   41.8730   73.9810   60.0290 N   0  0  0  0  0  0  0  0  0  0  0  0
   41.1580   73.1920   60.8400 C   0  0  0  0  0  0  0  0  0  0  0  0
   39.9990   73.6270   61.3480 N   0  0  0  0  0  0  0  0  0  0  0  0
   38.3500   75.4460   61.5040 N   0  0  0  0  0  0  0  0  0  0  0  0
   39.9910   76.7020   59.9030 H   0  0  0  0  0  0  0  0  0  0  0  0
   42.0910   75.8400   59.0200 H   0  0  0  0  0  0  0  0  0  0  0  0
   37.5590   75.4200   60.8190 H   0  0  0  0  0  0  0  0  0  0  0  0
   38.3890   75.8570   62.4820 H   0  0  0  0  0  0  0  0  0  0  0  0
   41.6990   70.8400   60.2220 C   0  0  0  0  0  0  0  0  0  0  0  0
   41.6820   71.8640   61.1440 C   0  0  0  0  0  0  0  0  0  0  0  0
   42.1790   71.6350   62.4110 C   0  0  0  0  0  0  0  0  0  0  0  0
   42.1840   72.4210   63.1740 H   0  0  0  0  0  0  0  0  0  0  0  0
   42.7020   70.4170   62.8180 C   0  0  0  0  0  0  0  0  0  0  0  0
   43.0860   70.2380   63.7960 H   0  0  0  0  0  0  0  0  0  0  0  0
   42.7110   69.3890   61.8680 C   0  0  0  0  0  3  0  0  0  0  0  0
   42.2200   69.6070   60.6090 C   0  0  0  0  0  3  0  0  0  0  0  0
   40.7890   71.2390   57.8360 N   0  0  0  0  0  0  0  0  0  0  0  0
   41.1900   71.0530   58.9050 C   0  0  0  0  0  0  0  0  0  0  0  0
  1  6  1  0  0  0  0
  1  7  1  0  0  0  0
  2  1  2  0  0  0  0
  3  4  2  0  0  0  0
  3  2  1  0  0  0  0
  4  5  1  0  0  0  0
  5 13  1  0  0  0  0
  5  6  2  0  0  0  0
  7 11  1  0  0  0  0
  8  2  1  0  0  0  0
  9  3  1  0  0  0  0
 10  7  1  0  0  0  0
 12 19  2  0  0  0  0
 12 13  1  0  0  0  0
 13 14  2  0  0  0  0
 14 16  1  0  0  0  0
 14 15  1  0  0  0  0
 16 17  1  0  0  0  0
 18 16  2  0  0  0  0
 19 18  1  0  0  0  0
 20 21  3  0  0  0  0
 21 12  1  0  0  0  0
M  END
>  <minimizedAffinity>
-4.44702196

$$$$

 OpenBabel03212520463D

 21 22  0  0  0  0  0  0  0  0999 V2000
   39.4830   72.3590   56.7790 C   0  0  0  0  0  0  0  0  0  0  0  0
   39.6910   73.6460   56.2600 C   0  0  0  0  0  0  0  0  0  0  0  0
   40.4270   74.5550   57.0480 C   0  0  0  0  0  0  0  0  0  0  0  0
   40.8780   74.1210   58.2430 N   0  0  0  0  0  0  0  0  0  0  0  0
   40.6580   72.8830   58.7030 C   0  0  0  0  0  0  0  0  0  0  0  0
   39.9600   72.0090   57.9670 N   0  0  0  0  0  0  0  0  0  0  0  0
   38.7330   71.5610   55.8830 N   0  0  0  0  0  0  0  0  0  0  0  0
   39.3480   74.0350   55.3080 H   0  0  0  0  0  0  0  0  0  0  0  0
   40.6250   75.5680   56.7070 H   0  0  0  0  0  0  0  0  0  0  0  0
   39.2830   71.1450   55.0960 H   0  0  0  0  0  0  0  0  0  0  0  0
   37.6990   71.4720   56.1100 H   0  0  0  0  0  0  0  0  0  0  0  0
   40.5470   72.8310   61.1910 C   0  0  0  0  0  0  0  0  0  0  0  0
   41.1960   72.5300   60.0130 C   0  0  0  0  0  0  0  0  0  0  0  0
   42.4050   71.8660   60.0630 C   0  0  0  0  0  0  0  0  0  0  0  0
   42.9530   71.6080   59.1500 H   0  0  0  0  0  0  0  0  0  0  0  0
   43.0160   71.4800   61.2460 C   0  0  0  0  0  0  0  0  0  0  0  0
   43.9500   70.9670   61.2860 H   0  0  0  0  0  0  0  0  0  0  0  0
   42.3430   71.7940   62.4320 C   0  0  0  0  0  3  0  0  0  0  0  0
   41.1430   72.4520   62.3930 C   0  0  0  0  0  3  0  0  0  0  0  0
   38.2750   74.0630   61.1560 N   0  0  0  0  0  0  0  0  0  0  0  0
   39.2950   73.5180   61.1650 C   0  0  0  0  0  0  0  0  0  0  0  0
  1  6  1  0  0  0  0
  2  1  2  0  0  0  0
  2  3  1  0  0  0  0
  3  4  2  0  0  0  0
  4  5  1  0  0  0  0
  5 13  1  0  0  0  0
  6  5  2  0  0  0  0
  7 11  1  0  0  0  0
  7  1  1  0  0  0  0
  8  2  1  0  0  0  0
  9  3  1  0  0  0  0
 10  7  1  0  0  0  0
 12 19  1  0  0  0  0
 13 14  1  0  0  0  0
 13 12  2  0  0  0  0
 14 16  2  0  0  0  0
 15 14  1  0  0  0  0
 16 17  1  0  0  0  0
 16 18  1  0  0  0  0
 19 18  2  0  0  0  0
 20 21  3  0  0  0  0
 21 12  1  0  0  0  0
M  END
>  <minimizedAffinity>
-4.3675456

$$$$

 OpenBabel03212520463D

 21 22  0  0  0  0  0  0  0  0999 V2000
   39.3880   75.1370   60.9190 C   0  0  0  0  0  0  0  0  0  0  0  0
   40.1450   76.1510   60.3120 C   0  0  0  0  0  0  0  0  0  0  0  0
   41.2110   75.7580   59.4770 C   0  0  0  0  0  0  0  0  0  0  0  0
   41.4250   74.4350   59.3220 N   0  0  0  0  0  0  0  0  0  0  0  0
   40.6790   73.4970   59.9190 C   0  0  0  0  0  0  0  0  0  0  0  0
   39.6640   73.8550   60.7150 N   0  0  0  0  0  0  0  0  0  0  0  0
   38.3580   75.6790   61.7240 N   0  0  0  0  0  0  0  0  0  0  0  0
   40.0070   77.2220   60.4090 H   0  0  0  0  0  0  0  0  0  0  0  0
   41.8370   76.4920   58.9770 H   0  0  0  0  0  0  0  0  0  0  0  0
   37.5060   75.9890   61.2000 H   0  0  0  0  0  0  0  0  0  0  0  0
   38.5630   75.7080   62.7660 H   0  0  0  0  0  0  0  0  0  0  0  0
   41.7170   71.3300   60.5760 C   0  0  0  0  0  0  0  0  0  0  0  0
   41.0090   72.0970   59.6750 C   0  0  0  0  0  0  0  0  0  0  0  0
   40.5900   71.5260   58.4900 C   0  0  0  0  0  0  0  0  0  0  0  0
   40.0260   72.1000   57.7480 H   0  0  0  0  0  0  0  0  0  0  0  0
   40.8440   70.2070   58.1460 C   0  0  0  0  0  0  0  0  0  0  0  0
   40.5210   69.7650   57.2310 H   0  0  0  0  0  0  0  0  0  0  0  0
   41.5640   69.4430   59.0730 C   0  0  0  0  0  3  0  0  0  0  0  0
   41.9830   70.0010   60.2500 C   0  0  0  0  0  3  0  0  0  0  0  0
   42.5330   72.3670   62.7970 N   0  0  0  0  0  0  0  0  0  0  0  0
   42.1600   71.8980   61.8080 C   0  0  0  0  0  0  0  0  0  0  0  0
  1  7  1  0  0  0  0
  2  8  1  0  0  0  0
  2  1  2  0  0  0  0
  3  2  1  0  0  0  0
  4  3  2  0  0  0  0
  4  5  1  0  0  0  0
  5  6  2  0  0  0  0
  6  1  1  0  0  0  0
  7 11  1  0  0  0  0
  9  3  1  0  0  0  0
 10  7  1  0  0  0  0
 12 21  1  0  0  0  0
 13  5  1  0  0  0  0
 13 12  2  0  0  0  0
 14 13  1  0  0  0  0
 15 14  1  0  0  0  0
 16 14  2  0  0  0  0
 16 18  1  0  0  0  0
 17 16  1  0  0  0  0
 18 19  2  0  0  0  0
 19 12  1  0  0  0  0
 21 20  3  0  0  0  0
M  END
>  <minimizedAffinity>
-4.33706427

$$$$
