
 OpenBabel03212521083D

 37 40  0  0  0  0  0  0  0  0999 V2000
   38.1040   75.2340   56.8030 C   0  0  0  0  0  0  0  0  0  0  0  0
   36.9270   75.8230   56.3620 C   0  0  0  0  0  0  0  0  0  0  0  0
   36.5570   75.8270   55.0370 C   0  0  0  0  0  0  0  0  0  0  0  0
   37.3870   75.2240   54.0980 C   0  0  0  0  0  0  0  0  0  0  0  0
   38.5690   74.6310   54.5290 C   0  0  0  0  0  0  0  0  0  0  0  0
   38.9290   74.6330   55.8600 C   0  0  0  0  0  0  0  0  0  0  0  0
   36.2350   76.3090   57.0330 H   0  0  0  0  0  0  0  0  0  0  0  0
   35.6450   76.2800   54.6680 H   0  0  0  0  0  0  0  0  0  0  0  0
   37.1080   75.2200   53.0490 H   0  0  0  0  0  0  0  0  0  0  0  0
   39.1660   74.1810   53.7520 H   0  0  0  0  0  0  0  0  0  0  0  0
   39.4950   76.3430   59.9950 C   0  0  0  0  0  0  0  0  0  0  0  0
   39.0920   75.3310   60.8760 C   0  0  0  0  0  0  0  0  0  0  0  0
   38.3380   74.2660   60.3550 C   0  0  0  0  0  0  0  0  0  0  0  0
   38.0360   74.2670   59.0300 N   0  0  0  0  0  0  0  0  0  0  0  0
   38.4400   75.2610   58.2090 C   0  0  0  0  0  0  0  0  0  0  0  0
   39.1520   76.2640   58.7010 N   0  0  0  0  0  0  0  0  0  0  0  0
   40.0780   77.2090   60.2860 H   0  0  0  0  0  0  0  0  0  0  0  0
   39.3900   75.4330   61.9100 H   0  0  0  0  0  0  0  0  0  0  0  0
   38.0350   73.4930   61.0440 H   0  0  0  0  0  0  0  0  0  0  0  0
   40.1700   74.0030   56.2580 C   0  0  0  0  0  0  0  0  0  0  0  0
   41.0830   73.9630   55.1950 C   0  0  0  0  0  0  0  0  0  0  0  0
   42.3430   73.3950   55.3680 C   0  0  0  0  0  0  0  0  0  0  0  0
   42.6350   72.8960   56.5820 N   0  0  0  0  0  0  0  0  0  0  0  0
   41.7420   72.9380   57.6130 C   0  0  0  0  0  0  0  0  0  0  0  0
   40.5240   73.4880   57.4430 N   0  0  0  0  0  0  0  0  0  0  0  0
   40.9170   74.3430   54.1960 H   0  0  0  0  0  0  0  0  0  0  0  0
   43.0740   73.3510   54.5550 H   0  0  0  0  0  0  0  0  0  0  0  0
   42.6440   73.2360   59.8660 C   0  0  0  0  0  0  0  0  0  0  0  0
   42.0830   72.3900   58.9220 C   0  0  0  0  0  0  0  0  0  0  0  0
   41.8590   71.0630   59.2280 C   0  0  0  0  0  0  0  0  0  0  0  0
   41.4150   70.3950   58.4770 H   0  0  0  0  0  0  0  0  0  0  0  0
   42.1950   70.5740   60.4830 C   0  0  0  0  0  0  0  0  0  0  0  0
   42.0200   69.5340   60.7250 H   0  0  0  0  0  0  0  0  0  0  0  0
   42.7570   71.4630   61.4020 C   0  0  0  0  0  3  0  0  0  0  0  0
   42.9950   72.7950   61.1280 C   0  0  0  0  0  3  0  0  0  0  0  0
   43.0880   75.7640   59.3620 N   0  0  0  0  0  0  0  0  0  0  0  0
   42.8970   74.6350   59.5870 C   0  0  0  0  0  0  0  0  0  0  0  0
  1 15  1  0  0  0  0
  2  1  1  0  0  0  0
  2  7  1  0  0  0  0
  3  2  2  0  0  0  0
  4  5  2  0  0  0  0
  4  3  1  0  0  0  0
  5  6  1  0  0  0  0
  6 20  1  0  0  0  0
  6  1  2  0  0  0  0
  8  3  1  0  0  0  0
  9  4  1  0  0  0  0
 10  5  1  0  0  0  0
 11 17  1  0  0  0  0
 11 12  1  0  0  0  0
 12 18  1  0  0  0  0
 13 12  2  0  0  0  0
 13 19  1  0  0  0  0
 14 13  1  0  0  0  0
 15 16  1  0  0  0  0
 15 14  2  0  0  0  0
 16 11  2  0  0  0  0
 20 25  1  0  0  0  0
 21 22  1  0  0  0  0
 21 20  2  0  0  0  0
 22 23  2  0  0  0  0
 23 24  1  0  0  0  0
 24 29  1  0  0  0  0
 25 24  2  0  0  0  0
 26 21  1  0  0  0  0
 27 22  1  0  0  0  0
 28 35  1  0  0  0  0
 29 30  1  0  0  0  0
 29 28  2  0  0  0  0
 30 32  2  0  0  0  0
 31 30  1  0  0  0  0
 32 33  1  0  0  0  0
 32 34  1  0  0  0  0
 35 34  2  0  0  0  0
 36 37  3  0  0  0  0
 37 28  1  0  0  0  0
M  END
>  <minimizedAffinity>
-5.84320593

$$$$

 OpenBabel03212521083D

 37 40  0  0  0  0  0  0  0  0999 V2000
   40.6770   76.0400   56.0670 C   0  0  0  0  0  0  0  0  0  0  0  0
   40.9400   76.9490   55.0510 C   0  0  0  0  0  0  0  0  0  0  0  0
   40.9430   76.5900   53.7230 C   0  0  0  0  0  0  0  0  0  0  0  0
   40.6740   75.2700   53.3770 C   0  0  0  0  0  0  0  0  0  0  0  0
   40.4090   74.3510   54.3860 C   0  0  0  0  0  0  0  0  0  0  0  0
   40.4100   74.7230   55.7140 C   0  0  0  0  0  0  0  0  0  0  0  0
   41.1570   77.9880   55.2470 H   0  0  0  0  0  0  0  0  0  0  0  0
   41.1450   77.2800   52.9140 H   0  0  0  0  0  0  0  0  0  0  0  0
   40.6730   74.9730   52.3330 H   0  0  0  0  0  0  0  0  0  0  0  0
   40.2090   73.3460   54.0490 H   0  0  0  0  0  0  0  0  0  0  0  0
   41.9140   77.0250   59.3610 C   0  0  0  0  0  0  0  0  0  0  0  0
   40.7340   77.3000   60.0650 C   0  0  0  0  0  0  0  0  0  0  0  0
   39.5120   77.1420   59.3890 C   0  0  0  0  0  0  0  0  0  0  0  0
   39.5310   76.7320   58.0930 N   0  0  0  0  0  0  0  0  0  0  0  0
   40.6890   76.4760   57.4450 C   0  0  0  0  0  0  0  0  0  0  0  0
   41.8410   76.6240   58.0840 N   0  0  0  0  0  0  0  0  0  0  0  0
   42.9090   77.1120   59.7810 H   0  0  0  0  0  0  0  0  0  0  0  0
   40.8390   77.6200   61.0920 H   0  0  0  0  0  0  0  0  0  0  0  0
   38.6110   77.3570   59.9420 H   0  0  0  0  0  0  0  0  0  0  0  0
   40.1280   73.7280   56.7260 C   0  0  0  0  0  0  0  0  0  0  0  0
   38.9710   73.0000   56.4160 C   0  0  0  0  0  0  0  0  0  0  0  0
   38.5240   71.9900   57.2650 C   0  0  0  0  0  0  0  0  0  0  0  0
   39.2420   71.7530   58.3760 N   0  0  0  0  0  0  0  0  0  0  0  0
   40.3680   72.4650   58.6720 C   0  0  0  0  0  0  0  0  0  0  0  0
   40.7990   73.4410   57.8500 N   0  0  0  0  0  0  0  0  0  0  0  0
   38.3460   73.1360   55.5440 H   0  0  0  0  0  0  0  0  0  0  0  0
   37.6230   71.4070   57.0450 H   0  0  0  0  0  0  0  0  0  0  0  0
   40.6810   72.7180   61.0850 C   0  0  0  0  0  0  0  0  0  0  0  0
   41.1320   72.1880   59.8860 C   0  0  0  0  0  0  0  0  0  0  0  0
   42.2770   71.4180   59.8560 C   0  0  0  0  0  0  0  0  0  0  0  0
   42.6310   71.0010   58.9030 H   0  0  0  0  0  0  0  0  0  0  0  0
   42.9790   71.1740   61.0270 C   0  0  0  0  0  0  0  0  0  0  0  0
   43.8780   70.5710   61.0070 H   0  0  0  0  0  0  0  0  0  0  0  0
   42.4880   71.7280   62.2110 C   0  0  0  0  0  3  0  0  0  0  0  0
   41.3470   72.5020   62.2770 C   0  0  0  0  0  3  0  0  0  0  0  0
   38.5190   74.1850   61.2110 N   0  0  0  0  0  0  0  0  0  0  0  0
   39.4840   73.5300   61.1620 C   0  0  0  0  0  0  0  0  0  0  0  0
  1 15  1  0  0  0  0
  2  7  1  0  0  0  0
  2  1  2  0  0  0  0
  3  2  1  0  0  0  0
  4  3  2  0  0  0  0
  4  5  1  0  0  0  0
  5  6  2  0  0  0  0
  6  1  1  0  0  0  0
  6 20  1  0  0  0  0
  8  3  1  0  0  0  0
  9  4  1  0  0  0  0
 10  5  1  0  0  0  0
 11 17  1  0  0  0  0
 11 12  1  0  0  0  0
 12 18  1  0  0  0  0
 13 19  1  0  0  0  0
 13 12  2  0  0  0  0
 14 13  1  0  0  0  0
 15 16  1  0  0  0  0
 15 14  2  0  0  0  0
 16 11  2  0  0  0  0
 20 25  1  0  0  0  0
 21 20  2  0  0  0  0
 21 22  1  0  0  0  0
 22 23  2  0  0  0  0
 23 24  1  0  0  0  0
 24 29  1  0  0  0  0
 25 24  2  0  0  0  0
 26 21  1  0  0  0  0
 27 22  1  0  0  0  0
 28 37  1  0  0  0  0
 28 35  1  0  0  0  0
 29 28  2  0  0  0  0
 30 29  1  0  0  0  0
 30 32  2  0  0  0  0
 31 30  1  0  0  0  0
 32 34  1  0  0  0  0
 33 32  1  0  0  0  0
 34 35  2  0  0  0  0
 37 36  3  0  0  0  0
M  END
>  <minimizedAffinity>
-5.81109715

$$$$

 OpenBabel03212521083D

 37 40  0  0  0  0  0  0  0  0999 V2000
   40.4140   75.0040   57.6240 C   0  0  0  0  0  0  0  0  0  0  0  0
   39.6480   75.3550   56.5210 C   0  0  0  0  0  0  0  0  0  0  0  0
   39.9320   74.9040   55.2530 C   0  0  0  0  0  0  0  0  0  0  0  0
   41.0250   74.0660   55.0600 C   0  0  0  0  0  0  0  0  0  0  0  0
   41.7990   73.7070   56.1580 C   0  0  0  0  0  0  0  0  0  0  0  0
   41.5040   74.1660   57.4240 C   0  0  0  0  0  0  0  0  0  0  0  0
   38.7870   76.0010   56.5970 H   0  0  0  0  0  0  0  0  0  0  0  0
   39.3510   75.1640   54.3780 H   0  0  0  0  0  0  0  0  0  0  0  0
   41.2610   73.7020   54.0650 H   0  0  0  0  0  0  0  0  0  0  0  0
   42.6300   73.0560   55.9390 H   0  0  0  0  0  0  0  0  0  0  0  0
   38.9020   75.2300   60.9430 C   0  0  0  0  0  0  0  0  0  0  0  0
   39.3940   76.4510   61.4240 C   0  0  0  0  0  0  0  0  0  0  0  0
   40.2500   77.1900   60.5900 C   0  0  0  0  0  0  0  0  0  0  0  0
   40.5590   76.6910   59.3650 N   0  0  0  0  0  0  0  0  0  0  0  0
   40.0670   75.5090   58.9330 C   0  0  0  0  0  0  0  0  0  0  0  0
   39.2600   74.8120   59.7200 N   0  0  0  0  0  0  0  0  0  0  0  0
   38.2380   74.5780   61.4980 H   0  0  0  0  0  0  0  0  0  0  0  0
   39.0800   76.7490   62.4140 H   0  0  0  0  0  0  0  0  0  0  0  0
   40.6200   78.1290   60.9730 H   0  0  0  0  0  0  0  0  0  0  0  0
   42.3420   73.7640   58.5340 C   0  0  0  0  0  0  0  0  0  0  0  0
   43.4570   74.6030   58.6600 C   0  0  0  0  0  0  0  0  0  0  0  0
   44.3920   74.3880   59.6700 C   0  0  0  0  0  0  0  0  0  0  0  0
   44.1770   73.3540   60.5020 N   0  0  0  0  0  0  0  0  0  0  0  0
   43.0890   72.5410   60.3740 C   0  0  0  0  0  0  0  0  0  0  0  0
   42.1850   72.7510   59.3970 N   0  0  0  0  0  0  0  0  0  0  0  0
   43.6930   75.4500   58.0290 H   0  0  0  0  0  0  0  0  0  0  0  0
   45.2720   75.0290   59.7890 H   0  0  0  0  0  0  0  0  0  0  0  0
   43.4230   70.1920   60.9680 C   0  0  0  0  0  0  0  0  0  0  0  0
   42.8770   71.4250   61.2920 C   0  0  0  0  0  0  0  0  0  0  0  0
   42.1520   71.5770   62.4560 C   0  0  0  0  0  0  0  0  0  0  0  0
   41.7210   72.5560   62.7080 H   0  0  0  0  0  0  0  0  0  0  0  0
   41.9690   70.4950   63.3060 C   0  0  0  0  0  0  0  0  0  0  0  0
   41.4020   70.6120   64.2200 H   0  0  0  0  0  0  0  0  0  0  0  0
   42.5380   69.2730   62.9390 C   0  0  0  0  0  3  0  0  0  0  0  0
   43.2670   69.0860   61.7830 C   0  0  0  0  0  3  0  0  0  0  0  0
   44.7990   69.8160   58.7750 N   0  0  0  0  0  0  0  0  0  0  0  0
   44.1900   69.9880   59.7560 C   0  0  0  0  0  0  0  0  0  0  0  0
  1 15  1  0  0  0  0
  2  7  1  0  0  0  0
  2  1  2  0  0  0  0
  3  2  1  0  0  0  0
  4  3  2  0  0  0  0
  4  5  1  0  0  0  0
  5  6  2  0  0  0  0
  6  1  1  0  0  0  0
  6 20  1  0  0  0  0
  8  3  1  0  0  0  0
  9  4  1  0  0  0  0
 10  5  1  0  0  0  0
 11 12  1  0  0  0  0
 11 17  1  0  0  0  0
 12 18  1  0  0  0  0
 13 19  1  0  0  0  0
 13 12  2  0  0  0  0
 14 13  1  0  0  0  0
 15 14  2  0  0  0  0
 15 16  1  0  0  0  0
 16 11  2  0  0  0  0
 20 21  2  0  0  0  0
 20 25  1  0  0  0  0
 21 22  1  0  0  0  0
 22 27  1  0  0  0  0
 22 23  2  0  0  0  0
 24 23  1  0  0  0  0
 24 29  1  0  0  0  0
 25 24  2  0  0  0  0
 26 21  1  0  0  0  0
 28 29  2  0  0  0  0
 28 35  1  0  0  0  0
 29 30  1  0  0  0  0
 30 31  1  0  0  0  0
 30 32  2  0  0  0  0
 32 33  1  0  0  0  0
 34 32  1  0  0  0  0
 35 34  2  0  0  0  0
 36 37  3  0  0  0  0
 37 28  1  0  0  0  0
M  END
>  <minimizedAffinity>
-5.80239487

$$$$

 OpenBabel03212521083D

 37 40  0  0  0  0  0  0  0  0999 V2000
   40.0810   75.1160   58.1010 C   0  0  0  0  0  0  0  0  0  0  0  0
   39.1790   76.0680   57.6470 C   0  0  0  0  0  0  0  0  0  0  0  0
   39.0650   77.3110   58.2250 C   0  0  0  0  0  0  0  0  0  0  0  0
   39.8800   77.6340   59.3050 C   0  0  0  0  0  0  0  0  0  0  0  0
   40.7890   76.6890   59.7670 C   0  0  0  0  0  0  0  0  0  0  0  0
   40.8930   75.4460   59.1800 C   0  0  0  0  0  0  0  0  0  0  0  0
   38.5160   75.8860   56.8150 H   0  0  0  0  0  0  0  0  0  0  0  0
   38.3700   78.0690   57.8900 H   0  0  0  0  0  0  0  0  0  0  0  0
   39.8020   78.6110   59.7710 H   0  0  0  0  0  0  0  0  0  0  0  0
   41.3890   77.0030   60.6070 H   0  0  0  0  0  0  0  0  0  0  0  0
   39.3470   71.6400   57.2470 C   0  0  0  0  0  0  0  0  0  0  0  0
   40.2790   71.3660   56.2380 C   0  0  0  0  0  0  0  0  0  0  0  0
   41.1600   72.3930   55.8590 C   0  0  0  0  0  0  0  0  0  0  0  0
   41.0680   73.5960   56.4840 N   0  0  0  0  0  0  0  0  0  0  0  0
   40.1550   73.8260   57.4540 C   0  0  0  0  0  0  0  0  0  0  0  0
   39.3250   72.8570   57.8110 N   0  0  0  0  0  0  0  0  0  0  0  0
   38.6210   70.9260   57.6180 H   0  0  0  0  0  0  0  0  0  0  0  0
   40.2620   70.3740   55.8110 H   0  0  0  0  0  0  0  0  0  0  0  0
   41.8730   72.1690   55.0810 H   0  0  0  0  0  0  0  0  0  0  0  0
   41.8540   74.4960   59.7000 C   0  0  0  0  0  0  0  0  0  0  0  0
   43.1670   74.9140   59.4490 C   0  0  0  0  0  0  0  0  0  0  0  0
   44.2470   74.1400   59.8700 C   0  0  0  0  0  0  0  0  0  0  0  0
   43.9720   72.9940   60.5150 N   0  0  0  0  0  0  0  0  0  0  0  0
   42.6900   72.5920   60.7560 C   0  0  0  0  0  0  0  0  0  0  0  0
   41.6480   73.3430   60.3490 N   0  0  0  0  0  0  0  0  0  0  0  0
   43.4630   75.8210   58.9380 H   0  0  0  0  0  0  0  0  0  0  0  0
   45.2830   74.4440   59.6860 H   0  0  0  0  0  0  0  0  0  0  0  0
   42.4510   70.1590   60.7400 C   0  0  0  0  0  0  0  0  0  0  0  0
   42.4160   71.3420   61.4600 C   0  0  0  0  0  0  0  0  0  0  0  0
   42.1280   71.3240   62.8100 C   0  0  0  0  0  0  0  0  0  0  0  0
   42.1020   72.2650   63.3770 H   0  0  0  0  0  0  0  0  0  0  0  0
   41.8730   70.1190   63.4480 C   0  0  0  0  0  0  0  0  0  0  0  0
   41.6480   70.1010   64.5060 H   0  0  0  0  0  0  0  0  0  0  0  0
   41.9190   68.9510   62.6820 C   0  0  0  0  0  3  0  0  0  0  0  0
   42.2030   68.9340   61.3320 C   0  0  0  0  0  3  0  0  0  0  0  0
   42.9980   70.1180   58.1820 N   0  0  0  0  0  0  0  0  0  0  0  0
   42.7480   70.1320   59.3220 C   0  0  0  0  0  0  0  0  0  0  0  0
  1  6  1  0  0  0  0
  2  1  2  0  0  0  0
  2  3  1  0  0  0  0
  3  4  2  0  0  0  0
  4  5  1  0  0  0  0
  4  9  1  0  0  0  0
  5 10  1  0  0  0  0
  6 20  1  0  0  0  0
  6  5  2  0  0  0  0
  7  2  1  0  0  0  0
  8  3  1  0  0  0  0
 11 17  1  0  0  0  0
 11 16  1  0  0  0  0
 12 11  2  0  0  0  0
 13 12  1  0  0  0  0
 13 14  2  0  0  0  0
 14 15  1  0  0  0  0
 15 16  2  0  0  0  0
 15  1  1  0  0  0  0
 18 12  1  0  0  0  0
 19 13  1  0  0  0  0
 20 25  1  0  0  0  0
 21 20  2  0  0  0  0
 21 22  1  0  0  0  0
 22 23  2  0  0  0  0
 23 24  1  0  0  0  0
 24 29  1  0  0  0  0
 25 24  2  0  0  0  0
 26 21  1  0  0  0  0
 27 22  1  0  0  0  0
 28 35  2  0  0  0  0
 28 29  1  0  0  0  0
 29 30  2  0  0  0  0
 30 31  1  0  0  0  0
 30 32  1  0  0  0  0
 32 33  1  0  0  0  0
 34 32  2  0  0  0  0
 35 34  1  0  0  0  0
 36 37  3  0  0  0  0
 37 28  1  0  0  0  0
M  END
>  <minimizedAffinity>
-5.80153894

$$$$

 OpenBabel03212521083D

 37 40  0  0  0  0  0  0  0  0999 V2000
   39.1060   74.8420   55.3350 C   0  0  0  0  0  0  0  0  0  0  0  0
   38.2080   74.7770   54.2790 C   0  0  0  0  0  0  0  0  0  0  0  0
   37.0190   75.4700   54.2780 C   0  0  0  0  0  0  0  0  0  0  0  0
   36.6970   76.2650   55.3730 C   0  0  0  0  0  0  0  0  0  0  0  0
   37.5900   76.3370   56.4370 C   0  0  0  0  0  0  0  0  0  0  0  0
   38.7780   75.6380   56.4260 C   0  0  0  0  0  0  0  0  0  0  0  0
   38.3920   74.1810   53.3980 H   0  0  0  0  0  0  0  0  0  0  0  0
   36.3030   75.4360   53.4680 H   0  0  0  0  0  0  0  0  0  0  0  0
   35.7630   76.8170   55.3870 H   0  0  0  0  0  0  0  0  0  0  0  0
   37.2800   76.9710   57.2530 H   0  0  0  0  0  0  0  0  0  0  0  0
   42.6390   74.0470   54.8450 C   0  0  0  0  0  0  0  0  0  0  0  0
   42.6960   72.6840   55.1640 C   0  0  0  0  0  0  0  0  0  0  0  0
   41.5040   72.0470   55.5490 C   0  0  0  0  0  0  0  0  0  0  0  0
   40.3590   72.7770   55.5930 N   0  0  0  0  0  0  0  0  0  0  0  0
   40.3400   74.0910   55.2790 C   0  0  0  0  0  0  0  0  0  0  0  0
   41.4650   74.6910   54.9160 N   0  0  0  0  0  0  0  0  0  0  0  0
   43.4930   74.6380   54.5370 H   0  0  0  0  0  0  0  0  0  0  0  0
   43.6620   72.2040   55.0930 H   0  0  0  0  0  0  0  0  0  0  0  0
   41.5620   70.9970   55.7910 H   0  0  0  0  0  0  0  0  0  0  0  0
   39.6730   75.7460   57.5580 C   0  0  0  0  0  0  0  0  0  0  0  0
   40.0970   77.0680   57.7460 C   0  0  0  0  0  0  0  0  0  0  0  0
   40.9660   77.3900   58.7870 C   0  0  0  0  0  0  0  0  0  0  0  0
   41.3700   76.3880   59.5870 N   0  0  0  0  0  0  0  0  0  0  0  0
   40.9530   75.1030   59.3990 C   0  0  0  0  0  0  0  0  0  0  0  0
   40.1130   74.7940   58.3920 N   0  0  0  0  0  0  0  0  0  0  0  0
   39.8140   77.9220   57.1450 H   0  0  0  0  0  0  0  0  0  0  0  0
   41.3120   78.4150   58.9550 H   0  0  0  0  0  0  0  0  0  0  0  0
   40.4890   73.4580   61.1480 C   0  0  0  0  0  0  0  0  0  0  0  0
   41.4070   74.0310   60.2810 C   0  0  0  0  0  0  0  0  0  0  0  0
   42.7140   73.5900   60.2660 C   0  0  0  0  0  0  0  0  0  0  0  0
   43.4380   74.0480   59.5780 H   0  0  0  0  0  0  0  0  0  0  0  0
   43.1120   72.5700   61.1190 C   0  0  0  0  0  0  0  0  0  0  0  0
   44.1360   72.2210   61.1080 H   0  0  0  0  0  0  0  0  0  0  0  0
   42.1530   72.0210   61.9730 C   0  0  0  0  0  3  0  0  0  0  0  0
   40.8390   72.4390   62.0150 C   0  0  0  0  0  3  0  0  0  0  0  0
   37.9960   74.2470   61.2270 N   0  0  0  0  0  0  0  0  0  0  0  0
   39.1070   73.8900   61.1970 C   0  0  0  0  0  0  0  0  0  0  0  0
  1  6  1  0  0  0  0
  2  1  2  0  0  0  0
  3  2  1  0  0  0  0
  3  4  2  0  0  0  0
  4  9  1  0  0  0  0
  4  5  1  0  0  0  0
  5 10  1  0  0  0  0
  6  5  2  0  0  0  0
  6 20  1  0  0  0  0
  7  2  1  0  0  0  0
  8  3  1  0  0  0  0
 11 16  2  0  0  0  0
 11 12  1  0  0  0  0
 12 13  2  0  0  0  0
 13 14  1  0  0  0  0
 13 19  1  0  0  0  0
 15  1  1  0  0  0  0
 15 14  2  0  0  0  0
 16 15  1  0  0  0  0
 17 11  1  0  0  0  0
 18 12  1  0  0  0  0
 20 21  2  0  0  0  0
 20 25  1  0  0  0  0
 21 22  1  0  0  0  0
 22 27  1  0  0  0  0
 22 23  2  0  0  0  0
 24 23  1  0  0  0  0
 24 29  1  0  0  0  0
 25 24  2  0  0  0  0
 26 21  1  0  0  0  0
 28 37  1  0  0  0  0
 28 35  1  0  0  0  0
 29 28  2  0  0  0  0
 30 29  1  0  0  0  0
 30 32  2  0  0  0  0
 31 30  1  0  0  0  0
 32 34  1  0  0  0  0
 33 32  1  0  0  0  0
 34 35  2  0  0  0  0
 37 36  3  0  0  0  0
M  END
>  <minimizedAffinity>
-5.72045517

$$$$

 OpenBabel03212521083D

 37 40  0  0  0  0  0  0  0  0999 V2000
   39.0540   74.9070   55.4380 C   0  0  0  0  0  0  0  0  0  0  0  0
   38.3340   74.8320   54.2530 C   0  0  0  0  0  0  0  0  0  0  0  0
   37.1440   75.4980   54.0710 C   0  0  0  0  0  0  0  0  0  0  0  0
   36.6360   76.2750   55.1070 C   0  0  0  0  0  0  0  0  0  0  0  0
   37.3490   76.3570   56.2970 C   0  0  0  0  0  0  0  0  0  0  0  0
   38.5410   75.6850   56.4680 C   0  0  0  0  0  0  0  0  0  0  0  0
   38.6680   74.2490   53.4090 H   0  0  0  0  0  0  0  0  0  0  0  0
   36.5650   75.4550   53.1580 H   0  0  0  0  0  0  0  0  0  0  0  0
   35.6980   76.8060   54.9770 H   0  0  0  0  0  0  0  0  0  0  0  0
   36.9000   76.9760   57.0590 H   0  0  0  0  0  0  0  0  0  0  0  0
   42.6350   74.1810   55.4430 C   0  0  0  0  0  0  0  0  0  0  0  0
   42.6770   72.8320   55.8180 C   0  0  0  0  0  0  0  0  0  0  0  0
   41.4570   72.1800   56.0680 C   0  0  0  0  0  0  0  0  0  0  0  0
   40.3020   72.8840   55.9350 N   0  0  0  0  0  0  0  0  0  0  0  0
   40.2990   74.1850   55.5720 C   0  0  0  0  0  0  0  0  0  0  0  0
   41.4500   74.7990   55.3360 N   0  0  0  0  0  0  0  0  0  0  0  0
   43.5110   74.7820   55.2270 H   0  0  0  0  0  0  0  0  0  0  0  0
   43.6530   72.3740   55.8920 H   0  0  0  0  0  0  0  0  0  0  0  0
   41.5040   71.1410   56.3550 H   0  0  0  0  0  0  0  0  0  0  0  0
   39.2440   75.8030   57.7280 C   0  0  0  0  0  0  0  0  0  0  0  0
   39.3210   77.1390   58.1440 C   0  0  0  0  0  0  0  0  0  0  0  0
   39.9600   77.4710   59.3360 C   0  0  0  0  0  0  0  0  0  0  0  0
   40.4910   76.4660   60.0540 N   0  0  0  0  0  0  0  0  0  0  0  0
   40.4130   75.1670   59.6440 C   0  0  0  0  0  0  0  0  0  0  0  0
   39.7930   74.8480   58.4900 N   0  0  0  0  0  0  0  0  0  0  0  0
   38.9190   77.9950   57.6200 H   0  0  0  0  0  0  0  0  0  0  0  0
   40.0340   78.5070   59.6840 H   0  0  0  0  0  0  0  0  0  0  0  0
   42.3390   73.7960   60.2660 C   0  0  0  0  0  0  0  0  0  0  0  0
   40.9970   74.0930   60.4420 C   0  0  0  0  0  0  0  0  0  0  0  0
   40.2430   73.3810   61.3530 C   0  0  0  0  0  0  0  0  0  0  0  0
   39.1790   73.6200   61.4880 H   0  0  0  0  0  0  0  0  0  0  0  0
   40.8290   72.3660   62.0950 C   0  0  0  0  0  0  0  0  0  0  0  0
   40.2410   71.8070   62.8100 H   0  0  0  0  0  0  0  0  0  0  0  0
   42.1850   72.1020   61.8850 C   0  0  0  0  0  3  0  0  0  0  0  0
   42.9660   72.7930   60.9830 C   0  0  0  0  0  3  0  0  0  0  0  0
   43.8240   75.1070   58.5580 N   0  0  0  0  0  0  0  0  0  0  0  0
   43.1670   74.5170   59.3220 C   0  0  0  0  0  0  0  0  0  0  0  0
  1 15  1  0  0  0  0
  1  6  1  0  0  0  0
  2  1  2  0  0  0  0
  3  2  1  0  0  0  0
  3  4  2  0  0  0  0
  4  5  1  0  0  0  0
  5  6  2  0  0  0  0
  5 10  1  0  0  0  0
  6 20  1  0  0  0  0
  7  2  1  0  0  0  0
  8  3  1  0  0  0  0
  9  4  1  0  0  0  0
 11 12  1  0  0  0  0
 12 18  1  0  0  0  0
 12 13  2  0  0  0  0
 13 19  1  0  0  0  0
 14 13  1  0  0  0  0
 15 14  2  0  0  0  0
 16 11  2  0  0  0  0
 16 15  1  0  0  0  0
 17 11  1  0  0  0  0
 20 21  2  0  0  0  0
 20 25  1  0  0  0  0
 21 22  1  0  0  0  0
 22 27  1  0  0  0  0
 22 23  2  0  0  0  0
 24 23  1  0  0  0  0
 24 29  1  0  0  0  0
 25 24  2  0  0  0  0
 26 21  1  0  0  0  0
 28 29  2  0  0  0  0
 28 35  1  0  0  0  0
 29 30  1  0  0  0  0
 30 31  1  0  0  0  0
 30 32  2  0  0  0  0
 32 33  1  0  0  0  0
 34 32  1  0  0  0  0
 35 34  2  0  0  0  0
 36 37  3  0  0  0  0
 37 28  1  0  0  0  0
M  END
>  <minimizedAffinity>
-5.7151227

$$$$

 OpenBabel03212521083D

 37 40  0  0  0  0  0  0  0  0999 V2000
   40.1740   73.1400   57.3020 C   0  0  0  0  0  0  0  0  0  0  0  0
   39.3920   73.5550   56.2330 C   0  0  0  0  0  0  0  0  0  0  0  0
   39.5010   72.9980   54.9800 C   0  0  0  0  0  0  0  0  0  0  0  0
   40.4280   71.9820   54.7670 C   0  0  0  0  0  0  0  0  0  0  0  0
   41.2160   71.5580   55.8310 C   0  0  0  0  0  0  0  0  0  0  0  0
   41.0970   72.1250   57.0830 C   0  0  0  0  0  0  0  0  0  0  0  0
   38.6540   74.3370   56.3250 H   0  0  0  0  0  0  0  0  0  0  0  0
   38.9040   73.3040   54.1310 H   0  0  0  0  0  0  0  0  0  0  0  0
   40.5250   71.5330   53.7840 H   0  0  0  0  0  0  0  0  0  0  0  0
   41.9130   70.7690   55.5990 H   0  0  0  0  0  0  0  0  0  0  0  0
   40.6010   75.4750   60.0810 C   0  0  0  0  0  0  0  0  0  0  0  0
   39.7290   74.9630   61.0510 C   0  0  0  0  0  0  0  0  0  0  0  0
   38.9950   73.8070   60.7330 C   0  0  0  0  0  0  0  0  0  0  0  0
   39.1650   73.2430   59.5090 N   0  0  0  0  0  0  0  0  0  0  0  0
   40.0150   73.7630   58.5970 C   0  0  0  0  0  0  0  0  0  0  0  0
   40.7060   74.8530   58.8970 N   0  0  0  0  0  0  0  0  0  0  0  0
   41.2140   76.3580   60.2160 H   0  0  0  0  0  0  0  0  0  0  0  0
   39.6750   75.4940   61.9900 H   0  0  0  0  0  0  0  0  0  0  0  0
   38.3280   73.4230   61.4890 H   0  0  0  0  0  0  0  0  0  0  0  0
   41.9420   71.6490   58.1570 C   0  0  0  0  0  0  0  0  0  0  0  0
   43.2390   72.1700   58.0540 C   0  0  0  0  0  0  0  0  0  0  0  0
   44.2120   71.8350   58.9930 C   0  0  0  0  0  0  0  0  0  0  0  0
   43.8520   71.0020   59.9850 N   0  0  0  0  0  0  0  0  0  0  0  0
   42.5880   70.4980   60.0810 C   0  0  0  0  0  0  0  0  0  0  0  0
   41.6480   70.8240   59.1710 N   0  0  0  0  0  0  0  0  0  0  0  0
   43.5970   72.8420   57.2860 H   0  0  0  0  0  0  0  0  0  0  0  0
   45.2320   72.2280   58.9340 H   0  0  0  0  0  0  0  0  0  0  0  0
   41.9230   70.1420   62.4070 C   0  0  0  0  0  0  0  0  0  0  0  0
   42.2220   69.5950   61.1680 C   0  0  0  0  0  0  0  0  0  0  0  0
   42.1700   68.2280   60.9840 C   0  0  0  0  0  0  0  0  0  0  0  0
   42.4080   67.7990   60.0000 H   0  0  0  0  0  0  0  0  0  0  0  0
   41.8180   67.3990   62.0390 C   0  0  0  0  0  0  0  0  0  0  0  0
   41.7770   66.3270   61.8970 H   0  0  0  0  0  0  0  0  0  0  0  0
   41.5250   67.9930   63.2680 C   0  0  0  0  0  3  0  0  0  0  0  0
   41.5680   69.3550   63.4870 C   0  0  0  0  0  3  0  0  0  0  0  0
   42.0100   72.7200   62.8410 N   0  0  0  0  0  0  0  0  0  0  0  0
   41.9650   71.5700   62.6450 C   0  0  0  0  0  0  0  0  0  0  0  0
  1 15  1  0  0  0  0
  2  7  1  0  0  0  0
  2  1  2  0  0  0  0
  3  2  1  0  0  0  0
  4  3  2  0  0  0  0
  4  5  1  0  0  0  0
  5  6  2  0  0  0  0
  6  1  1  0  0  0  0
  6 20  1  0  0  0  0
  8  3  1  0  0  0  0
  9  4  1  0  0  0  0
 10  5  1  0  0  0  0
 11 17  1  0  0  0  0
 11 12  1  0  0  0  0
 12 18  1  0  0  0  0
 13 12  2  0  0  0  0
 13 19  1  0  0  0  0
 14 13  1  0  0  0  0
 15 16  1  0  0  0  0
 15 14  2  0  0  0  0
 16 11  2  0  0  0  0
 20 25  1  0  0  0  0
 21 20  2  0  0  0  0
 21 22  1  0  0  0  0
 22 23  2  0  0  0  0
 23 24  1  0  0  0  0
 24 29  1  0  0  0  0
 25 24  2  0  0  0  0
 26 21  1  0  0  0  0
 27 22  1  0  0  0  0
 28 37  1  0  0  0  0
 28 35  1  0  0  0  0
 29 28  2  0  0  0  0
 30 29  1  0  0  0  0
 30 32  2  0  0  0  0
 31 30  1  0  0  0  0
 32 34  1  0  0  0  0
 33 32  1  0  0  0  0
 34 35  2  0  0  0  0
 37 36  3  0  0  0  0
M  END
>  <minimizedAffinity>
-5.68248415

$$$$

 OpenBabel03212521083D

 37 40  0  0  0  0  0  0  0  0999 V2000
   40.5070   74.6400   57.3590 C   0  0  0  0  0  0  0  0  0  0  0  0
   39.7500   75.0530   56.2720 C   0  0  0  0  0  0  0  0  0  0  0  0
   40.2010   74.9470   54.9760 C   0  0  0  0  0  0  0  0  0  0  0  0
   41.4610   74.4080   54.7390 C   0  0  0  0  0  0  0  0  0  0  0  0
   42.2270   73.9890   55.8210 C   0  0  0  0  0  0  0  0  0  0  0  0
   41.7640   74.1020   57.1150 C   0  0  0  0  0  0  0  0  0  0  0  0
   38.7640   75.4810   56.3810 H   0  0  0  0  0  0  0  0  0  0  0  0
   39.6300   75.2630   54.1130 H   0  0  0  0  0  0  0  0  0  0  0  0
   41.8300   74.3180   53.7220 H   0  0  0  0  0  0  0  0  0  0  0  0
   43.1930   73.5810   55.5670 H   0  0  0  0  0  0  0  0  0  0  0  0
   39.7070   76.0840   60.6190 C   0  0  0  0  0  0  0  0  0  0  0  0
   38.9890   75.0570   61.2440 C   0  0  0  0  0  0  0  0  0  0  0  0
   38.7860   73.8650   60.5280 C   0  0  0  0  0  0  0  0  0  0  0  0
   39.2920   73.7640   59.2720 N   0  0  0  0  0  0  0  0  0  0  0  0
   39.9800   74.7760   58.6980 C   0  0  0  0  0  0  0  0  0  0  0  0
   40.1710   75.9000   59.3740 N   0  0  0  0  0  0  0  0  0  0  0  0
   39.9220   77.0440   61.0740 H   0  0  0  0  0  0  0  0  0  0  0  0
   38.6340   75.2480   62.2470 H   0  0  0  0  0  0  0  0  0  0  0  0
   38.2320   73.0810   61.0230 H   0  0  0  0  0  0  0  0  0  0  0  0
   42.6010   73.6520   58.2060 C   0  0  0  0  0  0  0  0  0  0  0  0
   43.4880   74.6580   58.6140 C   0  0  0  0  0  0  0  0  0  0  0  0
   44.3840   74.4290   59.6560 C   0  0  0  0  0  0  0  0  0  0  0  0
   44.3580   73.2180   60.2400 N   0  0  0  0  0  0  0  0  0  0  0  0
   43.4920   72.2430   59.8380 C   0  0  0  0  0  0  0  0  0  0  0  0
   42.6260   72.4670   58.8310 N   0  0  0  0  0  0  0  0  0  0  0  0
   43.5650   75.6510   58.1930 H   0  0  0  0  0  0  0  0  0  0  0  0
   45.0870   75.1980   59.9940 H   0  0  0  0  0  0  0  0  0  0  0  0
   42.7590   70.7880   61.6620 C   0  0  0  0  0  0  0  0  0  0  0  0
   43.4820   70.9360   60.4890 C   0  0  0  0  0  0  0  0  0  0  0  0
   44.1720   69.8630   59.9600 C   0  0  0  0  0  0  0  0  0  0  0  0
   44.7440   69.9850   59.0300 H   0  0  0  0  0  0  0  0  0  0  0  0
   44.1410   68.6340   60.6040 C   0  0  0  0  0  0  0  0  0  0  0  0
   44.6810   67.7920   60.1910 H   0  0  0  0  0  0  0  0  0  0  0  0
   43.4000   68.5320   61.7830 C   0  0  0  0  0  3  0  0  0  0  0  0
   42.7000   69.5840   62.3380 C   0  0  0  0  0  3  0  0  0  0  0  0
   41.4380   72.7760   62.7320 N   0  0  0  0  0  0  0  0  0  0  0  0
   42.0220   71.8870   62.2510 C   0  0  0  0  0  0  0  0  0  0  0  0
  1 15  1  0  0  0  0
  2  7  1  0  0  0  0
  2  1  2  0  0  0  0
  3  2  1  0  0  0  0
  4  3  2  0  0  0  0
  4  5  1  0  0  0  0
  5  6  2  0  0  0  0
  6  1  1  0  0  0  0
  6 20  1  0  0  0  0
  8  3  1  0  0  0  0
  9  4  1  0  0  0  0
 10  5  1  0  0  0  0
 11 17  1  0  0  0  0
 11 12  1  0  0  0  0
 12 18  1  0  0  0  0
 13 19  1  0  0  0  0
 13 12  2  0  0  0  0
 14 13  1  0  0  0  0
 15 14  2  0  0  0  0
 15 16  1  0  0  0  0
 16 11  2  0  0  0  0
 20 21  2  0  0  0  0
 20 25  1  0  0  0  0
 21 22  1  0  0  0  0
 22 27  1  0  0  0  0
 22 23  2  0  0  0  0
 24 23  1  0  0  0  0
 24 29  1  0  0  0  0
 25 24  2  0  0  0  0
 26 21  1  0  0  0  0
 28 37  1  0  0  0  0
 28 35  1  0  0  0  0
 29 28  2  0  0  0  0
 30 29  1  0  0  0  0
 30 32  2  0  0  0  0
 31 30  1  0  0  0  0
 32 34  1  0  0  0  0
 33 32  1  0  0  0  0
 34 35  2  0  0  0  0
 37 36  3  0  0  0  0
M  END
>  <minimizedAffinity>
-5.65006876

$$$$

 OpenBabel03212521083D

 37 40  0  0  0  0  0  0  0  0999 V2000
   38.1470   75.3080   56.8090 C   0  0  0  0  0  0  0  0  0  0  0  0
   37.0470   76.0320   56.3680 C   0  0  0  0  0  0  0  0  0  0  0  0
   36.6860   76.0880   55.0420 C   0  0  0  0  0  0  0  0  0  0  0  0
   37.4440   75.3990   54.1020 C   0  0  0  0  0  0  0  0  0  0  0  0
   38.5470   74.6700   54.5320 C   0  0  0  0  0  0  0  0  0  0  0  0
   38.9000   74.6210   55.8640 C   0  0  0  0  0  0  0  0  0  0  0  0
   36.4150   76.5900   57.0410 H   0  0  0  0  0  0  0  0  0  0  0  0
   35.8340   76.6460   54.6740 H   0  0  0  0  0  0  0  0  0  0  0  0
   37.1710   75.4350   53.0520 H   0  0  0  0  0  0  0  0  0  0  0  0
   39.0910   74.1600   53.7530 H   0  0  0  0  0  0  0  0  0  0  0  0
   39.5160   76.3110   60.0450 C   0  0  0  0  0  0  0  0  0  0  0  0
   39.1210   75.2620   60.8860 C   0  0  0  0  0  0  0  0  0  0  0  0
   38.3790   74.2100   60.3230 C   0  0  0  0  0  0  0  0  0  0  0  0
   38.0820   74.2570   58.9980 N   0  0  0  0  0  0  0  0  0  0  0  0
   38.4780   75.2850   58.2160 C   0  0  0  0  0  0  0  0  0  0  0  0
   39.1780   76.2770   58.7470 N   0  0  0  0  0  0  0  0  0  0  0  0
   40.0890   77.1710   60.3690 H   0  0  0  0  0  0  0  0  0  0  0  0
   39.4150   75.3290   61.9240 H   0  0  0  0  0  0  0  0  0  0  0  0
   38.0830   73.4080   60.9810 H   0  0  0  0  0  0  0  0  0  0  0  0
   40.0580   73.8480   56.2610 C   0  0  0  0  0  0  0  0  0  0  0  0
   41.2170   74.6360   56.2650 C   0  0  0  0  0  0  0  0  0  0  0  0
   42.4450   74.0820   56.6200 C   0  0  0  0  0  0  0  0  0  0  0  0
   42.4640   72.7790   56.9500 N   0  0  0  0  0  0  0  0  0  0  0  0
   41.3320   72.0180   56.9450 C   0  0  0  0  0  0  0  0  0  0  0  0
   40.1450   72.5560   56.6020 N   0  0  0  0  0  0  0  0  0  0  0  0
   41.2770   75.6860   56.0120 H   0  0  0  0  0  0  0  0  0  0  0  0
   43.3660   74.6750   56.6310 H   0  0  0  0  0  0  0  0  0  0  0  0
   41.3770   70.2690   58.6540 C   0  0  0  0  0  0  0  0  0  0  0  0
   41.3770   70.6040   57.3090 C   0  0  0  0  0  0  0  0  0  0  0  0
   41.4200   69.6140   56.3480 C   0  0  0  0  0  0  0  0  0  0  0  0
   41.4210   69.8840   55.2830 H   0  0  0  0  0  0  0  0  0  0  0  0
   41.4630   68.2800   56.7290 C   0  0  0  0  0  0  0  0  0  0  0  0
   41.4970   67.5020   55.9780 H   0  0  0  0  0  0  0  0  0  0  0  0
   41.4610   67.9900   58.0950 C   0  0  0  0  0  3  0  0  0  0  0  0
   41.4190   68.9550   59.0810 C   0  0  0  0  0  3  0  0  0  0  0  0
   41.2850   72.0840   60.5360 N   0  0  0  0  0  0  0  0  0  0  0  0
   41.3330   71.2760   59.6940 C   0  0  0  0  0  0  0  0  0  0  0  0
  1 15  1  0  0  0  0
  2  1  1  0  0  0  0
  2  7  1  0  0  0  0
  3  2  2  0  0  0  0
  4  5  2  0  0  0  0
  4  3  1  0  0  0  0
  5  6  1  0  0  0  0
  6 20  1  0  0  0  0
  6  1  2  0  0  0  0
  8  3  1  0  0  0  0
  9  4  1  0  0  0  0
 10  5  1  0  0  0  0
 11 17  1  0  0  0  0
 11 12  1  0  0  0  0
 12 18  1  0  0  0  0
 13 12  2  0  0  0  0
 13 19  1  0  0  0  0
 14 13  1  0  0  0  0
 15 16  1  0  0  0  0
 15 14  2  0  0  0  0
 16 11  2  0  0  0  0
 20 21  2  0  0  0  0
 20 25  1  0  0  0  0
 21 22  1  0  0  0  0
 22 27  1  0  0  0  0
 22 23  2  0  0  0  0
 24 23  1  0  0  0  0
 24 29  1  0  0  0  0
 25 24  2  0  0  0  0
 26 21  1  0  0  0  0
 28 35  1  0  0  0  0
 28 37  1  0  0  0  0
 29 28  2  0  0  0  0
 30 32  2  0  0  0  0
 30 29  1  0  0  0  0
 31 30  1  0  0  0  0
 32 34  1  0  0  0  0
 33 32  1  0  0  0  0
 34 35  2  0  0  0  0
 37 36  3  0  0  0  0
M  END
>  <minimizedAffinity>
-5.64548874

$$$$
