
 OpenBabel03212521073D

 37 40  0  0  0  0  0  0  0  0999 V2000
   41.8310   84.2420   61.5600 C   0  0  0  0  0  0  0  0  0  0  0  0
   41.4960   83.9210   62.8680 C   0  0  0  0  0  0  0  0  0  0  0  0
   40.2380   83.4920   63.2220 C   0  0  0  0  0  0  0  0  0  0  0  0
   39.2600   83.3740   62.2400 C   0  0  0  0  0  0  0  0  0  0  0  0
   39.5850   83.6920   60.9270 C   0  0  0  0  0  0  0  0  0  0  0  0
   40.8500   84.1220   60.5840 C   0  0  0  0  0  0  0  0  0  0  0  0
   42.2040   83.9890   63.6800 H   0  0  0  0  0  0  0  0  0  0  0  0
   39.9530   83.2360   64.2340 H   0  0  0  0  0  0  0  0  0  0  0  0
   38.2630   83.0360   62.5050 H   0  0  0  0  0  0  0  0  0  0  0  0
   38.7820   83.5790   60.2160 H   0  0  0  0  0  0  0  0  0  0  0  0
   45.3380   84.1700   60.5330 C   0  0  0  0  0  0  0  0  0  0  0  0
   45.7210   85.5120   60.6500 C   0  0  0  0  0  0  0  0  0  0  0  0
   44.7570   86.4370   61.0850 C   0  0  0  0  0  0  0  0  0  0  0  0
   43.5070   85.9900   61.3710 N   0  0  0  0  0  0  0  0  0  0  0  0
   43.1710   84.6880   61.2470 C   0  0  0  0  0  0  0  0  0  0  0  0
   44.0800   83.8160   60.8370 N   0  0  0  0  0  0  0  0  0  0  0  0
   45.9960   83.3730   60.2080 H   0  0  0  0  0  0  0  0  0  0  0  0
   46.7430   85.7540   60.3950 H   0  0  0  0  0  0  0  0  0  0  0  0
   45.0660   87.4680   61.1710 H   0  0  0  0  0  0  0  0  0  0  0  0
   41.1370   84.4410   59.2020 C   0  0  0  0  0  0  0  0  0  0  0  0
   40.6570   85.7140   58.8640 C   0  0  0  0  0  0  0  0  0  0  0  0
   40.8320   86.2160   57.5760 C   0  0  0  0  0  0  0  0  0  0  0  0
   41.4710   85.4330   56.6890 N   0  0  0  0  0  0  0  0  0  0  0  0
   41.9360   84.1950   57.0240 C   0  0  0  0  0  0  0  0  0  0  0  0
   41.7660   83.7120   58.2710 N   0  0  0  0  0  0  0  0  0  0  0  0
   40.1360   86.3960   59.5240 H   0  0  0  0  0  0  0  0  0  0  0  0
   40.4660   87.2070   57.2870 H   0  0  0  0  0  0  0  0  0  0  0  0
   43.9340   83.6880   55.7070 C   0  0  0  0  0  0  0  0  0  0  0  0
   42.6280   83.3640   56.0430 C   0  0  0  0  0  0  0  0  0  0  0  0
   42.0100   82.2800   55.4550 C   0  0  0  0  0  0  0  0  0  0  0  0
   40.9760   82.0250   55.7240 H   0  0  0  0  0  0  0  0  0  0  0  0
   42.6970   81.5100   54.5260 C   0  0  0  0  0  0  0  0  0  0  0  0
   42.2150   80.6590   54.0630 H   0  0  0  0  0  0  0  0  0  0  0  0
   44.0090   81.8740   54.2190 C   0  0  0  0  0  3  0  0  0  0  0  0
   44.6570   82.9530   54.7880 C   0  0  0  0  0  3  0  0  0  0  0  0
   45.1800   85.7210   56.7830 N   0  0  0  0  0  0  0  0  0  0  0  0
   44.6190   84.8180   56.3000 C   0  0  0  0  0  0  0  0  0  0  0  0
  1  2  1  0  0  0  0
  2  3  2  0  0  0  0
  2  7  1  0  0  0  0
  3  8  1  0  0  0  0
  4  9  1  0  0  0  0
  4  3  1  0  0  0  0
  5  4  2  0  0  0  0
  6  5  1  0  0  0  0
  6  1  2  0  0  0  0
 10  5  1  0  0  0  0
 11 12  2  0  0  0  0
 11 16  1  0  0  0  0
 12 13  1  0  0  0  0
 13 19  1  0  0  0  0
 13 14  2  0  0  0  0
 15 14  1  0  0  0  0
 15  1  1  0  0  0  0
 16 15  2  0  0  0  0
 17 11  1  0  0  0  0
 18 12  1  0  0  0  0
 20  6  1  0  0  0  0
 21 20  1  0  0  0  0
 21 26  1  0  0  0  0
 22 21  2  0  0  0  0
 23 24  2  0  0  0  0
 23 22  1  0  0  0  0
 24 25  1  0  0  0  0
 25 20  2  0  0  0  0
 27 22  1  0  0  0  0
 28 29  1  0  0  0  0
 28 37  1  0  0  0  0
 29 24  1  0  0  0  0
 30 31  1  0  0  0  0
 30 29  2  0  0  0  0
 32 30  1  0  0  0  0
 33 32  1  0  0  0  0
 34 32  2  0  0  0  0
 34 35  1  0  0  0  0
 35 28  2  0  0  0  0
 37 36  3  0  0  0  0
M  END
>  <minimizedAffinity>
-5.40876579

>  <minimizedRMSD>
0.51145637

$$$$
