
 OpenBabel03212521063D

 37 40  0  0  0  0  0  0  0  0999 V2000
   41.8130   84.2490   61.5560 C   0  0  0  0  0  0  0  0  0  0  0  0
   41.4560   83.9450   62.8620 C   0  0  0  0  0  0  0  0  0  0  0  0
   40.1910   83.5250   63.2030 C   0  0  0  0  0  0  0  0  0  0  0  0
   39.2280   83.3990   62.2080 C   0  0  0  0  0  0  0  0  0  0  0  0
   39.5740   83.7000   60.8950 C   0  0  0  0  0  0  0  0  0  0  0  0
   40.8450   84.1210   60.5670 C   0  0  0  0  0  0  0  0  0  0  0  0
   42.1520   84.0200   63.6840 H   0  0  0  0  0  0  0  0  0  0  0  0
   39.8900   83.2830   64.2130 H   0  0  0  0  0  0  0  0  0  0  0  0
   38.2250   83.0690   62.4620 H   0  0  0  0  0  0  0  0  0  0  0  0
   38.7810   83.5820   60.1740 H   0  0  0  0  0  0  0  0  0  0  0  0
   45.3350   84.1510   60.5870 C   0  0  0  0  0  0  0  0  0  0  0  0
   45.7210   85.4940   60.6890 C   0  0  0  0  0  0  0  0  0  0  0  0
   44.7530   86.4280   61.0940 C   0  0  0  0  0  0  0  0  0  0  0  0
   43.4960   85.9900   61.3670 N   0  0  0  0  0  0  0  0  0  0  0  0
   43.1580   84.6860   61.2580 C   0  0  0  0  0  0  0  0  0  0  0  0
   44.0710   83.8050   60.8760 N   0  0  0  0  0  0  0  0  0  0  0  0
   45.9950   83.3470   60.2850 H   0  0  0  0  0  0  0  0  0  0  0  0
   46.7480   85.7280   60.4470 H   0  0  0  0  0  0  0  0  0  0  0  0
   45.0640   87.4590   61.1690 H   0  0  0  0  0  0  0  0  0  0  0  0
   41.1550   84.4230   59.1850 C   0  0  0  0  0  0  0  0  0  0  0  0
   40.7160   85.7070   58.8350 C   0  0  0  0  0  0  0  0  0  0  0  0
   40.9170   86.1950   57.5460 C   0  0  0  0  0  0  0  0  0  0  0  0
   41.5400   85.3880   56.6700 N   0  0  0  0  0  0  0  0  0  0  0  0
   41.9660   84.1390   57.0170 C   0  0  0  0  0  0  0  0  0  0  0  0
   41.7700   83.6690   58.2650 N   0  0  0  0  0  0  0  0  0  0  0  0
   40.2090   86.4080   59.4850 H   0  0  0  0  0  0  0  0  0  0  0  0
   40.5840   87.1940   57.2470 H   0  0  0  0  0  0  0  0  0  0  0  0
   43.9950   83.4780   55.8230 C   0  0  0  0  0  0  0  0  0  0  0  0
   42.6410   83.2810   56.0470 C   0  0  0  0  0  0  0  0  0  0  0  0
   41.9630   82.2940   55.3630 C   0  0  0  0  0  0  0  0  0  0  0  0
   40.8900   82.1400   55.5430 H   0  0  0  0  0  0  0  0  0  0  0  0
   42.6360   81.4960   54.4480 C   0  0  0  0  0  0  0  0  0  0  0  0
   42.1050   80.7210   53.9100 H   0  0  0  0  0  0  0  0  0  0  0  0
   43.9990   81.7300   54.2540 C   0  0  0  0  0  3  0  0  0  0  0  0
   44.7070   82.7090   54.9230 C   0  0  0  0  0  3  0  0  0  0  0  0
   45.3590   85.3200   57.0850 N   0  0  0  0  0  0  0  0  0  0  0  0
   44.7460   84.5020   56.5190 C   0  0  0  0  0  0  0  0  0  0  0  0
  1  2  1  0  0  0  0
  2  3  2  0  0  0  0
  2  7  1  0  0  0  0
  3  8  1  0  0  0  0
  4  9  1  0  0  0  0
  4  3  1  0  0  0  0
  5  4  2  0  0  0  0
  6  5  1  0  0  0  0
  6  1  2  0  0  0  0
 10  5  1  0  0  0  0
 11 12  2  0  0  0  0
 11 16  1  0  0  0  0
 12 13  1  0  0  0  0
 13 19  1  0  0  0  0
 13 14  2  0  0  0  0
 15 14  1  0  0  0  0
 15  1  1  0  0  0  0
 16 15  2  0  0  0  0
 17 11  1  0  0  0  0
 18 12  1  0  0  0  0
 20  6  1  0  0  0  0
 21 20  1  0  0  0  0
 21 26  1  0  0  0  0
 22 21  2  0  0  0  0
 23 24  2  0  0  0  0
 23 22  1  0  0  0  0
 24 25  1  0  0  0  0
 25 20  2  0  0  0  0
 27 22  1  0  0  0  0
 28 29  1  0  0  0  0
 28 37  1  0  0  0  0
 29 24  1  0  0  0  0
 30 31  1  0  0  0  0
 30 29  2  0  0  0  0
 32 30  1  0  0  0  0
 33 32  1  0  0  0  0
 34 32  2  0  0  0  0
 34 35  1  0  0  0  0
 35 28  2  0  0  0  0
 37 36  3  0  0  0  0
M  END
>  <minimizedAffinity>
-5.36146498

>  <minimizedRMSD>
0.488909155

$$$$
