
 OpenBabel03212521063D

 37 40  0  0  0  0  0  0  0  0999 V2000
   41.8230   84.2540   61.6220 C   0  0  0  0  0  0  0  0  0  0  0  0
   41.3880   83.9770   62.9110 C   0  0  0  0  0  0  0  0  0  0  0  0
   40.1050   83.5620   63.1820 C   0  0  0  0  0  0  0  0  0  0  0  0
   39.2040   83.4120   62.1320 C   0  0  0  0  0  0  0  0  0  0  0  0
   39.6300   83.6850   60.8370 C   0  0  0  0  0  0  0  0  0  0  0  0
   40.9190   84.1020   60.5780 C   0  0  0  0  0  0  0  0  0  0  0  0
   42.0320   84.0720   63.7720 H   0  0  0  0  0  0  0  0  0  0  0  0
   39.7420   83.3410   64.1770 H   0  0  0  0  0  0  0  0  0  0  0  0
   38.1890   83.0840   62.3310 H   0  0  0  0  0  0  0  0  0  0  0  0
   38.8830   83.5490   60.0710 H   0  0  0  0  0  0  0  0  0  0  0  0
   45.4330   84.1350   61.0670 C   0  0  0  0  0  0  0  0  0  0  0  0
   45.7760   85.4900   60.9740 C   0  0  0  0  0  0  0  0  0  0  0  0
   44.7490   86.4400   61.1040 C   0  0  0  0  0  0  0  0  0  0  0  0
   43.4800   86.0030   61.3140 N   0  0  0  0  0  0  0  0  0  0  0  0
   43.1840   84.6880   61.3980 C   0  0  0  0  0  0  0  0  0  0  0  0
   44.1530   83.7920   61.2750 N   0  0  0  0  0  0  0  0  0  0  0  0
   46.1410   83.3180   60.9820 H   0  0  0  0  0  0  0  0  0  0  0  0
   46.8190   85.7210   60.8070 H   0  0  0  0  0  0  0  0  0  0  0  0
   45.0280   87.4800   61.0310 H   0  0  0  0  0  0  0  0  0  0  0  0
   41.3120   84.3750   59.2120 C   0  0  0  0  0  0  0  0  0  0  0  0
   40.6520   85.5030   58.7090 C   0  0  0  0  0  0  0  0  0  0  0  0
   40.8900   85.9390   57.4070 C   0  0  0  0  0  0  0  0  0  0  0  0
   41.7680   85.2360   56.6710 N   0  0  0  0  0  0  0  0  0  0  0  0
   42.4080   84.1380   57.1670 C   0  0  0  0  0  0  0  0  0  0  0  0
   42.1760   83.7190   58.4260 N   0  0  0  0  0  0  0  0  0  0  0  0
   39.9360   86.1150   59.2420 H   0  0  0  0  0  0  0  0  0  0  0  0
   40.3870   86.8170   56.9900 H   0  0  0  0  0  0  0  0  0  0  0  0
   42.9120   82.2550   55.6900 C   0  0  0  0  0  0  0  0  0  0  0  0
   43.3580   83.3910   56.3470 C   0  0  0  0  0  0  0  0  0  0  0  0
   44.6720   83.7930   56.2200 C   0  0  0  0  0  0  0  0  0  0  0  0
   45.0220   84.6940   56.7430 H   0  0  0  0  0  0  0  0  0  0  0  0
   45.5490   83.0590   55.4330 C   0  0  0  0  0  0  0  0  0  0  0  0
   46.5800   83.3740   55.3320 H   0  0  0  0  0  0  0  0  0  0  0  0
   45.0550   81.9230   54.7910 C   0  0  0  0  0  3  0  0  0  0  0  0
   43.7490   81.4930   54.8960 C   0  0  0  0  0  3  0  0  0  0  0  0
   40.4360   81.4290   55.8690 N   0  0  0  0  0  0  0  0  0  0  0  0
   41.5420   81.7970   55.7960 C   0  0  0  0  0  0  0  0  0  0  0  0
  1  2  1  0  0  0  0
  2  3  2  0  0  0  0
  2  7  1  0  0  0  0
  3  8  1  0  0  0  0
  4  9  1  0  0  0  0
  4  3  1  0  0  0  0
  5  4  2  0  0  0  0
  6  5  1  0  0  0  0
  6  1  2  0  0  0  0
 10  5  1  0  0  0  0
 11 16  1  0  0  0  0
 12 11  2  0  0  0  0
 12 13  1  0  0  0  0
 13 14  2  0  0  0  0
 14 15  1  0  0  0  0
 15  1  1  0  0  0  0
 16 15  2  0  0  0  0
 17 11  1  0  0  0  0
 18 12  1  0  0  0  0
 19 13  1  0  0  0  0
 20  6  1  0  0  0  0
 21 20  1  0  0  0  0
 21 26  1  0  0  0  0
 22 21  2  0  0  0  0
 23 24  2  0  0  0  0
 23 22  1  0  0  0  0
 24 25  1  0  0  0  0
 25 20  2  0  0  0  0
 27 22  1  0  0  0  0
 28 37  1  0  0  0  0
 28 29  1  0  0  0  0
 29 24  1  0  0  0  0
 30 29  2  0  0  0  0
 30 31  1  0  0  0  0
 32 30  1  0  0  0  0
 33 32  1  0  0  0  0
 34 35  1  0  0  0  0
 34 32  2  0  0  0  0
 35 28  2  0  0  0  0
 37 36  3  0  0  0  0
M  END
>  <minimizedAffinity>
-5.4555912

>  <minimizedRMSD>
1.16834927

$$$$
