
 OpenBabel03212521063D

 37 40  0  0  0  0  0  0  0  0999 V2000
   41.8370   83.3330   62.2150 C   0  0  0  0  0  0  0  0  0  0  0  0
   41.1080   83.8270   63.2880 C   0  0  0  0  0  0  0  0  0  0  0  0
   39.7330   83.8680   63.2890 C   0  0  0  0  0  0  0  0  0  0  0  0
   39.0400   83.4000   62.1770 C   0  0  0  0  0  0  0  0  0  0  0  0
   39.7600   82.9030   61.0970 C   0  0  0  0  0  0  0  0  0  0  0  0
   41.1380   82.8680   61.1080 C   0  0  0  0  0  0  0  0  0  0  0  0
   41.5790   84.2060   64.1830 H   0  0  0  0  0  0  0  0  0  0  0  0
   39.1430   84.2480   64.1120 H   0  0  0  0  0  0  0  0  0  0  0  0
   37.9550   83.4260   62.1630 H   0  0  0  0  0  0  0  0  0  0  0  0
   39.1620   82.5570   60.2680 H   0  0  0  0  0  0  0  0  0  0  0  0
   45.2440   82.2790   63.0130 C   0  0  0  0  0  0  0  0  0  0  0  0
   46.0250   83.2640   62.3940 C   0  0  0  0  0  0  0  0  0  0  0  0
   45.3620   84.2910   61.7010 C   0  0  0  0  0  0  0  0  0  0  0  0
   44.0040   84.2820   61.6640 N   0  0  0  0  0  0  0  0  0  0  0  0
   43.2810   83.3160   62.2720 C   0  0  0  0  0  0  0  0  0  0  0  0
   43.9070   82.3480   62.9250 N   0  0  0  0  0  0  0  0  0  0  0  0
   45.6460   81.4430   63.5720 H   0  0  0  0  0  0  0  0  0  0  0  0
   47.0970   83.1710   62.4890 H   0  0  0  0  0  0  0  0  0  0  0  0
   45.9750   85.0440   61.2300 H   0  0  0  0  0  0  0  0  0  0  0  0
   41.8420   82.3410   59.9580 C   0  0  0  0  0  0  0  0  0  0  0  0
   42.1900   80.9970   60.1470 C   0  0  0  0  0  0  0  0  0  0  0  0
   42.8750   80.2990   59.1550 C   0  0  0  0  0  0  0  0  0  0  0  0
   43.1810   80.9650   58.0280 N   0  0  0  0  0  0  0  0  0  0  0  0
   42.8380   82.2740   57.8500 C   0  0  0  0  0  0  0  0  0  0  0  0
   42.1750   82.9470   58.8110 N   0  0  0  0  0  0  0  0  0  0  0  0
   41.9790   80.3990   61.0240 H   0  0  0  0  0  0  0  0  0  0  0  0
   43.1600   79.2480   59.2780 H   0  0  0  0  0  0  0  0  0  0  0  0
   44.4390   83.5460   56.5090 C   0  0  0  0  0  0  0  0  0  0  0  0
   43.1800   82.9760   56.6160 C   0  0  0  0  0  0  0  0  0  0  0  0
   42.2830   83.0790   55.5730 C   0  0  0  0  0  0  0  0  0  0  0  0
   41.2860   82.6260   55.6620 H   0  0  0  0  0  0  0  0  0  0  0  0
   42.6400   83.7540   54.4150 C   0  0  0  0  0  0  0  0  0  0  0  0
   41.9380   83.8350   53.5950 H   0  0  0  0  0  0  0  0  0  0  0  0
   43.9190   84.3120   54.3500 C   0  0  0  0  0  3  0  0  0  0  0  0
   44.8400   84.2270   55.3750 C   0  0  0  0  0  3  0  0  0  0  0  0
   46.2040   83.3900   58.4340 N   0  0  0  0  0  0  0  0  0  0  0  0
   45.4120   83.4630   57.5790 C   0  0  0  0  0  0  0  0  0  0  0  0
  1 15  1  0  0  0  0
  1  2  1  0  0  0  0
  2  3  2  0  0  0  0
  2  7  1  0  0  0  0
  3  8  1  0  0  0  0
  4  3  1  0  0  0  0
  5  6  1  0  0  0  0
  5  4  2  0  0  0  0
  6  1  2  0  0  0  0
  9  4  1  0  0  0  0
 10  5  1  0  0  0  0
 11 17  1  0  0  0  0
 12 18  1  0  0  0  0
 12 11  2  0  0  0  0
 13 12  1  0  0  0  0
 14 13  2  0  0  0  0
 14 15  1  0  0  0  0
 15 16  2  0  0  0  0
 16 11  1  0  0  0  0
 19 13  1  0  0  0  0
 20 21  1  0  0  0  0
 20  6  1  0  0  0  0
 21 26  1  0  0  0  0
 22 27  1  0  0  0  0
 22 21  2  0  0  0  0
 23 22  1  0  0  0  0
 24 23  2  0  0  0  0
 24 25  1  0  0  0  0
 25 20  2  0  0  0  0
 28 29  1  0  0  0  0
 28 37  1  0  0  0  0
 29 24  1  0  0  0  0
 30 31  1  0  0  0  0
 30 29  2  0  0  0  0
 32 30  1  0  0  0  0
 33 32  1  0  0  0  0
 34 32  2  0  0  0  0
 34 35  1  0  0  0  0
 35 28  2  0  0  0  0
 37 36  3  0  0  0  0
M  END
>  <minimizedAffinity>
-4.41698265

>  <minimizedRMSD>
2.74858308

$$$$
