
 OpenBabel03212521073D

 37 40  0  0  0  0  0  0  0  0999 V2000
   41.8320   84.2480   61.5610 C   0  0  0  0  0  0  0  0  0  0  0  0
   41.4900   83.9250   62.8670 C   0  0  0  0  0  0  0  0  0  0  0  0
   40.2300   83.4950   63.2140 C   0  0  0  0  0  0  0  0  0  0  0  0
   39.2570   83.3790   62.2270 C   0  0  0  0  0  0  0  0  0  0  0  0
   39.5890   83.6990   60.9160 C   0  0  0  0  0  0  0  0  0  0  0  0
   40.8550   84.1290   60.5800 C   0  0  0  0  0  0  0  0  0  0  0  0
   42.1940   83.9920   63.6830 H   0  0  0  0  0  0  0  0  0  0  0  0
   39.9390   83.2380   64.2240 H   0  0  0  0  0  0  0  0  0  0  0  0
   38.2590   83.0410   62.4860 H   0  0  0  0  0  0  0  0  0  0  0  0
   38.7890   83.5870   60.2000 H   0  0  0  0  0  0  0  0  0  0  0  0
   45.3480   84.1750   60.5690 C   0  0  0  0  0  0  0  0  0  0  0  0
   45.7260   85.5200   60.6730 C   0  0  0  0  0  0  0  0  0  0  0  0
   44.7550   86.4470   61.0880 C   0  0  0  0  0  0  0  0  0  0  0  0
   43.5030   85.9990   61.3670 N   0  0  0  0  0  0  0  0  0  0  0  0
   43.1720   84.6940   61.2560 C   0  0  0  0  0  0  0  0  0  0  0  0
   44.0890   83.8200   60.8650 N   0  0  0  0  0  0  0  0  0  0  0  0
   46.0110   83.3760   60.2590 H   0  0  0  0  0  0  0  0  0  0  0  0
   46.7500   85.7610   60.4250 H   0  0  0  0  0  0  0  0  0  0  0  0
   45.0600   87.4790   61.1640 H   0  0  0  0  0  0  0  0  0  0  0  0
   41.1490   84.4510   59.2000 C   0  0  0  0  0  0  0  0  0  0  0  0
   40.6300   85.7050   58.8490 C   0  0  0  0  0  0  0  0  0  0  0  0
   40.8050   86.2050   57.5600 C   0  0  0  0  0  0  0  0  0  0  0  0
   41.4810   85.4400   56.6860 N   0  0  0  0  0  0  0  0  0  0  0  0
   41.9850   84.2210   57.0340 C   0  0  0  0  0  0  0  0  0  0  0  0
   41.8150   83.7390   58.2810 N   0  0  0  0  0  0  0  0  0  0  0  0
   40.0780   86.3720   59.4970 H   0  0  0  0  0  0  0  0  0  0  0  0
   40.4090   87.1810   57.2600 H   0  0  0  0  0  0  0  0  0  0  0  0
   44.0230   83.7620   55.7640 C   0  0  0  0  0  0  0  0  0  0  0  0
   42.7170   83.4090   56.0670 C   0  0  0  0  0  0  0  0  0  0  0  0
   42.1380   82.3130   55.4600 C   0  0  0  0  0  0  0  0  0  0  0  0
   41.1030   82.0370   55.7030 H   0  0  0  0  0  0  0  0  0  0  0  0
   42.8630   81.5630   54.5450 C   0  0  0  0  0  0  0  0  0  0  0  0
   42.4100   80.7030   54.0690 H   0  0  0  0  0  0  0  0  0  0  0  0
   44.1740   81.9550   54.2710 C   0  0  0  0  0  3  0  0  0  0  0  0
   44.7840   83.0450   54.8600 C   0  0  0  0  0  3  0  0  0  0  0  0
   45.2000   85.8170   56.8760 N   0  0  0  0  0  0  0  0  0  0  0  0
   44.6710   84.9040   56.3770 C   0  0  0  0  0  0  0  0  0  0  0  0
  1  2  1  0  0  0  0
  2  3  2  0  0  0  0
  2  7  1  0  0  0  0
  3  8  1  0  0  0  0
  4  9  1  0  0  0  0
  4  3  1  0  0  0  0
  5  4  2  0  0  0  0
  6  5  1  0  0  0  0
  6  1  2  0  0  0  0
 10  5  1  0  0  0  0
 11 12  2  0  0  0  0
 11 16  1  0  0  0  0
 12 13  1  0  0  0  0
 13 19  1  0  0  0  0
 13 14  2  0  0  0  0
 15 14  1  0  0  0  0
 15  1  1  0  0  0  0
 16 15  2  0  0  0  0
 17 11  1  0  0  0  0
 18 12  1  0  0  0  0
 20  6  1  0  0  0  0
 21 20  1  0  0  0  0
 21 26  1  0  0  0  0
 22 21  2  0  0  0  0
 23 24  2  0  0  0  0
 23 22  1  0  0  0  0
 24 25  1  0  0  0  0
 25 20  2  0  0  0  0
 27 22  1  0  0  0  0
 28 29  1  0  0  0  0
 28 37  1  0  0  0  0
 29 24  1  0  0  0  0
 30 31  1  0  0  0  0
 30 29  2  0  0  0  0
 32 30  1  0  0  0  0
 33 32  1  0  0  0  0
 34 32  2  0  0  0  0
 34 35  1  0  0  0  0
 35 28  2  0  0  0  0
 37 36  3  0  0  0  0
M  END
>  <minimizedAffinity>
-5.39562607

>  <minimizedRMSD>
0.321691185

$$$$
