
 OpenBabel03212520463D

 21 22  0  0  0  0  0  0  0  0999 V2000
   39.2650   83.0400   61.6430 C   0  0  0  0  0  0  0  0  0  0  0  0
   39.5330   83.7880   60.4860 C   0  0  0  0  0  0  0  0  0  0  0  0
   40.3630   83.2010   59.5100 C   0  0  0  0  0  0  0  0  0  0  0  0
   40.8400   81.9630   59.7580 N   0  0  0  0  0  0  0  0  0  0  0  0
   40.5590   81.2820   60.8770 C   0  0  0  0  0  0  0  0  0  0  0  0
   39.7730   81.8260   61.8130 N   0  0  0  0  0  0  0  0  0  0  0  0
   38.4220   83.7530   62.5300 N   0  0  0  0  0  0  0  0  0  0  0  0
   39.1730   84.7810   60.2470 H   0  0  0  0  0  0  0  0  0  0  0  0
   40.6120   83.7240   58.5900 H   0  0  0  0  0  0  0  0  0  0  0  0
   37.4050   83.7270   62.2870 H   0  0  0  0  0  0  0  0  0  0  0  0
   38.9160   84.2320   63.3400 H   0  0  0  0  0  0  0  0  0  0  0  0
   42.3860   79.7360   61.5680 C   0  0  0  0  0  0  0  0  0  0  0  0
   41.1340   79.9500   61.0330 C   0  0  0  0  0  0  0  0  0  0  0  0
   40.3840   78.8650   60.6250 C   0  0  0  0  0  0  0  0  0  0  0  0
   39.3850   78.9910   60.1950 H   0  0  0  0  0  0  0  0  0  0  0  0
   40.8230   77.5530   60.7220 C   0  0  0  0  0  0  0  0  0  0  0  0
   40.2450   76.7140   60.4080 H   0  0  0  0  0  0  0  0  0  0  0  0
   42.0970   77.3560   61.2680 C   0  0  0  0  0  0  0  0  0  0  0  0
   42.8470   78.4250   61.6750 C   0  0  0  0  0  0  0  0  0  0  0  0
   43.8300   81.7410   62.3270 N   0  0  0  0  0  0  0  0  0  0  0  0
   43.1810   80.8430   61.9970 C   0  0  0  0  0  0  0  0  0  0  0  0
  1  6  1  0  0  0  0
  1  7  1  0  0  0  0
  2  1  2  0  0  0  0
  3  4  2  0  0  0  0
  3  2  1  0  0  0  0
  4  5  1  0  0  0  0
  5 13  1  0  0  0  0
  5  6  2  0  0  0  0
  7 11  1  0  0  0  0
  8  2  1  0  0  0  0
  9  3  1  0  0  0  0
 10  7  1  0  0  0  0
 12 19  1  0  0  0  0
 12 21  1  0  0  0  0
 13 12  2  0  0  0  0
 14 16  2  0  0  0  0
 14 13  1  0  0  0  0
 15 14  1  0  0  0  0
 16 18  1  0  0  0  0
 17 16  1  0  0  0  0
 18 19  2  0  0  0  0
 21 20  3  0  0  0  0
M  END
>  <minimizedAffinity>
-4.31238031

>  <minimizedRMSD>
5.61173344

$$$$
