
 OpenBabel03212520193D

 36 38  0  0  0  0  0  0  0  0999 V2000
   41.1640   71.9450   61.6170 Cl  0  0  0  0  0  0  0  0  0  0  0  0
   42.4990   71.4690   60.5700 C   0  0  0  0  0  0  0  0  0  0  0  0
   42.9240   70.1650   60.4500 C   0  0  0  0  0  0  0  0  0  0  0  0
   43.9750   69.9690   59.5850 C   0  0  0  0  0  0  0  0  0  0  0  0
   44.6280   70.9240   58.8440 C   0  0  0  0  0  0  0  0  0  0  0  0
   44.1700   72.1940   58.9990 C   0  0  0  0  0  0  0  0  0  0  0  0
   44.9160   73.5260   58.1010 Cl  0  0  0  0  0  0  0  0  0  0  0  0
   43.0980   72.4730   59.8660 C   0  0  0  0  0  0  0  0  0  0  0  0
   44.3230   68.9320   59.4800 H   0  0  0  0  0  0  0  0  0  0  0  0
   45.4520   70.6860   58.1800 H   0  0  0  0  0  0  0  0  0  0  0  0
   42.2280   69.0200   62.6080 C   0  0  0  0  0  0  0  0  0  0  0  0
   42.2690   69.1520   61.2070 C   0  0  0  0  0  0  0  0  0  0  0  0
   41.5970   68.1910   60.4670 C   0  0  0  0  0  0  0  0  0  0  0  0
   40.9580   67.2030   61.1600 N   0  0  0  0  0  0  0  0  0  0  0  0
   40.9450   67.1150   62.4970 C   0  0  0  0  0  0  0  0  0  0  0  0
   41.5960   68.0460   63.2460 N   0  0  0  0  0  0  0  0  0  0  0  0
   42.7580   69.7760   63.1480 H   0  0  0  0  0  0  0  0  0  0  0  0
   41.5410   68.1630   59.3880 H   0  0  0  0  0  0  0  0  0  0  0  0
   40.1880   65.9560   63.0420 C   0  0  0  0  0  0  0  0  0  0  0  0
   39.4130   65.3420   62.0990 F   0  0  0  0  0  0  0  0  0  0  0  0
   41.0820   65.0250   63.5770 F   0  0  0  0  0  0  0  0  0  0  0  0
   39.3060   66.3900   64.0500 F   0  0  0  0  0  0  0  0  0  0  0  0
   42.6860   73.7910   59.9720 O   0  0  0  0  0  0  0  0  0  0  0  0
   41.6710   74.3680   59.1950 C   0  0  0  0  0  0  0  0  0  0  0  0
   40.8050   73.6440   59.2590 H   0  0  0  0  0  0  0  0  0  0  0  0
   42.0010   74.3710   58.1390 H   0  0  0  0  0  0  0  0  0  0  0  0
   40.2800   76.1380   60.4640 C   0  0  0  0  0  0  0  0  0  0  0  0
   41.3240   75.6940   59.7010 C   0  0  0  0  0  0  0  0  0  0  0  0
   42.2590   76.6830   59.3500 C   0  0  0  0  0  0  0  0  0  0  0  0
   43.1680   76.5740   58.7510 H   0  0  0  0  0  0  0  0  0  0  0  0
   42.0910   77.9800   59.7700 C   0  0  0  0  0  0  0  0  0  0  0  0
   42.7750   78.8020   59.5380 H   0  0  0  0  0  0  0  0  0  0  0  0
   41.0250   78.3920   60.5390 C   0  0  0  0  0  3  0  0  0  0  0  0
   40.0880   77.4230   60.8940 C   0  0  0  0  0  3  0  0  0  0  0  0
   38.5500   74.3000   61.0780 N   0  0  0  0  0  0  0  0  0  0  0  0
   39.3090   75.1220   60.8050 C   0  0  0  0  0  0  0  0  0  0  0  0
  2  1  1  0  0  0  0
  3  2  1  0  0  0  0
  3 12  1  0  0  0  0
  4  3  2  0  0  0  0
  5  6  2  0  0  0  0
  5  4  1  0  0  0  0
  6  8  1  0  0  0  0
  7  6  1  0  0  0  0
  8 23  1  0  0  0  0
  8  2  2  0  0  0  0
  9  4  1  0  0  0  0
 10  5  1  0  0  0  0
 11 17  1  0  0  0  0
 11 16  1  0  0  0  0
 12 11  2  0  0  0  0
 13 14  2  0  0  0  0
 13 12  1  0  0  0  0
 14 15  1  0  0  0  0
 15 19  1  0  0  0  0
 15 16  2  0  0  0  0
 18 13  1  0  0  0  0
 19 21  1  0  0  0  0
 19 22  1  0  0  0  0
 20 19  1  0  0  0  0
 24 25  1  0  0  0  0
 24 28  1  0  0  0  0
 24 23  1  0  0  0  0
 26 24  1  0  0  0  0
 27 36  1  0  0  0  0
 27 34  1  0  0  0  0
 28 27  2  0  0  0  0
 29 28  1  0  0  0  0
 29 31  2  0  0  0  0
 30 29  1  0  0  0  0
 31 33  1  0  0  0  0
 32 31  1  0  0  0  0
 33 34  2  0  0  0  0
 36 35  3  0  0  0  0
M  END
>  <minimizedAffinity>
-6.67402029

$$$$

 OpenBabel03212520193D

 36 38  0  0  0  0  0  0  0  0999 V2000
   42.3610   72.6180   62.5580 Cl  0  0  0  0  0  0  0  0  0  0  0  0
   41.8700   71.7980   61.0770 C   0  0  0  0  0  0  0  0  0  0  0  0
   41.2500   72.4510   60.0340 C   0  0  0  0  0  0  0  0  0  0  0  0
   40.9400   71.6610   58.9510 C   0  0  0  0  0  0  0  0  0  0  0  0
   41.1810   70.3170   58.8100 C   0  0  0  0  0  0  0  0  0  0  0  0
   41.7940   69.7210   59.8680 C   0  0  0  0  0  0  0  0  0  0  0  0
   42.1700   67.9910   59.8200 Cl  0  0  0  0  0  0  0  0  0  0  0  0
   42.1420   70.4630   61.0100 C   0  0  0  0  0  0  0  0  0  0  0  0
   40.4470   72.1710   58.1120 H   0  0  0  0  0  0  0  0  0  0  0  0
   40.9050   69.7640   57.9190 H   0  0  0  0  0  0  0  0  0  0  0  0
   39.9100   74.4600   60.8210 C   0  0  0  0  0  0  0  0  0  0  0  0
   40.9850   73.8450   60.1510 C   0  0  0  0  0  0  0  0  0  0  0  0
   41.8970   74.6840   59.5300 C   0  0  0  0  0  0  0  0  0  0  0  0
   41.6730   76.0280   59.6200 N   0  0  0  0  0  0  0  0  0  0  0  0
   40.6340   76.5700   60.2700 C   0  0  0  0  0  0  0  0  0  0  0  0
   39.7250   75.7700   60.8880 N   0  0  0  0  0  0  0  0  0  0  0  0
   39.2240   73.7840   61.2880 H   0  0  0  0  0  0  0  0  0  0  0  0
   42.7690   74.3570   58.9800 H   0  0  0  0  0  0  0  0  0  0  0  0
   40.5840   78.0570   60.2390 C   0  0  0  0  0  0  0  0  0  0  0  0
   39.6520   78.5360   59.3630 F   0  0  0  0  0  0  0  0  0  0  0  0
   40.3000   78.5410   61.5200 F   0  0  0  0  0  0  0  0  0  0  0  0
   41.8230   78.5700   59.8100 F   0  0  0  0  0  0  0  0  0  0  0  0
   42.7640   69.7880   62.0470 O   0  0  0  0  0  0  0  0  0  0  0  0
   42.1450   69.4590   63.2610 C   0  0  0  0  0  0  0  0  0  0  0  0
   41.3440   70.2430   63.4040 H   0  0  0  0  0  0  0  0  0  0  0  0
   42.8780   69.6080   64.0760 H   0  0  0  0  0  0  0  0  0  0  0  0
   42.1920   66.8800   63.1140 C   0  0  0  0  0  0  0  0  0  0  0  0
   41.5960   68.1060   63.2120 C   0  0  0  0  0  0  0  0  0  0  0  0
   40.1940   68.0730   63.3080 C   0  0  0  0  0  0  0  0  0  0  0  0
   39.5000   68.9140   63.3950 H   0  0  0  0  0  0  0  0  0  0  0  0
   39.5240   66.8740   63.3030 C   0  0  0  0  0  0  0  0  0  0  0  0
   38.4380   66.7680   63.3750 H   0  0  0  0  0  0  0  0  0  0  0  0
   40.1590   65.6550   63.2030 C   0  0  0  0  0  3  0  0  0  0  0  0
   41.5490   65.6710   63.1050 C   0  0  0  0  0  3  0  0  0  0  0  0
   44.7800   66.9320   62.8880 N   0  0  0  0  0  0  0  0  0  0  0  0
   43.6330   66.9190   62.9940 C   0  0  0  0  0  0  0  0  0  0  0  0
  2  1  1  0  0  0  0
  3 12  1  0  0  0  0
  3  2  2  0  0  0  0
  4  3  1  0  0  0  0
  5  4  2  0  0  0  0
  5  6  1  0  0  0  0
  6  8  2  0  0  0  0
  7  6  1  0  0  0  0
  8  2  1  0  0  0  0
  8 23  1  0  0  0  0
  9  4  1  0  0  0  0
 10  5  1  0  0  0  0
 11 16  1  0  0  0  0
 11 17  1  0  0  0  0
 12 11  2  0  0  0  0
 13 14  2  0  0  0  0
 13 12  1  0  0  0  0
 14 15  1  0  0  0  0
 15 16  2  0  0  0  0
 18 13  1  0  0  0  0
 19 15  1  0  0  0  0
 19 21  1  0  0  0  0
 20 19  1  0  0  0  0
 22 19  1  0  0  0  0
 23 24  1  0  0  0  0
 24 25  1  0  0  0  0
 24 26  1  0  0  0  0
 27 28  1  0  0  0  0
 28 24  1  0  0  0  0
 28 29  2  0  0  0  0
 29 30  1  0  0  0  0
 31 29  1  0  0  0  0
 31 32  1  0  0  0  0
 33 31  2  0  0  0  0
 34 27  2  0  0  0  0
 34 33  1  0  0  0  0
 35 36  3  0  0  0  0
 36 27  1  0  0  0  0
M  END
>  <minimizedAffinity>
-6.63517332

$$$$

 OpenBabel03212520193D

 36 38  0  0  0  0  0  0  0  0999 V2000
   40.4180   72.4350   61.9240 Cl  0  0  0  0  0  0  0  0  0  0  0  0
   41.7640   72.6620   60.8100 C   0  0  0  0  0  0  0  0  0  0  0  0
   42.6640   71.6620   60.5140 C   0  0  0  0  0  0  0  0  0  0  0  0
   43.6500   72.0070   59.6200 C   0  0  0  0  0  0  0  0  0  0  0  0
   43.8230   73.2240   59.0050 C   0  0  0  0  0  0  0  0  0  0  0  0
   42.9080   74.1760   59.3310 C   0  0  0  0  0  0  0  0  0  0  0  0
   43.0070   75.7900   58.6100 Cl  0  0  0  0  0  0  0  0  0  0  0  0
   41.8710   73.8960   60.2380 C   0  0  0  0  0  0  0  0  0  0  0  0
   44.3740   71.2180   59.3750 H   0  0  0  0  0  0  0  0  0  0  0  0
   44.6300   73.4160   58.3070 H   0  0  0  0  0  0  0  0  0  0  0  0
   42.8240   70.0440   62.4660 C   0  0  0  0  0  0  0  0  0  0  0  0
   42.5130   70.3900   61.1370 C   0  0  0  0  0  0  0  0  0  0  0  0
   42.0010   69.3850   60.3310 C   0  0  0  0  0  0  0  0  0  0  0  0
   41.8440   68.1510   60.8950 N   0  0  0  0  0  0  0  0  0  0  0  0
   42.1530   67.8660   62.1670 C   0  0  0  0  0  0  0  0  0  0  0  0
   42.6570   68.8340   62.9780 N   0  0  0  0  0  0  0  0  0  0  0  0
   43.2180   70.8420   63.0590 H   0  0  0  0  0  0  0  0  0  0  0  0
   41.7180   69.5020   59.2940 H   0  0  0  0  0  0  0  0  0  0  0  0
   41.9030   66.4560   62.5710 C   0  0  0  0  0  0  0  0  0  0  0  0
   42.9970   65.6550   62.3960 F   0  0  0  0  0  0  0  0  0  0  0  0
   41.5170   66.4160   63.9140 F   0  0  0  0  0  0  0  0  0  0  0  0
   40.8830   65.9020   61.7750 F   0  0  0  0  0  0  0  0  0  0  0  0
   40.9770   74.9160   60.5220 O   0  0  0  0  0  0  0  0  0  0  0  0
   39.6440   74.9440   60.0870 C   0  0  0  0  0  0  0  0  0  0  0  0
   39.0280   74.9830   61.0330 H   0  0  0  0  0  0  0  0  0  0  0  0
   39.4160   73.9750   59.6040 H   0  0  0  0  0  0  0  0  0  0  0  0
   38.6920   76.2400   58.0640 C   0  0  0  0  0  0  0  0  0  0  0  0
   39.4070   76.0970   59.2210 C   0  0  0  0  0  0  0  0  0  0  0  0
   40.0120   77.2750   59.6900 C   0  0  0  0  0  0  0  0  0  0  0  0
   40.6270   77.4130   60.5830 H   0  0  0  0  0  0  0  0  0  0  0  0
   39.8620   78.4550   59.0020 C   0  0  0  0  0  0  0  0  0  0  0  0
   40.3010   79.4110   59.3030 H   0  0  0  0  0  0  0  0  0  0  0  0
   39.1340   78.5630   57.8370 C   0  0  0  0  0  3  0  0  0  0  0  0
   38.5290   77.4020   57.3590 C   0  0  0  0  0  3  0  0  0  0  0  0
   37.5970   74.0490   57.1990 N   0  0  0  0  0  0  0  0  0  0  0  0
   38.0890   75.0200   57.5740 C   0  0  0  0  0  0  0  0  0  0  0  0
  2  1  1  0  0  0  0
  3  2  1  0  0  0  0
  3 12  1  0  0  0  0
  4  3  2  0  0  0  0
  5  6  2  0  0  0  0
  5  4  1  0  0  0  0
  6  8  1  0  0  0  0
  7  6  1  0  0  0  0
  8 23  1  0  0  0  0
  8  2  2  0  0  0  0
  9  4  1  0  0  0  0
 10  5  1  0  0  0  0
 11 16  1  0  0  0  0
 11 17  1  0  0  0  0
 12 11  2  0  0  0  0
 13 14  2  0  0  0  0
 13 12  1  0  0  0  0
 14 15  1  0  0  0  0
 15 19  1  0  0  0  0
 15 16  2  0  0  0  0
 18 13  1  0  0  0  0
 19 21  1  0  0  0  0
 20 19  1  0  0  0  0
 22 19  1  0  0  0  0
 24 23  1  0  0  0  0
 24 25  1  0  0  0  0
 26 24  1  0  0  0  0
 27 28  1  0  0  0  0
 28 29  2  0  0  0  0
 28 24  1  0  0  0  0
 29 30  1  0  0  0  0
 31 32  1  0  0  0  0
 31 29  1  0  0  0  0
 33 31  2  0  0  0  0
 34 33  1  0  0  0  0
 34 27  2  0  0  0  0
 35 36  3  0  0  0  0
 36 27  1  0  0  0  0
M  END
>  <minimizedAffinity>
-6.30999851

$$$$

 OpenBabel03212520193D

 36 38  0  0  0  0  0  0  0  0999 V2000
   39.8380   71.6640   58.8750 Cl  0  0  0  0  0  0  0  0  0  0  0  0
   41.3300   72.4020   59.4510 C   0  0  0  0  0  0  0  0  0  0  0  0
   42.2780   71.7060   60.1680 C   0  0  0  0  0  0  0  0  0  0  0  0
   43.3860   72.4330   60.5350 C   0  0  0  0  0  0  0  0  0  0  0  0
   43.6360   73.7560   60.2640 C   0  0  0  0  0  0  0  0  0  0  0  0
   42.6700   74.3970   59.5540 C   0  0  0  0  0  0  0  0  0  0  0  0
   42.8630   76.1050   59.1280 Cl  0  0  0  0  0  0  0  0  0  0  0  0
   41.5080   73.7190   59.1430 C   0  0  0  0  0  0  0  0  0  0  0  0
   44.1490   71.8880   61.1070 H   0  0  0  0  0  0  0  0  0  0  0  0
   44.5400   74.2590   60.5900 H   0  0  0  0  0  0  0  0  0  0  0  0
   41.9120   69.2670   59.5580 C   0  0  0  0  0  0  0  0  0  0  0  0
   42.0460   70.3330   60.4680 C   0  0  0  0  0  0  0  0  0  0  0  0
   41.9430   70.0220   61.8150 C   0  0  0  0  0  0  0  0  0  0  0  0
   41.7200   68.7150   62.1400 N   0  0  0  0  0  0  0  0  0  0  0  0
   41.5980   67.7310   61.2380 C   0  0  0  0  0  0  0  0  0  0  0  0
   41.6960   68.0090   59.9100 N   0  0  0  0  0  0  0  0  0  0  0  0
   41.9950   69.5420   58.5260 H   0  0  0  0  0  0  0  0  0  0  0  0
   42.0250   70.7330   62.6260 H   0  0  0  0  0  0  0  0  0  0  0  0
   41.3560   66.3800   61.8130 C   0  0  0  0  0  0  0  0  0  0  0  0
   40.0290   66.0540   61.8540 F   0  0  0  0  0  0  0  0  0  0  0  0
   42.0400   65.4220   61.0610 F   0  0  0  0  0  0  0  0  0  0  0  0
   41.8080   66.3380   63.1460 F   0  0  0  0  0  0  0  0  0  0  0  0
   40.5680   74.4380   58.4230 O   0  0  0  0  0  0  0  0  0  0  0  0
   39.4130   75.0070   58.9770 C   0  0  0  0  0  0  0  0  0  0  0  0
   39.7880   75.7470   59.7440 H   0  0  0  0  0  0  0  0  0  0  0  0
   38.8730   74.2210   59.5370 H   0  0  0  0  0  0  0  0  0  0  0  0
   38.5660   76.9260   57.4680 C   0  0  0  0  0  0  0  0  0  0  0  0
   38.6030   75.6440   57.9410 C   0  0  0  0  0  0  0  0  0  0  0  0
   37.7200   74.7560   57.3040 C   0  0  0  0  0  0  0  0  0  0  0  0
   37.5680   73.6910   57.5020 H   0  0  0  0  0  0  0  0  0  0  0  0
   36.9050   75.1940   56.2880 C   0  0  0  0  0  0  0  0  0  0  0  0
   36.1940   74.5630   55.7450 H   0  0  0  0  0  0  0  0  0  0  0  0
   36.8940   76.4950   55.8360 C   0  0  0  0  0  3  0  0  0  0  0  0
   37.7640   77.3890   56.4600 C   0  0  0  0  0  3  0  0  0  0  0  0
   40.1880   78.5610   58.6700 N   0  0  0  0  0  0  0  0  0  0  0  0
   39.4600   77.8420   58.1410 C   0  0  0  0  0  0  0  0  0  0  0  0
  1  2  1  0  0  0  0
  2  3  1  0  0  0  0
  3 12  1  0  0  0  0
  3  4  2  0  0  0  0
  4  9  1  0  0  0  0
  5  4  1  0  0  0  0
  5 10  1  0  0  0  0
  6  5  2  0  0  0  0
  7  6  1  0  0  0  0
  8  2  2  0  0  0  0
  8  6  1  0  0  0  0
 11 16  2  0  0  0  0
 11 12  1  0  0  0  0
 12 13  2  0  0  0  0
 13 14  1  0  0  0  0
 13 18  1  0  0  0  0
 15 19  1  0  0  0  0
 15 14  2  0  0  0  0
 16 15  1  0  0  0  0
 17 11  1  0  0  0  0
 19 20  1  0  0  0  0
 19 22  1  0  0  0  0
 21 19  1  0  0  0  0
 23 24  1  0  0  0  0
 23  8  1  0  0  0  0
 24 26  1  0  0  0  0
 24 25  1  0  0  0  0
 27 28  1  0  0  0  0
 27 36  1  0  0  0  0
 28 24  1  0  0  0  0
 29 30  1  0  0  0  0
 29 28  2  0  0  0  0
 31 29  1  0  0  0  0
 32 31  1  0  0  0  0
 33 31  2  0  0  0  0
 33 34  1  0  0  0  0
 34 27  2  0  0  0  0
 36 35  3  0  0  0  0
M  END
>  <minimizedAffinity>
-6.214674

$$$$

 OpenBabel03212520193D

 36 38  0  0  0  0  0  0  0  0999 V2000
   43.5130   72.2420   60.4580 Cl  0  0  0  0  0  0  0  0  0  0  0  0
   42.1940   71.5100   59.5480 C   0  0  0  0  0  0  0  0  0  0  0  0
   41.1290   72.2370   59.0650 C   0  0  0  0  0  0  0  0  0  0  0  0
   40.1900   71.5090   58.3710 C   0  0  0  0  0  0  0  0  0  0  0  0
   40.2090   70.1590   58.1180 C   0  0  0  0  0  0  0  0  0  0  0  0
   41.2820   69.4890   58.6170 C   0  0  0  0  0  0  0  0  0  0  0  0
   41.4380   67.7430   58.3610 Cl  0  0  0  0  0  0  0  0  0  0  0  0
   42.2830   70.1650   59.3360 C   0  0  0  0  0  0  0  0  0  0  0  0
   39.3360   72.0780   57.9790 H   0  0  0  0  0  0  0  0  0  0  0  0
   39.4260   69.6590   57.5580 H   0  0  0  0  0  0  0  0  0  0  0  0
   41.7250   74.6600   58.5910 C   0  0  0  0  0  0  0  0  0  0  0  0
   41.0790   73.6380   59.3130 C   0  0  0  0  0  0  0  0  0  0  0  0
   40.3010   74.0290   60.3920 C   0  0  0  0  0  0  0  0  0  0  0  0
   40.2320   75.3660   60.6610 N   0  0  0  0  0  0  0  0  0  0  0  0
   40.8640   76.3060   59.9460 C   0  0  0  0  0  0  0  0  0  0  0  0
   41.6330   75.9490   58.8820 N   0  0  0  0  0  0  0  0  0  0  0  0
   42.3180   74.3240   57.7660 H   0  0  0  0  0  0  0  0  0  0  0  0
   39.7490   73.3590   61.0360 H   0  0  0  0  0  0  0  0  0  0  0  0
   40.6510   77.7010   60.4160 C   0  0  0  0  0  0  0  0  0  0  0  0
   41.8190   78.3940   60.5630 F   0  0  0  0  0  0  0  0  0  0  0  0
   39.8280   78.3780   59.5120 F   0  0  0  0  0  0  0  0  0  0  0  0
   40.0410   77.6910   61.6860 F   0  0  0  0  0  0  0  0  0  0  0  0
   43.3450   69.4150   59.8140 O   0  0  0  0  0  0  0  0  0  0  0  0
   43.6800   69.2900   61.1690 C   0  0  0  0  0  0  0  0  0  0  0  0
   43.7600   70.3510   61.5510 H   0  0  0  0  0  0  0  0  0  0  0  0
   44.6950   68.8550   61.2370 H   0  0  0  0  0  0  0  0  0  0  0  0
   41.6670   68.8920   62.7400 C   0  0  0  0  0  0  0  0  0  0  0  0
   42.6660   68.5190   61.8840 C   0  0  0  0  0  0  0  0  0  0  0  0
   42.7250   67.1410   61.6120 C   0  0  0  0  0  0  0  0  0  0  0  0
   43.4270   66.6070   60.9660 H   0  0  0  0  0  0  0  0  0  0  0  0
   41.8220   66.2800   62.1870 C   0  0  0  0  0  0  0  0  0  0  0  0
   41.8040   65.1980   62.0230 H   0  0  0  0  0  0  0  0  0  0  0  0
   40.8270   66.6910   63.0460 C   0  0  0  0  0  3  0  0  0  0  0  0
   40.7570   68.0540   63.3270 C   0  0  0  0  0  3  0  0  0  0  0  0
   41.5980   71.4310   63.2860 N   0  0  0  0  0  0  0  0  0  0  0  0
   41.6240   70.3070   63.0340 C   0  0  0  0  0  0  0  0  0  0  0  0
  2  1  1  0  0  0  0
  3 12  1  0  0  0  0
  3  2  2  0  0  0  0
  4  3  1  0  0  0  0
  5  4  2  0  0  0  0
  5  6  1  0  0  0  0
  6  8  2  0  0  0  0
  7  6  1  0  0  0  0
  8  2  1  0  0  0  0
  8 23  1  0  0  0  0
  9  4  1  0  0  0  0
 10  5  1  0  0  0  0
 11 16  2  0  0  0  0
 11 12  1  0  0  0  0
 12 13  2  0  0  0  0
 13 14  1  0  0  0  0
 13 18  1  0  0  0  0
 15 19  1  0  0  0  0
 15 14  2  0  0  0  0
 16 15  1  0  0  0  0
 17 11  1  0  0  0  0
 19 20  1  0  0  0  0
 19 22  1  0  0  0  0
 21 19  1  0  0  0  0
 23 24  1  0  0  0  0
 24 26  1  0  0  0  0
 24 25  1  0  0  0  0
 24 28  1  0  0  0  0
 27 36  1  0  0  0  0
 27 34  1  0  0  0  0
 28 27  2  0  0  0  0
 29 28  1  0  0  0  0
 29 31  2  0  0  0  0
 30 29  1  0  0  0  0
 31 33  1  0  0  0  0
 32 31  1  0  0  0  0
 33 34  2  0  0  0  0
 36 35  3  0  0  0  0
M  END
>  <minimizedAffinity>
-6.0908637

$$$$

 OpenBabel03212520193D

 36 38  0  0  0  0  0  0  0  0999 V2000
   41.1310   71.5530   58.2000 Cl  0  0  0  0  0  0  0  0  0  0  0  0
   41.4040   71.7850   59.9260 C   0  0  0  0  0  0  0  0  0  0  0  0
   41.0420   72.9360   60.5900 C   0  0  0  0  0  0  0  0  0  0  0  0
   41.3220   72.9490   61.9360 C   0  0  0  0  0  0  0  0  0  0  0  0
   41.9140   71.9490   62.6680 C   0  0  0  0  0  0  0  0  0  0  0  0
   42.2530   70.8340   61.9660 C   0  0  0  0  0  0  0  0  0  0  0  0
   43.0190   69.4640   62.7850 Cl  0  0  0  0  0  0  0  0  0  0  0  0
   41.9970   70.7480   60.5860 C   0  0  0  0  0  0  0  0  0  0  0  0
   41.0370   73.8610   62.4770 H   0  0  0  0  0  0  0  0  0  0  0  0
   42.1010   72.0370   63.7330 H   0  0  0  0  0  0  0  0  0  0  0  0
   39.0660   74.1280   59.5290 C   0  0  0  0  0  0  0  0  0  0  0  0
   40.4280   73.9920   59.8570 C   0  0  0  0  0  0  0  0  0  0  0  0
   41.2810   74.9960   59.4230 C   0  0  0  0  0  0  0  0  0  0  0  0
   40.7270   76.0240   58.7160 N   0  0  0  0  0  0  0  0  0  0  0  0
   39.4210   76.1140   58.4250 C   0  0  0  0  0  0  0  0  0  0  0  0
   38.5640   75.1430   58.8400 N   0  0  0  0  0  0  0  0  0  0  0  0
   38.4360   73.3360   59.8770 H   0  0  0  0  0  0  0  0  0  0  0  0
   42.3470   75.0260   59.6000 H   0  0  0  0  0  0  0  0  0  0  0  0
   39.0350   77.3180   57.6430 C   0  0  0  0  0  0  0  0  0  0  0  0
   38.9040   78.4340   58.4210 F   0  0  0  0  0  0  0  0  0  0  0  0
   39.9940   77.5600   56.6540 F   0  0  0  0  0  0  0  0  0  0  0  0
   37.7800   77.1150   57.0380 F   0  0  0  0  0  0  0  0  0  0  0  0
   42.3680   69.5820   59.9380 O   0  0  0  0  0  0  0  0  0  0  0  0
   41.5300   68.4720   59.7610 C   0  0  0  0  0  0  0  0  0  0  0  0
   41.2580   68.4820   58.6650 H   0  0  0  0  0  0  0  0  0  0  0  0
   40.5920   68.6530   60.3190 H   0  0  0  0  0  0  0  0  0  0  0  0
   41.9680   66.3370   61.1490 C   0  0  0  0  0  0  0  0  0  0  0  0
   42.2120   67.2410   60.1530 C   0  0  0  0  0  0  0  0  0  0  0  0
   43.3060   66.9280   59.3290 C   0  0  0  0  0  0  0  0  0  0  0  0
   43.6950   67.4900   58.4750 H   0  0  0  0  0  0  0  0  0  0  0  0
   44.0390   65.7870   59.5490 C   0  0  0  0  0  0  0  0  0  0  0  0
   44.9010   65.4760   58.9510 H   0  0  0  0  0  0  0  0  0  0  0  0
   43.7640   64.8970   60.5640 C   0  0  0  0  0  3  0  0  0  0  0  0
   42.6830   65.1950   61.3910 C   0  0  0  0  0  3  0  0  0  0  0  0
   39.9810   66.9460   62.7080 N   0  0  0  0  0  0  0  0  0  0  0  0
   40.8550   66.6740   62.0090 C   0  0  0  0  0  0  0  0  0  0  0  0
  1  2  1  0  0  0  0
  2  8  2  0  0  0  0
  2  3  1  0  0  0  0
  3  4  2  0  0  0  0
  4  9  1  0  0  0  0
  4  5  1  0  0  0  0
  5 10  1  0  0  0  0
  6  5  2  0  0  0  0
  6  7  1  0  0  0  0
  8  6  1  0  0  0  0
 11 12  1  0  0  0  0
 11 17  1  0  0  0  0
 12  3  1  0  0  0  0
 13 18  1  0  0  0  0
 13 12  2  0  0  0  0
 14 13  1  0  0  0  0
 15 14  2  0  0  0  0
 15 16  1  0  0  0  0
 16 11  2  0  0  0  0
 19 20  1  0  0  0  0
 19 15  1  0  0  0  0
 21 19  1  0  0  0  0
 22 19  1  0  0  0  0
 23  8  1  0  0  0  0
 24 23  1  0  0  0  0
 24 28  1  0  0  0  0
 24 26  1  0  0  0  0
 25 24  1  0  0  0  0
 27 34  1  0  0  0  0
 27 36  1  0  0  0  0
 28 27  2  0  0  0  0
 29 31  2  0  0  0  0
 29 28  1  0  0  0  0
 30 29  1  0  0  0  0
 31 33  1  0  0  0  0
 32 31  1  0  0  0  0
 33 34  2  0  0  0  0
 36 35  3  0  0  0  0
M  END
>  <minimizedAffinity>
-6.08008242

$$$$

 OpenBabel03212520193D

 36 38  0  0  0  0  0  0  0  0999 V2000
   39.0200   72.6990   57.2110 Cl  0  0  0  0  0  0  0  0  0  0  0  0
   39.3390   73.6510   58.6590 C   0  0  0  0  0  0  0  0  0  0  0  0
   38.9450   74.9650   58.7890 C   0  0  0  0  0  0  0  0  0  0  0  0
   39.2690   75.5570   59.9870 C   0  0  0  0  0  0  0  0  0  0  0  0
   39.9310   74.9810   61.0440 C   0  0  0  0  0  0  0  0  0  0  0  0
   40.2970   73.6840   60.8650 C   0  0  0  0  0  0  0  0  0  0  0  0
   41.1530   72.8150   62.1480 Cl  0  0  0  0  0  0  0  0  0  0  0  0
   40.0000   73.0120   59.6660 C   0  0  0  0  0  0  0  0  0  0  0  0
   38.9600   76.6050   60.1030 H   0  0  0  0  0  0  0  0  0  0  0  0
   40.1480   75.5190   61.9610 H   0  0  0  0  0  0  0  0  0  0  0  0
   37.0360   75.2020   57.1300 C   0  0  0  0  0  0  0  0  0  0  0  0
   38.2590   75.5910   57.7090 C   0  0  0  0  0  0  0  0  0  0  0  0
   38.8760   76.7120   57.1760 C   0  0  0  0  0  0  0  0  0  0  0  0
   38.2470   77.3370   56.1380 N   0  0  0  0  0  0  0  0  0  0  0  0
   37.0810   76.9310   55.6170 C   0  0  0  0  0  0  0  0  0  0  0  0
   36.4550   75.8350   56.1230 N   0  0  0  0  0  0  0  0  0  0  0  0
   36.5880   74.3330   57.5650 H   0  0  0  0  0  0  0  0  0  0  0  0
   39.8150   77.1260   57.5160 H   0  0  0  0  0  0  0  0  0  0  0  0
   36.5770   77.7600   54.4890 C   0  0  0  0  0  0  0  0  0  0  0  0
   36.1430   77.0070   53.4340 F   0  0  0  0  0  0  0  0  0  0  0  0
   35.5290   78.5700   54.9350 F   0  0  0  0  0  0  0  0  0  0  0  0
   37.6140   78.5700   53.9880 F   0  0  0  0  0  0  0  0  0  0  0  0
   40.4040   71.6920   59.5560 O   0  0  0  0  0  0  0  0  0  0  0  0
   41.6590   71.2850   59.0800 C   0  0  0  0  0  0  0  0  0  0  0  0
   42.4050   71.9310   59.6300 H   0  0  0  0  0  0  0  0  0  0  0  0
   41.7310   71.5620   58.0120 H   0  0  0  0  0  0  0  0  0  0  0  0
   41.8870   68.7790   58.4910 C   0  0  0  0  0  0  0  0  0  0  0  0
   41.8690   69.8600   59.3280 C   0  0  0  0  0  0  0  0  0  0  0  0
   42.1220   69.5640   60.6780 C   0  0  0  0  0  0  0  0  0  0  0  0
   42.1600   70.2520   61.5280 H   0  0  0  0  0  0  0  0  0  0  0  0
   42.3660   68.2710   61.0730 C   0  0  0  0  0  0  0  0  0  0  0  0
   42.5710   67.9640   62.1030 H   0  0  0  0  0  0  0  0  0  0  0  0
   42.3770   67.2040   60.2020 C   0  0  0  0  0  3  0  0  0  0  0  0
   42.1250   67.4820   58.8590 C   0  0  0  0  0  3  0  0  0  0  0  0
   41.3660   69.3140   56.0030 N   0  0  0  0  0  0  0  0  0  0  0  0
   41.6050   69.0850   57.1060 C   0  0  0  0  0  0  0  0  0  0  0  0
  1  2  1  0  0  0  0
  2  3  2  0  0  0  0
  2  8  1  0  0  0  0
  3  4  1  0  0  0  0
  4  9  1  0  0  0  0
  4  5  2  0  0  0  0
  5 10  1  0  0  0  0
  6  5  1  0  0  0  0
  6  7  1  0  0  0  0
  8  6  2  0  0  0  0
 11 17  1  0  0  0  0
 11 12  1  0  0  0  0
 12  3  1  0  0  0  0
 13 18  1  0  0  0  0
 13 12  2  0  0  0  0
 14 13  1  0  0  0  0
 15 16  1  0  0  0  0
 15 14  2  0  0  0  0
 16 11  2  0  0  0  0
 19 21  1  0  0  0  0
 19 15  1  0  0  0  0
 20 19  1  0  0  0  0
 22 19  1  0  0  0  0
 23  8  1  0  0  0  0
 24 28  1  0  0  0  0
 24 23  1  0  0  0  0
 24 25  1  0  0  0  0
 26 24  1  0  0  0  0
 27 34  2  0  0  0  0
 27 28  1  0  0  0  0
 28 29  2  0  0  0  0
 29 31  1  0  0  0  0
 29 30  1  0  0  0  0
 31 32  1  0  0  0  0
 33 31  2  0  0  0  0
 34 33  1  0  0  0  0
 35 36  3  0  0  0  0
 36 27  1  0  0  0  0
M  END
>  <minimizedAffinity>
-6.01500463

$$$$

 OpenBabel03212520193D

 36 38  0  0  0  0  0  0  0  0999 V2000
   39.3920   73.0100   57.0200 Cl  0  0  0  0  0  0  0  0  0  0  0  0
   39.5530   73.8310   58.5710 C   0  0  0  0  0  0  0  0  0  0  0  0
   39.1590   75.1360   58.7680 C   0  0  0  0  0  0  0  0  0  0  0  0
   39.3500   75.6200   60.0410 C   0  0  0  0  0  0  0  0  0  0  0  0
   39.8840   74.9450   61.1120 C   0  0  0  0  0  0  0  0  0  0  0  0
   40.2580   73.6610   60.8640 C   0  0  0  0  0  0  0  0  0  0  0  0
   40.9580   72.6730   62.1560 Cl  0  0  0  0  0  0  0  0  0  0  0  0
   40.0920   73.0970   59.5870 C   0  0  0  0  0  0  0  0  0  0  0  0
   39.0380   76.6590   60.2110 H   0  0  0  0  0  0  0  0  0  0  0  0
   40.0020   75.4010   62.0890 H   0  0  0  0  0  0  0  0  0  0  0  0
   39.2020   76.9080   56.9490 C   0  0  0  0  0  0  0  0  0  0  0  0
   38.6030   75.8620   57.6760 C   0  0  0  0  0  0  0  0  0  0  0  0
   37.3240   75.4870   57.2950 C   0  0  0  0  0  0  0  0  0  0  0  0
   36.7580   76.1630   56.2520 N   0  0  0  0  0  0  0  0  0  0  0  0
   37.3670   77.1550   55.5870 C   0  0  0  0  0  0  0  0  0  0  0  0
   38.6210   77.5420   55.9400 N   0  0  0  0  0  0  0  0  0  0  0  0
   40.1880   77.1740   57.2700 H   0  0  0  0  0  0  0  0  0  0  0  0
   36.7410   74.7030   57.7590 H   0  0  0  0  0  0  0  0  0  0  0  0
   36.5650   77.7530   54.4860 C   0  0  0  0  0  0  0  0  0  0  0  0
   36.0370   76.8140   53.6460 F   0  0  0  0  0  0  0  0  0  0  0  0
   35.5290   78.5200   55.0260 F   0  0  0  0  0  0  0  0  0  0  0  0
   37.3850   78.5730   53.6860 F   0  0  0  0  0  0  0  0  0  0  0  0
   40.4950   71.7840   59.4100 O   0  0  0  0  0  0  0  0  0  0  0  0
   41.7910   71.3970   59.0400 C   0  0  0  0  0  0  0  0  0  0  0  0
   42.2720   71.0310   59.9940 H   0  0  0  0  0  0  0  0  0  0  0  0
   42.3500   72.3010   58.7330 H   0  0  0  0  0  0  0  0  0  0  0  0
   42.1440   70.3570   56.7000 C   0  0  0  0  0  0  0  0  0  0  0  0
   41.7470   70.3620   58.0090 C   0  0  0  0  0  0  0  0  0  0  0  0
   41.2170   69.1440   58.4680 C   0  0  0  0  0  0  0  0  0  0  0  0
   40.8360   68.9030   59.4650 H   0  0  0  0  0  0  0  0  0  0  0  0
   41.1300   68.0620   57.6270 C   0  0  0  0  0  0  0  0  0  0  0  0
   40.7320   67.0830   57.9110 H   0  0  0  0  0  0  0  0  0  0  0  0
   41.5410   68.0920   56.3120 C   0  0  0  0  0  3  0  0  0  0  0  0
   42.0670   69.2940   55.8410 C   0  0  0  0  0  3  0  0  0  0  0  0
   43.0840   72.6170   55.8280 N   0  0  0  0  0  0  0  0  0  0  0  0
   42.6680   71.6180   56.2250 C   0  0  0  0  0  0  0  0  0  0  0  0
  1  2  1  0  0  0  0
  2  3  2  0  0  0  0
  2  8  1  0  0  0  0
  3  4  1  0  0  0  0
  4  9  1  0  0  0  0
  4  5  2  0  0  0  0
  5 10  1  0  0  0  0
  6  5  1  0  0  0  0
  6  7  1  0  0  0  0
  8  6  2  0  0  0  0
 11 17  1  0  0  0  0
 11 12  1  0  0  0  0
 12  3  1  0  0  0  0
 13 12  2  0  0  0  0
 13 18  1  0  0  0  0
 14 13  1  0  0  0  0
 15 16  1  0  0  0  0
 15 14  2  0  0  0  0
 16 11  2  0  0  0  0
 19 21  1  0  0  0  0
 19 15  1  0  0  0  0
 20 19  1  0  0  0  0
 22 19  1  0  0  0  0
 23  8  1  0  0  0  0
 24 23  1  0  0  0  0
 24 25  1  0  0  0  0
 26 24  1  0  0  0  0
 27 28  1  0  0  0  0
 28 29  2  0  0  0  0
 28 24  1  0  0  0  0
 29 30  1  0  0  0  0
 31 32  1  0  0  0  0
 31 29  1  0  0  0  0
 33 31  2  0  0  0  0
 34 33  1  0  0  0  0
 34 27  2  0  0  0  0
 35 36  3  0  0  0  0
 36 27  1  0  0  0  0
M  END
>  <minimizedAffinity>
-5.85706377

$$$$

 OpenBabel03212520193D

 36 38  0  0  0  0  0  0  0  0999 V2000
   42.8020   73.8180   58.6770 Cl  0  0  0  0  0  0  0  0  0  0  0  0
   41.4290   74.5990   59.4580 C   0  0  0  0  0  0  0  0  0  0  0  0
   40.8430   74.1070   60.6030 C   0  0  0  0  0  0  0  0  0  0  0  0
   39.7860   74.8430   61.0830 C   0  0  0  0  0  0  0  0  0  0  0  0
   39.2670   75.9960   60.5450 C   0  0  0  0  0  0  0  0  0  0  0  0
   39.8810   76.4400   59.4160 C   0  0  0  0  0  0  0  0  0  0  0  0
   39.3200   77.9180   58.6190 Cl  0  0  0  0  0  0  0  0  0  0  0  0
   40.9700   75.7400   58.8660 C   0  0  0  0  0  0  0  0  0  0  0  0
   39.3100   74.4600   61.9960 H   0  0  0  0  0  0  0  0  0  0  0  0
   38.4270   76.5200   60.9880 H   0  0  0  0  0  0  0  0  0  0  0  0
   41.9050   72.7490   62.4690 C   0  0  0  0  0  0  0  0  0  0  0  0
   41.3570   72.9110   61.1820 C   0  0  0  0  0  0  0  0  0  0  0  0
   41.3060   71.7840   60.3770 C   0  0  0  0  0  0  0  0  0  0  0  0
   41.7910   70.6200   60.9000 N   0  0  0  0  0  0  0  0  0  0  0  0
   42.3050   70.5110   62.1330 C   0  0  0  0  0  0  0  0  0  0  0  0
   42.3660   71.6010   62.9430 N   0  0  0  0  0  0  0  0  0  0  0  0
   41.9310   73.6390   63.0630 H   0  0  0  0  0  0  0  0  0  0  0  0
   40.9140   71.7560   59.3700 H   0  0  0  0  0  0  0  0  0  0  0  0
   42.7770   69.1480   62.4960 C   0  0  0  0  0  0  0  0  0  0  0  0
   42.9120   68.9790   63.8450 F   0  0  0  0  0  0  0  0  0  0  0  0
   41.8800   68.1960   62.0030 F   0  0  0  0  0  0  0  0  0  0  0  0
   44.0520   68.9180   61.9450 F   0  0  0  0  0  0  0  0  0  0  0  0
   41.5450   76.2520   57.7150 O   0  0  0  0  0  0  0  0  0  0  0  0
   41.3540   75.7220   56.4310 C   0  0  0  0  0  0  0  0  0  0  0  0
   41.1870   74.6160   56.5920 H   0  0  0  0  0  0  0  0  0  0  0  0
   42.3030   75.8180   55.8720 H   0  0  0  0  0  0  0  0  0  0  0  0
   38.9040   76.0100   55.6600 C   0  0  0  0  0  0  0  0  0  0  0  0
   40.2200   76.3640   55.7700 C   0  0  0  0  0  0  0  0  0  0  0  0
   40.5550   77.5840   55.1570 C   0  0  0  0  0  0  0  0  0  0  0  0
   41.5310   78.0740   55.1100 H   0  0  0  0  0  0  0  0  0  0  0  0
   39.5940   78.3260   54.5140 C   0  0  0  0  0  0  0  0  0  0  0  0
   39.7770   79.2830   54.0160 H   0  0  0  0  0  0  0  0  0  0  0  0
   38.2750   77.9380   54.4230 C   0  0  0  0  0  3  0  0  0  0  0  0
   37.9290   76.7290   55.0240 C   0  0  0  0  0  3  0  0  0  0  0  0
   38.3080   73.7260   56.7450 N   0  0  0  0  0  0  0  0  0  0  0  0
   38.5680   74.7440   56.2730 C   0  0  0  0  0  0  0  0  0  0  0  0
  1  2  1  0  0  0  0
  2  3  1  0  0  0  0
  3  4  2  0  0  0  0
  3 12  1  0  0  0  0
  4  9  1  0  0  0  0
  5 10  1  0  0  0  0
  5  4  1  0  0  0  0
  6  5  2  0  0  0  0
  7  6  1  0  0  0  0
  8  6  1  0  0  0  0
  8  2  2  0  0  0  0
 11 16  1  0  0  0  0
 11 17  1  0  0  0  0
 12 11  2  0  0  0  0
 13 14  2  0  0  0  0
 13 12  1  0  0  0  0
 14 15  1  0  0  0  0
 15 19  1  0  0  0  0
 15 16  2  0  0  0  0
 18 13  1  0  0  0  0
 19 20  1  0  0  0  0
 21 19  1  0  0  0  0
 22 19  1  0  0  0  0
 23  8  1  0  0  0  0
 24 25  1  0  0  0  0
 24 23  1  0  0  0  0
 26 24  1  0  0  0  0
 27 28  1  0  0  0  0
 27 36  1  0  0  0  0
 28 24  1  0  0  0  0
 29 28  2  0  0  0  0
 30 29  1  0  0  0  0
 31 29  1  0  0  0  0
 32 31  1  0  0  0  0
 33 31  2  0  0  0  0
 33 34  1  0  0  0  0
 34 27  2  0  0  0  0
 36 35  3  0  0  0  0
M  END
>  <minimizedAffinity>
-5.8459959

$$$$
