
 OpenBabel03212521073D

 37 40  0  0  0  0  0  0  0  0999 V2000
   41.8240   84.2330   61.5520 C   0  0  0  0  0  0  0  0  0  0  0  0
   41.4200   84.0180   62.8620 C   0  0  0  0  0  0  0  0  0  0  0  0
   40.1530   83.5880   63.1820 C   0  0  0  0  0  0  0  0  0  0  0  0
   39.2370   83.3590   62.1610 C   0  0  0  0  0  0  0  0  0  0  0  0
   39.6310   83.5700   60.8440 C   0  0  0  0  0  0  0  0  0  0  0  0
   40.9040   84.0020   60.5370 C   0  0  0  0  0  0  0  0  0  0  0  0
   42.0770   84.1760   63.7040 H   0  0  0  0  0  0  0  0  0  0  0  0
   39.8150   83.4140   64.1950 H   0  0  0  0  0  0  0  0  0  0  0  0
   38.2340   83.0190   62.3980 H   0  0  0  0  0  0  0  0  0  0  0  0
   38.8730   83.3740   60.1020 H   0  0  0  0  0  0  0  0  0  0  0  0
   45.3680   84.1740   60.6650 C   0  0  0  0  0  0  0  0  0  0  0  0
   45.7310   85.5240   60.7520 C   0  0  0  0  0  0  0  0  0  0  0  0
   44.7400   86.4500   61.1190 C   0  0  0  0  0  0  0  0  0  0  0  0
   43.4840   85.9970   61.3710 N   0  0  0  0  0  0  0  0  0  0  0  0
   43.1690   84.6860   61.2770 C   0  0  0  0  0  0  0  0  0  0  0  0
   44.1040   83.8140   60.9310 N   0  0  0  0  0  0  0  0  0  0  0  0
   46.0480   83.3760   60.3920 H   0  0  0  0  0  0  0  0  0  0  0  0
   46.7600   85.7710   60.5300 H   0  0  0  0  0  0  0  0  0  0  0  0
   45.0330   87.4870   61.1830 H   0  0  0  0  0  0  0  0  0  0  0  0
   41.2640   84.2090   59.1500 C   0  0  0  0  0  0  0  0  0  0  0  0
   41.1410   85.5570   58.7880 C   0  0  0  0  0  0  0  0  0  0  0  0
   41.4410   85.9700   57.4920 C   0  0  0  0  0  0  0  0  0  0  0  0
   41.8470   85.0300   56.6220 N   0  0  0  0  0  0  0  0  0  0  0  0
   41.9660   83.7190   56.9800 C   0  0  0  0  0  0  0  0  0  0  0  0
   41.6750   83.3210   58.2350 N   0  0  0  0  0  0  0  0  0  0  0  0
   40.8210   86.3650   59.4330 H   0  0  0  0  0  0  0  0  0  0  0  0
   41.3530   87.0170   57.1840 H   0  0  0  0  0  0  0  0  0  0  0  0
   43.1160   81.6170   56.4850 C   0  0  0  0  0  0  0  0  0  0  0  0
   42.4100   82.7150   56.0170 C   0  0  0  0  0  0  0  0  0  0  0  0
   42.1420   82.8420   54.6690 C   0  0  0  0  0  0  0  0  0  0  0  0
   41.5820   83.7130   54.3020 H   0  0  0  0  0  0  0  0  0  0  0  0
   42.5780   81.8690   53.7810 C   0  0  0  0  0  0  0  0  0  0  0  0
   42.3680   81.9680   52.7230 H   0  0  0  0  0  0  0  0  0  0  0  0
   43.2850   80.7820   54.2970 C   0  0  0  0  0  3  0  0  0  0  0  0
   43.5710   80.6250   55.6380 C   0  0  0  0  0  3  0  0  0  0  0  0
   43.6580   81.2960   59.0240 N   0  0  0  0  0  0  0  0  0  0  0  0
   43.4190   81.4450   57.8910 C   0  0  0  0  0  0  0  0  0  0  0  0
  1  2  1  0  0  0  0
  2  3  2  0  0  0  0
  2  7  1  0  0  0  0
  3  8  1  0  0  0  0
  4  9  1  0  0  0  0
  4  3  1  0  0  0  0
  5  4  2  0  0  0  0
  6  5  1  0  0  0  0
  6  1  2  0  0  0  0
 10  5  1  0  0  0  0
 11 12  2  0  0  0  0
 11 16  1  0  0  0  0
 12 13  1  0  0  0  0
 13 19  1  0  0  0  0
 13 14  2  0  0  0  0
 15 14  1  0  0  0  0
 15  1  1  0  0  0  0
 16 15  2  0  0  0  0
 17 11  1  0  0  0  0
 18 12  1  0  0  0  0
 20  6  1  0  0  0  0
 21 20  1  0  0  0  0
 21 26  1  0  0  0  0
 22 21  2  0  0  0  0
 23 24  2  0  0  0  0
 23 22  1  0  0  0  0
 24 25  1  0  0  0  0
 25 20  2  0  0  0  0
 27 22  1  0  0  0  0
 28 37  1  0  0  0  0
 29 28  1  0  0  0  0
 29 24  1  0  0  0  0
 30 29  2  0  0  0  0
 31 30  1  0  0  0  0
 32 34  2  0  0  0  0
 32 30  1  0  0  0  0
 33 32  1  0  0  0  0
 34 35  1  0  0  0  0
 35 28  2  0  0  0  0
 37 36  3  0  0  0  0
M  END
>  <minimizedAffinity>
-5.16916275

>  <minimizedRMSD>
0.627459943

$$$$
