
 OpenBabel03212520183D

 36 38  0  0  0  0  0  0  0  0999 V2000
   43.1110   83.8980   58.5780 Cl  0  0  0  0  0  0  0  0  0  0  0  0
   41.8610   82.7170   58.1900 C   0  0  0  0  0  0  0  0  0  0  0  0
   40.9870   82.2210   59.1320 C   0  0  0  0  0  0  0  0  0  0  0  0
   40.0700   81.3120   58.6580 C   0  0  0  0  0  0  0  0  0  0  0  0
   39.9430   80.8600   57.3670 C   0  0  0  0  0  0  0  0  0  0  0  0
   40.8300   81.3800   56.4770 C   0  0  0  0  0  0  0  0  0  0  0  0
   40.7770   80.8890   54.7770 Cl  0  0  0  0  0  0  0  0  0  0  0  0
   41.7960   82.3160   56.8880 C   0  0  0  0  0  0  0  0  0  0  0  0
   39.3670   80.9100   59.3990 H   0  0  0  0  0  0  0  0  0  0  0  0
   39.1880   80.1380   57.0730 H   0  0  0  0  0  0  0  0  0  0  0  0
   41.9400   82.1640   61.4860 C   0  0  0  0  0  0  0  0  0  0  0  0
   41.0950   82.6690   60.4790 C   0  0  0  0  0  0  0  0  0  0  0  0
   40.2670   83.7250   60.8290 C   0  0  0  0  0  0  0  0  0  0  0  0
   40.3430   84.1800   62.1140 N   0  0  0  0  0  0  0  0  0  0  0  0
   41.1640   83.6680   63.0410 C   0  0  0  0  0  0  0  0  0  0  0  0
   41.9860   82.6320   62.7240 N   0  0  0  0  0  0  0  0  0  0  0  0
   42.5640   81.3480   61.1830 H   0  0  0  0  0  0  0  0  0  0  0  0
   39.5680   84.2140   60.1640 H   0  0  0  0  0  0  0  0  0  0  0  0
   41.0810   84.3160   64.3780 C   0  0  0  0  0  0  0  0  0  0  0  0
   40.7560   85.6410   64.3020 F   0  0  0  0  0  0  0  0  0  0  0  0
   40.1280   83.6550   65.1580 F   0  0  0  0  0  0  0  0  0  0  0  0
   42.3330   84.2570   65.0180 F   0  0  0  0  0  0  0  0  0  0  0  0
   42.6650   82.8020   55.9260 O   0  0  0  0  0  0  0  0  0  0  0  0
   42.4200   83.9340   55.1360 C   0  0  0  0  0  0  0  0  0  0  0  0
   42.4250   84.8030   55.8590 H   0  0  0  0  0  0  0  0  0  0  0  0
   41.3900   83.8640   54.7390 H   0  0  0  0  0  0  0  0  0  0  0  0
   43.4080   83.8320   52.7510 C   0  0  0  0  0  0  0  0  0  0  0  0
   43.4370   84.0710   54.0970 C   0  0  0  0  0  0  0  0  0  0  0  0
   44.6610   84.5620   54.5810 C   0  0  0  0  0  0  0  0  0  0  0  0
   44.9280   84.8260   55.6090 H   0  0  0  0  0  0  0  0  0  0  0  0
   45.7150   84.7720   53.7240 C   0  0  0  0  0  0  0  0  0  0  0  0
   46.6950   85.1520   54.0260 H   0  0  0  0  0  0  0  0  0  0  0  0
   45.6500   84.5200   52.3710 C   0  0  0  0  0  0  0  0  0  0  0  0
   44.4420   84.0310   51.8760 C   0  0  0  0  0  0  0  0  0  0  0  0
   41.1640   82.8740   51.8570 N   0  0  0  0  0  0  0  0  0  0  0  0
   42.1530   83.3060   52.2600 C   0  0  0  0  0  0  0  0  0  0  0  0
  2  1  1  0  0  0  0
  2  3  1  0  0  0  0
  3 12  1  0  0  0  0
  4  3  2  0  0  0  0
  4  9  1  0  0  0  0
  5  4  1  0  0  0  0
  6  8  1  0  0  0  0
  6  5  2  0  0  0  0
  7  6  1  0  0  0  0
  8  2  2  0  0  0  0
 10  5  1  0  0  0  0
 11 16  1  0  0  0  0
 12 13  1  0  0  0  0
 12 11  2  0  0  0  0
 13 14  2  0  0  0  0
 14 15  1  0  0  0  0
 15 19  1  0  0  0  0
 16 15  2  0  0  0  0
 17 11  1  0  0  0  0
 18 13  1  0  0  0  0
 19 22  1  0  0  0  0
 19 21  1  0  0  0  0
 20 19  1  0  0  0  0
 23  8  1  0  0  0  0
 24 25  1  0  0  0  0
 24 23  1  0  0  0  0
 26 24  1  0  0  0  0
 27 28  1  0  0  0  0
 28 29  2  0  0  0  0
 28 24  1  0  0  0  0
 29 30  1  0  0  0  0
 31 32  1  0  0  0  0
 31 29  1  0  0  0  0
 33 31  2  0  0  0  0
 34 33  1  0  0  0  0
 34 27  2  0  0  0  0
 35 36  3  0  0  0  0
 36 27  1  0  0  0  0
M  END
>  <minimizedAffinity>
-5.0320878

>  <minimizedRMSD>
0.98228085

$$$$
