
 OpenBabel03212521073D

 37 40  0  0  0  0  0  0  0  0999 V2000
   41.7990   84.2260   61.5730 C   0  0  0  0  0  0  0  0  0  0  0  0
   41.4100   83.9560   62.8780 C   0  0  0  0  0  0  0  0  0  0  0  0
   40.1360   83.5480   63.1980 C   0  0  0  0  0  0  0  0  0  0  0  0
   39.1970   83.3990   62.1830 C   0  0  0  0  0  0  0  0  0  0  0  0
   39.5760   83.6660   60.8720 C   0  0  0  0  0  0  0  0  0  0  0  0
   40.8560   84.0750   60.5640 C   0  0  0  0  0  0  0  0  0  0  0  0
   42.0860   84.0510   63.7150 H   0  0  0  0  0  0  0  0  0  0  0  0
   39.8090   83.3330   64.2060 H   0  0  0  0  0  0  0  0  0  0  0  0
   38.1870   83.0780   62.4200 H   0  0  0  0  0  0  0  0  0  0  0  0
   38.8000   83.5310   60.1340 H   0  0  0  0  0  0  0  0  0  0  0  0
   45.3220   84.1090   60.6100 C   0  0  0  0  0  0  0  0  0  0  0  0
   45.7310   85.4390   60.7710 C   0  0  0  0  0  0  0  0  0  0  0  0
   44.7780   86.3720   61.2130 C   0  0  0  0  0  0  0  0  0  0  0  0
   43.5130   85.9440   61.4640 N   0  0  0  0  0  0  0  0  0  0  0  0
   43.1530   84.6520   61.2980 C   0  0  0  0  0  0  0  0  0  0  0  0
   44.0520   83.7730   60.8810 N   0  0  0  0  0  0  0  0  0  0  0  0
   45.9700   83.3080   60.2760 H   0  0  0  0  0  0  0  0  0  0  0  0
   46.7620   85.6660   60.5420 H   0  0  0  0  0  0  0  0  0  0  0  0
   45.1060   87.3930   61.3330 H   0  0  0  0  0  0  0  0  0  0  0  0
   41.2000   84.3410   59.1840 C   0  0  0  0  0  0  0  0  0  0  0  0
   41.0290   85.6960   58.8700 C   0  0  0  0  0  0  0  0  0  0  0  0
   41.3070   86.1640   57.5870 C   0  0  0  0  0  0  0  0  0  0  0  0
   41.7390   85.2690   56.6820 N   0  0  0  0  0  0  0  0  0  0  0  0
   41.9040   83.9510   56.9950 C   0  0  0  0  0  0  0  0  0  0  0  0
   41.6350   83.5010   58.2360 N   0  0  0  0  0  0  0  0  0  0  0  0
   40.6870   86.4700   59.5440 H   0  0  0  0  0  0  0  0  0  0  0  0
   41.1820   87.2180   57.3160 H   0  0  0  0  0  0  0  0  0  0  0  0
   42.9470   81.8120   56.4300 C   0  0  0  0  0  0  0  0  0  0  0  0
   42.3740   82.9970   55.9940 C   0  0  0  0  0  0  0  0  0  0  0  0
   42.2590   83.2540   54.6440 C   0  0  0  0  0  0  0  0  0  0  0  0
   41.8030   84.1930   54.3010 H   0  0  0  0  0  0  0  0  0  0  0  0
   42.7170   82.3250   53.7190 C   0  0  0  0  0  0  0  0  0  0  0  0
   42.6260   82.5240   52.6590 H   0  0  0  0  0  0  0  0  0  0  0  0
   43.2870   81.1460   54.2040 C   0  0  0  0  0  3  0  0  0  0  0  0
   43.4180   80.8580   55.5490 C   0  0  0  0  0  3  0  0  0  0  0  0
   43.2080   81.2420   58.9700 N   0  0  0  0  0  0  0  0  0  0  0  0
   43.0900   81.5020   57.8380 C   0  0  0  0  0  0  0  0  0  0  0  0
  1  2  1  0  0  0  0
  2  3  2  0  0  0  0
  2  7  1  0  0  0  0
  3  8  1  0  0  0  0
  4  9  1  0  0  0  0
  4  3  1  0  0  0  0
  5  4  2  0  0  0  0
  6  5  1  0  0  0  0
  6  1  2  0  0  0  0
 10  5  1  0  0  0  0
 11 12  2  0  0  0  0
 11 16  1  0  0  0  0
 12 13  1  0  0  0  0
 13 19  1  0  0  0  0
 13 14  2  0  0  0  0
 15 14  1  0  0  0  0
 15  1  1  0  0  0  0
 16 15  2  0  0  0  0
 17 11  1  0  0  0  0
 18 12  1  0  0  0  0
 20  6  1  0  0  0  0
 21 20  1  0  0  0  0
 21 26  1  0  0  0  0
 22 21  2  0  0  0  0
 23 24  2  0  0  0  0
 23 22  1  0  0  0  0
 24 25  1  0  0  0  0
 25 20  2  0  0  0  0
 27 22  1  0  0  0  0
 28 37  1  0  0  0  0
 29 28  1  0  0  0  0
 29 24  1  0  0  0  0
 30 29  2  0  0  0  0
 31 30  1  0  0  0  0
 32 34  2  0  0  0  0
 32 30  1  0  0  0  0
 33 32  1  0  0  0  0
 34 35  1  0  0  0  0
 35 28  2  0  0  0  0
 37 36  3  0  0  0  0
M  END
>  <minimizedAffinity>
-5.2726264

>  <minimizedRMSD>
0.508384705

$$$$
