
 OpenBabel03212521063D

 37 40  0  0  0  0  0  0  0  0999 V2000
   41.8120   84.2480   61.5560 C   0  0  0  0  0  0  0  0  0  0  0  0
   41.4560   83.9440   62.8620 C   0  0  0  0  0  0  0  0  0  0  0  0
   40.1910   83.5240   63.2030 C   0  0  0  0  0  0  0  0  0  0  0  0
   39.2270   83.3980   62.2070 C   0  0  0  0  0  0  0  0  0  0  0  0
   39.5730   83.7000   60.8950 C   0  0  0  0  0  0  0  0  0  0  0  0
   40.8450   84.1200   60.5670 C   0  0  0  0  0  0  0  0  0  0  0  0
   42.1510   84.0190   63.6840 H   0  0  0  0  0  0  0  0  0  0  0  0
   39.8890   83.2820   64.2130 H   0  0  0  0  0  0  0  0  0  0  0  0
   38.2250   83.0680   62.4610 H   0  0  0  0  0  0  0  0  0  0  0  0
   38.7800   83.5810   60.1730 H   0  0  0  0  0  0  0  0  0  0  0  0
   45.3340   84.1490   60.5880 C   0  0  0  0  0  0  0  0  0  0  0  0
   45.7210   85.4920   60.6900 C   0  0  0  0  0  0  0  0  0  0  0  0
   44.7530   86.4270   61.0950 C   0  0  0  0  0  0  0  0  0  0  0  0
   43.4960   85.9880   61.3680 N   0  0  0  0  0  0  0  0  0  0  0  0
   43.1580   84.6850   61.2580 C   0  0  0  0  0  0  0  0  0  0  0  0
   44.0710   83.8040   60.8760 N   0  0  0  0  0  0  0  0  0  0  0  0
   45.9950   83.3450   60.2860 H   0  0  0  0  0  0  0  0  0  0  0  0
   46.7480   85.7260   60.4480 H   0  0  0  0  0  0  0  0  0  0  0  0
   45.0640   87.4570   61.1700 H   0  0  0  0  0  0  0  0  0  0  0  0
   41.1540   84.4220   59.1850 C   0  0  0  0  0  0  0  0  0  0  0  0
   40.7160   85.7060   58.8350 C   0  0  0  0  0  0  0  0  0  0  0  0
   40.9170   86.1940   57.5460 C   0  0  0  0  0  0  0  0  0  0  0  0
   41.5410   85.3870   56.6700 N   0  0  0  0  0  0  0  0  0  0  0  0
   41.9660   84.1380   57.0170 C   0  0  0  0  0  0  0  0  0  0  0  0
   41.7700   83.6690   58.2650 N   0  0  0  0  0  0  0  0  0  0  0  0
   40.2100   86.4080   59.4850 H   0  0  0  0  0  0  0  0  0  0  0  0
   40.5840   87.1940   57.2470 H   0  0  0  0  0  0  0  0  0  0  0  0
   43.9950   83.4770   55.8230 C   0  0  0  0  0  0  0  0  0  0  0  0
   42.6410   83.2810   56.0470 C   0  0  0  0  0  0  0  0  0  0  0  0
   41.9620   82.2940   55.3630 C   0  0  0  0  0  0  0  0  0  0  0  0
   40.8890   82.1410   55.5430 H   0  0  0  0  0  0  0  0  0  0  0  0
   42.6340   81.4970   54.4470 C   0  0  0  0  0  0  0  0  0  0  0  0
   42.1040   80.7220   53.9090 H   0  0  0  0  0  0  0  0  0  0  0  0
   43.9980   81.7300   54.2540 C   0  0  0  0  0  3  0  0  0  0  0  0
   44.7070   82.7080   54.9220 C   0  0  0  0  0  3  0  0  0  0  0  0
   45.3590   85.3170   57.0860 N   0  0  0  0  0  0  0  0  0  0  0  0
   44.7470   84.5010   56.5200 C   0  0  0  0  0  0  0  0  0  0  0  0
  1  2  1  0  0  0  0
  2  3  2  0  0  0  0
  2  7  1  0  0  0  0
  3  8  1  0  0  0  0
  4  9  1  0  0  0  0
  4  3  1  0  0  0  0
  5  4  2  0  0  0  0
  6  5  1  0  0  0  0
  6  1  2  0  0  0  0
 10  5  1  0  0  0  0
 11 12  2  0  0  0  0
 11 16  1  0  0  0  0
 12 13  1  0  0  0  0
 13 19  1  0  0  0  0
 13 14  2  0  0  0  0
 15 14  1  0  0  0  0
 15  1  1  0  0  0  0
 16 15  2  0  0  0  0
 17 11  1  0  0  0  0
 18 12  1  0  0  0  0
 20  6  1  0  0  0  0
 21 20  1  0  0  0  0
 21 26  1  0  0  0  0
 22 21  2  0  0  0  0
 23 24  2  0  0  0  0
 23 22  1  0  0  0  0
 24 25  1  0  0  0  0
 25 20  2  0  0  0  0
 27 22  1  0  0  0  0
 28 29  1  0  0  0  0
 28 37  1  0  0  0  0
 29 24  1  0  0  0  0
 30 31  1  0  0  0  0
 30 29  2  0  0  0  0
 32 30  1  0  0  0  0
 33 32  1  0  0  0  0
 34 32  2  0  0  0  0
 34 35  1  0  0  0  0
 35 28  2  0  0  0  0
 37 36  3  0  0  0  0
M  END
>  <minimizedAffinity>
-5.36179066

>  <minimizedRMSD>
1.23018992

$$$$
