
 OpenBabel03212521063D

 36 39  0  0  1  0  0  0  0  0999 V2000
   41.8150   84.2500   61.5340 C   0  0  0  0  0  0  0  0  0  0  0  0
   41.4790   83.8830   62.8380 C   0  0  0  0  0  0  0  0  0  0  0  0
   40.2080   83.4590   63.1700 C   0  0  0  0  0  0  0  0  0  0  0  0
   39.2290   83.3940   62.1750 C   0  0  0  0  0  0  0  0  0  0  0  0
   39.5620   83.7600   60.8710 C   0  0  0  0  0  0  0  0  0  0  0  0
   40.8400   84.1830   60.5520 C   0  0  0  0  0  0  0  0  0  0  0  0
   42.2620   83.9440   63.5910 H   0  0  0  0  0  0  0  0  0  0  0  0
   40.0460   83.1950   64.2130 H   0  0  0  0  0  0  0  0  0  0  0  0
   38.2530   83.0620   62.4580 H   0  0  0  0  0  0  0  0  0  0  0  0
   38.7820   83.7020   60.1080 H   0  0  0  0  0  0  0  0  0  0  0  0
   45.3310   84.1750   60.5750 C   0  0  0  0  0  0  0  0  0  0  0  0
   45.7250   85.5090   60.6850 C   0  0  0  0  0  0  0  0  0  0  0  0
   44.7510   86.4550   61.1000 C   0  0  0  0  0  0  0  0  0  0  0  0
   43.5030   86.0090   61.3640 N   0  0  0  0  0  0  0  0  0  0  0  0
   43.1610   84.6860   61.2430 C   0  0  0  0  0  0  0  0  0  0  0  0
   44.0820   83.8110   60.8530 N   0  0  0  0  0  0  0  0  0  0  0  0
   46.1140   83.5170   60.2580 H   0  0  0  0  0  0  0  0  0  0  0  0
   46.6700   85.9610   60.5050 H   0  0  0  0  0  0  0  0  0  0  0  0
   44.9290   87.4970   61.2220 H   0  0  0  0  0  0  0  0  0  0  0  0
   41.1340   84.5520   59.1820 C   0  0  0  0  0  0  0  0  0  0  0  0
   40.5580   85.7760   58.8430 C   0  0  0  0  0  0  0  0  0  0  0  0
   40.7220   86.3140   57.5650 C   0  0  0  0  0  0  0  0  0  0  0  0
   41.4460   85.6090   56.6960 N   0  0  0  0  0  0  0  0  0  0  0  0
   42.0060   84.4150   57.0280 C   0  0  0  0  0  0  0  0  0  0  0  0
   41.8560   83.8860   58.2590 N   0  0  0  0  0  0  0  0  0  0  0  0
   39.9540   86.4080   59.5030 H   0  0  0  0  0  0  0  0  0  0  0  0
   40.2810   87.2660   57.2850 H   0  0  0  0  0  0  0  0  0  0  0  0
   41.1230   81.9800   55.4470 O   0  0  0  0  0  0  0  0  0  0  0  0
   42.3080   82.3480   55.7010 C   0  0  0  0  0  0  0  0  0  0  0  0
   42.7890   83.7010   56.0160 C   0  0  2  0  0  3  0  0  0  0  0  0
   44.1370   83.3820   56.6740 C   0  0  0  0  0  3  0  0  0  0  0  0
   44.8240   84.2440   56.4970 H   0  0  0  0  0  0  0  0  0  0  0  0
   44.5950   82.1470   55.9410 C   0  0  0  0  0  3  0  0  0  0  0  0
   45.2690   81.5240   56.5450 H   0  0  0  0  0  0  0  0  0  0  0  0
   43.3730   81.3770   55.6970 N   0  0  0  0  0  0  0  0  0  0  0  0
   43.3080   80.3490   55.5540 H   0  0  0  0  0  0  0  0  0  0  0  0
  1  2  1  0  0  0  0
  2  3  2  0  0  0  0
  2  7  1  0  0  0  0
  3  8  1  0  0  0  0
  4  9  1  0  0  0  0
  4  3  1  0  0  0  0
  5  4  2  0  0  0  0
  6  5  1  0  0  0  0
  6  1  2  0  0  0  0
 10  5  1  0  0  0  0
 11 12  2  0  0  0  0
 11 16  1  0  0  0  0
 12 13  1  0  0  0  0
 13 19  1  0  0  0  0
 13 14  2  0  0  0  0
 15 14  1  0  0  0  0
 15  1  1  0  0  0  0
 16 15  2  0  0  0  0
 17 11  1  0  0  0  0
 18 12  1  0  0  0  0
 20  6  1  0  0  0  0
 21 20  1  0  0  0  0
 21 26  1  0  0  0  0
 22 21  2  0  0  0  0
 23 24  2  0  0  0  0
 23 22  1  0  0  0  0
 24 25  1  0  0  0  0
 25 20  2  0  0  0  0
 27 22  1  0  0  0  0
 28 29  2  0  0  0  0
 29 30  1  0  0  0  0
 30 31  1  0  0  0  0
 30 24  1  1  0  0  0
 32 31  1  0  0  0  0
 33 34  1  0  0  0  0
 33 31  1  0  0  0  0
 35 29  1  0  0  0  0
 35 33  1  0  0  0  0
 36 35  1  0  0  0  0
M  END
>  <minimizedAffinity>
-5.55252171

>  <minimizedRMSD>
0.900583565

$$$$
