
 OpenBabel03212521063D

 36 39  0  0  1  0  0  0  0  0999 V2000
   41.8040   84.1830   61.5590 C   0  0  0  0  0  0  0  0  0  0  0  0
   41.4220   83.9120   62.8740 C   0  0  0  0  0  0  0  0  0  0  0  0
   40.1290   83.5520   63.1960 C   0  0  0  0  0  0  0  0  0  0  0  0
   39.1750   83.4550   62.1810 C   0  0  0  0  0  0  0  0  0  0  0  0
   39.5540   83.7250   60.8660 C   0  0  0  0  0  0  0  0  0  0  0  0
   40.8540   84.0840   60.5560 C   0  0  0  0  0  0  0  0  0  0  0  0
   42.1880   83.9970   63.6430 H   0  0  0  0  0  0  0  0  0  0  0  0
   39.9320   83.3630   64.2490 H   0  0  0  0  0  0  0  0  0  0  0  0
   38.1810   83.1740   62.4570 H   0  0  0  0  0  0  0  0  0  0  0  0
   38.7920   83.6420   60.0870 H   0  0  0  0  0  0  0  0  0  0  0  0
   45.3260   83.9380   60.6500 C   0  0  0  0  0  0  0  0  0  0  0  0
   45.7760   85.2560   60.7400 C   0  0  0  0  0  0  0  0  0  0  0  0
   44.8380   86.2510   61.1230 C   0  0  0  0  0  0  0  0  0  0  0  0
   43.5690   85.8640   61.3780 N   0  0  0  0  0  0  0  0  0  0  0  0
   43.1710   84.5550   61.2770 C   0  0  0  0  0  0  0  0  0  0  0  0
   44.0590   83.6330   60.9180 N   0  0  0  0  0  0  0  0  0  0  0  0
   46.0840   83.2410   60.3570 H   0  0  0  0  0  0  0  0  0  0  0  0
   46.7410   85.6640   60.5640 H   0  0  0  0  0  0  0  0  0  0  0  0
   45.0590   87.2860   61.2270 H   0  0  0  0  0  0  0  0  0  0  0  0
   41.1950   84.3530   59.1740 C   0  0  0  0  0  0  0  0  0  0  0  0
   40.7820   85.6250   58.7790 C   0  0  0  0  0  0  0  0  0  0  0  0
   41.0160   86.0820   57.4810 C   0  0  0  0  0  0  0  0  0  0  0  0
   41.6450   85.2540   56.6480 N   0  0  0  0  0  0  0  0  0  0  0  0
   42.0470   84.0130   57.0340 C   0  0  0  0  0  0  0  0  0  0  0  0
   41.8270   83.5610   58.2850 N   0  0  0  0  0  0  0  0  0  0  0  0
   40.2630   86.3570   59.4070 H   0  0  0  0  0  0  0  0  0  0  0  0
   40.7020   87.0700   57.1570 H   0  0  0  0  0  0  0  0  0  0  0  0
   40.8410   81.6890   55.4990 O   0  0  0  0  0  0  0  0  0  0  0  0
   42.0630   81.8860   55.7690 C   0  0  0  0  0  0  0  0  0  0  0  0
   42.7320   83.1620   56.0590 C   0  0  2  0  0  3  0  0  0  0  0  0
   44.0070   82.6670   56.7570 C   0  0  0  0  0  3  0  0  0  0  0  0
   44.8160   83.4130   56.5720 H   0  0  0  0  0  0  0  0  0  0  0  0
   44.2890   81.3550   56.0690 C   0  0  0  0  0  3  0  0  0  0  0  0
   44.8520   80.6590   56.7040 H   0  0  0  0  0  0  0  0  0  0  0  0
   42.9720   80.7680   55.8170 N   0  0  0  0  0  0  0  0  0  0  0  0
   42.7590   79.7570   55.6990 H   0  0  0  0  0  0  0  0  0  0  0  0
  1  2  1  0  0  0  0
  2  3  2  0  0  0  0
  2  7  1  0  0  0  0
  3  8  1  0  0  0  0
  4  9  1  0  0  0  0
  4  3  1  0  0  0  0
  5  4  2  0  0  0  0
  6  5  1  0  0  0  0
  6  1  2  0  0  0  0
 10  5  1  0  0  0  0
 11 12  2  0  0  0  0
 11 16  1  0  0  0  0
 12 13  1  0  0  0  0
 13 19  1  0  0  0  0
 13 14  2  0  0  0  0
 15 14  1  0  0  0  0
 15  1  1  0  0  0  0
 16 15  2  0  0  0  0
 17 11  1  0  0  0  0
 18 12  1  0  0  0  0
 20  6  1  0  0  0  0
 21 20  1  0  0  0  0
 21 26  1  0  0  0  0
 22 21  2  0  0  0  0
 23 24  2  0  0  0  0
 23 22  1  0  0  0  0
 24 25  1  0  0  0  0
 25 20  2  0  0  0  0
 27 22  1  0  0  0  0
 28 29  2  0  0  0  0
 29 35  1  0  0  0  0
 29 30  1  0  0  0  0
 30 31  1  0  0  0  0
 30 24  1  1  0  0  0
 32 31  1  0  0  0  0
 33 34  1  0  0  0  0
 33 31  1  0  0  0  0
 35 33  1  0  0  0  0
 36 35  1  0  0  0  0
M  END
>  <minimizedAffinity>
-5.61191177

>  <minimizedRMSD>
0.392215759

$$$$
