
 OpenBabel03212521063D

 36 39  0  0  1  0  0  0  0  0999 V2000
   41.8440   84.2390   61.5840 C   0  0  0  0  0  0  0  0  0  0  0  0
   41.4940   83.9650   62.9070 C   0  0  0  0  0  0  0  0  0  0  0  0
   40.2250   83.5430   63.2500 C   0  0  0  0  0  0  0  0  0  0  0  0
   39.2640   83.3850   62.2490 C   0  0  0  0  0  0  0  0  0  0  0  0
   39.6120   83.6590   60.9260 C   0  0  0  0  0  0  0  0  0  0  0  0
   40.8880   84.0800   60.5950 C   0  0  0  0  0  0  0  0  0  0  0  0
   42.2630   84.0970   63.6650 H   0  0  0  0  0  0  0  0  0  0  0  0
   40.0510   83.3560   64.3080 H   0  0  0  0  0  0  0  0  0  0  0  0
   38.2890   83.0570   62.5410 H   0  0  0  0  0  0  0  0  0  0  0  0
   38.8450   83.5280   60.1580 H   0  0  0  0  0  0  0  0  0  0  0  0
   45.3620   84.1650   60.6290 C   0  0  0  0  0  0  0  0  0  0  0  0
   45.7460   85.5040   60.7010 C   0  0  0  0  0  0  0  0  0  0  0  0
   44.7640   86.4540   61.0890 C   0  0  0  0  0  0  0  0  0  0  0  0
   43.5190   86.0060   61.3650 N   0  0  0  0  0  0  0  0  0  0  0  0
   43.1870   84.6780   61.2810 C   0  0  0  0  0  0  0  0  0  0  0  0
   44.1150   83.7980   60.9170 N   0  0  0  0  0  0  0  0  0  0  0  0
   46.1500   83.5040   60.3310 H   0  0  0  0  0  0  0  0  0  0  0  0
   46.6870   85.9590   60.5090 H   0  0  0  0  0  0  0  0  0  0  0  0
   44.9330   87.5000   61.1810 H   0  0  0  0  0  0  0  0  0  0  0  0
   41.1980   84.3500   59.2060 C   0  0  0  0  0  0  0  0  0  0  0  0
   40.7960   85.6310   58.8280 C   0  0  0  0  0  0  0  0  0  0  0  0
   41.0030   86.0910   57.5260 C   0  0  0  0  0  0  0  0  0  0  0  0
   41.5970   85.2560   56.6730 N   0  0  0  0  0  0  0  0  0  0  0  0
   41.9870   84.0070   57.0440 C   0  0  0  0  0  0  0  0  0  0  0  0
   41.7930   83.5520   58.2980 N   0  0  0  0  0  0  0  0  0  0  0  0
   40.3060   86.3680   59.4720 H   0  0  0  0  0  0  0  0  0  0  0  0
   40.6970   87.0850   57.2150 H   0  0  0  0  0  0  0  0  0  0  0  0
   43.3860   84.9140   54.5070 O   0  0  0  0  0  0  0  0  0  0  0  0
   42.8730   83.7810   54.7430 C   0  0  0  0  0  0  0  0  0  0  0  0
   42.6330   83.1490   56.0470 C   0  0  2  0  0  3  0  0  0  0  0  0
   41.5920   82.0880   55.6680 C   0  0  0  0  0  3  0  0  0  0  0  0
   41.6960   81.2300   56.3750 H   0  0  0  0  0  0  0  0  0  0  0  0
   41.9870   81.7030   54.2640 C   0  0  0  0  0  3  0  0  0  0  0  0
   41.1400   81.3270   53.6760 H   0  0  0  0  0  0  0  0  0  0  0  0
   42.4450   82.9480   53.6450 N   0  0  0  0  0  0  0  0  0  0  0  0
   42.4530   83.1670   52.6290 H   0  0  0  0  0  0  0  0  0  0  0  0
  1  2  1  0  0  0  0
  2  3  2  0  0  0  0
  2  7  1  0  0  0  0
  3  8  1  0  0  0  0
  4  9  1  0  0  0  0
  4  3  1  0  0  0  0
  5  4  2  0  0  0  0
  6  5  1  0  0  0  0
  6  1  2  0  0  0  0
 10  5  1  0  0  0  0
 11 12  2  0  0  0  0
 11 16  1  0  0  0  0
 12 13  1  0  0  0  0
 13 19  1  0  0  0  0
 13 14  2  0  0  0  0
 15 14  1  0  0  0  0
 15  1  1  0  0  0  0
 16 15  2  0  0  0  0
 17 11  1  0  0  0  0
 18 12  1  0  0  0  0
 20  6  1  0  0  0  0
 21 20  1  0  0  0  0
 21 26  1  0  0  0  0
 22 21  2  0  0  0  0
 23 24  2  0  0  0  0
 23 22  1  0  0  0  0
 24 25  1  0  0  0  0
 25 20  2  0  0  0  0
 27 22  1  0  0  0  0
 28 29  2  0  0  0  0
 29 30  1  0  0  0  0
 30 24  1  1  0  0  0
 31 30  1  0  0  0  0
 31 32  1  0  0  0  0
 33 31  1  0  0  0  0
 34 33  1  0  0  0  0
 35 33  1  0  0  0  0
 35 29  1  0  0  0  0
 36 35  1  0  0  0  0
M  END
>  <minimizedAffinity>
-5.93161297

>  <minimizedRMSD>
0.328119606

$$$$
