
 OpenBabel03212521053D

 36 39  0  0  1  0  0  0  0  0999 V2000
   41.8140   84.2540   61.6170 C   0  0  0  0  0  0  0  0  0  0  0  0
   41.4290   83.9200   62.9170 C   0  0  0  0  0  0  0  0  0  0  0  0
   40.1450   83.5080   63.2110 C   0  0  0  0  0  0  0  0  0  0  0  0
   39.2030   83.4210   62.1830 C   0  0  0  0  0  0  0  0  0  0  0  0
   39.5860   83.7540   60.8840 C   0  0  0  0  0  0  0  0  0  0  0  0
   40.8770   84.1650   60.6010 C   0  0  0  0  0  0  0  0  0  0  0  0
   42.1840   83.9980   63.6960 H   0  0  0  0  0  0  0  0  0  0  0  0
   39.9440   83.2710   64.2540 H   0  0  0  0  0  0  0  0  0  0  0  0
   38.2160   83.0990   62.4380 H   0  0  0  0  0  0  0  0  0  0  0  0
   38.8340   83.6790   60.0940 H   0  0  0  0  0  0  0  0  0  0  0  0
   45.3860   84.1360   60.8970 C   0  0  0  0  0  0  0  0  0  0  0  0
   45.7580   85.4800   60.8830 C   0  0  0  0  0  0  0  0  0  0  0  0
   44.7490   86.4490   61.1290 C   0  0  0  0  0  0  0  0  0  0  0  0
   43.4920   86.0130   61.3600 N   0  0  0  0  0  0  0  0  0  0  0  0
   43.1720   84.6790   61.3650 C   0  0  0  0  0  0  0  0  0  0  0  0
   44.1250   83.7820   61.1340 N   0  0  0  0  0  0  0  0  0  0  0  0
   46.1950   83.4600   60.7050 H   0  0  0  0  0  0  0  0  0  0  0  0
   46.7080   85.9260   60.7140 H   0  0  0  0  0  0  0  0  0  0  0  0
   44.9080   87.5010   61.1450 H   0  0  0  0  0  0  0  0  0  0  0  0
   41.2220   84.4990   59.2350 C   0  0  0  0  0  0  0  0  0  0  0  0
   40.5680   85.6540   58.8050 C   0  0  0  0  0  0  0  0  0  0  0  0
   40.7650   86.1490   57.5150 C   0  0  0  0  0  0  0  0  0  0  0  0
   41.5970   85.4720   56.7230 N   0  0  0  0  0  0  0  0  0  0  0  0
   42.2330   84.3460   57.1440 C   0  0  0  0  0  0  0  0  0  0  0  0
   42.0520   83.8590   58.3880 N   0  0  0  0  0  0  0  0  0  0  0  0
   39.8750   86.2590   59.3980 H   0  0  0  0  0  0  0  0  0  0  0  0
   40.2640   87.0460   57.1640 H   0  0  0  0  0  0  0  0  0  0  0  0
   45.2670   84.4150   57.1800 O   0  0  0  0  0  0  0  0  0  0  0  0
   44.5120   84.1670   56.1950 C   0  0  0  0  0  0  0  0  0  0  0  0
   43.1320   83.6590   56.2140 C   0  0  2  0  0  3  0  0  0  0  0  0
   42.6610   84.0480   54.8060 C   0  0  0  0  0  3  0  0  0  0  0  0
   41.8820   83.3150   54.4860 H   0  0  0  0  0  0  0  0  0  0  0  0
   43.9140   83.9260   53.9770 C   0  0  0  0  0  3  0  0  0  0  0  0
   43.8990   84.5760   53.0940 H   0  0  0  0  0  0  0  0  0  0  0  0
   44.9950   84.3840   54.8530 N   0  0  0  0  0  0  0  0  0  0  0  0
   45.9080   84.7810   54.5510 H   0  0  0  0  0  0  0  0  0  0  0  0
  1  2  1  0  0  0  0
  2  3  2  0  0  0  0
  2  7  1  0  0  0  0
  3  8  1  0  0  0  0
  4  9  1  0  0  0  0
  4  3  1  0  0  0  0
  5  4  2  0  0  0  0
  6  5  1  0  0  0  0
  6  1  2  0  0  0  0
 10  5  1  0  0  0  0
 11 16  1  0  0  0  0
 12 11  2  0  0  0  0
 12 13  1  0  0  0  0
 13 19  1  0  0  0  0
 13 14  2  0  0  0  0
 14 15  1  0  0  0  0
 15  1  1  0  0  0  0
 16 15  2  0  0  0  0
 17 11  1  0  0  0  0
 18 12  1  0  0  0  0
 20  6  1  0  0  0  0
 21 20  1  0  0  0  0
 21 26  1  0  0  0  0
 22 21  2  0  0  0  0
 23 24  2  0  0  0  0
 23 22  1  0  0  0  0
 24 25  1  0  0  0  0
 25 20  2  0  0  0  0
 27 22  1  0  0  0  0
 29 30  1  0  0  0  0
 29 28  2  0  0  0  0
 30 24  1  1  0  0  0
 31 30  1  0  0  0  0
 32 31  1  0  0  0  0
 33 31  1  0  0  0  0
 33 35  1  0  0  0  0
 34 33  1  0  0  0  0
 35 29  1  0  0  0  0
 36 35  1  0  0  0  0
M  END
>  <minimizedAffinity>
-5.54404783

>  <minimizedRMSD>
1.06206989

$$$$
