
 OpenBabel03212521053D

 36 39  0  0  1  0  0  0  0  0999 V2000
   41.8070   84.2680   61.6200 C   0  0  0  0  0  0  0  0  0  0  0  0
   41.4360   83.8830   62.9090 C   0  0  0  0  0  0  0  0  0  0  0  0
   40.1530   83.4660   63.2030 C   0  0  0  0  0  0  0  0  0  0  0  0
   39.1980   83.4270   62.1840 C   0  0  0  0  0  0  0  0  0  0  0  0
   39.5670   83.8110   60.8950 C   0  0  0  0  0  0  0  0  0  0  0  0
   40.8560   84.2260   60.6130 C   0  0  0  0  0  0  0  0  0  0  0  0
   42.2010   83.9240   63.6820 H   0  0  0  0  0  0  0  0  0  0  0  0
   39.9630   83.1870   64.2370 H   0  0  0  0  0  0  0  0  0  0  0  0
   38.2120   83.1000   62.4380 H   0  0  0  0  0  0  0  0  0  0  0  0
   38.8050   83.7720   60.1120 H   0  0  0  0  0  0  0  0  0  0  0  0
   45.3800   84.1570   60.9050 C   0  0  0  0  0  0  0  0  0  0  0  0
   45.7490   85.5020   60.8880 C   0  0  0  0  0  0  0  0  0  0  0  0
   44.7370   86.4690   61.1290 C   0  0  0  0  0  0  0  0  0  0  0  0
   43.4800   86.0310   61.3610 N   0  0  0  0  0  0  0  0  0  0  0  0
   43.1640   84.6960   61.3680 C   0  0  0  0  0  0  0  0  0  0  0  0
   44.1190   83.8010   61.1410 N   0  0  0  0  0  0  0  0  0  0  0  0
   46.1910   83.4830   60.7160 H   0  0  0  0  0  0  0  0  0  0  0  0
   46.6970   85.9500   60.7190 H   0  0  0  0  0  0  0  0  0  0  0  0
   44.8930   87.5210   61.1430 H   0  0  0  0  0  0  0  0  0  0  0  0
   41.1870   84.6140   59.2580 C   0  0  0  0  0  0  0  0  0  0  0  0
   40.4230   85.7010   58.8310 C   0  0  0  0  0  0  0  0  0  0  0  0
   40.5880   86.2320   57.5510 C   0  0  0  0  0  0  0  0  0  0  0  0
   41.4980   85.6580   56.7650 N   0  0  0  0  0  0  0  0  0  0  0  0
   42.2410   84.5980   57.1820 C   0  0  0  0  0  0  0  0  0  0  0  0
   42.0920   84.0760   58.4170 N   0  0  0  0  0  0  0  0  0  0  0  0
   39.6610   86.2220   59.4200 H   0  0  0  0  0  0  0  0  0  0  0  0
   40.0020   87.0780   57.2030 H   0  0  0  0  0  0  0  0  0  0  0  0
   45.1880   85.3000   57.0020 O   0  0  0  0  0  0  0  0  0  0  0  0
   44.4580   84.7990   56.0980 C   0  0  0  0  0  0  0  0  0  0  0  0
   43.2220   84.0210   56.2590 C   0  0  2  0  0  3  0  0  0  0  0  0
   42.6100   84.1550   54.8580 C   0  0  0  0  0  3  0  0  0  0  0  0
   41.9920   83.2470   54.6610 H   0  0  0  0  0  0  0  0  0  0  0  0
   43.8190   84.2110   53.9590 C   0  0  0  0  0  3  0  0  0  0  0  0
   43.6220   84.7490   53.0220 H   0  0  0  0  0  0  0  0  0  0  0  0
   44.8170   84.9740   54.7120 N   0  0  0  0  0  0  0  0  0  0  0  0
   45.6090   85.5170   54.3140 H   0  0  0  0  0  0  0  0  0  0  0  0
  1  2  1  0  0  0  0
  2  3  2  0  0  0  0
  2  7  1  0  0  0  0
  3  8  1  0  0  0  0
  4  9  1  0  0  0  0
  4  3  1  0  0  0  0
  5  4  2  0  0  0  0
  6  5  1  0  0  0  0
  6  1  2  0  0  0  0
 10  5  1  0  0  0  0
 11 16  1  0  0  0  0
 12 11  2  0  0  0  0
 12 13  1  0  0  0  0
 13 19  1  0  0  0  0
 13 14  2  0  0  0  0
 14 15  1  0  0  0  0
 15  1  1  0  0  0  0
 16 15  2  0  0  0  0
 17 11  1  0  0  0  0
 18 12  1  0  0  0  0
 20  6  1  0  0  0  0
 21 20  1  0  0  0  0
 21 26  1  0  0  0  0
 22 21  2  0  0  0  0
 23 24  2  0  0  0  0
 23 22  1  0  0  0  0
 24 25  1  0  0  0  0
 25 20  2  0  0  0  0
 27 22  1  0  0  0  0
 29 30  1  0  0  0  0
 29 28  2  0  0  0  0
 30 24  1  1  0  0  0
 31 30  1  0  0  0  0
 32 31  1  0  0  0  0
 33 35  1  0  0  0  0
 33 31  1  0  0  0  0
 34 33  1  0  0  0  0
 35 29  1  0  0  0  0
 36 35  1  0  0  0  0
M  END
>  <minimizedAffinity>
-5.70307684

>  <minimizedRMSD>
0.765762687

$$$$
