
 OpenBabel03212521063D

 36 39  0  0  1  0  0  0  0  0999 V2000
   41.8090   84.2410   61.5520 C   0  0  0  0  0  0  0  0  0  0  0  0
   41.4490   83.9480   62.8680 C   0  0  0  0  0  0  0  0  0  0  0  0
   40.1730   83.5370   63.1990 C   0  0  0  0  0  0  0  0  0  0  0  0
   39.2150   83.4090   62.1920 C   0  0  0  0  0  0  0  0  0  0  0  0
   39.5720   83.7010   60.8750 C   0  0  0  0  0  0  0  0  0  0  0  0
   40.8540   84.1120   60.5560 C   0  0  0  0  0  0  0  0  0  0  0  0
   42.2170   84.0580   63.6320 H   0  0  0  0  0  0  0  0  0  0  0  0
   39.9930   83.3340   64.2530 H   0  0  0  0  0  0  0  0  0  0  0  0
   38.2350   83.0880   62.4740 H   0  0  0  0  0  0  0  0  0  0  0  0
   38.8070   83.5930   60.1020 H   0  0  0  0  0  0  0  0  0  0  0  0
   45.3300   84.1380   60.6140 C   0  0  0  0  0  0  0  0  0  0  0  0
   45.7290   85.4710   60.7060 C   0  0  0  0  0  0  0  0  0  0  0  0
   44.7570   86.4270   61.1020 C   0  0  0  0  0  0  0  0  0  0  0  0
   43.5060   85.9910   61.3650 N   0  0  0  0  0  0  0  0  0  0  0  0
   43.1580   84.6680   61.2610 C   0  0  0  0  0  0  0  0  0  0  0  0
   44.0780   83.7820   60.8900 N   0  0  0  0  0  0  0  0  0  0  0  0
   46.1120   83.4710   60.3110 H   0  0  0  0  0  0  0  0  0  0  0  0
   46.6770   85.9170   60.5250 H   0  0  0  0  0  0  0  0  0  0  0  0
   44.9380   87.4700   61.2090 H   0  0  0  0  0  0  0  0  0  0  0  0
   41.1730   84.4020   59.1740 C   0  0  0  0  0  0  0  0  0  0  0  0
   40.7310   85.6700   58.7980 C   0  0  0  0  0  0  0  0  0  0  0  0
   40.9390   86.1450   57.5020 C   0  0  0  0  0  0  0  0  0  0  0  0
   41.5740   85.3390   56.6520 N   0  0  0  0  0  0  0  0  0  0  0  0
   42.0040   84.1020   57.0200 C   0  0  0  0  0  0  0  0  0  0  0  0
   41.8090   83.6320   58.2690 N   0  0  0  0  0  0  0  0  0  0  0  0
   40.2050   86.3850   59.4400 H   0  0  0  0  0  0  0  0  0  0  0  0
   40.6020   87.1300   57.1930 H   0  0  0  0  0  0  0  0  0  0  0  0
   40.8490   81.7250   55.5280 O   0  0  0  0  0  0  0  0  0  0  0  0
   42.0690   81.9720   55.7610 C   0  0  0  0  0  0  0  0  0  0  0  0
   42.6940   83.2740   56.0280 C   0  0  2  0  0  3  0  0  0  0  0  0
   44.0070   82.8340   56.6890 C   0  0  0  0  0  3  0  0  0  0  0  0
   44.7810   83.6100   56.4780 H   0  0  0  0  0  0  0  0  0  0  0  0
   44.3230   81.5320   55.9950 C   0  0  0  0  0  3  0  0  0  0  0  0
   44.9320   80.8610   56.6160 H   0  0  0  0  0  0  0  0  0  0  0  0
   43.0230   80.8910   55.7840 N   0  0  0  0  0  0  0  0  0  0  0  0
   42.8480   79.8710   55.6760 H   0  0  0  0  0  0  0  0  0  0  0  0
  1  2  1  0  0  0  0
  2  3  2  0  0  0  0
  2  7  1  0  0  0  0
  3  8  1  0  0  0  0
  4  9  1  0  0  0  0
  4  3  1  0  0  0  0
  5  4  2  0  0  0  0
  6  5  1  0  0  0  0
  6  1  2  0  0  0  0
 10  5  1  0  0  0  0
 11 12  2  0  0  0  0
 11 16  1  0  0  0  0
 12 13  1  0  0  0  0
 13 19  1  0  0  0  0
 13 14  2  0  0  0  0
 15 14  1  0  0  0  0
 15  1  1  0  0  0  0
 16 15  2  0  0  0  0
 17 11  1  0  0  0  0
 18 12  1  0  0  0  0
 20  6  1  0  0  0  0
 21 20  1  0  0  0  0
 21 26  1  0  0  0  0
 22 21  2  0  0  0  0
 23 24  2  0  0  0  0
 23 22  1  0  0  0  0
 24 25  1  0  0  0  0
 25 20  2  0  0  0  0
 27 22  1  0  0  0  0
 28 29  2  0  0  0  0
 29 35  1  0  0  0  0
 29 30  1  0  0  0  0
 30 31  1  0  0  0  0
 30 24  1  1  0  0  0
 32 31  1  0  0  0  0
 33 34  1  0  0  0  0
 33 31  1  0  0  0  0
 35 33  1  0  0  0  0
 36 35  1  0  0  0  0
M  END
>  <minimizedAffinity>
-5.61054611

>  <minimizedRMSD>
0.778136551

$$$$
