
 OpenBabel03212521063D

 36 39  0  0  1  0  0  0  0  0999 V2000
   41.8080   84.2370   61.5550 C   0  0  0  0  0  0  0  0  0  0  0  0
   41.4370   83.9600   62.8720 C   0  0  0  0  0  0  0  0  0  0  0  0
   40.1580   83.5560   63.1970 C   0  0  0  0  0  0  0  0  0  0  0  0
   39.2070   83.4180   62.1840 C   0  0  0  0  0  0  0  0  0  0  0  0
   39.5760   83.6930   60.8670 C   0  0  0  0  0  0  0  0  0  0  0  0
   40.8610   84.0980   60.5530 C   0  0  0  0  0  0  0  0  0  0  0  0
   42.1990   84.0770   63.6400 H   0  0  0  0  0  0  0  0  0  0  0  0
   39.9690   83.3650   64.2520 H   0  0  0  0  0  0  0  0  0  0  0  0
   38.2240   83.1020   62.4630 H   0  0  0  0  0  0  0  0  0  0  0  0
   38.8160   83.5780   60.0890 H   0  0  0  0  0  0  0  0  0  0  0  0
   45.3370   84.1150   60.6490 C   0  0  0  0  0  0  0  0  0  0  0  0
   45.7380   85.4480   60.7260 C   0  0  0  0  0  0  0  0  0  0  0  0
   44.7630   86.4120   61.1000 C   0  0  0  0  0  0  0  0  0  0  0  0
   43.5090   85.9810   61.3580 N   0  0  0  0  0  0  0  0  0  0  0  0
   43.1600   84.6570   61.2700 C   0  0  0  0  0  0  0  0  0  0  0  0
   44.0810   83.7650   60.9190 N   0  0  0  0  0  0  0  0  0  0  0  0
   46.1200   83.4430   60.3620 H   0  0  0  0  0  0  0  0  0  0  0  0
   46.6870   85.8900   60.5460 H   0  0  0  0  0  0  0  0  0  0  0  0
   44.9450   87.4560   61.1940 H   0  0  0  0  0  0  0  0  0  0  0  0
   41.1910   84.3710   59.1700 C   0  0  0  0  0  0  0  0  0  0  0  0
   40.7630   85.6390   58.7780 C   0  0  0  0  0  0  0  0  0  0  0  0
   40.9850   86.0990   57.4790 C   0  0  0  0  0  0  0  0  0  0  0  0
   41.6170   85.2780   56.6410 N   0  0  0  0  0  0  0  0  0  0  0  0
   42.0330   84.0410   57.0250 C   0  0  0  0  0  0  0  0  0  0  0  0
   41.8260   83.5850   58.2770 N   0  0  0  0  0  0  0  0  0  0  0  0
   40.2410   86.3650   59.4100 H   0  0  0  0  0  0  0  0  0  0  0  0
   40.6590   87.0840   57.1580 H   0  0  0  0  0  0  0  0  0  0  0  0
   40.8460   81.6960   55.5080 O   0  0  0  0  0  0  0  0  0  0  0  0
   42.0670   81.9110   55.7650 C   0  0  0  0  0  0  0  0  0  0  0  0
   42.7220   83.1970   56.0450 C   0  0  2  0  0  3  0  0  0  0  0  0
   44.0100   82.7220   56.7300 C   0  0  0  0  0  3  0  0  0  0  0  0
   44.8070   83.4790   56.5340 H   0  0  0  0  0  0  0  0  0  0  0  0
   44.3040   81.4130   56.0410 C   0  0  0  0  0  3  0  0  0  0  0  0
   44.8840   80.7260   56.6720 H   0  0  0  0  0  0  0  0  0  0  0  0
   42.9930   80.8060   55.8040 N   0  0  0  0  0  0  0  0  0  0  0  0
   42.7930   79.7920   55.6920 H   0  0  0  0  0  0  0  0  0  0  0  0
  1  2  1  0  0  0  0
  2  3  2  0  0  0  0
  2  7  1  0  0  0  0
  3  8  1  0  0  0  0
  4  9  1  0  0  0  0
  4  3  1  0  0  0  0
  5  4  2  0  0  0  0
  6  5  1  0  0  0  0
  6  1  2  0  0  0  0
 10  5  1  0  0  0  0
 11 12  2  0  0  0  0
 11 16  1  0  0  0  0
 12 13  1  0  0  0  0
 13 19  1  0  0  0  0
 13 14  2  0  0  0  0
 15 14  1  0  0  0  0
 15  1  1  0  0  0  0
 16 15  2  0  0  0  0
 17 11  1  0  0  0  0
 18 12  1  0  0  0  0
 20  6  1  0  0  0  0
 21 20  1  0  0  0  0
 21 26  1  0  0  0  0
 22 21  2  0  0  0  0
 23 24  2  0  0  0  0
 23 22  1  0  0  0  0
 24 25  1  0  0  0  0
 25 20  2  0  0  0  0
 27 22  1  0  0  0  0
 28 29  2  0  0  0  0
 29 35  1  0  0  0  0
 29 30  1  0  0  0  0
 30 31  1  0  0  0  0
 30 24  1  1  0  0  0
 32 31  1  0  0  0  0
 33 34  1  0  0  0  0
 33 31  1  0  0  0  0
 35 33  1  0  0  0  0
 36 35  1  0  0  0  0
M  END
>  <minimizedAffinity>
-5.615767

>  <minimizedRMSD>
0.85838002

$$$$
