
 OpenBabel03212520463D

 20 21  0  0  1  0  0  0  0  0999 V2000
   39.9640   81.4990   61.1560 C   0  0  0  0  0  0  0  0  0  0  0  0
   40.1930   80.1570   61.5290 C   0  0  0  0  0  0  0  0  0  0  0  0
   40.4690   79.2410   60.4980 C   0  0  0  0  0  0  0  0  0  0  0  0
   40.4960   79.7010   59.2280 N   0  0  0  0  0  0  0  0  0  0  0  0
   40.2700   80.9970   58.9140 C   0  0  0  0  0  0  0  0  0  0  0  0
   40.0060   81.8910   59.8680 N   0  0  0  0  0  0  0  0  0  0  0  0
   39.7000   82.3090   62.2870 N   0  0  0  0  0  0  0  0  0  0  0  0
   40.1750   79.7750   62.5210 H   0  0  0  0  0  0  0  0  0  0  0  0
   40.6540   78.1930   60.7170 H   0  0  0  0  0  0  0  0  0  0  0  0
   39.0330   82.0130   63.0300 H   0  0  0  0  0  0  0  0  0  0  0  0
   40.2420   83.2030   62.2730 H   0  0  0  0  0  0  0  0  0  0  0  0
   38.3440   80.1270   56.6150 O   0  0  0  0  0  0  0  0  0  0  0  0
   39.4590   80.7300   56.5820 C   0  0  0  0  0  0  0  0  0  0  0  0
   40.3090   81.4530   57.5310 C   0  0  2  0  0  0  0  0  0  0  0  0
   41.6840   81.2710   56.8740 C   0  0  0  0  0  0  0  0  0  0  0  0
   42.3800   82.0270   57.2800 H   0  0  0  0  0  0  0  0  0  0  0  0
   41.2840   81.5940   55.4380 C   0  0  0  0  0  0  0  0  0  0  0  0
   41.0170   82.6780   55.4500 H   0  0  0  0  0  0  0  0  0  0  0  0
   40.1090   80.7400   55.2940 N   0  0  0  0  0  0  0  0  0  0  0  0
   39.8990   80.2830   54.3640 H   0  0  0  0  0  0  0  0  0  0  0  0
  1  2  1  0  0  0  0
  1  7  1  0  0  0  0
  2  8  1  0  0  0  0
  3  9  1  0  0  0  0
  3  2  2  0  0  0  0
  4  3  1  0  0  0  0
  5  4  2  0  0  0  0
  5  6  1  0  0  0  0
  6  1  2  0  0  0  0
  7 10  1  0  0  0  0
 11  7  1  0  0  0  0
 13 12  2  0  0  0  0
 13 14  1  0  0  0  0
 14  5  1  1  0  0  0
 15 16  1  0  0  0  0
 15 14  1  0  0  0  0
 17 18  1  0  0  0  0
 17 15  1  0  0  0  0
 19 17  1  0  0  0  0
 19 13  1  0  0  0  0
 20 19  1  0  0  0  0
M  END
>  <minimizedAffinity>
-3.75807834

>  <minimizedRMSD>
6.59732056

$$$$
