
 OpenBabel03212521053D

 36 39  0  0  1  0  0  0  0  0999 V2000
   41.8080   84.2360   61.5540 C   0  0  0  0  0  0  0  0  0  0  0  0
   41.4370   83.9590   62.8710 C   0  0  0  0  0  0  0  0  0  0  0  0
   40.1580   83.5550   63.1970 C   0  0  0  0  0  0  0  0  0  0  0  0
   39.2070   83.4170   62.1830 C   0  0  0  0  0  0  0  0  0  0  0  0
   39.5760   83.6930   60.8660 C   0  0  0  0  0  0  0  0  0  0  0  0
   40.8610   84.0970   60.5530 C   0  0  0  0  0  0  0  0  0  0  0  0
   42.2000   84.0760   63.6390 H   0  0  0  0  0  0  0  0  0  0  0  0
   39.9690   83.3640   64.2510 H   0  0  0  0  0  0  0  0  0  0  0  0
   38.2240   83.1020   62.4620 H   0  0  0  0  0  0  0  0  0  0  0  0
   38.8160   83.5780   60.0880 H   0  0  0  0  0  0  0  0  0  0  0  0
   45.3370   84.1140   60.6480 C   0  0  0  0  0  0  0  0  0  0  0  0
   45.7380   85.4470   60.7260 C   0  0  0  0  0  0  0  0  0  0  0  0
   44.7640   86.4110   61.1000 C   0  0  0  0  0  0  0  0  0  0  0  0
   43.5100   85.9800   61.3580 N   0  0  0  0  0  0  0  0  0  0  0  0
   43.1610   84.6560   61.2700 C   0  0  0  0  0  0  0  0  0  0  0  0
   44.0820   83.7640   60.9180 N   0  0  0  0  0  0  0  0  0  0  0  0
   46.1210   83.4420   60.3610 H   0  0  0  0  0  0  0  0  0  0  0  0
   46.6880   85.8890   60.5460 H   0  0  0  0  0  0  0  0  0  0  0  0
   44.9460   87.4550   61.1940 H   0  0  0  0  0  0  0  0  0  0  0  0
   41.1920   84.3700   59.1700 C   0  0  0  0  0  0  0  0  0  0  0  0
   40.7640   85.6390   58.7780 C   0  0  0  0  0  0  0  0  0  0  0  0
   40.9850   86.0990   57.4790 C   0  0  0  0  0  0  0  0  0  0  0  0
   41.6180   85.2770   56.6410 N   0  0  0  0  0  0  0  0  0  0  0  0
   42.0340   84.0410   57.0250 C   0  0  0  0  0  0  0  0  0  0  0  0
   41.8260   83.5850   58.2770 N   0  0  0  0  0  0  0  0  0  0  0  0
   40.2410   86.3650   59.4090 H   0  0  0  0  0  0  0  0  0  0  0  0
   40.6600   87.0840   57.1580 H   0  0  0  0  0  0  0  0  0  0  0  0
   40.8470   81.6960   55.5060 O   0  0  0  0  0  0  0  0  0  0  0  0
   42.0680   81.9110   55.7640 C   0  0  0  0  0  0  0  0  0  0  0  0
   42.7220   83.1960   56.0450 C   0  0  2  0  0  3  0  0  0  0  0  0
   44.0100   82.7210   56.7310 C   0  0  0  0  0  3  0  0  0  0  0  0
   44.8080   83.4770   56.5370 H   0  0  0  0  0  0  0  0  0  0  0  0
   44.3050   81.4120   56.0430 C   0  0  0  0  0  3  0  0  0  0  0  0
   44.8840   80.7250   56.6730 H   0  0  0  0  0  0  0  0  0  0  0  0
   42.9930   80.8050   55.8050 N   0  0  0  0  0  0  0  0  0  0  0  0
   42.7930   79.7910   55.6920 H   0  0  0  0  0  0  0  0  0  0  0  0
  1  2  1  0  0  0  0
  2  3  2  0  0  0  0
  2  7  1  0  0  0  0
  3  8  1  0  0  0  0
  4  9  1  0  0  0  0
  4  3  1  0  0  0  0
  5  4  2  0  0  0  0
  6  5  1  0  0  0  0
  6  1  2  0  0  0  0
 10  5  1  0  0  0  0
 11 12  2  0  0  0  0
 11 16  1  0  0  0  0
 12 13  1  0  0  0  0
 13 19  1  0  0  0  0
 13 14  2  0  0  0  0
 15 14  1  0  0  0  0
 15  1  1  0  0  0  0
 16 15  2  0  0  0  0
 17 11  1  0  0  0  0
 18 12  1  0  0  0  0
 20  6  1  0  0  0  0
 21 20  1  0  0  0  0
 21 26  1  0  0  0  0
 22 21  2  0  0  0  0
 23 24  2  0  0  0  0
 23 22  1  0  0  0  0
 24 25  1  0  0  0  0
 25 20  2  0  0  0  0
 27 22  1  0  0  0  0
 28 29  2  0  0  0  0
 29 35  1  0  0  0  0
 29 30  1  0  0  0  0
 30 31  1  0  0  0  0
 30 24  1  1  0  0  0
 32 31  1  0  0  0  0
 33 34  1  0  0  0  0
 33 31  1  0  0  0  0
 35 33  1  0  0  0  0
 36 35  1  0  0  0  0
M  END
>  <minimizedAffinity>
-5.61374426

>  <minimizedRMSD>
0.141907364

$$$$
