
 OpenBabel03212520153D

 32 34  0  0  1  0  0  0  0  0999 V2000
   42.1890   83.8950   58.2900 Cl  0  0  0  0  0  0  0  0  0  0  0  0
   41.2100   82.4390   58.1600 C   0  0  0  0  0  0  0  0  0  0  0  0
   40.6540   81.8260   59.2530 C   0  0  0  0  0  0  0  0  0  0  0  0
   39.9030   80.6900   58.9880 C   0  0  0  0  0  0  0  0  0  0  0  0
   39.6750   80.1380   57.7420 C   0  0  0  0  0  0  0  0  0  0  0  0
   40.2590   80.7980   56.6790 C   0  0  0  0  0  0  0  0  0  0  0  0
   40.0180   80.1830   55.0550 Cl  0  0  0  0  0  0  0  0  0  0  0  0
   41.0290   81.9520   56.8920 C   0  0  0  0  0  0  0  0  0  0  0  0
   39.4500   80.1800   59.8270 H   0  0  0  0  0  0  0  0  0  0  0  0
   39.0710   79.2450   57.6470 H   0  0  0  0  0  0  0  0  0  0  0  0
   41.9740   82.1230   61.4070 C   0  0  0  0  0  0  0  0  0  0  0  0
   40.8710   82.3700   60.5560 C   0  0  0  0  0  0  0  0  0  0  0  0
   39.8840   83.2260   61.0130 C   0  0  0  0  0  0  0  0  0  0  0  0
   40.0220   83.7820   62.2420 N   0  0  0  0  0  0  0  0  0  0  0  0
   41.0880   83.5250   63.0290 C   0  0  0  0  0  0  0  0  0  0  0  0
   42.0640   82.6960   62.6110 N   0  0  0  0  0  0  0  0  0  0  0  0
   42.7100   81.4530   61.0040 H   0  0  0  0  0  0  0  0  0  0  0  0
   38.9970   83.4830   60.4410 H   0  0  0  0  0  0  0  0  0  0  0  0
   41.0800   84.2180   64.3490 C   0  0  0  0  0  0  0  0  0  0  0  0
   40.7990   85.5700   64.2290 F   0  0  0  0  0  0  0  0  0  0  0  0
   40.1580   83.6360   65.1840 F   0  0  0  0  0  0  0  0  0  0  0  0
   42.3510   84.1940   64.9360 F   0  0  0  0  0  0  0  0  0  0  0  0
   41.5750   82.5440   55.7700 O   0  0  0  0  0  0  0  0  0  0  0  0
   43.3930   84.9330   54.6130 O   0  0  0  0  0  0  0  0  0  0  0  0
   43.3750   83.6530   54.5910 C   0  0  0  0  0  0  0  0  0  0  0  0
   42.9460   82.5250   55.4200 C   0  0  2  0  0  3  0  0  0  0  0  0
   43.2640   81.3060   54.5850 C   0  0  0  0  0  3  0  0  0  0  0  0
   43.6460   80.4670   55.2170 H   0  0  0  0  0  0  0  0  0  0  0  0
   44.3570   81.7960   53.6640 C   0  0  0  0  0  3  0  0  0  0  0  0
   44.3450   81.1320   52.7650 H   0  0  0  0  0  0  0  0  0  0  0  0
   43.9540   83.1420   53.3730 N   0  0  0  0  0  0  0  0  0  0  0  0
   44.1230   83.5340   52.4000 H   0  0  0  0  0  0  0  0  0  0  0  0
  2  1  1  0  0  0  0
  2  3  1  0  0  0  0
  3 12  1  0  0  0  0
  4  3  2  0  0  0  0
  4  9  1  0  0  0  0
  5  4  1  0  0  0  0
  6  8  1  0  0  0  0
  6  5  2  0  0  0  0
  7  6  1  0  0  0  0
  8  2  2  0  0  0  0
 10  5  1  0  0  0  0
 11 16  1  0  0  0  0
 12 13  1  0  0  0  0
 12 11  2  0  0  0  0
 13 14  2  0  0  0  0
 14 15  1  0  0  0  0
 15 19  1  0  0  0  0
 16 15  2  0  0  0  0
 17 11  1  0  0  0  0
 18 13  1  0  0  0  0
 19 22  1  0  0  0  0
 19 21  1  0  0  0  0
 20 19  1  0  0  0  0
 23  8  1  0  0  0  0
 25 24  2  0  0  0  0
 25 26  1  0  0  0  0
 26 23  1  6  0  0  0
 27 28  1  0  0  0  0
 27 26  1  0  0  0  0
 29 27  1  0  0  0  0
 30 29  1  0  0  0  0
 31 29  1  0  0  0  0
 31 25  1  0  0  0  0
 32 31  1  0  0  0  0
M  END
>  <minimizedAffinity>
-5.27211475

>  <minimizedRMSD>
0.298392534

$$$$
