
 OpenBabel03212520153D

 32 34  0  0  1  0  0  0  0  0999 V2000
   42.1620   84.1090   58.3570 Cl  0  0  0  0  0  0  0  0  0  0  0  0
   41.2390   82.6210   58.1860 C   0  0  0  0  0  0  0  0  0  0  0  0
   40.7030   81.9590   59.2600 C   0  0  0  0  0  0  0  0  0  0  0  0
   39.9980   80.8030   58.9630 C   0  0  0  0  0  0  0  0  0  0  0  0
   39.7950   80.2750   57.7020 C   0  0  0  0  0  0  0  0  0  0  0  0
   40.3580   80.9830   56.6590 C   0  0  0  0  0  0  0  0  0  0  0  0
   40.1470   80.4020   55.0180 Cl  0  0  0  0  0  0  0  0  0  0  0  0
   41.0820   82.1600   56.9050 C   0  0  0  0  0  0  0  0  0  0  0  0
   39.5610   80.2550   59.7860 H   0  0  0  0  0  0  0  0  0  0  0  0
   39.2270   79.3620   57.5810 H   0  0  0  0  0  0  0  0  0  0  0  0
   41.9720   82.2030   61.4510 C   0  0  0  0  0  0  0  0  0  0  0  0
   40.8940   82.4780   60.5780 C   0  0  0  0  0  0  0  0  0  0  0  0
   39.9060   83.3390   61.0250 C   0  0  0  0  0  0  0  0  0  0  0  0
   40.0200   83.8700   62.2670 N   0  0  0  0  0  0  0  0  0  0  0  0
   41.0630   83.5870   63.0750 C   0  0  0  0  0  0  0  0  0  0  0  0
   42.0390   82.7530   62.6670 N   0  0  0  0  0  0  0  0  0  0  0  0
   42.7100   81.5300   61.0550 H   0  0  0  0  0  0  0  0  0  0  0  0
   39.0370   83.6160   60.4360 H   0  0  0  0  0  0  0  0  0  0  0  0
   41.0310   84.2570   64.4060 C   0  0  0  0  0  0  0  0  0  0  0  0
   40.7460   85.6100   64.3060 F   0  0  0  0  0  0  0  0  0  0  0  0
   40.0970   83.6570   65.2160 F   0  0  0  0  0  0  0  0  0  0  0  0
   42.2920   84.2270   65.0150 F   0  0  0  0  0  0  0  0  0  0  0  0
   41.6090   82.8010   55.8010 O   0  0  0  0  0  0  0  0  0  0  0  0
   43.8190   80.6430   56.7000 O   0  0  0  0  0  0  0  0  0  0  0  0
   43.7800   81.7770   56.1080 C   0  0  0  0  0  0  0  0  0  0  0  0
   42.8910   82.5640   55.2510 C   0  0  2  0  0  3  0  0  0  0  0  0
   43.6300   83.8640   55.0400 C   0  0  0  0  0  3  0  0  0  0  0  0
   43.5000   84.2430   53.9960 H   0  0  0  0  0  0  0  0  0  0  0  0
   45.0720   83.4820   55.2740 C   0  0  0  0  0  3  0  0  0  0  0  0
   45.6120   84.4180   55.5620 H   0  0  0  0  0  0  0  0  0  0  0  0
   44.9840   82.5330   56.3470 N   0  0  0  0  0  0  0  0  0  0  0  0
   45.7420   82.5220   57.0930 H   0  0  0  0  0  0  0  0  0  0  0  0
  2  1  1  0  0  0  0
  2  3  1  0  0  0  0
  3 12  1  0  0  0  0
  4  3  2  0  0  0  0
  4  9  1  0  0  0  0
  5  4  1  0  0  0  0
  6  8  1  0  0  0  0
  6  5  2  0  0  0  0
  7  6  1  0  0  0  0
  8  2  2  0  0  0  0
 10  5  1  0  0  0  0
 11 16  1  0  0  0  0
 12 13  1  0  0  0  0
 12 11  2  0  0  0  0
 13 14  2  0  0  0  0
 14 15  1  0  0  0  0
 15 19  1  0  0  0  0
 16 15  2  0  0  0  0
 17 11  1  0  0  0  0
 18 13  1  0  0  0  0
 19 22  1  0  0  0  0
 19 21  1  0  0  0  0
 20 19  1  0  0  0  0
 23  8  1  0  0  0  0
 25 31  1  0  0  0  0
 25 24  2  0  0  0  0
 26 23  1  1  0  0  0
 26 25  1  0  0  0  0
 27 26  1  0  0  0  0
 27 29  1  0  0  0  0
 28 27  1  0  0  0  0
 29 30  1  0  0  0  0
 29 31  1  0  0  0  0
 31 32  1  0  0  0  0
M  END
>  <minimizedAffinity>
-5.0670476

>  <minimizedRMSD>
0.121224619

$$$$
