
 OpenBabel03212520153D

 32 34  0  0  1  0  0  0  0  0999 V2000
   42.1010   84.0830   58.3840 Cl  0  0  0  0  0  0  0  0  0  0  0  0
   41.1880   82.5880   58.2300 C   0  0  0  0  0  0  0  0  0  0  0  0
   40.6670   81.9280   59.3140 C   0  0  0  0  0  0  0  0  0  0  0  0
   39.9670   80.7650   59.0300 C   0  0  0  0  0  0  0  0  0  0  0  0
   39.7560   80.2280   57.7740 C   0  0  0  0  0  0  0  0  0  0  0  0
   40.3030   80.9350   56.7220 C   0  0  0  0  0  0  0  0  0  0  0  0
   40.0800   80.3420   55.0870 Cl  0  0  0  0  0  0  0  0  0  0  0  0
   41.0210   82.1180   56.9540 C   0  0  0  0  0  0  0  0  0  0  0  0
   39.5430   80.2180   59.8610 H   0  0  0  0  0  0  0  0  0  0  0  0
   39.1930   79.3110   57.6650 H   0  0  0  0  0  0  0  0  0  0  0  0
   41.9610   82.2000   61.4870 C   0  0  0  0  0  0  0  0  0  0  0  0
   40.8690   82.4560   60.6260 C   0  0  0  0  0  0  0  0  0  0  0  0
   39.8750   83.3050   61.0820 C   0  0  0  0  0  0  0  0  0  0  0  0
   39.9970   83.8440   62.3200 N   0  0  0  0  0  0  0  0  0  0  0  0
   41.0540   83.5790   63.1160 C   0  0  0  0  0  0  0  0  0  0  0  0
   42.0360   82.7570   62.6990 N   0  0  0  0  0  0  0  0  0  0  0  0
   42.7030   81.5350   61.0840 H   0  0  0  0  0  0  0  0  0  0  0  0
   38.9940   83.5680   60.5030 H   0  0  0  0  0  0  0  0  0  0  0  0
   41.0290   84.2550   64.4440 C   0  0  0  0  0  0  0  0  0  0  0  0
   40.7370   85.6060   64.3400 F   0  0  0  0  0  0  0  0  0  0  0  0
   40.1060   83.6540   65.2650 F   0  0  0  0  0  0  0  0  0  0  0  0
   42.2960   84.2350   65.0420 F   0  0  0  0  0  0  0  0  0  0  0  0
   41.5320   82.7570   55.8400 O   0  0  0  0  0  0  0  0  0  0  0  0
   44.6150   82.5020   56.7240 O   0  0  0  0  0  0  0  0  0  0  0  0
   43.9420   82.6600   55.6460 C   0  0  0  0  0  0  0  0  0  0  0  0
   42.6390   82.3130   55.0790 C   0  0  2  0  0  3  0  0  0  0  0  0
   42.6400   82.9610   53.7130 C   0  0  0  0  0  3  0  0  0  0  0  0
   42.1420   82.3110   52.9530 H   0  0  0  0  0  0  0  0  0  0  0  0
   44.1110   83.0920   53.3970 C   0  0  0  0  0  3  0  0  0  0  0  0
   44.2080   83.9170   52.6490 H   0  0  0  0  0  0  0  0  0  0  0  0
   44.6880   83.4170   54.6700 N   0  0  0  0  0  0  0  0  0  0  0  0
   45.5000   84.1010   54.7120 H   0  0  0  0  0  0  0  0  0  0  0  0
  2  1  1  0  0  0  0
  2  3  1  0  0  0  0
  3 12  1  0  0  0  0
  4  3  2  0  0  0  0
  4  9  1  0  0  0  0
  5  4  1  0  0  0  0
  6  8  1  0  0  0  0
  6  5  2  0  0  0  0
  7  6  1  0  0  0  0
  8  2  2  0  0  0  0
 10  5  1  0  0  0  0
 11 16  1  0  0  0  0
 12 13  1  0  0  0  0
 12 11  2  0  0  0  0
 13 14  2  0  0  0  0
 14 15  1  0  0  0  0
 15 19  1  0  0  0  0
 16 15  2  0  0  0  0
 17 11  1  0  0  0  0
 18 13  1  0  0  0  0
 19 22  1  0  0  0  0
 19 21  1  0  0  0  0
 20 19  1  0  0  0  0
 23  8  1  0  0  0  0
 25 24  2  0  0  0  0
 26 25  1  0  0  0  0
 26 23  1  1  0  0  0
 27 26  1  0  0  0  0
 28 27  1  0  0  0  0
 29 27  1  0  0  0  0
 29 31  1  0  0  0  0
 30 29  1  0  0  0  0
 31 32  1  0  0  0  0
 31 25  1  0  0  0  0
M  END
>  <minimizedAffinity>
-5.12621069

>  <minimizedRMSD>
0.30921343

$$$$
