
 OpenBabel03212520153D

 32 34  0  0  1  0  0  0  0  0999 V2000
   42.0960   84.0780   58.3810 Cl  0  0  0  0  0  0  0  0  0  0  0  0
   41.1830   82.5810   58.2300 C   0  0  0  0  0  0  0  0  0  0  0  0
   40.6650   81.9220   59.3150 C   0  0  0  0  0  0  0  0  0  0  0  0
   39.9650   80.7590   59.0340 C   0  0  0  0  0  0  0  0  0  0  0  0
   39.7510   80.2210   57.7780 C   0  0  0  0  0  0  0  0  0  0  0  0
   40.2960   80.9270   56.7240 C   0  0  0  0  0  0  0  0  0  0  0  0
   40.0690   80.3340   55.0900 Cl  0  0  0  0  0  0  0  0  0  0  0  0
   41.0130   82.1110   56.9540 C   0  0  0  0  0  0  0  0  0  0  0  0
   39.5430   80.2120   59.8660 H   0  0  0  0  0  0  0  0  0  0  0  0
   39.1880   79.3040   57.6710 H   0  0  0  0  0  0  0  0  0  0  0  0
   41.9650   82.1980   61.4830 C   0  0  0  0  0  0  0  0  0  0  0  0
   40.8690   82.4510   60.6270 C   0  0  0  0  0  0  0  0  0  0  0  0
   39.8740   83.2970   61.0860 C   0  0  0  0  0  0  0  0  0  0  0  0
   39.9990   83.8370   62.3230 N   0  0  0  0  0  0  0  0  0  0  0  0
   41.0590   83.5750   63.1150 C   0  0  0  0  0  0  0  0  0  0  0  0
   42.0420   82.7550   62.6960 N   0  0  0  0  0  0  0  0  0  0  0  0
   42.7080   81.5360   61.0790 H   0  0  0  0  0  0  0  0  0  0  0  0
   38.9900   83.5570   60.5100 H   0  0  0  0  0  0  0  0  0  0  0  0
   41.0370   84.2500   64.4440 C   0  0  0  0  0  0  0  0  0  0  0  0
   40.7430   85.6010   64.3400 F   0  0  0  0  0  0  0  0  0  0  0  0
   40.1160   83.6490   65.2670 F   0  0  0  0  0  0  0  0  0  0  0  0
   42.3050   84.2310   65.0390 F   0  0  0  0  0  0  0  0  0  0  0  0
   41.5220   82.7490   55.8390 O   0  0  0  0  0  0  0  0  0  0  0  0
   42.5030   82.8750   52.7780 O   0  0  0  0  0  0  0  0  0  0  0  0
   42.8730   82.3290   53.8760 C   0  0  0  0  0  0  0  0  0  0  0  0
   42.8260   82.5720   55.3190 C   0  0  2  0  0  3  0  0  0  0  0  0
   43.4790   81.3520   55.9240 C   0  0  0  0  0  3  0  0  0  0  0  0
   44.1120   81.6220   56.8050 H   0  0  0  0  0  0  0  0  0  0  0  0
   44.3510   80.8360   54.8030 C   0  0  0  0  0  3  0  0  0  0  0  0
   44.5190   79.7480   54.9970 H   0  0  0  0  0  0  0  0  0  0  0  0
   43.5520   81.0800   53.6360 N   0  0  0  0  0  0  0  0  0  0  0  0
   43.5700   80.3760   52.8400 H   0  0  0  0  0  0  0  0  0  0  0  0
  2  1  1  0  0  0  0
  2  3  1  0  0  0  0
  3 12  1  0  0  0  0
  4  3  2  0  0  0  0
  4  9  1  0  0  0  0
  5  4  1  0  0  0  0
  6  8  1  0  0  0  0
  6  5  2  0  0  0  0
  7  6  1  0  0  0  0
  8  2  2  0  0  0  0
 10  5  1  0  0  0  0
 11 16  1  0  0  0  0
 12 13  1  0  0  0  0
 12 11  2  0  0  0  0
 13 14  2  0  0  0  0
 14 15  1  0  0  0  0
 15 19  1  0  0  0  0
 16 15  2  0  0  0  0
 17 11  1  0  0  0  0
 18 13  1  0  0  0  0
 19 22  1  0  0  0  0
 19 21  1  0  0  0  0
 20 19  1  0  0  0  0
 23  8  1  0  0  0  0
 24 25  2  0  0  0  0
 25 26  1  0  0  0  0
 26 23  1  1  0  0  0
 26 27  1  0  0  0  0
 27 28  1  0  0  0  0
 29 30  1  0  0  0  0
 29 27  1  0  0  0  0
 31 25  1  0  0  0  0
 31 29  1  0  0  0  0
 32 31  1  0  0  0  0
M  END
>  <minimizedAffinity>
-5.05606508

>  <minimizedRMSD>
0.641417861

$$$$
