
 OpenBabel03212520153D

 32 34  0  0  1  0  0  0  0  0999 V2000
   42.0570   84.1900   58.4250 Cl  0  0  0  0  0  0  0  0  0  0  0  0
   41.1910   82.6660   58.2670 C   0  0  0  0  0  0  0  0  0  0  0  0
   40.6970   81.9840   59.3500 C   0  0  0  0  0  0  0  0  0  0  0  0
   40.0330   80.8010   59.0630 C   0  0  0  0  0  0  0  0  0  0  0  0
   39.8330   80.2640   57.8040 C   0  0  0  0  0  0  0  0  0  0  0  0
   40.3520   80.9940   56.7540 C   0  0  0  0  0  0  0  0  0  0  0  0
   40.1410   80.4030   55.1160 Cl  0  0  0  0  0  0  0  0  0  0  0  0
   41.0330   82.1980   56.9890 C   0  0  0  0  0  0  0  0  0  0  0  0
   39.6300   80.2370   59.8930 H   0  0  0  0  0  0  0  0  0  0  0  0
   39.2990   79.3300   57.6930 H   0  0  0  0  0  0  0  0  0  0  0  0
   42.0170   82.3330   61.4950 C   0  0  0  0  0  0  0  0  0  0  0  0
   40.8870   82.5110   60.6640 C   0  0  0  0  0  0  0  0  0  0  0  0
   39.8400   83.2740   61.1540 C   0  0  0  0  0  0  0  0  0  0  0  0
   39.9490   83.8070   62.3960 N   0  0  0  0  0  0  0  0  0  0  0  0
   41.0420   83.6170   63.1630 C   0  0  0  0  0  0  0  0  0  0  0  0
   42.0760   82.8800   62.7130 N   0  0  0  0  0  0  0  0  0  0  0  0
   42.7990   81.7340   61.0670 H   0  0  0  0  0  0  0  0  0  0  0  0
   38.9280   83.4720   60.5990 H   0  0  0  0  0  0  0  0  0  0  0  0
   40.9960   84.2730   64.5010 C   0  0  0  0  0  0  0  0  0  0  0  0
   40.6650   85.6160   64.4150 F   0  0  0  0  0  0  0  0  0  0  0  0
   40.0890   83.6340   65.3120 F   0  0  0  0  0  0  0  0  0  0  0  0
   42.2620   84.2810   65.1010 F   0  0  0  0  0  0  0  0  0  0  0  0
   41.5190   82.8590   55.8770 O   0  0  0  0  0  0  0  0  0  0  0  0
   43.9450   84.9710   55.8660 O   0  0  0  0  0  0  0  0  0  0  0  0
   43.5510   83.9670   55.1740 C   0  0  0  0  0  0  0  0  0  0  0  0
   42.8200   82.7120   55.3410 C   0  0  2  0  0  0  0  0  0  0  0  0
   42.7590   82.1280   53.9480 C   0  0  0  0  0  0  0  0  0  0  0  0
   42.8840   81.0170   53.9660 H   0  0  0  0  0  0  0  0  0  0  0  0
   43.9390   82.7680   53.2550 C   0  0  0  0  0  0  0  0  0  0  0  0
   43.7220   82.7410   52.1590 H   0  0  0  0  0  0  0  0  0  0  0  0
   43.9450   84.0990   53.7940 N   0  0  0  0  0  0  0  0  0  0  0  0
   44.2100   84.9110   53.1620 H   0  0  0  0  0  0  0  0  0  0  0  0
  2  1  1  0  0  0  0
  2  3  1  0  0  0  0
  3 12  1  0  0  0  0
  4  3  2  0  0  0  0
  4  9  1  0  0  0  0
  5  4  1  0  0  0  0
  6  8  1  0  0  0  0
  6  5  2  0  0  0  0
  7  6  1  0  0  0  0
  8  2  2  0  0  0  0
 10  5  1  0  0  0  0
 11 16  1  0  0  0  0
 12 13  1  0  0  0  0
 12 11  2  0  0  0  0
 13 14  2  0  0  0  0
 14 15  1  0  0  0  0
 15 19  1  0  0  0  0
 16 15  2  0  0  0  0
 17 11  1  0  0  0  0
 18 13  1  0  0  0  0
 19 22  1  0  0  0  0
 19 21  1  0  0  0  0
 20 19  1  0  0  0  0
 23  8  1  0  0  0  0
 25 26  1  0  0  0  0
 25 24  2  0  0  0  0
 26 23  1  6  0  0  0
 27 28  1  0  0  0  0
 27 26  1  0  0  0  0
 29 31  1  0  0  0  0
 29 27  1  0  0  0  0
 30 29  1  0  0  0  0
 31 25  1  0  0  0  0
 32 31  1  0  0  0  0
M  END
>  <minimizedAffinity>
-5.2952199

>  <minimizedRMSD>
0.334031075

$$$$
