
 OpenBabel03212520153D

 32 34  0  0  1  0  0  0  0  0999 V2000
   42.0950   84.0780   58.3780 Cl  0  0  0  0  0  0  0  0  0  0  0  0
   41.1830   82.5810   58.2290 C   0  0  0  0  0  0  0  0  0  0  0  0
   40.6660   81.9220   59.3150 C   0  0  0  0  0  0  0  0  0  0  0  0
   39.9670   80.7580   59.0350 C   0  0  0  0  0  0  0  0  0  0  0  0
   39.7530   80.2190   57.7800 C   0  0  0  0  0  0  0  0  0  0  0  0
   40.2960   80.9250   56.7250 C   0  0  0  0  0  0  0  0  0  0  0  0
   40.0690   80.3300   55.0910 Cl  0  0  0  0  0  0  0  0  0  0  0  0
   41.0130   82.1090   56.9540 C   0  0  0  0  0  0  0  0  0  0  0  0
   39.5460   80.2120   59.8680 H   0  0  0  0  0  0  0  0  0  0  0  0
   39.1900   79.3010   57.6730 H   0  0  0  0  0  0  0  0  0  0  0  0
   41.9720   82.2080   61.4780 C   0  0  0  0  0  0  0  0  0  0  0  0
   40.8710   82.4520   60.6260 C   0  0  0  0  0  0  0  0  0  0  0  0
   39.8700   83.2880   61.0900 C   0  0  0  0  0  0  0  0  0  0  0  0
   39.9950   83.8290   62.3270 N   0  0  0  0  0  0  0  0  0  0  0  0
   41.0600   83.5760   63.1150 C   0  0  0  0  0  0  0  0  0  0  0  0
   42.0490   82.7660   62.6910 N   0  0  0  0  0  0  0  0  0  0  0  0
   42.7190   81.5530   61.0700 H   0  0  0  0  0  0  0  0  0  0  0  0
   38.9810   83.5410   60.5170 H   0  0  0  0  0  0  0  0  0  0  0  0
   41.0370   84.2510   64.4440 C   0  0  0  0  0  0  0  0  0  0  0  0
   40.7430   85.6020   64.3410 F   0  0  0  0  0  0  0  0  0  0  0  0
   40.1150   83.6480   65.2660 F   0  0  0  0  0  0  0  0  0  0  0  0
   42.3050   84.2310   65.0390 F   0  0  0  0  0  0  0  0  0  0  0  0
   41.5200   82.7470   55.8380 O   0  0  0  0  0  0  0  0  0  0  0  0
   42.5000   82.8720   52.7770 O   0  0  0  0  0  0  0  0  0  0  0  0
   42.8710   82.3270   53.8750 C   0  0  0  0  0  0  0  0  0  0  0  0
   42.8240   82.5710   55.3170 C   0  0  2  0  0  3  0  0  0  0  0  0
   43.4790   81.3510   55.9230 C   0  0  0  0  0  3  0  0  0  0  0  0
   44.1110   81.6220   56.8040 H   0  0  0  0  0  0  0  0  0  0  0  0
   44.3500   80.8350   54.8020 C   0  0  0  0  0  3  0  0  0  0  0  0
   44.5180   79.7470   54.9980 H   0  0  0  0  0  0  0  0  0  0  0  0
   43.5500   81.0770   53.6350 N   0  0  0  0  0  0  0  0  0  0  0  0
   43.5690   80.3730   52.8390 H   0  0  0  0  0  0  0  0  0  0  0  0
  2  1  1  0  0  0  0
  2  3  1  0  0  0  0
  3 12  1  0  0  0  0
  4  3  2  0  0  0  0
  4  9  1  0  0  0  0
  5  4  1  0  0  0  0
  6  8  1  0  0  0  0
  6  5  2  0  0  0  0
  7  6  1  0  0  0  0
  8  2  2  0  0  0  0
 10  5  1  0  0  0  0
 11 16  1  0  0  0  0
 12 13  1  0  0  0  0
 12 11  2  0  0  0  0
 13 14  2  0  0  0  0
 14 15  1  0  0  0  0
 15 19  1  0  0  0  0
 16 15  2  0  0  0  0
 17 11  1  0  0  0  0
 18 13  1  0  0  0  0
 19 22  1  0  0  0  0
 19 21  1  0  0  0  0
 20 19  1  0  0  0  0
 23  8  1  0  0  0  0
 24 25  2  0  0  0  0
 25 26  1  0  0  0  0
 26 23  1  1  0  0  0
 26 27  1  0  0  0  0
 27 28  1  0  0  0  0
 29 30  1  0  0  0  0
 29 27  1  0  0  0  0
 31 25  1  0  0  0  0
 31 29  1  0  0  0  0
 32 31  1  0  0  0  0
M  END
>  <minimizedAffinity>
-5.05686665

>  <minimizedRMSD>
0.228388235

$$$$
