
 OpenBabel03212520153D

 32 34  0  0  1  0  0  0  0  0999 V2000
   42.1620   84.1110   58.3570 Cl  0  0  0  0  0  0  0  0  0  0  0  0
   41.2400   82.6230   58.1860 C   0  0  0  0  0  0  0  0  0  0  0  0
   40.7040   81.9610   59.2600 C   0  0  0  0  0  0  0  0  0  0  0  0
   39.9980   80.8050   58.9630 C   0  0  0  0  0  0  0  0  0  0  0  0
   39.7960   80.2760   57.7010 C   0  0  0  0  0  0  0  0  0  0  0  0
   40.3590   80.9850   56.6590 C   0  0  0  0  0  0  0  0  0  0  0  0
   40.1480   80.4030   55.0180 Cl  0  0  0  0  0  0  0  0  0  0  0  0
   41.0830   82.1610   56.9050 C   0  0  0  0  0  0  0  0  0  0  0  0
   39.5610   80.2570   59.7860 H   0  0  0  0  0  0  0  0  0  0  0  0
   39.2270   79.3640   57.5810 H   0  0  0  0  0  0  0  0  0  0  0  0
   41.9740   82.2060   61.4500 C   0  0  0  0  0  0  0  0  0  0  0  0
   40.8950   82.4800   60.5780 C   0  0  0  0  0  0  0  0  0  0  0  0
   39.9060   83.3380   61.0260 C   0  0  0  0  0  0  0  0  0  0  0  0
   40.0190   83.8700   62.2680 N   0  0  0  0  0  0  0  0  0  0  0  0
   41.0630   83.5880   63.0750 C   0  0  0  0  0  0  0  0  0  0  0  0
   42.0400   82.7560   62.6660 N   0  0  0  0  0  0  0  0  0  0  0  0
   42.7130   81.5350   61.0530 H   0  0  0  0  0  0  0  0  0  0  0  0
   39.0350   83.6150   60.4380 H   0  0  0  0  0  0  0  0  0  0  0  0
   41.0300   84.2570   64.4070 C   0  0  0  0  0  0  0  0  0  0  0  0
   40.7460   85.6110   64.3070 F   0  0  0  0  0  0  0  0  0  0  0  0
   40.0960   83.6580   65.2160 F   0  0  0  0  0  0  0  0  0  0  0  0
   42.2910   84.2270   65.0160 F   0  0  0  0  0  0  0  0  0  0  0  0
   41.6100   82.8030   55.8010 O   0  0  0  0  0  0  0  0  0  0  0  0
   43.8190   80.6460   56.7020 O   0  0  0  0  0  0  0  0  0  0  0  0
   43.7810   81.7800   56.1090 C   0  0  0  0  0  0  0  0  0  0  0  0
   42.8920   82.5650   55.2510 C   0  0  2  0  0  3  0  0  0  0  0  0
   43.6310   83.8660   55.0390 C   0  0  0  0  0  3  0  0  0  0  0  0
   43.5010   84.2430   53.9940 H   0  0  0  0  0  0  0  0  0  0  0  0
   45.0730   83.4840   55.2730 C   0  0  0  0  0  3  0  0  0  0  0  0
   45.6130   84.4200   55.5600 H   0  0  0  0  0  0  0  0  0  0  0  0
   44.9850   82.5360   56.3480 N   0  0  0  0  0  0  0  0  0  0  0  0
   45.7430   82.5260   57.0930 H   0  0  0  0  0  0  0  0  0  0  0  0
  2  1  1  0  0  0  0
  2  3  1  0  0  0  0
  3 12  1  0  0  0  0
  4  3  2  0  0  0  0
  4  9  1  0  0  0  0
  5  4  1  0  0  0  0
  6  8  1  0  0  0  0
  6  5  2  0  0  0  0
  7  6  1  0  0  0  0
  8  2  2  0  0  0  0
 10  5  1  0  0  0  0
 11 16  1  0  0  0  0
 12 13  1  0  0  0  0
 12 11  2  0  0  0  0
 13 14  2  0  0  0  0
 14 15  1  0  0  0  0
 15 19  1  0  0  0  0
 16 15  2  0  0  0  0
 17 11  1  0  0  0  0
 18 13  1  0  0  0  0
 19 22  1  0  0  0  0
 19 21  1  0  0  0  0
 20 19  1  0  0  0  0
 23  8  1  0  0  0  0
 25 31  1  0  0  0  0
 25 24  2  0  0  0  0
 26 23  1  1  0  0  0
 26 25  1  0  0  0  0
 27 26  1  0  0  0  0
 27 29  1  0  0  0  0
 28 27  1  0  0  0  0
 29 30  1  0  0  0  0
 29 31  1  0  0  0  0
 31 32  1  0  0  0  0
M  END
>  <minimizedAffinity>
-5.06688118

>  <minimizedRMSD>
0.34990111

$$$$
