
 OpenBabel03212520153D

 32 34  0  0  1  0  0  0  0  0999 V2000
   42.1650   84.1150   58.3590 Cl  0  0  0  0  0  0  0  0  0  0  0  0
   41.2420   82.6270   58.1860 C   0  0  0  0  0  0  0  0  0  0  0  0
   40.7050   81.9650   59.2600 C   0  0  0  0  0  0  0  0  0  0  0  0
   40.0000   80.8090   58.9620 C   0  0  0  0  0  0  0  0  0  0  0  0
   39.7980   80.2810   57.7000 C   0  0  0  0  0  0  0  0  0  0  0  0
   40.3610   80.9900   56.6580 C   0  0  0  0  0  0  0  0  0  0  0  0
   40.1510   80.4090   55.0170 Cl  0  0  0  0  0  0  0  0  0  0  0  0
   41.0850   82.1660   56.9050 C   0  0  0  0  0  0  0  0  0  0  0  0
   39.5630   80.2600   59.7850 H   0  0  0  0  0  0  0  0  0  0  0  0
   39.2290   79.3690   57.5790 H   0  0  0  0  0  0  0  0  0  0  0  0
   41.9750   82.2100   61.4500 C   0  0  0  0  0  0  0  0  0  0  0  0
   40.8960   82.4830   60.5780 C   0  0  0  0  0  0  0  0  0  0  0  0
   39.9060   83.3400   61.0260 C   0  0  0  0  0  0  0  0  0  0  0  0
   40.0190   83.8710   62.2690 N   0  0  0  0  0  0  0  0  0  0  0  0
   41.0630   83.5900   63.0760 C   0  0  0  0  0  0  0  0  0  0  0  0
   42.0410   82.7590   62.6660 N   0  0  0  0  0  0  0  0  0  0  0  0
   42.7150   81.5390   61.0530 H   0  0  0  0  0  0  0  0  0  0  0  0
   39.0350   83.6160   60.4390 H   0  0  0  0  0  0  0  0  0  0  0  0
   41.0290   84.2580   64.4080 C   0  0  0  0  0  0  0  0  0  0  0  0
   40.7450   85.6110   64.3090 F   0  0  0  0  0  0  0  0  0  0  0  0
   40.0950   83.6580   65.2170 F   0  0  0  0  0  0  0  0  0  0  0  0
   42.2900   84.2280   65.0170 F   0  0  0  0  0  0  0  0  0  0  0  0
   41.6130   82.8080   55.8010 O   0  0  0  0  0  0  0  0  0  0  0  0
   43.8220   80.6510   56.7030 O   0  0  0  0  0  0  0  0  0  0  0  0
   43.7840   81.7850   56.1090 C   0  0  0  0  0  0  0  0  0  0  0  0
   42.8950   82.5700   55.2520 C   0  0  2  0  0  3  0  0  0  0  0  0
   43.6350   83.8700   55.0400 C   0  0  0  0  0  3  0  0  0  0  0  0
   43.5050   84.2480   53.9950 H   0  0  0  0  0  0  0  0  0  0  0  0
   45.0770   83.4880   55.2750 C   0  0  0  0  0  3  0  0  0  0  0  0
   45.6160   84.4240   55.5620 H   0  0  0  0  0  0  0  0  0  0  0  0
   44.9880   82.5410   56.3490 N   0  0  0  0  0  0  0  0  0  0  0  0
   45.7460   82.5300   57.0930 H   0  0  0  0  0  0  0  0  0  0  0  0
  2  1  1  0  0  0  0
  2  3  1  0  0  0  0
  3 12  1  0  0  0  0
  4  3  2  0  0  0  0
  4  9  1  0  0  0  0
  5  4  1  0  0  0  0
  6  8  1  0  0  0  0
  6  5  2  0  0  0  0
  7  6  1  0  0  0  0
  8  2  2  0  0  0  0
 10  5  1  0  0  0  0
 11 16  1  0  0  0  0
 12 13  1  0  0  0  0
 12 11  2  0  0  0  0
 13 14  2  0  0  0  0
 14 15  1  0  0  0  0
 15 19  1  0  0  0  0
 16 15  2  0  0  0  0
 17 11  1  0  0  0  0
 18 13  1  0  0  0  0
 19 22  1  0  0  0  0
 19 21  1  0  0  0  0
 20 19  1  0  0  0  0
 23  8  1  0  0  0  0
 25 31  1  0  0  0  0
 25 24  2  0  0  0  0
 26 23  1  1  0  0  0
 26 25  1  0  0  0  0
 27 26  1  0  0  0  0
 27 29  1  0  0  0  0
 28 27  1  0  0  0  0
 29 30  1  0  0  0  0
 29 31  1  0  0  0  0
 31 32  1  0  0  0  0
M  END
>  <minimizedAffinity>
-5.06666613

>  <minimizedRMSD>
0.164763197

$$$$
