
 OpenBabel03212520153D

 32 34  0  0  1  0  0  0  0  0999 V2000
   42.1900   83.8960   58.2910 Cl  0  0  0  0  0  0  0  0  0  0  0  0
   41.2100   82.4400   58.1610 C   0  0  0  0  0  0  0  0  0  0  0  0
   40.6540   81.8270   59.2540 C   0  0  0  0  0  0  0  0  0  0  0  0
   39.9030   80.6920   58.9880 C   0  0  0  0  0  0  0  0  0  0  0  0
   39.6750   80.1400   57.7420 C   0  0  0  0  0  0  0  0  0  0  0  0
   40.2600   80.8000   56.6790 C   0  0  0  0  0  0  0  0  0  0  0  0
   40.0190   80.1850   55.0550 Cl  0  0  0  0  0  0  0  0  0  0  0  0
   41.0290   81.9530   56.8930 C   0  0  0  0  0  0  0  0  0  0  0  0
   39.4500   80.1820   59.8270 H   0  0  0  0  0  0  0  0  0  0  0  0
   39.0710   79.2470   57.6470 H   0  0  0  0  0  0  0  0  0  0  0  0
   41.9740   82.1240   61.4070 C   0  0  0  0  0  0  0  0  0  0  0  0
   40.8720   82.3710   60.5570 C   0  0  0  0  0  0  0  0  0  0  0  0
   39.8850   83.2280   61.0130 C   0  0  0  0  0  0  0  0  0  0  0  0
   40.0230   83.7830   62.2430 N   0  0  0  0  0  0  0  0  0  0  0  0
   41.0880   83.5250   63.0290 C   0  0  0  0  0  0  0  0  0  0  0  0
   42.0630   82.6960   62.6120 N   0  0  0  0  0  0  0  0  0  0  0  0
   42.7100   81.4530   61.0050 H   0  0  0  0  0  0  0  0  0  0  0  0
   38.9970   83.4850   60.4420 H   0  0  0  0  0  0  0  0  0  0  0  0
   41.0800   84.2180   64.3490 C   0  0  0  0  0  0  0  0  0  0  0  0
   40.7990   85.5700   64.2300 F   0  0  0  0  0  0  0  0  0  0  0  0
   40.1580   83.6360   65.1850 F   0  0  0  0  0  0  0  0  0  0  0  0
   42.3510   84.1940   64.9370 F   0  0  0  0  0  0  0  0  0  0  0  0
   41.5760   82.5460   55.7700 O   0  0  0  0  0  0  0  0  0  0  0  0
   43.3930   84.9330   54.6110 O   0  0  0  0  0  0  0  0  0  0  0  0
   43.3750   83.6530   54.5900 C   0  0  0  0  0  0  0  0  0  0  0  0
   42.9470   82.5270   55.4210 C   0  0  2  0  0  3  0  0  0  0  0  0
   43.2660   81.3060   54.5880 C   0  0  0  0  0  3  0  0  0  0  0  0
   43.6480   80.4690   55.2210 H   0  0  0  0  0  0  0  0  0  0  0  0
   44.3600   81.7960   53.6670 C   0  0  0  0  0  3  0  0  0  0  0  0
   44.3470   81.1300   52.7680 H   0  0  0  0  0  0  0  0  0  0  0  0
   43.9560   83.1410   53.3730 N   0  0  0  0  0  0  0  0  0  0  0  0
   44.1240   83.5310   52.4000 H   0  0  0  0  0  0  0  0  0  0  0  0
  2  1  1  0  0  0  0
  2  3  1  0  0  0  0
  3 12  1  0  0  0  0
  4  3  2  0  0  0  0
  4  9  1  0  0  0  0
  5  4  1  0  0  0  0
  6  8  1  0  0  0  0
  6  5  2  0  0  0  0
  7  6  1  0  0  0  0
  8  2  2  0  0  0  0
 10  5  1  0  0  0  0
 11 16  1  0  0  0  0
 12 13  1  0  0  0  0
 12 11  2  0  0  0  0
 13 14  2  0  0  0  0
 14 15  1  0  0  0  0
 15 19  1  0  0  0  0
 16 15  2  0  0  0  0
 17 11  1  0  0  0  0
 18 13  1  0  0  0  0
 19 22  1  0  0  0  0
 19 21  1  0  0  0  0
 20 19  1  0  0  0  0
 23  8  1  0  0  0  0
 25 24  2  0  0  0  0
 25 26  1  0  0  0  0
 26 23  1  6  0  0  0
 27 28  1  0  0  0  0
 27 26  1  0  0  0  0
 29 27  1  0  0  0  0
 30 29  1  0  0  0  0
 31 29  1  0  0  0  0
 31 25  1  0  0  0  0
 32 31  1  0  0  0  0
M  END
>  <minimizedAffinity>
-5.27525091

>  <minimizedRMSD>
0.233850822

$$$$
