
 OpenBabel03212520153D

 32 34  0  0  1  0  0  0  0  0999 V2000
   42.1010   84.0530   58.3620 Cl  0  0  0  0  0  0  0  0  0  0  0  0
   41.1810   82.5600   58.2160 C   0  0  0  0  0  0  0  0  0  0  0  0
   40.6600   81.9070   59.3030 C   0  0  0  0  0  0  0  0  0  0  0  0
   39.9540   80.7460   59.0260 C   0  0  0  0  0  0  0  0  0  0  0  0
   39.7380   80.2060   57.7720 C   0  0  0  0  0  0  0  0  0  0  0  0
   40.2850   80.9060   56.7160 C   0  0  0  0  0  0  0  0  0  0  0  0
   40.0560   80.3080   55.0830 Cl  0  0  0  0  0  0  0  0  0  0  0  0
   41.0090   82.0870   56.9420 C   0  0  0  0  0  0  0  0  0  0  0  0
   39.5300   80.2050   59.8600 H   0  0  0  0  0  0  0  0  0  0  0  0
   39.1700   79.2910   57.6670 H   0  0  0  0  0  0  0  0  0  0  0  0
   41.9650   82.1890   61.4680 C   0  0  0  0  0  0  0  0  0  0  0  0
   40.8670   82.4390   60.6130 C   0  0  0  0  0  0  0  0  0  0  0  0
   39.8720   83.2860   61.0730 C   0  0  0  0  0  0  0  0  0  0  0  0
   40.0000   83.8280   62.3080 N   0  0  0  0  0  0  0  0  0  0  0  0
   41.0620   83.5690   63.0990 C   0  0  0  0  0  0  0  0  0  0  0  0
   42.0440   82.7490   62.6790 N   0  0  0  0  0  0  0  0  0  0  0  0
   42.7070   81.5260   61.0630 H   0  0  0  0  0  0  0  0  0  0  0  0
   38.9870   83.5440   60.4980 H   0  0  0  0  0  0  0  0  0  0  0  0
   41.0420   84.2480   64.4260 C   0  0  0  0  0  0  0  0  0  0  0  0
   40.7550   85.6000   64.3190 F   0  0  0  0  0  0  0  0  0  0  0  0
   40.1170   83.6530   65.2500 F   0  0  0  0  0  0  0  0  0  0  0  0
   42.3100   84.2230   65.0220 F   0  0  0  0  0  0  0  0  0  0  0  0
   41.5210   82.7190   55.8250 O   0  0  0  0  0  0  0  0  0  0  0  0
   44.5710   82.2780   56.7470 O   0  0  0  0  0  0  0  0  0  0  0  0
   43.9270   82.5220   55.6670 C   0  0  0  0  0  0  0  0  0  0  0  0
   42.6210   82.2650   55.0600 C   0  0  2  0  0  3  0  0  0  0  0  0
   42.6780   82.9840   53.7310 C   0  0  0  0  0  3  0  0  0  0  0  0
   42.1670   82.3980   52.9280 H   0  0  0  0  0  0  0  0  0  0  0  0
   44.1610   83.0630   53.4480 C   0  0  0  0  0  3  0  0  0  0  0  0
   44.3100   83.9220   52.7470 H   0  0  0  0  0  0  0  0  0  0  0  0
   44.7250   83.2950   54.7460 N   0  0  0  0  0  0  0  0  0  0  0  0
   45.5670   83.9360   54.8380 H   0  0  0  0  0  0  0  0  0  0  0  0
  2  1  1  0  0  0  0
  2  3  1  0  0  0  0
  3 12  1  0  0  0  0
  4  3  2  0  0  0  0
  4  9  1  0  0  0  0
  5  4  1  0  0  0  0
  6  8  1  0  0  0  0
  6  5  2  0  0  0  0
  7  6  1  0  0  0  0
  8  2  2  0  0  0  0
 10  5  1  0  0  0  0
 11 16  1  0  0  0  0
 12 13  1  0  0  0  0
 12 11  2  0  0  0  0
 13 14  2  0  0  0  0
 14 15  1  0  0  0  0
 15 19  1  0  0  0  0
 16 15  2  0  0  0  0
 17 11  1  0  0  0  0
 18 13  1  0  0  0  0
 19 22  1  0  0  0  0
 19 21  1  0  0  0  0
 20 19  1  0  0  0  0
 23  8  1  0  0  0  0
 25 24  2  0  0  0  0
 26 25  1  0  0  0  0
 26 23  1  1  0  0  0
 27 26  1  0  0  0  0
 28 27  1  0  0  0  0
 29 27  1  0  0  0  0
 29 31  1  0  0  0  0
 30 29  1  0  0  0  0
 31 32  1  0  0  0  0
 31 25  1  0  0  0  0
M  END
>  <minimizedAffinity>
-5.11691713

>  <minimizedRMSD>
0.360595137

$$$$
