
 OpenBabel03212520153D

 32 34  0  0  1  0  0  0  0  0999 V2000
   42.0980   84.0840   58.3800 Cl  0  0  0  0  0  0  0  0  0  0  0  0
   41.1870   82.5860   58.2300 C   0  0  0  0  0  0  0  0  0  0  0  0
   40.6690   81.9280   59.3150 C   0  0  0  0  0  0  0  0  0  0  0  0
   39.9700   80.7630   59.0340 C   0  0  0  0  0  0  0  0  0  0  0  0
   39.7580   80.2240   57.7790 C   0  0  0  0  0  0  0  0  0  0  0  0
   40.3030   80.9300   56.7250 C   0  0  0  0  0  0  0  0  0  0  0  0
   40.0780   80.3340   55.0910 Cl  0  0  0  0  0  0  0  0  0  0  0  0
   41.0190   82.1140   56.9540 C   0  0  0  0  0  0  0  0  0  0  0  0
   39.5480   80.2170   59.8670 H   0  0  0  0  0  0  0  0  0  0  0  0
   39.1960   79.3060   57.6720 H   0  0  0  0  0  0  0  0  0  0  0  0
   41.9740   82.2190   61.4790 C   0  0  0  0  0  0  0  0  0  0  0  0
   40.8710   82.4580   60.6270 C   0  0  0  0  0  0  0  0  0  0  0  0
   39.8660   83.2890   61.0910 C   0  0  0  0  0  0  0  0  0  0  0  0
   39.9880   83.8290   62.3280 N   0  0  0  0  0  0  0  0  0  0  0  0
   41.0550   83.5820   63.1160 C   0  0  0  0  0  0  0  0  0  0  0  0
   42.0480   82.7770   62.6910 N   0  0  0  0  0  0  0  0  0  0  0  0
   42.7240   81.5680   61.0700 H   0  0  0  0  0  0  0  0  0  0  0  0
   38.9760   83.5370   60.5190 H   0  0  0  0  0  0  0  0  0  0  0  0
   41.0290   84.2560   64.4450 C   0  0  0  0  0  0  0  0  0  0  0  0
   40.7370   85.6070   64.3420 F   0  0  0  0  0  0  0  0  0  0  0  0
   40.1040   83.6540   65.2640 F   0  0  0  0  0  0  0  0  0  0  0  0
   42.2950   84.2340   65.0450 F   0  0  0  0  0  0  0  0  0  0  0  0
   41.5280   82.7520   55.8390 O   0  0  0  0  0  0  0  0  0  0  0  0
   44.6100   82.4960   56.7260 O   0  0  0  0  0  0  0  0  0  0  0  0
   43.9390   82.6560   55.6470 C   0  0  0  0  0  0  0  0  0  0  0  0
   42.6350   82.3100   55.0780 C   0  0  2  0  0  3  0  0  0  0  0  0
   42.6380   82.9610   53.7140 C   0  0  0  0  0  3  0  0  0  0  0  0
   42.1410   82.3120   52.9520 H   0  0  0  0  0  0  0  0  0  0  0  0
   44.1100   83.0920   53.4000 C   0  0  0  0  0  3  0  0  0  0  0  0
   44.2080   83.9180   52.6530 H   0  0  0  0  0  0  0  0  0  0  0  0
   44.6850   83.4150   54.6730 N   0  0  0  0  0  0  0  0  0  0  0  0
   45.4980   84.0980   54.7170 H   0  0  0  0  0  0  0  0  0  0  0  0
  2  1  1  0  0  0  0
  2  3  1  0  0  0  0
  3 12  1  0  0  0  0
  4  3  2  0  0  0  0
  4  9  1  0  0  0  0
  5  4  1  0  0  0  0
  6  8  1  0  0  0  0
  6  5  2  0  0  0  0
  7  6  1  0  0  0  0
  8  2  2  0  0  0  0
 10  5  1  0  0  0  0
 11 16  1  0  0  0  0
 12 13  1  0  0  0  0
 12 11  2  0  0  0  0
 13 14  2  0  0  0  0
 14 15  1  0  0  0  0
 15 19  1  0  0  0  0
 16 15  2  0  0  0  0
 17 11  1  0  0  0  0
 18 13  1  0  0  0  0
 19 22  1  0  0  0  0
 19 21  1  0  0  0  0
 20 19  1  0  0  0  0
 23  8  1  0  0  0  0
 25 24  2  0  0  0  0
 26 25  1  0  0  0  0
 26 23  1  1  0  0  0
 27 26  1  0  0  0  0
 28 27  1  0  0  0  0
 29 27  1  0  0  0  0
 29 31  1  0  0  0  0
 30 29  1  0  0  0  0
 31 32  1  0  0  0  0
 31 25  1  0  0  0  0
M  END
>  <minimizedAffinity>
-5.12422705

>  <minimizedRMSD>
0.635227203

$$$$
