
 OpenBabel03212520153D

 32 34  0  0  1  0  0  0  0  0999 V2000
   42.1620   84.1120   58.3590 Cl  0  0  0  0  0  0  0  0  0  0  0  0
   41.2400   82.6240   58.1870 C   0  0  0  0  0  0  0  0  0  0  0  0
   40.7040   81.9620   59.2610 C   0  0  0  0  0  0  0  0  0  0  0  0
   39.9980   80.8060   58.9640 C   0  0  0  0  0  0  0  0  0  0  0  0
   39.7970   80.2770   57.7020 C   0  0  0  0  0  0  0  0  0  0  0  0
   40.3590   80.9860   56.6600 C   0  0  0  0  0  0  0  0  0  0  0  0
   40.1490   80.4050   55.0190 Cl  0  0  0  0  0  0  0  0  0  0  0  0
   41.0830   82.1630   56.9060 C   0  0  0  0  0  0  0  0  0  0  0  0
   39.5620   80.2570   59.7870 H   0  0  0  0  0  0  0  0  0  0  0  0
   39.2280   79.3650   57.5810 H   0  0  0  0  0  0  0  0  0  0  0  0
   41.9730   82.2070   61.4510 C   0  0  0  0  0  0  0  0  0  0  0  0
   40.8950   82.4810   60.5790 C   0  0  0  0  0  0  0  0  0  0  0  0
   39.9050   83.3390   61.0270 C   0  0  0  0  0  0  0  0  0  0  0  0
   40.0190   83.8710   62.2690 N   0  0  0  0  0  0  0  0  0  0  0  0
   41.0620   83.5890   63.0760 C   0  0  0  0  0  0  0  0  0  0  0  0
   42.0390   82.7570   62.6670 N   0  0  0  0  0  0  0  0  0  0  0  0
   42.7120   81.5360   61.0550 H   0  0  0  0  0  0  0  0  0  0  0  0
   39.0350   83.6160   60.4390 H   0  0  0  0  0  0  0  0  0  0  0  0
   41.0290   84.2580   64.4080 C   0  0  0  0  0  0  0  0  0  0  0  0
   40.7450   85.6110   64.3080 F   0  0  0  0  0  0  0  0  0  0  0  0
   40.0950   83.6580   65.2170 F   0  0  0  0  0  0  0  0  0  0  0  0
   42.2900   84.2270   65.0170 F   0  0  0  0  0  0  0  0  0  0  0  0
   41.6110   82.8050   55.8020 O   0  0  0  0  0  0  0  0  0  0  0  0
   43.8200   80.6480   56.7040 O   0  0  0  0  0  0  0  0  0  0  0  0
   43.7820   81.7820   56.1100 C   0  0  0  0  0  0  0  0  0  0  0  0
   42.8920   82.5660   55.2520 C   0  0  2  0  0  3  0  0  0  0  0  0
   43.6320   83.8670   55.0400 C   0  0  0  0  0  3  0  0  0  0  0  0
   43.5010   84.2440   53.9950 H   0  0  0  0  0  0  0  0  0  0  0  0
   45.0740   83.4850   55.2740 C   0  0  0  0  0  3  0  0  0  0  0  0
   45.6140   84.4210   55.5610 H   0  0  0  0  0  0  0  0  0  0  0  0
   44.9860   82.5380   56.3490 N   0  0  0  0  0  0  0  0  0  0  0  0
   45.7440   82.5280   57.0930 H   0  0  0  0  0  0  0  0  0  0  0  0
  2  1  1  0  0  0  0
  2  3  1  0  0  0  0
  3 12  1  0  0  0  0
  4  3  2  0  0  0  0
  4  9  1  0  0  0  0
  5  4  1  0  0  0  0
  6  8  1  0  0  0  0
  6  5  2  0  0  0  0
  7  6  1  0  0  0  0
  8  2  2  0  0  0  0
 10  5  1  0  0  0  0
 11 16  1  0  0  0  0
 12 13  1  0  0  0  0
 12 11  2  0  0  0  0
 13 14  2  0  0  0  0
 14 15  1  0  0  0  0
 15 19  1  0  0  0  0
 16 15  2  0  0  0  0
 17 11  1  0  0  0  0
 18 13  1  0  0  0  0
 19 22  1  0  0  0  0
 19 21  1  0  0  0  0
 20 19  1  0  0  0  0
 23  8  1  0  0  0  0
 25 31  1  0  0  0  0
 25 24  2  0  0  0  0
 26 23  1  1  0  0  0
 26 25  1  0  0  0  0
 27 26  1  0  0  0  0
 27 29  1  0  0  0  0
 28 27  1  0  0  0  0
 29 30  1  0  0  0  0
 29 31  1  0  0  0  0
 31 32  1  0  0  0  0
M  END
>  <minimizedAffinity>
-5.06644297

>  <minimizedRMSD>
0.544231474

$$$$
