
 OpenBabel03212520153D

 32 34  0  0  1  0  0  0  0  0999 V2000
   42.0920   84.1020   58.3880 Cl  0  0  0  0  0  0  0  0  0  0  0  0
   41.1930   82.5970   58.2360 C   0  0  0  0  0  0  0  0  0  0  0  0
   40.6810   81.9330   59.3210 C   0  0  0  0  0  0  0  0  0  0  0  0
   39.9920   80.7630   59.0380 C   0  0  0  0  0  0  0  0  0  0  0  0
   39.7840   80.2240   57.7830 C   0  0  0  0  0  0  0  0  0  0  0  0
   40.3210   80.9360   56.7290 C   0  0  0  0  0  0  0  0  0  0  0  0
   40.1000   80.3410   55.0950 Cl  0  0  0  0  0  0  0  0  0  0  0  0
   41.0280   82.1260   56.9600 C   0  0  0  0  0  0  0  0  0  0  0  0
   39.5750   80.2120   59.8700 H   0  0  0  0  0  0  0  0  0  0  0  0
   39.2290   79.3010   57.6740 H   0  0  0  0  0  0  0  0  0  0  0  0
   41.9860   82.2310   61.4830 C   0  0  0  0  0  0  0  0  0  0  0  0
   40.8800   82.4620   60.6330 C   0  0  0  0  0  0  0  0  0  0  0  0
   39.8690   83.2850   61.0990 C   0  0  0  0  0  0  0  0  0  0  0  0
   39.9880   83.8240   62.3370 N   0  0  0  0  0  0  0  0  0  0  0  0
   41.0580   83.5840   63.1230 C   0  0  0  0  0  0  0  0  0  0  0  0
   42.0570   82.7870   62.6960 N   0  0  0  0  0  0  0  0  0  0  0  0
   42.7410   81.5870   61.0730 H   0  0  0  0  0  0  0  0  0  0  0  0
   38.9770   83.5270   60.5280 H   0  0  0  0  0  0  0  0  0  0  0  0
   41.0280   84.2560   64.4540 C   0  0  0  0  0  0  0  0  0  0  0  0
   40.7300   85.6060   64.3530 F   0  0  0  0  0  0  0  0  0  0  0  0
   40.1050   83.6490   65.2710 F   0  0  0  0  0  0  0  0  0  0  0  0
   42.2930   84.2390   65.0540 F   0  0  0  0  0  0  0  0  0  0  0  0
   41.5300   82.7700   55.8450 O   0  0  0  0  0  0  0  0  0  0  0  0
   42.6550   83.2720   52.8740 O   0  0  0  0  0  0  0  0  0  0  0  0
   42.9790   82.6010   53.9150 C   0  0  0  0  0  0  0  0  0  0  0  0
   42.8600   82.6690   55.3720 C   0  0  2  0  0  3  0  0  0  0  0  0
   43.5010   81.3890   55.8580 C   0  0  0  0  0  3  0  0  0  0  0  0
   44.0860   81.5570   56.7950 H   0  0  0  0  0  0  0  0  0  0  0  0
   44.4320   81.0200   54.7270 C   0  0  0  0  0  3  0  0  0  0  0  0
   44.6070   79.9180   54.7990 H   0  0  0  0  0  0  0  0  0  0  0  0
   43.6870   81.3950   53.5600 N   0  0  0  0  0  0  0  0  0  0  0  0
   43.7540   80.7940   52.6870 H   0  0  0  0  0  0  0  0  0  0  0  0
  2  1  1  0  0  0  0
  2  3  1  0  0  0  0
  3 12  1  0  0  0  0
  4  3  2  0  0  0  0
  4  9  1  0  0  0  0
  5  4  1  0  0  0  0
  6  8  1  0  0  0  0
  6  5  2  0  0  0  0
  7  6  1  0  0  0  0
  8  2  2  0  0  0  0
 10  5  1  0  0  0  0
 11 16  1  0  0  0  0
 12 13  1  0  0  0  0
 12 11  2  0  0  0  0
 13 14  2  0  0  0  0
 14 15  1  0  0  0  0
 15 19  1  0  0  0  0
 16 15  2  0  0  0  0
 17 11  1  0  0  0  0
 18 13  1  0  0  0  0
 19 22  1  0  0  0  0
 19 21  1  0  0  0  0
 20 19  1  0  0  0  0
 23  8  1  0  0  0  0
 24 25  2  0  0  0  0
 25 26  1  0  0  0  0
 26 23  1  6  0  0  0
 26 27  1  0  0  0  0
 27 28  1  0  0  0  0
 29 30  1  0  0  0  0
 29 27  1  0  0  0  0
 31 25  1  0  0  0  0
 31 29  1  0  0  0  0
 32 31  1  0  0  0  0
M  END
>  <minimizedAffinity>
-5.06195879

>  <minimizedRMSD>
0.321823925

$$$$
