
 OpenBabel03212520153D

 32 34  0  0  1  0  0  0  0  0999 V2000
   42.0950   84.0770   58.3770 Cl  0  0  0  0  0  0  0  0  0  0  0  0
   41.1830   82.5800   58.2270 C   0  0  0  0  0  0  0  0  0  0  0  0
   40.6660   81.9210   59.3120 C   0  0  0  0  0  0  0  0  0  0  0  0
   39.9670   80.7570   59.0320 C   0  0  0  0  0  0  0  0  0  0  0  0
   39.7530   80.2190   57.7760 C   0  0  0  0  0  0  0  0  0  0  0  0
   40.2960   80.9250   56.7220 C   0  0  0  0  0  0  0  0  0  0  0  0
   40.0690   80.3310   55.0880 Cl  0  0  0  0  0  0  0  0  0  0  0  0
   41.0130   82.1090   56.9510 C   0  0  0  0  0  0  0  0  0  0  0  0
   39.5450   80.2100   59.8640 H   0  0  0  0  0  0  0  0  0  0  0  0
   39.1900   79.3010   57.6690 H   0  0  0  0  0  0  0  0  0  0  0  0
   41.9670   82.1980   61.4800 C   0  0  0  0  0  0  0  0  0  0  0  0
   40.8700   82.4500   60.6240 C   0  0  0  0  0  0  0  0  0  0  0  0
   39.8750   83.2950   61.0830 C   0  0  0  0  0  0  0  0  0  0  0  0
   40.0000   83.8350   62.3200 N   0  0  0  0  0  0  0  0  0  0  0  0
   41.0600   83.5740   63.1120 C   0  0  0  0  0  0  0  0  0  0  0  0
   42.0440   82.7560   62.6920 N   0  0  0  0  0  0  0  0  0  0  0  0
   42.7100   81.5360   61.0750 H   0  0  0  0  0  0  0  0  0  0  0  0
   38.9900   83.5540   60.5080 H   0  0  0  0  0  0  0  0  0  0  0  0
   41.0380   84.2500   64.4410 C   0  0  0  0  0  0  0  0  0  0  0  0
   40.7440   85.6010   64.3370 F   0  0  0  0  0  0  0  0  0  0  0  0
   40.1170   83.6490   65.2640 F   0  0  0  0  0  0  0  0  0  0  0  0
   42.3060   84.2310   65.0360 F   0  0  0  0  0  0  0  0  0  0  0  0
   41.5210   82.7480   55.8360 O   0  0  0  0  0  0  0  0  0  0  0  0
   42.5010   82.8740   52.7750 O   0  0  0  0  0  0  0  0  0  0  0  0
   42.8710   82.3280   53.8720 C   0  0  0  0  0  0  0  0  0  0  0  0
   42.8250   82.5710   55.3150 C   0  0  2  0  0  3  0  0  0  0  0  0
   43.4790   81.3500   55.9200 C   0  0  0  0  0  3  0  0  0  0  0  0
   44.1120   81.6220   56.8010 H   0  0  0  0  0  0  0  0  0  0  0  0
   44.3500   80.8360   54.7990 C   0  0  0  0  0  3  0  0  0  0  0  0
   44.5200   79.7480   54.9940 H   0  0  0  0  0  0  0  0  0  0  0  0
   43.5510   81.0790   53.6320 N   0  0  0  0  0  0  0  0  0  0  0  0
   43.5700   80.3760   52.8360 H   0  0  0  0  0  0  0  0  0  0  0  0
  2  1  1  0  0  0  0
  2  3  1  0  0  0  0
  3 12  1  0  0  0  0
  4  3  2  0  0  0  0
  4  9  1  0  0  0  0
  5  4  1  0  0  0  0
  6  8  1  0  0  0  0
  6  5  2  0  0  0  0
  7  6  1  0  0  0  0
  8  2  2  0  0  0  0
 10  5  1  0  0  0  0
 11 16  1  0  0  0  0
 12 13  1  0  0  0  0
 12 11  2  0  0  0  0
 13 14  2  0  0  0  0
 14 15  1  0  0  0  0
 15 19  1  0  0  0  0
 16 15  2  0  0  0  0
 17 11  1  0  0  0  0
 18 13  1  0  0  0  0
 19 22  1  0  0  0  0
 19 21  1  0  0  0  0
 20 19  1  0  0  0  0
 23  8  1  0  0  0  0
 24 25  2  0  0  0  0
 25 26  1  0  0  0  0
 26 23  1  1  0  0  0
 26 27  1  0  0  0  0
 27 28  1  0  0  0  0
 29 30  1  0  0  0  0
 29 27  1  0  0  0  0
 31 25  1  0  0  0  0
 31 29  1  0  0  0  0
 32 31  1  0  0  0  0
M  END
>  <minimizedAffinity>
-5.05765533

>  <minimizedRMSD>
0.458413303

$$$$
