
 OpenBabel03212520153D

 32 34  0  0  1  0  0  0  0  0999 V2000
   42.0990   84.0820   58.3810 Cl  0  0  0  0  0  0  0  0  0  0  0  0
   41.1860   82.5850   58.2300 C   0  0  0  0  0  0  0  0  0  0  0  0
   40.6680   81.9270   59.3150 C   0  0  0  0  0  0  0  0  0  0  0  0
   39.9680   80.7630   59.0330 C   0  0  0  0  0  0  0  0  0  0  0  0
   39.7560   80.2240   57.7770 C   0  0  0  0  0  0  0  0  0  0  0  0
   40.3020   80.9310   56.7240 C   0  0  0  0  0  0  0  0  0  0  0  0
   40.0780   80.3360   55.0890 Cl  0  0  0  0  0  0  0  0  0  0  0  0
   41.0190   82.1140   56.9540 C   0  0  0  0  0  0  0  0  0  0  0  0
   39.5450   80.2170   59.8640 H   0  0  0  0  0  0  0  0  0  0  0  0
   39.1940   79.3070   57.6690 H   0  0  0  0  0  0  0  0  0  0  0  0
   41.9670   82.2080   61.4830 C   0  0  0  0  0  0  0  0  0  0  0  0
   40.8690   82.4560   60.6270 C   0  0  0  0  0  0  0  0  0  0  0  0
   39.8700   83.2960   61.0860 C   0  0  0  0  0  0  0  0  0  0  0  0
   39.9930   83.8360   62.3240 N   0  0  0  0  0  0  0  0  0  0  0  0
   41.0550   83.5800   63.1160 C   0  0  0  0  0  0  0  0  0  0  0  0
   42.0420   82.7660   62.6950 N   0  0  0  0  0  0  0  0  0  0  0  0
   42.7130   81.5500   61.0770 H   0  0  0  0  0  0  0  0  0  0  0  0
   38.9850   83.5520   60.5110 H   0  0  0  0  0  0  0  0  0  0  0  0
   41.0290   84.2550   64.4440 C   0  0  0  0  0  0  0  0  0  0  0  0
   40.7370   85.6060   64.3410 F   0  0  0  0  0  0  0  0  0  0  0  0
   40.1050   83.6540   65.2640 F   0  0  0  0  0  0  0  0  0  0  0  0
   42.2960   84.2340   65.0430 F   0  0  0  0  0  0  0  0  0  0  0  0
   41.5290   82.7530   55.8400 O   0  0  0  0  0  0  0  0  0  0  0  0
   44.6110   82.4960   56.7250 O   0  0  0  0  0  0  0  0  0  0  0  0
   43.9390   82.6560   55.6460 C   0  0  0  0  0  0  0  0  0  0  0  0
   42.6360   82.3100   55.0780 C   0  0  2  0  0  3  0  0  0  0  0  0
   42.6380   82.9600   53.7140 C   0  0  0  0  0  3  0  0  0  0  0  0
   42.1400   82.3110   52.9510 H   0  0  0  0  0  0  0  0  0  0  0  0
   44.1090   83.0900   53.3990 C   0  0  0  0  0  3  0  0  0  0  0  0
   44.2080   83.9180   52.6510 H   0  0  0  0  0  0  0  0  0  0  0  0
   44.6850   83.4140   54.6720 N   0  0  0  0  0  0  0  0  0  0  0  0
   45.4980   84.0970   54.7140 H   0  0  0  0  0  0  0  0  0  0  0  0
  2  1  1  0  0  0  0
  2  3  1  0  0  0  0
  3 12  1  0  0  0  0
  4  3  2  0  0  0  0
  4  9  1  0  0  0  0
  5  4  1  0  0  0  0
  6  8  1  0  0  0  0
  6  5  2  0  0  0  0
  7  6  1  0  0  0  0
  8  2  2  0  0  0  0
 10  5  1  0  0  0  0
 11 16  1  0  0  0  0
 12 13  1  0  0  0  0
 12 11  2  0  0  0  0
 13 14  2  0  0  0  0
 14 15  1  0  0  0  0
 15 19  1  0  0  0  0
 16 15  2  0  0  0  0
 17 11  1  0  0  0  0
 18 13  1  0  0  0  0
 19 22  1  0  0  0  0
 19 21  1  0  0  0  0
 20 19  1  0  0  0  0
 23  8  1  0  0  0  0
 25 24  2  0  0  0  0
 26 25  1  0  0  0  0
 26 23  1  1  0  0  0
 27 26  1  0  0  0  0
 28 27  1  0  0  0  0
 29 27  1  0  0  0  0
 29 31  1  0  0  0  0
 30 29  1  0  0  0  0
 31 32  1  0  0  0  0
 31 25  1  0  0  0  0
M  END
>  <minimizedAffinity>
-5.12671328

>  <minimizedRMSD>
0.361435175

$$$$
