
 OpenBabel03212521033D

 23 24  0  0  0  0  0  0  0  0999 V2000
   42.0610   84.2510   61.8310 C   0  0  0  0  0  0  0  0  0  0  0  0
   42.4450   84.6570   63.1180 C   0  0  0  0  0  0  0  0  0  0  0  0
   41.6930   84.3930   64.2300 C   0  0  0  0  0  0  0  0  0  0  0  0
   40.4870   83.6840   64.0660 C   0  0  0  0  0  0  0  0  0  0  0  0
   40.1040   83.2820   62.7930 C   0  0  0  0  0  0  0  0  0  0  0  0
   40.8810   83.5610   61.6880 C   0  0  0  0  0  0  0  0  0  0  0  0
   43.3870   85.2020   63.1910 H   0  0  0  0  0  0  0  0  0  0  0  0
   42.0520   84.7340   65.1730 H   0  0  0  0  0  0  0  0  0  0  0  0
   39.9460   83.5120   64.9850 H   0  0  0  0  0  0  0  0  0  0  0  0
   39.1780   82.7650   62.8550 H   0  0  0  0  0  0  0  0  0  0  0  0
   44.7110   84.0190   59.3260 C   0  0  0  0  0  0  0  0  0  0  0  0
   44.5250   85.2030   58.5820 C   0  0  0  0  0  0  0  0  0  0  0  0
   43.4890   86.0720   58.9400 C   0  0  0  0  0  0  0  0  0  0  0  0
   42.7290   85.7110   59.9920 N   0  0  0  0  0  0  0  0  0  0  0  0
   42.9220   84.5580   60.7050 C   0  0  0  0  0  0  0  0  0  0  0  0
   43.9030   83.7290   60.3700 N   0  0  0  0  0  0  0  0  0  0  0  0
   45.5080   83.3250   59.0710 H   0  0  0  0  0  0  0  0  0  0  0  0
   45.1670   85.4410   57.7460 H   0  0  0  0  0  0  0  0  0  0  0  0
   43.2960   86.9930   58.4090 H   0  0  0  0  0  0  0  0  0  0  0  0
   40.3670   83.1080   60.4190 C   0  0  0  0  0  3  0  0  0  0  0  0
   40.4960   81.8740   59.9610 C   0  0  0  0  0  3  0  0  0  0  0  0
   40.0500   81.2370   58.7200 C   0  0  0  0  0  2  0  0  0  0  0  0
   40.8100   80.7260   58.1310 H   0  0  0  0  0  0  0  0  0  0  0  0
  1  2  1  0  0  0  0
  2  7  1  0  0  0  0
  2  3  2  0  0  0  0
  3  8  1  0  0  0  0
  4  3  1  0  0  0  0
  4  9  1  0  0  0  0
  5 10  1  0  0  0  0
  5  4  2  0  0  0  0
  6  1  2  0  0  0  0
  6  5  1  0  0  0  0
 11 16  1  0  0  0  0
 12 13  1  0  0  0  0
 12 11  2  0  0  0  0
 13 14  2  0  0  0  0
 14 15  1  0  0  0  0
 15  1  1  0  0  0  0
 16 15  2  0  0  0  0
 17 11  1  0  0  0  0
 18 12  1  0  0  0  0
 19 13  1  0  0  0  0
 20  6  1  0  0  0  0
 21 20  2  0  0  0  0
 22 21  1  0  0  0  0
 23 22  1  0  0  0  0
M  END
>  <minimizedAffinity>
-4.44625998

>  <minimizedRMSD>
1.22090125

$$$$
