
 OpenBabel03212520083D

 13 13  0  0  0  0  0  0  0  0999 V2000
   40.0550   81.9810   60.6210 C   0  0  0  0  0  0  0  0  0  0  0  0
   40.1110   82.9110   59.5710 C   0  0  0  0  0  0  0  0  0  0  0  0
   39.5530   84.1750   59.7700 C   0  0  0  0  0  0  0  0  0  0  0  0
   38.9750   84.4530   60.9780 N   0  0  0  0  0  0  0  0  0  0  0  0
   38.9400   83.5280   61.9700 C   0  0  0  0  0  0  0  0  0  0  0  0
   39.4760   82.3160   61.7770 N   0  0  0  0  0  0  0  0  0  0  0  0
   40.4930   81.0170   60.4390 H   0  0  0  0  0  0  0  0  0  0  0  0
   39.5510   84.9350   59.0320 H   0  0  0  0  0  0  0  0  0  0  0  0
   38.4600   83.8490   62.8870 H   0  0  0  0  0  0  0  0  0  0  0  0
   40.7330   82.5910   58.2880 C   0  0  0  0  0  3  0  0  0  0  0  0
   41.4760   83.4060   57.5610 C   0  0  0  0  0  3  0  0  0  0  0  0
   42.0710   82.9870   56.2590 C   0  0  0  0  0  2  0  0  0  0  0  0
   42.3170   83.8480   55.6330 H   0  0  0  0  0  0  0  0  0  0  0  0
  1  6  1  0  0  0  0
  2  3  1  0  0  0  0
  2  1  2  0  0  0  0
  3  4  2  0  0  0  0
  4  5  1  0  0  0  0
  5  9  1  0  0  0  0
  6  5  2  0  0  0  0
  7  1  1  0  0  0  0
  8  3  1  0  0  0  0
 10  2  1  0  0  0  0
 11 10  2  0  0  0  0
 12 11  1  0  0  0  0
 13 12  1  0  0  0  0
M  END
>  <minimizedAffinity>
-3.72454047

>  <minimizedRMSD>
0.530156255

$$$$
