
 OpenBabel03212520563D

 30 32  0  0  0  0  0  0  0  0999 V2000
   40.8940   80.2380   61.6850 C   0  0  0  0  0  0  0  0  0  0  0  0
   40.8260   79.0200   62.3350 C   0  0  0  0  0  0  0  0  0  0  0  0
   40.4610   77.9470   61.6090 C   0  0  0  0  0  0  0  0  0  0  0  0
   40.1690   78.0850   60.2600 C   0  0  0  0  0  0  0  0  0  0  0  0
   40.4280   79.8940   59.9670 S   0  0  0  0  0  0  0  0  0  0  0  0
   41.0530   78.9090   63.3880 H   0  0  0  0  0  0  0  0  0  0  0  0
   40.3470   76.9180   61.9200 H   0  0  0  0  0  0  0  0  0  0  0  0
   42.9490   83.0500   62.8380 C   0  0  0  0  0  0  0  0  0  0  0  0
   42.0260   83.8550   63.5530 C   0  0  0  0  0  0  0  0  0  0  0  0
   40.7200   83.4200   63.6260 C   0  0  0  0  0  0  0  0  0  0  0  0
   40.3790   82.2620   63.0220 N   0  0  0  0  0  0  0  0  0  0  0  0
   41.2820   81.5170   62.3470 C   0  0  0  0  0  0  0  0  0  0  0  0
   42.5440   81.9060   62.2580 N   0  0  0  0  0  0  0  0  0  0  0  0
   43.9720   83.3870   62.7790 H   0  0  0  0  0  0  0  0  0  0  0  0
   42.3030   84.7810   64.0360 H   0  0  0  0  0  0  0  0  0  0  0  0
   39.9340   83.9420   64.1380 H   0  0  0  0  0  0  0  0  0  0  0  0
   39.7580   77.2270   59.1790 C   0  0  0  0  0  0  0  0  0  0  0  0
   40.4630   76.0740   58.9550 C   0  0  0  0  0  0  0  0  0  0  0  0
   39.9520   75.3390   57.8750 C   0  0  0  0  0  0  0  0  0  0  0  0
   38.8860   75.7120   57.1310 N   0  0  0  0  0  0  0  0  0  0  0  0
   38.2590   76.8730   57.4390 C   0  0  0  0  0  0  0  0  0  0  0  0
   38.7000   77.6370   58.4730 N   0  0  0  0  0  0  0  0  0  0  0  0
   41.3110   75.7270   59.5080 H   0  0  0  0  0  0  0  0  0  0  0  0
   40.4060   74.3980   57.5730 H   0  0  0  0  0  0  0  0  0  0  0  0
   37.1180   77.2760   56.6440 C   0  0  0  0  0  0  0  0  0  0  0  0
   35.9980   77.2260   57.1900 O   0  0  0  0  0  0  0  0  0  0  0  0
   37.2960   77.7200   55.2640 C   0  0  0  0  0  3  0  0  0  0  0  0
   37.4310   78.9940   54.9360 C   0  0  0  0  0  3  0  0  0  0  0  0
   37.4060   80.0510   55.9800 C   0  0  0  0  0  2  0  0  0  0  0  0
   36.4400   80.0250   56.4950 H   0  0  0  0  0  0  0  0  0  0  0  0
  1  2  2  0  0  0  0
  1 12  1  0  0  0  0
  2  6  1  0  0  0  0
  3  7  1  0  0  0  0
  3  2  1  0  0  0  0
  4  3  2  0  0  0  0
  5  4  1  0  0  0  0
  5  1  1  0  0  0  0
  8  9  1  0  0  0  0
  9 10  2  0  0  0  0
  9 15  1  0  0  0  0
 10 16  1  0  0  0  0
 11 10  1  0  0  0  0
 12 11  2  0  0  0  0
 13 12  1  0  0  0  0
 13  8  2  0  0  0  0
 14  8  1  0  0  0  0
 17  4  1  0  0  0  0
 18 17  1  0  0  0  0
 18 23  1  0  0  0  0
 19 18  2  0  0  0  0
 20 21  2  0  0  0  0
 20 19  1  0  0  0  0
 21 22  1  0  0  0  0
 22 17  2  0  0  0  0
 24 19  1  0  0  0  0
 25 26  2  0  0  0  0
 25 21  1  0  0  0  0
 27 25  1  0  0  0  0
 28 27  2  0  0  0  0
 28 29  1  0  0  0  0
 29 30  1  0  0  0  0
M  END
>  <minimizedAffinity>
-6.01248789

>  <minimizedRMSD>
0.093031548

$$$$
