
 OpenBabel03212520563D

 30 32  0  0  0  0  0  0  0  0999 V2000
   40.9500   80.4110   61.7660 C   0  0  0  0  0  0  0  0  0  0  0  0
   40.9070   79.1680   62.3690 C   0  0  0  0  0  0  0  0  0  0  0  0
   40.5290   78.1220   61.6120 C   0  0  0  0  0  0  0  0  0  0  0  0
   40.2000   78.3110   60.2770 C   0  0  0  0  0  0  0  0  0  0  0  0
   40.4400   80.1320   60.0490 S   0  0  0  0  0  0  0  0  0  0  0  0
   41.1640   79.0180   63.4110 H   0  0  0  0  0  0  0  0  0  0  0  0
   40.4310   77.0800   61.8850 H   0  0  0  0  0  0  0  0  0  0  0  0
   43.0080   83.2100   62.9430 C   0  0  0  0  0  0  0  0  0  0  0  0
   42.1090   83.9610   63.7430 C   0  0  0  0  0  0  0  0  0  0  0  0
   40.8170   83.4950   63.8630 C   0  0  0  0  0  0  0  0  0  0  0  0
   40.4680   82.3590   63.2220 N   0  0  0  0  0  0  0  0  0  0  0  0
   41.3480   81.6660   62.4670 C   0  0  0  0  0  0  0  0  0  0  0  0
   42.5950   82.0860   62.3310 N   0  0  0  0  0  0  0  0  0  0  0  0
   44.0200   83.5720   62.8470 H   0  0  0  0  0  0  0  0  0  0  0  0
   42.3930   84.8700   64.2540 H   0  0  0  0  0  0  0  0  0  0  0  0
   40.0490   83.9750   64.4390 H   0  0  0  0  0  0  0  0  0  0  0  0
   39.7650   77.4920   59.1750 C   0  0  0  0  0  0  0  0  0  0  0  0
   40.2870   76.2310   59.0510 C   0  0  0  0  0  0  0  0  0  0  0  0
   39.7750   75.5510   57.9360 C   0  0  0  0  0  0  0  0  0  0  0  0
   38.8690   76.0660   57.0750 N   0  0  0  0  0  0  0  0  0  0  0  0
   38.4170   77.3250   57.2910 C   0  0  0  0  0  0  0  0  0  0  0  0
   38.8700   78.0440   58.3510 N   0  0  0  0  0  0  0  0  0  0  0  0
   41.0040   75.7710   59.6980 H   0  0  0  0  0  0  0  0  0  0  0  0
   40.0950   74.5380   57.7030 H   0  0  0  0  0  0  0  0  0  0  0  0
   37.4470   77.8800   56.3690 C   0  0  0  0  0  0  0  0  0  0  0  0
   36.8950   77.0890   55.5800 O   0  0  0  0  0  0  0  0  0  0  0  0
   37.1460   79.3090   56.3830 C   0  0  0  0  0  3  0  0  0  0  0  0
   37.7440   80.1720   55.5800 C   0  0  0  0  0  3  0  0  0  0  0  0
   38.7720   79.7150   54.6100 C   0  0  0  0  0  2  0  0  0  0  0  0
   39.6060   79.2620   55.1570 H   0  0  0  0  0  0  0  0  0  0  0  0
  1  2  2  0  0  0  0
  1 12  1  0  0  0  0
  2  6  1  0  0  0  0
  3  7  1  0  0  0  0
  3  2  1  0  0  0  0
  4  3  2  0  0  0  0
  5  4  1  0  0  0  0
  5  1  1  0  0  0  0
  8  9  1  0  0  0  0
  9 10  2  0  0  0  0
  9 15  1  0  0  0  0
 10 16  1  0  0  0  0
 11 10  1  0  0  0  0
 12 11  2  0  0  0  0
 13 12  1  0  0  0  0
 13  8  2  0  0  0  0
 14  8  1  0  0  0  0
 17  4  1  0  0  0  0
 18 17  1  0  0  0  0
 18 23  1  0  0  0  0
 19 18  2  0  0  0  0
 20 21  2  0  0  0  0
 20 19  1  0  0  0  0
 21 22  1  0  0  0  0
 22 17  2  0  0  0  0
 24 19  1  0  0  0  0
 25 27  1  0  0  0  0
 25 21  1  0  0  0  0
 26 25  2  0  0  0  0
 28 27  2  0  0  0  0
 29 30  1  0  0  0  0
 29 28  1  0  0  0  0
M  END
>  <minimizedAffinity>
-5.84637737

>  <minimizedRMSD>
1.13968503

$$$$
