
 OpenBabel03212519593D

 13 13  0  0  0  0  0  0  0  0999 V2000
   42.5330   84.1180   63.0210 C   0  0  0  0  0  0  0  0  0  0  0  0
   41.8240   84.3800   64.2060 C   0  0  0  0  0  0  0  0  0  0  0  0
   40.5370   83.8590   64.3230 C   0  0  0  0  0  0  0  0  0  0  0  0
   40.0510   83.1320   63.2870 N   0  0  0  0  0  0  0  0  0  0  0  0
   40.7410   82.8900   62.1610 C   0  0  0  0  0  0  0  0  0  0  0  0
   41.9950   83.3910   62.0350 N   0  0  0  0  0  0  0  0  0  0  0  0
   43.5160   84.5790   63.0600 H   0  0  0  0  0  0  0  0  0  0  0  0
   42.1680   84.9480   65.0480 H   0  0  0  0  0  0  0  0  0  0  0  0
   39.8570   83.9580   65.1480 H   0  0  0  0  0  0  0  0  0  0  0  0
   40.2030   82.1040   61.0540 C   0  0  0  0  0  0  0  0  0  0  0  0
   40.7390   82.1340   59.8430 C   0  0  0  0  0  0  0  0  0  0  0  0
   40.1070   81.2850   58.7700 C   0  0  0  0  0  0  0  0  0  0  0  0
   40.5870   81.4580   57.8000 H   0  0  0  0  0  0  0  0  0  0  0  0
  1  7  1  0  0  0  0
  1  2  1  0  0  0  0
  2  3  2  0  0  0  0
  2  8  1  0  0  0  0
  3  9  1  0  0  0  0
  4  3  1  0  0  0  0
  5  4  2  0  0  0  0
  6  5  1  0  0  0  0
  6  1  2  0  0  0  0
 10  5  1  0  0  0  0
 11 10  2  0  0  0  0
 12 11  1  0  0  0  0
 13 12  1  0  0  0  0
M  END
>  <minimizedAffinity>
-3.39287448

>  <minimizedRMSD>
4.55594492

$$$$
