
 OpenBabel03212521043D

 23 24  0  0  0  0  0  0  0  0999 V2000
   38.9340   76.5310   58.2160 C   0  0  0  0  0  0  0  0  0  0  0  0
   39.5480   77.6350   58.8270 C   0  0  0  0  0  0  0  0  0  0  0  0
   39.9960   77.6090   60.1200 C   0  0  0  0  0  0  0  0  0  0  0  0
   39.8300   76.4210   60.8580 C   0  0  0  0  0  0  0  0  0  0  0  0
   39.2220   75.3270   60.2560 C   0  0  0  0  0  0  0  0  0  0  0  0
   38.7790   75.3800   58.9500 C   0  0  0  0  0  0  0  0  0  0  0  0
   39.6520   78.5310   58.2120 H   0  0  0  0  0  0  0  0  0  0  0  0
   40.4520   78.4870   60.5120 H   0  0  0  0  0  0  0  0  0  0  0  0
   40.2060   76.4720   61.8700 H   0  0  0  0  0  0  0  0  0  0  0  0
   39.1800   74.5250   60.9510 H   0  0  0  0  0  0  0  0  0  0  0  0
   36.8140   76.9500   55.2690 C   0  0  0  0  0  0  0  0  0  0  0  0
   37.7380   76.8080   54.2120 C   0  0  0  0  0  0  0  0  0  0  0  0
   39.0830   76.5740   54.5160 C   0  0  0  0  0  0  0  0  0  0  0  0
   39.4080   76.4970   55.8210 N   0  0  0  0  0  0  0  0  0  0  0  0
   38.4990   76.6370   56.8370 C   0  0  0  0  0  0  0  0  0  0  0  0
   37.2210   76.8600   56.5550 N   0  0  0  0  0  0  0  0  0  0  0  0
   35.7620   77.1320   55.0640 H   0  0  0  0  0  0  0  0  0  0  0  0
   37.4190   76.8790   53.1830 H   0  0  0  0  0  0  0  0  0  0  0  0
   39.8380   76.4560   53.7520 H   0  0  0  0  0  0  0  0  0  0  0  0
   38.1470   74.1870   58.4450 C   0  0  0  0  0  3  0  0  0  0  0  0
   38.7870   73.2130   57.8190 C   0  0  0  0  0  3  0  0  0  0  0  0
   38.3260   71.9480   57.2440 C   0  0  0  0  0  2  0  0  0  0  0  0
   38.5800   71.7600   56.2020 H   0  0  0  0  0  0  0  0  0  0  0  0
  1  2  2  0  0  0  0
  1  6  1  0  0  0  0
  2  3  1  0  0  0  0
  3  8  1  0  0  0  0
  3  4  2  0  0  0  0
  4  9  1  0  0  0  0
  5  4  1  0  0  0  0
  5 10  1  0  0  0  0
  6  5  2  0  0  0  0
  7  2  1  0  0  0  0
 11 16  1  0  0  0  0
 12 13  1  0  0  0  0
 12 11  2  0  0  0  0
 13 14  2  0  0  0  0
 14 15  1  0  0  0  0
 15  1  1  0  0  0  0
 16 15  2  0  0  0  0
 17 11  1  0  0  0  0
 18 12  1  0  0  0  0
 19 13  1  0  0  0  0
 20  6  1  0  0  0  0
 21 20  2  0  0  0  0
 22 21  1  0  0  0  0
 23 22  1  0  0  0  0
M  END
>  <minimizedAffinity>
-4.70183182

$$$$

 OpenBabel03212521043D

 23 24  0  0  0  0  0  0  0  0999 V2000
   40.5700   73.5530   60.9050 C   0  0  0  0  0  0  0  0  0  0  0  0
   39.2480   73.8280   61.2850 C   0  0  0  0  0  0  0  0  0  0  0  0
   38.6010   74.9800   60.9280 C   0  0  0  0  0  0  0  0  0  0  0  0
   39.3000   75.9220   60.1470 C   0  0  0  0  0  0  0  0  0  0  0  0
   40.6090   75.6530   59.7710 C   0  0  0  0  0  0  0  0  0  0  0  0
   41.2380   74.4830   60.1450 C   0  0  0  0  0  0  0  0  0  0  0  0
   38.7510   73.0670   61.8880 H   0  0  0  0  0  0  0  0  0  0  0  0
   37.5970   75.1160   61.2550 H   0  0  0  0  0  0  0  0  0  0  0  0
   38.7290   76.8060   59.9030 H   0  0  0  0  0  0  0  0  0  0  0  0
   40.9790   76.4630   59.1920 H   0  0  0  0  0  0  0  0  0  0  0  0
   42.0830   70.2300   60.7830 C   0  0  0  0  0  0  0  0  0  0  0  0
   42.3060   69.9510   62.1480 C   0  0  0  0  0  0  0  0  0  0  0  0
   41.9400   70.9060   63.1020 C   0  0  0  0  0  0  0  0  0  0  0  0
   41.3890   72.0460   62.6420 N   0  0  0  0  0  0  0  0  0  0  0  0
   41.1780   72.3020   61.3130 C   0  0  0  0  0  0  0  0  0  0  0  0
   41.5230   71.4000   60.4020 N   0  0  0  0  0  0  0  0  0  0  0  0
   42.3570   69.5060   60.0180 H   0  0  0  0  0  0  0  0  0  0  0  0
   42.7530   69.0180   62.4580 H   0  0  0  0  0  0  0  0  0  0  0  0
   42.0860   70.7520   64.1620 H   0  0  0  0  0  0  0  0  0  0  0  0
   42.6040   74.3280   59.7090 C   0  0  0  0  0  3  0  0  0  0  0  0
   43.0710   74.7690   58.5520 C   0  0  0  0  0  3  0  0  0  0  0  0
   44.4020   74.7070   57.9450 C   0  0  0  0  0  2  0  0  0  0  0  0
   44.4660   74.2810   56.9450 H   0  0  0  0  0  0  0  0  0  0  0  0
  1  2  1  0  0  0  0
  1 15  1  0  0  0  0
  2  7  1  0  0  0  0
  3  8  1  0  0  0  0
  3  2  2  0  0  0  0
  4  3  1  0  0  0  0
  5  6  1  0  0  0  0
  5  4  2  0  0  0  0
  6  1  2  0  0  0  0
  9  4  1  0  0  0  0
 10  5  1  0  0  0  0
 11 12  1  0  0  0  0
 12 18  1  0  0  0  0
 12 13  2  0  0  0  0
 13 19  1  0  0  0  0
 14 13  1  0  0  0  0
 15 14  2  0  0  0  0
 16 11  2  0  0  0  0
 16 15  1  0  0  0  0
 17 11  1  0  0  0  0
 20  6  1  0  0  0  0
 21 20  2  0  0  0  0
 22 21  1  0  0  0  0
 23 22  1  0  0  0  0
M  END
>  <minimizedAffinity>
-4.64690924

$$$$

 OpenBabel03212521043D

 23 24  0  0  0  0  0  0  0  0999 V2000
   39.6670   73.1660   59.3160 C   0  0  0  0  0  0  0  0  0  0  0  0
   39.3710   72.1610   58.3820 C   0  0  0  0  0  0  0  0  0  0  0  0
   38.4320   72.3190   57.3990 C   0  0  0  0  0  0  0  0  0  0  0  0
   37.7400   73.5440   57.3300 C   0  0  0  0  0  0  0  0  0  0  0  0
   38.0300   74.5410   58.2530 C   0  0  0  0  0  0  0  0  0  0  0  0
   38.9820   74.3550   59.2350 C   0  0  0  0  0  0  0  0  0  0  0  0
   39.9340   71.2320   58.4790 H   0  0  0  0  0  0  0  0  0  0  0  0
   38.2640   71.5100   56.7290 H   0  0  0  0  0  0  0  0  0  0  0  0
   37.0140   73.5990   56.5310 H   0  0  0  0  0  0  0  0  0  0  0  0
   37.4210   75.3880   58.0550 H   0  0  0  0  0  0  0  0  0  0  0  0
   41.2990   72.2300   62.4480 C   0  0  0  0  0  0  0  0  0  0  0  0
   42.6550   72.5040   62.1730 C   0  0  0  0  0  0  0  0  0  0  0  0
   43.0030   73.0050   60.9140 C   0  0  0  0  0  0  0  0  0  0  0  0
   41.9990   73.1950   60.0360 N   0  0  0  0  0  0  0  0  0  0  0  0
   40.6860   72.9240   60.3180 C   0  0  0  0  0  0  0  0  0  0  0  0
   40.3500   72.4490   61.5100 N   0  0  0  0  0  0  0  0  0  0  0  0
   40.9980   71.8410   63.4170 H   0  0  0  0  0  0  0  0  0  0  0  0
   43.4190   72.3320   62.9170 H   0  0  0  0  0  0  0  0  0  0  0  0
   44.0240   73.2340   60.6430 H   0  0  0  0  0  0  0  0  0  0  0  0
   39.1790   75.4560   60.1440 C   0  0  0  0  0  3  0  0  0  0  0  0
   40.0290   76.4490   59.9400 C   0  0  0  0  0  3  0  0  0  0  0  0
   40.3630   77.6330   60.7340 C   0  0  0  0  0  2  0  0  0  0  0  0
   41.4150   77.7860   60.9690 H   0  0  0  0  0  0  0  0  0  0  0  0
  1 15  1  0  0  0  0
  2  7  1  0  0  0  0
  2  1  2  0  0  0  0
  3  2  1  0  0  0  0
  4  3  2  0  0  0  0
  4  5  1  0  0  0  0
  5  6  2  0  0  0  0
  6  1  1  0  0  0  0
  6 20  1  0  0  0  0
  8  3  1  0  0  0  0
  9  4  1  0  0  0  0
 10  5  1  0  0  0  0
 11 17  1  0  0  0  0
 12 11  1  0  0  0  0
 12 18  1  0  0  0  0
 13 12  2  0  0  0  0
 14 15  2  0  0  0  0
 14 13  1  0  0  0  0
 15 16  1  0  0  0  0
 16 11  2  0  0  0  0
 19 13  1  0  0  0  0
 21 20  2  0  0  0  0
 21 22  1  0  0  0  0
 22 23  1  0  0  0  0
M  END
>  <minimizedAffinity>
-4.61189747

$$$$

 OpenBabel03212521043D

 23 24  0  0  0  0  0  0  0  0999 V2000
   41.0860   73.8910   60.5270 C   0  0  0  0  0  0  0  0  0  0  0  0
   40.4180   73.1040   61.4770 C   0  0  0  0  0  0  0  0  0  0  0  0
   41.0680   72.2060   62.2810 C   0  0  0  0  0  0  0  0  0  0  0  0
   42.4640   72.0760   62.1410 C   0  0  0  0  0  0  0  0  0  0  0  0
   43.1280   72.8540   61.2020 C   0  0  0  0  0  0  0  0  0  0  0  0
   42.4480   73.7510   60.4040 C   0  0  0  0  0  0  0  0  0  0  0  0
   39.3380   73.2420   61.5450 H   0  0  0  0  0  0  0  0  0  0  0  0
   40.4910   71.6450   62.9770 H   0  0  0  0  0  0  0  0  0  0  0  0
   42.9090   71.3500   62.8070 H   0  0  0  0  0  0  0  0  0  0  0  0
   44.1650   72.6280   61.2330 H   0  0  0  0  0  0  0  0  0  0  0  0
   39.5160   76.9730   59.3490 C   0  0  0  0  0  0  0  0  0  0  0  0
   38.8610   76.5460   58.1750 C   0  0  0  0  0  0  0  0  0  0  0  0
   38.9650   75.2050   57.7920 C   0  0  0  0  0  0  0  0  0  0  0  0
   39.6960   74.3990   58.5860 N   0  0  0  0  0  0  0  0  0  0  0  0
   40.3260   74.8280   59.7240 C   0  0  0  0  0  0  0  0  0  0  0  0
   40.2320   76.1000   60.0930 N   0  0  0  0  0  0  0  0  0  0  0  0
   39.4540   78.0090   59.6730 H   0  0  0  0  0  0  0  0  0  0  0  0
   38.2880   77.2380   57.5760 H   0  0  0  0  0  0  0  0  0  0  0  0
   38.4860   74.8180   56.9030 H   0  0  0  0  0  0  0  0  0  0  0  0
   43.2450   74.4860   59.4540 C   0  0  0  0  0  3  0  0  0  0  0  0
   44.0060   73.9260   58.5270 C   0  0  0  0  0  3  0  0  0  0  0  0
   44.8710   74.4960   57.4930 C   0  0  0  0  0  2  0  0  0  0  0  0
   45.9030   74.1510   57.4720 H   0  0  0  0  0  0  0  0  0  0  0  0
  1  2  1  0  0  0  0
  2  7  1  0  0  0  0
  2  3  2  0  0  0  0
  3  8  1  0  0  0  0
  4  3  1  0  0  0  0
  4  9  1  0  0  0  0
  5 10  1  0  0  0  0
  5  4  2  0  0  0  0
  6  1  2  0  0  0  0
  6  5  1  0  0  0  0
 11 17  1  0  0  0  0
 11 16  1  0  0  0  0
 12 11  2  0  0  0  0
 13 12  1  0  0  0  0
 13 14  2  0  0  0  0
 14 15  1  0  0  0  0
 15 16  2  0  0  0  0
 15  1  1  0  0  0  0
 18 12  1  0  0  0  0
 19 13  1  0  0  0  0
 20  6  1  0  0  0  0
 21 20  2  0  0  0  0
 22 21  1  0  0  0  0
 23 22  1  0  0  0  0
M  END
>  <minimizedAffinity>
-4.54758739

$$$$

 OpenBabel03212521043D

 23 24  0  0  0  0  0  0  0  0999 V2000
   41.3220   72.8150   60.9630 C   0  0  0  0  0  0  0  0  0  0  0  0
   41.8670   72.5380   62.2260 C   0  0  0  0  0  0  0  0  0  0  0  0
   42.4010   71.3190   62.5480 C   0  0  0  0  0  0  0  0  0  0  0  0
   42.3990   70.3100   61.5650 C   0  0  0  0  0  0  0  0  0  0  0  0
   41.8590   70.5820   60.3150 C   0  0  0  0  0  0  0  0  0  0  0  0
   41.3270   71.8200   60.0160 C   0  0  0  0  0  0  0  0  0  0  0  0
   41.8450   73.3520   62.9510 H   0  0  0  0  0  0  0  0  0  0  0  0
   42.7960   71.1860   63.5280 H   0  0  0  0  0  0  0  0  0  0  0  0
   42.8350   69.3760   61.8880 H   0  0  0  0  0  0  0  0  0  0  0  0
   41.9410   69.7170   59.7040 H   0  0  0  0  0  0  0  0  0  0  0  0
   39.1180   75.7300   60.9590 C   0  0  0  0  0  0  0  0  0  0  0  0
   39.8260   76.6400   60.1460 C   0  0  0  0  0  0  0  0  0  0  0  0
   41.0560   76.2500   59.6070 C   0  0  0  0  0  0  0  0  0  0  0  0
   41.4870   75.0100   59.9070 N   0  0  0  0  0  0  0  0  0  0  0  0
   40.7880   74.1370   60.6980 C   0  0  0  0  0  0  0  0  0  0  0  0
   39.6200   74.5010   61.2130 N   0  0  0  0  0  0  0  0  0  0  0  0
   38.1590   76.0040   61.3920 H   0  0  0  0  0  0  0  0  0  0  0  0
   39.4310   77.6240   59.9390 H   0  0  0  0  0  0  0  0  0  0  0  0
   41.6450   76.9020   58.9770 H   0  0  0  0  0  0  0  0  0  0  0  0
   40.7800   71.9730   58.6910 C   0  0  0  0  0  3  0  0  0  0  0  0
   39.5010   71.8150   58.3900 C   0  0  0  0  0  3  0  0  0  0  0  0
   38.7710   71.9250   57.1260 C   0  0  0  0  0  2  0  0  0  0  0  0
   38.1650   71.0700   56.8330 H   0  0  0  0  0  0  0  0  0  0  0  0
  1  2  1  0  0  0  0
  2  3  2  0  0  0  0
  2  7  1  0  0  0  0
  3  8  1  0  0  0  0
  4  9  1  0  0  0  0
  4  3  1  0  0  0  0
  5  4  2  0  0  0  0
  6  5  1  0  0  0  0
  6  1  2  0  0  0  0
 10  5  1  0  0  0  0
 11 16  1  0  0  0  0
 11 17  1  0  0  0  0
 12 11  2  0  0  0  0
 13 14  2  0  0  0  0
 13 12  1  0  0  0  0
 14 15  1  0  0  0  0
 15  1  1  0  0  0  0
 15 16  2  0  0  0  0
 18 12  1  0  0  0  0
 19 13  1  0  0  0  0
 20  6  1  0  0  0  0
 21 20  2  0  0  0  0
 22 21  1  0  0  0  0
 23 22  1  0  0  0  0
M  END
>  <minimizedAffinity>
-4.38204765

$$$$

 OpenBabel03212521043D

 23 24  0  0  0  0  0  0  0  0999 V2000
   41.3820   72.7500   60.9020 C   0  0  0  0  0  0  0  0  0  0  0  0
   41.9530   72.4680   62.1520 C   0  0  0  0  0  0  0  0  0  0  0  0
   42.4810   71.2450   62.4640 C   0  0  0  0  0  0  0  0  0  0  0  0
   42.4450   70.2340   61.4830 C   0  0  0  0  0  0  0  0  0  0  0  0
   41.8790   70.5100   60.2450 C   0  0  0  0  0  0  0  0  0  0  0  0
   41.3540   71.7530   59.9570 C   0  0  0  0  0  0  0  0  0  0  0  0
   41.9570   73.2840   62.8760 H   0  0  0  0  0  0  0  0  0  0  0  0
   42.8980   71.1090   63.4340 H   0  0  0  0  0  0  0  0  0  0  0  0
   42.8790   69.2960   61.7980 H   0  0  0  0  0  0  0  0  0  0  0  0
   41.9370   69.6430   59.6350 H   0  0  0  0  0  0  0  0  0  0  0  0
   41.0460   76.1660   59.6490 C   0  0  0  0  0  0  0  0  0  0  0  0
   39.8210   76.5750   60.2170 C   0  0  0  0  0  0  0  0  0  0  0  0
   39.1150   75.6750   61.0230 C   0  0  0  0  0  0  0  0  0  0  0  0
   39.6650   74.4590   61.2050 N   0  0  0  0  0  0  0  0  0  0  0  0
   40.8570   74.0770   60.6470 C   0  0  0  0  0  0  0  0  0  0  0  0
   41.5310   74.9250   59.8810 N   0  0  0  0  0  0  0  0  0  0  0  0
   41.6170   76.8430   59.0190 H   0  0  0  0  0  0  0  0  0  0  0  0
   39.4280   77.5640   60.0360 H   0  0  0  0  0  0  0  0  0  0  0  0
   38.1720   75.9290   61.4850 H   0  0  0  0  0  0  0  0  0  0  0  0
   40.7770   71.9100   58.6450 C   0  0  0  0  0  3  0  0  0  0  0  0
   39.4860   71.7920   58.3790 C   0  0  0  0  0  3  0  0  0  0  0  0
   38.7270   71.9130   57.1330 C   0  0  0  0  0  2  0  0  0  0  0  0
   38.0860   71.0750   56.8650 H   0  0  0  0  0  0  0  0  0  0  0  0
  1  2  1  0  0  0  0
  2  3  2  0  0  0  0
  2  7  1  0  0  0  0
  3  8  1  0  0  0  0
  4  9  1  0  0  0  0
  4  3  1  0  0  0  0
  5  4  2  0  0  0  0
  6  5  1  0  0  0  0
  6  1  2  0  0  0  0
 10  5  1  0  0  0  0
 11 16  2  0  0  0  0
 11 12  1  0  0  0  0
 12 13  2  0  0  0  0
 13 14  1  0  0  0  0
 13 19  1  0  0  0  0
 15  1  1  0  0  0  0
 15 14  2  0  0  0  0
 16 15  1  0  0  0  0
 17 11  1  0  0  0  0
 18 12  1  0  0  0  0
 20  6  1  0  0  0  0
 21 20  2  0  0  0  0
 22 21  1  0  0  0  0
 23 22  1  0  0  0  0
M  END
>  <minimizedAffinity>
-4.36361265

$$$$

 OpenBabel03212521043D

 23 24  0  0  0  0  0  0  0  0999 V2000
   38.9810   75.5630   58.6670 C   0  0  0  0  0  0  0  0  0  0  0  0
   39.2780   76.2870   59.8310 C   0  0  0  0  0  0  0  0  0  0  0  0
   39.4900   75.6840   61.0420 C   0  0  0  0  0  0  0  0  0  0  0  0
   39.4060   74.2800   61.1100 C   0  0  0  0  0  0  0  0  0  0  0  0
   39.1110   73.5610   59.9600 C   0  0  0  0  0  0  0  0  0  0  0  0
   38.9010   74.1930   58.7510 C   0  0  0  0  0  0  0  0  0  0  0  0
   39.3320   77.3720   59.7250 H   0  0  0  0  0  0  0  0  0  0  0  0
   39.7110   76.3020   61.8800 H   0  0  0  0  0  0  0  0  0  0  0  0
   39.5840   73.8730   62.0950 H   0  0  0  0  0  0  0  0  0  0  0  0
   39.0880   72.5250   60.1920 H   0  0  0  0  0  0  0  0  0  0  0  0
   39.6450   77.3740   55.5630 C   0  0  0  0  0  0  0  0  0  0  0  0
   38.3440   77.6350   55.0840 C   0  0  0  0  0  0  0  0  0  0  0  0
   37.2460   77.1860   55.8260 C   0  0  0  0  0  0  0  0  0  0  0  0
   37.5130   76.5230   56.9680 N   0  0  0  0  0  0  0  0  0  0  0  0
   38.7830   76.2770   57.4210 C   0  0  0  0  0  0  0  0  0  0  0  0
   39.8290   76.7010   56.7210 N   0  0  0  0  0  0  0  0  0  0  0  0
   40.5170   77.7110   55.0090 H   0  0  0  0  0  0  0  0  0  0  0  0
   38.1900   78.1720   54.1600 H   0  0  0  0  0  0  0  0  0  0  0  0
   36.2260   77.3540   55.5120 H   0  0  0  0  0  0  0  0  0  0  0  0
   38.5840   73.3400   57.6340 C   0  0  0  0  0  3  0  0  0  0  0  0
   39.4770   72.6370   56.9560 C   0  0  0  0  0  3  0  0  0  0  0  0
   39.3490   71.7310   55.8130 C   0  0  0  0  0  2  0  0  0  0  0  0
   39.9750   71.9410   54.9470 H   0  0  0  0  0  0  0  0  0  0  0  0
  1  6  2  0  0  0  0
  1  2  1  0  0  0  0
  2  3  2  0  0  0  0
  3  4  1  0  0  0  0
  3  8  1  0  0  0  0
  4  9  1  0  0  0  0
  5 10  1  0  0  0  0
  5  4  2  0  0  0  0
  6  5  1  0  0  0  0
  7  2  1  0  0  0  0
 11 16  1  0  0  0  0
 12 11  2  0  0  0  0
 12 13  1  0  0  0  0
 13 14  2  0  0  0  0
 14 15  1  0  0  0  0
 15  1  1  0  0  0  0
 16 15  2  0  0  0  0
 17 11  1  0  0  0  0
 18 12  1  0  0  0  0
 19 13  1  0  0  0  0
 20  6  1  0  0  0  0
 21 20  2  0  0  0  0
 22 21  1  0  0  0  0
 23 22  1  0  0  0  0
M  END
>  <minimizedAffinity>
-4.36161423

$$$$

 OpenBabel03212521043D

 23 24  0  0  0  0  0  0  0  0999 V2000
   39.6450   75.3730   59.4000 C   0  0  0  0  0  0  0  0  0  0  0  0
   39.2470   75.5350   60.7350 C   0  0  0  0  0  0  0  0  0  0  0  0
   39.5860   76.6320   61.4790 C   0  0  0  0  0  0  0  0  0  0  0  0
   40.3650   77.6350   60.8700 C   0  0  0  0  0  0  0  0  0  0  0  0
   40.7610   77.4780   59.5490 C   0  0  0  0  0  0  0  0  0  0  0  0
   40.4060   76.3610   58.8210 C   0  0  0  0  0  0  0  0  0  0  0  0
   38.6450   74.7300   61.1600 H   0  0  0  0  0  0  0  0  0  0  0  0
   39.2450   76.6820   62.4870 H   0  0  0  0  0  0  0  0  0  0  0  0
   40.5950   78.4710   61.5150 H   0  0  0  0  0  0  0  0  0  0  0  0
   41.3360   78.3200   59.2540 H   0  0  0  0  0  0  0  0  0  0  0  0
   39.5540   71.9600   58.0990 C   0  0  0  0  0  0  0  0  0  0  0  0
   38.4110   71.9840   57.2730 C   0  0  0  0  0  0  0  0  0  0  0  0
   37.6760   73.1690   57.1690 C   0  0  0  0  0  0  0  0  0  0  0  0
   38.1200   74.2250   57.8780 N   0  0  0  0  0  0  0  0  0  0  0  0
   39.2320   74.1870   58.6770 C   0  0  0  0  0  0  0  0  0  0  0  0
   39.9340   73.0640   58.7800 N   0  0  0  0  0  0  0  0  0  0  0  0
   40.1460   71.0530   58.2000 H   0  0  0  0  0  0  0  0  0  0  0  0
   38.1020   71.1050   56.7260 H   0  0  0  0  0  0  0  0  0  0  0  0
   36.7920   73.2510   56.5530 H   0  0  0  0  0  0  0  0  0  0  0  0
   40.8940   76.3040   57.4650 C   0  0  0  0  0  3  0  0  0  0  0  0
   40.4050   77.0210   56.4670 C   0  0  0  0  0  3  0  0  0  0  0  0
   40.7620   77.0980   55.0490 C   0  0  0  0  0  2  0  0  0  0  0  0
   39.9580   76.9430   54.3310 H   0  0  0  0  0  0  0  0  0  0  0  0
  1  2  1  0  0  0  0
  2  7  1  0  0  0  0
  2  3  2  0  0  0  0
  3  8  1  0  0  0  0
  4  3  1  0  0  0  0
  4  9  1  0  0  0  0
  5  4  2  0  0  0  0
  6  1  2  0  0  0  0
  6  5  1  0  0  0  0
 10  5  1  0  0  0  0
 11 17  1  0  0  0  0
 11 16  1  0  0  0  0
 12 11  2  0  0  0  0
 13 12  1  0  0  0  0
 13 14  2  0  0  0  0
 14 15  1  0  0  0  0
 15 16  2  0  0  0  0
 15  1  1  0  0  0  0
 18 12  1  0  0  0  0
 19 13  1  0  0  0  0
 20  6  1  0  0  0  0
 21 20  2  0  0  0  0
 22 21  1  0  0  0  0
 23 22  1  0  0  0  0
M  END
>  <minimizedAffinity>
-4.35758734

$$$$

 OpenBabel03212521043D

 23 24  0  0  0  0  0  0  0  0999 V2000
   41.4370   74.8280   59.8520 C   0  0  0  0  0  0  0  0  0  0  0  0
   40.2460   75.4650   60.2320 C   0  0  0  0  0  0  0  0  0  0  0  0
   40.0780   76.8210   60.1610 C   0  0  0  0  0  0  0  0  0  0  0  0
   41.1510   77.6010   59.6840 C   0  0  0  0  0  0  0  0  0  0  0  0
   42.3310   76.9730   59.3080 C   0  0  0  0  0  0  0  0  0  0  0  0
   42.4730   75.6030   59.3900 C   0  0  0  0  0  0  0  0  0  0  0  0
   39.4460   74.8170   60.5950 H   0  0  0  0  0  0  0  0  0  0  0  0
   39.1450   77.2300   60.4680 H   0  0  0  0  0  0  0  0  0  0  0  0
   40.9490   78.6620   59.6550 H   0  0  0  0  0  0  0  0  0  0  0  0
   43.0250   77.7050   58.9760 H   0  0  0  0  0  0  0  0  0  0  0  0
   42.0480   71.4680   61.1500 C   0  0  0  0  0  0  0  0  0  0  0  0
   41.6950   70.6540   60.0530 C   0  0  0  0  0  0  0  0  0  0  0  0
   41.2460   71.2610   58.8760 C   0  0  0  0  0  0  0  0  0  0  0  0
   41.1810   72.6070   58.8720 N   0  0  0  0  0  0  0  0  0  0  0  0
   41.5280   73.3840   59.9450 C   0  0  0  0  0  0  0  0  0  0  0  0
   41.9540   72.8140   61.0650 N   0  0  0  0  0  0  0  0  0  0  0  0
   42.4000   71.0240   62.0780 H   0  0  0  0  0  0  0  0  0  0  0  0
   41.7670   69.5780   60.1140 H   0  0  0  0  0  0  0  0  0  0  0  0
   40.9610   70.6920   58.0030 H   0  0  0  0  0  0  0  0  0  0  0  0
   43.7520   75.0720   58.9880 C   0  0  0  0  0  3  0  0  0  0  0  0
   44.1130   74.8700   57.7310 C   0  0  0  0  0  3  0  0  0  0  0  0
   45.3460   74.3490   57.1380 C   0  0  0  0  0  2  0  0  0  0  0  0
   45.2430   73.5130   56.4480 H   0  0  0  0  0  0  0  0  0  0  0  0
  1 15  1  0  0  0  0
  1  2  1  0  0  0  0
  2  7  1  0  0  0  0
  3  2  2  0  0  0  0
  3  8  1  0  0  0  0
  4  3  1  0  0  0  0
  5  6  1  0  0  0  0
  5  4  2  0  0  0  0
  6  1  2  0  0  0  0
  9  4  1  0  0  0  0
 10  5  1  0  0  0  0
 11 17  1  0  0  0  0
 12 18  1  0  0  0  0
 12 11  2  0  0  0  0
 13 12  1  0  0  0  0
 14 13  2  0  0  0  0
 14 15  1  0  0  0  0
 15 16  2  0  0  0  0
 16 11  1  0  0  0  0
 19 13  1  0  0  0  0
 20  6  1  0  0  0  0
 21 20  2  0  0  0  0
 22 21  1  0  0  0  0
 23 22  1  0  0  0  0
M  END
>  <minimizedAffinity>
-4.35384607

$$$$
