
 OpenBabel03212521033D

 23 24  0  0  0  0  0  0  0  0999 V2000
   42.3770   84.4310   62.2920 C   0  0  0  0  0  0  0  0  0  0  0  0
   42.2690   84.3910   63.6900 C   0  0  0  0  0  0  0  0  0  0  0  0
   41.1150   84.0330   64.3320 C   0  0  0  0  0  0  0  0  0  0  0  0
   39.9950   83.6920   63.5480 C   0  0  0  0  0  0  0  0  0  0  0  0
   40.0990   83.7310   62.1640 C   0  0  0  0  0  0  0  0  0  0  0  0
   41.2760   84.0960   61.5420 C   0  0  0  0  0  0  0  0  0  0  0  0
   43.1640   84.6640   64.2510 H   0  0  0  0  0  0  0  0  0  0  0  0
   41.1110   84.0270   65.3960 H   0  0  0  0  0  0  0  0  0  0  0  0
   39.1200   83.4210   64.1200 H   0  0  0  0  0  0  0  0  0  0  0  0
   39.1690   83.4470   61.7360 H   0  0  0  0  0  0  0  0  0  0  0  0
   45.7260   84.2300   60.8430 C   0  0  0  0  0  0  0  0  0  0  0  0
   46.0160   85.5830   60.5710 C   0  0  0  0  0  0  0  0  0  0  0  0
   45.0610   86.5560   60.8820 C   0  0  0  0  0  0  0  0  0  0  0  0
   43.9090   86.1260   61.4310 N   0  0  0  0  0  0  0  0  0  0  0  0
   43.6410   84.8070   61.6900 C   0  0  0  0  0  0  0  0  0  0  0  0
   44.5440   83.8790   61.3970 N   0  0  0  0  0  0  0  0  0  0  0  0
   46.4490   83.4510   60.6130 H   0  0  0  0  0  0  0  0  0  0  0  0
   46.9590   85.8710   60.1290 H   0  0  0  0  0  0  0  0  0  0  0  0
   45.2250   87.6090   60.6970 H   0  0  0  0  0  0  0  0  0  0  0  0
   41.2520   84.1170   60.1000 C   0  0  0  0  0  3  0  0  0  0  0  0
   41.0070   85.1960   59.3750 C   0  0  0  0  0  3  0  0  0  0  0  0
   40.9410   85.4090   57.9270 C   0  0  0  0  0  2  0  0  0  0  0  0
   40.0340   85.8690   57.5400 H   0  0  0  0  0  0  0  0  0  0  0  0
  1  2  1  0  0  0  0
  2  7  1  0  0  0  0
  2  3  2  0  0  0  0
  3  8  1  0  0  0  0
  4  9  1  0  0  0  0
  4  3  1  0  0  0  0
  5  4  2  0  0  0  0
  6  5  1  0  0  0  0
  6  1  2  0  0  0  0
 10  5  1  0  0  0  0
 11 16  1  0  0  0  0
 12 11  2  0  0  0  0
 12 13  1  0  0  0  0
 13 14  2  0  0  0  0
 14 15  1  0  0  0  0
 15  1  1  0  0  0  0
 16 15  2  0  0  0  0
 17 11  1  0  0  0  0
 18 12  1  0  0  0  0
 19 13  1  0  0  0  0
 20  6  1  0  0  0  0
 21 20  2  0  0  0  0
 22 21  1  0  0  0  0
 23 22  1  0  0  0  0
M  END
>  <minimizedAffinity>
-4.40594625

>  <minimizedRMSD>
2.11876965

$$$$
