
 OpenBabel03212520083D

 13 13  0  0  0  0  0  0  0  0999 V2000
   40.0550   81.9820   60.6200 C   0  0  0  0  0  0  0  0  0  0  0  0
   40.1100   82.9120   59.5710 C   0  0  0  0  0  0  0  0  0  0  0  0
   39.5520   84.1770   59.7700 C   0  0  0  0  0  0  0  0  0  0  0  0
   38.9740   84.4540   60.9780 N   0  0  0  0  0  0  0  0  0  0  0  0
   38.9400   83.5280   61.9700 C   0  0  0  0  0  0  0  0  0  0  0  0
   39.4770   82.3170   61.7770 N   0  0  0  0  0  0  0  0  0  0  0  0
   40.4930   81.0180   60.4380 H   0  0  0  0  0  0  0  0  0  0  0  0
   39.5500   84.9370   59.0330 H   0  0  0  0  0  0  0  0  0  0  0  0
   38.4600   83.8480   62.8870 H   0  0  0  0  0  0  0  0  0  0  0  0
   40.7320   82.5930   58.2880 C   0  0  0  0  0  3  0  0  0  0  0  0
   41.4780   83.4070   57.5630 C   0  0  0  0  0  3  0  0  0  0  0  0
   42.0710   82.9890   56.2600 C   0  0  0  0  0  2  0  0  0  0  0  0
   42.3210   83.8510   55.6350 H   0  0  0  0  0  0  0  0  0  0  0  0
  1  6  1  0  0  0  0
  2  3  1  0  0  0  0
  2  1  2  0  0  0  0
  3  4  2  0  0  0  0
  4  5  1  0  0  0  0
  5  9  1  0  0  0  0
  6  5  2  0  0  0  0
  7  1  1  0  0  0  0
  8  3  1  0  0  0  0
 10  2  1  0  0  0  0
 11 10  2  0  0  0  0
 12 11  1  0  0  0  0
 13 12  1  0  0  0  0
M  END
>  <minimizedAffinity>
-3.72819686

>  <minimizedRMSD>
0.834400713

$$$$
