
 OpenBabel03212521023D

 23 24  0  0  0  0  0  0  0  0999 V2000
   41.9970   84.2160   61.8490 C   0  0  0  0  0  0  0  0  0  0  0  0
   42.4270   84.6800   63.1010 C   0  0  0  0  0  0  0  0  0  0  0  0
   41.7390   84.4310   64.2580 C   0  0  0  0  0  0  0  0  0  0  0  0
   40.5530   83.6750   64.1770 C   0  0  0  0  0  0  0  0  0  0  0  0
   40.1240   83.2150   62.9390 C   0  0  0  0  0  0  0  0  0  0  0  0
   40.8380   83.4810   61.7870 C   0  0  0  0  0  0  0  0  0  0  0  0
   43.3510   85.2610   63.1100 H   0  0  0  0  0  0  0  0  0  0  0  0
   42.1290   84.8170   65.1690 H   0  0  0  0  0  0  0  0  0  0  0  0
   40.0620   83.5170   65.1260 H   0  0  0  0  0  0  0  0  0  0  0  0
   39.2220   82.6690   63.0620 H   0  0  0  0  0  0  0  0  0  0  0  0
   44.5330   83.9890   59.2280 C   0  0  0  0  0  0  0  0  0  0  0  0
   44.2670   85.1370   58.4530 C   0  0  0  0  0  0  0  0  0  0  0  0
   43.2180   85.9810   58.8310 C   0  0  0  0  0  0  0  0  0  0  0  0
   42.5220   85.6320   59.9300 N   0  0  0  0  0  0  0  0  0  0  0  0
   42.7920   84.5130   60.6730 C   0  0  0  0  0  0  0  0  0  0  0  0
   43.7860   83.7080   60.3200 N   0  0  0  0  0  0  0  0  0  0  0  0
   45.3420   83.3140   58.9590 H   0  0  0  0  0  0  0  0  0  0  0  0
   44.8600   85.3670   57.5800 H   0  0  0  0  0  0  0  0  0  0  0  0
   42.9650   86.8750   58.2790 H   0  0  0  0  0  0  0  0  0  0  0  0
   40.2810   82.9660   60.5620 C   0  0  0  0  0  3  0  0  0  0  0  0
   40.4950   81.7440   60.1010 C   0  0  0  0  0  3  0  0  0  0  0  0
   40.0260   81.0540   58.8990 C   0  0  0  0  0  2  0  0  0  0  0  0
   40.7870   80.6110   58.2590 H   0  0  0  0  0  0  0  0  0  0  0  0
  1  2  1  0  0  0  0
  2  7  1  0  0  0  0
  2  3  2  0  0  0  0
  3  8  1  0  0  0  0
  4  3  1  0  0  0  0
  4  9  1  0  0  0  0
  5 10  1  0  0  0  0
  5  4  2  0  0  0  0
  6  1  2  0  0  0  0
  6  5  1  0  0  0  0
 11 16  1  0  0  0  0
 12 13  1  0  0  0  0
 12 11  2  0  0  0  0
 13 14  2  0  0  0  0
 14 15  1  0  0  0  0
 15  1  1  0  0  0  0
 16 15  2  0  0  0  0
 17 11  1  0  0  0  0
 18 12  1  0  0  0  0
 19 13  1  0  0  0  0
 20  6  1  0  0  0  0
 21 20  2  0  0  0  0
 22 21  1  0  0  0  0
 23 22  1  0  0  0  0
M  END
>  <minimizedAffinity>
-4.46234083

>  <minimizedRMSD>
1.27707779

$$$$
