
 OpenBabel03212520563D

 30 32  0  0  0  0  0  0  0  0999 V2000
   40.9270   80.2010   61.6820 C   0  0  0  0  0  0  0  0  0  0  0  0
   40.8170   78.9880   62.3370 C   0  0  0  0  0  0  0  0  0  0  0  0
   40.4300   77.9220   61.6120 C   0  0  0  0  0  0  0  0  0  0  0  0
   40.1590   78.0620   60.2590 C   0  0  0  0  0  0  0  0  0  0  0  0
   40.4720   79.8610   59.9600 S   0  0  0  0  0  0  0  0  0  0  0  0
   41.0280   78.8770   63.3930 H   0  0  0  0  0  0  0  0  0  0  0  0
   40.2840   76.8980   61.9270 H   0  0  0  0  0  0  0  0  0  0  0  0
   43.0130   83.0290   62.7330 C   0  0  0  0  0  0  0  0  0  0  0  0
   42.1360   83.7960   63.5420 C   0  0  0  0  0  0  0  0  0  0  0  0
   40.8500   83.3310   63.7120 C   0  0  0  0  0  0  0  0  0  0  0  0
   40.4840   82.1800   63.1070 N   0  0  0  0  0  0  0  0  0  0  0  0
   41.3430   81.4720   62.3420 C   0  0  0  0  0  0  0  0  0  0  0  0
   42.5840   81.8910   62.1590 N   0  0  0  0  0  0  0  0  0  0  0  0
   44.0200   83.3900   62.5980 H   0  0  0  0  0  0  0  0  0  0  0  0
   42.4330   84.7170   64.0240 H   0  0  0  0  0  0  0  0  0  0  0  0
   40.0980   83.8230   64.3000 H   0  0  0  0  0  0  0  0  0  0  0  0
   39.7370   77.2090   59.1770 C   0  0  0  0  0  0  0  0  0  0  0  0
   40.4290   76.0490   58.9510 C   0  0  0  0  0  0  0  0  0  0  0  0
   39.9090   75.3210   57.8700 C   0  0  0  0  0  0  0  0  0  0  0  0
   38.8460   75.7070   57.1280 N   0  0  0  0  0  0  0  0  0  0  0  0
   38.2330   76.8740   57.4380 C   0  0  0  0  0  0  0  0  0  0  0  0
   38.6830   77.6320   58.4720 N   0  0  0  0  0  0  0  0  0  0  0  0
   41.2740   75.6920   59.5020 H   0  0  0  0  0  0  0  0  0  0  0  0
   40.3520   74.3750   57.5660 H   0  0  0  0  0  0  0  0  0  0  0  0
   37.0950   77.2910   56.6450 C   0  0  0  0  0  0  0  0  0  0  0  0
   35.9770   77.2630   57.1960 O   0  0  0  0  0  0  0  0  0  0  0  0
   37.2750   77.7240   55.2620 C   0  0  0  0  0  3  0  0  0  0  0  0
   37.4220   78.9940   54.9250 C   0  0  0  0  0  3  0  0  0  0  0  0
   37.4110   80.0570   55.9620 C   0  0  0  0  0  2  0  0  0  0  0  0
   36.4460   80.0440   56.4790 H   0  0  0  0  0  0  0  0  0  0  0  0
  1  2  2  0  0  0  0
  1 12  1  0  0  0  0
  2  6  1  0  0  0  0
  3  7  1  0  0  0  0
  3  2  1  0  0  0  0
  4  3  2  0  0  0  0
  5  4  1  0  0  0  0
  5  1  1  0  0  0  0
  8  9  1  0  0  0  0
  9 10  2  0  0  0  0
  9 15  1  0  0  0  0
 10 16  1  0  0  0  0
 11 10  1  0  0  0  0
 12 11  2  0  0  0  0
 13 12  1  0  0  0  0
 13  8  2  0  0  0  0
 14  8  1  0  0  0  0
 17  4  1  0  0  0  0
 18 17  1  0  0  0  0
 18 23  1  0  0  0  0
 19 18  2  0  0  0  0
 20 21  2  0  0  0  0
 20 19  1  0  0  0  0
 21 22  1  0  0  0  0
 22 17  2  0  0  0  0
 24 19  1  0  0  0  0
 25 26  2  0  0  0  0
 25 21  1  0  0  0  0
 27 25  1  0  0  0  0
 28 27  2  0  0  0  0
 28 29  1  0  0  0  0
 29 30  1  0  0  0  0
M  END
>  <minimizedAffinity>
-6.0097661

>  <minimizedRMSD>
0.652256191

$$$$
