
 OpenBabel03212521033D

 23 24  0  0  0  0  0  0  0  0999 V2000
   42.0610   84.2510   61.8320 C   0  0  0  0  0  0  0  0  0  0  0  0
   42.4450   84.6570   63.1190 C   0  0  0  0  0  0  0  0  0  0  0  0
   41.6930   84.3940   64.2320 C   0  0  0  0  0  0  0  0  0  0  0  0
   40.4860   83.6850   64.0670 C   0  0  0  0  0  0  0  0  0  0  0  0
   40.1030   83.2830   62.7950 C   0  0  0  0  0  0  0  0  0  0  0  0
   40.8810   83.5620   61.6890 C   0  0  0  0  0  0  0  0  0  0  0  0
   43.3870   85.2020   63.1920 H   0  0  0  0  0  0  0  0  0  0  0  0
   42.0520   84.7350   65.1740 H   0  0  0  0  0  0  0  0  0  0  0  0
   39.9450   83.5130   64.9870 H   0  0  0  0  0  0  0  0  0  0  0  0
   39.1780   82.7660   62.8560 H   0  0  0  0  0  0  0  0  0  0  0  0
   44.7120   84.0190   59.3280 C   0  0  0  0  0  0  0  0  0  0  0  0
   44.5250   85.2020   58.5830 C   0  0  0  0  0  0  0  0  0  0  0  0
   43.4900   86.0710   58.9410 C   0  0  0  0  0  0  0  0  0  0  0  0
   42.7290   85.7110   59.9920 N   0  0  0  0  0  0  0  0  0  0  0  0
   42.9220   84.5580   60.7070 C   0  0  0  0  0  0  0  0  0  0  0  0
   43.9030   83.7290   60.3720 N   0  0  0  0  0  0  0  0  0  0  0  0
   45.5080   83.3240   59.0730 H   0  0  0  0  0  0  0  0  0  0  0  0
   45.1680   85.4390   57.7480 H   0  0  0  0  0  0  0  0  0  0  0  0
   43.2960   86.9920   58.4100 H   0  0  0  0  0  0  0  0  0  0  0  0
   40.3670   83.1080   60.4210 C   0  0  0  0  0  3  0  0  0  0  0  0
   40.4960   81.8740   59.9620 C   0  0  0  0  0  3  0  0  0  0  0  0
   40.0500   81.2380   58.7210 C   0  0  0  0  0  2  0  0  0  0  0  0
   40.8100   80.7280   58.1320 H   0  0  0  0  0  0  0  0  0  0  0  0
  1  2  1  0  0  0  0
  2  7  1  0  0  0  0
  2  3  2  0  0  0  0
  3  8  1  0  0  0  0
  4  3  1  0  0  0  0
  4  9  1  0  0  0  0
  5 10  1  0  0  0  0
  5  4  2  0  0  0  0
  6  1  2  0  0  0  0
  6  5  1  0  0  0  0
 11 16  1  0  0  0  0
 12 13  1  0  0  0  0
 12 11  2  0  0  0  0
 13 14  2  0  0  0  0
 14 15  1  0  0  0  0
 15  1  1  0  0  0  0
 16 15  2  0  0  0  0
 17 11  1  0  0  0  0
 18 12  1  0  0  0  0
 19 13  1  0  0  0  0
 20  6  1  0  0  0  0
 21 20  2  0  0  0  0
 22 21  1  0  0  0  0
 23 22  1  0  0  0  0
M  END
>  <minimizedAffinity>
-4.44618225

>  <minimizedRMSD>
1.16424215

$$$$
