
 OpenBabel03212520083D

 13 13  0  0  0  0  0  0  0  0999 V2000
   40.0540   81.9820   60.6230 C   0  0  0  0  0  0  0  0  0  0  0  0
   40.1100   82.9110   59.5730 C   0  0  0  0  0  0  0  0  0  0  0  0
   39.5520   84.1760   59.7700 C   0  0  0  0  0  0  0  0  0  0  0  0
   38.9750   84.4550   60.9780 N   0  0  0  0  0  0  0  0  0  0  0  0
   38.9390   83.5300   61.9710 C   0  0  0  0  0  0  0  0  0  0  0  0
   39.4750   82.3180   61.7790 N   0  0  0  0  0  0  0  0  0  0  0  0
   40.4920   81.0170   60.4420 H   0  0  0  0  0  0  0  0  0  0  0  0
   39.5510   84.9350   59.0320 H   0  0  0  0  0  0  0  0  0  0  0  0
   38.4590   83.8510   62.8870 H   0  0  0  0  0  0  0  0  0  0  0  0
   40.7330   82.5900   58.2900 C   0  0  0  0  0  3  0  0  0  0  0  0
   41.4740   83.4050   57.5620 C   0  0  0  0  0  3  0  0  0  0  0  0
   42.0690   82.9850   56.2610 C   0  0  0  0  0  2  0  0  0  0  0  0
   42.3140   83.8450   55.6320 H   0  0  0  0  0  0  0  0  0  0  0  0
  1  6  1  0  0  0  0
  2  3  1  0  0  0  0
  2  1  2  0  0  0  0
  3  4  2  0  0  0  0
  4  5  1  0  0  0  0
  5  9  1  0  0  0  0
  6  5  2  0  0  0  0
  7  1  1  0  0  0  0
  8  3  1  0  0  0  0
 10  2  1  0  0  0  0
 11 10  2  0  0  0  0
 12 11  1  0  0  0  0
 13 12  1  0  0  0  0
M  END
>  <minimizedAffinity>
-3.72753525

>  <minimizedRMSD>
0.307238907

$$$$
