
 OpenBabel03212520083D

 13 13  0  0  0  0  0  0  0  0999 V2000
   40.0460   81.9970   60.6060 C   0  0  0  0  0  0  0  0  0  0  0  0
   40.0840   82.9420   59.5690 C   0  0  0  0  0  0  0  0  0  0  0  0
   39.5220   84.2010   59.7930 C   0  0  0  0  0  0  0  0  0  0  0  0
   38.9590   84.4590   61.0120 N   0  0  0  0  0  0  0  0  0  0  0  0
   38.9420   83.5190   61.9920 C   0  0  0  0  0  0  0  0  0  0  0  0
   39.4810   82.3130   61.7750 N   0  0  0  0  0  0  0  0  0  0  0  0
   40.4870   81.0380   60.4050 H   0  0  0  0  0  0  0  0  0  0  0  0
   39.5070   84.9710   59.0660 H   0  0  0  0  0  0  0  0  0  0  0  0
   38.4720   83.8240   62.9190 H   0  0  0  0  0  0  0  0  0  0  0  0
   40.6910   82.6430   58.2740 C   0  0  0  0  0  3  0  0  0  0  0  0
   41.8950   82.1350   58.0790 C   0  0  0  0  0  3  0  0  0  0  0  0
   42.4290   81.8650   56.7140 C   0  0  0  0  0  2  0  0  0  0  0  0
   43.5220   81.8140   56.7110 H   0  0  0  0  0  0  0  0  0  0  0  0
  1  6  1  0  0  0  0
  2  3  1  0  0  0  0
  2  1  2  0  0  0  0
  3  4  2  0  0  0  0
  4  5  1  0  0  0  0
  5  9  1  0  0  0  0
  6  5  2  0  0  0  0
  7  1  1  0  0  0  0
  8  3  1  0  0  0  0
 10  2  1  0  0  0  0
 11 10  2  0  0  0  0
 12 11  1  0  0  0  0
 13 12  1  0  0  0  0
M  END
>  <minimizedAffinity>
-3.52261806

>  <minimizedRMSD>
0.346683383

$$$$
