
 OpenBabel03212519593D

 13 13  0  0  0  0  0  0  0  0999 V2000
   42.5560   82.5370   59.6460 C   0  0  0  0  0  0  0  0  0  0  0  0
   43.3030   83.5810   59.0740 C   0  0  0  0  0  0  0  0  0  0  0  0
   43.2540   84.8300   59.6900 C   0  0  0  0  0  0  0  0  0  0  0  0
   42.4880   84.9580   60.8030 N   0  0  0  0  0  0  0  0  0  0  0  0
   41.7800   83.9500   61.3370 C   0  0  0  0  0  0  0  0  0  0  0  0
   41.8210   82.7290   60.7470 N   0  0  0  0  0  0  0  0  0  0  0  0
   42.6830   81.6240   59.0710 H   0  0  0  0  0  0  0  0  0  0  0  0
   43.9200   83.5250   58.1990 H   0  0  0  0  0  0  0  0  0  0  0  0
   43.7550   85.7320   59.3950 H   0  0  0  0  0  0  0  0  0  0  0  0
   40.9610   84.1040   62.5360 C   0  0  0  0  0  3  0  0  0  0  0  0
   41.4920   84.3110   63.7310 C   0  0  0  0  0  3  0  0  0  0  0  0
   40.5580   84.4570   64.9040 C   0  0  0  0  0  2  0  0  0  0  0  0
   41.1160   84.5410   65.8430 H   0  0  0  0  0  0  0  0  0  0  0  0
  1  6  1  0  0  0  0
  2  1  2  0  0  0  0
  2  3  1  0  0  0  0
  3  4  2  0  0  0  0
  4  5  1  0  0  0  0
  5 10  1  0  0  0  0
  6  5  2  0  0  0  0
  7  1  1  0  0  0  0
  8  2  1  0  0  0  0
  9  3  1  0  0  0  0
 10 11  2  0  0  0  0
 11 12  1  0  0  0  0
 12 13  1  0  0  0  0
M  END
>  <minimizedAffinity>
-2.84970927

>  <minimizedRMSD>
3.07557821

$$$$
