
 OpenBabel03212520563D

 30 32  0  0  0  0  0  0  0  0999 V2000
   40.8950   80.2370   61.6840 C   0  0  0  0  0  0  0  0  0  0  0  0
   40.8300   79.0170   62.3330 C   0  0  0  0  0  0  0  0  0  0  0  0
   40.4650   77.9440   61.6070 C   0  0  0  0  0  0  0  0  0  0  0  0
   40.1700   78.0830   60.2590 C   0  0  0  0  0  0  0  0  0  0  0  0
   40.4250   79.8930   59.9660 S   0  0  0  0  0  0  0  0  0  0  0  0
   41.0600   78.9060   63.3850 H   0  0  0  0  0  0  0  0  0  0  0  0
   40.3540   76.9150   61.9180 H   0  0  0  0  0  0  0  0  0  0  0  0
   42.9480   83.0470   62.8400 C   0  0  0  0  0  0  0  0  0  0  0  0
   42.0240   83.8540   63.5520 C   0  0  0  0  0  0  0  0  0  0  0  0
   40.7180   83.4200   63.6230 C   0  0  0  0  0  0  0  0  0  0  0  0
   40.3780   82.2620   63.0180 N   0  0  0  0  0  0  0  0  0  0  0  0
   41.2820   81.5150   62.3460 C   0  0  0  0  0  0  0  0  0  0  0  0
   42.5440   81.9030   62.2600 N   0  0  0  0  0  0  0  0  0  0  0  0
   43.9720   83.3840   62.7820 H   0  0  0  0  0  0  0  0  0  0  0  0
   42.3010   84.7800   64.0350 H   0  0  0  0  0  0  0  0  0  0  0  0
   39.9310   83.9420   64.1330 H   0  0  0  0  0  0  0  0  0  0  0  0
   39.7580   77.2250   59.1780 C   0  0  0  0  0  0  0  0  0  0  0  0
   40.4620   76.0720   58.9540 C   0  0  0  0  0  0  0  0  0  0  0  0
   39.9500   75.3370   57.8740 C   0  0  0  0  0  0  0  0  0  0  0  0
   38.8840   75.7100   57.1310 N   0  0  0  0  0  0  0  0  0  0  0  0
   38.2580   76.8720   57.4390 C   0  0  0  0  0  0  0  0  0  0  0  0
   38.7000   77.6360   58.4720 N   0  0  0  0  0  0  0  0  0  0  0  0
   41.3100   75.7250   59.5060 H   0  0  0  0  0  0  0  0  0  0  0  0
   40.4030   74.3960   57.5720 H   0  0  0  0  0  0  0  0  0  0  0  0
   37.1170   77.2760   56.6440 C   0  0  0  0  0  0  0  0  0  0  0  0
   35.9970   77.2270   57.1910 O   0  0  0  0  0  0  0  0  0  0  0  0
   37.2950   77.7200   55.2650 C   0  0  0  0  0  3  0  0  0  0  0  0
   37.4300   78.9940   54.9360 C   0  0  0  0  0  3  0  0  0  0  0  0
   37.4070   80.0500   55.9810 C   0  0  0  0  0  2  0  0  0  0  0  0
   36.4410   80.0250   56.4960 H   0  0  0  0  0  0  0  0  0  0  0  0
  1  2  2  0  0  0  0
  1 12  1  0  0  0  0
  2  6  1  0  0  0  0
  3  7  1  0  0  0  0
  3  2  1  0  0  0  0
  4  3  2  0  0  0  0
  5  4  1  0  0  0  0
  5  1  1  0  0  0  0
  8  9  1  0  0  0  0
  9 10  2  0  0  0  0
  9 15  1  0  0  0  0
 10 16  1  0  0  0  0
 11 10  1  0  0  0  0
 12 11  2  0  0  0  0
 13 12  1  0  0  0  0
 13  8  2  0  0  0  0
 14  8  1  0  0  0  0
 17  4  1  0  0  0  0
 18 17  1  0  0  0  0
 18 23  1  0  0  0  0
 19 18  2  0  0  0  0
 20 21  2  0  0  0  0
 20 19  1  0  0  0  0
 21 22  1  0  0  0  0
 22 17  2  0  0  0  0
 24 19  1  0  0  0  0
 25 26  2  0  0  0  0
 25 21  1  0  0  0  0
 27 25  1  0  0  0  0
 28 27  2  0  0  0  0
 28 29  1  0  0  0  0
 29 30  1  0  0  0  0
M  END
>  <minimizedAffinity>
-6.00968552

>  <minimizedRMSD>
0.378718674

$$$$
