
 OpenBabel03212520563D

 30 32  0  0  0  0  0  0  0  0999 V2000
   40.8950   80.2400   61.6850 C   0  0  0  0  0  0  0  0  0  0  0  0
   40.8270   79.0210   62.3350 C   0  0  0  0  0  0  0  0  0  0  0  0
   40.4620   77.9480   61.6090 C   0  0  0  0  0  0  0  0  0  0  0  0
   40.1700   78.0870   60.2600 C   0  0  0  0  0  0  0  0  0  0  0  0
   40.4280   79.8960   59.9670 S   0  0  0  0  0  0  0  0  0  0  0  0
   41.0540   78.9100   63.3880 H   0  0  0  0  0  0  0  0  0  0  0  0
   40.3490   76.9190   61.9200 H   0  0  0  0  0  0  0  0  0  0  0  0
   42.9480   83.0510   62.8400 C   0  0  0  0  0  0  0  0  0  0  0  0
   42.0250   83.8560   63.5540 C   0  0  0  0  0  0  0  0  0  0  0  0
   40.7190   83.4220   63.6270 C   0  0  0  0  0  0  0  0  0  0  0  0
   40.3790   82.2630   63.0220 N   0  0  0  0  0  0  0  0  0  0  0  0
   41.2820   81.5180   62.3470 C   0  0  0  0  0  0  0  0  0  0  0  0
   42.5440   81.9070   62.2590 N   0  0  0  0  0  0  0  0  0  0  0  0
   43.9710   83.3880   62.7810 H   0  0  0  0  0  0  0  0  0  0  0  0
   42.3010   84.7830   64.0370 H   0  0  0  0  0  0  0  0  0  0  0  0
   39.9320   83.9430   64.1380 H   0  0  0  0  0  0  0  0  0  0  0  0
   39.7590   77.2280   59.1790 C   0  0  0  0  0  0  0  0  0  0  0  0
   40.4650   76.0760   58.9540 C   0  0  0  0  0  0  0  0  0  0  0  0
   39.9540   75.3410   57.8740 C   0  0  0  0  0  0  0  0  0  0  0  0
   38.8880   75.7130   57.1310 N   0  0  0  0  0  0  0  0  0  0  0  0
   38.2600   76.8740   57.4390 C   0  0  0  0  0  0  0  0  0  0  0  0
   38.7010   77.6380   58.4730 N   0  0  0  0  0  0  0  0  0  0  0  0
   41.3130   75.7300   59.5060 H   0  0  0  0  0  0  0  0  0  0  0  0
   40.4090   74.4000   57.5720 H   0  0  0  0  0  0  0  0  0  0  0  0
   37.1190   77.2770   56.6440 C   0  0  0  0  0  0  0  0  0  0  0  0
   35.9990   77.2270   57.1910 O   0  0  0  0  0  0  0  0  0  0  0  0
   37.2960   77.7200   55.2650 C   0  0  0  0  0  0  0  0  0  0  0  0
   37.4310   78.9940   54.9360 C   0  0  0  0  0  0  0  0  0  0  0  0
   37.4060   80.0500   55.9790 C   0  0  0  0  0  0  0  0  0  0  0  0
   36.4410   80.0250   56.4940 H   0  0  0  0  0  0  0  0  0  0  0  0
  1  2  2  0  0  0  0
  1 12  1  0  0  0  0
  2  6  1  0  0  0  0
  3  7  1  0  0  0  0
  3  2  1  0  0  0  0
  4  3  2  0  0  0  0
  5  4  1  0  0  0  0
  5  1  1  0  0  0  0
  8  9  1  0  0  0  0
  9 10  2  0  0  0  0
  9 15  1  0  0  0  0
 10 16  1  0  0  0  0
 11 10  1  0  0  0  0
 12 11  2  0  0  0  0
 13 12  1  0  0  0  0
 13  8  2  0  0  0  0
 14  8  1  0  0  0  0
 17  4  1  0  0  0  0
 18 17  1  0  0  0  0
 18 23  1  0  0  0  0
 19 18  2  0  0  0  0
 20 21  2  0  0  0  0
 20 19  1  0  0  0  0
 21 22  1  0  0  0  0
 22 17  2  0  0  0  0
 24 19  1  0  0  0  0
 25 26  2  0  0  0  0
 25 21  1  0  0  0  0
 27 25  1  0  0  0  0
 28 27  2  0  0  0  0
 28 29  1  0  0  0  0
 29 30  1  0  0  0  0
M  END
>  <minimizedAffinity>
-6.01259565

>  <minimizedRMSD>
0.513695598

$$$$
