
 OpenBabel03212520083D

 13 13  0  0  0  0  0  0  0  0999 V2000
   40.0340   81.9650   60.6440 C   0  0  0  0  0  0  0  0  0  0  0  0
   40.0830   82.8830   59.5840 C   0  0  0  0  0  0  0  0  0  0  0  0
   39.5380   84.1550   59.7770 C   0  0  0  0  0  0  0  0  0  0  0  0
   38.9790   84.4500   60.9900 N   0  0  0  0  0  0  0  0  0  0  0  0
   38.9510   83.5350   61.9920 C   0  0  0  0  0  0  0  0  0  0  0  0
   39.4740   82.3170   61.8050 N   0  0  0  0  0  0  0  0  0  0  0  0
   40.4610   80.9950   60.4660 H   0  0  0  0  0  0  0  0  0  0  0  0
   39.5320   84.9070   59.0320 H   0  0  0  0  0  0  0  0  0  0  0  0
   38.4860   83.8690   62.9120 H   0  0  0  0  0  0  0  0  0  0  0  0
   40.6850   82.5450   58.2960 C   0  0  0  0  0  3  0  0  0  0  0  0
   40.3090   81.5640   57.4970 C   0  0  0  0  0  3  0  0  0  0  0  0
   40.9860   81.2950   56.1970 C   0  0  0  0  0  2  0  0  0  0  0  0
   40.8200   80.2690   55.8580 H   0  0  0  0  0  0  0  0  0  0  0  0
  1  6  1  0  0  0  0
  2  3  1  0  0  0  0
  2  1  2  0  0  0  0
  3  4  2  0  0  0  0
  4  5  1  0  0  0  0
  5  9  1  0  0  0  0
  6  5  2  0  0  0  0
  7  1  1  0  0  0  0
  8  3  1  0  0  0  0
 10  2  1  0  0  0  0
 11 10  2  0  0  0  0
 12 11  1  0  0  0  0
 13 12  1  0  0  0  0
M  END
>  <minimizedAffinity>
-3.80402088

>  <minimizedRMSD>
0.510276079

$$$$
