
 OpenBabel03212520083D

 13 13  0  0  0  0  0  0  0  0999 V2000
   40.0550   81.9820   60.6230 C   0  0  0  0  0  0  0  0  0  0  0  0
   40.1110   82.9110   59.5720 C   0  0  0  0  0  0  0  0  0  0  0  0
   39.5520   84.1750   59.7700 C   0  0  0  0  0  0  0  0  0  0  0  0
   38.9740   84.4540   60.9780 N   0  0  0  0  0  0  0  0  0  0  0  0
   38.9400   83.5290   61.9710 C   0  0  0  0  0  0  0  0  0  0  0  0
   39.4760   82.3180   61.7790 N   0  0  0  0  0  0  0  0  0  0  0  0
   40.4930   81.0180   60.4420 H   0  0  0  0  0  0  0  0  0  0  0  0
   39.5510   84.9350   59.0320 H   0  0  0  0  0  0  0  0  0  0  0  0
   38.4590   83.8500   62.8870 H   0  0  0  0  0  0  0  0  0  0  0  0
   40.7330   82.5900   58.2900 C   0  0  0  0  0  3  0  0  0  0  0  0
   41.4750   83.4050   57.5610 C   0  0  0  0  0  3  0  0  0  0  0  0
   42.0700   82.9850   56.2610 C   0  0  0  0  0  2  0  0  0  0  0  0
   42.3150   83.8460   55.6320 H   0  0  0  0  0  0  0  0  0  0  0  0
  1  6  1  0  0  0  0
  2  3  1  0  0  0  0
  2  1  2  0  0  0  0
  3  4  2  0  0  0  0
  4  5  1  0  0  0  0
  5  9  1  0  0  0  0
  6  5  2  0  0  0  0
  7  1  1  0  0  0  0
  8  3  1  0  0  0  0
 10  2  1  0  0  0  0
 11 10  2  0  0  0  0
 12 11  1  0  0  0  0
 13 12  1  0  0  0  0
M  END
>  <minimizedAffinity>
-3.73072171

>  <minimizedRMSD>
0.370556772

$$$$
