
 OpenBabel03212520563D

 30 32  0  0  0  0  0  0  0  0999 V2000
   40.9480   80.3050   61.7480 C   0  0  0  0  0  0  0  0  0  0  0  0
   40.8780   79.0790   62.3840 C   0  0  0  0  0  0  0  0  0  0  0  0
   40.5100   78.0160   61.6470 C   0  0  0  0  0  0  0  0  0  0  0  0
   40.2180   78.1700   60.2990 C   0  0  0  0  0  0  0  0  0  0  0  0
   40.4800   79.9820   60.0270 S   0  0  0  0  0  0  0  0  0  0  0  0
   41.1060   78.9560   63.4360 H   0  0  0  0  0  0  0  0  0  0  0  0
   40.3950   76.9830   61.9460 H   0  0  0  0  0  0  0  0  0  0  0  0
   42.9930   83.1350   62.8750 C   0  0  0  0  0  0  0  0  0  0  0  0
   42.0880   83.8990   63.6550 C   0  0  0  0  0  0  0  0  0  0  0  0
   40.7980   83.4310   63.7810 C   0  0  0  0  0  0  0  0  0  0  0  0
   40.4540   82.2810   63.1620 N   0  0  0  0  0  0  0  0  0  0  0  0
   41.3400   81.5750   62.4250 C   0  0  0  0  0  0  0  0  0  0  0  0
   42.5860   81.9970   62.2840 N   0  0  0  0  0  0  0  0  0  0  0  0
   44.0040   83.4980   62.7740 H   0  0  0  0  0  0  0  0  0  0  0  0
   42.3680   84.8190   64.1490 H   0  0  0  0  0  0  0  0  0  0  0  0
   40.0260   83.9200   64.3440 H   0  0  0  0  0  0  0  0  0  0  0  0
   39.8040   77.3250   59.2090 C   0  0  0  0  0  0  0  0  0  0  0  0
   40.3930   76.0950   59.0750 C   0  0  0  0  0  0  0  0  0  0  0  0
   39.8940   75.3840   57.9740 C   0  0  0  0  0  0  0  0  0  0  0  0
   38.9410   75.8450   57.1320 N   0  0  0  0  0  0  0  0  0  0  0  0
   38.4240   77.0770   57.3560 C   0  0  0  0  0  0  0  0  0  0  0  0
   38.8600   77.8240   58.4050 N   0  0  0  0  0  0  0  0  0  0  0  0
   41.1480   75.6780   59.7060 H   0  0  0  0  0  0  0  0  0  0  0  0
   40.2640   74.3890   57.7350 H   0  0  0  0  0  0  0  0  0  0  0  0
   37.4040   77.5740   56.4570 C   0  0  0  0  0  0  0  0  0  0  0  0
   36.9440   76.7720   55.6190 O   0  0  0  0  0  0  0  0  0  0  0  0
   36.9480   78.9590   56.5460 C   0  0  0  0  0  3  0  0  0  0  0  0
   37.4590   79.9270   55.8030 C   0  0  0  0  0  3  0  0  0  0  0  0
   38.5420   79.6400   54.8280 C   0  0  0  0  0  2  0  0  0  0  0  0
   39.4130   79.2480   55.3630 H   0  0  0  0  0  0  0  0  0  0  0  0
  1  2  2  0  0  0  0
  1 12  1  0  0  0  0
  2  6  1  0  0  0  0
  3  7  1  0  0  0  0
  3  2  1  0  0  0  0
  4  3  2  0  0  0  0
  5  4  1  0  0  0  0
  5  1  1  0  0  0  0
  8  9  1  0  0  0  0
  9 10  2  0  0  0  0
  9 15  1  0  0  0  0
 10 16  1  0  0  0  0
 11 10  1  0  0  0  0
 12 11  2  0  0  0  0
 13 12  1  0  0  0  0
 13  8  2  0  0  0  0
 14  8  1  0  0  0  0
 17  4  1  0  0  0  0
 18 17  1  0  0  0  0
 18 23  1  0  0  0  0
 19 18  2  0  0  0  0
 20 21  2  0  0  0  0
 20 19  1  0  0  0  0
 21 22  1  0  0  0  0
 22 17  2  0  0  0  0
 24 19  1  0  0  0  0
 25 27  1  0  0  0  0
 25 21  1  0  0  0  0
 26 25  2  0  0  0  0
 28 27  2  0  0  0  0
 29 30  1  0  0  0  0
 29 28  1  0  0  0  0
M  END
>  <minimizedAffinity>
-5.84150505

>  <minimizedRMSD>
1.16878223

$$$$
