
 OpenBabel03212521023D

 23 24  0  0  0  0  0  0  0  0999 V2000
   42.1190   84.3040   62.1950 C   0  0  0  0  0  0  0  0  0  0  0  0
   42.5880   84.3030   63.5170 C   0  0  0  0  0  0  0  0  0  0  0  0
   41.7770   84.0450   64.5890 C   0  0  0  0  0  0  0  0  0  0  0  0
   40.4170   83.7690   64.3430 C   0  0  0  0  0  0  0  0  0  0  0  0
   39.9500   83.7690   63.0350 C   0  0  0  0  0  0  0  0  0  0  0  0
   40.7900   84.0330   61.9730 C   0  0  0  0  0  0  0  0  0  0  0  0
   43.6480   84.5230   63.6540 H   0  0  0  0  0  0  0  0  0  0  0  0
   42.2070   84.0630   65.5620 H   0  0  0  0  0  0  0  0  0  0  0  0
   39.8370   83.5740   65.2330 H   0  0  0  0  0  0  0  0  0  0  0  0
   38.9130   83.5430   63.0350 H   0  0  0  0  0  0  0  0  0  0  0  0
   44.5200   83.8230   59.4830 C   0  0  0  0  0  0  0  0  0  0  0  0
   44.8050   85.1490   59.0960 C   0  0  0  0  0  0  0  0  0  0  0  0
   44.1690   86.2010   59.7640 C   0  0  0  0  0  0  0  0  0  0  0  0
   43.3140   85.8670   60.7500 N   0  0  0  0  0  0  0  0  0  0  0  0
   43.0480   84.5740   61.1150 C   0  0  0  0  0  0  0  0  0  0  0  0
   43.6470   83.5710   60.4840 N   0  0  0  0  0  0  0  0  0  0  0  0
   44.9980   82.9850   58.9820 H   0  0  0  0  0  0  0  0  0  0  0  0
   45.5010   85.3570   58.2960 H   0  0  0  0  0  0  0  0  0  0  0  0
   44.3460   87.2370   59.5140 H   0  0  0  0  0  0  0  0  0  0  0  0
   40.1830   84.0230   60.6650 C   0  0  0  0  0  3  0  0  0  0  0  0
   39.6970   85.0950   60.0610 C   0  0  0  0  0  3  0  0  0  0  0  0
   39.0550   85.2800   58.7580 C   0  0  0  0  0  2  0  0  0  0  0  0
   38.0830   85.7700   58.7560 H   0  0  0  0  0  0  0  0  0  0  0  0
  1  2  1  0  0  0  0
  2  7  1  0  0  0  0
  2  3  2  0  0  0  0
  3  8  1  0  0  0  0
  4  3  1  0  0  0  0
  4  9  1  0  0  0  0
  5  4  2  0  0  0  0
  6  1  2  0  0  0  0
  6  5  1  0  0  0  0
 10  5  1  0  0  0  0
 11 16  1  0  0  0  0
 12 11  2  0  0  0  0
 12 13  1  0  0  0  0
 13 14  2  0  0  0  0
 14 15  1  0  0  0  0
 15  1  1  0  0  0  0
 16 15  2  0  0  0  0
 17 11  1  0  0  0  0
 18 12  1  0  0  0  0
 19 13  1  0  0  0  0
 20  6  1  0  0  0  0
 21 20  2  0  0  0  0
 22 21  1  0  0  0  0
 23 22  1  0  0  0  0
M  END
>  <minimizedAffinity>
-4.2537837

>  <minimizedRMSD>
1.13434112

$$$$
