
 OpenBabel03212520083D

 13 13  0  0  0  0  0  0  0  0999 V2000
   40.0540   81.9810   60.6220 C   0  0  0  0  0  0  0  0  0  0  0  0
   40.1110   82.9100   59.5720 C   0  0  0  0  0  0  0  0  0  0  0  0
   39.5530   84.1750   59.7700 C   0  0  0  0  0  0  0  0  0  0  0  0
   38.9750   84.4530   60.9780 N   0  0  0  0  0  0  0  0  0  0  0  0
   38.9400   83.5280   61.9710 C   0  0  0  0  0  0  0  0  0  0  0  0
   39.4760   82.3170   61.7780 N   0  0  0  0  0  0  0  0  0  0  0  0
   40.4920   81.0170   60.4410 H   0  0  0  0  0  0  0  0  0  0  0  0
   39.5510   84.9350   59.0320 H   0  0  0  0  0  0  0  0  0  0  0  0
   38.4590   83.8490   62.8870 H   0  0  0  0  0  0  0  0  0  0  0  0
   40.7330   82.5900   58.2890 C   0  0  0  0  0  3  0  0  0  0  0  0
   41.4750   83.4050   57.5620 C   0  0  0  0  0  3  0  0  0  0  0  0
   42.0700   82.9860   56.2600 C   0  0  0  0  0  2  0  0  0  0  0  0
   42.3160   83.8470   55.6320 H   0  0  0  0  0  0  0  0  0  0  0  0
  1  6  1  0  0  0  0
  2  3  1  0  0  0  0
  2  1  2  0  0  0  0
  3  4  2  0  0  0  0
  4  5  1  0  0  0  0
  5  9  1  0  0  0  0
  6  5  2  0  0  0  0
  7  1  1  0  0  0  0
  8  3  1  0  0  0  0
 10  2  1  0  0  0  0
 11 10  2  0  0  0  0
 12 11  1  0  0  0  0
 13 12  1  0  0  0  0
M  END
>  <minimizedAffinity>
-3.72776723

>  <minimizedRMSD>
0.74230051

$$$$
