
 OpenBabel03212521033D

 23 24  0  0  0  0  0  0  0  0999 V2000
   41.8200   84.2120   61.6790 C   0  0  0  0  0  0  0  0  0  0  0  0
   41.3950   83.9810   62.9960 C   0  0  0  0  0  0  0  0  0  0  0  0
   40.1150   83.6040   63.3040 C   0  0  0  0  0  0  0  0  0  0  0  0
   39.1960   83.4440   62.2480 C   0  0  0  0  0  0  0  0  0  0  0  0
   39.6140   83.6720   60.9440 C   0  0  0  0  0  0  0  0  0  0  0  0
   40.9110   84.0510   60.6610 C   0  0  0  0  0  0  0  0  0  0  0  0
   42.1440   84.1190   63.7770 H   0  0  0  0  0  0  0  0  0  0  0  0
   39.8690   83.4480   64.3270 H   0  0  0  0  0  0  0  0  0  0  0  0
   38.2070   83.1460   62.5630 H   0  0  0  0  0  0  0  0  0  0  0  0
   38.8010   83.5060   60.2820 H   0  0  0  0  0  0  0  0  0  0  0  0
   45.4070   84.0210   61.0070 C   0  0  0  0  0  0  0  0  0  0  0  0
   45.7840   85.3810   61.0040 C   0  0  0  0  0  0  0  0  0  0  0  0
   44.8060   86.3550   61.2290 C   0  0  0  0  0  0  0  0  0  0  0  0
   43.5480   85.9190   61.4370 N   0  0  0  0  0  0  0  0  0  0  0  0
   43.1970   84.5950   61.4370 C   0  0  0  0  0  0  0  0  0  0  0  0
   44.1210   83.6650   61.2250 N   0  0  0  0  0  0  0  0  0  0  0  0
   46.1450   83.2420   60.8360 H   0  0  0  0  0  0  0  0  0  0  0  0
   46.8090   85.6720   60.8310 H   0  0  0  0  0  0  0  0  0  0  0  0
   45.0320   87.4120   61.2380 H   0  0  0  0  0  0  0  0  0  0  0  0
   41.2180   84.2770   59.2710 C   0  0  0  0  0  3  0  0  0  0  0  0
   40.9330   85.3910   58.6160 C   0  0  0  0  0  3  0  0  0  0  0  0
   41.1610   85.7980   57.2280 C   0  0  0  0  0  2  0  0  0  0  0  0
   40.2930   86.1430   56.6690 H   0  0  0  0  0  0  0  0  0  0  0  0
  1  2  1  0  0  0  0
  2  3  2  0  0  0  0
  2  7  1  0  0  0  0
  3  8  1  0  0  0  0
  4  9  1  0  0  0  0
  4  3  1  0  0  0  0
  5  4  2  0  0  0  0
  6  5  1  0  0  0  0
  6  1  2  0  0  0  0
 10  5  1  0  0  0  0
 11 16  1  0  0  0  0
 12 11  2  0  0  0  0
 12 13  1  0  0  0  0
 13 19  1  0  0  0  0
 13 14  2  0  0  0  0
 14 15  1  0  0  0  0
 15  1  1  0  0  0  0
 16 15  2  0  0  0  0
 17 11  1  0  0  0  0
 18 12  1  0  0  0  0
 20  6  1  0  0  0  0
 21 20  2  0  0  0  0
 22 21  1  0  0  0  0
 23 22  1  0  0  0  0
M  END
>  <minimizedAffinity>
-4.46012974

>  <minimizedRMSD>
2.47005701

$$$$
