
 OpenBabel03212520083D

 13 13  0  0  0  0  0  0  0  0999 V2000
   40.0330   81.9660   60.6450 C   0  0  0  0  0  0  0  0  0  0  0  0
   40.0830   82.8840   59.5850 C   0  0  0  0  0  0  0  0  0  0  0  0
   39.5370   84.1550   59.7780 C   0  0  0  0  0  0  0  0  0  0  0  0
   38.9790   84.4510   60.9900 N   0  0  0  0  0  0  0  0  0  0  0  0
   38.9500   83.5360   61.9930 C   0  0  0  0  0  0  0  0  0  0  0  0
   39.4740   82.3180   61.8050 N   0  0  0  0  0  0  0  0  0  0  0  0
   40.4610   80.9960   60.4670 H   0  0  0  0  0  0  0  0  0  0  0  0
   39.5320   84.9080   59.0320 H   0  0  0  0  0  0  0  0  0  0  0  0
   38.4850   83.8700   62.9130 H   0  0  0  0  0  0  0  0  0  0  0  0
   40.6840   82.5460   58.2970 C   0  0  0  0  0  3  0  0  0  0  0  0
   40.3080   81.5640   57.4980 C   0  0  0  0  0  3  0  0  0  0  0  0
   40.9870   81.2960   56.1980 C   0  0  0  0  0  2  0  0  0  0  0  0
   40.8210   80.2690   55.8590 H   0  0  0  0  0  0  0  0  0  0  0  0
  1  6  1  0  0  0  0
  2  3  1  0  0  0  0
  2  1  2  0  0  0  0
  3  4  2  0  0  0  0
  4  5  1  0  0  0  0
  5  9  1  0  0  0  0
  6  5  2  0  0  0  0
  7  1  1  0  0  0  0
  8  3  1  0  0  0  0
 10  2  1  0  0  0  0
 11 10  2  0  0  0  0
 12 11  1  0  0  0  0
 13 12  1  0  0  0  0
M  END
>  <minimizedAffinity>
-3.8039434

>  <minimizedRMSD>
0.287053317

$$$$
