
 OpenBabel03212520563D

 30 32  0  0  0  0  0  0  0  0999 V2000
   41.0380   80.7480   60.7390 C   0  0  0  0  0  0  0  0  0  0  0  0
   40.4790   80.1910   61.8750 C   0  0  0  0  0  0  0  0  0  0  0  0
   40.6490   78.8700   62.0690 C   0  0  0  0  0  0  0  0  0  0  0  0
   41.3620   78.1170   61.1480 C   0  0  0  0  0  0  0  0  0  0  0  0
   41.8490   79.3730   59.8790 S   0  0  0  0  0  0  0  0  0  0  0  0
   39.9220   80.7770   62.5960 H   0  0  0  0  0  0  0  0  0  0  0  0
   40.2980   78.2480   62.8810 H   0  0  0  0  0  0  0  0  0  0  0  0
   41.6580   84.3630   60.7550 C   0  0  0  0  0  0  0  0  0  0  0  0
   40.7790   84.8480   59.7530 C   0  0  0  0  0  0  0  0  0  0  0  0
   39.9930   83.9290   59.0930 C   0  0  0  0  0  0  0  0  0  0  0  0
   40.0910   82.6230   59.4230 N   0  0  0  0  0  0  0  0  0  0  0  0
   40.9390   82.1920   60.3820 C   0  0  0  0  0  0  0  0  0  0  0  0
   41.7080   83.0480   61.0360 N   0  0  0  0  0  0  0  0  0  0  0  0
   42.2760   85.0790   61.2740 H   0  0  0  0  0  0  0  0  0  0  0  0
   40.7030   85.8940   59.4930 H   0  0  0  0  0  0  0  0  0  0  0  0
   39.2910   84.1750   58.3190 H   0  0  0  0  0  0  0  0  0  0  0  0
   41.7520   76.7400   60.9920 C   0  0  0  0  0  0  0  0  0  0  0  0
   43.0740   76.4130   61.1400 C   0  0  0  0  0  0  0  0  0  0  0  0
   43.3070   75.0410   60.9610 C   0  0  0  0  0  0  0  0  0  0  0  0
   42.3470   74.1330   60.6760 N   0  0  0  0  0  0  0  0  0  0  0  0
   41.0680   74.5630   60.5510 C   0  0  0  0  0  0  0  0  0  0  0  0
   40.7690   75.8790   60.7100 N   0  0  0  0  0  0  0  0  0  0  0  0
   43.8760   77.0840   61.3640 H   0  0  0  0  0  0  0  0  0  0  0  0
   44.3090   74.6270   61.0470 H   0  0  0  0  0  0  0  0  0  0  0  0
   40.0370   73.5930   60.2450 C   0  0  0  0  0  0  0  0  0  0  0  0
   38.8530   73.9560   60.3950 O   0  0  0  0  0  0  0  0  0  0  0  0
   40.3920   72.2560   59.7800 C   0  0  0  0  0  3  0  0  0  0  0  0
   40.4860   71.9480   58.4970 C   0  0  0  0  0  3  0  0  0  0  0  0
   40.2280   72.9730   57.4530 C   0  0  0  0  0  2  0  0  0  0  0  0
   39.1980   73.3330   57.5510 H   0  0  0  0  0  0  0  0  0  0  0  0
  1  2  2  0  0  0  0
  2  3  1  0  0  0  0
  2  6  1  0  0  0  0
  3  7  1  0  0  0  0
  4  3  2  0  0  0  0
  5  1  1  0  0  0  0
  5  4  1  0  0  0  0
  8 13  1  0  0  0  0
  8 14  1  0  0  0  0
  9  8  2  0  0  0  0
 10 11  2  0  0  0  0
 10  9  1  0  0  0  0
 11 12  1  0  0  0  0
 12  1  1  0  0  0  0
 12 13  2  0  0  0  0
 15  9  1  0  0  0  0
 16 10  1  0  0  0  0
 17 18  1  0  0  0  0
 17  4  1  0  0  0  0
 18 23  1  0  0  0  0
 19 24  1  0  0  0  0
 19 18  2  0  0  0  0
 20 19  1  0  0  0  0
 21 20  2  0  0  0  0
 21 22  1  0  0  0  0
 22 17  2  0  0  0  0
 25 26  2  0  0  0  0
 25 21  1  0  0  0  0
 27 25  1  0  0  0  0
 28 27  2  0  0  0  0
 29 30  1  0  0  0  0
 29 28  1  0  0  0  0
M  END
>  <minimizedAffinity>
-4.57593966

>  <minimizedRMSD>
4.45281124

$$$$
