
 OpenBabel03212520083D

 13 13  0  0  0  0  0  0  0  0999 V2000
   40.0340   81.9660   60.6450 C   0  0  0  0  0  0  0  0  0  0  0  0
   40.0830   82.8840   59.5850 C   0  0  0  0  0  0  0  0  0  0  0  0
   39.5380   84.1550   59.7770 C   0  0  0  0  0  0  0  0  0  0  0  0
   38.9790   84.4510   60.9900 N   0  0  0  0  0  0  0  0  0  0  0  0
   38.9500   83.5360   61.9920 C   0  0  0  0  0  0  0  0  0  0  0  0
   39.4740   82.3180   61.8050 N   0  0  0  0  0  0  0  0  0  0  0  0
   40.4610   80.9960   60.4670 H   0  0  0  0  0  0  0  0  0  0  0  0
   39.5320   84.9070   59.0310 H   0  0  0  0  0  0  0  0  0  0  0  0
   38.4850   83.8700   62.9120 H   0  0  0  0  0  0  0  0  0  0  0  0
   40.6850   82.5450   58.2970 C   0  0  0  0  0  3  0  0  0  0  0  0
   40.3080   81.5650   57.4980 C   0  0  0  0  0  3  0  0  0  0  0  0
   40.9870   81.2950   56.1980 C   0  0  0  0  0  2  0  0  0  0  0  0
   40.8200   80.2680   55.8600 H   0  0  0  0  0  0  0  0  0  0  0  0
  1  6  1  0  0  0  0
  2  3  1  0  0  0  0
  2  1  2  0  0  0  0
  3  4  2  0  0  0  0
  4  5  1  0  0  0  0
  5  9  1  0  0  0  0
  6  5  2  0  0  0  0
  7  1  1  0  0  0  0
  8  3  1  0  0  0  0
 10  2  1  0  0  0  0
 11 10  2  0  0  0  0
 12 11  1  0  0  0  0
 13 12  1  0  0  0  0
M  END
>  <minimizedAffinity>
-3.80379462

>  <minimizedRMSD>
0.394265562

$$$$
