
 OpenBabel03212520563D

 30 32  0  0  0  0  0  0  0  0999 V2000
   40.9670   80.2810   61.7320 C   0  0  0  0  0  0  0  0  0  0  0  0
   40.9700   79.0390   62.3400 C   0  0  0  0  0  0  0  0  0  0  0  0
   40.5800   77.9840   61.6020 C   0  0  0  0  0  0  0  0  0  0  0  0
   40.1940   78.1620   60.2810 C   0  0  0  0  0  0  0  0  0  0  0  0
   40.3930   79.9860   60.0380 S   0  0  0  0  0  0  0  0  0  0  0  0
   41.2700   78.8980   63.3710 H   0  0  0  0  0  0  0  0  0  0  0  0
   40.5100   76.9420   61.8820 H   0  0  0  0  0  0  0  0  0  0  0  0
   43.0360   83.0930   62.8570 C   0  0  0  0  0  0  0  0  0  0  0  0
   42.1430   83.8570   63.6510 C   0  0  0  0  0  0  0  0  0  0  0  0
   40.8520   83.3940   63.7860 C   0  0  0  0  0  0  0  0  0  0  0  0
   40.4960   82.2500   63.1640 N   0  0  0  0  0  0  0  0  0  0  0  0
   41.3710   81.5450   62.4130 C   0  0  0  0  0  0  0  0  0  0  0  0
   42.6180   81.9610   62.2630 N   0  0  0  0  0  0  0  0  0  0  0  0
   44.0480   83.4520   62.7490 H   0  0  0  0  0  0  0  0  0  0  0  0
   42.4320   84.7720   64.1480 H   0  0  0  0  0  0  0  0  0  0  0  0
   40.0880   83.8840   64.3600 H   0  0  0  0  0  0  0  0  0  0  0  0
   39.7290   77.3330   59.2000 C   0  0  0  0  0  0  0  0  0  0  0  0
   40.3710   76.1450   58.9640 C   0  0  0  0  0  0  0  0  0  0  0  0
   39.8130   75.4440   57.8850 C   0  0  0  0  0  0  0  0  0  0  0  0
   38.7620   75.8760   57.1520 N   0  0  0  0  0  0  0  0  0  0  0  0
   38.2000   77.0670   57.4710 C   0  0  0  0  0  0  0  0  0  0  0  0
   38.6890   77.8020   58.5050 N   0  0  0  0  0  0  0  0  0  0  0  0
   41.2040   75.7520   59.5070 H   0  0  0  0  0  0  0  0  0  0  0  0
   40.2150   74.4820   57.5740 H   0  0  0  0  0  0  0  0  0  0  0  0
   37.0750   77.5340   56.6880 C   0  0  0  0  0  0  0  0  0  0  0  0
   35.9470   77.1000   56.9980 O   0  0  0  0  0  0  0  0  0  0  0  0
   37.2760   78.4730   55.5880 C   0  0  0  0  0  3  0  0  0  0  0  0
   37.2630   78.0990   54.3200 C   0  0  0  0  0  3  0  0  0  0  0  0
   37.0380   76.6770   53.9530 C   0  0  0  0  0  2  0  0  0  0  0  0
   37.8350   76.0640   54.3880 H   0  0  0  0  0  0  0  0  0  0  0  0
  1  2  2  0  0  0  0
  1 12  1  0  0  0  0
  2  6  1  0  0  0  0
  3  7  1  0  0  0  0
  3  2  1  0  0  0  0
  4  3  2  0  0  0  0
  5  4  1  0  0  0  0
  5  1  1  0  0  0  0
  8  9  1  0  0  0  0
  9 10  2  0  0  0  0
  9 15  1  0  0  0  0
 10 16  1  0  0  0  0
 11 10  1  0  0  0  0
 12 11  2  0  0  0  0
 13 12  1  0  0  0  0
 13  8  2  0  0  0  0
 14  8  1  0  0  0  0
 17  4  1  0  0  0  0
 18 17  1  0  0  0  0
 18 23  1  0  0  0  0
 19 18  2  0  0  0  0
 20 21  2  0  0  0  0
 20 19  1  0  0  0  0
 21 22  1  0  0  0  0
 22 17  2  0  0  0  0
 24 19  1  0  0  0  0
 25 26  2  0  0  0  0
 25 21  1  0  0  0  0
 27 25  1  0  0  0  0
 28 27  2  0  0  0  0
 29 28  1  0  0  0  0
 29 30  1  0  0  0  0
M  END
>  <minimizedAffinity>
-5.83503723

>  <minimizedRMSD>
0.591943681

$$$$
