
 OpenBabel03212520103D

 13 13  0  0  0  0  0  0  0  0999 V2000
   38.3880   74.3510   59.1000 C   0  0  0  0  0  0  0  0  0  0  0  0
   39.2550   74.6700   60.1560 C   0  0  0  0  0  0  0  0  0  0  0  0
   39.8080   75.9510   60.2010 C   0  0  0  0  0  0  0  0  0  0  0  0
   39.4820   76.8400   59.2150 N   0  0  0  0  0  0  0  0  0  0  0  0
   38.6390   76.4950   58.2080 C   0  0  0  0  0  0  0  0  0  0  0  0
   38.1100   75.2660   58.1670 N   0  0  0  0  0  0  0  0  0  0  0  0
   37.9780   73.3580   59.0910 H   0  0  0  0  0  0  0  0  0  0  0  0
   40.4700   76.2750   60.9620 H   0  0  0  0  0  0  0  0  0  0  0  0
   38.4460   77.2720   57.4780 H   0  0  0  0  0  0  0  0  0  0  0  0
   39.5890   73.7030   61.1990 C   0  0  0  0  0  3  0  0  0  0  0  0
   40.7270   73.0440   61.3110 C   0  0  0  0  0  3  0  0  0  0  0  0
   40.9770   72.0730   62.4140 C   0  0  0  0  0  2  0  0  0  0  0  0
   41.7690   71.3640   62.1590 H   0  0  0  0  0  0  0  0  0  0  0  0
  1  2  1  0  0  0  0
  2  3  2  0  0  0  0
  2 10  1  0  0  0  0
  3  8  1  0  0  0  0
  4  3  1  0  0  0  0
  5  4  2  0  0  0  0
  6  5  1  0  0  0  0
  6  1  2  0  0  0  0
  7  1  1  0  0  0  0
  9  5  1  0  0  0  0
 10 11  2  0  0  0  0
 11 12  1  0  0  0  0
 13 12  1  0  0  0  0
M  END
>  <minimizedAffinity>
-3.28318596

$$$$

 OpenBabel03212520103D

 13 13  0  0  0  0  0  0  0  0999 V2000
   39.7970   75.9780   60.2170 C   0  0  0  0  0  0  0  0  0  0  0  0
   39.2640   74.6810   60.1630 C   0  0  0  0  0  0  0  0  0  0  0  0
   38.4160   74.3510   59.1040 C   0  0  0  0  0  0  0  0  0  0  0  0
   38.1400   75.3060   58.1650 N   0  0  0  0  0  0  0  0  0  0  0  0
   38.6750   76.5510   58.2500 C   0  0  0  0  0  0  0  0  0  0  0  0
   39.4880   76.8640   59.2660 N   0  0  0  0  0  0  0  0  0  0  0  0
   40.4470   76.2020   61.0420 H   0  0  0  0  0  0  0  0  0  0  0  0
   37.9710   73.3970   58.9870 H   0  0  0  0  0  0  0  0  0  0  0  0
   38.3930   77.2320   57.4560 H   0  0  0  0  0  0  0  0  0  0  0  0
   39.5720   73.6760   61.1790 C   0  0  0  0  0  3  0  0  0  0  0  0
   40.7380   73.0840   61.3560 C   0  0  0  0  0  3  0  0  0  0  0  0
   40.9580   72.0670   62.4240 C   0  0  0  0  0  2  0  0  0  0  0  0
   41.8140   71.4240   62.2020 H   0  0  0  0  0  0  0  0  0  0  0  0
  1  7  1  0  0  0  0
  2  1  1  0  0  0  0
  2 10  1  0  0  0  0
  3  2  2  0  0  0  0
  4  5  2  0  0  0  0
  4  3  1  0  0  0  0
  5  6  1  0  0  0  0
  6  1  2  0  0  0  0
  8  3  1  0  0  0  0
  9  5  1  0  0  0  0
 10 11  2  0  0  0  0
 11 12  1  0  0  0  0
 13 12  1  0  0  0  0
M  END
>  <minimizedAffinity>
-3.27245545

$$$$

 OpenBabel03212520103D

 13 13  0  0  0  0  0  0  0  0999 V2000
   37.6200   75.0540   57.4820 C   0  0  0  0  0  0  0  0  0  0  0  0
   38.3470   76.2370   57.6840 C   0  0  0  0  0  0  0  0  0  0  0  0
   38.2370   77.2580   56.7380 C   0  0  0  0  0  0  0  0  0  0  0  0
   37.4260   77.0620   55.6550 N   0  0  0  0  0  0  0  0  0  0  0  0
   36.7370   75.9040   55.4930 C   0  0  0  0  0  0  0  0  0  0  0  0
   36.8440   74.9260   56.4020 N   0  0  0  0  0  0  0  0  0  0  0  0
   37.7240   74.2870   58.2260 H   0  0  0  0  0  0  0  0  0  0  0  0
   38.7510   78.1810   56.8130 H   0  0  0  0  0  0  0  0  0  0  0  0
   36.1230   75.8490   54.6010 H   0  0  0  0  0  0  0  0  0  0  0  0
   39.2090   76.4240   58.8500 C   0  0  0  0  0  3  0  0  0  0  0  0
   39.8270   77.5400   59.1870 C   0  0  0  0  0  3  0  0  0  0  0  0
   40.6880   77.6350   60.4000 C   0  0  0  0  0  2  0  0  0  0  0  0
   41.3980   78.4640   60.3290 H   0  0  0  0  0  0  0  0  0  0  0  0
  1  2  1  0  0  0  0
  1  7  1  0  0  0  0
  2 10  1  0  0  0  0
  3  8  1  0  0  0  0
  3  2  2  0  0  0  0
  4  3  1  0  0  0  0
  5  4  2  0  0  0  0
  5  6  1  0  0  0  0
  6  1  2  0  0  0  0
  9  5  1  0  0  0  0
 10 11  2  0  0  0  0
 11 12  1  0  0  0  0
 13 12  1  0  0  0  0
M  END
>  <minimizedAffinity>
-3.25475836

$$$$

 OpenBabel03212520103D

 13 13  0  0  0  0  0  0  0  0999 V2000
   41.3190   74.5800   59.9400 C   0  0  0  0  0  0  0  0  0  0  0  0
   40.3940   74.1260   60.8930 C   0  0  0  0  0  0  0  0  0  0  0  0
   39.2980   74.9370   61.1970 C   0  0  0  0  0  0  0  0  0  0  0  0
   39.1740   76.1370   60.5540 N   0  0  0  0  0  0  0  0  0  0  0  0
   40.0890   76.5420   59.6370 C   0  0  0  0  0  0  0  0  0  0  0  0
   41.1390   75.7630   59.3470 N   0  0  0  0  0  0  0  0  0  0  0  0
   42.1520   73.9350   59.7260 H   0  0  0  0  0  0  0  0  0  0  0  0
   38.5540   74.6720   61.9030 H   0  0  0  0  0  0  0  0  0  0  0  0
   39.8980   77.5080   59.1860 H   0  0  0  0  0  0  0  0  0  0  0  0
   40.5490   72.8400   61.5680 C   0  0  0  0  0  3  0  0  0  0  0  0
   41.5540   72.4870   62.3470 C   0  0  0  0  0  3  0  0  0  0  0  0
   41.6240   71.1470   62.9940 C   0  0  0  0  0  2  0  0  0  0  0  0
   42.6490   70.8850   63.2740 H   0  0  0  0  0  0  0  0  0  0  0  0
  1  2  1  0  0  0  0
  2  3  2  0  0  0  0
  2 10  1  0  0  0  0
  3  8  1  0  0  0  0
  4  3  1  0  0  0  0
  5  4  2  0  0  0  0
  6  5  1  0  0  0  0
  6  1  2  0  0  0  0
  7  1  1  0  0  0  0
  9  5  1  0  0  0  0
 10 11  2  0  0  0  0
 11 12  1  0  0  0  0
 12 13  1  0  0  0  0
M  END
>  <minimizedAffinity>
-3.23109031

$$$$

 OpenBabel03212520103D

 13 13  0  0  0  0  0  0  0  0999 V2000
   37.1990   75.1010   57.0980 C   0  0  0  0  0  0  0  0  0  0  0  0
   38.2680   75.4970   57.9160 C   0  0  0  0  0  0  0  0  0  0  0  0
   38.8060   76.7730   57.7400 C   0  0  0  0  0  0  0  0  0  0  0  0
   38.2690   77.5830   56.7770 N   0  0  0  0  0  0  0  0  0  0  0  0
   37.2350   77.1650   56.0040 C   0  0  0  0  0  0  0  0  0  0  0  0
   36.7200   75.9410   56.1760 N   0  0  0  0  0  0  0  0  0  0  0  0
   36.8060   74.1140   57.2570 H   0  0  0  0  0  0  0  0  0  0  0  0
   39.6120   77.1520   58.3130 H   0  0  0  0  0  0  0  0  0  0  0  0
   36.8840   77.8820   55.2720 H   0  0  0  0  0  0  0  0  0  0  0  0
   38.8260   74.6140   58.9390 C   0  0  0  0  0  3  0  0  0  0  0  0
   38.4170   74.5200   60.1900 C   0  0  0  0  0  3  0  0  0  0  0  0
   39.0510   73.5870   61.1640 C   0  0  0  0  0  2  0  0  0  0  0  0
   38.8670   73.8930   62.1980 H   0  0  0  0  0  0  0  0  0  0  0  0
  1  7  1  0  0  0  0
  1  2  1  0  0  0  0
  2 10  1  0  0  0  0
  3  2  2  0  0  0  0
  3  8  1  0  0  0  0
  4  3  1  0  0  0  0
  5  6  1  0  0  0  0
  5  4  2  0  0  0  0
  6  1  2  0  0  0  0
  9  5  1  0  0  0  0
 10 11  2  0  0  0  0
 11 12  1  0  0  0  0
 12 13  1  0  0  0  0
M  END
>  <minimizedAffinity>
-3.22158074

$$$$

 OpenBabel03212520103D

 13 13  0  0  0  0  0  0  0  0999 V2000
   39.2110   73.6770   61.2910 C   0  0  0  0  0  0  0  0  0  0  0  0
   40.5500   73.4370   60.9480 C   0  0  0  0  0  0  0  0  0  0  0  0
   41.2220   74.3880   60.1760 C   0  0  0  0  0  0  0  0  0  0  0  0
   40.5450   75.5110   59.7880 N   0  0  0  0  0  0  0  0  0  0  0  0
   39.2490   75.7090   60.1400 C   0  0  0  0  0  0  0  0  0  0  0  0
   38.6080   74.7960   60.8800 N   0  0  0  0  0  0  0  0  0  0  0  0
   38.7210   72.9280   61.8860 H   0  0  0  0  0  0  0  0  0  0  0  0
   42.2310   74.2870   59.8730 H   0  0  0  0  0  0  0  0  0  0  0  0
   38.8060   76.6300   59.7810 H   0  0  0  0  0  0  0  0  0  0  0  0
   41.2530   72.2290   61.3740 C   0  0  0  0  0  3  0  0  0  0  0  0
   41.5580   71.9060   62.6170 C   0  0  0  0  0  3  0  0  0  0  0  0
   42.2790   70.6460   62.9550 C   0  0  0  0  0  2  0  0  0  0  0  0
   42.7720   70.7100   63.9290 H   0  0  0  0  0  0  0  0  0  0  0  0
  1  7  1  0  0  0  0
  2  1  1  0  0  0  0
  2 10  1  0  0  0  0
  3  2  2  0  0  0  0
  4  5  2  0  0  0  0
  4  3  1  0  0  0  0
  5  6  1  0  0  0  0
  6  1  2  0  0  0  0
  8  3  1  0  0  0  0
  9  5  1  0  0  0  0
 10 11  2  0  0  0  0
 11 12  1  0  0  0  0
 12 13  1  0  0  0  0
M  END
>  <minimizedAffinity>
-3.15850353

$$$$

 OpenBabel03212520103D

 13 13  0  0  0  0  0  0  0  0999 V2000
   39.3980   76.1050   59.9570 C   0  0  0  0  0  0  0  0  0  0  0  0
   38.7500   75.4070   58.9260 C   0  0  0  0  0  0  0  0  0  0  0  0
   38.6090   74.0230   59.0440 C   0  0  0  0  0  0  0  0  0  0  0  0
   39.1090   73.4070   60.1580 N   0  0  0  0  0  0  0  0  0  0  0  0
   39.7290   74.1160   61.1350 C   0  0  0  0  0  0  0  0  0  0  0  0
   39.8630   75.4430   61.0200 N   0  0  0  0  0  0  0  0  0  0  0  0
   39.4910   77.1690   59.8390 H   0  0  0  0  0  0  0  0  0  0  0  0
   38.1350   73.4200   58.3140 H   0  0  0  0  0  0  0  0  0  0  0  0
   40.0890   73.5330   61.9750 H   0  0  0  0  0  0  0  0  0  0  0  0
   38.2240   76.0870   57.7440 C   0  0  0  0  0  3  0  0  0  0  0  0
   37.3820   75.5770   56.8650 C   0  0  0  0  0  3  0  0  0  0  0  0
   36.9000   76.3510   55.6860 C   0  0  0  0  0  2  0  0  0  0  0  0
   36.5370   75.6940   54.8910 H   0  0  0  0  0  0  0  0  0  0  0  0
  1  6  1  0  0  0  0
  2  3  1  0  0  0  0
  2  1  2  0  0  0  0
  3  4  2  0  0  0  0
  4  5  1  0  0  0  0
  5  9  1  0  0  0  0
  6  5  2  0  0  0  0
  7  1  1  0  0  0  0
  8  3  1  0  0  0  0
 10  2  1  0  0  0  0
 11 10  2  0  0  0  0
 12 11  1  0  0  0  0
 13 12  1  0  0  0  0
M  END
>  <minimizedAffinity>
-3.14463425

$$$$

 OpenBabel03212520103D

 13 13  0  0  0  0  0  0  0  0999 V2000
   41.8360   65.5650   61.1370 C   0  0  0  0  0  0  0  0  0  0  0  0
   41.7640   66.8620   60.6060 C   0  0  0  0  0  0  0  0  0  0  0  0
   41.5560   67.9300   61.4810 C   0  0  0  0  0  0  0  0  0  0  0  0
   41.4300   67.6670   62.8170 N   0  0  0  0  0  0  0  0  0  0  0  0
   41.5060   66.3980   63.2940 C   0  0  0  0  0  0  0  0  0  0  0  0
   41.7060   65.3760   62.4530 N   0  0  0  0  0  0  0  0  0  0  0  0
   41.9970   64.7630   60.4400 H   0  0  0  0  0  0  0  0  0  0  0  0
   41.4890   68.9390   61.1660 H   0  0  0  0  0  0  0  0  0  0  0  0
   41.3940   66.2980   64.3670 H   0  0  0  0  0  0  0  0  0  0  0  0
   41.9000   67.1190   59.1740 C   0  0  0  0  0  3  0  0  0  0  0  0
   41.2240   68.0140   58.4780 C   0  0  0  0  0  3  0  0  0  0  0  0
   41.4330   68.2040   57.0150 C   0  0  0  0  0  2  0  0  0  0  0  0
   40.5710   68.6820   56.5410 H   0  0  0  0  0  0  0  0  0  0  0  0
  1  6  1  0  0  0  0
  2  1  2  0  0  0  0
  2  3  1  0  0  0  0
  3  4  2  0  0  0  0
  4  5  1  0  0  0  0
  5  9  1  0  0  0  0
  6  5  2  0  0  0  0
  7  1  1  0  0  0  0
  8  3  1  0  0  0  0
 10  2  1  0  0  0  0
 11 10  2  0  0  0  0
 12 11  1  0  0  0  0
 13 12  1  0  0  0  0
M  END
>  <minimizedAffinity>
-3.08197784

$$$$

 OpenBabel03212520103D

 13 13  0  0  0  0  0  0  0  0999 V2000
   38.2600   75.1810   58.4090 C   0  0  0  0  0  0  0  0  0  0  0  0
   38.3490   76.3080   57.5780 C   0  0  0  0  0  0  0  0  0  0  0  0
   39.0540   77.4230   58.0370 C   0  0  0  0  0  0  0  0  0  0  0  0
   39.6270   77.3680   59.2780 N   0  0  0  0  0  0  0  0  0  0  0  0
   39.5210   76.2600   60.0540 C   0  0  0  0  0  0  0  0  0  0  0  0
   38.8450   75.1930   59.6100 N   0  0  0  0  0  0  0  0  0  0  0  0
   37.7120   74.3390   58.0290 H   0  0  0  0  0  0  0  0  0  0  0  0
   39.1690   78.3130   57.4750 H   0  0  0  0  0  0  0  0  0  0  0  0
   40.0110   76.3200   61.0180 H   0  0  0  0  0  0  0  0  0  0  0  0
   37.7270   76.3430   56.2560 C   0  0  0  0  0  3  0  0  0  0  0  0
   37.0770   75.3520   55.6770 C   0  0  0  0  0  3  0  0  0  0  0  0
   36.4750   75.4820   54.3200 C   0  0  0  0  0  2  0  0  0  0  0  0
   36.3200   74.5070   53.8490 H   0  0  0  0  0  0  0  0  0  0  0  0
  1  6  1  0  0  0  0
  2  3  1  0  0  0  0
  2  1  2  0  0  0  0
  3  4  2  0  0  0  0
  4  5  1  0  0  0  0
  5  9  1  0  0  0  0
  6  5  2  0  0  0  0
  7  1  1  0  0  0  0
  8  3  1  0  0  0  0
 10  2  1  0  0  0  0
 11 10  2  0  0  0  0
 12 11  1  0  0  0  0
 13 12  1  0  0  0  0
M  END
>  <minimizedAffinity>
-3.0545392

$$$$
