
 OpenBabel03212520203D

 31 32  0  0  0  0  0  0  0  0999 V2000
   43.0680   84.0770   58.6370 Cl  0  0  0  0  0  0  0  0  0  0  0  0
   41.8910   82.8450   58.2420 C   0  0  0  0  0  0  0  0  0  0  0  0
   41.0410   82.2760   59.1930 C   0  0  0  0  0  0  0  0  0  0  0  0
   40.1660   81.3130   58.7140 C   0  0  0  0  0  0  0  0  0  0  0  0
   40.0560   80.8710   57.4180 C   0  0  0  0  0  0  0  0  0  0  0  0
   40.8950   81.4460   56.5290 C   0  0  0  0  0  0  0  0  0  0  0  0
   40.8640   80.9740   54.8320 Cl  0  0  0  0  0  0  0  0  0  0  0  0
   41.8110   82.4270   56.9270 C   0  0  0  0  0  0  0  0  0  0  0  0
   39.5240   80.8980   59.4910 H   0  0  0  0  0  0  0  0  0  0  0  0
   39.3330   80.1090   57.1570 H   0  0  0  0  0  0  0  0  0  0  0  0
   41.9720   82.2180   61.5490 C   0  0  0  0  0  0  0  0  0  0  0  0
   41.1300   82.7110   60.5360 C   0  0  0  0  0  0  0  0  0  0  0  0
   40.2700   83.7560   60.8850 C   0  0  0  0  0  0  0  0  0  0  0  0
   40.3320   84.1960   62.1720 N   0  0  0  0  0  0  0  0  0  0  0  0
   41.1430   83.7080   63.1080 C   0  0  0  0  0  0  0  0  0  0  0  0
   41.9910   82.6860   62.7890 N   0  0  0  0  0  0  0  0  0  0  0  0
   42.6140   81.4190   61.2410 H   0  0  0  0  0  0  0  0  0  0  0  0
   39.5750   84.2240   60.2070 H   0  0  0  0  0  0  0  0  0  0  0  0
   41.0440   84.3370   64.4460 C   0  0  0  0  0  0  0  0  0  0  0  0
   40.6900   85.6550   64.3840 F   0  0  0  0  0  0  0  0  0  0  0  0
   40.1030   83.6520   65.2180 F   0  0  0  0  0  0  0  0  0  0  0  0
   42.2870   84.3060   65.1040 F   0  0  0  0  0  0  0  0  0  0  0  0
   42.6480   82.9840   55.9760 O   0  0  0  0  0  0  0  0  0  0  0  0
   42.3420   84.1610   55.2590 C   0  0  0  0  0  0  0  0  0  0  0  0
   41.7600   84.8520   55.9170 H   0  0  0  0  0  0  0  0  0  0  0  0
   41.7410   83.9130   54.3570 H   0  0  0  0  0  0  0  0  0  0  0  0
   43.5580   84.7120   54.8270 O   0  0  0  0  0  0  0  0  0  0  0  0
   43.9200   84.5740   53.4940 C   0  0  0  0  0  0  0  0  0  0  0  0
   44.9790   85.1570   52.9560 C   0  0  0  0  0  0  0  0  0  0  0  0
   45.8440   86.0070   53.7850 C   0  0  0  0  0  0  0  0  0  0  0  0
   46.2800   86.8620   53.2250 H   0  0  0  0  0  0  0  0  0  0  0  0
  2  1  1  0  0  0  0
  2  3  1  0  0  0  0
  3 12  1  0  0  0  0
  4  3  2  0  0  0  0
  4  9  1  0  0  0  0
  5  4  1  0  0  0  0
  6  8  1  0  0  0  0
  6  5  2  0  0  0  0
  7  6  1  0  0  0  0
  8  2  2  0  0  0  0
 10  5  1  0  0  0  0
 11 16  1  0  0  0  0
 12 13  1  0  0  0  0
 12 11  2  0  0  0  0
 13 14  2  0  0  0  0
 14 15  1  0  0  0  0
 15 19  1  0  0  0  0
 16 15  2  0  0  0  0
 17 11  1  0  0  0  0
 18 13  1  0  0  0  0
 19 22  1  0  0  0  0
 19 21  1  0  0  0  0
 20 19  1  0  0  0  0
 23  8  1  0  0  0  0
 24 25  1  0  0  0  0
 24 23  1  0  0  0  0
 26 24  1  0  0  0  0
 27 24  1  0  0  0  0
 28 27  1  0  0  0  0
 29 28  2  0  0  0  0
 29 30  1  0  0  0  0
 31 30  1  0  0  0  0
M  END
>  <minimizedAffinity>
-4.76814461

>  <minimizedRMSD>
0.738813639

$$$$
