
 OpenBabel03212520203D

 31 32  0  0  0  0  0  0  0  0999 V2000
   42.1890   83.4120   59.1310 Cl  0  0  0  0  0  0  0  0  0  0  0  0
   41.7950   81.8550   58.4360 C   0  0  0  0  0  0  0  0  0  0  0  0
   42.0820   81.5240   57.1100 C   0  0  0  0  0  0  0  0  0  0  0  0
   41.7040   80.2490   56.7160 C   0  0  0  0  0  0  0  0  0  0  0  0
   41.0860   79.2970   57.4900 C   0  0  0  0  0  0  0  0  0  0  0  0
   40.8260   79.6570   58.7660 C   0  0  0  0  0  0  0  0  0  0  0  0
   40.0360   78.5350   59.8710 Cl  0  0  0  0  0  0  0  0  0  0  0  0
   41.1740   80.9250   59.2460 C   0  0  0  0  0  0  0  0  0  0  0  0
   41.9480   80.0350   55.6760 H   0  0  0  0  0  0  0  0  0  0  0  0
   40.8350   78.3300   57.0750 H   0  0  0  0  0  0  0  0  0  0  0  0
   42.1550   83.6330   55.7070 C   0  0  0  0  0  0  0  0  0  0  0  0
   42.7190   82.4830   56.2870 C   0  0  0  0  0  0  0  0  0  0  0  0
   44.0710   82.2450   56.0280 C   0  0  0  0  0  0  0  0  0  0  0  0
   44.7120   83.1500   55.2380 N   0  0  0  0  0  0  0  0  0  0  0  0
   44.1490   84.2320   54.7040 C   0  0  0  0  0  0  0  0  0  0  0  0
   42.8280   84.4830   54.9440 N   0  0  0  0  0  0  0  0  0  0  0  0
   41.1190   83.7790   55.9300 H   0  0  0  0  0  0  0  0  0  0  0  0
   44.6250   81.4020   56.4100 H   0  0  0  0  0  0  0  0  0  0  0  0
   45.0340   85.0830   53.8750 C   0  0  0  0  0  0  0  0  0  0  0  0
   45.6750   86.0440   54.6040 F   0  0  0  0  0  0  0  0  0  0  0  0
   45.9890   84.2870   53.2390 F   0  0  0  0  0  0  0  0  0  0  0  0
   44.2900   85.7740   52.9010 F   0  0  0  0  0  0  0  0  0  0  0  0
   40.8850   81.2430   60.5630 O   0  0  0  0  0  0  0  0  0  0  0  0
   41.7820   81.0330   61.6310 C   0  0  0  0  0  0  0  0  0  0  0  0
   42.7340   80.6030   61.2350 H   0  0  0  0  0  0  0  0  0  0  0  0
   41.3380   80.3310   62.3710 H   0  0  0  0  0  0  0  0  0  0  0  0
   41.9650   82.2690   62.2690 O   0  0  0  0  0  0  0  0  0  0  0  0
   41.0930   82.6350   63.2860 C   0  0  0  0  0  3  0  0  0  0  0  0
   40.1520   83.5540   63.1510 C   0  0  0  0  0  3  0  0  0  0  0  0
   39.9890   84.2490   61.8670 C   0  0  0  0  0  2  0  0  0  0  0  0
   39.6650   85.3060   61.9810 H   0  0  0  0  0  0  0  0  0  0  0  0
  2  1  1  0  0  0  0
  2  8  1  0  0  0  0
  3  2  2  0  0  0  0
  4  3  1  0  0  0  0
  4  5  2  0  0  0  0
  5  6  1  0  0  0  0
  6  8  2  0  0  0  0
  6  7  1  0  0  0  0
  8 23  1  0  0  0  0
  9  4  1  0  0  0  0
 10  5  1  0  0  0  0
 11 17  1  0  0  0  0
 11 12  1  0  0  0  0
 12  3  1  0  0  0  0
 13 12  2  0  0  0  0
 13 18  1  0  0  0  0
 14 13  1  0  0  0  0
 15 16  1  0  0  0  0
 15 14  2  0  0  0  0
 16 11  2  0  0  0  0
 19 20  1  0  0  0  0
 19 15  1  0  0  0  0
 21 19  1  0  0  0  0
 22 19  1  0  0  0  0
 23 24  1  0  0  0  0
 24 27  1  0  0  0  0
 24 26  1  0  0  0  0
 25 24  1  0  0  0  0
 27 28  1  0  0  0  0
 29 28  2  0  0  0  0
 30 31  1  0  0  0  0
 30 29  1  0  0  0  0
M  END
>  <minimizedAffinity>
-3.27078032

>  <minimizedRMSD>
7.62326288

$$$$
