
 OpenBabel03212520193D

 31 32  0  0  0  0  0  0  0  0999 V2000
   44.2420   83.0130   59.1300 Cl  0  0  0  0  0  0  0  0  0  0  0  0
   42.6270   82.3390   59.1730 C   0  0  0  0  0  0  0  0  0  0  0  0
   41.7700   82.3580   58.0710 C   0  0  0  0  0  0  0  0  0  0  0  0
   40.5240   81.7820   58.2720 C   0  0  0  0  0  0  0  0  0  0  0  0
   40.0600   81.2060   59.4290 C   0  0  0  0  0  0  0  0  0  0  0  0
   40.9200   81.2080   60.4720 C   0  0  0  0  0  0  0  0  0  0  0  0
   40.4560   80.5040   62.0180 Cl  0  0  0  0  0  0  0  0  0  0  0  0
   42.1970   81.7690   60.3550 C   0  0  0  0  0  0  0  0  0  0  0  0
   39.8910   81.8190   57.3860 H   0  0  0  0  0  0  0  0  0  0  0  0
   39.0640   80.7850   59.4730 H   0  0  0  0  0  0  0  0  0  0  0  0
   42.1360   84.2930   56.4760 C   0  0  0  0  0  0  0  0  0  0  0  0
   42.2190   82.9430   56.8640 C   0  0  0  0  0  0  0  0  0  0  0  0
   42.8140   82.0630   55.9570 C   0  0  0  0  0  0  0  0  0  0  0  0
   43.2570   82.5970   54.7850 N   0  0  0  0  0  0  0  0  0  0  0  0
   43.1640   83.8810   54.4480 C   0  0  0  0  0  0  0  0  0  0  0  0
   42.5850   84.7600   55.3190 N   0  0  0  0  0  0  0  0  0  0  0  0
   41.6740   84.9330   57.1980 H   0  0  0  0  0  0  0  0  0  0  0  0
   42.9400   81.0050   56.1280 H   0  0  0  0  0  0  0  0  0  0  0  0
   43.7120   84.2460   53.1200 C   0  0  0  0  0  0  0  0  0  0  0  0
   44.8610   83.5730   52.8210 F   0  0  0  0  0  0  0  0  0  0  0  0
   42.7620   83.9800   52.1310 F   0  0  0  0  0  0  0  0  0  0  0  0
   44.0470   85.6120   53.0780 F   0  0  0  0  0  0  0  0  0  0  0  0
   43.0390   81.7450   61.4540 O   0  0  0  0  0  0  0  0  0  0  0  0
   43.8960   80.6660   61.7580 C   0  0  0  0  0  0  0  0  0  0  0  0
   44.4950   80.4040   60.8520 H   0  0  0  0  0  0  0  0  0  0  0  0
   43.3000   79.7830   62.0760 H   0  0  0  0  0  0  0  0  0  0  0  0
   44.6930   81.0610   62.8440 O   0  0  0  0  0  0  0  0  0  0  0  0
   44.8340   82.4150   63.1150 C   0  0  0  0  0  3  0  0  0  0  0  0
   46.0000   83.0400   63.1470 C   0  0  0  0  0  3  0  0  0  0  0  0
   47.2370   82.2910   62.8850 C   0  0  0  0  0  2  0  0  0  0  0  0
   48.1030   82.6630   63.4710 H   0  0  0  0  0  0  0  0  0  0  0  0
  1  2  1  0  0  0  0
  2  8  1  0  0  0  0
  3  4  1  0  0  0  0
  3  2  2  0  0  0  0
  4  5  2  0  0  0  0
  5 10  1  0  0  0  0
  5  6  1  0  0  0  0
  6  7  1  0  0  0  0
  8  6  2  0  0  0  0
  8 23  1  0  0  0  0
  9  4  1  0  0  0  0
 11 12  1  0  0  0  0
 11 17  1  0  0  0  0
 12  3  1  0  0  0  0
 13 18  1  0  0  0  0
 13 12  2  0  0  0  0
 14 13  1  0  0  0  0
 15 14  2  0  0  0  0
 15 16  1  0  0  0  0
 16 11  2  0  0  0  0
 19 15  1  0  0  0  0
 20 19  1  0  0  0  0
 21 19  1  0  0  0  0
 22 19  1  0  0  0  0
 23 24  1  0  0  0  0
 24 26  1  0  0  0  0
 24 27  1  0  0  0  0
 25 24  1  0  0  0  0
 27 28  1  0  0  0  0
 28 29  2  0  0  0  0
 30 29  1  0  0  0  0
 30 31  1  0  0  0  0
M  END
>  <minimizedAffinity>
-3.63354754

>  <minimizedRMSD>
7.86338186

$$$$
