
 OpenBabel03212520193D

 31 32  0  0  0  0  0  0  0  0999 V2000
   43.0710   84.0790   58.6380 Cl  0  0  0  0  0  0  0  0  0  0  0  0
   41.8930   82.8470   58.2420 C   0  0  0  0  0  0  0  0  0  0  0  0
   41.0430   82.2790   59.1930 C   0  0  0  0  0  0  0  0  0  0  0  0
   40.1680   81.3150   58.7140 C   0  0  0  0  0  0  0  0  0  0  0  0
   40.0580   80.8730   57.4180 C   0  0  0  0  0  0  0  0  0  0  0  0
   40.8980   81.4480   56.5290 C   0  0  0  0  0  0  0  0  0  0  0  0
   40.8670   80.9770   54.8320 Cl  0  0  0  0  0  0  0  0  0  0  0  0
   41.8130   82.4290   56.9280 C   0  0  0  0  0  0  0  0  0  0  0  0
   39.5250   80.9010   59.4900 H   0  0  0  0  0  0  0  0  0  0  0  0
   39.3350   80.1120   57.1560 H   0  0  0  0  0  0  0  0  0  0  0  0
   41.9760   82.2220   61.5490 C   0  0  0  0  0  0  0  0  0  0  0  0
   41.1310   82.7130   60.5360 C   0  0  0  0  0  0  0  0  0  0  0  0
   40.2690   83.7560   60.8860 C   0  0  0  0  0  0  0  0  0  0  0  0
   40.3310   84.1960   62.1730 N   0  0  0  0  0  0  0  0  0  0  0  0
   41.1430   83.7090   63.1090 C   0  0  0  0  0  0  0  0  0  0  0  0
   41.9940   82.6890   62.7890 N   0  0  0  0  0  0  0  0  0  0  0  0
   42.6190   81.4250   61.2400 H   0  0  0  0  0  0  0  0  0  0  0  0
   39.5720   84.2220   60.2080 H   0  0  0  0  0  0  0  0  0  0  0  0
   41.0440   84.3380   64.4470 C   0  0  0  0  0  0  0  0  0  0  0  0
   40.6910   85.6560   64.3850 F   0  0  0  0  0  0  0  0  0  0  0  0
   40.1020   83.6530   65.2180 F   0  0  0  0  0  0  0  0  0  0  0  0
   42.2860   84.3060   65.1050 F   0  0  0  0  0  0  0  0  0  0  0  0
   42.6510   82.9860   55.9760 O   0  0  0  0  0  0  0  0  0  0  0  0
   42.3450   84.1620   55.2580 C   0  0  0  0  0  0  0  0  0  0  0  0
   41.7620   84.8530   55.9140 H   0  0  0  0  0  0  0  0  0  0  0  0
   41.7440   83.9120   54.3560 H   0  0  0  0  0  0  0  0  0  0  0  0
   43.5600   84.7130   54.8250 O   0  0  0  0  0  0  0  0  0  0  0  0
   43.9220   84.5770   53.4920 C   0  0  0  0  0  3  0  0  0  0  0  0
   44.9790   85.1610   52.9530 C   0  0  0  0  0  3  0  0  0  0  0  0
   45.8440   86.0100   53.7820 C   0  0  0  0  0  2  0  0  0  0  0  0
   46.2800   86.8660   53.2230 H   0  0  0  0  0  0  0  0  0  0  0  0
  2  1  1  0  0  0  0
  2  3  1  0  0  0  0
  3 12  1  0  0  0  0
  4  3  2  0  0  0  0
  4  9  1  0  0  0  0
  5  4  1  0  0  0  0
  6  8  1  0  0  0  0
  6  5  2  0  0  0  0
  7  6  1  0  0  0  0
  8  2  2  0  0  0  0
 10  5  1  0  0  0  0
 11 16  1  0  0  0  0
 12 13  1  0  0  0  0
 12 11  2  0  0  0  0
 13 14  2  0  0  0  0
 14 15  1  0  0  0  0
 15 19  1  0  0  0  0
 16 15  2  0  0  0  0
 17 11  1  0  0  0  0
 18 13  1  0  0  0  0
 19 22  1  0  0  0  0
 19 21  1  0  0  0  0
 20 19  1  0  0  0  0
 23  8  1  0  0  0  0
 24 25  1  0  0  0  0
 24 23  1  0  0  0  0
 26 24  1  0  0  0  0
 27 24  1  0  0  0  0
 28 27  1  0  0  0  0
 29 28  2  0  0  0  0
 29 30  1  0  0  0  0
 31 30  1  0  0  0  0
M  END
>  <minimizedAffinity>
-4.76786518

>  <minimizedRMSD>
0.835098445

$$$$
