
 OpenBabel03212520203D

 31 32  0  0  0  0  0  0  0  0999 V2000
   43.0520   84.0790   58.6300 Cl  0  0  0  0  0  0  0  0  0  0  0  0
   41.8780   82.8410   58.2400 C   0  0  0  0  0  0  0  0  0  0  0  0
   41.0340   82.2690   59.1950 C   0  0  0  0  0  0  0  0  0  0  0  0
   40.1620   81.3010   58.7200 C   0  0  0  0  0  0  0  0  0  0  0  0
   40.0500   80.8570   57.4250 C   0  0  0  0  0  0  0  0  0  0  0  0
   40.8840   81.4350   56.5320 C   0  0  0  0  0  0  0  0  0  0  0  0
   40.8490   80.9610   54.8360 Cl  0  0  0  0  0  0  0  0  0  0  0  0
   41.7960   82.4200   56.9260 C   0  0  0  0  0  0  0  0  0  0  0  0
   39.5240   80.8850   59.4990 H   0  0  0  0  0  0  0  0  0  0  0  0
   39.3300   80.0920   57.1670 H   0  0  0  0  0  0  0  0  0  0  0  0
   41.9730   82.2180   61.5480 C   0  0  0  0  0  0  0  0  0  0  0  0
   41.1250   82.7060   60.5370 C   0  0  0  0  0  0  0  0  0  0  0  0
   40.2620   83.7470   60.8880 C   0  0  0  0  0  0  0  0  0  0  0  0
   40.3260   84.1900   62.1740 N   0  0  0  0  0  0  0  0  0  0  0  0
   41.1420   83.7060   63.1080 C   0  0  0  0  0  0  0  0  0  0  0  0
   41.9940   82.6880   62.7880 N   0  0  0  0  0  0  0  0  0  0  0  0
   42.6180   81.4220   61.2390 H   0  0  0  0  0  0  0  0  0  0  0  0
   39.5620   84.2110   60.2110 H   0  0  0  0  0  0  0  0  0  0  0  0
   41.0450   84.3370   64.4450 C   0  0  0  0  0  0  0  0  0  0  0  0
   40.6930   85.6550   64.3820 F   0  0  0  0  0  0  0  0  0  0  0  0
   40.1020   83.6540   65.2180 F   0  0  0  0  0  0  0  0  0  0  0  0
   42.2880   84.3040   65.1030 F   0  0  0  0  0  0  0  0  0  0  0  0
   42.6280   82.9800   55.9720 O   0  0  0  0  0  0  0  0  0  0  0  0
   42.3140   84.1530   55.2530 C   0  0  0  0  0  0  0  0  0  0  0  0
   41.7070   84.8310   55.9010 H   0  0  0  0  0  0  0  0  0  0  0  0
   41.7340   83.8980   54.3390 H   0  0  0  0  0  0  0  0  0  0  0  0
   43.5260   84.7290   54.8460 O   0  0  0  0  0  0  0  0  0  0  0  0
   43.9610   84.5260   53.5430 C   0  0  0  0  0  3  0  0  0  0  0  0
   45.0460   83.8390   53.2280 C   0  0  0  0  0  3  0  0  0  0  0  0
   45.8650   83.2410   54.2910 C   0  0  0  0  0  2  0  0  0  0  0  0
   46.9500   83.2290   54.0510 H   0  0  0  0  0  0  0  0  0  0  0  0
  2  1  1  0  0  0  0
  2  3  1  0  0  0  0
  3 12  1  0  0  0  0
  4  3  2  0  0  0  0
  4  9  1  0  0  0  0
  5  4  1  0  0  0  0
  6  8  1  0  0  0  0
  6  5  2  0  0  0  0
  7  6  1  0  0  0  0
  8  2  2  0  0  0  0
 10  5  1  0  0  0  0
 11 16  1  0  0  0  0
 12 13  1  0  0  0  0
 12 11  2  0  0  0  0
 13 14  2  0  0  0  0
 14 15  1  0  0  0  0
 15 19  1  0  0  0  0
 16 15  2  0  0  0  0
 17 11  1  0  0  0  0
 18 13  1  0  0  0  0
 19 22  1  0  0  0  0
 19 21  1  0  0  0  0
 20 19  1  0  0  0  0
 23  8  1  0  0  0  0
 24 25  1  0  0  0  0
 24 23  1  0  0  0  0
 26 24  1  0  0  0  0
 27 24  1  0  0  0  0
 28 27  1  0  0  0  0
 29 28  2  0  0  0  0
 29 30  1  0  0  0  0
 31 30  1  0  0  0  0
M  END
>  <minimizedAffinity>
-4.70126534

>  <minimizedRMSD>
0.885478914

$$$$
