
 OpenBabel03212520213D

 31 32  0  0  0  0  0  0  0  0999 V2000
   41.4510   70.1620   58.9700 Cl  0  0  0  0  0  0  0  0  0  0  0  0
   42.1090   69.9480   60.5770 C   0  0  0  0  0  0  0  0  0  0  0  0
   42.1050   70.9620   61.5370 C   0  0  0  0  0  0  0  0  0  0  0  0
   42.6660   70.6290   62.7620 C   0  0  0  0  0  0  0  0  0  0  0  0
   43.2160   69.4200   63.1150 C   0  0  0  0  0  0  0  0  0  0  0  0
   43.2000   68.4660   62.1570 C   0  0  0  0  0  0  0  0  0  0  0  0
   43.8720   66.8690   62.4720 Cl  0  0  0  0  0  0  0  0  0  0  0  0
   42.6530   68.7180   60.8930 C   0  0  0  0  0  0  0  0  0  0  0  0
   42.6400   71.4490   63.4790 H   0  0  0  0  0  0  0  0  0  0  0  0
   43.6270   69.2720   64.1040 H   0  0  0  0  0  0  0  0  0  0  0  0
   42.0860   73.2080   60.3640 C   0  0  0  0  0  0  0  0  0  0  0  0
   41.5460   72.2180   61.2050 C   0  0  0  0  0  0  0  0  0  0  0  0
   40.3080   72.4950   61.7910 C   0  0  0  0  0  0  0  0  0  0  0  0
   39.7430   73.6980   61.4900 N   0  0  0  0  0  0  0  0  0  0  0  0
   40.2810   74.6140   60.6870 C   0  0  0  0  0  0  0  0  0  0  0  0
   41.4910   74.3640   60.1050 N   0  0  0  0  0  0  0  0  0  0  0  0
   43.0330   72.9560   59.9360 H   0  0  0  0  0  0  0  0  0  0  0  0
   39.7850   71.8250   62.4540 H   0  0  0  0  0  0  0  0  0  0  0  0
   39.4930   75.8550   60.4980 C   0  0  0  0  0  0  0  0  0  0  0  0
   38.6570   76.1130   61.5470 F   0  0  0  0  0  0  0  0  0  0  0  0
   40.3580   76.9390   60.3310 F   0  0  0  0  0  0  0  0  0  0  0  0
   38.6640   75.7510   59.3670 F   0  0  0  0  0  0  0  0  0  0  0  0
   42.6630   67.7060   59.9480 O   0  0  0  0  0  0  0  0  0  0  0  0
   41.5600   66.8610   59.6990 C   0  0  0  0  0  0  0  0  0  0  0  0
   41.9280   65.8240   59.5060 H   0  0  0  0  0  0  0  0  0  0  0  0
   40.9930   67.2240   58.8140 H   0  0  0  0  0  0  0  0  0  0  0  0
   40.7130   66.9420   60.8140 O   0  0  0  0  0  0  0  0  0  0  0  0
   40.6130   65.8470   61.6620 C   0  0  0  0  0  3  0  0  0  0  0  0
   40.2090   65.9250   62.9190 C   0  0  0  0  0  3  0  0  0  0  0  0
   39.8360   67.2280   63.4870 C   0  0  0  0  0  2  0  0  0  0  0  0
   40.0880   67.3210   64.5650 H   0  0  0  0  0  0  0  0  0  0  0  0
  1  2  1  0  0  0  0
  2  8  2  0  0  0  0
  2  3  1  0  0  0  0
  3  4  2  0  0  0  0
  4  5  1  0  0  0  0
  4  9  1  0  0  0  0
  5 10  1  0  0  0  0
  6  7  1  0  0  0  0
  6  5  2  0  0  0  0
  8  6  1  0  0  0  0
 11 12  1  0  0  0  0
 12  3  1  0  0  0  0
 12 13  2  0  0  0  0
 13 18  1  0  0  0  0
 14 13  1  0  0  0  0
 15 14  2  0  0  0  0
 16 11  2  0  0  0  0
 16 15  1  0  0  0  0
 17 11  1  0  0  0  0
 19 15  1  0  0  0  0
 19 20  1  0  0  0  0
 21 19  1  0  0  0  0
 22 19  1  0  0  0  0
 23  8  1  0  0  0  0
 24 23  1  0  0  0  0
 24 27  1  0  0  0  0
 25 24  1  0  0  0  0
 26 24  1  0  0  0  0
 27 28  1  0  0  0  0
 28 29  2  0  0  0  0
 29 30  1  0  0  0  0
 30 31  1  0  0  0  0
M  END
>  <minimizedAffinity>
-5.6514883

$$$$

 OpenBabel03212520213D

 31 32  0  0  0  0  0  0  0  0999 V2000
   42.8230   71.5530   62.5200 Cl  0  0  0  0  0  0  0  0  0  0  0  0
   42.2770   70.6270   61.1390 C   0  0  0  0  0  0  0  0  0  0  0  0
   41.5460   71.1910   60.0910 C   0  0  0  0  0  0  0  0  0  0  0  0
   41.1910   70.3190   59.0730 C   0  0  0  0  0  0  0  0  0  0  0  0
   41.4810   68.9790   58.9970 C   0  0  0  0  0  0  0  0  0  0  0  0
   42.1890   68.4720   60.0300 C   0  0  0  0  0  0  0  0  0  0  0  0
   42.6320   66.7680   60.0650 Cl  0  0  0  0  0  0  0  0  0  0  0  0
   42.5890   69.2820   61.1000 C   0  0  0  0  0  0  0  0  0  0  0  0
   40.6230   70.8030   58.2770 H   0  0  0  0  0  0  0  0  0  0  0  0
   41.1510   68.3920   58.1500 H   0  0  0  0  0  0  0  0  0  0  0  0
   41.9720   73.6430   59.6130 C   0  0  0  0  0  0  0  0  0  0  0  0
   41.2310   72.5690   60.1390 C   0  0  0  0  0  0  0  0  0  0  0  0
   40.0370   72.8880   60.7920 C   0  0  0  0  0  0  0  0  0  0  0  0
   39.7070   74.2070   60.8560 N   0  0  0  0  0  0  0  0  0  0  0  0
   40.4310   75.2010   60.3460 C   0  0  0  0  0  0  0  0  0  0  0  0
   41.6020   74.9130   59.7040 N   0  0  0  0  0  0  0  0  0  0  0  0
   42.8780   73.3570   59.1210 H   0  0  0  0  0  0  0  0  0  0  0  0
   39.3770   72.1630   61.2400 H   0  0  0  0  0  0  0  0  0  0  0  0
   39.8820   76.5650   60.5290 C   0  0  0  0  0  0  0  0  0  0  0  0
   40.8570   77.5180   60.6180 F   0  0  0  0  0  0  0  0  0  0  0  0
   39.0390   76.8800   59.4610 F   0  0  0  0  0  0  0  0  0  0  0  0
   39.1530   76.6510   61.7290 F   0  0  0  0  0  0  0  0  0  0  0  0
   43.3130   68.7130   62.1340 O   0  0  0  0  0  0  0  0  0  0  0  0
   42.7950   68.5150   63.4320 C   0  0  0  0  0  0  0  0  0  0  0  0
   42.3180   69.4600   63.7880 H   0  0  0  0  0  0  0  0  0  0  0  0
   43.6130   68.2280   64.1290 H   0  0  0  0  0  0  0  0  0  0  0  0
   41.8950   67.4410   63.3610 O   0  0  0  0  0  0  0  0  0  0  0  0
   40.5360   67.6950   63.4850 C   0  0  0  0  0  3  0  0  0  0  0  0
   39.5920   66.8860   63.0350 C   0  0  0  0  0  3  0  0  0  0  0  0
   39.9650   65.6360   62.3580 C   0  0  0  0  0  2  0  0  0  0  0  0
   39.2590   65.3520   61.5480 H   0  0  0  0  0  0  0  0  0  0  0  0
  2  1  1  0  0  0  0
  3 12  1  0  0  0  0
  3  2  2  0  0  0  0
  4  3  1  0  0  0  0
  5  4  2  0  0  0  0
  5  6  1  0  0  0  0
  6  7  1  0  0  0  0
  6  8  2  0  0  0  0
  8  2  1  0  0  0  0
  8 23  1  0  0  0  0
  9  4  1  0  0  0  0
 10  5  1  0  0  0  0
 11 16  2  0  0  0  0
 11 12  1  0  0  0  0
 12 13  2  0  0  0  0
 13 14  1  0  0  0  0
 13 18  1  0  0  0  0
 15 19  1  0  0  0  0
 15 14  2  0  0  0  0
 16 15  1  0  0  0  0
 17 11  1  0  0  0  0
 19 20  1  0  0  0  0
 19 22  1  0  0  0  0
 21 19  1  0  0  0  0
 23 24  1  0  0  0  0
 24 25  1  0  0  0  0
 24 26  1  0  0  0  0
 27 24  1  0  0  0  0
 27 28  1  0  0  0  0
 29 28  2  0  0  0  0
 30 29  1  0  0  0  0
 31 30  1  0  0  0  0
M  END
>  <minimizedAffinity>
-5.61505747

$$$$

 OpenBabel03212520213D

 31 32  0  0  0  0  0  0  0  0999 V2000
   41.5370   70.7530   58.5840 Cl  0  0  0  0  0  0  0  0  0  0  0  0
   41.7830   70.8170   60.3150 C   0  0  0  0  0  0  0  0  0  0  0  0
   41.3870   71.9050   61.0960 C   0  0  0  0  0  0  0  0  0  0  0  0
   41.6560   71.7970   62.4530 C   0  0  0  0  0  0  0  0  0  0  0  0
   42.2640   70.7430   63.0910 C   0  0  0  0  0  0  0  0  0  0  0  0
   42.6320   69.7110   62.3000 C   0  0  0  0  0  0  0  0  0  0  0  0
   43.4220   68.2940   62.9840 Cl  0  0  0  0  0  0  0  0  0  0  0  0
   42.3980   69.7380   60.9200 C   0  0  0  0  0  0  0  0  0  0  0  0
   41.3300   72.6670   63.0220 H   0  0  0  0  0  0  0  0  0  0  0  0
   42.4240   70.7670   64.1610 H   0  0  0  0  0  0  0  0  0  0  0  0
   39.3840   73.1950   60.2330 C   0  0  0  0  0  0  0  0  0  0  0  0
   40.7580   73.0050   60.4690 C   0  0  0  0  0  0  0  0  0  0  0  0
   41.6170   74.0190   60.0350 C   0  0  0  0  0  0  0  0  0  0  0  0
   41.0410   75.0920   59.4270 N   0  0  0  0  0  0  0  0  0  0  0  0
   39.7350   75.2420   59.2190 C   0  0  0  0  0  0  0  0  0  0  0  0
   38.8770   74.2630   59.6340 N   0  0  0  0  0  0  0  0  0  0  0  0
   38.7620   72.3970   60.5800 H   0  0  0  0  0  0  0  0  0  0  0  0
   42.6890   73.9990   60.1530 H   0  0  0  0  0  0  0  0  0  0  0  0
   39.3240   76.4910   58.5370 C   0  0  0  0  0  0  0  0  0  0  0  0
   40.1580   76.8290   57.5090 F   0  0  0  0  0  0  0  0  0  0  0  0
   38.0270   76.3490   58.0390 F   0  0  0  0  0  0  0  0  0  0  0  0
   39.3560   77.5790   59.4280 F   0  0  0  0  0  0  0  0  0  0  0  0
   42.7950   68.6540   60.1550 O   0  0  0  0  0  0  0  0  0  0  0  0
   41.9080   67.6560   59.6960 C   0  0  0  0  0  0  0  0  0  0  0  0
   42.4940   66.7520   59.3970 H   0  0  0  0  0  0  0  0  0  0  0  0
   41.3320   68.0300   58.8210 H   0  0  0  0  0  0  0  0  0  0  0  0
   40.9980   67.4000   60.7320 O   0  0  0  0  0  0  0  0  0  0  0  0
   40.9790   66.1390   61.3120 C   0  0  0  0  0  3  0  0  0  0  0  0
   40.4580   65.8850   62.5010 C   0  0  0  0  0  3  0  0  0  0  0  0
   39.8570   66.9740   63.2830 C   0  0  0  0  0  2  0  0  0  0  0  0
   39.9970   66.8520   64.3790 H   0  0  0  0  0  0  0  0  0  0  0  0
  1  2  1  0  0  0  0
  2  8  2  0  0  0  0
  2  3  1  0  0  0  0
  3  4  2  0  0  0  0
  4  9  1  0  0  0  0
  4  5  1  0  0  0  0
  5 10  1  0  0  0  0
  6  7  1  0  0  0  0
  6  5  2  0  0  0  0
  8  6  1  0  0  0  0
 11 12  1  0  0  0  0
 11 17  1  0  0  0  0
 12  3  1  0  0  0  0
 13 18  1  0  0  0  0
 13 12  2  0  0  0  0
 14 13  1  0  0  0  0
 15 14  2  0  0  0  0
 15 16  1  0  0  0  0
 16 11  2  0  0  0  0
 19 15  1  0  0  0  0
 19 22  1  0  0  0  0
 20 19  1  0  0  0  0
 21 19  1  0  0  0  0
 23  8  1  0  0  0  0
 24 23  1  0  0  0  0
 24 27  1  0  0  0  0
 25 24  1  0  0  0  0
 26 24  1  0  0  0  0
 27 28  1  0  0  0  0
 28 29  2  0  0  0  0
 29 30  1  0  0  0  0
 30 31  1  0  0  0  0
M  END
>  <minimizedAffinity>
-5.51555872

$$$$

 OpenBabel03212520213D

 31 32  0  0  0  0  0  0  0  0999 V2000
   39.4880   73.1370   61.2680 Cl  0  0  0  0  0  0  0  0  0  0  0  0
   41.0560   73.6020   60.6450 C   0  0  0  0  0  0  0  0  0  0  0  0
   42.1790   72.7780   60.7320 C   0  0  0  0  0  0  0  0  0  0  0  0
   43.3460   73.2960   60.1890 C   0  0  0  0  0  0  0  0  0  0  0  0
   43.5000   74.5210   59.5850 C   0  0  0  0  0  0  0  0  0  0  0  0
   42.3890   75.2870   59.5210 C   0  0  0  0  0  0  0  0  0  0  0  0
   42.4420   76.8810   58.7730 Cl  0  0  0  0  0  0  0  0  0  0  0  0
   41.1700   74.8410   60.0450 C   0  0  0  0  0  0  0  0  0  0  0  0
   44.1950   72.6190   60.2790 H   0  0  0  0  0  0  0  0  0  0  0  0
   44.4620   74.8230   59.1940 H   0  0  0  0  0  0  0  0  0  0  0  0
   41.8950   71.2290   62.7180 C   0  0  0  0  0  0  0  0  0  0  0  0
   42.0530   71.5110   61.3480 C   0  0  0  0  0  0  0  0  0  0  0  0
   42.0930   70.4170   60.4800 C   0  0  0  0  0  0  0  0  0  0  0  0
   41.9740   69.1830   61.0440 N   0  0  0  0  0  0  0  0  0  0  0  0
   41.8240   68.9490   62.3460 C   0  0  0  0  0  0  0  0  0  0  0  0
   41.7830   70.0040   63.2130 N   0  0  0  0  0  0  0  0  0  0  0  0
   41.8690   72.0930   63.3470 H   0  0  0  0  0  0  0  0  0  0  0  0
   42.2100   70.4920   59.4110 H   0  0  0  0  0  0  0  0  0  0  0  0
   41.7140   67.5260   62.7420 C   0  0  0  0  0  0  0  0  0  0  0  0
   42.7820   67.0990   63.4780 F   0  0  0  0  0  0  0  0  0  0  0  0
   40.5470   67.3350   63.4870 F   0  0  0  0  0  0  0  0  0  0  0  0
   41.6740   66.6950   61.6080 F   0  0  0  0  0  0  0  0  0  0  0  0
   40.0620   75.6660   59.9530 O   0  0  0  0  0  0  0  0  0  0  0  0
   39.2200   75.7200   58.8220 C   0  0  0  0  0  0  0  0  0  0  0  0
   39.4340   76.6530   58.2460 H   0  0  0  0  0  0  0  0  0  0  0  0
   38.1540   75.7170   59.1390 H   0  0  0  0  0  0  0  0  0  0  0  0
   39.4490   74.5530   58.0770 O   0  0  0  0  0  0  0  0  0  0  0  0
   38.3600   73.8360   57.6010 C   0  0  0  0  0  3  0  0  0  0  0  0
   38.3420   72.5190   57.4820 C   0  0  0  0  0  3  0  0  0  0  0  0
   39.5250   71.7350   57.8650 C   0  0  0  0  0  2  0  0  0  0  0  0
   39.6730   70.8330   57.2330 H   0  0  0  0  0  0  0  0  0  0  0  0
  2  3  1  0  0  0  0
  2  1  1  0  0  0  0
  3 12  1  0  0  0  0
  4  9  1  0  0  0  0
  4  3  2  0  0  0  0
  5  4  1  0  0  0  0
  6  5  2  0  0  0  0
  6  8  1  0  0  0  0
  7  6  1  0  0  0  0
  8  2  2  0  0  0  0
 10  5  1  0  0  0  0
 11 16  1  0  0  0  0
 11 17  1  0  0  0  0
 12 11  2  0  0  0  0
 13 14  2  0  0  0  0
 13 12  1  0  0  0  0
 14 15  1  0  0  0  0
 15 19  1  0  0  0  0
 15 16  2  0  0  0  0
 18 13  1  0  0  0  0
 19 20  1  0  0  0  0
 19 21  1  0  0  0  0
 22 19  1  0  0  0  0
 23  8  1  0  0  0  0
 24 26  1  0  0  0  0
 24 23  1  0  0  0  0
 25 24  1  0  0  0  0
 27 24  1  0  0  0  0
 28 27  1  0  0  0  0
 29 28  2  0  0  0  0
 29 30  1  0  0  0  0
 31 30  1  0  0  0  0
M  END
>  <minimizedAffinity>
-5.34118843

$$$$

 OpenBabel03212520213D

 31 32  0  0  0  0  0  0  0  0999 V2000
   41.3800   70.6530   58.8640 Cl  0  0  0  0  0  0  0  0  0  0  0  0
   41.8080   70.4870   60.5530 C   0  0  0  0  0  0  0  0  0  0  0  0
   41.8390   71.5690   61.4360 C   0  0  0  0  0  0  0  0  0  0  0  0
   42.1980   71.2660   62.7410 C   0  0  0  0  0  0  0  0  0  0  0  0
   42.5230   70.0280   63.2400 C   0  0  0  0  0  0  0  0  0  0  0  0
   42.4810   69.0090   62.3540 C   0  0  0  0  0  0  0  0  0  0  0  0
   42.8730   67.3670   62.8570 Cl  0  0  0  0  0  0  0  0  0  0  0  0
   42.1280   69.2260   61.0170 C   0  0  0  0  0  0  0  0  0  0  0  0
   42.2080   72.1390   63.3930 H   0  0  0  0  0  0  0  0  0  0  0  0
   42.7900   69.9080   64.2820 H   0  0  0  0  0  0  0  0  0  0  0  0
   42.2950   73.7040   60.1500 C   0  0  0  0  0  0  0  0  0  0  0  0
   41.5090   72.8570   60.9520 C   0  0  0  0  0  0  0  0  0  0  0  0
   40.2490   73.3320   61.3250 C   0  0  0  0  0  0  0  0  0  0  0  0
   39.9030   74.5690   60.8740 N   0  0  0  0  0  0  0  0  0  0  0  0
   40.6710   75.3480   60.1140 C   0  0  0  0  0  0  0  0  0  0  0  0
   41.9070   74.9030   59.7390 N   0  0  0  0  0  0  0  0  0  0  0  0
   43.2510   73.3030   59.8870 H   0  0  0  0  0  0  0  0  0  0  0  0
   39.5490   72.7850   61.9360 H   0  0  0  0  0  0  0  0  0  0  0  0
   40.0950   76.6600   59.7380 C   0  0  0  0  0  0  0  0  0  0  0  0
   39.9570   77.5010   60.8060 F   0  0  0  0  0  0  0  0  0  0  0  0
   40.9090   77.2730   58.7830 F   0  0  0  0  0  0  0  0  0  0  0  0
   38.8020   76.5020   59.2060 F   0  0  0  0  0  0  0  0  0  0  0  0
   42.1010   68.1460   60.1500 O   0  0  0  0  0  0  0  0  0  0  0  0
   43.2150   67.7250   59.3930 C   0  0  0  0  0  0  0  0  0  0  0  0
   43.6400   66.7970   59.8470 H   0  0  0  0  0  0  0  0  0  0  0  0
   43.9910   68.5210   59.3800 H   0  0  0  0  0  0  0  0  0  0  0  0
   42.7740   67.5350   58.0750 O   0  0  0  0  0  0  0  0  0  0  0  0
   43.3930   68.2400   57.0520 C   0  0  0  0  0  3  0  0  0  0  0  0
   42.8010   68.5500   55.9100 C   0  0  0  0  0  3  0  0  0  0  0  0
   41.4100   68.1410   55.6740 C   0  0  0  0  0  2  0  0  0  0  0  0
   41.2030   67.8950   54.6100 H   0  0  0  0  0  0  0  0  0  0  0  0
  1  2  1  0  0  0  0
  2  8  2  0  0  0  0
  2  3  1  0  0  0  0
  3  4  2  0  0  0  0
  4  5  1  0  0  0  0
  4  9  1  0  0  0  0
  5 10  1  0  0  0  0
  6  7  1  0  0  0  0
  6  5  2  0  0  0  0
  8  6  1  0  0  0  0
 11 12  1  0  0  0  0
 12 13  2  0  0  0  0
 12  3  1  0  0  0  0
 13 18  1  0  0  0  0
 14 13  1  0  0  0  0
 15 14  2  0  0  0  0
 16 15  1  0  0  0  0
 16 11  2  0  0  0  0
 17 11  1  0  0  0  0
 19 15  1  0  0  0  0
 19 20  1  0  0  0  0
 21 19  1  0  0  0  0
 22 19  1  0  0  0  0
 23  8  1  0  0  0  0
 24 25  1  0  0  0  0
 24 23  1  0  0  0  0
 26 24  1  0  0  0  0
 27 24  1  0  0  0  0
 28 27  1  0  0  0  0
 29 28  2  0  0  0  0
 30 29  1  0  0  0  0
 31 30  1  0  0  0  0
M  END
>  <minimizedAffinity>
-5.05263805

$$$$

 OpenBabel03212520213D

 31 32  0  0  0  0  0  0  0  0999 V2000
   39.5550   73.0060   60.7370 Cl  0  0  0  0  0  0  0  0  0  0  0  0
   41.0890   73.6380   60.1790 C   0  0  0  0  0  0  0  0  0  0  0  0
   42.2000   72.8270   59.9430 C   0  0  0  0  0  0  0  0  0  0  0  0
   43.3390   73.4860   59.5040 C   0  0  0  0  0  0  0  0  0  0  0  0
   43.4780   74.8350   59.2830 C   0  0  0  0  0  0  0  0  0  0  0  0
   42.3790   75.5840   59.5240 C   0  0  0  0  0  0  0  0  0  0  0  0
   42.4140   77.3290   59.2840 Cl  0  0  0  0  0  0  0  0  0  0  0  0
   41.1880   75.0000   59.9700 C   0  0  0  0  0  0  0  0  0  0  0  0
   44.1800   72.8140   59.3320 H   0  0  0  0  0  0  0  0  0  0  0  0
   44.4190   75.2420   58.9390 H   0  0  0  0  0  0  0  0  0  0  0  0
   42.3630   70.7200   61.3410 C   0  0  0  0  0  0  0  0  0  0  0  0
   42.0900   71.4340   60.1600 C   0  0  0  0  0  0  0  0  0  0  0  0
   41.6560   70.6890   59.0600 C   0  0  0  0  0  0  0  0  0  0  0  0
   41.5400   69.3440   59.2380 N   0  0  0  0  0  0  0  0  0  0  0  0
   41.8060   68.6980   60.3710 C   0  0  0  0  0  0  0  0  0  0  0  0
   42.2320   69.4060   61.4590 N   0  0  0  0  0  0  0  0  0  0  0  0
   42.6920   71.3270   62.1590 H   0  0  0  0  0  0  0  0  0  0  0  0
   41.4140   71.1110   58.0980 H   0  0  0  0  0  0  0  0  0  0  0  0
   41.6110   67.2290   60.3430 C   0  0  0  0  0  0  0  0  0  0  0  0
   40.6870   66.8030   61.2540 F   0  0  0  0  0  0  0  0  0  0  0  0
   41.2030   66.8350   59.0670 F   0  0  0  0  0  0  0  0  0  0  0  0
   42.8060   66.5620   60.6690 F   0  0  0  0  0  0  0  0  0  0  0  0
   40.0910   75.8140   60.2010 O   0  0  0  0  0  0  0  0  0  0  0  0
   38.9450   75.8320   59.3780 C   0  0  0  0  0  0  0  0  0  0  0  0
   38.2180   76.5820   59.7740 H   0  0  0  0  0  0  0  0  0  0  0  0
   38.4690   74.8270   59.3630 H   0  0  0  0  0  0  0  0  0  0  0  0
   39.3740   76.1230   58.0740 O   0  0  0  0  0  0  0  0  0  0  0  0
   39.0920   77.3720   57.5380 C   0  0  0  0  0  3  0  0  0  0  0  0
   38.1860   77.5810   56.5970 C   0  0  0  0  0  3  0  0  0  0  0  0
   37.4140   76.4500   56.0630 C   0  0  0  0  0  2  0  0  0  0  0  0
   37.1670   76.5620   54.9860 H   0  0  0  0  0  0  0  0  0  0  0  0
  2  1  1  0  0  0  0
  3 12  1  0  0  0  0
  3  2  2  0  0  0  0
  4  3  1  0  0  0  0
  5  4  2  0  0  0  0
  5  6  1  0  0  0  0
  6  8  2  0  0  0  0
  7  6  1  0  0  0  0
  8  2  1  0  0  0  0
  8 23  1  0  0  0  0
  9  4  1  0  0  0  0
 10  5  1  0  0  0  0
 11 16  1  0  0  0  0
 11 17  1  0  0  0  0
 12 11  2  0  0  0  0
 13 14  2  0  0  0  0
 13 12  1  0  0  0  0
 14 15  1  0  0  0  0
 15 16  2  0  0  0  0
 18 13  1  0  0  0  0
 19 15  1  0  0  0  0
 19 22  1  0  0  0  0
 19 20  1  0  0  0  0
 21 19  1  0  0  0  0
 24 25  1  0  0  0  0
 24 23  1  0  0  0  0
 26 24  1  0  0  0  0
 27 24  1  0  0  0  0
 28 27  1  0  0  0  0
 29 28  2  0  0  0  0
 30 29  1  0  0  0  0
 31 30  1  0  0  0  0
M  END
>  <minimizedAffinity>
-5.03650045

$$$$

 OpenBabel03212520213D

 31 32  0  0  0  0  0  0  0  0999 V2000
   42.9040   71.3640   58.6740 Cl  0  0  0  0  0  0  0  0  0  0  0  0
   42.4860   71.2490   60.3690 C   0  0  0  0  0  0  0  0  0  0  0  0
   41.5630   72.1000   60.9810 C   0  0  0  0  0  0  0  0  0  0  0  0
   41.3450   71.8750   62.3320 C   0  0  0  0  0  0  0  0  0  0  0  0
   41.9390   70.9140   63.1140 C   0  0  0  0  0  0  0  0  0  0  0  0
   42.8260   70.1110   62.4840 C   0  0  0  0  0  0  0  0  0  0  0  0
   43.6620   68.8360   63.3640 Cl  0  0  0  0  0  0  0  0  0  0  0  0
   43.1050   70.2690   61.1220 C   0  0  0  0  0  0  0  0  0  0  0  0
   40.6180   72.5610   62.7660 H   0  0  0  0  0  0  0  0  0  0  0  0
   41.6920   70.8290   64.1640 H   0  0  0  0  0  0  0  0  0  0  0  0
   41.4300   74.3730   59.8690 C   0  0  0  0  0  0  0  0  0  0  0  0
   40.9340   73.1000   60.2030 C   0  0  0  0  0  0  0  0  0  0  0  0
   39.6670   72.7690   59.7140 C   0  0  0  0  0  0  0  0  0  0  0  0
   39.0350   73.7120   58.9620 N   0  0  0  0  0  0  0  0  0  0  0  0
   39.5330   74.9100   58.6630 C   0  0  0  0  0  0  0  0  0  0  0  0
   40.7700   75.2540   59.1300 N   0  0  0  0  0  0  0  0  0  0  0  0
   42.4020   74.5870   60.2620 H   0  0  0  0  0  0  0  0  0  0  0  0
   39.1710   71.8290   59.8960 H   0  0  0  0  0  0  0  0  0  0  0  0
   38.6730   75.7810   57.8280 C   0  0  0  0  0  0  0  0  0  0  0  0
   37.3970   75.3090   57.7140 F   0  0  0  0  0  0  0  0  0  0  0  0
   38.6330   77.0650   58.3770 F   0  0  0  0  0  0  0  0  0  0  0  0
   39.1710   75.8600   56.5140 F   0  0  0  0  0  0  0  0  0  0  0  0
   44.0220   69.4200   60.5250 O   0  0  0  0  0  0  0  0  0  0  0  0
   43.7790   68.0500   60.2910 C   0  0  0  0  0  0  0  0  0  0  0  0
   43.1300   67.6460   61.1060 H   0  0  0  0  0  0  0  0  0  0  0  0
   44.7400   67.4900   60.2720 H   0  0  0  0  0  0  0  0  0  0  0  0
   43.1940   67.9420   59.0210 O   0  0  0  0  0  0  0  0  0  0  0  0
   41.8440   67.6320   58.9290 C   0  0  0  0  0  3  0  0  0  0  0  0
   41.1050   67.8760   57.8590 C   0  0  0  0  0  3  0  0  0  0  0  0
   41.7130   68.5110   56.6820 C   0  0  0  0  0  2  0  0  0  0  0  0
   41.0130   69.1830   56.1390 H   0  0  0  0  0  0  0  0  0  0  0  0
  1  2  1  0  0  0  0
  2  3  2  0  0  0  0
  2  8  1  0  0  0  0
  3  4  1  0  0  0  0
  4  9  1  0  0  0  0
  4  5  2  0  0  0  0
  5 10  1  0  0  0  0
  6  5  1  0  0  0  0
  6  7  1  0  0  0  0
  8  6  2  0  0  0  0
 11 12  1  0  0  0  0
 11 17  1  0  0  0  0
 12  3  1  0  0  0  0
 13 18  1  0  0  0  0
 13 12  2  0  0  0  0
 14 13  1  0  0  0  0
 15 14  2  0  0  0  0
 15 16  1  0  0  0  0
 16 11  2  0  0  0  0
 19 21  1  0  0  0  0
 19 15  1  0  0  0  0
 20 19  1  0  0  0  0
 22 19  1  0  0  0  0
 23  8  1  0  0  0  0
 24 23  1  0  0  0  0
 24 25  1  0  0  0  0
 26 24  1  0  0  0  0
 27 24  1  0  0  0  0
 28 27  1  0  0  0  0
 29 28  2  0  0  0  0
 30 29  1  0  0  0  0
 31 30  1  0  0  0  0
M  END
>  <minimizedAffinity>
-4.99790764

$$$$

 OpenBabel03212520213D

 31 32  0  0  0  0  0  0  0  0999 V2000
   40.3750   70.9110   58.2490 Cl  0  0  0  0  0  0  0  0  0  0  0  0
   41.5190   70.4720   59.4990 C   0  0  0  0  0  0  0  0  0  0  0  0
   41.9210   71.3570   60.5020 C   0  0  0  0  0  0  0  0  0  0  0  0
   42.8350   70.8510   61.4150 C   0  0  0  0  0  0  0  0  0  0  0  0
   43.3730   69.5880   61.4270 C   0  0  0  0  0  0  0  0  0  0  0  0
   42.9590   68.7630   60.4400 C   0  0  0  0  0  0  0  0  0  0  0  0
   43.5680   67.1140   60.3350 Cl  0  0  0  0  0  0  0  0  0  0  0  0
   42.0390   69.1930   59.4770 C   0  0  0  0  0  0  0  0  0  0  0  0
   43.1180   71.5760   62.1780 H   0  0  0  0  0  0  0  0  0  0  0  0
   44.0830   69.3000   62.1920 H   0  0  0  0  0  0  0  0  0  0  0  0
   40.2180   73.1130   61.1650 C   0  0  0  0  0  0  0  0  0  0  0  0
   41.3840   72.6650   60.5160 C   0  0  0  0  0  0  0  0  0  0  0  0
   42.1080   73.6180   59.7950 C   0  0  0  0  0  0  0  0  0  0  0  0
   41.6160   74.8870   59.7890 N   0  0  0  0  0  0  0  0  0  0  0  0
   40.5080   75.2790   60.4150 C   0  0  0  0  0  0  0  0  0  0  0  0
   39.7840   74.3650   61.1260 N   0  0  0  0  0  0  0  0  0  0  0  0
   39.6940   72.3530   61.7050 H   0  0  0  0  0  0  0  0  0  0  0  0
   43.0170   73.4090   59.2520 H   0  0  0  0  0  0  0  0  0  0  0  0
   40.1560   76.7120   60.2760 C   0  0  0  0  0  0  0  0  0  0  0  0
   39.8960   77.3100   61.4760 F   0  0  0  0  0  0  0  0  0  0  0  0
   41.2010   77.3940   59.6490 F   0  0  0  0  0  0  0  0  0  0  0  0
   38.9850   76.8640   59.5120 F   0  0  0  0  0  0  0  0  0  0  0  0
   41.6470   68.3070   58.4870 O   0  0  0  0  0  0  0  0  0  0  0  0
   42.3020   68.1870   57.2430 C   0  0  0  0  0  0  0  0  0  0  0  0
   43.0520   67.3610   57.2990 H   0  0  0  0  0  0  0  0  0  0  0  0
   42.8190   69.1390   56.9900 H   0  0  0  0  0  0  0  0  0  0  0  0
   41.3150   67.9650   56.2720 O   0  0  0  0  0  0  0  0  0  0  0  0
   41.1350   68.9070   55.2680 C   0  0  0  0  0  3  0  0  0  0  0  0
   41.3940   68.6790   53.9910 C   0  0  0  0  0  3  0  0  0  0  0  0
   41.9010   67.3650   53.5720 C   0  0  0  0  0  2  0  0  0  0  0  0
   42.6090   67.4240   52.7170 H   0  0  0  0  0  0  0  0  0  0  0  0
  1  2  1  0  0  0  0
  2  3  1  0  0  0  0
  3 12  1  0  0  0  0
  3  4  2  0  0  0  0
  4  5  1  0  0  0  0
  4  9  1  0  0  0  0
  5 10  1  0  0  0  0
  6  5  2  0  0  0  0
  7  6  1  0  0  0  0
  8  2  2  0  0  0  0
  8  6  1  0  0  0  0
 11 17  1  0  0  0  0
 12 11  2  0  0  0  0
 13 12  1  0  0  0  0
 14 13  2  0  0  0  0
 14 15  1  0  0  0  0
 15 16  2  0  0  0  0
 16 11  1  0  0  0  0
 18 13  1  0  0  0  0
 19 15  1  0  0  0  0
 19 20  1  0  0  0  0
 21 19  1  0  0  0  0
 22 19  1  0  0  0  0
 23  8  1  0  0  0  0
 24 25  1  0  0  0  0
 24 23  1  0  0  0  0
 26 24  1  0  0  0  0
 27 24  1  0  0  0  0
 28 27  1  0  0  0  0
 29 28  2  0  0  0  0
 30 29  1  0  0  0  0
 31 30  1  0  0  0  0
M  END
>  <minimizedAffinity>
-4.86613941

$$$$

 OpenBabel03212520213D

 31 32  0  0  0  0  0  0  0  0999 V2000
   40.3850   72.3860   55.5550 Cl  0  0  0  0  0  0  0  0  0  0  0  0
   39.4690   73.5810   54.6620 C   0  0  0  0  0  0  0  0  0  0  0  0
   38.7520   74.6040   55.2850 C   0  0  0  0  0  0  0  0  0  0  0  0
   38.0800   75.4680   54.4330 C   0  0  0  0  0  0  0  0  0  0  0  0
   38.0510   75.4150   53.0600 C   0  0  0  0  0  0  0  0  0  0  0  0
   38.7580   74.4100   52.4970 C   0  0  0  0  0  0  0  0  0  0  0  0
   38.8090   74.2210   50.7470 Cl  0  0  0  0  0  0  0  0  0  0  0  0
   39.4650   73.4930   53.2840 C   0  0  0  0  0  0  0  0  0  0  0  0
   37.5360   76.2500   54.9620 H   0  0  0  0  0  0  0  0  0  0  0  0
   37.4900   76.1450   52.4930 H   0  0  0  0  0  0  0  0  0  0  0  0
   37.8990   74.0460   57.6050 C   0  0  0  0  0  0  0  0  0  0  0  0
   38.7620   74.6860   56.6970 C   0  0  0  0  0  0  0  0  0  0  0  0
   39.7540   75.5060   57.2420 C   0  0  0  0  0  0  0  0  0  0  0  0
   39.7890   75.6060   58.5990 N   0  0  0  0  0  0  0  0  0  0  0  0
   38.9560   74.9850   59.4320 C   0  0  0  0  0  0  0  0  0  0  0  0
   37.9790   74.1790   58.9210 N   0  0  0  0  0  0  0  0  0  0  0  0
   37.1550   73.4280   57.1480 H   0  0  0  0  0  0  0  0  0  0  0  0
   40.4780   76.0540   56.6600 H   0  0  0  0  0  0  0  0  0  0  0  0
   39.1750   75.2360   60.8760 C   0  0  0  0  0  0  0  0  0  0  0  0
   40.2360   74.5370   61.3780 F   0  0  0  0  0  0  0  0  0  0  0  0
   39.3920   76.6000   61.0880 F   0  0  0  0  0  0  0  0  0  0  0  0
   38.0580   74.8280   61.6270 F   0  0  0  0  0  0  0  0  0  0  0  0
   40.1730   72.4820   52.6560 O   0  0  0  0  0  0  0  0  0  0  0  0
   39.6290   71.2130   52.3640 C   0  0  0  0  0  0  0  0  0  0  0  0
   39.3000   71.1900   51.2960 H   0  0  0  0  0  0  0  0  0  0  0  0
   38.7570   71.0100   53.0240 H   0  0  0  0  0  0  0  0  0  0  0  0
   40.6170   70.2600   52.6520 O   0  0  0  0  0  0  0  0  0  0  0  0
   40.3190   68.9140   52.4880 C   0  0  0  0  0  3  0  0  0  0  0  0
   40.4890   68.0030   53.4320 C   0  0  0  0  0  3  0  0  0  0  0  0
   41.0210   68.4020   54.7430 C   0  0  0  0  0  2  0  0  0  0  0  0
   41.6580   67.6190   55.2100 H   0  0  0  0  0  0  0  0  0  0  0  0
  2  3  1  0  0  0  0
  2  1  1  0  0  0  0
  3 12  1  0  0  0  0
  4  9  1  0  0  0  0
  4  3  2  0  0  0  0
  5  4  1  0  0  0  0
  6  5  2  0  0  0  0
  6  8  1  0  0  0  0
  7  6  1  0  0  0  0
  8  2  2  0  0  0  0
 10  5  1  0  0  0  0
 11 16  1  0  0  0  0
 12 13  1  0  0  0  0
 12 11  2  0  0  0  0
 13 14  2  0  0  0  0
 14 15  1  0  0  0  0
 15 19  1  0  0  0  0
 16 15  2  0  0  0  0
 17 11  1  0  0  0  0
 18 13  1  0  0  0  0
 19 21  1  0  0  0  0
 19 20  1  0  0  0  0
 19 22  1  0  0  0  0
 23  8  1  0  0  0  0
 24 27  1  0  0  0  0
 24 23  1  0  0  0  0
 24 26  1  0  0  0  0
 25 24  1  0  0  0  0
 28 27  1  0  0  0  0
 28 29  2  0  0  0  0
 29 30  1  0  0  0  0
 30 31  1  0  0  0  0
M  END
>  <minimizedAffinity>
-4.82169342

$$$$
