
 OpenBabel03212520193D

 31 32  0  0  0  0  0  0  0  0999 V2000
   43.0730   84.0100   58.5870 Cl  0  0  0  0  0  0  0  0  0  0  0  0
   41.8740   82.7960   58.2000 C   0  0  0  0  0  0  0  0  0  0  0  0
   41.0190   82.2450   59.1560 C   0  0  0  0  0  0  0  0  0  0  0  0
   40.1260   81.2940   58.6840 C   0  0  0  0  0  0  0  0  0  0  0  0
   40.0050   80.8490   57.3900 C   0  0  0  0  0  0  0  0  0  0  0  0
   40.8500   81.4070   56.4950 C   0  0  0  0  0  0  0  0  0  0  0  0
   40.8060   80.9300   54.8010 Cl  0  0  0  0  0  0  0  0  0  0  0  0
   41.7830   82.3740   56.8870 C   0  0  0  0  0  0  0  0  0  0  0  0
   39.4800   80.8920   59.4640 H   0  0  0  0  0  0  0  0  0  0  0  0
   39.2690   80.0980   57.1330 H   0  0  0  0  0  0  0  0  0  0  0  0
   41.9620   82.1850   61.5080 C   0  0  0  0  0  0  0  0  0  0  0  0
   41.1180   82.6820   60.4970 C   0  0  0  0  0  0  0  0  0  0  0  0
   40.2710   83.7370   60.8480 C   0  0  0  0  0  0  0  0  0  0  0  0
   40.3440   84.1800   62.1330 N   0  0  0  0  0  0  0  0  0  0  0  0
   41.1550   83.6880   63.0660 C   0  0  0  0  0  0  0  0  0  0  0  0
   41.9910   82.6560   62.7460 N   0  0  0  0  0  0  0  0  0  0  0  0
   42.5940   81.3790   61.1980 H   0  0  0  0  0  0  0  0  0  0  0  0
   39.5760   84.2090   60.1710 H   0  0  0  0  0  0  0  0  0  0  0  0
   41.0690   84.3220   64.4030 C   0  0  0  0  0  0  0  0  0  0  0  0
   40.7350   85.6450   64.3380 F   0  0  0  0  0  0  0  0  0  0  0  0
   40.1210   83.6530   65.1800 F   0  0  0  0  0  0  0  0  0  0  0  0
   42.3140   84.2740   65.0570 F   0  0  0  0  0  0  0  0  0  0  0  0
   42.6260   82.9140   55.9310 O   0  0  0  0  0  0  0  0  0  0  0  0
   42.3410   84.0980   55.2170 C   0  0  0  0  0  0  0  0  0  0  0  0
   41.6460   84.7330   55.8180 H   0  0  0  0  0  0  0  0  0  0  0  0
   41.8670   83.8510   54.2420 H   0  0  0  0  0  0  0  0  0  0  0  0
   43.5660   84.7290   54.9520 O   0  0  0  0  0  0  0  0  0  0  0  0
   44.1450   84.5700   53.7000 C   0  0  0  0  0  3  0  0  0  0  0  0
   45.2850   85.1350   53.3410 C   0  0  0  0  0  3  0  0  0  0  0  0
   46.0110   85.9850   54.2940 C   0  0  0  0  0  2  0  0  0  0  0  0
   46.5450   86.8290   53.8070 H   0  0  0  0  0  0  0  0  0  0  0  0
  2  1  1  0  0  0  0
  2  3  1  0  0  0  0
  3 12  1  0  0  0  0
  4  3  2  0  0  0  0
  4  9  1  0  0  0  0
  5  4  1  0  0  0  0
  6  8  1  0  0  0  0
  6  5  2  0  0  0  0
  7  6  1  0  0  0  0
  8  2  2  0  0  0  0
 10  5  1  0  0  0  0
 11 16  1  0  0  0  0
 12 13  1  0  0  0  0
 12 11  2  0  0  0  0
 13 14  2  0  0  0  0
 14 15  1  0  0  0  0
 15 19  1  0  0  0  0
 16 15  2  0  0  0  0
 17 11  1  0  0  0  0
 18 13  1  0  0  0  0
 19 22  1  0  0  0  0
 19 21  1  0  0  0  0
 20 19  1  0  0  0  0
 23  8  1  0  0  0  0
 24 25  1  0  0  0  0
 24 23  1  0  0  0  0
 26 24  1  0  0  0  0
 27 24  1  0  0  0  0
 28 27  1  0  0  0  0
 29 28  2  0  0  0  0
 29 30  1  0  0  0  0
 31 30  1  0  0  0  0
M  END
>  <minimizedAffinity>
-4.75985718

>  <minimizedRMSD>
0.595043302

$$$$
