
 OpenBabel03212520393D

 22 23  0  0  1  0  0  0  0  0999 V2000
   42.4630   85.3790   59.8360 C   0  0  1  0  0  0  0  0  0  0  0  0
   43.4380   86.5180   59.5520 C   0  0  0  0  0  0  0  0  0  0  0  0
   43.2560   85.3430   58.5970 C   0  0  1  0  0  0  0  0  0  0  0  0
   41.4040   85.7740   59.8490 H   0  0  0  0  0  0  0  0  0  0  0  0
   44.4160   86.5410   60.0560 H   0  0  0  0  0  0  0  0  0  0  0  0
   43.0750   87.5020   59.2440 H   0  0  0  0  0  0  0  0  0  0  0  0
   42.8380   85.6320   57.6240 H   0  0  0  0  0  0  0  0  0  0  0  0
   42.8770   84.6000   60.9370 O   0  0  0  0  0  0  0  0  0  0  0  0
   40.0210   83.5330   62.8720 C   0  0  0  0  0  0  0  0  0  0  0  0
   40.4760   83.7470   64.1950 C   0  0  0  0  0  0  0  0  0  0  0  0
   41.8000   84.2710   64.3720 C   0  0  0  0  0  0  0  0  0  0  0  0
   42.4910   84.5110   63.2490 N   0  0  0  0  0  0  0  0  0  0  0  0
   42.0640   84.3110   62.0080 C   0  0  0  0  0  0  0  0  0  0  0  0
   40.8450   83.8280   61.8090 N   0  0  0  0  0  0  0  0  0  0  0  0
   39.0270   83.1380   62.7030 H   0  0  0  0  0  0  0  0  0  0  0  0
   39.8710   83.5330   65.0440 H   0  0  0  0  0  0  0  0  0  0  0  0
   42.1940   84.4520   65.3620 H   0  0  0  0  0  0  0  0  0  0  0  0
   44.2870   84.3940   58.5380 O   0  0  0  0  0  0  0  0  0  0  0  0
   44.9850   84.2160   57.3560 C   0  0  0  0  0  3  0  0  0  0  0  0
   45.2590   85.2780   56.5800 C   0  0  0  0  0  3  0  0  0  0  0  0
   45.9710   85.4440   55.2800 C   0  0  0  0  0  2  0  0  0  0  0  0
   45.3430   85.8780   54.4900 H   0  0  0  0  0  0  0  0  0  0  0  0
  1  4  1  6  0  0  0
  1  8  1  0  0  0  0
  2  1  1  0  0  0  0
  2  5  1  0  0  0  0
  3  7  1  6  0  0  0
  3  2  1  0  0  0  0
  3  1  1  0  0  0  0
  6  2  1  0  0  0  0
  8 13  1  0  0  0  0
  9 10  1  0  0  0  0
 10 11  2  0  0  0  0
 10 16  1  0  0  0  0
 11 17  1  0  0  0  0
 12 11  1  0  0  0  0
 13 12  2  0  0  0  0
 14 13  1  0  0  0  0
 14  9  2  0  0  0  0
 15  9  1  0  0  0  0
 18  3  1  0  0  0  0
 19 18  1  0  0  0  0
 20 19  2  0  0  0  0
 21 20  1  0  0  0  0
 22 21  1  0  0  0  0
M  END
>  <minimizedAffinity>
-3.35782027

>  <minimizedRMSD>
0.199474707

$$$$
