
 OpenBabel03212520393D

 22 23  0  0  1  0  0  0  0  0999 V2000
   42.4000   85.4030   59.7960 C   0  0  1  0  0  0  0  0  0  0  0  0
   43.4350   86.4930   59.5280 C   0  0  0  0  0  0  0  0  0  0  0  0
   43.1390   85.3850   58.5230 C   0  0  1  0  0  0  0  0  0  0  0  0
   41.3700   85.8620   59.8750 H   0  0  0  0  0  0  0  0  0  0  0  0
   44.4310   86.4290   59.9890 H   0  0  0  0  0  0  0  0  0  0  0  0
   43.1230   87.5130   59.2860 H   0  0  0  0  0  0  0  0  0  0  0  0
   42.7020   85.7500   57.5850 H   0  0  0  0  0  0  0  0  0  0  0  0
   42.8080   84.5430   60.8370 O   0  0  0  0  0  0  0  0  0  0  0  0
   40.0260   83.5220   62.9010 C   0  0  0  0  0  0  0  0  0  0  0  0
   40.5340   83.7560   64.2010 C   0  0  0  0  0  0  0  0  0  0  0  0
   41.8650   84.2760   64.3170 C   0  0  0  0  0  0  0  0  0  0  0  0
   42.5130   84.4940   63.1640 N   0  0  0  0  0  0  0  0  0  0  0  0
   42.0370   84.2750   61.9440 C   0  0  0  0  0  0  0  0  0  0  0  0
   40.8090   83.7940   61.8020 N   0  0  0  0  0  0  0  0  0  0  0  0
   39.0250   83.1280   62.7770 H   0  0  0  0  0  0  0  0  0  0  0  0
   39.9620   83.5590   65.0760 H   0  0  0  0  0  0  0  0  0  0  0  0
   42.2990   84.4720   65.2870 H   0  0  0  0  0  0  0  0  0  0  0  0
   44.1040   84.3780   58.3710 O   0  0  0  0  0  0  0  0  0  0  0  0
   44.7370   84.2170   57.1510 C   0  0  0  0  0  0  0  0  0  0  0  0
   45.2770   85.2830   56.5370 C   0  0  0  0  0  0  0  0  0  0  0  0
   46.0110   85.4660   55.2510 C   0  0  0  0  0  0  0  0  0  0  0  0
   45.5180   86.1630   54.5610 H   0  0  0  0  0  0  0  0  0  0  0  0
  1  4  1  6  0  0  0
  1  8  1  0  0  0  0
  2  1  1  0  0  0  0
  2  5  1  0  0  0  0
  3  7  1  6  0  0  0
  3  2  1  0  0  0  0
  3  1  1  0  0  0  0
  6  2  1  0  0  0  0
  8 13  1  0  0  0  0
  9 10  1  0  0  0  0
 10 11  2  0  0  0  0
 10 16  1  0  0  0  0
 11 17  1  0  0  0  0
 12 11  1  0  0  0  0
 13 12  2  0  0  0  0
 14 13  1  0  0  0  0
 14  9  2  0  0  0  0
 15  9  1  0  0  0  0
 18  3  1  0  0  0  0
 19 18  1  0  0  0  0
 20 19  2  0  0  0  0
 21 20  1  0  0  0  0
 22 21  1  0  0  0  0
M  END
>  <minimizedAffinity>
-3.36425352

>  <minimizedRMSD>
0.074562937

$$$$
