
 OpenBabel03212520403D

 22 23  0  0  1  0  0  0  0  0999 V2000
   42.3110   85.3720   59.7260 C   0  0  1  0  0  0  0  0  0  0  0  0
   43.2820   86.4390   59.2280 C   0  0  0  0  0  0  0  0  0  0  0  0
   42.9730   85.1800   58.4250 C   0  0  1  0  0  0  0  0  0  0  0  0
   41.2690   85.8050   59.8010 H   0  0  0  0  0  0  0  0  0  0  0  0
   44.3060   86.4790   59.6280 H   0  0  0  0  0  0  0  0  0  0  0  0
   42.9140   87.4000   58.8540 H   0  0  0  0  0  0  0  0  0  0  0  0
   42.4660   85.3820   57.4730 H   0  0  0  0  0  0  0  0  0  0  0  0
   42.8140   84.6960   60.8570 O   0  0  0  0  0  0  0  0  0  0  0  0
   40.0440   83.5330   62.8610 C   0  0  0  0  0  0  0  0  0  0  0  0
   40.5410   83.7240   64.1720 C   0  0  0  0  0  0  0  0  0  0  0  0
   41.8610   84.2660   64.3170 C   0  0  0  0  0  0  0  0  0  0  0  0
   42.5090   84.5450   63.1780 N   0  0  0  0  0  0  0  0  0  0  0  0
   42.0430   84.3670   61.9470 C   0  0  0  0  0  0  0  0  0  0  0  0
   40.8270   83.8680   61.7780 N   0  0  0  0  0  0  0  0  0  0  0  0
   39.0520   83.1250   62.7160 H   0  0  0  0  0  0  0  0  0  0  0  0
   39.9700   83.4790   65.0360 H   0  0  0  0  0  0  0  0  0  0  0  0
   42.2860   84.4300   65.2970 H   0  0  0  0  0  0  0  0  0  0  0  0
   43.9670   84.1930   58.3660 O   0  0  0  0  0  0  0  0  0  0  0  0
   45.2250   84.5180   57.8890 C   0  0  0  0  0  3  0  0  0  0  0  0
   45.3680   84.9230   56.6160 C   0  0  0  0  0  3  0  0  0  0  0  0
   46.5430   85.3410   55.7960 C   0  0  0  0  0  2  0  0  0  0  0  0
   46.7000   84.7150   54.9060 H   0  0  0  0  0  0  0  0  0  0  0  0
  1  4  1  6  0  0  0
  1  8  1  0  0  0  0
  2  5  1  0  0  0  0
  2  1  1  0  0  0  0
  3  7  1  6  0  0  0
  3  2  1  0  0  0  0
  3  1  1  0  0  0  0
  6  2  1  0  0  0  0
  8 13  1  0  0  0  0
  9 10  1  0  0  0  0
 10 11  2  0  0  0  0
 10 16  1  0  0  0  0
 11 17  1  0  0  0  0
 12 11  1  0  0  0  0
 13 12  2  0  0  0  0
 14 13  1  0  0  0  0
 14  9  2  0  0  0  0
 15  9  1  0  0  0  0
 18  3  1  0  0  0  0
 19 18  1  0  0  0  0
 20 19  2  0  0  0  0
 21 20  1  0  0  0  0
 22 21  1  0  0  0  0
M  END
>  <minimizedAffinity>
-3.32216692

>  <minimizedRMSD>
1.01969779

$$$$
