
 OpenBabel03212520393D

 22 23  0  0  1  0  0  0  0  0999 V2000
   42.3630   85.4310   59.7790 C   0  0  1  0  0  0  0  0  0  0  0  0
   43.4290   86.4600   59.4110 C   0  0  0  0  0  0  0  0  0  0  0  0
   43.0170   85.3380   58.4640 C   0  0  1  0  0  0  0  0  0  0  0  0
   41.3630   85.9430   59.9070 H   0  0  0  0  0  0  0  0  0  0  0  0
   44.4480   86.3610   59.8110 H   0  0  0  0  0  0  0  0  0  0  0  0
   43.1510   87.4870   59.1550 H   0  0  0  0  0  0  0  0  0  0  0  0
   42.5390   85.6960   57.5430 H   0  0  0  0  0  0  0  0  0  0  0  0
   42.7950   84.5840   60.8210 O   0  0  0  0  0  0  0  0  0  0  0  0
   40.0350   83.5240   62.8950 C   0  0  0  0  0  0  0  0  0  0  0  0
   40.5510   83.7490   64.1930 C   0  0  0  0  0  0  0  0  0  0  0  0
   41.8790   84.2780   64.3050 C   0  0  0  0  0  0  0  0  0  0  0  0
   42.5170   84.5110   63.1490 N   0  0  0  0  0  0  0  0  0  0  0  0
   42.0330   84.3000   61.9300 C   0  0  0  0  0  0  0  0  0  0  0  0
   40.8080   83.8120   61.7920 N   0  0  0  0  0  0  0  0  0  0  0  0
   39.0360   83.1240   62.7750 H   0  0  0  0  0  0  0  0  0  0  0  0
   39.9870   83.5400   65.0710 H   0  0  0  0  0  0  0  0  0  0  0  0
   42.3190   84.4670   65.2730 H   0  0  0  0  0  0  0  0  0  0  0  0
   43.9220   84.2800   58.2860 O   0  0  0  0  0  0  0  0  0  0  0  0
   44.7390   84.2620   57.1700 C   0  0  0  0  0  3  0  0  0  0  0  0
   45.9940   84.7330   57.2560 C   0  0  0  0  0  3  0  0  0  0  0  0
   47.1140   84.8600   56.2790 C   0  0  0  0  0  2  0  0  0  0  0  0
   47.4540   85.8950   56.1360 H   0  0  0  0  0  0  0  0  0  0  0  0
  1  4  1  1  0  0  0
  1  8  1  0  0  0  0
  2  1  1  0  0  0  0
  2  5  1  0  0  0  0
  3  7  1  6  0  0  0
  3  2  1  0  0  0  0
  3  1  1  0  0  0  0
  6  2  1  0  0  0  0
  8 13  1  0  0  0  0
  9 10  1  0  0  0  0
 10 11  2  0  0  0  0
 10 16  1  0  0  0  0
 11 17  1  0  0  0  0
 12 11  1  0  0  0  0
 13 12  2  0  0  0  0
 14 13  1  0  0  0  0
 14  9  2  0  0  0  0
 15  9  1  0  0  0  0
 18  3  1  0  0  0  0
 19 20  2  0  0  0  0
 19 18  1  0  0  0  0
 21 20  1  0  0  0  0
 22 21  1  0  0  0  0
M  END
>  <minimizedAffinity>
-3.29427171

>  <minimizedRMSD>
0.144449651

$$$$
