
 OpenBabel03212520393D

 22 23  0  0  1  0  0  0  0  0999 V2000
   42.1190   85.2930   59.6380 C   0  0  1  0  0  0  0  0  0  0  0  0
   43.0320   86.2780   58.9130 C   0  0  0  0  0  0  0  0  0  0  0  0
   42.6920   84.9080   58.3380 C   0  0  1  0  0  0  0  0  0  0  0  0
   41.0780   85.7240   59.7210 H   0  0  0  0  0  0  0  0  0  0  0  0
   44.0810   86.3870   59.2270 H   0  0  0  0  0  0  0  0  0  0  0  0
   42.6210   87.1660   58.4240 H   0  0  0  0  0  0  0  0  0  0  0  0
   42.1150   84.9560   57.4050 H   0  0  0  0  0  0  0  0  0  0  0  0
   42.7140   84.8040   60.8200 O   0  0  0  0  0  0  0  0  0  0  0  0
   40.0560   83.5160   62.8970 C   0  0  0  0  0  0  0  0  0  0  0  0
   40.5960   83.6910   64.1930 C   0  0  0  0  0  0  0  0  0  0  0  0
   41.9040   84.2680   64.3020 C   0  0  0  0  0  0  0  0  0  0  0  0
   42.5010   84.5920   63.1470 N   0  0  0  0  0  0  0  0  0  0  0  0
   41.9940   84.4280   61.9300 C   0  0  0  0  0  0  0  0  0  0  0  0
   40.7870   83.8970   61.7950 N   0  0  0  0  0  0  0  0  0  0  0  0
   39.0710   83.0820   62.7790 H   0  0  0  0  0  0  0  0  0  0  0  0
   40.0640   83.4100   65.0710 H   0  0  0  0  0  0  0  0  0  0  0  0
   42.3610   84.4230   65.2690 H   0  0  0  0  0  0  0  0  0  0  0  0
   43.6980   83.9310   58.3590 O   0  0  0  0  0  0  0  0  0  0  0  0
   45.0000   84.2850   58.0520 C   0  0  0  0  0  3  0  0  0  0  0  0
   45.3790   84.3720   56.7660 C   0  0  0  0  0  3  0  0  0  0  0  0
   46.6660   84.7180   56.0950 C   0  0  0  0  0  2  0  0  0  0  0  0
   47.0560   83.9140   55.4550 H   0  0  0  0  0  0  0  0  0  0  0  0
  1  4  1  1  0  0  0
  1  8  1  0  0  0  0
  2  5  1  0  0  0  0
  2  1  1  0  0  0  0
  3  7  1  6  0  0  0
  3 18  1  0  0  0  0
  3  2  1  0  0  0  0
  3  1  1  0  0  0  0
  6  2  1  0  0  0  0
  8 13  1  0  0  0  0
  9 10  1  0  0  0  0
 10 11  2  0  0  0  0
 10 16  1  0  0  0  0
 11 17  1  0  0  0  0
 12 11  1  0  0  0  0
 13 12  2  0  0  0  0
 14 13  1  0  0  0  0
 14  9  2  0  0  0  0
 15  9  1  0  0  0  0
 19 18  1  0  0  0  0
 20 19  2  0  0  0  0
 21 20  1  0  0  0  0
 22 21  1  0  0  0  0
M  END
>  <minimizedAffinity>
-3.29666781

>  <minimizedRMSD>
0.799953997

$$$$
