
 OpenBabel03212520393D

 22 23  0  0  1  0  0  0  0  0999 V2000
   42.4040   85.4030   59.8020 C   0  0  1  0  0  0  0  0  0  0  0  0
   43.4150   86.4820   59.4230 C   0  0  0  0  0  0  0  0  0  0  0  0
   43.1150   85.2910   58.5190 C   0  0  1  0  0  0  0  0  0  0  0  0
   41.3680   85.8520   59.8670 H   0  0  0  0  0  0  0  0  0  0  0  0
   44.4220   86.4700   59.8650 H   0  0  0  0  0  0  0  0  0  0  0  0
   43.0810   87.4740   59.1050 H   0  0  0  0  0  0  0  0  0  0  0  0
   42.6520   85.5710   57.5640 H   0  0  0  0  0  0  0  0  0  0  0  0
   42.8470   84.6370   60.9010 O   0  0  0  0  0  0  0  0  0  0  0  0
   40.0270   83.5370   62.8700 C   0  0  0  0  0  0  0  0  0  0  0  0
   40.5020   83.7390   64.1880 C   0  0  0  0  0  0  0  0  0  0  0  0
   41.8260   84.2660   64.3490 C   0  0  0  0  0  0  0  0  0  0  0  0
   42.4980   84.5210   63.2180 N   0  0  0  0  0  0  0  0  0  0  0  0
   42.0520   84.3320   61.9810 C   0  0  0  0  0  0  0  0  0  0  0  0
   40.8330   83.8460   61.7970 N   0  0  0  0  0  0  0  0  0  0  0  0
   39.0330   83.1390   62.7130 H   0  0  0  0  0  0  0  0  0  0  0  0
   39.9130   83.5130   65.0440 H   0  0  0  0  0  0  0  0  0  0  0  0
   42.2360   84.4380   65.3340 H   0  0  0  0  0  0  0  0  0  0  0  0
   44.0920   84.2880   58.4280 O   0  0  0  0  0  0  0  0  0  0  0  0
   45.2160   84.4990   57.6490 C   0  0  0  0  0  3  0  0  0  0  0  0
   45.0840   85.0420   56.4270 C   0  0  0  0  0  3  0  0  0  0  0  0
   46.0550   85.4000   55.3510 C   0  0  0  0  0  2  0  0  0  0  0  0
   45.8670   84.8800   54.4020 H   0  0  0  0  0  0  0  0  0  0  0  0
  1  4  1  6  0  0  0
  1  8  1  0  0  0  0
  2  1  1  0  0  0  0
  2  5  1  0  0  0  0
  3  7  1  6  0  0  0
  3  2  1  0  0  0  0
  3  1  1  0  0  0  0
  6  2  1  0  0  0  0
  8 13  1  0  0  0  0
  9 10  1  0  0  0  0
 10 11  2  0  0  0  0
 10 16  1  0  0  0  0
 11 17  1  0  0  0  0
 12 11  1  0  0  0  0
 13 12  2  0  0  0  0
 14 13  1  0  0  0  0
 14  9  2  0  0  0  0
 15  9  1  0  0  0  0
 18  3  1  0  0  0  0
 19 18  1  0  0  0  0
 20 19  2  0  0  0  0
 21 20  1  0  0  0  0
 22 21  1  0  0  0  0
M  END
>  <minimizedAffinity>
-3.35284495

>  <minimizedRMSD>
0.883771598

$$$$
