
 OpenBabel03212520403D

 22 23  0  0  1  0  0  0  0  0999 V2000
   42.3290   85.3630   59.7400 C   0  0  1  0  0  0  0  0  0  0  0  0
   43.3100   86.3990   59.1970 C   0  0  0  0  0  0  0  0  0  0  0  0
   42.9800   85.1140   58.4440 C   0  0  1  0  0  0  0  0  0  0  0  0
   41.2930   85.8120   59.8050 H   0  0  0  0  0  0  0  0  0  0  0  0
   44.3370   86.4400   59.5890 H   0  0  0  0  0  0  0  0  0  0  0  0
   42.9520   87.3490   58.7880 H   0  0  0  0  0  0  0  0  0  0  0  0
   42.4700   85.2860   57.4880 H   0  0  0  0  0  0  0  0  0  0  0  0
   42.8310   84.7250   60.8930 O   0  0  0  0  0  0  0  0  0  0  0  0
   40.0410   83.5370   62.8540 C   0  0  0  0  0  0  0  0  0  0  0  0
   40.5210   83.7180   64.1730 C   0  0  0  0  0  0  0  0  0  0  0  0
   41.8370   84.2640   64.3380 C   0  0  0  0  0  0  0  0  0  0  0  0
   42.4980   84.5540   63.2090 N   0  0  0  0  0  0  0  0  0  0  0  0
   42.0480   84.3840   61.9720 C   0  0  0  0  0  0  0  0  0  0  0  0
   40.8350   83.8820   61.7840 N   0  0  0  0  0  0  0  0  0  0  0  0
   39.0520   83.1260   62.6940 H   0  0  0  0  0  0  0  0  0  0  0  0
   39.9400   83.4650   65.0270 H   0  0  0  0  0  0  0  0  0  0  0  0
   42.2490   84.4220   65.3250 H   0  0  0  0  0  0  0  0  0  0  0  0
   43.9620   84.1120   58.4170 O   0  0  0  0  0  0  0  0  0  0  0  0
   44.9500   84.1500   57.4490 C   0  0  0  0  0  3  0  0  0  0  0  0
   44.6540   84.5940   56.2150 C   0  0  0  0  0  3  0  0  0  0  0  0
   45.4510   84.7640   54.9660 C   0  0  0  0  0  2  0  0  0  0  0  0
   45.0660   84.1820   54.1180 H   0  0  0  0  0  0  0  0  0  0  0  0
  1  4  1  6  0  0  0
  1  8  1  0  0  0  0
  2  5  1  0  0  0  0
  2  1  1  0  0  0  0
  3  7  1  6  0  0  0
  3  2  1  0  0  0  0
  3  1  1  0  0  0  0
  6  2  1  0  0  0  0
  8 13  1  0  0  0  0
  9 10  1  0  0  0  0
 10 11  2  0  0  0  0
 10 16  1  0  0  0  0
 11 17  1  0  0  0  0
 12 11  1  0  0  0  0
 13 12  2  0  0  0  0
 14 13  1  0  0  0  0
 14  9  2  0  0  0  0
 15  9  1  0  0  0  0
 18  3  1  0  0  0  0
 19 18  1  0  0  0  0
 20 19  2  0  0  0  0
 21 20  1  0  0  0  0
 22 21  1  0  0  0  0
M  END
>  <minimizedAffinity>
-3.33756328

>  <minimizedRMSD>
0.30623433

$$$$
