
 OpenBabel03212520403D

 22 23  0  0  1  0  0  0  0  0999 V2000
   42.3570   85.4490   59.7800 C   0  0  1  0  0  0  0  0  0  0  0  0
   43.4340   86.4750   59.4360 C   0  0  0  0  0  0  0  0  0  0  0  0
   43.0090   85.3810   58.4620 C   0  0  1  0  0  0  0  0  0  0  0  0
   41.3630   85.9690   59.9220 H   0  0  0  0  0  0  0  0  0  0  0  0
   44.4530   86.3540   59.8310 H   0  0  0  0  0  0  0  0  0  0  0  0
   43.1670   87.5110   59.2050 H   0  0  0  0  0  0  0  0  0  0  0  0
   42.5330   85.7670   57.5510 H   0  0  0  0  0  0  0  0  0  0  0  0
   42.7810   84.5720   60.8000 O   0  0  0  0  0  0  0  0  0  0  0  0
   40.0400   83.5150   62.9010 C   0  0  0  0  0  0  0  0  0  0  0  0
   40.5670   83.7440   64.1940 C   0  0  0  0  0  0  0  0  0  0  0  0
   41.8960   84.2730   64.2920 C   0  0  0  0  0  0  0  0  0  0  0  0
   42.5230   84.5040   63.1300 N   0  0  0  0  0  0  0  0  0  0  0  0
   42.0290   84.2900   61.9170 C   0  0  0  0  0  0  0  0  0  0  0  0
   40.8030   83.8020   61.7910 N   0  0  0  0  0  0  0  0  0  0  0  0
   39.0400   83.1160   62.7900 H   0  0  0  0  0  0  0  0  0  0  0  0
   40.0110   83.5360   65.0770 H   0  0  0  0  0  0  0  0  0  0  0  0
   42.3440   84.4650   65.2570 H   0  0  0  0  0  0  0  0  0  0  0  0
   43.9010   84.3180   58.2560 O   0  0  0  0  0  0  0  0  0  0  0  0
   44.6830   84.2940   57.1150 C   0  0  0  0  0  3  0  0  0  0  0  0
   45.6540   83.3740   56.9950 C   0  0  0  0  0  3  0  0  0  0  0  0
   46.6560   83.0700   55.9300 C   0  0  0  0  0  2  0  0  0  0  0  0
   47.6950   83.1440   56.2750 H   0  0  0  0  0  0  0  0  0  0  0  0
  1  4  1  1  0  0  0
  1  8  1  0  0  0  0
  2  1  1  0  0  0  0
  2  5  1  0  0  0  0
  3  7  1  6  0  0  0
  3  2  1  0  0  0  0
  3  1  1  0  0  0  0
  6  2  1  0  0  0  0
  8 13  1  0  0  0  0
  9 10  1  0  0  0  0
 10 11  2  0  0  0  0
 10 16  1  0  0  0  0
 11 17  1  0  0  0  0
 12 11  1  0  0  0  0
 13 12  2  0  0  0  0
 14 13  1  0  0  0  0
 14  9  2  0  0  0  0
 15  9  1  0  0  0  0
 18  3  1  0  0  0  0
 19 18  1  0  0  0  0
 20 19  2  0  0  0  0
 21 22  1  0  0  0  0
 21 20  1  0  0  0  0
M  END
>  <minimizedAffinity>
-3.25096369

>  <minimizedRMSD>
0.127011195

$$$$
