
 OpenBabel03212520393D

 22 23  0  0  1  0  0  0  0  0999 V2000
   42.4520   85.3820   59.8140 C   0  0  1  0  0  0  0  0  0  0  0  0
   43.4080   86.5190   59.4640 C   0  0  0  0  0  0  0  0  0  0  0  0
   43.2310   85.2970   58.5690 C   0  0  1  0  0  0  0  0  0  0  0  0
   41.3880   85.7640   59.8210 H   0  0  0  0  0  0  0  0  0  0  0  0
   44.3920   86.5790   59.9530 H   0  0  0  0  0  0  0  0  0  0  0  0
   43.0280   87.4820   59.1120 H   0  0  0  0  0  0  0  0  0  0  0  0
   42.7980   85.5320   57.5880 H   0  0  0  0  0  0  0  0  0  0  0  0
   42.8900   84.6630   60.9460 O   0  0  0  0  0  0  0  0  0  0  0  0
   40.0270   83.5450   62.8430 C   0  0  0  0  0  0  0  0  0  0  0  0
   40.4740   83.7360   64.1730 C   0  0  0  0  0  0  0  0  0  0  0  0
   41.7930   84.2630   64.3680 C   0  0  0  0  0  0  0  0  0  0  0  0
   42.4900   84.5280   63.2540 N   0  0  0  0  0  0  0  0  0  0  0  0
   42.0720   84.3490   62.0060 C   0  0  0  0  0  0  0  0  0  0  0  0
   40.8570   83.8640   61.7910 N   0  0  0  0  0  0  0  0  0  0  0  0
   39.0370   83.1480   62.6600 H   0  0  0  0  0  0  0  0  0  0  0  0
   39.8650   83.5030   65.0130 H   0  0  0  0  0  0  0  0  0  0  0  0
   42.1800   84.4270   65.3630 H   0  0  0  0  0  0  0  0  0  0  0  0
   44.2740   84.3590   58.5420 O   0  0  0  0  0  0  0  0  0  0  0  0
   44.9790   84.1550   57.3700 C   0  0  0  0  0  3  0  0  0  0  0  0
   45.1750   85.1810   56.5240 C   0  0  0  0  0  3  0  0  0  0  0  0
   45.8690   85.3110   55.2100 C   0  0  0  0  0  2  0  0  0  0  0  0
   45.2090   85.6480   54.3990 H   0  0  0  0  0  0  0  0  0  0  0  0
  1  4  1  6  0  0  0
  1  8  1  0  0  0  0
  2  1  1  0  0  0  0
  2  5  1  0  0  0  0
  3  7  1  6  0  0  0
  3  2  1  0  0  0  0
  3  1  1  0  0  0  0
  6  2  1  0  0  0  0
  8 13  1  0  0  0  0
  9 10  1  0  0  0  0
 10 11  2  0  0  0  0
 10 16  1  0  0  0  0
 11 17  1  0  0  0  0
 12 11  1  0  0  0  0
 13 12  2  0  0  0  0
 14 13  1  0  0  0  0
 14  9  2  0  0  0  0
 15  9  1  0  0  0  0
 18  3  1  0  0  0  0
 19 18  1  0  0  0  0
 20 19  2  0  0  0  0
 21 20  1  0  0  0  0
 22 21  1  0  0  0  0
M  END
>  <minimizedAffinity>
-3.35047817

>  <minimizedRMSD>
0.259121656

$$$$
