
 OpenBabel03212520403D

 22 23  0  0  1  0  0  0  0  0999 V2000
   42.4010   85.4020   59.7960 C   0  0  1  0  0  0  0  0  0  0  0  0
   43.4360   86.4930   59.5310 C   0  0  0  0  0  0  0  0  0  0  0  0
   43.1400   85.3860   58.5240 C   0  0  1  0  0  0  0  0  0  0  0  0
   41.3710   85.8620   59.8750 H   0  0  0  0  0  0  0  0  0  0  0  0
   44.4320   86.4270   59.9920 H   0  0  0  0  0  0  0  0  0  0  0  0
   43.1240   87.5130   59.2900 H   0  0  0  0  0  0  0  0  0  0  0  0
   42.7030   85.7540   57.5860 H   0  0  0  0  0  0  0  0  0  0  0  0
   42.8070   84.5400   60.8350 O   0  0  0  0  0  0  0  0  0  0  0  0
   40.0270   83.5200   62.9020 C   0  0  0  0  0  0  0  0  0  0  0  0
   40.5350   83.7570   64.2010 C   0  0  0  0  0  0  0  0  0  0  0  0
   41.8660   84.2780   64.3160 C   0  0  0  0  0  0  0  0  0  0  0  0
   42.5130   84.4950   63.1620 N   0  0  0  0  0  0  0  0  0  0  0  0
   42.0360   84.2730   61.9430 C   0  0  0  0  0  0  0  0  0  0  0  0
   40.8090   83.7920   61.8020 N   0  0  0  0  0  0  0  0  0  0  0  0
   39.0260   83.1260   62.7790 H   0  0  0  0  0  0  0  0  0  0  0  0
   39.9640   83.5610   65.0770 H   0  0  0  0  0  0  0  0  0  0  0  0
   42.3000   84.4750   65.2860 H   0  0  0  0  0  0  0  0  0  0  0  0
   44.1050   84.3790   58.3700 O   0  0  0  0  0  0  0  0  0  0  0  0
   44.7370   84.2200   57.1500 C   0  0  0  0  0  3  0  0  0  0  0  0
   45.2790   85.2870   56.5380 C   0  0  0  0  0  3  0  0  0  0  0  0
   46.0150   85.4700   55.2530 C   0  0  0  0  0  2  0  0  0  0  0  0
   45.5220   86.1700   54.5630 H   0  0  0  0  0  0  0  0  0  0  0  0
  1  4  1  6  0  0  0
  1  8  1  0  0  0  0
  2  1  1  0  0  0  0
  2  5  1  0  0  0  0
  3  7  1  6  0  0  0
  3  2  1  0  0  0  0
  3  1  1  0  0  0  0
  6  2  1  0  0  0  0
  8 13  1  0  0  0  0
  9 10  1  0  0  0  0
 10 11  2  0  0  0  0
 10 16  1  0  0  0  0
 11 17  1  0  0  0  0
 12 11  1  0  0  0  0
 13 12  2  0  0  0  0
 14 13  1  0  0  0  0
 14  9  2  0  0  0  0
 15  9  1  0  0  0  0
 18  3  1  0  0  0  0
 19 18  1  0  0  0  0
 20 19  2  0  0  0  0
 21 20  1  0  0  0  0
 22 21  1  0  0  0  0
M  END
>  <minimizedAffinity>
-3.36144304

>  <minimizedRMSD>
0.177534133

$$$$
