
 OpenBabel03212520393D

 22 23  0  0  1  0  0  0  0  0999 V2000
   42.3640   85.4280   59.7740 C   0  0  1  0  0  0  0  0  0  0  0  0
   43.4180   86.4760   59.4280 C   0  0  0  0  0  0  0  0  0  0  0  0
   43.0360   85.3550   58.4670 C   0  0  1  0  0  0  0  0  0  0  0  0
   41.3540   85.9230   59.8930 H   0  0  0  0  0  0  0  0  0  0  0  0
   44.4340   86.3890   59.8400 H   0  0  0  0  0  0  0  0  0  0  0  0
   43.1280   87.5000   59.1760 H   0  0  0  0  0  0  0  0  0  0  0  0
   42.5640   85.7120   57.5430 H   0  0  0  0  0  0  0  0  0  0  0  0
   42.7950   84.5790   60.8150 O   0  0  0  0  0  0  0  0  0  0  0  0
   40.0360   83.5230   62.8930 C   0  0  0  0  0  0  0  0  0  0  0  0
   40.5540   83.7480   64.1900 C   0  0  0  0  0  0  0  0  0  0  0  0
   41.8840   84.2750   64.3000 C   0  0  0  0  0  0  0  0  0  0  0  0
   42.5200   84.5070   63.1440 N   0  0  0  0  0  0  0  0  0  0  0  0
   42.0350   84.2970   61.9260 C   0  0  0  0  0  0  0  0  0  0  0  0
   40.8090   83.8110   61.7890 N   0  0  0  0  0  0  0  0  0  0  0  0
   39.0370   83.1250   62.7740 H   0  0  0  0  0  0  0  0  0  0  0  0
   39.9910   83.5400   65.0690 H   0  0  0  0  0  0  0  0  0  0  0  0
   42.3240   84.4640   65.2680 H   0  0  0  0  0  0  0  0  0  0  0  0
   43.9590   84.3120   58.2930 O   0  0  0  0  0  0  0  0  0  0  0  0
   44.7240   84.2630   57.1410 C   0  0  0  0  0  3  0  0  0  0  0  0
   45.8670   84.9640   57.0710 C   0  0  0  0  0  3  0  0  0  0  0  0
   46.9050   85.1350   56.0140 C   0  0  0  0  0  2  0  0  0  0  0  0
   47.0340   86.1770   55.6910 H   0  0  0  0  0  0  0  0  0  0  0  0
  1  4  1  1  0  0  0
  1  8  1  0  0  0  0
  2  1  1  0  0  0  0
  2  5  1  0  0  0  0
  3  7  1  6  0  0  0
  3  2  1  0  0  0  0
  3  1  1  0  0  0  0
  6  2  1  0  0  0  0
  8 13  1  0  0  0  0
  9 10  1  0  0  0  0
 10 11  2  0  0  0  0
 10 16  1  0  0  0  0
 11 17  1  0  0  0  0
 12 11  1  0  0  0  0
 13 12  2  0  0  0  0
 14 13  1  0  0  0  0
 14  9  2  0  0  0  0
 15  9  1  0  0  0  0
 18  3  1  0  0  0  0
 19 18  1  0  0  0  0
 20 19  2  0  0  0  0
 21 20  1  0  0  0  0
 22 21  1  0  0  0  0
M  END
>  <minimizedAffinity>
-3.29579639

>  <minimizedRMSD>
0.0961444005

$$$$
