
 OpenBabel03212520133D

 30 32  0  0  0  0  0  0  0  0999 V2000
   43.0530   83.9860   58.5910 Cl  0  0  0  0  0  0  0  0  0  0  0  0
   41.8590   82.7670   58.2090 C   0  0  0  0  0  0  0  0  0  0  0  0
   41.0310   82.2170   59.1730 C   0  0  0  0  0  0  0  0  0  0  0  0
   40.1330   81.2650   58.7260 C   0  0  0  0  0  0  0  0  0  0  0  0
   40.0110   80.8370   57.4120 C   0  0  0  0  0  0  0  0  0  0  0  0
   40.8440   81.4080   56.5120 C   0  0  0  0  0  0  0  0  0  0  0  0
   40.7200   80.9090   54.8230 Cl  0  0  0  0  0  0  0  0  0  0  0  0
   41.7780   82.3800   56.9010 C   0  0  0  0  0  0  0  0  0  0  0  0
   39.4960   80.8460   59.4890 H   0  0  0  0  0  0  0  0  0  0  0  0
   39.3060   80.1000   57.0990 H   0  0  0  0  0  0  0  0  0  0  0  0
   41.9850   82.1660   61.5180 C   0  0  0  0  0  0  0  0  0  0  0  0
   41.1430   82.6480   60.5240 C   0  0  0  0  0  0  0  0  0  0  0  0
   40.2770   83.7090   60.8800 C   0  0  0  0  0  0  0  0  0  0  0  0
   40.3220   84.1800   62.1520 N   0  0  0  0  0  0  0  0  0  0  0  0
   41.1550   83.6810   63.0810 C   0  0  0  0  0  0  0  0  0  0  0  0
   41.9750   82.6840   62.7560 N   0  0  0  0  0  0  0  0  0  0  0  0
   42.6190   81.3660   61.2010 H   0  0  0  0  0  0  0  0  0  0  0  0
   39.5860   84.1500   60.1780 H   0  0  0  0  0  0  0  0  0  0  0  0
   41.0770   84.3140   64.4260 C   0  0  0  0  0  0  0  0  0  0  0  0
   40.7220   85.6470   64.3480 F   0  0  0  0  0  0  0  0  0  0  0  0
   40.1020   83.6770   65.1810 F   0  0  0  0  0  0  0  0  0  0  0  0
   42.3020   84.2830   65.0700 F   0  0  0  0  0  0  0  0  0  0  0  0
   42.5890   82.8770   55.7940 C   0  0  0  0  0  0  0  0  0  0  0  0
   43.7940   82.4500   55.3020 C   0  0  0  0  0  0  0  0  0  0  0  0
   44.4300   81.6480   55.6150 H   0  0  0  0  0  0  0  0  0  0  0  0
   44.2290   83.1940   54.2360 C   0  0  0  0  0  0  0  0  0  0  0  0
   45.1110   83.1420   53.6200 H   0  0  0  0  0  0  0  0  0  0  0  0
   43.2130   84.1090   54.1000 C   0  0  0  0  0  0  0  0  0  0  0  0
   43.0810   84.9340   53.3830 H   0  0  0  0  0  0  0  0  0  0  0  0
   42.3380   83.8680   55.0020 O   0  0  0  0  0  0  0  0  0  0  0  0
  2  1  1  0  0  0  0
  2  3  1  0  0  0  0
  3 12  1  0  0  0  0
  4  3  2  0  0  0  0
  4  9  1  0  0  0  0
  5  4  1  0  0  0  0
  6  8  1  0  0  0  0
  6  5  2  0  0  0  0
  7  6  1  0  0  0  0
  8  2  2  0  0  0  0
 10  5  1  0  0  0  0
 11 16  1  0  0  0  0
 12 13  1  0  0  0  0
 12 11  2  0  0  0  0
 13 14  2  0  0  0  0
 14 15  1  0  0  0  0
 15 19  1  0  0  0  0
 16 15  2  0  0  0  0
 17 11  1  0  0  0  0
 18 13  1  0  0  0  0
 19 22  1  0  0  0  0
 19 21  1  0  0  0  0
 20 19  1  0  0  0  0
 23  8  1  0  0  0  0
 24 25  1  0  0  0  0
 24 23  2  0  0  0  0
 26 24  1  0  0  0  0
 27 26  1  0  0  0  0
 28 26  2  0  0  0  0
 28 30  1  0  0  0  0
 29 28  1  0  0  0  0
 30 23  1  0  0  0  0
M  END
>  <minimizedAffinity>
-5.19665861

>  <minimizedRMSD>
0.967582405

$$$$
