
 OpenBabel03212520273D

 27 29  0  0  0  0  0  0  0  0999 V2000
   42.9820   84.9660   61.1710 C   0  0  0  0  0  0  0  0  0  0  0  0
   44.2270   84.7190   61.7160 C   0  0  0  0  0  0  0  0  0  0  0  0
   45.0440   85.5420   60.9320 C   0  0  0  0  0  0  0  0  0  0  0  0
   44.3190   86.2050   60.0130 N   0  0  0  0  0  0  0  0  0  0  0  0
   43.0360   85.8490   60.1590 N   0  0  0  0  0  0  0  0  0  0  0  0
   44.5060   84.0720   62.5260 H   0  0  0  0  0  0  0  0  0  0  0  0
   46.1280   85.6390   61.0470 H   0  0  0  0  0  0  0  0  0  0  0  0
   40.4610   83.1870   63.2600 C   0  0  0  0  0  0  0  0  0  0  0  0
   41.6740   83.7570   62.8890 C   0  0  0  0  0  0  0  0  0  0  0  0
   41.7360   84.3450   61.6310 C   0  0  0  0  0  0  0  0  0  0  0  0
   40.6330   84.3460   60.8210 N   0  0  0  0  0  0  0  0  0  0  0  0
   39.4810   83.7690   61.2520 C   0  0  0  0  0  0  0  0  0  0  0  0
   39.3910   83.1970   62.4520 N   0  0  0  0  0  0  0  0  0  0  0  0
   40.3250   82.7090   64.2160 H   0  0  0  0  0  0  0  0  0  0  0  0
   42.5230   83.7370   63.5560 H   0  0  0  0  0  0  0  0  0  0  0  0
   38.7150   83.8570   60.4940 H   0  0  0  0  0  0  0  0  0  0  0  0
   44.8240   87.1470   59.0270 C   0  0  0  0  0  0  0  0  0  0  0  0
   45.9190   87.1090   58.9920 H   0  0  0  0  0  0  0  0  0  0  0  0
   44.3700   86.8600   58.0590 H   0  0  0  0  0  0  0  0  0  0  0  0
   44.3840   88.5180   59.4190 C   0  0  0  0  0  0  0  0  0  0  0  0
   44.2520   89.0510   60.6840 C   0  0  0  0  0  0  0  0  0  0  0  0
   44.4670   88.4930   61.5920 H   0  0  0  0  0  0  0  0  0  0  0  0
   43.8190   90.3490   60.5370 C   0  0  0  0  0  0  0  0  0  0  0  0
   43.6130   91.0520   61.3360 H   0  0  0  0  0  0  0  0  0  0  0  0
   43.7110   90.5300   59.1570 C   0  0  0  0  0  0  0  0  0  0  0  0
   43.3870   91.4650   58.6840 H   0  0  0  0  0  0  0  0  0  0  0  0
   44.0510   89.4330   58.5210 O   0  0  0  0  0  0  0  0  0  0  0  0
  1 10  1  0  0  0  0
  1  2  1  0  0  0  0
  2  6  1  0  0  0  0
  3  7  1  0  0  0  0
  3  2  2  0  0  0  0
  4  5  1  0  0  0  0
  4  3  1  0  0  0  0
  5  1  2  0  0  0  0
  8 14  1  0  0  0  0
  9  8  1  0  0  0  0
  9 15  1  0  0  0  0
 10  9  2  0  0  0  0
 11 12  2  0  0  0  0
 11 10  1  0  0  0  0
 12 13  1  0  0  0  0
 13  8  2  0  0  0  0
 16 12  1  0  0  0  0
 17 20  1  0  0  0  0
 17  4  1  0  0  0  0
 18 17  1  0  0  0  0
 19 17  1  0  0  0  0
 20 21  2  0  0  0  0
 21 22  1  0  0  0  0
 23 21  1  0  0  0  0
 23 24  1  0  0  0  0
 25 23  2  0  0  0  0
 26 25  1  0  0  0  0
 27 25  1  0  0  0  0
 27 20  1  0  0  0  0
M  END
>  <minimizedAffinity>
-4.56318045

>  <minimizedRMSD>
1.1826632

$$$$
