
 OpenBabel03212520353D

 35 38  0  0  0  0  0  0  0  0999 V2000
   40.2370   82.5550   58.6460 C   0  0  0  0  0  0  0  0  0  0  0  0
   41.4650   82.2820   58.0070 C   0  0  0  0  0  0  0  0  0  0  0  0
   42.5810   81.8010   58.7850 C   0  0  0  0  0  0  0  0  0  0  0  0
   42.3660   81.6380   60.1190 N   0  0  0  0  0  0  0  0  0  0  0  0
   41.1430   81.9140   60.7010 C   0  0  0  0  0  0  0  0  0  0  0  0
   40.1000   82.3660   59.9630 N   0  0  0  0  0  0  0  0  0  0  0  0
   39.4070   82.9750   58.1510 H   0  0  0  0  0  0  0  0  0  0  0  0
   43.5660   81.5360   58.4910 H   0  0  0  0  0  0  0  0  0  0  0  0
   41.7980   82.4350   56.6050 C   0  0  0  0  0  0  0  0  0  0  0  0
   42.3920   83.6790   56.2900 C   0  0  0  0  0  0  0  0  0  0  0  0
   42.7140   84.0630   55.0260 C   0  0  0  0  0  0  0  0  0  0  0  0
   42.4570   83.2090   53.9650 C   0  0  0  0  0  0  0  0  0  0  0  0
   41.8760   81.9850   54.2510 C   0  0  0  0  0  0  0  0  0  0  0  0
   41.5810   81.0630   53.2770 C   0  0  0  0  0  0  0  0  0  0  0  0
   41.0050   79.8430   53.5840 C   0  0  0  0  0  0  0  0  0  0  0  0
   40.7030   79.4890   54.8880 C   0  0  0  0  0  0  0  0  0  0  0  0
   41.0000   80.4150   55.8690 C   0  0  0  0  0  0  0  0  0  0  0  0
   41.5550   81.6010   55.5400 C   0  0  0  0  0  0  0  0  0  0  0  0
   42.6540   84.4680   56.9800 H   0  0  0  0  0  0  0  0  0  0  0  0
   43.1650   84.9920   54.7230 H   0  0  0  0  0  0  0  0  0  0  0  0
   42.6700   83.4110   52.9200 H   0  0  0  0  0  0  0  0  0  0  0  0
   41.8310   81.3640   52.2510 H   0  0  0  0  0  0  0  0  0  0  0  0
   40.8320   79.2260   52.6950 H   0  0  0  0  0  0  0  0  0  0  0  0
   40.2640   78.5260   55.0150 H   0  0  0  0  0  0  0  0  0  0  0  0
   40.7800   79.9920   56.8210 H   0  0  0  0  0  0  0  0  0  0  0  0
   40.9420   81.7310   62.1400 C   0  0  0  0  0  0  0  0  0  0  0  0
   40.5010   80.6720   62.6320 O   0  0  0  0  0  0  0  0  0  0  0  0
   41.2780   82.8450   63.0320 C   0  0  0  0  0  0  0  0  0  0  0  0
   40.2970   83.5570   63.7310 C   0  0  0  0  0  0  0  0  0  0  0  0
   39.2240   83.4090   63.7220 H   0  0  0  0  0  0  0  0  0  0  0  0
   40.9700   84.5160   64.4560 C   0  0  0  0  0  0  0  0  0  0  0  0
   40.5070   85.2410   65.1100 H   0  0  0  0  0  0  0  0  0  0  0  0
   42.3090   84.3390   64.1660 C   0  0  0  0  0  0  0  0  0  0  0  0
   43.0530   84.9880   64.6250 H   0  0  0  0  0  0  0  0  0  0  0  0
   42.4350   83.3530   63.3300 O   0  0  0  0  0  0  0  0  0  0  0  0
  1  6  1  0  0  0  0
  2  1  2  0  0  0  0
  2  3  1  0  0  0  0
  3  4  2  0  0  0  0
  4  5  1  0  0  0  0
  5 26  1  0  0  0  0
  6  5  2  0  0  0  0
  7  1  1  0  0  0  0
  8  3  1  0  0  0  0
  9  2  1  0  0  0  0
 10  9  1  0  0  0  0
 10 19  1  0  0  0  0
 11 10  2  0  0  0  0
 12 13  2  0  0  0  0
 12 11  1  0  0  0  0
 13 18  1  0  0  0  0
 14 15  2  0  0  0  0
 14 13  1  0  0  0  0
 15 16  1  0  0  0  0
 16 24  1  0  0  0  0
 16 17  2  0  0  0  0
 17 25  1  0  0  0  0
 18 17  1  0  0  0  0
 18  9  2  0  0  0  0
 20 11  1  0  0  0  0
 21 12  1  0  0  0  0
 22 14  1  0  0  0  0
 23 15  1  0  0  0  0
 26 27  2  0  0  0  0
 26 28  1  0  0  0  0
 28 35  1  0  0  0  0
 28 29  2  0  0  0  0
 29 31  1  0  0  0  0
 30 29  1  0  0  0  0
 31 32  1  0  0  0  0
 33 31  2  0  0  0  0
 33 34  1  0  0  0  0
 35 33  1  0  0  0  0
M  END
>  <minimizedAffinity>
-5.16740751

>  <minimizedRMSD>
2.73798418

$$$$
