
 OpenBabel03212520353D

 35 38  0  0  0  0  0  0  0  0999 V2000
   40.4060   81.6500   59.4750 C   0  0  0  0  0  0  0  0  0  0  0  0
   41.2860   82.7240   59.2290 C   0  0  0  0  0  0  0  0  0  0  0  0
   41.6060   83.0850   57.8680 C   0  0  0  0  0  0  0  0  0  0  0  0
   41.0190   82.3430   56.8900 N   0  0  0  0  0  0  0  0  0  0  0  0
   40.1590   81.3000   57.1790 C   0  0  0  0  0  0  0  0  0  0  0  0
   39.8640   80.9680   58.4590 N   0  0  0  0  0  0  0  0  0  0  0  0
   40.1870   81.2900   60.4410 H   0  0  0  0  0  0  0  0  0  0  0  0
   42.2290   83.8540   57.4850 H   0  0  0  0  0  0  0  0  0  0  0  0
   41.9680   83.5620   60.1940 C   0  0  0  0  0  0  0  0  0  0  0  0
   43.1650   84.1370   59.7070 C   0  0  0  0  0  0  0  0  0  0  0  0
   44.0010   84.8940   60.4670 C   0  0  0  0  0  0  0  0  0  0  0  0
   43.6910   85.1330   61.7970 C   0  0  0  0  0  0  0  0  0  0  0  0
   42.5220   84.5800   62.2930 C   0  0  0  0  0  0  0  0  0  0  0  0
   42.1180   84.7540   63.5940 C   0  0  0  0  0  0  0  0  0  0  0  0
   40.9450   84.1980   64.0700 C   0  0  0  0  0  0  0  0  0  0  0  0
   40.1170   83.4410   63.2570 C   0  0  0  0  0  0  0  0  0  0  0  0
   40.5210   83.2650   61.9480 C   0  0  0  0  0  0  0  0  0  0  0  0
   41.6760   83.8140   61.5130 C   0  0  0  0  0  0  0  0  0  0  0  0
   43.5690   84.0510   58.7090 H   0  0  0  0  0  0  0  0  0  0  0  0
   44.9220   85.3560   60.1570 H   0  0  0  0  0  0  0  0  0  0  0  0
   44.2830   85.7180   62.4930 H   0  0  0  0  0  0  0  0  0  0  0  0
   42.7880   85.3590   64.2190 H   0  0  0  0  0  0  0  0  0  0  0  0
   40.7690   84.4290   65.1260 H   0  0  0  0  0  0  0  0  0  0  0  0
   39.2360   83.0610   63.7220 H   0  0  0  0  0  0  0  0  0  0  0  0
   39.7690   82.7250   61.4230 H   0  0  0  0  0  0  0  0  0  0  0  0
   39.5440   80.5190   56.1040 C   0  0  0  0  0  0  0  0  0  0  0  0
   39.7970   80.7100   54.8980 O   0  0  0  0  0  0  0  0  0  0  0  0
   38.5910   79.4660   56.4740 C   0  0  0  0  0  0  0  0  0  0  0  0
   39.0090   78.1780   56.8250 C   0  0  0  0  0  0  0  0  0  0  0  0
   40.0190   77.7890   56.8760 H   0  0  0  0  0  0  0  0  0  0  0  0
   37.8600   77.4720   57.1060 C   0  0  0  0  0  0  0  0  0  0  0  0
   37.8250   76.4360   57.4130 H   0  0  0  0  0  0  0  0  0  0  0  0
   36.8160   78.3550   56.9130 C   0  0  0  0  0  0  0  0  0  0  0  0
   35.7910   78.0250   57.0750 H   0  0  0  0  0  0  0  0  0  0  0  0
   37.2960   79.5040   56.5450 O   0  0  0  0  0  0  0  0  0  0  0  0
  1  7  1  0  0  0  0
  2  1  1  0  0  0  0
  2  9  1  0  0  0  0
  3  2  2  0  0  0  0
  4  5  2  0  0  0  0
  4  3  1  0  0  0  0
  5  6  1  0  0  0  0
  6  1  2  0  0  0  0
  8  3  1  0  0  0  0
  9 18  1  0  0  0  0
 10  9  2  0  0  0  0
 10 11  1  0  0  0  0
 11 12  2  0  0  0  0
 12 13  1  0  0  0  0
 12 21  1  0  0  0  0
 13 14  1  0  0  0  0
 14 15  2  0  0  0  0
 14 22  1  0  0  0  0
 15 23  1  0  0  0  0
 16 24  1  0  0  0  0
 16 15  1  0  0  0  0
 17 16  2  0  0  0  0
 18 17  1  0  0  0  0
 18 13  2  0  0  0  0
 19 10  1  0  0  0  0
 20 11  1  0  0  0  0
 25 17  1  0  0  0  0
 26 28  1  0  0  0  0
 26  5  1  0  0  0  0
 27 26  2  0  0  0  0
 28 35  1  0  0  0  0
 28 29  2  0  0  0  0
 29 30  1  0  0  0  0
 29 31  1  0  0  0  0
 31 32  1  0  0  0  0
 33 34  1  0  0  0  0
 33 31  2  0  0  0  0
 35 33  1  0  0  0  0
M  END
>  <minimizedAffinity>
-5.99661493

>  <minimizedRMSD>
7.59061575

$$$$
