
 OpenBabel03212520273D

 27 29  0  0  0  0  0  0  0  0999 V2000
   42.8560   85.0270   60.9100 C   0  0  0  0  0  0  0  0  0  0  0  0
   43.9450   85.4320   61.6590 C   0  0  0  0  0  0  0  0  0  0  0  0
   44.7900   85.9460   60.6690 C   0  0  0  0  0  0  0  0  0  0  0  0
   44.2250   85.8420   59.4520 N   0  0  0  0  0  0  0  0  0  0  0  0
   43.0220   85.2710   59.6000 N   0  0  0  0  0  0  0  0  0  0  0  0
   44.1100   85.3730   62.7180 H   0  0  0  0  0  0  0  0  0  0  0  0
   45.7780   86.3780   60.8530 H   0  0  0  0  0  0  0  0  0  0  0  0
   40.5240   83.1990   63.1690 C   0  0  0  0  0  0  0  0  0  0  0  0
   41.7040   83.7700   62.7030 C   0  0  0  0  0  0  0  0  0  0  0  0
   41.6520   84.4020   61.4670 C   0  0  0  0  0  0  0  0  0  0  0  0
   40.4770   84.4440   60.7670 N   0  0  0  0  0  0  0  0  0  0  0  0
   39.3640   83.8630   61.2870 C   0  0  0  0  0  0  0  0  0  0  0  0
   39.3820   83.2500   62.4690 N   0  0  0  0  0  0  0  0  0  0  0  0
   40.4730   82.6890   64.1170 H   0  0  0  0  0  0  0  0  0  0  0  0
   42.6120   83.7170   63.2840 H   0  0  0  0  0  0  0  0  0  0  0  0
   38.5290   83.9870   60.6090 H   0  0  0  0  0  0  0  0  0  0  0  0
   44.8050   86.2710   58.1900 C   0  0  0  0  0  0  0  0  0  0  0  0
   45.8530   85.9560   58.1260 H   0  0  0  0  0  0  0  0  0  0  0  0
   44.1880   85.8150   57.3920 H   0  0  0  0  0  0  0  0  0  0  0  0
   44.7270   87.7600   58.1180 C   0  0  0  0  0  0  0  0  0  0  0  0
   43.6730   88.5840   58.4530 C   0  0  0  0  0  0  0  0  0  0  0  0
   42.7220   88.2130   58.8290 H   0  0  0  0  0  0  0  0  0  0  0  0
   44.0760   89.8780   58.2180 C   0  0  0  0  0  0  0  0  0  0  0  0
   43.4860   90.7740   58.3760 H   0  0  0  0  0  0  0  0  0  0  0  0
   45.3830   89.7600   57.7430 C   0  0  0  0  0  0  0  0  0  0  0  0
   46.0110   90.6100   57.4540 H   0  0  0  0  0  0  0  0  0  0  0  0
   45.7420   88.4970   57.6940 O   0  0  0  0  0  0  0  0  0  0  0  0
  1 10  1  0  0  0  0
  1  2  1  0  0  0  0
  2  6  1  0  0  0  0
  3  7  1  0  0  0  0
  3  2  2  0  0  0  0
  4  5  1  0  0  0  0
  4  3  1  0  0  0  0
  5  1  2  0  0  0  0
  8 14  1  0  0  0  0
  9  8  1  0  0  0  0
  9 15  1  0  0  0  0
 10  9  2  0  0  0  0
 11 12  2  0  0  0  0
 11 10  1  0  0  0  0
 12 13  1  0  0  0  0
 13  8  2  0  0  0  0
 16 12  1  0  0  0  0
 17  4  1  0  0  0  0
 18 17  1  0  0  0  0
 19 17  1  0  0  0  0
 20 17  1  0  0  0  0
 20 21  2  0  0  0  0
 21 22  1  0  0  0  0
 23 24  1  0  0  0  0
 23 21  1  0  0  0  0
 25 23  2  0  0  0  0
 26 25  1  0  0  0  0
 27 25  1  0  0  0  0
 27 20  1  0  0  0  0
M  END
>  <minimizedAffinity>
-4.36753893

>  <minimizedRMSD>
1.58513629

$$$$
