
 OpenBabel03212520353D

 35 38  0  0  0  0  0  0  0  0999 V2000
   40.2010   82.4130   58.6660 C   0  0  0  0  0  0  0  0  0  0  0  0
   41.1470   81.6310   57.9700 C   0  0  0  0  0  0  0  0  0  0  0  0
   42.0780   80.8140   58.7090 C   0  0  0  0  0  0  0  0  0  0  0  0
   41.9770   80.8540   60.0660 N   0  0  0  0  0  0  0  0  0  0  0  0
   41.0310   81.6320   60.7050 C   0  0  0  0  0  0  0  0  0  0  0  0
   40.1600   82.3970   60.0030 N   0  0  0  0  0  0  0  0  0  0  0  0
   39.5420   83.0840   58.1910 H   0  0  0  0  0  0  0  0  0  0  0  0
   42.8450   80.1620   58.3720 H   0  0  0  0  0  0  0  0  0  0  0  0
   41.3440   81.5300   56.5380 C   0  0  0  0  0  0  0  0  0  0  0  0
   42.2470   82.4840   56.0160 C   0  0  0  0  0  0  0  0  0  0  0  0
   42.5210   82.6190   54.6910 C   0  0  0  0  0  0  0  0  0  0  0  0
   41.8940   81.7880   53.7740 C   0  0  0  0  0  0  0  0  0  0  0  0
   41.0050   80.8450   54.2640 C   0  0  0  0  0  0  0  0  0  0  0  0
   40.3310   79.9720   53.4470 C   0  0  0  0  0  0  0  0  0  0  0  0
   39.4520   79.0330   53.9570 C   0  0  0  0  0  0  0  0  0  0  0  0
   39.2120   78.9250   55.3160 C   0  0  0  0  0  0  0  0  0  0  0  0
   39.8890   79.8020   56.1400 C   0  0  0  0  0  0  0  0  0  0  0  0
   40.7360   80.7130   55.6140 C   0  0  0  0  0  0  0  0  0  0  0  0
   42.8160   83.2150   56.5730 H   0  0  0  0  0  0  0  0  0  0  0  0
   43.1940   83.3220   54.2320 H   0  0  0  0  0  0  0  0  0  0  0  0
   42.0340   81.8070   52.6990 H   0  0  0  0  0  0  0  0  0  0  0  0
   40.5390   80.0740   52.3730 H   0  0  0  0  0  0  0  0  0  0  0  0
   38.9970   78.4170   53.1730 H   0  0  0  0  0  0  0  0  0  0  0  0
   38.5190   78.1680   55.6030 H   0  0  0  0  0  0  0  0  0  0  0  0
   39.6640   79.5690   57.1540 H   0  0  0  0  0  0  0  0  0  0  0  0
   40.9470   81.6570   62.1670 C   0  0  0  0  0  0  0  0  0  0  0  0
   40.5990   80.6660   62.8410 O   0  0  0  0  0  0  0  0  0  0  0  0
   41.2910   82.9040   62.8580 C   0  0  0  0  0  0  0  0  0  0  0  0
   40.5970   83.3390   63.9930 C   0  0  0  0  0  0  0  0  0  0  0  0
   39.7660   82.8600   64.4960 H   0  0  0  0  0  0  0  0  0  0  0  0
   41.1860   84.5270   64.3640 C   0  0  0  0  0  0  0  0  0  0  0  0
   40.8890   85.1320   65.2090 H   0  0  0  0  0  0  0  0  0  0  0  0
   42.1950   84.7520   63.4470 C   0  0  0  0  0  0  0  0  0  0  0  0
   42.8140   85.6430   63.5320 H   0  0  0  0  0  0  0  0  0  0  0  0
   42.2140   83.7760   62.5900 O   0  0  0  0  0  0  0  0  0  0  0  0
  1  6  1  0  0  0  0
  2  1  2  0  0  0  0
  2  3  1  0  0  0  0
  3  4  2  0  0  0  0
  4  5  1  0  0  0  0
  5 26  1  0  0  0  0
  6  5  2  0  0  0  0
  7  1  1  0  0  0  0
  8  3  1  0  0  0  0
  9  2  1  0  0  0  0
 10  9  1  0  0  0  0
 10 19  1  0  0  0  0
 11 10  2  0  0  0  0
 12 13  2  0  0  0  0
 12 11  1  0  0  0  0
 13 18  1  0  0  0  0
 14 15  2  0  0  0  0
 14 13  1  0  0  0  0
 15 16  1  0  0  0  0
 16 24  1  0  0  0  0
 16 17  2  0  0  0  0
 17 25  1  0  0  0  0
 18 17  1  0  0  0  0
 18  9  2  0  0  0  0
 20 11  1  0  0  0  0
 21 12  1  0  0  0  0
 22 14  1  0  0  0  0
 23 15  1  0  0  0  0
 26 27  2  0  0  0  0
 26 28  1  0  0  0  0
 28 29  2  0  0  0  0
 29 31  1  0  0  0  0
 29 30  1  0  0  0  0
 31 32  1  0  0  0  0
 33 34  1  0  0  0  0
 33 31  2  0  0  0  0
 35 28  1  0  0  0  0
 35 33  1  0  0  0  0
M  END
>  <minimizedAffinity>
-5.10908699

>  <minimizedRMSD>
2.81205153

$$$$
