
 OpenBabel03212520313D

 40 43  0  0  0  0  0  0  0  0999 V2000
   43.0330   82.6520   62.5770 C   0  0  0  0  0  0  0  0  0  0  0  0
   43.3750   81.6370   61.6960 C   0  0  0  0  0  0  0  0  0  0  0  0
   44.6420   81.1020   61.6890 C   0  0  0  0  0  0  0  0  0  0  0  0
   45.6530   81.5370   62.5510 C   0  0  0  0  0  0  0  0  0  0  0  0
   45.3390   82.5440   63.4350 C   0  0  0  0  0  0  0  0  0  0  0  0
   44.0610   83.0810   63.4410 C   0  0  0  0  0  0  0  0  0  0  0  0
   44.9280   80.3030   61.0020 H   0  0  0  0  0  0  0  0  0  0  0  0
   46.6290   81.0980   62.5180 H   0  0  0  0  0  0  0  0  0  0  0  0
   46.0790   82.9160   64.1210 H   0  0  0  0  0  0  0  0  0  0  0  0
   43.8280   83.8710   64.1420 H   0  0  0  0  0  0  0  0  0  0  0  0
   40.4940   79.8210   60.2640 C   0  0  0  0  0  0  0  0  0  0  0  0
   40.5880   80.1250   58.9210 C   0  0  0  0  0  0  0  0  0  0  0  0
   41.6460   80.9530   58.5340 C   0  0  0  0  0  0  0  0  0  0  0  0
   42.5180   81.4110   59.4840 N   0  0  0  0  0  0  0  0  0  0  0  0
   42.3930   81.0950   60.7630 C   0  0  0  0  0  0  0  0  0  0  0  0
   41.3790   80.3020   61.1420 N   0  0  0  0  0  0  0  0  0  0  0  0
   39.6750   79.1830   60.5580 H   0  0  0  0  0  0  0  0  0  0  0  0
   41.7810   81.2290   57.5140 H   0  0  0  0  0  0  0  0  0  0  0  0
   39.6540   79.6230   57.9790 N   0  0  0  0  0  0  0  0  0  0  0  0
   39.2020   80.5430   57.1300 C   0  0  0  0  0  0  0  0  0  0  0  0
   38.2760   80.1500   56.1610 C   0  0  0  0  0  0  0  0  0  0  0  0
   37.8620   78.8310   56.1140 C   0  0  0  0  0  0  0  0  0  0  0  0
   37.0340   78.3970   55.2750 O   0  0  0  0  0  0  0  0  0  0  0  0
   38.3720   77.9430   57.0200 N   0  0  0  0  0  0  0  0  0  0  0  0
   39.2720   78.3250   57.9630 C   0  0  0  0  0  0  0  0  0  0  0  0
   39.7450   77.5330   58.7920 O   0  0  0  0  0  0  0  0  0  0  0  0
   39.4970   81.5830   57.1310 H   0  0  0  0  0  0  0  0  0  0  0  0
   37.8770   80.8470   55.4510 H   0  0  0  0  0  0  0  0  0  0  0  0
   38.1200   76.9260   57.0640 H   0  0  0  0  0  0  0  0  0  0  0  0
   41.4520   83.3530   62.6080 S   0  0  0  0  0  0  0  0  0  0  0  0
   41.4440   84.5770   63.4860 O   0  0  0  0  0  0  0  0  0  0  0  0
   40.5480   82.3610   63.3320 O   0  0  0  0  0  0  0  0  0  0  0  0
   40.7870   83.8090   61.0860 C   0  0  0  0  0  0  0  0  0  0  0  0
   39.6730   83.6460   60.2570 C   0  0  0  0  0  0  0  0  0  0  0  0
   38.9410   82.9870   60.7210 H   0  0  0  0  0  0  0  0  0  0  0  0
   39.8430   84.3720   59.0980 C   0  0  0  0  0  0  0  0  0  0  0  0
   39.0500   84.3330   58.3650 H   0  0  0  0  0  0  0  0  0  0  0  0
   41.0710   84.9600   59.2650 C   0  0  0  0  0  0  0  0  0  0  0  0
   41.4460   85.6080   58.4590 H   0  0  0  0  0  0  0  0  0  0  0  0
   41.6010   84.6260   60.4150 O   0  0  0  0  0  0  0  0  0  0  0  0
  1 30  1  0  0  0  0
  1  6  1  0  0  0  0
  2  1  2  0  0  0  0
  3  2  1  0  0  0  0
  3  4  2  0  0  0  0
  4  5  1  0  0  0  0
  5  6  2  0  0  0  0
  5  9  1  0  0  0  0
  6 10  1  0  0  0  0
  7  3  1  0  0  0  0
  8  4  1  0  0  0  0
 11 17  1  0  0  0  0
 11 16  1  0  0  0  0
 12 11  2  0  0  0  0
 13 12  1  0  0  0  0
 13 14  2  0  0  0  0
 14 15  1  0  0  0  0
 15 16  2  0  0  0  0
 15  2  1  0  0  0  0
 18 13  1  0  0  0  0
 19 12  1  0  0  0  0
 20 27  1  0  0  0  0
 20 19  1  0  0  0  0
 21 20  2  0  0  0  0
 22 21  1  0  0  0  0
 22 24  1  0  0  0  0
 23 22  2  0  0  0  0
 24 29  1  0  0  0  0
 24 25  1  0  0  0  0
 25 19  1  0  0  0  0
 25 26  2  0  0  0  0
 28 21  1  0  0  0  0
 30 32  2  0  0  0  0
 30 31  2  0  0  0  0
 33 30  1  0  0  0  0
 34 35  1  0  0  0  0
 34 33  2  0  0  0  0
 36 38  2  0  0  0  0
 36 34  1  0  0  0  0
 37 36  1  0  0  0  0
 38 40  1  0  0  0  0
 39 38  1  0  0  0  0
 40 33  1  0  0  0  0
M  END
>  <minimizedAffinity>
-6.3206501

>  <minimizedRMSD>
1.95422208

$$$$
