
 OpenBabel03212520263D

 27 29  0  0  0  0  0  0  0  0999 V2000
   42.9510   85.0320   61.1330 C   0  0  0  0  0  0  0  0  0  0  0  0
   44.1900   84.8690   61.7230 C   0  0  0  0  0  0  0  0  0  0  0  0
   44.9950   85.6760   60.9110 C   0  0  0  0  0  0  0  0  0  0  0  0
   44.2690   86.2530   59.9360 N   0  0  0  0  0  0  0  0  0  0  0  0
   42.9980   85.8540   60.0720 N   0  0  0  0  0  0  0  0  0  0  0  0
   44.4730   84.2830   62.5770 H   0  0  0  0  0  0  0  0  0  0  0  0
   46.0710   85.8240   61.0460 H   0  0  0  0  0  0  0  0  0  0  0  0
   40.4710   83.2110   63.2350 C   0  0  0  0  0  0  0  0  0  0  0  0
   41.6720   83.8030   62.8580 C   0  0  0  0  0  0  0  0  0  0  0  0
   41.7190   84.3880   61.5990 C   0  0  0  0  0  0  0  0  0  0  0  0
   40.6140   84.3650   60.7920 N   0  0  0  0  0  0  0  0  0  0  0  0
   39.4750   83.7680   61.2290 C   0  0  0  0  0  0  0  0  0  0  0  0
   39.3990   83.1980   62.4300 N   0  0  0  0  0  0  0  0  0  0  0  0
   40.3470   82.7340   64.1930 H   0  0  0  0  0  0  0  0  0  0  0  0
   42.5230   83.8010   63.5230 H   0  0  0  0  0  0  0  0  0  0  0  0
   38.7040   83.8400   60.4720 H   0  0  0  0  0  0  0  0  0  0  0  0
   44.7640   87.1540   58.9070 C   0  0  0  0  0  0  0  0  0  0  0  0
   45.8580   87.1070   58.8540 H   0  0  0  0  0  0  0  0  0  0  0  0
   44.2910   86.8370   57.9590 H   0  0  0  0  0  0  0  0  0  0  0  0
   44.3420   88.5430   59.2570 C   0  0  0  0  0  0  0  0  0  0  0  0
   43.9820   89.5720   58.4130 C   0  0  0  0  0  0  0  0  0  0  0  0
   43.9650   89.4770   57.3310 H   0  0  0  0  0  0  0  0  0  0  0  0
   43.6740   90.6570   59.2020 C   0  0  0  0  0  0  0  0  0  0  0  0
   43.3520   91.6330   58.8550 H   0  0  0  0  0  0  0  0  0  0  0  0
   43.8710   90.2100   60.5090 C   0  0  0  0  0  0  0  0  0  0  0  0
   43.7140   90.8290   61.3990 H   0  0  0  0  0  0  0  0  0  0  0  0
   44.2650   88.9590   60.5120 O   0  0  0  0  0  0  0  0  0  0  0  0
  1 10  1  0  0  0  0
  1  2  1  0  0  0  0
  2  6  1  0  0  0  0
  3  7  1  0  0  0  0
  3  2  2  0  0  0  0
  4  5  1  0  0  0  0
  4  3  1  0  0  0  0
  5  1  2  0  0  0  0
  8 14  1  0  0  0  0
  9  8  1  0  0  0  0
  9 15  1  0  0  0  0
 10  9  2  0  0  0  0
 11 12  2  0  0  0  0
 11 10  1  0  0  0  0
 12 13  1  0  0  0  0
 13  8  2  0  0  0  0
 16 12  1  0  0  0  0
 17 20  1  0  0  0  0
 17  4  1  0  0  0  0
 18 17  1  0  0  0  0
 19 17  1  0  0  0  0
 20 27  1  0  0  0  0
 21 23  1  0  0  0  0
 21 20  2  0  0  0  0
 22 21  1  0  0  0  0
 23 25  2  0  0  0  0
 24 23  1  0  0  0  0
 25 27  1  0  0  0  0
 25 26  1  0  0  0  0
M  END
>  <minimizedAffinity>
-4.6930747

>  <minimizedRMSD>
1.15463185

$$$$
