
 OpenBabel03212520283D

 27 29  0  0  0  0  0  0  0  0999 V2000
   38.2260   75.8220   57.8840 C   0  0  0  0  0  0  0  0  0  0  0  0
   39.0740   76.7120   58.5140 C   0  0  0  0  0  0  0  0  0  0  0  0
   39.3050   76.0630   59.7320 C   0  0  0  0  0  0  0  0  0  0  0  0
   38.6400   74.8950   59.7890 N   0  0  0  0  0  0  0  0  0  0  0  0
   37.9690   74.7430   58.6400 N   0  0  0  0  0  0  0  0  0  0  0  0
   39.4600   77.6540   58.1710 H   0  0  0  0  0  0  0  0  0  0  0  0
   39.9420   76.4480   60.5350 H   0  0  0  0  0  0  0  0  0  0  0  0
   37.2090   75.2680   54.3420 C   0  0  0  0  0  0  0  0  0  0  0  0
   37.7650   75.0120   55.5910 C   0  0  0  0  0  0  0  0  0  0  0  0
   37.6630   76.0180   56.5430 C   0  0  0  0  0  0  0  0  0  0  0  0
   37.0380   77.1950   56.2330 N   0  0  0  0  0  0  0  0  0  0  0  0
   36.5180   77.3720   54.9900 C   0  0  0  0  0  0  0  0  0  0  0  0
   36.6000   76.4270   54.0560 N   0  0  0  0  0  0  0  0  0  0  0  0
   37.2420   74.5440   53.5440 H   0  0  0  0  0  0  0  0  0  0  0  0
   38.2510   74.0710   55.7990 H   0  0  0  0  0  0  0  0  0  0  0  0
   36.0630   78.3510   54.9140 H   0  0  0  0  0  0  0  0  0  0  0  0
   38.6410   73.9520   60.8960 C   0  0  0  0  0  0  0  0  0  0  0  0
   38.5620   74.4860   61.8500 H   0  0  0  0  0  0  0  0  0  0  0  0
   37.7830   73.2740   60.7300 H   0  0  0  0  0  0  0  0  0  0  0  0
   39.9220   73.1850   60.8580 C   0  0  0  0  0  0  0  0  0  0  0  0
   40.9100   73.1110   61.8180 C   0  0  0  0  0  0  0  0  0  0  0  0
   40.8590   73.6370   62.7680 H   0  0  0  0  0  0  0  0  0  0  0  0
   41.8930   72.2820   61.3280 C   0  0  0  0  0  0  0  0  0  0  0  0
   42.8130   72.0090   61.8320 H   0  0  0  0  0  0  0  0  0  0  0  0
   41.4320   71.8940   60.0700 C   0  0  0  0  0  0  0  0  0  0  0  0
   41.9780   71.2240   59.3950 H   0  0  0  0  0  0  0  0  0  0  0  0
   40.2660   72.4430   59.8180 O   0  0  0  0  0  0  0  0  0  0  0  0
  1  2  1  0  0  0  0
  1  5  2  0  0  0  0
  2  3  2  0  0  0  0
  3  4  1  0  0  0  0
  3  7  1  0  0  0  0
  4 17  1  0  0  0  0
  5  4  1  0  0  0  0
  6  2  1  0  0  0  0
  8  9  1  0  0  0  0
  9 15  1  0  0  0  0
  9 10  2  0  0  0  0
 10  1  1  0  0  0  0
 11 10  1  0  0  0  0
 12 11  2  0  0  0  0
 13  8  2  0  0  0  0
 13 12  1  0  0  0  0
 14  8  1  0  0  0  0
 16 12  1  0  0  0  0
 17 18  1  0  0  0  0
 19 17  1  0  0  0  0
 20 17  1  0  0  0  0
 20 21  2  0  0  0  0
 21 22  1  0  0  0  0
 23 21  1  0  0  0  0
 23 24  1  0  0  0  0
 25 23  2  0  0  0  0
 26 25  1  0  0  0  0
 27 25  1  0  0  0  0
 27 20  1  0  0  0  0
M  END
>  <minimizedAffinity>
-5.029953

$$$$

 OpenBabel03212520283D

 27 29  0  0  0  0  0  0  0  0999 V2000
   41.8800   69.7360   61.9960 C   0  0  0  0  0  0  0  0  0  0  0  0
   42.0880   70.4970   63.1310 C   0  0  0  0  0  0  0  0  0  0  0  0
   42.0990   71.7920   62.6000 C   0  0  0  0  0  0  0  0  0  0  0  0
   41.9130   71.7680   61.2680 N   0  0  0  0  0  0  0  0  0  0  0  0
   41.7760   70.4900   60.8900 N   0  0  0  0  0  0  0  0  0  0  0  0
   42.2080   70.1890   64.1520 H   0  0  0  0  0  0  0  0  0  0  0  0
   42.2400   72.7060   63.1850 H   0  0  0  0  0  0  0  0  0  0  0  0
   41.7730   66.1920   60.8500 C   0  0  0  0  0  0  0  0  0  0  0  0
   41.8740   67.5770   60.7860 C   0  0  0  0  0  0  0  0  0  0  0  0
   41.7820   68.2720   61.9850 C   0  0  0  0  0  0  0  0  0  0  0  0
   41.6020   67.5930   63.1590 N   0  0  0  0  0  0  0  0  0  0  0  0
   41.5120   66.2370   63.1430 C   0  0  0  0  0  0  0  0  0  0  0  0
   41.5960   65.5430   62.0100 N   0  0  0  0  0  0  0  0  0  0  0  0
   41.8330   65.5740   59.9690 H   0  0  0  0  0  0  0  0  0  0  0  0
   42.0170   68.0790   59.8410 H   0  0  0  0  0  0  0  0  0  0  0  0
   41.3710   65.8620   64.1490 H   0  0  0  0  0  0  0  0  0  0  0  0
   41.8650   72.9190   60.3810 C   0  0  0  0  0  0  0  0  0  0  0  0
   42.7220   73.5770   60.5660 H   0  0  0  0  0  0  0  0  0  0  0  0
   41.8680   72.5180   59.3490 H   0  0  0  0  0  0  0  0  0  0  0  0
   40.5990   73.6630   60.6440 C   0  0  0  0  0  0  0  0  0  0  0  0
   40.3830   75.0250   60.6370 C   0  0  0  0  0  0  0  0  0  0  0  0
   41.1630   75.7520   60.4240 H   0  0  0  0  0  0  0  0  0  0  0  0
   39.0550   75.2290   60.9380 C   0  0  0  0  0  0  0  0  0  0  0  0
   38.5540   76.1880   61.0150 H   0  0  0  0  0  0  0  0  0  0  0  0
   38.5330   73.9480   61.1150 C   0  0  0  0  0  0  0  0  0  0  0  0
   37.4870   73.7400   61.3690 H   0  0  0  0  0  0  0  0  0  0  0  0
   39.4670   73.0420   60.9360 O   0  0  0  0  0  0  0  0  0  0  0  0
  1  2  1  0  0  0  0
  2  6  1  0  0  0  0
  3  2  2  0  0  0  0
  3  7  1  0  0  0  0
  4  3  1  0  0  0  0
  5  4  1  0  0  0  0
  5  1  2  0  0  0  0
  8 13  1  0  0  0  0
  9  8  2  0  0  0  0
  9 10  1  0  0  0  0
 10  1  1  0  0  0  0
 10 11  2  0  0  0  0
 12 11  1  0  0  0  0
 12 16  1  0  0  0  0
 13 12  2  0  0  0  0
 14  8  1  0  0  0  0
 15  9  1  0  0  0  0
 17 18  1  0  0  0  0
 17 20  1  0  0  0  0
 17  4  1  0  0  0  0
 19 17  1  0  0  0  0
 20 27  1  0  0  0  0
 21 20  2  0  0  0  0
 21 23  1  0  0  0  0
 22 21  1  0  0  0  0
 23 24  1  0  0  0  0
 23 25  2  0  0  0  0
 25 26  1  0  0  0  0
 27 25  1  0  0  0  0
M  END
>  <minimizedAffinity>
-4.86150551

$$$$

 OpenBabel03212520283D

 27 29  0  0  0  0  0  0  0  0999 V2000
   42.4890   71.6280   61.7410 C   0  0  0  0  0  0  0  0  0  0  0  0
   41.5380   71.5510   62.7410 C   0  0  0  0  0  0  0  0  0  0  0  0
   41.7630   70.2640   63.2420 C   0  0  0  0  0  0  0  0  0  0  0  0
   42.7640   69.6570   62.5790 N   0  0  0  0  0  0  0  0  0  0  0  0
   43.2180   70.5040   61.6460 N   0  0  0  0  0  0  0  0  0  0  0  0
   40.8140   72.2780   63.0580 H   0  0  0  0  0  0  0  0  0  0  0  0
   41.2040   69.8070   64.0650 H   0  0  0  0  0  0  0  0  0  0  0  0
   41.8660   74.6150   59.6020 C   0  0  0  0  0  0  0  0  0  0  0  0
   41.5990   73.5200   60.4170 C   0  0  0  0  0  0  0  0  0  0  0  0
   42.6920   72.7950   60.8770 C   0  0  0  0  0  0  0  0  0  0  0  0
   43.9600   73.1700   60.5240 N   0  0  0  0  0  0  0  0  0  0  0  0
   44.1430   74.2520   59.7230 C   0  0  0  0  0  0  0  0  0  0  0  0
   43.1150   74.9660   59.2660 N   0  0  0  0  0  0  0  0  0  0  0  0
   41.0790   75.2320   59.2010 H   0  0  0  0  0  0  0  0  0  0  0  0
   40.5850   73.2550   60.6750 H   0  0  0  0  0  0  0  0  0  0  0  0
   45.1990   74.4070   59.5430 H   0  0  0  0  0  0  0  0  0  0  0  0
   43.2770   68.3180   62.8230 C   0  0  0  0  0  0  0  0  0  0  0  0
   44.1250   68.1100   62.1610 H   0  0  0  0  0  0  0  0  0  0  0  0
   43.5680   68.2840   63.8900 H   0  0  0  0  0  0  0  0  0  0  0  0
   42.1820   67.3400   62.5530 C   0  0  0  0  0  0  0  0  0  0  0  0
   41.4900   67.1250   61.3790 C   0  0  0  0  0  0  0  0  0  0  0  0
   41.6800   67.6800   60.4640 H   0  0  0  0  0  0  0  0  0  0  0  0
   40.5790   66.1220   61.6210 C   0  0  0  0  0  0  0  0  0  0  0  0
   39.8740   65.7090   60.9090 H   0  0  0  0  0  0  0  0  0  0  0  0
   40.7760   65.7830   62.9600 C   0  0  0  0  0  0  0  0  0  0  0  0
   40.2080   65.0080   63.4870 H   0  0  0  0  0  0  0  0  0  0  0  0
   41.7290   66.5180   63.4850 O   0  0  0  0  0  0  0  0  0  0  0  0
  1  2  1  0  0  0  0
  2  6  1  0  0  0  0
  2  3  2  0  0  0  0
  3  7  1  0  0  0  0
  4 17  1  0  0  0  0
  4  3  1  0  0  0  0
  5  1  2  0  0  0  0
  5  4  1  0  0  0  0
  8  9  1  0  0  0  0
  9 15  1  0  0  0  0
  9 10  2  0  0  0  0
 10  1  1  0  0  0  0
 11 10  1  0  0  0  0
 12 11  2  0  0  0  0
 13  8  2  0  0  0  0
 13 12  1  0  0  0  0
 14  8  1  0  0  0  0
 16 12  1  0  0  0  0
 17 19  1  0  0  0  0
 18 17  1  0  0  0  0
 20 17  1  0  0  0  0
 20 27  1  0  0  0  0
 21 23  1  0  0  0  0
 21 20  2  0  0  0  0
 22 21  1  0  0  0  0
 23 25  2  0  0  0  0
 24 23  1  0  0  0  0
 25 27  1  0  0  0  0
 25 26  1  0  0  0  0
M  END
>  <minimizedAffinity>
-4.78497648

$$$$

 OpenBabel03212520283D

 27 29  0  0  0  0  0  0  0  0999 V2000
   41.4310   73.0470   60.9100 C   0  0  0  0  0  0  0  0  0  0  0  0
   42.2680   73.5930   59.9550 C   0  0  0  0  0  0  0  0  0  0  0  0
   41.6330   74.8130   59.6930 C   0  0  0  0  0  0  0  0  0  0  0  0
   40.5230   74.9480   60.4400 N   0  0  0  0  0  0  0  0  0  0  0  0
   40.3960   73.8520   61.1980 N   0  0  0  0  0  0  0  0  0  0  0  0
   43.1680   73.1990   59.5220 H   0  0  0  0  0  0  0  0  0  0  0  0
   41.9880   75.5610   58.9770 H   0  0  0  0  0  0  0  0  0  0  0  0
   42.2780   69.4600   61.4610 C   0  0  0  0  0  0  0  0  0  0  0  0
   42.1060   70.6690   60.7940 C   0  0  0  0  0  0  0  0  0  0  0  0
   41.6380   71.7410   61.5440 C   0  0  0  0  0  0  0  0  0  0  0  0
   41.3700   71.5800   62.8760 N   0  0  0  0  0  0  0  0  0  0  0  0
   41.5620   70.3680   63.4590 C   0  0  0  0  0  0  0  0  0  0  0  0
   42.0090   69.3210   62.7660 N   0  0  0  0  0  0  0  0  0  0  0  0
   42.6360   68.5770   60.9570 H   0  0  0  0  0  0  0  0  0  0  0  0
   42.3280   70.7580   59.7410 H   0  0  0  0  0  0  0  0  0  0  0  0
   41.3040   70.4150   64.5080 H   0  0  0  0  0  0  0  0  0  0  0  0
   39.6110   76.0810   60.4380 C   0  0  0  0  0  0  0  0  0  0  0  0
   38.8240   75.9360   61.1870 H   0  0  0  0  0  0  0  0  0  0  0  0
   40.2250   76.9770   60.6520 H   0  0  0  0  0  0  0  0  0  0  0  0
   38.9960   76.1870   59.0820 C   0  0  0  0  0  0  0  0  0  0  0  0
   39.0870   77.2210   58.1730 C   0  0  0  0  0  0  0  0  0  0  0  0
   39.6540   78.1290   58.3580 H   0  0  0  0  0  0  0  0  0  0  0  0
   38.3510   76.8580   57.0680 C   0  0  0  0  0  0  0  0  0  0  0  0
   38.2120   77.4450   56.1680 H   0  0  0  0  0  0  0  0  0  0  0  0
   37.8450   75.5960   57.3810 C   0  0  0  0  0  0  0  0  0  0  0  0
   37.2060   75.0080   56.7120 H   0  0  0  0  0  0  0  0  0  0  0  0
   38.2410   75.2240   58.5760 O   0  0  0  0  0  0  0  0  0  0  0  0
  1  5  2  0  0  0  0
  1 10  1  0  0  0  0
  2  1  1  0  0  0  0
  3  2  2  0  0  0  0
  3  4  1  0  0  0  0
  4  5  1  0  0  0  0
  6  2  1  0  0  0  0
  7  3  1  0  0  0  0
  8 13  1  0  0  0  0
  9  8  2  0  0  0  0
  9 10  1  0  0  0  0
 10 11  2  0  0  0  0
 11 12  1  0  0  0  0
 12 16  1  0  0  0  0
 13 12  2  0  0  0  0
 14  8  1  0  0  0  0
 15  9  1  0  0  0  0
 17  4  1  0  0  0  0
 17 19  1  0  0  0  0
 17 18  1  0  0  0  0
 20 17  1  0  0  0  0
 21 22  1  0  0  0  0
 21 20  2  0  0  0  0
 23 25  2  0  0  0  0
 23 21  1  0  0  0  0
 24 23  1  0  0  0  0
 25 27  1  0  0  0  0
 26 25  1  0  0  0  0
 27 20  1  0  0  0  0
M  END
>  <minimizedAffinity>
-4.74953604

$$$$

 OpenBabel03212520283D

 27 29  0  0  0  0  0  0  0  0999 V2000
   41.3980   71.9200   61.5040 C   0  0  0  0  0  0  0  0  0  0  0  0
   41.7750   71.6750   62.8100 C   0  0  0  0  0  0  0  0  0  0  0  0
   42.4670   70.4650   62.6790 C   0  0  0  0  0  0  0  0  0  0  0  0
   42.4820   70.0560   61.3970 N   0  0  0  0  0  0  0  0  0  0  0  0
   41.8180   70.9590   60.6650 N   0  0  0  0  0  0  0  0  0  0  0  0
   41.5930   72.2500   63.6980 H   0  0  0  0  0  0  0  0  0  0  0  0
   42.9370   69.9200   63.5040 H   0  0  0  0  0  0  0  0  0  0  0  0
   40.4470   75.1600   59.9280 C   0  0  0  0  0  0  0  0  0  0  0  0
   41.2370   74.0800   60.3060 C   0  0  0  0  0  0  0  0  0  0  0  0
   40.6290   73.0900   61.0680 C   0  0  0  0  0  0  0  0  0  0  0  0
   39.3090   73.2050   61.4140 N   0  0  0  0  0  0  0  0  0  0  0  0
   38.6010   74.2910   61.0080 C   0  0  0  0  0  0  0  0  0  0  0  0
   39.1560   75.2560   60.2760 N   0  0  0  0  0  0  0  0  0  0  0  0
   40.8370   75.9730   59.3370 H   0  0  0  0  0  0  0  0  0  0  0  0
   42.2750   74.0230   60.0140 H   0  0  0  0  0  0  0  0  0  0  0  0
   37.5810   74.2240   61.3650 H   0  0  0  0  0  0  0  0  0  0  0  0
   43.1060   68.8470   60.8820 C   0  0  0  0  0  0  0  0  0  0  0  0
   43.0920   68.8510   59.7860 H   0  0  0  0  0  0  0  0  0  0  0  0
   44.1370   68.8330   61.2820 H   0  0  0  0  0  0  0  0  0  0  0  0
   42.3380   67.6710   61.3860 C   0  0  0  0  0  0  0  0  0  0  0  0
   41.1140   67.1960   60.9630 C   0  0  0  0  0  0  0  0  0  0  0  0
   40.5390   67.6560   60.1630 H   0  0  0  0  0  0  0  0  0  0  0  0
   40.8190   66.0910   61.7290 C   0  0  0  0  0  0  0  0  0  0  0  0
   39.9280   65.4770   61.6550 H   0  0  0  0  0  0  0  0  0  0  0  0
   41.9070   65.9590   62.5920 C   0  0  0  0  0  0  0  0  0  0  0  0
   41.9990   65.1710   63.3480 H   0  0  0  0  0  0  0  0  0  0  0  0
   42.7890   66.9060   62.3680 O   0  0  0  0  0  0  0  0  0  0  0  0
  1  2  1  0  0  0  0
  2  6  1  0  0  0  0
  3  2  2  0  0  0  0
  3  7  1  0  0  0  0
  4  3  1  0  0  0  0
  5  4  1  0  0  0  0
  5  1  2  0  0  0  0
  8 13  2  0  0  0  0
  8  9  1  0  0  0  0
  9 10  2  0  0  0  0
 10 11  1  0  0  0  0
 10  1  1  0  0  0  0
 12 16  1  0  0  0  0
 12 11  2  0  0  0  0
 13 12  1  0  0  0  0
 14  8  1  0  0  0  0
 15  9  1  0  0  0  0
 17 19  1  0  0  0  0
 17 20  1  0  0  0  0
 17  4  1  0  0  0  0
 18 17  1  0  0  0  0
 20 27  1  0  0  0  0
 21 20  2  0  0  0  0
 21 23  1  0  0  0  0
 22 21  1  0  0  0  0
 23 25  2  0  0  0  0
 24 23  1  0  0  0  0
 25 26  1  0  0  0  0
 27 25  1  0  0  0  0
M  END
>  <minimizedAffinity>
-4.73992682

$$$$

 OpenBabel03212520283D

 27 29  0  0  0  0  0  0  0  0999 V2000
   41.0730   72.0410   60.3260 C   0  0  0  0  0  0  0  0  0  0  0  0
   41.2200   71.3680   59.1280 C   0  0  0  0  0  0  0  0  0  0  0  0
   41.8650   70.1970   59.5430 C   0  0  0  0  0  0  0  0  0  0  0  0
   42.0680   70.2050   60.8730 N   0  0  0  0  0  0  0  0  0  0  0  0
   41.5760   71.3500   61.3620 N   0  0  0  0  0  0  0  0  0  0  0  0
   40.9230   71.6550   58.1380 H   0  0  0  0  0  0  0  0  0  0  0  0
   42.1660   69.3800   58.8800 H   0  0  0  0  0  0  0  0  0  0  0  0
   38.6790   74.7570   61.2060 C   0  0  0  0  0  0  0  0  0  0  0  0
   39.2170   73.4780   61.1100 C   0  0  0  0  0  0  0  0  0  0  0  0
   40.4420   73.3580   60.4660 C   0  0  0  0  0  0  0  0  0  0  0  0
   41.0640   74.4680   59.9610 N   0  0  0  0  0  0  0  0  0  0  0  0
   40.4750   75.6850   60.0940 C   0  0  0  0  0  0  0  0  0  0  0  0
   39.3020   75.8330   60.7050 N   0  0  0  0  0  0  0  0  0  0  0  0
   37.7330   74.9420   61.6890 H   0  0  0  0  0  0  0  0  0  0  0  0
   38.6980   72.6260   61.5210 H   0  0  0  0  0  0  0  0  0  0  0  0
   41.0960   76.4480   59.6420 H   0  0  0  0  0  0  0  0  0  0  0  0
   42.7070   69.1600   61.6570 C   0  0  0  0  0  0  0  0  0  0  0  0
   43.4200   68.6020   61.0370 H   0  0  0  0  0  0  0  0  0  0  0  0
   43.2060   69.6660   62.5050 H   0  0  0  0  0  0  0  0  0  0  0  0
   41.6490   68.2330   62.1560 C   0  0  0  0  0  0  0  0  0  0  0  0
   41.1380   67.1030   61.5500 C   0  0  0  0  0  0  0  0  0  0  0  0
   41.4740   66.7420   60.5820 H   0  0  0  0  0  0  0  0  0  0  0  0
   40.1830   66.5850   62.3950 C   0  0  0  0  0  0  0  0  0  0  0  0
   39.5860   65.6970   62.2220 H   0  0  0  0  0  0  0  0  0  0  0  0
   40.1700   67.4530   63.4870 C   0  0  0  0  0  0  0  0  0  0  0  0
   39.5140   67.3350   64.3580 H   0  0  0  0  0  0  0  0  0  0  0  0
   41.0450   68.4170   63.3190 O   0  0  0  0  0  0  0  0  0  0  0  0
  1 10  1  0  0  0  0
  1  5  2  0  0  0  0
  2  3  2  0  0  0  0
  2  1  1  0  0  0  0
  3  4  1  0  0  0  0
  4  5  1  0  0  0  0
  4 17  1  0  0  0  0
  6  2  1  0  0  0  0
  7  3  1  0  0  0  0
  8 14  1  0  0  0  0
  9  8  1  0  0  0  0
  9 15  1  0  0  0  0
 10  9  2  0  0  0  0
 11 12  2  0  0  0  0
 11 10  1  0  0  0  0
 12 13  1  0  0  0  0
 13  8  2  0  0  0  0
 16 12  1  0  0  0  0
 17 20  1  0  0  0  0
 17 19  1  0  0  0  0
 18 17  1  0  0  0  0
 20 27  1  0  0  0  0
 21 20  2  0  0  0  0
 21 23  1  0  0  0  0
 22 21  1  0  0  0  0
 23 25  2  0  0  0  0
 24 23  1  0  0  0  0
 25 26  1  0  0  0  0
 27 25  1  0  0  0  0
M  END
>  <minimizedAffinity>
-4.65830135

$$$$

 OpenBabel03212520283D

 27 29  0  0  0  0  0  0  0  0999 V2000
   39.8980   74.3630   59.6540 C   0  0  0  0  0  0  0  0  0  0  0  0
   38.7000   73.8020   59.2560 C   0  0  0  0  0  0  0  0  0  0  0  0
   38.1440   74.8400   58.4990 C   0  0  0  0  0  0  0  0  0  0  0  0
   38.9620   75.9070   58.4710 N   0  0  0  0  0  0  0  0  0  0  0  0
   40.0540   75.6130   59.1880 N   0  0  0  0  0  0  0  0  0  0  0  0
   38.2930   72.8310   59.4630 H   0  0  0  0  0  0  0  0  0  0  0  0
   37.1730   74.7960   57.9950 H   0  0  0  0  0  0  0  0  0  0  0  0
   41.4960   72.3880   62.3810 C   0  0  0  0  0  0  0  0  0  0  0  0
   40.4980   73.0090   61.6370 C   0  0  0  0  0  0  0  0  0  0  0  0
   40.8950   73.6850   60.4900 C   0  0  0  0  0  0  0  0  0  0  0  0
   42.2170   73.7190   60.1370 N   0  0  0  0  0  0  0  0  0  0  0  0
   43.1350   73.0890   60.9150 C   0  0  0  0  0  0  0  0  0  0  0  0
   42.7860   72.4330   62.0200 N   0  0  0  0  0  0  0  0  0  0  0  0
   41.2780   71.8430   63.2840 H   0  0  0  0  0  0  0  0  0  0  0  0
   39.4640   72.9600   61.9460 H   0  0  0  0  0  0  0  0  0  0  0  0
   44.1250   73.2140   60.4950 H   0  0  0  0  0  0  0  0  0  0  0  0
   38.7190   77.1670   57.7850 C   0  0  0  0  0  0  0  0  0  0  0  0
   38.0090   77.7780   58.3540 H   0  0  0  0  0  0  0  0  0  0  0  0
   39.7030   77.6630   57.6850 H   0  0  0  0  0  0  0  0  0  0  0  0
   38.1510   76.8660   56.4380 C   0  0  0  0  0  0  0  0  0  0  0  0
   38.8110   76.4650   55.2950 C   0  0  0  0  0  0  0  0  0  0  0  0
   39.8860   76.3150   55.2490 H   0  0  0  0  0  0  0  0  0  0  0  0
   37.8620   76.3130   54.3090 C   0  0  0  0  0  0  0  0  0  0  0  0
   38.0440   76.0070   53.2850 H   0  0  0  0  0  0  0  0  0  0  0  0
   36.6560   76.6380   54.9280 C   0  0  0  0  0  0  0  0  0  0  0  0
   35.6830   76.6230   54.4230 H   0  0  0  0  0  0  0  0  0  0  0  0
   36.8550   76.9610   56.1850 O   0  0  0  0  0  0  0  0  0  0  0  0
  1 10  1  0  0  0  0
  2  6  1  0  0  0  0
  2  1  1  0  0  0  0
  3  2  2  0  0  0  0
  4  3  1  0  0  0  0
  4  5  1  0  0  0  0
  5  1  2  0  0  0  0
  7  3  1  0  0  0  0
  8 14  1  0  0  0  0
  9 15  1  0  0  0  0
  9  8  2  0  0  0  0
 10  9  1  0  0  0  0
 11 10  2  0  0  0  0
 11 12  1  0  0  0  0
 12 13  2  0  0  0  0
 13  8  1  0  0  0  0
 16 12  1  0  0  0  0
 17 18  1  0  0  0  0
 17  4  1  0  0  0  0
 19 17  1  0  0  0  0
 20 17  1  0  0  0  0
 21 20  2  0  0  0  0
 22 21  1  0  0  0  0
 23 25  2  0  0  0  0
 23 21  1  0  0  0  0
 24 23  1  0  0  0  0
 25 27  1  0  0  0  0
 26 25  1  0  0  0  0
 27 20  1  0  0  0  0
M  END
>  <minimizedAffinity>
-4.60097694

$$$$

 OpenBabel03212520283D

 27 29  0  0  0  0  0  0  0  0999 V2000
   41.1710   71.9220   60.8900 C   0  0  0  0  0  0  0  0  0  0  0  0
   41.1600   72.1360   59.5240 C   0  0  0  0  0  0  0  0  0  0  0  0
   40.2710   73.2120   59.4170 C   0  0  0  0  0  0  0  0  0  0  0  0
   39.8130   73.5800   60.6270 N   0  0  0  0  0  0  0  0  0  0  0  0
   40.3720   72.7800   61.5450 N   0  0  0  0  0  0  0  0  0  0  0  0
   41.6870   71.6210   58.7440 H   0  0  0  0  0  0  0  0  0  0  0  0
   39.9830   73.6940   58.4780 H   0  0  0  0  0  0  0  0  0  0  0  0
   42.5370   69.6160   63.4790 C   0  0  0  0  0  0  0  0  0  0  0  0
   41.7550   70.6150   62.9080 C   0  0  0  0  0  0  0  0  0  0  0  0
   41.9590   70.8830   61.5610 C   0  0  0  0  0  0  0  0  0  0  0  0
   42.8960   70.1770   60.8560 N   0  0  0  0  0  0  0  0  0  0  0  0
   43.6230   69.2150   61.4820 C   0  0  0  0  0  0  0  0  0  0  0  0
   43.4510   68.9360   62.7730 N   0  0  0  0  0  0  0  0  0  0  0  0
   42.4450   69.3440   64.5170 H   0  0  0  0  0  0  0  0  0  0  0  0
   41.0250   71.1510   63.4960 H   0  0  0  0  0  0  0  0  0  0  0  0
   44.3130   68.7580   60.7840 H   0  0  0  0  0  0  0  0  0  0  0  0
   38.8770   74.6570   60.9070 C   0  0  0  0  0  0  0  0  0  0  0  0
   37.8490   74.3230   60.7260 H   0  0  0  0  0  0  0  0  0  0  0  0
   39.0380   74.9450   61.9640 H   0  0  0  0  0  0  0  0  0  0  0  0
   39.1950   75.8020   60.0040 C   0  0  0  0  0  0  0  0  0  0  0  0
   40.1110   76.8170   60.1900 C   0  0  0  0  0  0  0  0  0  0  0  0
   40.7420   76.8970   61.0710 H   0  0  0  0  0  0  0  0  0  0  0  0
   40.0430   77.6350   59.0850 C   0  0  0  0  0  0  0  0  0  0  0  0
   40.6310   78.5290   58.9100 H   0  0  0  0  0  0  0  0  0  0  0  0
   39.0650   77.0550   58.2770 C   0  0  0  0  0  0  0  0  0  0  0  0
   38.7540   77.4560   57.3060 H   0  0  0  0  0  0  0  0  0  0  0  0
   38.5810   75.9740   58.8440 O   0  0  0  0  0  0  0  0  0  0  0  0
  1  5  2  0  0  0  0
  1 10  1  0  0  0  0
  2  1  1  0  0  0  0
  3  2  2  0  0  0  0
  3  4  1  0  0  0  0
  4 17  1  0  0  0  0
  4  5  1  0  0  0  0
  6  2  1  0  0  0  0
  7  3  1  0  0  0  0
  8 14  1  0  0  0  0
  9  8  1  0  0  0  0
  9 15  1  0  0  0  0
 10  9  2  0  0  0  0
 11 12  2  0  0  0  0
 11 10  1  0  0  0  0
 12 13  1  0  0  0  0
 13  8  2  0  0  0  0
 16 12  1  0  0  0  0
 17 19  1  0  0  0  0
 18 17  1  0  0  0  0
 20 21  2  0  0  0  0
 20 17  1  0  0  0  0
 21 22  1  0  0  0  0
 23 21  1  0  0  0  0
 24 23  1  0  0  0  0
 25 27  1  0  0  0  0
 25 23  2  0  0  0  0
 26 25  1  0  0  0  0
 27 20  1  0  0  0  0
M  END
>  <minimizedAffinity>
-4.5931325

$$$$

 OpenBabel03212520283D

 27 29  0  0  0  0  0  0  0  0999 V2000
   40.7850   73.5290   60.5850 C   0  0  0  0  0  0  0  0  0  0  0  0
   39.6430   73.4950   61.3620 C   0  0  0  0  0  0  0  0  0  0  0  0
   39.0200   74.6930   60.9950 C   0  0  0  0  0  0  0  0  0  0  0  0
   39.7510   75.3560   60.0810 N   0  0  0  0  0  0  0  0  0  0  0  0
   40.8490   74.6330   59.8240 N   0  0  0  0  0  0  0  0  0  0  0  0
   39.3100   72.7530   62.0630 H   0  0  0  0  0  0  0  0  0  0  0  0
   38.0650   75.0500   61.3940 H   0  0  0  0  0  0  0  0  0  0  0  0
   42.9640   70.6840   61.6070 C   0  0  0  0  0  0  0  0  0  0  0  0
   41.9660   71.6500   61.6800 C   0  0  0  0  0  0  0  0  0  0  0  0
   41.8170   72.4860   60.5810 C   0  0  0  0  0  0  0  0  0  0  0  0
   42.6320   72.3380   59.4910 N   0  0  0  0  0  0  0  0  0  0  0  0
   43.5860   71.3710   59.4930 C   0  0  0  0  0  0  0  0  0  0  0  0
   43.7540   70.5540   60.5310 N   0  0  0  0  0  0  0  0  0  0  0  0
   43.1500   69.9940   62.4140 H   0  0  0  0  0  0  0  0  0  0  0  0
   41.3420   71.7370   62.5570 H   0  0  0  0  0  0  0  0  0  0  0  0
   44.1370   71.3920   58.5610 H   0  0  0  0  0  0  0  0  0  0  0  0
   39.4210   76.6330   59.4680 C   0  0  0  0  0  0  0  0  0  0  0  0
   38.8230   77.2410   60.1570 H   0  0  0  0  0  0  0  0  0  0  0  0
   40.3840   77.1180   59.2180 H   0  0  0  0  0  0  0  0  0  0  0  0
   38.6350   76.3690   58.2270 C   0  0  0  0  0  0  0  0  0  0  0  0
   38.5300   77.1470   57.0930 C   0  0  0  0  0  0  0  0  0  0  0  0
   39.0410   78.0990   56.9730 H   0  0  0  0  0  0  0  0  0  0  0  0
   37.6930   76.4870   56.2220 C   0  0  0  0  0  0  0  0  0  0  0  0
   37.3970   76.8240   55.2350 H   0  0  0  0  0  0  0  0  0  0  0  0
   37.3320   75.3200   56.8960 C   0  0  0  0  0  0  0  0  0  0  0  0
   36.6630   74.5550   56.4850 H   0  0  0  0  0  0  0  0  0  0  0  0
   37.9030   75.2760   58.0780 O   0  0  0  0  0  0  0  0  0  0  0  0
  1  2  1  0  0  0  0
  2  6  1  0  0  0  0
  3  2  2  0  0  0  0
  3  7  1  0  0  0  0
  4  3  1  0  0  0  0
  5  4  1  0  0  0  0
  5  1  2  0  0  0  0
  8  9  1  0  0  0  0
  8 14  1  0  0  0  0
  9 15  1  0  0  0  0
 10  1  1  0  0  0  0
 10  9  2  0  0  0  0
 11 12  2  0  0  0  0
 11 10  1  0  0  0  0
 12 13  1  0  0  0  0
 13  8  2  0  0  0  0
 16 12  1  0  0  0  0
 17  4  1  0  0  0  0
 17 18  1  0  0  0  0
 19 17  1  0  0  0  0
 20 17  1  0  0  0  0
 21 20  2  0  0  0  0
 22 21  1  0  0  0  0
 23 25  2  0  0  0  0
 23 21  1  0  0  0  0
 24 23  1  0  0  0  0
 25 27  1  0  0  0  0
 26 25  1  0  0  0  0
 27 20  1  0  0  0  0
M  END
>  <minimizedAffinity>
-4.55994606

$$$$
