
 OpenBabel03212520313D

 40 43  0  0  0  0  0  0  0  0999 V2000
   42.3460   82.1240   62.3620 C   0  0  0  0  0  0  0  0  0  0  0  0
   43.0150   81.0290   61.8340 C   0  0  0  0  0  0  0  0  0  0  0  0
   44.3570   80.8380   62.0680 C   0  0  0  0  0  0  0  0  0  0  0  0
   45.1240   81.7160   62.8370 C   0  0  0  0  0  0  0  0  0  0  0  0
   44.4850   82.8110   63.3730 C   0  0  0  0  0  0  0  0  0  0  0  0
   43.1330   83.0020   63.1360 C   0  0  0  0  0  0  0  0  0  0  0  0
   44.8980   79.9820   61.6600 H   0  0  0  0  0  0  0  0  0  0  0  0
   46.1680   81.5360   63.0000 H   0  0  0  0  0  0  0  0  0  0  0  0
   45.0280   83.5180   63.9730 H   0  0  0  0  0  0  0  0  0  0  0  0
   42.6430   83.8660   63.5630 H   0  0  0  0  0  0  0  0  0  0  0  0
   41.1580   78.0160   60.7740 C   0  0  0  0  0  0  0  0  0  0  0  0
   40.9840   78.2330   59.4220 C   0  0  0  0  0  0  0  0  0  0  0  0
   41.5130   79.4180   58.9000 C   0  0  0  0  0  0  0  0  0  0  0  0
   42.1620   80.2850   59.7370 N   0  0  0  0  0  0  0  0  0  0  0  0
   42.3070   80.0390   61.0290 C   0  0  0  0  0  0  0  0  0  0  0  0
   41.8020   78.9050   61.5360 N   0  0  0  0  0  0  0  0  0  0  0  0
   40.7480   77.1010   61.1720 H   0  0  0  0  0  0  0  0  0  0  0  0
   41.4170   79.6510   57.8660 H   0  0  0  0  0  0  0  0  0  0  0  0
   40.3010   77.3000   58.6020 N   0  0  0  0  0  0  0  0  0  0  0  0
   38.9940   77.5320   58.5000 C   0  0  0  0  0  0  0  0  0  0  0  0
   38.2290   76.6670   57.7140 C   0  0  0  0  0  0  0  0  0  0  0  0
   38.8450   75.6080   57.0730 C   0  0  0  0  0  0  0  0  0  0  0  0
   38.2310   74.7870   56.3490 O   0  0  0  0  0  0  0  0  0  0  0  0
   40.1930   75.4340   57.2250 N   0  0  0  0  0  0  0  0  0  0  0  0
   40.9380   76.2750   57.9900 C   0  0  0  0  0  0  0  0  0  0  0  0
   42.1610   76.1320   58.1390 O   0  0  0  0  0  0  0  0  0  0  0  0
   38.4710   78.3460   58.9830 H   0  0  0  0  0  0  0  0  0  0  0  0
   37.1720   76.8050   57.5950 H   0  0  0  0  0  0  0  0  0  0  0  0
   40.7480   74.6630   56.7810 H   0  0  0  0  0  0  0  0  0  0  0  0
   40.6630   82.4000   62.0810 S   0  0  0  0  0  0  0  0  0  0  0  0
   40.0570   83.1410   63.2450 O   0  0  0  0  0  0  0  0  0  0  0  0
   39.9850   81.0340   62.1080 O   0  0  0  0  0  0  0  0  0  0  0  0
   40.2570   83.2720   60.6510 C   0  0  0  0  0  0  0  0  0  0  0  0
   40.3050   83.2160   59.2550 C   0  0  0  0  0  0  0  0  0  0  0  0
   40.7700   82.2900   58.9230 H   0  0  0  0  0  0  0  0  0  0  0  0
   39.7470   84.3590   58.7240 C   0  0  0  0  0  0  0  0  0  0  0  0
   39.7200   84.4450   57.6470 H   0  0  0  0  0  0  0  0  0  0  0  0
   39.3740   85.0780   59.8300 C   0  0  0  0  0  0  0  0  0  0  0  0
   38.8910   86.0550   59.6710 H   0  0  0  0  0  0  0  0  0  0  0  0
   39.6740   84.4380   60.9320 O   0  0  0  0  0  0  0  0  0  0  0  0
  1  6  1  0  0  0  0
  2  3  1  0  0  0  0
  2  1  2  0  0  0  0
  3  4  2  0  0  0  0
  4  8  1  0  0  0  0
  4  5  1  0  0  0  0
  5  9  1  0  0  0  0
  6  5  2  0  0  0  0
  6 10  1  0  0  0  0
  7  3  1  0  0  0  0
 11 17  1  0  0  0  0
 11 16  1  0  0  0  0
 12 11  2  0  0  0  0
 13 12  1  0  0  0  0
 13 14  2  0  0  0  0
 14 15  1  0  0  0  0
 15 16  2  0  0  0  0
 15  2  1  0  0  0  0
 18 13  1  0  0  0  0
 19 12  1  0  0  0  0
 20 19  1  0  0  0  0
 20 27  1  0  0  0  0
 21 20  2  0  0  0  0
 22 24  1  0  0  0  0
 22 21  1  0  0  0  0
 23 22  2  0  0  0  0
 24 25  1  0  0  0  0
 25 26  2  0  0  0  0
 25 19  1  0  0  0  0
 28 21  1  0  0  0  0
 29 24  1  0  0  0  0
 30 32  2  0  0  0  0
 30  1  1  0  0  0  0
 30 31  2  0  0  0  0
 33 40  1  0  0  0  0
 33 30  1  0  0  0  0
 34 33  2  0  0  0  0
 35 34  1  0  0  0  0
 36 34  1  0  0  0  0
 36 38  2  0  0  0  0
 37 36  1  0  0  0  0
 38 40  1  0  0  0  0
 39 38  1  0  0  0  0
M  END
>  <minimizedAffinity>
-6.2199192

>  <minimizedRMSD>
2.9301455

$$$$
