
 OpenBabel03212520353D

 35 38  0  0  0  0  0  0  0  0999 V2000
   40.7850   82.6730   61.8760 C   0  0  0  0  0  0  0  0  0  0  0  0
   41.5170   82.8520   60.6840 C   0  0  0  0  0  0  0  0  0  0  0  0
   42.1120   81.7080   60.0360 C   0  0  0  0  0  0  0  0  0  0  0  0
   41.9200   80.5020   60.6370 N   0  0  0  0  0  0  0  0  0  0  0  0
   41.1910   80.3750   61.8040 C   0  0  0  0  0  0  0  0  0  0  0  0
   40.6360   81.4540   62.4060 N   0  0  0  0  0  0  0  0  0  0  0  0
   40.3860   83.4720   62.4370 H   0  0  0  0  0  0  0  0  0  0  0  0
   42.6830   81.6380   59.1440 H   0  0  0  0  0  0  0  0  0  0  0  0
   41.7880   84.0870   59.9770 C   0  0  0  0  0  0  0  0  0  0  0  0
   40.9660   84.2910   58.8450 C   0  0  0  0  0  0  0  0  0  0  0  0
   41.1000   85.3440   57.9950 C   0  0  0  0  0  0  0  0  0  0  0  0
   42.0890   86.2870   58.2240 C   0  0  0  0  0  0  0  0  0  0  0  0
   42.9060   86.1070   59.3280 C   0  0  0  0  0  0  0  0  0  0  0  0
   43.9150   86.9810   59.6490 C   0  0  0  0  0  0  0  0  0  0  0  0
   44.7170   86.7860   60.7600 C   0  0  0  0  0  0  0  0  0  0  0  0
   44.5380   85.7040   61.6050 C   0  0  0  0  0  0  0  0  0  0  0  0
   43.5230   84.8240   61.2840 C   0  0  0  0  0  0  0  0  0  0  0  0
   42.7610   85.0350   60.1890 C   0  0  0  0  0  0  0  0  0  0  0  0
   40.1560   83.6600   58.5070 H   0  0  0  0  0  0  0  0  0  0  0  0
   40.5090   85.5540   57.1200 H   0  0  0  0  0  0  0  0  0  0  0  0
   42.2880   87.1620   57.6130 H   0  0  0  0  0  0  0  0  0  0  0  0
   44.0370   87.8330   58.9670 H   0  0  0  0  0  0  0  0  0  0  0  0
   45.4730   87.5700   60.8730 H   0  0  0  0  0  0  0  0  0  0  0  0
   45.2070   85.6490   62.4320 H   0  0  0  0  0  0  0  0  0  0  0  0
   43.4540   84.0830   62.0440 H   0  0  0  0  0  0  0  0  0  0  0  0
   41.0030   79.0630   62.4280 C   0  0  0  0  0  0  0  0  0  0  0  0
   40.1410   78.8480   63.3040 O   0  0  0  0  0  0  0  0  0  0  0  0
   41.8710   77.9620   61.9970 C   0  0  0  0  0  0  0  0  0  0  0  0
   43.1140   77.7190   62.5920 C   0  0  0  0  0  0  0  0  0  0  0  0
   43.5890   78.2640   63.4000 H   0  0  0  0  0  0  0  0  0  0  0  0
   43.6380   76.6250   61.9420 C   0  0  0  0  0  0  0  0  0  0  0  0
   44.5950   76.1710   62.1580 H   0  0  0  0  0  0  0  0  0  0  0  0
   42.6990   76.2630   60.9950 C   0  0  0  0  0  0  0  0  0  0  0  0
   42.8880   75.4100   60.3450 H   0  0  0  0  0  0  0  0  0  0  0  0
   41.6880   77.0730   61.0680 O   0  0  0  0  0  0  0  0  0  0  0  0
  1  6  1  0  0  0  0
  1  7  1  0  0  0  0
  2  1  2  0  0  0  0
  3  4  2  0  0  0  0
  3  2  1  0  0  0  0
  4  5  1  0  0  0  0
  5  6  2  0  0  0  0
  5 26  1  0  0  0  0
  8  3  1  0  0  0  0
  9 18  1  0  0  0  0
  9  2  1  0  0  0  0
 10  9  2  0  0  0  0
 11 12  2  0  0  0  0
 11 10  1  0  0  0  0
 12 13  1  0  0  0  0
 13 14  2  0  0  0  0
 13 18  1  0  0  0  0
 14 15  1  0  0  0  0
 15 23  1  0  0  0  0
 15 16  2  0  0  0  0
 16 24  1  0  0  0  0
 17 16  1  0  0  0  0
 17 25  1  0  0  0  0
 18 17  2  0  0  0  0
 19 10  1  0  0  0  0
 20 11  1  0  0  0  0
 21 12  1  0  0  0  0
 22 14  1  0  0  0  0
 26 27  2  0  0  0  0
 28 26  1  0  0  0  0
 28 29  2  0  0  0  0
 29 30  1  0  0  0  0
 31 32  1  0  0  0  0
 31 29  1  0  0  0  0
 33 35  1  0  0  0  0
 33 31  2  0  0  0  0
 34 33  1  0  0  0  0
 35 28  1  0  0  0  0
M  END
>  <minimizedAffinity>
-5.57447004

>  <minimizedRMSD>
6.47009659

$$$$
