
 OpenBabel03212520263D

 27 29  0  0  0  0  0  0  0  0999 V2000
   42.9160   85.0020   61.0010 C   0  0  0  0  0  0  0  0  0  0  0  0
   44.0390   85.4230   61.6860 C   0  0  0  0  0  0  0  0  0  0  0  0
   44.8040   85.9780   60.6540 C   0  0  0  0  0  0  0  0  0  0  0  0
   44.1650   85.8790   59.4740 N   0  0  0  0  0  0  0  0  0  0  0  0
   42.9900   85.2730   59.6880 N   0  0  0  0  0  0  0  0  0  0  0  0
   44.2740   85.3510   62.7310 H   0  0  0  0  0  0  0  0  0  0  0  0
   45.7910   86.4330   60.7820 H   0  0  0  0  0  0  0  0  0  0  0  0
   40.7630   83.1390   63.4060 C   0  0  0  0  0  0  0  0  0  0  0  0
   41.8940   83.7540   62.8780 C   0  0  0  0  0  0  0  0  0  0  0  0
   41.7670   84.3340   61.6220 C   0  0  0  0  0  0  0  0  0  0  0  0
   40.5690   84.2850   60.9620 N   0  0  0  0  0  0  0  0  0  0  0  0
   39.5080   83.6660   61.5420 C   0  0  0  0  0  0  0  0  0  0  0  0
   39.5980   83.1000   62.7450 N   0  0  0  0  0  0  0  0  0  0  0  0
   40.7720   82.6640   64.3730 H   0  0  0  0  0  0  0  0  0  0  0  0
   42.8220   83.7740   63.4280 H   0  0  0  0  0  0  0  0  0  0  0  0
   38.6450   83.7180   60.8900 H   0  0  0  0  0  0  0  0  0  0  0  0
   44.6500   86.3450   58.1850 C   0  0  0  0  0  0  0  0  0  0  0  0
   45.7140   86.1040   58.0700 H   0  0  0  0  0  0  0  0  0  0  0  0
   44.0290   85.8450   57.4180 H   0  0  0  0  0  0  0  0  0  0  0  0
   44.4650   87.8240   58.1200 C   0  0  0  0  0  0  0  0  0  0  0  0
   45.4260   88.8100   58.0440 C   0  0  0  0  0  0  0  0  0  0  0  0
   46.4930   88.6020   58.0210 H   0  0  0  0  0  0  0  0  0  0  0  0
   44.7700   90.0190   58.0070 C   0  0  0  0  0  0  0  0  0  0  0  0
   45.2300   90.9990   57.9460 H   0  0  0  0  0  0  0  0  0  0  0  0
   43.4150   89.6860   58.0640 C   0  0  0  0  0  0  0  0  0  0  0  0
   42.6020   90.4200   58.0540 H   0  0  0  0  0  0  0  0  0  0  0  0
   43.2660   88.3830   58.1300 O   0  0  0  0  0  0  0  0  0  0  0  0
  1 10  1  0  0  0  0
  1  2  1  0  0  0  0
  2  6  1  0  0  0  0
  3  7  1  0  0  0  0
  3  2  2  0  0  0  0
  4  5  1  0  0  0  0
  4  3  1  0  0  0  0
  5  1  2  0  0  0  0
  8 14  1  0  0  0  0
  9  8  1  0  0  0  0
  9 15  1  0  0  0  0
 10  9  2  0  0  0  0
 11 12  2  0  0  0  0
 11 10  1  0  0  0  0
 12 13  1  0  0  0  0
 13  8  2  0  0  0  0
 16 12  1  0  0  0  0
 17  4  1  0  0  0  0
 18 17  1  0  0  0  0
 19 17  1  0  0  0  0
 20 27  1  0  0  0  0
 20 17  1  0  0  0  0
 21 20  2  0  0  0  0
 22 21  1  0  0  0  0
 23 21  1  0  0  0  0
 23 25  2  0  0  0  0
 24 23  1  0  0  0  0
 25 27  1  0  0  0  0
 26 25  1  0  0  0  0
M  END
>  <minimizedAffinity>
-4.53845119

>  <minimizedRMSD>
1.46117651

$$$$
