
 OpenBabel03212520353D

 35 38  0  0  0  0  0  0  0  0999 V2000
   40.1730   81.0720   58.5370 C   0  0  0  0  0  0  0  0  0  0  0  0
   39.9700   79.6770   58.5580 C   0  0  0  0  0  0  0  0  0  0  0  0
   40.0920   78.9580   59.8040 C   0  0  0  0  0  0  0  0  0  0  0  0
   40.4020   79.6980   60.9030 N   0  0  0  0  0  0  0  0  0  0  0  0
   40.5890   81.0660   60.8350 C   0  0  0  0  0  0  0  0  0  0  0  0
   40.4730   81.7330   59.6610 N   0  0  0  0  0  0  0  0  0  0  0  0
   40.1700   81.6460   57.6520 H   0  0  0  0  0  0  0  0  0  0  0  0
   39.9700   77.9270   60.0210 H   0  0  0  0  0  0  0  0  0  0  0  0
   39.6510   78.8020   57.4480 C   0  0  0  0  0  0  0  0  0  0  0  0
   40.3690   77.5840   57.4550 C   0  0  0  0  0  0  0  0  0  0  0  0
   40.2830   76.6510   56.4690 C   0  0  0  0  0  0  0  0  0  0  0  0
   39.4520   76.8780   55.3830 C   0  0  0  0  0  0  0  0  0  0  0  0
   38.7380   78.0640   55.3560 C   0  0  0  0  0  0  0  0  0  0  0  0
   37.8850   78.3900   54.3300 C   0  0  0  0  0  0  0  0  0  0  0  0
   37.1770   79.5780   54.3250 C   0  0  0  0  0  0  0  0  0  0  0  0
   37.2880   80.4960   55.3570 C   0  0  0  0  0  0  0  0  0  0  0  0
   38.1450   80.1700   56.3900 C   0  0  0  0  0  0  0  0  0  0  0  0
   38.8290   79.0060   56.3650 C   0  0  0  0  0  0  0  0  0  0  0  0
   41.0650   77.2430   58.2080 H   0  0  0  0  0  0  0  0  0  0  0  0
   40.8010   75.7100   56.4160 H   0  0  0  0  0  0  0  0  0  0  0  0
   39.3060   76.2080   54.5420 H   0  0  0  0  0  0  0  0  0  0  0  0
   37.8100   77.6470   53.5250 H   0  0  0  0  0  0  0  0  0  0  0  0
   36.5450   79.6850   53.4370 H   0  0  0  0  0  0  0  0  0  0  0  0
   36.6970   81.3770   55.2550 H   0  0  0  0  0  0  0  0  0  0  0  0
   38.0860   80.9240   57.1390 H   0  0  0  0  0  0  0  0  0  0  0  0
   40.9240   81.8350   62.0350 C   0  0  0  0  0  0  0  0  0  0  0  0
   40.0590   82.3370   62.7810 O   0  0  0  0  0  0  0  0  0  0  0  0
   42.3420   82.0150   62.3660 C   0  0  0  0  0  0  0  0  0  0  0  0
   42.8190   83.1780   62.9820 C   0  0  0  0  0  0  0  0  0  0  0  0
   42.2580   84.0540   63.2850 H   0  0  0  0  0  0  0  0  0  0  0  0
   44.1750   82.9960   63.1370 C   0  0  0  0  0  0  0  0  0  0  0  0
   44.8520   83.7100   63.5820 H   0  0  0  0  0  0  0  0  0  0  0  0
   44.4510   81.7480   62.6130 C   0  0  0  0  0  0  0  0  0  0  0  0
   45.4730   81.3720   62.6190 H   0  0  0  0  0  0  0  0  0  0  0  0
   43.3480   81.2180   62.1770 O   0  0  0  0  0  0  0  0  0  0  0  0
  1  2  2  0  0  0  0
  1  6  1  0  0  0  0
  2  3  1  0  0  0  0
  3  8  1  0  0  0  0
  3  4  2  0  0  0  0
  5  4  1  0  0  0  0
  5 26  1  0  0  0  0
  6  5  2  0  0  0  0
  7  1  1  0  0  0  0
  9 10  1  0  0  0  0
  9  2  1  0  0  0  0
 10 19  1  0  0  0  0
 11 10  2  0  0  0  0
 12 11  1  0  0  0  0
 13 12  2  0  0  0  0
 13 18  1  0  0  0  0
 14 13  1  0  0  0  0
 15 14  2  0  0  0  0
 15 16  1  0  0  0  0
 16 17  2  0  0  0  0
 17 25  1  0  0  0  0
 18 17  1  0  0  0  0
 18  9  2  0  0  0  0
 20 11  1  0  0  0  0
 21 12  1  0  0  0  0
 22 14  1  0  0  0  0
 23 15  1  0  0  0  0
 24 16  1  0  0  0  0
 26 28  1  0  0  0  0
 26 27  2  0  0  0  0
 28 29  2  0  0  0  0
 29 31  1  0  0  0  0
 29 30  1  0  0  0  0
 31 32  1  0  0  0  0
 33 34  1  0  0  0  0
 33 31  2  0  0  0  0
 35 28  1  0  0  0  0
 35 33  1  0  0  0  0
M  END
>  <minimizedAffinity>
-5.619771

>  <minimizedRMSD>
4.72552967

$$$$
