
 OpenBabel03212520133D

 30 32  0  0  0  0  0  0  0  0999 V2000
   43.0450   84.0220   58.6050 Cl  0  0  0  0  0  0  0  0  0  0  0  0
   41.8640   82.7910   58.2210 C   0  0  0  0  0  0  0  0  0  0  0  0
   41.0420   82.2310   59.1830 C   0  0  0  0  0  0  0  0  0  0  0  0
   40.1540   81.2700   58.7350 C   0  0  0  0  0  0  0  0  0  0  0  0
   40.0360   80.8440   57.4200 C   0  0  0  0  0  0  0  0  0  0  0  0
   40.8630   81.4250   56.5210 C   0  0  0  0  0  0  0  0  0  0  0  0
   40.7440   80.9290   54.8300 Cl  0  0  0  0  0  0  0  0  0  0  0  0
   41.7870   82.4060   56.9120 C   0  0  0  0  0  0  0  0  0  0  0  0
   39.5220   80.8430   59.4970 H   0  0  0  0  0  0  0  0  0  0  0  0
   39.3390   80.1000   57.1060 H   0  0  0  0  0  0  0  0  0  0  0  0
   41.9960   82.1820   61.5290 C   0  0  0  0  0  0  0  0  0  0  0  0
   41.1500   82.6600   60.5350 C   0  0  0  0  0  0  0  0  0  0  0  0
   40.2740   83.7120   60.8940 C   0  0  0  0  0  0  0  0  0  0  0  0
   40.3150   84.1810   62.1660 N   0  0  0  0  0  0  0  0  0  0  0  0
   41.1530   83.6880   63.0940 C   0  0  0  0  0  0  0  0  0  0  0  0
   41.9810   82.6980   62.7680 N   0  0  0  0  0  0  0  0  0  0  0  0
   42.6370   81.3890   61.2100 H   0  0  0  0  0  0  0  0  0  0  0  0
   39.5800   84.1490   60.1920 H   0  0  0  0  0  0  0  0  0  0  0  0
   41.0680   84.3160   64.4410 C   0  0  0  0  0  0  0  0  0  0  0  0
   40.7020   85.6470   64.3650 F   0  0  0  0  0  0  0  0  0  0  0  0
   40.0980   83.6710   65.1940 F   0  0  0  0  0  0  0  0  0  0  0  0
   42.2930   84.2940   65.0860 F   0  0  0  0  0  0  0  0  0  0  0  0
   42.5920   82.9140   55.8050 C   0  0  0  0  0  0  0  0  0  0  0  0
   42.4390   84.0280   55.0220 C   0  0  0  0  0  0  0  0  0  0  0  0
   41.6880   84.7920   55.0350 H   0  0  0  0  0  0  0  0  0  0  0  0
   43.4210   84.1550   54.0760 C   0  0  0  0  0  0  0  0  0  0  0  0
   43.6100   84.8890   53.3120 H   0  0  0  0  0  0  0  0  0  0  0  0
   44.1950   83.0480   54.3270 C   0  0  0  0  0  0  0  0  0  0  0  0
   45.1140   82.6880   53.8380 H   0  0  0  0  0  0  0  0  0  0  0  0
   43.6690   82.4080   55.3020 O   0  0  0  0  0  0  0  0  0  0  0  0
  2  1  1  0  0  0  0
  2  3  1  0  0  0  0
  3 12  1  0  0  0  0
  4  3  2  0  0  0  0
  4  9  1  0  0  0  0
  5  4  1  0  0  0  0
  6  8  1  0  0  0  0
  6  5  2  0  0  0  0
  7  6  1  0  0  0  0
  8  2  2  0  0  0  0
 10  5  1  0  0  0  0
 11 16  1  0  0  0  0
 12 13  1  0  0  0  0
 12 11  2  0  0  0  0
 13 14  2  0  0  0  0
 14 15  1  0  0  0  0
 15 19  1  0  0  0  0
 16 15  2  0  0  0  0
 17 11  1  0  0  0  0
 18 13  1  0  0  0  0
 19 22  1  0  0  0  0
 19 21  1  0  0  0  0
 20 19  1  0  0  0  0
 23  8  1  0  0  0  0
 24 25  1  0  0  0  0
 24 23  2  0  0  0  0
 26 28  2  0  0  0  0
 26 24  1  0  0  0  0
 27 26  1  0  0  0  0
 28 30  1  0  0  0  0
 29 28  1  0  0  0  0
 30 23  1  0  0  0  0
M  END
>  <minimizedAffinity>
-5.22610569

>  <minimizedRMSD>
0.968757391

$$$$
