
 OpenBabel03212520363D

 35 38  0  0  0  0  0  0  0  0999 V2000
   41.4960   71.1410   60.2190 C   0  0  0  0  0  0  0  0  0  0  0  0
   41.1700   72.1660   61.1320 C   0  0  0  0  0  0  0  0  0  0  0  0
   41.2770   71.9150   62.5500 C   0  0  0  0  0  0  0  0  0  0  0  0
   41.6960   70.6740   62.9170 N   0  0  0  0  0  0  0  0  0  0  0  0
   42.0080   69.7020   61.9860 C   0  0  0  0  0  0  0  0  0  0  0  0
   41.9050   69.9450   60.6570 N   0  0  0  0  0  0  0  0  0  0  0  0
   41.3720   71.2340   59.1760 H   0  0  0  0  0  0  0  0  0  0  0  0
   41.0880   72.5500   63.3800 H   0  0  0  0  0  0  0  0  0  0  0  0
   40.7040   73.5070   60.8440 C   0  0  0  0  0  0  0  0  0  0  0  0
   39.3830   73.7600   61.2810 C   0  0  0  0  0  0  0  0  0  0  0  0
   38.7210   74.9240   61.0470 C   0  0  0  0  0  0  0  0  0  0  0  0
   39.3500   75.9400   60.3440 C   0  0  0  0  0  0  0  0  0  0  0  0
   40.6450   75.7140   59.9080 C   0  0  0  0  0  0  0  0  0  0  0  0
   41.3610   76.6510   59.2050 C   0  0  0  0  0  0  0  0  0  0  0  0
   42.6560   76.4080   58.7830 C   0  0  0  0  0  0  0  0  0  0  0  0
   43.2950   75.2090   59.0520 C   0  0  0  0  0  0  0  0  0  0  0  0
   42.5770   74.2650   59.7600 C   0  0  0  0  0  0  0  0  0  0  0  0
   41.3120   74.5280   60.1530 C   0  0  0  0  0  0  0  0  0  0  0  0
   38.7390   73.0880   61.8300 H   0  0  0  0  0  0  0  0  0  0  0  0
   37.7200   75.1770   61.3500 H   0  0  0  0  0  0  0  0  0  0  0  0
   38.9200   76.9060   60.0990 H   0  0  0  0  0  0  0  0  0  0  0  0
   40.8360   77.5940   59.0050 H   0  0  0  0  0  0  0  0  0  0  0  0
   43.0840   77.2540   58.2350 H   0  0  0  0  0  0  0  0  0  0  0  0
   44.2920   75.1260   58.6840 H   0  0  0  0  0  0  0  0  0  0  0  0
   43.2040   73.4270   59.9520 H   0  0  0  0  0  0  0  0  0  0  0  0
   42.4550   68.3750   62.4120 C   0  0  0  0  0  0  0  0  0  0  0  0
   43.6580   68.0420   62.4400 O   0  0  0  0  0  0  0  0  0  0  0  0
   41.4370   67.4020   62.8220 C   0  0  0  0  0  0  0  0  0  0  0  0
   41.5120   66.0520   62.4610 C   0  0  0  0  0  0  0  0  0  0  0  0
   42.2740   65.5560   61.8700 H   0  0  0  0  0  0  0  0  0  0  0  0
   40.4040   65.4490   63.0140 C   0  0  0  0  0  0  0  0  0  0  0  0
   40.1560   64.4020   62.9260 H   0  0  0  0  0  0  0  0  0  0  0  0
   39.7200   66.4510   63.6750 C   0  0  0  0  0  0  0  0  0  0  0  0
   38.7950   66.2190   64.1990 H   0  0  0  0  0  0  0  0  0  0  0  0
   40.3640   67.5700   63.5330 O   0  0  0  0  0  0  0  0  0  0  0  0
  1  6  2  0  0  0  0
  1  2  1  0  0  0  0
  2  3  2  0  0  0  0
  3  4  1  0  0  0  0
  3  8  1  0  0  0  0
  5 26  1  0  0  0  0
  5  4  2  0  0  0  0
  6  5  1  0  0  0  0
  7  1  1  0  0  0  0
  9  2  1  0  0  0  0
  9 10  1  0  0  0  0
 10 19  1  0  0  0  0
 11 10  2  0  0  0  0
 11 20  1  0  0  0  0
 12 11  1  0  0  0  0
 13 18  1  0  0  0  0
 13 12  2  0  0  0  0
 14 13  1  0  0  0  0
 15 16  1  0  0  0  0
 15 14  2  0  0  0  0
 16 17  2  0  0  0  0
 17 25  1  0  0  0  0
 17 18  1  0  0  0  0
 18  9  2  0  0  0  0
 21 12  1  0  0  0  0
 22 14  1  0  0  0  0
 23 15  1  0  0  0  0
 24 16  1  0  0  0  0
 26 27  2  0  0  0  0
 26 28  1  0  0  0  0
 28 35  1  0  0  0  0
 29 28  2  0  0  0  0
 29 31  1  0  0  0  0
 30 29  1  0  0  0  0
 31 33  2  0  0  0  0
 32 31  1  0  0  0  0
 33 34  1  0  0  0  0
 35 33  1  0  0  0  0
M  END
>  <minimizedAffinity>
-6.92086506

$$$$

 OpenBabel03212520363D

 35 38  0  0  0  0  0  0  0  0999 V2000
   41.9690   70.9600   60.2290 C   0  0  0  0  0  0  0  0  0  0  0  0
   42.2550   72.2120   60.8130 C   0  0  0  0  0  0  0  0  0  0  0  0
   42.5920   72.2830   62.2140 C   0  0  0  0  0  0  0  0  0  0  0  0
   42.6120   71.1050   62.8950 N   0  0  0  0  0  0  0  0  0  0  0  0
   42.3280   69.9010   62.2790 C   0  0  0  0  0  0  0  0  0  0  0  0
   42.0120   69.8420   60.9630 N   0  0  0  0  0  0  0  0  0  0  0  0
   41.6470   70.8450   59.2320 H   0  0  0  0  0  0  0  0  0  0  0  0
   42.8430   73.1160   62.8230 H   0  0  0  0  0  0  0  0  0  0  0  0
   42.2480   73.5160   60.1820 C   0  0  0  0  0  0  0  0  0  0  0  0
   43.4420   73.8230   59.4890 C   0  0  0  0  0  0  0  0  0  0  0  0
   43.6800   75.0200   58.8900 C   0  0  0  0  0  0  0  0  0  0  0  0
   42.7180   76.0170   58.9440 C   0  0  0  0  0  0  0  0  0  0  0  0
   41.5400   75.7370   59.6170 C   0  0  0  0  0  0  0  0  0  0  0  0
   40.5200   76.6490   59.7300 C   0  0  0  0  0  0  0  0  0  0  0  0
   39.3490   76.3480   60.4020 C   0  0  0  0  0  0  0  0  0  0  0  0
   39.1450   75.1100   60.9890 C   0  0  0  0  0  0  0  0  0  0  0  0
   40.1690   74.1910   60.8760 C   0  0  0  0  0  0  0  0  0  0  0  0
   41.3040   74.5150   60.2210 C   0  0  0  0  0  0  0  0  0  0  0  0
   44.2990   73.1790   59.3530 H   0  0  0  0  0  0  0  0  0  0  0  0
   44.5640   75.3150   58.3510 H   0  0  0  0  0  0  0  0  0  0  0  0
   42.8010   77.0060   58.5060 H   0  0  0  0  0  0  0  0  0  0  0  0
   40.7020   77.6220   59.2550 H   0  0  0  0  0  0  0  0  0  0  0  0
   38.6400   77.1830   60.4030 H   0  0  0  0  0  0  0  0  0  0  0  0
   38.2070   74.9820   61.4800 H   0  0  0  0  0  0  0  0  0  0  0  0
   39.8580   73.2710   61.3100 H   0  0  0  0  0  0  0  0  0  0  0  0
   42.3560   68.6490   63.0390 C   0  0  0  0  0  0  0  0  0  0  0  0
   43.3580   68.2650   63.6750 O   0  0  0  0  0  0  0  0  0  0  0  0
   41.1460   67.8190   63.0460 C   0  0  0  0  0  0  0  0  0  0  0  0
   41.0540   66.6350   62.3060 C   0  0  0  0  0  0  0  0  0  0  0  0
   41.8030   66.1830   61.6660 H   0  0  0  0  0  0  0  0  0  0  0  0
   39.7960   66.1310   62.5520 C   0  0  0  0  0  0  0  0  0  0  0  0
   39.3980   65.2190   62.1320 H   0  0  0  0  0  0  0  0  0  0  0  0
   39.1940   67.0240   63.4160 C   0  0  0  0  0  0  0  0  0  0  0  0
   38.1780   66.8420   63.7620 H   0  0  0  0  0  0  0  0  0  0  0  0
   40.0230   67.9910   63.6740 O   0  0  0  0  0  0  0  0  0  0  0  0
  1  2  2  0  0  0  0
  1  6  1  0  0  0  0
  2  3  1  0  0  0  0
  3  8  1  0  0  0  0
  3  4  2  0  0  0  0
  5  4  1  0  0  0  0
  5 26  1  0  0  0  0
  6  5  2  0  0  0  0
  7  1  1  0  0  0  0
  9 18  1  0  0  0  0
  9  2  1  0  0  0  0
 10  9  2  0  0  0  0
 11 12  2  0  0  0  0
 11 10  1  0  0  0  0
 12 13  1  0  0  0  0
 13 14  2  0  0  0  0
 13 18  1  0  0  0  0
 14 15  1  0  0  0  0
 15 23  1  0  0  0  0
 15 16  2  0  0  0  0
 16 24  1  0  0  0  0
 17 16  1  0  0  0  0
 17 25  1  0  0  0  0
 18 17  2  0  0  0  0
 19 10  1  0  0  0  0
 20 11  1  0  0  0  0
 21 12  1  0  0  0  0
 22 14  1  0  0  0  0
 26 28  1  0  0  0  0
 26 27  2  0  0  0  0
 28 35  1  0  0  0  0
 29 31  1  0  0  0  0
 29 28  2  0  0  0  0
 30 29  1  0  0  0  0
 31 33  2  0  0  0  0
 32 31  1  0  0  0  0
 33 35  1  0  0  0  0
 33 34  1  0  0  0  0
M  END
>  <minimizedAffinity>
-6.73792553

$$$$

 OpenBabel03212520363D

 35 38  0  0  0  0  0  0  0  0999 V2000
   41.3700   71.7500   59.7130 C   0  0  0  0  0  0  0  0  0  0  0  0
   40.7770   72.8530   60.3620 C   0  0  0  0  0  0  0  0  0  0  0  0
   40.6640   72.8560   61.8010 C   0  0  0  0  0  0  0  0  0  0  0  0
   41.1530   71.7650   62.4500 N   0  0  0  0  0  0  0  0  0  0  0  0
   41.7300   70.7080   61.7720 C   0  0  0  0  0  0  0  0  0  0  0  0
   41.8310   70.7120   60.4210 N   0  0  0  0  0  0  0  0  0  0  0  0
   41.4180   71.6510   58.6650 H   0  0  0  0  0  0  0  0  0  0  0  0
   40.2640   73.5850   62.4610 H   0  0  0  0  0  0  0  0  0  0  0  0
   40.2170   74.0480   59.7640 C   0  0  0  0  0  0  0  0  0  0  0  0
   40.7020   75.2510   60.3280 C   0  0  0  0  0  0  0  0  0  0  0  0
   40.2570   76.4850   59.9710 C   0  0  0  0  0  0  0  0  0  0  0  0
   39.2720   76.6040   59.0030 C   0  0  0  0  0  0  0  0  0  0  0  0
   38.7840   75.4380   58.4360 C   0  0  0  0  0  0  0  0  0  0  0  0
   37.8100   75.4400   57.4680 C   0  0  0  0  0  0  0  0  0  0  0  0
   37.3390   74.2650   56.9100 C   0  0  0  0  0  0  0  0  0  0  0  0
   37.8300   73.0290   57.2980 C   0  0  0  0  0  0  0  0  0  0  0  0
   38.8090   73.0250   58.2710 C   0  0  0  0  0  0  0  0  0  0  0  0
   39.2450   74.1870   58.8020 C   0  0  0  0  0  0  0  0  0  0  0  0
   41.4560   75.3520   61.0950 H   0  0  0  0  0  0  0  0  0  0  0  0
   40.5830   77.4330   60.3620 H   0  0  0  0  0  0  0  0  0  0  0  0
   38.8420   77.5330   58.6430 H   0  0  0  0  0  0  0  0  0  0  0  0
   37.4380   76.4310   57.1750 H   0  0  0  0  0  0  0  0  0  0  0  0
   36.5640   74.4410   56.1560 H   0  0  0  0  0  0  0  0  0  0  0  0
   37.4000   72.1880   56.8040 H   0  0  0  0  0  0  0  0  0  0  0  0
   39.1390   72.0250   58.4240 H   0  0  0  0  0  0  0  0  0  0  0  0
   42.2460   69.5460   62.4990 C   0  0  0  0  0  0  0  0  0  0  0  0
   43.4180   69.4770   62.9210 O   0  0  0  0  0  0  0  0  0  0  0  0
   41.3350   68.4210   62.7370 C   0  0  0  0  0  0  0  0  0  0  0  0
   41.3090   67.2980   61.9030 C   0  0  0  0  0  0  0  0  0  0  0  0
   41.9090   67.1020   61.0220 H   0  0  0  0  0  0  0  0  0  0  0  0
   40.3480   66.4610   62.4250 C   0  0  0  0  0  0  0  0  0  0  0  0
   40.0730   65.4990   62.0170 H   0  0  0  0  0  0  0  0  0  0  0  0
   39.8450   67.1090   63.5360 C   0  0  0  0  0  0  0  0  0  0  0  0
   39.0610   66.6400   64.1270 H   0  0  0  0  0  0  0  0  0  0  0  0
   40.4540   68.2480   63.6750 O   0  0  0  0  0  0  0  0  0  0  0  0
  1  2  2  0  0  0  0
  1  6  1  0  0  0  0
  2  3  1  0  0  0  0
  3  4  2  0  0  0  0
  3  8  1  0  0  0  0
  5  4  1  0  0  0  0
  5 26  1  0  0  0  0
  6  5  2  0  0  0  0
  7  1  1  0  0  0  0
  9 10  1  0  0  0  0
  9  2  1  0  0  0  0
 10 19  1  0  0  0  0
 11 10  2  0  0  0  0
 11 20  1  0  0  0  0
 12 11  1  0  0  0  0
 13 18  1  0  0  0  0
 13 12  2  0  0  0  0
 14 13  1  0  0  0  0
 15 16  1  0  0  0  0
 15 14  2  0  0  0  0
 16 17  2  0  0  0  0
 17 25  1  0  0  0  0
 17 18  1  0  0  0  0
 18  9  2  0  0  0  0
 21 12  1  0  0  0  0
 22 14  1  0  0  0  0
 23 15  1  0  0  0  0
 24 16  1  0  0  0  0
 26 28  1  0  0  0  0
 26 27  2  0  0  0  0
 28 35  1  0  0  0  0
 29 31  1  0  0  0  0
 29 28  2  0  0  0  0
 30 29  1  0  0  0  0
 31 33  2  0  0  0  0
 32 31  1  0  0  0  0
 33 35  1  0  0  0  0
 33 34  1  0  0  0  0
M  END
>  <minimizedAffinity>
-6.49306536

$$$$

 OpenBabel03212520363D

 35 38  0  0  0  0  0  0  0  0999 V2000
   41.3750   71.7530   59.5410 C   0  0  0  0  0  0  0  0  0  0  0  0
   42.1440   71.3470   60.6530 C   0  0  0  0  0  0  0  0  0  0  0  0
   43.1790   72.2170   61.1580 C   0  0  0  0  0  0  0  0  0  0  0  0
   43.3470   73.4010   60.5090 N   0  0  0  0  0  0  0  0  0  0  0  0
   42.5660   73.7580   59.4260 C   0  0  0  0  0  0  0  0  0  0  0  0
   41.5970   72.9360   58.9580 N   0  0  0  0  0  0  0  0  0  0  0  0
   40.6550   71.1370   59.0790 H   0  0  0  0  0  0  0  0  0  0  0  0
   43.8470   72.0950   61.9740 H   0  0  0  0  0  0  0  0  0  0  0  0
   42.0540   70.1080   61.3990 C   0  0  0  0  0  0  0  0  0  0  0  0
   42.2320   70.2670   62.7930 C   0  0  0  0  0  0  0  0  0  0  0  0
   42.2630   69.2300   63.6720 C   0  0  0  0  0  0  0  0  0  0  0  0
   42.1130   67.9320   63.2060 C   0  0  0  0  0  0  0  0  0  0  0  0
   41.9360   67.7550   61.8440 C   0  0  0  0  0  0  0  0  0  0  0  0
   41.7760   66.5150   61.2760 C   0  0  0  0  0  0  0  0  0  0  0  0
   41.5940   66.3590   59.9140 C   0  0  0  0  0  0  0  0  0  0  0  0
   41.5600   67.4460   59.0560 C   0  0  0  0  0  0  0  0  0  0  0  0
   41.7200   68.6940   59.6250 C   0  0  0  0  0  0  0  0  0  0  0  0
   41.9020   68.8150   60.9570 C   0  0  0  0  0  0  0  0  0  0  0  0
   42.3730   71.1940   63.3300 H   0  0  0  0  0  0  0  0  0  0  0  0
   42.3950   69.2840   64.7390 H   0  0  0  0  0  0  0  0  0  0  0  0
   42.1230   67.0330   63.8140 H   0  0  0  0  0  0  0  0  0  0  0  0
   41.8040   65.6680   61.9750 H   0  0  0  0  0  0  0  0  0  0  0  0
   41.4850   65.3090   59.6230 H   0  0  0  0  0  0  0  0  0  0  0  0
   41.4130   67.2150   58.0260 H   0  0  0  0  0  0  0  0  0  0  0  0
   41.6080   69.4350   58.8700 H   0  0  0  0  0  0  0  0  0  0  0  0
   42.7710   75.0400   58.7470 C   0  0  0  0  0  0  0  0  0  0  0  0
   43.4500   75.1530   57.7070 O   0  0  0  0  0  0  0  0  0  0  0  0
   42.1450   76.2350   59.3240 C   0  0  0  0  0  0  0  0  0  0  0  0
   40.7870   76.2730   59.6580 C   0  0  0  0  0  0  0  0  0  0  0  0
   40.0470   75.4890   59.5510 H   0  0  0  0  0  0  0  0  0  0  0  0
   40.5570   77.5330   60.1650 C   0  0  0  0  0  0  0  0  0  0  0  0
   39.6040   77.8970   60.5200 H   0  0  0  0  0  0  0  0  0  0  0  0
   41.7720   78.1880   60.1130 C   0  0  0  0  0  0  0  0  0  0  0  0
   41.8470   79.2160   60.4640 H   0  0  0  0  0  0  0  0  0  0  0  0
   42.6660   77.3880   59.6150 O   0  0  0  0  0  0  0  0  0  0  0  0
  1  2  1  0  0  0  0
  2  3  2  0  0  0  0
  2  9  1  0  0  0  0
  3  8  1  0  0  0  0
  4  3  1  0  0  0  0
  5  4  2  0  0  0  0
  6  5  1  0  0  0  0
  6  1  2  0  0  0  0
  7  1  1  0  0  0  0
  9 10  1  0  0  0  0
 10 19  1  0  0  0  0
 10 11  2  0  0  0  0
 11 20  1  0  0  0  0
 12 11  1  0  0  0  0
 12 21  1  0  0  0  0
 13 12  2  0  0  0  0
 14 13  1  0  0  0  0
 14 22  1  0  0  0  0
 15 14  2  0  0  0  0
 16 17  2  0  0  0  0
 16 15  1  0  0  0  0
 17 18  1  0  0  0  0
 18  9  2  0  0  0  0
 18 13  1  0  0  0  0
 23 15  1  0  0  0  0
 24 16  1  0  0  0  0
 25 17  1  0  0  0  0
 26 28  1  0  0  0  0
 26  5  1  0  0  0  0
 27 26  2  0  0  0  0
 28 35  1  0  0  0  0
 28 29  2  0  0  0  0
 29 31  1  0  0  0  0
 30 29  1  0  0  0  0
 31 32  1  0  0  0  0
 33 31  2  0  0  0  0
 33 34  1  0  0  0  0
 35 33  1  0  0  0  0
M  END
>  <minimizedAffinity>
-6.21283531

$$$$

 OpenBabel03212520363D

 35 38  0  0  0  0  0  0  0  0999 V2000
   42.2410   71.7330   62.5500 C   0  0  0  0  0  0  0  0  0  0  0  0
   42.1180   71.9860   61.1680 C   0  0  0  0  0  0  0  0  0  0  0  0
   41.9420   70.8820   60.2550 C   0  0  0  0  0  0  0  0  0  0  0  0
   41.9040   69.6390   60.8060 N   0  0  0  0  0  0  0  0  0  0  0  0
   42.0250   69.4390   62.1680 C   0  0  0  0  0  0  0  0  0  0  0  0
   42.1900   70.4800   63.0180 N   0  0  0  0  0  0  0  0  0  0  0  0
   42.4430   72.4840   63.2610 H   0  0  0  0  0  0  0  0  0  0  0  0
   41.8250   70.8700   59.2000 H   0  0  0  0  0  0  0  0  0  0  0  0
   42.1590   73.2630   60.4850 C   0  0  0  0  0  0  0  0  0  0  0  0
   43.3930   73.5330   59.8480 C   0  0  0  0  0  0  0  0  0  0  0  0
   43.6760   74.7020   59.2150 C   0  0  0  0  0  0  0  0  0  0  0  0
   42.7210   75.7070   59.1740 C   0  0  0  0  0  0  0  0  0  0  0  0
   41.5050   75.4640   59.7900 C   0  0  0  0  0  0  0  0  0  0  0  0
   40.4890   76.3870   59.8090 C   0  0  0  0  0  0  0  0  0  0  0  0
   39.2790   76.1230   60.4250 C   0  0  0  0  0  0  0  0  0  0  0  0
   39.0310   74.9120   61.0500 C   0  0  0  0  0  0  0  0  0  0  0  0
   40.0510   73.9810   61.0320 C   0  0  0  0  0  0  0  0  0  0  0  0
   41.2240   74.2700   60.4290 C   0  0  0  0  0  0  0  0  0  0  0  0
   44.2500   72.8780   59.7870 H   0  0  0  0  0  0  0  0  0  0  0  0
   44.5910   74.9680   58.7150 H   0  0  0  0  0  0  0  0  0  0  0  0
   42.8380   76.6760   58.7010 H   0  0  0  0  0  0  0  0  0  0  0  0
   40.7070   77.3390   59.3050 H   0  0  0  0  0  0  0  0  0  0  0  0
   38.5790   76.9620   60.3510 H   0  0  0  0  0  0  0  0  0  0  0  0
   38.0660   74.8100   61.4910 H   0  0  0  0  0  0  0  0  0  0  0  0
   39.7070   73.0820   61.4850 H   0  0  0  0  0  0  0  0  0  0  0  0
   41.9820   68.0880   62.7320 C   0  0  0  0  0  0  0  0  0  0  0  0
   40.9780   67.6290   63.3120 O   0  0  0  0  0  0  0  0  0  0  0  0
   43.1770   67.2470   62.6020 C   0  0  0  0  0  0  0  0  0  0  0  0
   43.1050   65.9170   62.1750 C   0  0  0  0  0  0  0  0  0  0  0  0
   42.2250   65.3480   61.8960 H   0  0  0  0  0  0  0  0  0  0  0  0
   44.4000   65.4490   62.1730 C   0  0  0  0  0  0  0  0  0  0  0  0
   44.7010   64.4490   61.8920 H   0  0  0  0  0  0  0  0  0  0  0  0
   45.1840   66.5050   62.5940 C   0  0  0  0  0  0  0  0  0  0  0  0
   46.2620   66.3800   62.6770 H   0  0  0  0  0  0  0  0  0  0  0  0
   44.4230   67.5310   62.8320 O   0  0  0  0  0  0  0  0  0  0  0  0
  1  6  1  0  0  0  0
  1  7  1  0  0  0  0
  2  1  2  0  0  0  0
  3  4  2  0  0  0  0
  3  2  1  0  0  0  0
  4  5  1  0  0  0  0
  5 26  1  0  0  0  0
  5  6  2  0  0  0  0
  8  3  1  0  0  0  0
  9  2  1  0  0  0  0
 10  9  2  0  0  0  0
 11 10  1  0  0  0  0
 12 11  2  0  0  0  0
 12 13  1  0  0  0  0
 13 14  2  0  0  0  0
 13 18  1  0  0  0  0
 14 15  1  0  0  0  0
 15 16  2  0  0  0  0
 16 24  1  0  0  0  0
 17 16  1  0  0  0  0
 17 25  1  0  0  0  0
 18  9  1  0  0  0  0
 18 17  2  0  0  0  0
 19 10  1  0  0  0  0
 20 11  1  0  0  0  0
 21 12  1  0  0  0  0
 22 14  1  0  0  0  0
 23 15  1  0  0  0  0
 26 27  2  0  0  0  0
 28 26  1  0  0  0  0
 28 35  1  0  0  0  0
 29 28  2  0  0  0  0
 30 29  1  0  0  0  0
 31 29  1  0  0  0  0
 31 33  2  0  0  0  0
 32 31  1  0  0  0  0
 33 34  1  0  0  0  0
 33 35  1  0  0  0  0
M  END
>  <minimizedAffinity>
-6.19550085

$$$$

 OpenBabel03212520363D

 35 38  0  0  0  0  0  0  0  0999 V2000
   41.6210   71.1060   60.1470 C   0  0  0  0  0  0  0  0  0  0  0  0
   41.4180   72.1460   61.0780 C   0  0  0  0  0  0  0  0  0  0  0  0
   41.8510   71.9720   62.4450 C   0  0  0  0  0  0  0  0  0  0  0  0
   42.4420   70.7850   62.7480 N   0  0  0  0  0  0  0  0  0  0  0  0
   42.6230   69.7950   61.8000 C   0  0  0  0  0  0  0  0  0  0  0  0
   42.2140   69.9660   60.5200 N   0  0  0  0  0  0  0  0  0  0  0  0
   41.2660   71.1390   59.1550 H   0  0  0  0  0  0  0  0  0  0  0  0
   41.7950   72.6300   63.2760 H   0  0  0  0  0  0  0  0  0  0  0  0
   40.7910   73.4330   60.8600 C   0  0  0  0  0  0  0  0  0  0  0  0
   39.4550   73.5040   61.3190 C   0  0  0  0  0  0  0  0  0  0  0  0
   38.6550   74.5910   61.1480 C   0  0  0  0  0  0  0  0  0  0  0  0
   39.1480   75.7070   60.4900 C   0  0  0  0  0  0  0  0  0  0  0  0
   40.4550   75.6590   60.0330 C   0  0  0  0  0  0  0  0  0  0  0  0
   41.0440   76.7080   59.3700 C   0  0  0  0  0  0  0  0  0  0  0  0
   42.3520   76.6430   58.9270 C   0  0  0  0  0  0  0  0  0  0  0  0
   43.1340   75.5180   59.1320 C   0  0  0  0  0  0  0  0  0  0  0  0
   42.5440   74.4620   59.7990 C   0  0  0  0  0  0  0  0  0  0  0  0
   41.2630   74.5520   60.2140 C   0  0  0  0  0  0  0  0  0  0  0  0
   38.9040   72.7340   61.8400 H   0  0  0  0  0  0  0  0  0  0  0  0
   37.6360   74.7060   61.4710 H   0  0  0  0  0  0  0  0  0  0  0  0
   38.6010   76.6240   60.2960 H   0  0  0  0  0  0  0  0  0  0  0  0
   40.4060   77.5900   59.2210 H   0  0  0  0  0  0  0  0  0  0  0  0
   42.6680   77.5590   58.4170 H   0  0  0  0  0  0  0  0  0  0  0  0
   44.1290   75.5730   58.7520 H   0  0  0  0  0  0  0  0  0  0  0  0
   43.2690   73.6970   59.9450 H   0  0  0  0  0  0  0  0  0  0  0  0
   43.2610   68.5260   62.1570 C   0  0  0  0  0  0  0  0  0  0  0  0
   43.6610   68.2710   63.3110 O   0  0  0  0  0  0  0  0  0  0  0  0
   43.4310   67.5190   61.1040 C   0  0  0  0  0  0  0  0  0  0  0  0
   42.6060   66.3920   61.0150 C   0  0  0  0  0  0  0  0  0  0  0  0
   41.7800   66.1130   61.6580 H   0  0  0  0  0  0  0  0  0  0  0  0
   43.0520   65.6810   59.9230 C   0  0  0  0  0  0  0  0  0  0  0  0
   42.6300   64.7510   59.5710 H   0  0  0  0  0  0  0  0  0  0  0  0
   44.1130   66.4020   59.4110 C   0  0  0  0  0  0  0  0  0  0  0  0
   44.6400   66.0370   58.5310 H   0  0  0  0  0  0  0  0  0  0  0  0
   44.2940   67.4650   60.1350 O   0  0  0  0  0  0  0  0  0  0  0  0
  1  6  2  0  0  0  0
  1  2  1  0  0  0  0
  2  3  2  0  0  0  0
  3  4  1  0  0  0  0
  3  8  1  0  0  0  0
  5 26  1  0  0  0  0
  5  4  2  0  0  0  0
  6  5  1  0  0  0  0
  7  1  1  0  0  0  0
  9  2  1  0  0  0  0
  9 10  1  0  0  0  0
 10 19  1  0  0  0  0
 11 10  2  0  0  0  0
 11 20  1  0  0  0  0
 12 11  1  0  0  0  0
 13 18  1  0  0  0  0
 13 12  2  0  0  0  0
 14 13  1  0  0  0  0
 15 16  1  0  0  0  0
 15 14  2  0  0  0  0
 16 17  2  0  0  0  0
 17 25  1  0  0  0  0
 17 18  1  0  0  0  0
 18  9  2  0  0  0  0
 21 12  1  0  0  0  0
 22 14  1  0  0  0  0
 23 15  1  0  0  0  0
 24 16  1  0  0  0  0
 26 27  2  0  0  0  0
 28 26  1  0  0  0  0
 29 28  2  0  0  0  0
 29 30  1  0  0  0  0
 31 29  1  0  0  0  0
 32 31  1  0  0  0  0
 33 31  2  0  0  0  0
 33 35  1  0  0  0  0
 34 33  1  0  0  0  0
 35 28  1  0  0  0  0
M  END
>  <minimizedAffinity>
-6.11510468

$$$$

 OpenBabel03212520363D

 35 38  0  0  0  0  0  0  0  0999 V2000
   42.0990   73.2600   60.0850 C   0  0  0  0  0  0  0  0  0  0  0  0
   41.4880   72.2740   60.8870 C   0  0  0  0  0  0  0  0  0  0  0  0
   40.2490   72.5740   61.5650 C   0  0  0  0  0  0  0  0  0  0  0  0
   39.7420   73.8230   61.3770 N   0  0  0  0  0  0  0  0  0  0  0  0
   40.3740   74.7560   60.5770 C   0  0  0  0  0  0  0  0  0  0  0  0
   41.5370   74.4670   59.9450 N   0  0  0  0  0  0  0  0  0  0  0  0
   43.0370   73.1320   59.6210 H   0  0  0  0  0  0  0  0  0  0  0  0
   39.6430   71.9730   62.1950 H   0  0  0  0  0  0  0  0  0  0  0  0
   41.9520   70.9290   61.1600 C   0  0  0  0  0  0  0  0  0  0  0  0
   42.5160   70.7690   62.4460 C   0  0  0  0  0  0  0  0  0  0  0  0
   43.0820   69.6120   62.8830 C   0  0  0  0  0  0  0  0  0  0  0  0
   43.1220   68.5100   62.0430 C   0  0  0  0  0  0  0  0  0  0  0  0
   42.5740   68.6440   60.7790 C   0  0  0  0  0  0  0  0  0  0  0  0
   42.5590   67.6170   59.8680 C   0  0  0  0  0  0  0  0  0  0  0  0
   42.0010   67.7700   58.6110 C   0  0  0  0  0  0  0  0  0  0  0  0
   41.4260   68.9660   58.2120 C   0  0  0  0  0  0  0  0  0  0  0  0
   41.4400   70.0000   59.1270 C   0  0  0  0  0  0  0  0  0  0  0  0
   41.9970   69.8240   60.3440 C   0  0  0  0  0  0  0  0  0  0  0  0
   42.5830   71.5140   63.2260 H   0  0  0  0  0  0  0  0  0  0  0  0
   43.5270   69.4270   63.8450 H   0  0  0  0  0  0  0  0  0  0  0  0
   43.5480   67.5410   62.2850 H   0  0  0  0  0  0  0  0  0  0  0  0
   43.0170   66.6790   60.2070 H   0  0  0  0  0  0  0  0  0  0  0  0
   42.0720   66.8590   58.0070 H   0  0  0  0  0  0  0  0  0  0  0  0
   41.0230   68.9760   57.2250 H   0  0  0  0  0  0  0  0  0  0  0  0
   40.9130   70.8300   58.7190 H   0  0  0  0  0  0  0  0  0  0  0  0
   39.8050   76.0930   60.3960 C   0  0  0  0  0  0  0  0  0  0  0  0
   39.8080   76.9580   61.2950 O   0  0  0  0  0  0  0  0  0  0  0  0
   39.2090   76.4190   59.0960 C   0  0  0  0  0  0  0  0  0  0  0  0
   38.4180   75.5050   58.3910 C   0  0  0  0  0  0  0  0  0  0  0  0
   38.1450   74.4960   58.6750 H   0  0  0  0  0  0  0  0  0  0  0  0
   38.0380   76.1460   57.2330 C   0  0  0  0  0  0  0  0  0  0  0  0
   37.4160   75.7180   56.4600 H   0  0  0  0  0  0  0  0  0  0  0  0
   38.6100   77.4020   57.2910 C   0  0  0  0  0  0  0  0  0  0  0  0
   38.4520   78.1070   56.4770 H   0  0  0  0  0  0  0  0  0  0  0  0
   39.2830   77.5120   58.3970 O   0  0  0  0  0  0  0  0  0  0  0  0
  1  2  1  0  0  0  0
  2  9  1  0  0  0  0
  2  3  2  0  0  0  0
  3  8  1  0  0  0  0
  4  3  1  0  0  0  0
  5  4  2  0  0  0  0
  6  1  2  0  0  0  0
  6  5  1  0  0  0  0
  7  1  1  0  0  0  0
  9 10  1  0  0  0  0
 10 11  2  0  0  0  0
 10 19  1  0  0  0  0
 11 20  1  0  0  0  0
 12 21  1  0  0  0  0
 12 11  1  0  0  0  0
 13 12  2  0  0  0  0
 14 22  1  0  0  0  0
 14 13  1  0  0  0  0
 15 14  2  0  0  0  0
 16 15  1  0  0  0  0
 16 17  2  0  0  0  0
 17 18  1  0  0  0  0
 18 13  1  0  0  0  0
 18  9  2  0  0  0  0
 23 15  1  0  0  0  0
 24 16  1  0  0  0  0
 25 17  1  0  0  0  0
 26  5  1  0  0  0  0
 26 27  2  0  0  0  0
 28 26  1  0  0  0  0
 29 30  1  0  0  0  0
 29 28  2  0  0  0  0
 31 33  2  0  0  0  0
 31 29  1  0  0  0  0
 32 31  1  0  0  0  0
 33 35  1  0  0  0  0
 34 33  1  0  0  0  0
 35 28  1  0  0  0  0
M  END
>  <minimizedAffinity>
-6.02569485

$$$$

 OpenBabel03212520363D

 35 38  0  0  0  0  0  0  0  0999 V2000
   39.6600   73.9870   61.1790 C   0  0  0  0  0  0  0  0  0  0  0  0
   40.3110   74.5610   60.0670 C   0  0  0  0  0  0  0  0  0  0  0  0
   41.5620   74.0030   59.6090 C   0  0  0  0  0  0  0  0  0  0  0  0
   42.0380   72.9320   60.3000 N   0  0  0  0  0  0  0  0  0  0  0  0
   41.3630   72.4010   61.3820 C   0  0  0  0  0  0  0  0  0  0  0  0
   40.1900   72.9310   61.8070 N   0  0  0  0  0  0  0  0  0  0  0  0
   38.7850   74.3880   61.6090 H   0  0  0  0  0  0  0  0  0  0  0  0
   42.1880   74.2840   58.7990 H   0  0  0  0  0  0  0  0  0  0  0  0
   39.8960   75.7020   59.2770 C   0  0  0  0  0  0  0  0  0  0  0  0
   40.4770   76.9240   59.6880 C   0  0  0  0  0  0  0  0  0  0  0  0
   40.1700   78.1280   59.1370 C   0  0  0  0  0  0  0  0  0  0  0  0
   39.2380   78.1950   58.1120 C   0  0  0  0  0  0  0  0  0  0  0  0
   38.6580   77.0090   57.6930 C   0  0  0  0  0  0  0  0  0  0  0  0
   37.7250   76.9590   56.6870 C   0  0  0  0  0  0  0  0  0  0  0  0
   37.1610   75.7640   56.2790 C   0  0  0  0  0  0  0  0  0  0  0  0
   37.5120   74.5580   56.8630 C   0  0  0  0  0  0  0  0  0  0  0  0
   38.4490   74.6060   57.8760 C   0  0  0  0  0  0  0  0  0  0  0  0
   38.9780   75.7880   58.2570 C   0  0  0  0  0  0  0  0  0  0  0  0
   41.2090   77.0660   60.4710 H   0  0  0  0  0  0  0  0  0  0  0  0
   40.5740   79.0890   59.4030 H   0  0  0  0  0  0  0  0  0  0  0  0
   38.9170   79.0970   57.6020 H   0  0  0  0  0  0  0  0  0  0  0  0
   37.4640   77.9270   56.2360 H   0  0  0  0  0  0  0  0  0  0  0  0
   36.4360   75.8980   55.4690 H   0  0  0  0  0  0  0  0  0  0  0  0
   37.0190   73.6970   56.4730 H   0  0  0  0  0  0  0  0  0  0  0  0
   38.6730   73.6130   58.1870 H   0  0  0  0  0  0  0  0  0  0  0  0
   41.9020   71.2490   62.1080 C   0  0  0  0  0  0  0  0  0  0  0  0
   42.3080   71.3200   63.2850 O   0  0  0  0  0  0  0  0  0  0  0  0
   41.9600   69.9600   61.4110 C   0  0  0  0  0  0  0  0  0  0  0  0
   42.2580   68.7670   62.0790 C   0  0  0  0  0  0  0  0  0  0  0  0
   42.4730   68.6240   63.1320 H   0  0  0  0  0  0  0  0  0  0  0  0
   42.2240   67.7770   61.1220 C   0  0  0  0  0  0  0  0  0  0  0  0
   42.4100   66.7290   61.3040 H   0  0  0  0  0  0  0  0  0  0  0  0
   41.9120   68.4110   59.9350 C   0  0  0  0  0  0  0  0  0  0  0  0
   41.8270   67.8300   59.0180 H   0  0  0  0  0  0  0  0  0  0  0  0
   41.7680   69.6820   60.1570 O   0  0  0  0  0  0  0  0  0  0  0  0
  1  7  1  0  0  0  0
  1  6  1  0  0  0  0
  2  1  2  0  0  0  0
  3  2  1  0  0  0  0
  3  4  2  0  0  0  0
  4  5  1  0  0  0  0
  5  6  2  0  0  0  0
  5 26  1  0  0  0  0
  8  3  1  0  0  0  0
  9 10  1  0  0  0  0
  9  2  1  0  0  0  0
 10 19  1  0  0  0  0
 11 20  1  0  0  0  0
 11 10  2  0  0  0  0
 12 11  1  0  0  0  0
 13 12  2  0  0  0  0
 13 18  1  0  0  0  0
 14 13  1  0  0  0  0
 15 14  2  0  0  0  0
 15 16  1  0  0  0  0
 16 17  2  0  0  0  0
 17 25  1  0  0  0  0
 17 18  1  0  0  0  0
 18  9  2  0  0  0  0
 21 12  1  0  0  0  0
 22 14  1  0  0  0  0
 23 15  1  0  0  0  0
 24 16  1  0  0  0  0
 26 27  2  0  0  0  0
 28 29  2  0  0  0  0
 28 26  1  0  0  0  0
 29 30  1  0  0  0  0
 31 32  1  0  0  0  0
 31 29  1  0  0  0  0
 33 35  1  0  0  0  0
 33 31  2  0  0  0  0
 34 33  1  0  0  0  0
 35 28  1  0  0  0  0
M  END
>  <minimizedAffinity>
-6.017488

$$$$

 OpenBabel03212520363D

 35 38  0  0  0  0  0  0  0  0999 V2000
   41.6920   70.0350   59.7880 C   0  0  0  0  0  0  0  0  0  0  0  0
   42.2920   69.5390   60.9640 C   0  0  0  0  0  0  0  0  0  0  0  0
   42.8410   70.4630   61.9270 C   0  0  0  0  0  0  0  0  0  0  0  0
   42.7370   71.7860   61.6270 N   0  0  0  0  0  0  0  0  0  0  0  0
   42.1360   72.2260   60.4630 C   0  0  0  0  0  0  0  0  0  0  0  0
   41.6240   71.3530   59.5630 N   0  0  0  0  0  0  0  0  0  0  0  0
   41.3370   69.4160   59.0120 H   0  0  0  0  0  0  0  0  0  0  0  0
   43.3170   70.2880   62.8600 H   0  0  0  0  0  0  0  0  0  0  0  0
   42.4640   68.1580   61.3670 C   0  0  0  0  0  0  0  0  0  0  0  0
   43.6000   67.5340   60.8030 C   0  0  0  0  0  0  0  0  0  0  0  0
   43.9080   66.2220   60.9850 C   0  0  0  0  0  0  0  0  0  0  0  0
   43.0820   65.4260   61.7630 C   0  0  0  0  0  0  0  0  0  0  0  0
   41.9640   66.0180   62.3280 C   0  0  0  0  0  0  0  0  0  0  0  0
   41.0800   65.3240   63.1160 C   0  0  0  0  0  0  0  0  0  0  0  0
   39.9720   65.9350   63.6750 C   0  0  0  0  0  0  0  0  0  0  0  0
   39.7020   67.2780   63.4700 C   0  0  0  0  0  0  0  0  0  0  0  0
   40.5900   67.9780   62.6770 C   0  0  0  0  0  0  0  0  0  0  0  0
   41.6590   67.3530   62.1390 C   0  0  0  0  0  0  0  0  0  0  0  0
   44.3440   67.9900   60.1670 H   0  0  0  0  0  0  0  0  0  0  0  0
   44.7530   65.6900   60.5840 H   0  0  0  0  0  0  0  0  0  0  0  0
   43.2290   64.3720   61.9750 H   0  0  0  0  0  0  0  0  0  0  0  0
   41.3160   64.2620   63.2670 H   0  0  0  0  0  0  0  0  0  0  0  0
   39.3700   65.2430   64.2730 H   0  0  0  0  0  0  0  0  0  0  0  0
   38.8240   67.6490   63.9470 H   0  0  0  0  0  0  0  0  0  0  0  0
   40.3020   69.0020   62.6570 H   0  0  0  0  0  0  0  0  0  0  0  0
   42.0410   73.6570   60.1660 C   0  0  0  0  0  0  0  0  0  0  0  0
   42.9840   74.3110   59.6740 O   0  0  0  0  0  0  0  0  0  0  0  0
   40.7780   74.3420   60.4620 C   0  0  0  0  0  0  0  0  0  0  0  0
   40.5540   75.6750   60.1020 C   0  0  0  0  0  0  0  0  0  0  0  0
   41.2260   76.3540   59.5900 H   0  0  0  0  0  0  0  0  0  0  0  0
   39.2810   75.9750   60.5320 C   0  0  0  0  0  0  0  0  0  0  0  0
   38.7920   76.9310   60.4120 H   0  0  0  0  0  0  0  0  0  0  0  0
   38.8010   74.8230   61.1250 C   0  0  0  0  0  0  0  0  0  0  0  0
   37.7990   74.8100   61.5490 H   0  0  0  0  0  0  0  0  0  0  0  0
   39.7120   73.9000   61.0580 O   0  0  0  0  0  0  0  0  0  0  0  0
  1  2  1  0  0  0  0
  2  9  1  0  0  0  0
  2  3  2  0  0  0  0
  3  8  1  0  0  0  0
  4  3  1  0  0  0  0
  5  4  2  0  0  0  0
  6  1  2  0  0  0  0
  6  5  1  0  0  0  0
  7  1  1  0  0  0  0
  9 18  1  0  0  0  0
 10 11  1  0  0  0  0
 10  9  2  0  0  0  0
 11 12  2  0  0  0  0
 12 21  1  0  0  0  0
 12 13  1  0  0  0  0
 13 14  1  0  0  0  0
 14 22  1  0  0  0  0
 14 15  2  0  0  0  0
 15 23  1  0  0  0  0
 16 15  1  0  0  0  0
 16 24  1  0  0  0  0
 17 16  2  0  0  0  0
 18 13  2  0  0  0  0
 18 17  1  0  0  0  0
 19 10  1  0  0  0  0
 20 11  1  0  0  0  0
 25 17  1  0  0  0  0
 26 28  1  0  0  0  0
 26  5  1  0  0  0  0
 27 26  2  0  0  0  0
 28 35  1  0  0  0  0
 29 28  2  0  0  0  0
 29 31  1  0  0  0  0
 30 29  1  0  0  0  0
 31 33  2  0  0  0  0
 32 31  1  0  0  0  0
 33 34  1  0  0  0  0
 35 33  1  0  0  0  0
M  END
>  <minimizedAffinity>
-5.93716383

$$$$
