
 OpenBabel03212520353D

 35 38  0  0  0  0  0  0  0  0999 V2000
   40.2610   81.7500   58.6120 C   0  0  0  0  0  0  0  0  0  0  0  0
   40.5110   80.5310   57.9480 C   0  0  0  0  0  0  0  0  0  0  0  0
   40.8320   79.3540   58.7200 C   0  0  0  0  0  0  0  0  0  0  0  0
   40.8710   79.5060   60.0710 N   0  0  0  0  0  0  0  0  0  0  0  0
   40.6150   80.7210   60.6780 C   0  0  0  0  0  0  0  0  0  0  0  0
   40.3150   81.8210   59.9470 N   0  0  0  0  0  0  0  0  0  0  0  0
   40.0920   82.6610   58.1080 H   0  0  0  0  0  0  0  0  0  0  0  0
   41.0400   78.3600   58.4100 H   0  0  0  0  0  0  0  0  0  0  0  0
   40.5070   80.2700   56.5230 C   0  0  0  0  0  0  0  0  0  0  0  0
   41.7890   80.3170   55.9300 C   0  0  0  0  0  0  0  0  0  0  0  0
   42.0080   80.1780   54.5950 C   0  0  0  0  0  0  0  0  0  0  0  0
   40.9340   79.9780   53.7420 C   0  0  0  0  0  0  0  0  0  0  0  0
   39.6690   79.9270   54.3030 C   0  0  0  0  0  0  0  0  0  0  0  0
   38.5360   79.7310   53.5520 C   0  0  0  0  0  0  0  0  0  0  0  0
   37.2810   79.6780   54.1320 C   0  0  0  0  0  0  0  0  0  0  0  0
   37.1060   79.8150   55.4990 C   0  0  0  0  0  0  0  0  0  0  0  0
   38.2440   80.0110   56.2560 C   0  0  0  0  0  0  0  0  0  0  0  0
   39.4550   80.0660   55.6620 C   0  0  0  0  0  0  0  0  0  0  0  0
   42.7340   80.4730   56.4310 H   0  0  0  0  0  0  0  0  0  0  0  0
   42.9550   80.2050   54.0840 H   0  0  0  0  0  0  0  0  0  0  0  0
   40.9910   79.8560   52.6650 H   0  0  0  0  0  0  0  0  0  0  0  0
   38.6990   79.6220   52.4710 H   0  0  0  0  0  0  0  0  0  0  0  0
   36.4860   79.5180   53.3950 H   0  0  0  0  0  0  0  0  0  0  0  0
   36.0990   79.7560   55.8420 H   0  0  0  0  0  0  0  0  0  0  0  0
   37.9740   80.0350   57.2850 H   0  0  0  0  0  0  0  0  0  0  0  0
   40.6670   80.8540   62.1360 C   0  0  0  0  0  0  0  0  0  0  0  0
   40.4860   79.8920   62.9100 O   0  0  0  0  0  0  0  0  0  0  0  0
   40.9440   82.1800   62.6990 C   0  0  0  0  0  0  0  0  0  0  0  0
   42.2410   82.7000   62.7670 C   0  0  0  0  0  0  0  0  0  0  0  0
   43.1670   82.2400   62.4410 H   0  0  0  0  0  0  0  0  0  0  0  0
   42.1210   83.9440   63.3450 C   0  0  0  0  0  0  0  0  0  0  0  0
   42.9400   84.6200   63.5440 H   0  0  0  0  0  0  0  0  0  0  0  0
   40.7720   84.1150   63.5950 C   0  0  0  0  0  0  0  0  0  0  0  0
   40.4210   85.0370   64.0550 H   0  0  0  0  0  0  0  0  0  0  0  0
   40.1310   83.0580   63.2000 O   0  0  0  0  0  0  0  0  0  0  0  0
  1  6  1  0  0  0  0
  2  1  2  0  0  0  0
  2  3  1  0  0  0  0
  3  4  2  0  0  0  0
  4  5  1  0  0  0  0
  5 26  1  0  0  0  0
  6  5  2  0  0  0  0
  7  1  1  0  0  0  0
  8  3  1  0  0  0  0
  9  2  1  0  0  0  0
 10 19  1  0  0  0  0
 10  9  1  0  0  0  0
 11 10  2  0  0  0  0
 12 13  2  0  0  0  0
 12 11  1  0  0  0  0
 13 18  1  0  0  0  0
 14 15  2  0  0  0  0
 14 13  1  0  0  0  0
 15 16  1  0  0  0  0
 16 24  1  0  0  0  0
 16 17  2  0  0  0  0
 17 25  1  0  0  0  0
 18 17  1  0  0  0  0
 18  9  2  0  0  0  0
 20 11  1  0  0  0  0
 21 12  1  0  0  0  0
 22 14  1  0  0  0  0
 23 15  1  0  0  0  0
 26 28  1  0  0  0  0
 26 27  2  0  0  0  0
 28 29  2  0  0  0  0
 28 35  1  0  0  0  0
 29 31  1  0  0  0  0
 30 29  1  0  0  0  0
 31 32  1  0  0  0  0
 31 33  2  0  0  0  0
 33 34  1  0  0  0  0
 35 33  1  0  0  0  0
M  END
>  <minimizedAffinity>
-5.52863503

>  <minimizedRMSD>
3.65950632

$$$$
