
 OpenBabel03212520353D

 35 38  0  0  0  0  0  0  0  0999 V2000
   40.2780   81.7830   58.0730 C   0  0  0  0  0  0  0  0  0  0  0  0
   40.2530   80.4780   58.6080 C   0  0  0  0  0  0  0  0  0  0  0  0
   40.0520   80.2930   60.0250 C   0  0  0  0  0  0  0  0  0  0  0  0
   39.8950   81.4220   60.7680 N   0  0  0  0  0  0  0  0  0  0  0  0
   39.9220   82.6810   60.2000 C   0  0  0  0  0  0  0  0  0  0  0  0
   40.1120   82.8470   58.8690 N   0  0  0  0  0  0  0  0  0  0  0  0
   40.4910   81.9920   57.0620 H   0  0  0  0  0  0  0  0  0  0  0  0
   39.9950   79.4060   60.6050 H   0  0  0  0  0  0  0  0  0  0  0  0
   40.4220   79.2210   57.9080 C   0  0  0  0  0  0  0  0  0  0  0  0
   41.7070   78.6490   58.0620 C   0  0  0  0  0  0  0  0  0  0  0  0
   42.1070   77.5130   57.4320 C   0  0  0  0  0  0  0  0  0  0  0  0
   41.2300   76.8550   56.5840 C   0  0  0  0  0  0  0  0  0  0  0  0
   39.9660   77.3970   56.4190 C   0  0  0  0  0  0  0  0  0  0  0  0
   39.0180   76.8270   55.6060 C   0  0  0  0  0  0  0  0  0  0  0  0
   37.7590   77.3810   55.4590 C   0  0  0  0  0  0  0  0  0  0  0  0
   37.3910   78.5360   56.1290 C   0  0  0  0  0  0  0  0  0  0  0  0
   38.3420   79.1110   56.9480 C   0  0  0  0  0  0  0  0  0  0  0  0
   39.5650   78.5510   57.0670 C   0  0  0  0  0  0  0  0  0  0  0  0
   42.5180   79.0250   58.6690 H   0  0  0  0  0  0  0  0  0  0  0  0
   43.0660   77.0300   57.5060 H   0  0  0  0  0  0  0  0  0  0  0  0
   41.4410   75.9450   56.0310 H   0  0  0  0  0  0  0  0  0  0  0  0
   39.3310   75.9110   55.0870 H   0  0  0  0  0  0  0  0  0  0  0  0
   37.1260   76.8060   54.7740 H   0  0  0  0  0  0  0  0  0  0  0  0
   36.3980   78.8770   55.9470 H   0  0  0  0  0  0  0  0  0  0  0  0
   37.9100   79.9460   57.4470 H   0  0  0  0  0  0  0  0  0  0  0  0
   39.7520   83.8780   61.0260 C   0  0  0  0  0  0  0  0  0  0  0  0
   38.8730   84.7350   60.8040 O   0  0  0  0  0  0  0  0  0  0  0  0
   40.6590   84.0670   62.1630 C   0  0  0  0  0  0  0  0  0  0  0  0
   40.2600   83.8170   63.4800 C   0  0  0  0  0  0  0  0  0  0  0  0
   39.2960   83.4710   63.8360 H   0  0  0  0  0  0  0  0  0  0  0  0
   41.3540   84.0980   64.2680 C   0  0  0  0  0  0  0  0  0  0  0  0
   41.3860   84.0100   65.3440 H   0  0  0  0  0  0  0  0  0  0  0  0
   42.3510   84.5010   63.4000 C   0  0  0  0  0  0  0  0  0  0  0  0
   43.3270   84.7810   63.7910 H   0  0  0  0  0  0  0  0  0  0  0  0
   41.8950   84.4650   62.1850 O   0  0  0  0  0  0  0  0  0  0  0  0
  1  2  2  0  0  0  0
  1  6  1  0  0  0  0
  2  3  1  0  0  0  0
  3  8  1  0  0  0  0
  3  4  2  0  0  0  0
  5  4  1  0  0  0  0
  5 26  1  0  0  0  0
  6  5  2  0  0  0  0
  7  1  1  0  0  0  0
  9 10  1  0  0  0  0
  9  2  1  0  0  0  0
 10 19  1  0  0  0  0
 11 20  1  0  0  0  0
 11 10  2  0  0  0  0
 12 11  1  0  0  0  0
 13 12  2  0  0  0  0
 13 18  1  0  0  0  0
 14 13  1  0  0  0  0
 15 14  2  0  0  0  0
 15 16  1  0  0  0  0
 16 17  2  0  0  0  0
 17 18  1  0  0  0  0
 17 25  1  0  0  0  0
 18  9  2  0  0  0  0
 21 12  1  0  0  0  0
 22 14  1  0  0  0  0
 23 15  1  0  0  0  0
 24 16  1  0  0  0  0
 26 28  1  0  0  0  0
 27 26  2  0  0  0  0
 28 35  1  0  0  0  0
 28 29  2  0  0  0  0
 29 30  1  0  0  0  0
 29 31  1  0  0  0  0
 31 32  1  0  0  0  0
 33 34  1  0  0  0  0
 33 31  2  0  0  0  0
 35 33  1  0  0  0  0
M  END
>  <minimizedAffinity>
-5.95654821

>  <minimizedRMSD>
3.87261534

$$$$
