
 OpenBabel03212520133D

 30 32  0  0  0  0  0  0  0  0999 V2000
   42.3950   83.9540   58.3750 Cl  0  0  0  0  0  0  0  0  0  0  0  0
   41.3610   82.5580   58.1770 C   0  0  0  0  0  0  0  0  0  0  0  0
   40.7420   81.9390   59.2500 C   0  0  0  0  0  0  0  0  0  0  0  0
   39.9510   80.8470   58.9440 C   0  0  0  0  0  0  0  0  0  0  0  0
   39.7420   80.3460   57.6670 C   0  0  0  0  0  0  0  0  0  0  0  0
   40.3700   80.9880   56.6560 C   0  0  0  0  0  0  0  0  0  0  0  0
   40.1260   80.3980   55.0100 Cl  0  0  0  0  0  0  0  0  0  0  0  0
   41.1870   82.1030   56.9000 C   0  0  0  0  0  0  0  0  0  0  0  0
   39.4770   80.3770   59.7910 H   0  0  0  0  0  0  0  0  0  0  0  0
   39.1240   79.5000   57.4650 H   0  0  0  0  0  0  0  0  0  0  0  0
   41.9720   82.1530   61.4540 C   0  0  0  0  0  0  0  0  0  0  0  0
   40.9450   82.4450   60.5640 C   0  0  0  0  0  0  0  0  0  0  0  0
   39.9630   83.3650   61.0020 C   0  0  0  0  0  0  0  0  0  0  0  0
   40.0840   83.8960   62.2450 N   0  0  0  0  0  0  0  0  0  0  0  0
   41.0970   83.5830   63.0710 C   0  0  0  0  0  0  0  0  0  0  0  0
   42.0260   82.7190   62.6690 N   0  0  0  0  0  0  0  0  0  0  0  0
   42.6870   81.4530   61.0780 H   0  0  0  0  0  0  0  0  0  0  0  0
   39.1270   83.6550   60.3830 H   0  0  0  0  0  0  0  0  0  0  0  0
   41.0790   84.2550   64.3990 C   0  0  0  0  0  0  0  0  0  0  0  0
   40.7480   85.5940   64.2940 F   0  0  0  0  0  0  0  0  0  0  0  0
   40.1180   83.6620   65.2060 F   0  0  0  0  0  0  0  0  0  0  0  0
   42.3250   84.2170   65.0010 F   0  0  0  0  0  0  0  0  0  0  0  0
   41.7800   82.6600   55.6880 C   0  0  0  0  0  0  0  0  0  0  0  0
   42.4990   83.8080   55.4880 C   0  0  0  0  0  0  0  0  0  0  0  0
   42.7970   84.5740   56.1750 H   0  0  0  0  0  0  0  0  0  0  0  0
   42.8830   83.9780   54.1840 C   0  0  0  0  0  0  0  0  0  0  0  0
   43.4450   84.7460   53.6810 H   0  0  0  0  0  0  0  0  0  0  0  0
   42.3560   82.8560   53.5900 C   0  0  0  0  0  0  0  0  0  0  0  0
   42.3850   82.5180   52.5430 H   0  0  0  0  0  0  0  0  0  0  0  0
   41.7560   82.1740   54.4910 O   0  0  0  0  0  0  0  0  0  0  0  0
  2  1  1  0  0  0  0
  2  3  1  0  0  0  0
  3 12  1  0  0  0  0
  4  3  2  0  0  0  0
  4  9  1  0  0  0  0
  5  4  1  0  0  0  0
  6  8  1  0  0  0  0
  6  5  2  0  0  0  0
  7  6  1  0  0  0  0
  8  2  2  0  0  0  0
 10  5  1  0  0  0  0
 11 16  1  0  0  0  0
 12 13  1  0  0  0  0
 12 11  2  0  0  0  0
 13 14  2  0  0  0  0
 14 15  1  0  0  0  0
 15 19  1  0  0  0  0
 16 15  2  0  0  0  0
 17 11  1  0  0  0  0
 18 13  1  0  0  0  0
 19 22  1  0  0  0  0
 19 21  1  0  0  0  0
 20 19  1  0  0  0  0
 23  8  1  0  0  0  0
 24 23  2  0  0  0  0
 24 25  1  0  0  0  0
 26 24  1  0  0  0  0
 27 26  1  0  0  0  0
 28 26  2  0  0  0  0
 28 30  1  0  0  0  0
 29 28  1  0  0  0  0
 30 23  1  0  0  0  0
M  END
>  <minimizedAffinity>
-5.6694479

>  <minimizedRMSD>
0.380977422

$$$$
