
 OpenBabel03212520313D

 40 43  0  0  0  0  0  0  0  0999 V2000
   42.2630   82.6610   61.8460 C   0  0  0  0  0  0  0  0  0  0  0  0
   42.6930   81.7380   60.9040 C   0  0  0  0  0  0  0  0  0  0  0  0
   43.9140   81.1170   61.0280 C   0  0  0  0  0  0  0  0  0  0  0  0
   44.7880   81.3680   62.0900 C   0  0  0  0  0  0  0  0  0  0  0  0
   44.3840   82.2810   63.0380 C   0  0  0  0  0  0  0  0  0  0  0  0
   43.1540   82.9050   62.9110 C   0  0  0  0  0  0  0  0  0  0  0  0
   44.2690   80.3880   60.2970 H   0  0  0  0  0  0  0  0  0  0  0  0
   45.7320   80.8650   62.1550 H   0  0  0  0  0  0  0  0  0  0  0  0
   45.0180   82.5110   63.8760 H   0  0  0  0  0  0  0  0  0  0  0  0
   42.8490   83.6200   63.6640 H   0  0  0  0  0  0  0  0  0  0  0  0
   40.2160   80.0790   58.7230 C   0  0  0  0  0  0  0  0  0  0  0  0
   40.3120   80.8080   57.5550 C   0  0  0  0  0  0  0  0  0  0  0  0
   41.2330   81.8590   57.5410 C   0  0  0  0  0  0  0  0  0  0  0  0
   41.9770   82.1110   58.6620 N   0  0  0  0  0  0  0  0  0  0  0  0
   41.8540   81.3880   59.7640 C   0  0  0  0  0  0  0  0  0  0  0  0
   40.9720   80.3770   59.7840 N   0  0  0  0  0  0  0  0  0  0  0  0
   39.5040   79.2690   58.7290 H   0  0  0  0  0  0  0  0  0  0  0  0
   41.3620   82.4640   56.6740 H   0  0  0  0  0  0  0  0  0  0  0  0
   39.5150   80.5030   56.4230 N   0  0  0  0  0  0  0  0  0  0  0  0
   38.2110   80.4460   56.6860 C   0  0  0  0  0  0  0  0  0  0  0  0
   37.3370   80.1520   55.6360 C   0  0  0  0  0  0  0  0  0  0  0  0
   37.8470   79.9320   54.3700 C   0  0  0  0  0  0  0  0  0  0  0  0
   37.1320   79.6630   53.3750 O   0  0  0  0  0  0  0  0  0  0  0  0
   39.1990   80.0080   54.1770 N   0  0  0  0  0  0  0  0  0  0  0  0
   40.0500   80.2940   55.1980 C   0  0  0  0  0  0  0  0  0  0  0  0
   41.2770   80.3670   55.0400 O   0  0  0  0  0  0  0  0  0  0  0  0
   37.7690   80.6110   57.6590 H   0  0  0  0  0  0  0  0  0  0  0  0
   36.2770   80.0930   55.7890 H   0  0  0  0  0  0  0  0  0  0  0  0
   39.6790   79.8580   53.2570 H   0  0  0  0  0  0  0  0  0  0  0  0
   40.7390   83.4670   61.7170 S   0  0  0  0  0  0  0  0  0  0  0  0
   40.4930   84.3130   62.9390 O   0  0  0  0  0  0  0  0  0  0  0  0
   39.6650   82.3860   61.7830 O   0  0  0  0  0  0  0  0  0  0  0  0
   40.5220   84.4810   60.3400 C   0  0  0  0  0  0  0  0  0  0  0  0
   41.2090   85.1540   59.3270 C   0  0  0  0  0  0  0  0  0  0  0  0
   42.2820   85.0000   59.4220 H   0  0  0  0  0  0  0  0  0  0  0  0
   40.3130   85.8130   58.5120 C   0  0  0  0  0  0  0  0  0  0  0  0
   40.7150   86.3770   57.6850 H   0  0  0  0  0  0  0  0  0  0  0  0
   39.0950   85.5120   59.0680 C   0  0  0  0  0  0  0  0  0  0  0  0
   38.1950   85.9280   58.5900 H   0  0  0  0  0  0  0  0  0  0  0  0
   39.2320   84.7430   60.1190 O   0  0  0  0  0  0  0  0  0  0  0  0
  1  6  1  0  0  0  0
  2  3  1  0  0  0  0
  2  1  2  0  0  0  0
  3  4  2  0  0  0  0
  4  8  1  0  0  0  0
  4  5  1  0  0  0  0
  5  9  1  0  0  0  0
  6  5  2  0  0  0  0
  6 10  1  0  0  0  0
  7  3  1  0  0  0  0
 11 17  1  0  0  0  0
 11 16  1  0  0  0  0
 12 11  2  0  0  0  0
 13 12  1  0  0  0  0
 13 14  2  0  0  0  0
 14 15  1  0  0  0  0
 15 16  2  0  0  0  0
 15  2  1  0  0  0  0
 18 13  1  0  0  0  0
 19 20  1  0  0  0  0
 19 12  1  0  0  0  0
 20 27  1  0  0  0  0
 21 28  1  0  0  0  0
 21 20  2  0  0  0  0
 22 21  1  0  0  0  0
 23 22  2  0  0  0  0
 24 22  1  0  0  0  0
 24 25  1  0  0  0  0
 25 19  1  0  0  0  0
 26 25  2  0  0  0  0
 29 24  1  0  0  0  0
 30 32  2  0  0  0  0
 30  1  1  0  0  0  0
 30 31  2  0  0  0  0
 33 30  1  0  0  0  0
 34 35  1  0  0  0  0
 34 33  2  0  0  0  0
 36 38  2  0  0  0  0
 36 34  1  0  0  0  0
 37 36  1  0  0  0  0
 38 40  1  0  0  0  0
 39 38  1  0  0  0  0
 40 33  1  0  0  0  0
M  END
>  <minimizedAffinity>
-6.11776352

>  <minimizedRMSD>
0.832149088

$$$$
