
 OpenBabel03212520273D

 27 29  0  0  0  0  0  0  0  0999 V2000
   42.9810   84.9650   61.1710 C   0  0  0  0  0  0  0  0  0  0  0  0
   44.2260   84.7170   61.7160 C   0  0  0  0  0  0  0  0  0  0  0  0
   45.0440   85.5390   60.9320 C   0  0  0  0  0  0  0  0  0  0  0  0
   44.3190   86.2030   60.0130 N   0  0  0  0  0  0  0  0  0  0  0  0
   43.0360   85.8480   60.1600 N   0  0  0  0  0  0  0  0  0  0  0  0
   44.5050   84.0690   62.5250 H   0  0  0  0  0  0  0  0  0  0  0  0
   46.1280   85.6350   61.0470 H   0  0  0  0  0  0  0  0  0  0  0  0
   40.4590   83.1890   63.2610 C   0  0  0  0  0  0  0  0  0  0  0  0
   41.6720   83.7580   62.8900 C   0  0  0  0  0  0  0  0  0  0  0  0
   41.7350   84.3450   61.6320 C   0  0  0  0  0  0  0  0  0  0  0  0
   40.6330   84.3450   60.8200 N   0  0  0  0  0  0  0  0  0  0  0  0
   39.4810   83.7680   61.2520 C   0  0  0  0  0  0  0  0  0  0  0  0
   39.3900   83.1980   62.4520 N   0  0  0  0  0  0  0  0  0  0  0  0
   40.3220   82.7130   64.2180 H   0  0  0  0  0  0  0  0  0  0  0  0
   42.5210   83.7400   63.5570 H   0  0  0  0  0  0  0  0  0  0  0  0
   38.7140   83.8560   60.4920 H   0  0  0  0  0  0  0  0  0  0  0  0
   44.8250   87.1450   59.0270 C   0  0  0  0  0  0  0  0  0  0  0  0
   45.9200   87.1070   58.9940 H   0  0  0  0  0  0  0  0  0  0  0  0
   44.3720   86.8570   58.0590 H   0  0  0  0  0  0  0  0  0  0  0  0
   44.3850   88.5160   59.4190 C   0  0  0  0  0  0  0  0  0  0  0  0
   44.2530   89.0490   60.6840 C   0  0  0  0  0  0  0  0  0  0  0  0
   44.4680   88.4910   61.5920 H   0  0  0  0  0  0  0  0  0  0  0  0
   43.8180   90.3470   60.5370 C   0  0  0  0  0  0  0  0  0  0  0  0
   43.6120   91.0510   61.3350 H   0  0  0  0  0  0  0  0  0  0  0  0
   43.7110   90.5270   59.1570 C   0  0  0  0  0  0  0  0  0  0  0  0
   43.3850   91.4610   58.6850 H   0  0  0  0  0  0  0  0  0  0  0  0
   44.0520   89.4310   58.5220 O   0  0  0  0  0  0  0  0  0  0  0  0
  1 10  1  0  0  0  0
  1  2  1  0  0  0  0
  2  6  1  0  0  0  0
  3  7  1  0  0  0  0
  3  2  2  0  0  0  0
  4  5  1  0  0  0  0
  4  3  1  0  0  0  0
  5  1  2  0  0  0  0
  8 14  1  0  0  0  0
  9  8  1  0  0  0  0
  9 15  1  0  0  0  0
 10  9  2  0  0  0  0
 11 12  2  0  0  0  0
 11 10  1  0  0  0  0
 12 13  1  0  0  0  0
 13  8  2  0  0  0  0
 16 12  1  0  0  0  0
 17 20  1  0  0  0  0
 17  4  1  0  0  0  0
 18 17  1  0  0  0  0
 19 17  1  0  0  0  0
 20 21  2  0  0  0  0
 21 22  1  0  0  0  0
 23 21  1  0  0  0  0
 23 24  1  0  0  0  0
 25 23  2  0  0  0  0
 26 25  1  0  0  0  0
 27 25  1  0  0  0  0
 27 20  1  0  0  0  0
M  END
>  <minimizedAffinity>
-4.56291342

>  <minimizedRMSD>
1.16397941

$$$$
