
 OpenBabel03212520133D

 30 32  0  0  0  0  0  0  0  0999 V2000
   42.9170   83.8580   58.5320 Cl  0  0  0  0  0  0  0  0  0  0  0  0
   41.7180   82.6280   58.2060 C   0  0  0  0  0  0  0  0  0  0  0  0
   40.9170   82.0940   59.2020 C   0  0  0  0  0  0  0  0  0  0  0  0
   40.0120   81.1310   58.7980 C   0  0  0  0  0  0  0  0  0  0  0  0
   39.8570   80.6770   57.4960 C   0  0  0  0  0  0  0  0  0  0  0  0
   40.6640   81.2320   56.5630 C   0  0  0  0  0  0  0  0  0  0  0  0
   40.4980   80.6990   54.8880 Cl  0  0  0  0  0  0  0  0  0  0  0  0
   41.6050   82.2140   56.9080 C   0  0  0  0  0  0  0  0  0  0  0  0
   39.3970   80.7250   59.5860 H   0  0  0  0  0  0  0  0  0  0  0  0
   39.1470   79.9310   57.2170 H   0  0  0  0  0  0  0  0  0  0  0  0
   41.9450   82.1030   61.5170 C   0  0  0  0  0  0  0  0  0  0  0  0
   41.0640   82.5520   60.5400 C   0  0  0  0  0  0  0  0  0  0  0  0
   40.1900   83.6050   60.9040 C   0  0  0  0  0  0  0  0  0  0  0  0
   40.2660   84.1010   62.1650 N   0  0  0  0  0  0  0  0  0  0  0  0
   41.1370   83.6340   63.0760 C   0  0  0  0  0  0  0  0  0  0  0  0
   41.9630   82.6440   62.7450 N   0  0  0  0  0  0  0  0  0  0  0  0
   42.5820   81.3080   61.1950 H   0  0  0  0  0  0  0  0  0  0  0  0
   39.4700   84.0210   60.2160 H   0  0  0  0  0  0  0  0  0  0  0  0
   41.0890   84.2900   64.4120 C   0  0  0  0  0  0  0  0  0  0  0  0
   40.7520   85.6270   64.3160 F   0  0  0  0  0  0  0  0  0  0  0  0
   40.1160   83.6810   65.1930 F   0  0  0  0  0  0  0  0  0  0  0  0
   42.3230   84.2520   65.0370 F   0  0  0  0  0  0  0  0  0  0  0  0
   42.3840   82.6920   55.7700 C   0  0  0  0  0  0  0  0  0  0  0  0
   43.5500   82.2260   55.2230 C   0  0  0  0  0  0  0  0  0  0  0  0
   44.1700   81.3980   55.5010 H   0  0  0  0  0  0  0  0  0  0  0  0
   43.9650   82.9630   54.1440 C   0  0  0  0  0  0  0  0  0  0  0  0
   44.8160   82.8840   53.4900 H   0  0  0  0  0  0  0  0  0  0  0  0
   42.9780   83.9140   54.0600 C   0  0  0  0  0  0  0  0  0  0  0  0
   42.8450   84.7510   53.3550 H   0  0  0  0  0  0  0  0  0  0  0  0
   42.1350   83.6970   54.9980 O   0  0  0  0  0  0  0  0  0  0  0  0
  2  1  1  0  0  0  0
  2  3  1  0  0  0  0
  3 12  1  0  0  0  0
  4  3  2  0  0  0  0
  4  9  1  0  0  0  0
  5  4  1  0  0  0  0
  6  8  1  0  0  0  0
  6  5  2  0  0  0  0
  7  6  1  0  0  0  0
  8  2  2  0  0  0  0
 10  5  1  0  0  0  0
 11 16  1  0  0  0  0
 12 13  1  0  0  0  0
 12 11  2  0  0  0  0
 13 14  2  0  0  0  0
 14 15  1  0  0  0  0
 15 19  1  0  0  0  0
 16 15  2  0  0  0  0
 17 11  1  0  0  0  0
 18 13  1  0  0  0  0
 19 22  1  0  0  0  0
 19 21  1  0  0  0  0
 20 19  1  0  0  0  0
 23  8  1  0  0  0  0
 24 25  1  0  0  0  0
 24 23  2  0  0  0  0
 26 24  1  0  0  0  0
 27 26  1  0  0  0  0
 28 26  2  0  0  0  0
 28 30  1  0  0  0  0
 29 28  1  0  0  0  0
 30 23  1  0  0  0  0
M  END
>  <minimizedAffinity>
-5.20905209

>  <minimizedRMSD>
0.890173793

$$$$
