
 OpenBabel03212520313D

 40 43  0  0  0  0  0  0  0  0999 V2000
   42.1940   82.1010   62.0170 C   0  0  0  0  0  0  0  0  0  0  0  0
   42.6520   81.0960   61.1780 C   0  0  0  0  0  0  0  0  0  0  0  0
   43.9510   80.6490   61.2520 C   0  0  0  0  0  0  0  0  0  0  0  0
   44.8800   81.1660   62.1590 C   0  0  0  0  0  0  0  0  0  0  0  0
   44.4500   82.1640   63.0040 C   0  0  0  0  0  0  0  0  0  0  0  0
   43.1420   82.6130   62.9280 C   0  0  0  0  0  0  0  0  0  0  0  0
   44.3280   79.8590   60.5980 H   0  0  0  0  0  0  0  0  0  0  0  0
   45.8840   80.7930   62.1890 H   0  0  0  0  0  0  0  0  0  0  0  0
   45.1240   82.5960   63.7210 H   0  0  0  0  0  0  0  0  0  0  0  0
   42.8170   83.3980   63.5970 H   0  0  0  0  0  0  0  0  0  0  0  0
   40.2670   78.8010   59.5380 C   0  0  0  0  0  0  0  0  0  0  0  0
   40.1050   79.3780   58.2950 C   0  0  0  0  0  0  0  0  0  0  0  0
   40.8240   80.5510   58.0450 C   0  0  0  0  0  0  0  0  0  0  0  0
   41.6350   81.0590   59.0230 N   0  0  0  0  0  0  0  0  0  0  0  0
   41.7630   80.4740   60.2040 C   0  0  0  0  0  0  0  0  0  0  0  0
   41.0760   79.3480   60.4500 N   0  0  0  0  0  0  0  0  0  0  0  0
   39.7100   77.8960   59.7260 H   0  0  0  0  0  0  0  0  0  0  0  0
   40.7480   81.0510   57.1070 H   0  0  0  0  0  0  0  0  0  0  0  0
   39.2490   78.8090   57.3180 N   0  0  0  0  0  0  0  0  0  0  0  0
   38.2550   79.6120   56.9430 C   0  0  0  0  0  0  0  0  0  0  0  0
   37.3540   79.1440   55.9840 C   0  0  0  0  0  0  0  0  0  0  0  0
   37.5200   77.8750   55.4590 C   0  0  0  0  0  0  0  0  0  0  0  0
   36.7560   77.3810   54.5940 O   0  0  0  0  0  0  0  0  0  0  0  0
   38.5650   77.1080   55.8930 N   0  0  0  0  0  0  0  0  0  0  0  0
   39.4420   77.5630   56.8270 C   0  0  0  0  0  0  0  0  0  0  0  0
   40.3960   76.8810   57.2320 O   0  0  0  0  0  0  0  0  0  0  0  0
   38.0880   80.6090   57.3270 H   0  0  0  0  0  0  0  0  0  0  0  0
   36.5340   79.7460   55.6430 H   0  0  0  0  0  0  0  0  0  0  0  0
   38.7730   76.1380   55.5560 H   0  0  0  0  0  0  0  0  0  0  0  0
   40.5710   82.6930   61.9460 S   0  0  0  0  0  0  0  0  0  0  0  0
   40.1810   83.2980   63.2710 O   0  0  0  0  0  0  0  0  0  0  0  0
   39.6660   81.4750   61.8050 O   0  0  0  0  0  0  0  0  0  0  0  0
   40.2360   83.8660   60.7290 C   0  0  0  0  0  0  0  0  0  0  0  0
   39.2050   84.5980   60.1340 C   0  0  0  0  0  0  0  0  0  0  0  0
   38.2460   84.3540   60.5900 H   0  0  0  0  0  0  0  0  0  0  0  0
   39.7190   85.4130   59.1480 C   0  0  0  0  0  0  0  0  0  0  0  0
   39.0250   86.0360   58.6060 H   0  0  0  0  0  0  0  0  0  0  0  0
   41.0640   85.1420   59.1790 C   0  0  0  0  0  0  0  0  0  0  0  0
   41.7120   85.6780   58.4680 H   0  0  0  0  0  0  0  0  0  0  0  0
   41.3450   84.2500   60.0940 O   0  0  0  0  0  0  0  0  0  0  0  0
  1  6  1  0  0  0  0
  2  3  1  0  0  0  0
  2  1  2  0  0  0  0
  3  4  2  0  0  0  0
  4  8  1  0  0  0  0
  4  5  1  0  0  0  0
  5  9  1  0  0  0  0
  6  5  2  0  0  0  0
  6 10  1  0  0  0  0
  7  3  1  0  0  0  0
 11 17  1  0  0  0  0
 11 16  1  0  0  0  0
 12 11  2  0  0  0  0
 13 12  1  0  0  0  0
 13 14  2  0  0  0  0
 14 15  1  0  0  0  0
 15 16  2  0  0  0  0
 15  2  1  0  0  0  0
 18 13  1  0  0  0  0
 19 12  1  0  0  0  0
 20 19  1  0  0  0  0
 20 27  1  0  0  0  0
 21 20  2  0  0  0  0
 22 24  1  0  0  0  0
 22 21  1  0  0  0  0
 23 22  2  0  0  0  0
 24 25  1  0  0  0  0
 25 26  2  0  0  0  0
 25 19  1  0  0  0  0
 28 21  1  0  0  0  0
 29 24  1  0  0  0  0
 30  1  1  0  0  0  0
 30 31  2  0  0  0  0
 32 30  2  0  0  0  0
 33 30  1  0  0  0  0
 34 35  1  0  0  0  0
 34 33  2  0  0  0  0
 36 38  2  0  0  0  0
 36 34  1  0  0  0  0
 37 36  1  0  0  0  0
 38 40  1  0  0  0  0
 39 38  1  0  0  0  0
 40 33  1  0  0  0  0
M  END
>  <minimizedAffinity>
-6.25063658

>  <minimizedRMSD>
1.7796303

$$$$
