
 OpenBabel03212520313D

 40 43  0  0  0  0  0  0  0  0999 V2000
   42.6090   82.1680   62.5230 C   0  0  0  0  0  0  0  0  0  0  0  0
   43.2640   81.1090   61.9130 C   0  0  0  0  0  0  0  0  0  0  0  0
   44.6240   80.9460   62.0450 C   0  0  0  0  0  0  0  0  0  0  0  0
   45.4220   81.8200   62.7880 C   0  0  0  0  0  0  0  0  0  0  0  0
   44.7960   82.8790   63.4040 C   0  0  0  0  0  0  0  0  0  0  0  0
   43.4270   83.0420   63.2700 C   0  0  0  0  0  0  0  0  0  0  0  0
   45.1560   80.1190   61.5710 H   0  0  0  0  0  0  0  0  0  0  0  0
   46.4790   81.6630   62.8700 H   0  0  0  0  0  0  0  0  0  0  0  0
   45.3630   83.5810   63.9890 H   0  0  0  0  0  0  0  0  0  0  0  0
   42.9470   83.8780   63.7590 H   0  0  0  0  0  0  0  0  0  0  0  0
   41.3900   78.0940   60.8900 C   0  0  0  0  0  0  0  0  0  0  0  0
   41.1380   78.3380   59.5560 C   0  0  0  0  0  0  0  0  0  0  0  0
   41.6220   79.5410   59.0320 C   0  0  0  0  0  0  0  0  0  0  0  0
   42.3050   80.3990   59.8500 N   0  0  0  0  0  0  0  0  0  0  0  0
   42.5260   80.1270   61.1270 C   0  0  0  0  0  0  0  0  0  0  0  0
   42.0650   78.9750   61.6360 N   0  0  0  0  0  0  0  0  0  0  0  0
   41.0150   77.1650   61.2900 H   0  0  0  0  0  0  0  0  0  0  0  0
   41.4650   79.7960   58.0100 H   0  0  0  0  0  0  0  0  0  0  0  0
   40.4230   77.4130   58.7540 N   0  0  0  0  0  0  0  0  0  0  0  0
   39.1180   77.6700   58.6740 C   0  0  0  0  0  0  0  0  0  0  0  0
   38.3220   76.8150   57.9070 C   0  0  0  0  0  0  0  0  0  0  0  0
   38.9070   75.7410   57.2620 C   0  0  0  0  0  0  0  0  0  0  0  0
   38.2630   74.9270   56.5550 O   0  0  0  0  0  0  0  0  0  0  0  0
   40.2530   75.5410   57.3920 N   0  0  0  0  0  0  0  0  0  0  0  0
   41.0280   76.3720   58.1380 C   0  0  0  0  0  0  0  0  0  0  0  0
   42.2510   76.2060   58.2650 O   0  0  0  0  0  0  0  0  0  0  0  0
   38.6210   78.4970   59.1610 H   0  0  0  0  0  0  0  0  0  0  0  0
   37.2670   76.9730   57.8060 H   0  0  0  0  0  0  0  0  0  0  0  0
   40.7860   74.7570   56.9420 H   0  0  0  0  0  0  0  0  0  0  0  0
   40.9030   82.4080   62.3710 S   0  0  0  0  0  0  0  0  0  0  0  0
   40.3520   83.0300   63.6280 O   0  0  0  0  0  0  0  0  0  0  0  0
   40.2690   81.0220   62.3250 O   0  0  0  0  0  0  0  0  0  0  0  0
   40.3810   83.3790   61.0470 C   0  0  0  0  0  0  0  0  0  0  0  0
   39.3170   84.1560   60.5810 C   0  0  0  0  0  0  0  0  0  0  0  0
   38.5020   84.1660   61.3030 H   0  0  0  0  0  0  0  0  0  0  0  0
   39.6260   84.6770   59.3420 C   0  0  0  0  0  0  0  0  0  0  0  0
   38.8860   85.3010   58.8650 H   0  0  0  0  0  0  0  0  0  0  0  0
   40.8850   84.1890   59.0960 C   0  0  0  0  0  0  0  0  0  0  0  0
   41.3680   84.4680   58.1460 H   0  0  0  0  0  0  0  0  0  0  0  0
   41.3060   83.4450   60.0870 O   0  0  0  0  0  0  0  0  0  0  0  0
  1  6  1  0  0  0  0
  2  3  1  0  0  0  0
  2  1  2  0  0  0  0
  3  4  2  0  0  0  0
  4  8  1  0  0  0  0
  4  5  1  0  0  0  0
  5  9  1  0  0  0  0
  6  5  2  0  0  0  0
  6 10  1  0  0  0  0
  7  3  1  0  0  0  0
 11 17  1  0  0  0  0
 11 16  1  0  0  0  0
 12 11  2  0  0  0  0
 13 12  1  0  0  0  0
 13 14  2  0  0  0  0
 14 15  1  0  0  0  0
 15 16  2  0  0  0  0
 15  2  1  0  0  0  0
 18 13  1  0  0  0  0
 19 12  1  0  0  0  0
 20 19  1  0  0  0  0
 20 27  1  0  0  0  0
 21 20  2  0  0  0  0
 22 24  1  0  0  0  0
 22 21  1  0  0  0  0
 23 22  2  0  0  0  0
 24 25  1  0  0  0  0
 25 26  2  0  0  0  0
 25 19  1  0  0  0  0
 28 21  1  0  0  0  0
 29 24  1  0  0  0  0
 30  1  1  0  0  0  0
 30 31  2  0  0  0  0
 32 30  2  0  0  0  0
 33 30  1  0  0  0  0
 34 33  2  0  0  0  0
 34 35  1  0  0  0  0
 36 34  1  0  0  0  0
 37 36  1  0  0  0  0
 38 36  2  0  0  0  0
 38 40  1  0  0  0  0
 39 38  1  0  0  0  0
 40 33  1  0  0  0  0
M  END
>  <minimizedAffinity>
-6.15426588

>  <minimizedRMSD>
2.97866011

$$$$
