
 OpenBabel03212520273D

 27 29  0  0  0  0  0  0  0  0999 V2000
   43.1250   85.0200   61.2370 C   0  0  0  0  0  0  0  0  0  0  0  0
   44.3970   84.8460   61.7490 C   0  0  0  0  0  0  0  0  0  0  0  0
   45.1470   85.6910   60.9240 C   0  0  0  0  0  0  0  0  0  0  0  0
   44.3630   86.2970   60.0140 N   0  0  0  0  0  0  0  0  0  0  0  0
   43.1050   85.8810   60.2070 N   0  0  0  0  0  0  0  0  0  0  0  0
   44.7320   84.2320   62.5630 H   0  0  0  0  0  0  0  0  0  0  0  0
   46.2280   85.8440   61.0030 H   0  0  0  0  0  0  0  0  0  0  0  0
   40.7820   83.1000   63.4080 C   0  0  0  0  0  0  0  0  0  0  0  0
   41.9550   83.7170   62.9860 C   0  0  0  0  0  0  0  0  0  0  0  0
   41.9260   84.3470   61.7490 C   0  0  0  0  0  0  0  0  0  0  0  0
   40.7770   84.3430   61.0040 N   0  0  0  0  0  0  0  0  0  0  0  0
   39.6690   83.7190   61.4830 C   0  0  0  0  0  0  0  0  0  0  0  0
   39.6660   83.1060   62.6650 N   0  0  0  0  0  0  0  0  0  0  0  0
   40.7160   82.5870   64.3530 H   0  0  0  0  0  0  0  0  0  0  0  0
   42.8430   83.7000   63.6010 H   0  0  0  0  0  0  0  0  0  0  0  0
   38.8560   83.8110   60.7740 H   0  0  0  0  0  0  0  0  0  0  0  0
   44.7910   87.2410   58.9940 C   0  0  0  0  0  0  0  0  0  0  0  0
   45.8820   87.2180   58.8890 H   0  0  0  0  0  0  0  0  0  0  0  0
   44.2800   86.9440   58.0590 H   0  0  0  0  0  0  0  0  0  0  0  0
   44.3590   88.6080   59.4090 C   0  0  0  0  0  0  0  0  0  0  0  0
   44.2310   89.1210   60.6830 C   0  0  0  0  0  0  0  0  0  0  0  0
   44.4430   88.5460   61.5810 H   0  0  0  0  0  0  0  0  0  0  0  0
   43.8050   90.4240   60.5580 C   0  0  0  0  0  0  0  0  0  0  0  0
   43.6050   91.1150   61.3680 H   0  0  0  0  0  0  0  0  0  0  0  0
   43.6990   90.6290   59.1820 C   0  0  0  0  0  0  0  0  0  0  0  0
   43.3790   91.5720   58.7250 H   0  0  0  0  0  0  0  0  0  0  0  0
   44.0320   89.5410   58.5280 O   0  0  0  0  0  0  0  0  0  0  0  0
  1  2  1  0  0  0  0
  1 10  1  0  0  0  0
  2  6  1  0  0  0  0
  3  7  1  0  0  0  0
  3  2  2  0  0  0  0
  4  5  1  0  0  0  0
  4  3  1  0  0  0  0
  5  1  2  0  0  0  0
  8 14  1  0  0  0  0
  9  8  1  0  0  0  0
  9 15  1  0  0  0  0
 10  9  2  0  0  0  0
 11 12  2  0  0  0  0
 11 10  1  0  0  0  0
 12 13  1  0  0  0  0
 13  8  2  0  0  0  0
 16 12  1  0  0  0  0
 17 20  1  0  0  0  0
 17  4  1  0  0  0  0
 18 17  1  0  0  0  0
 19 17  1  0  0  0  0
 20 21  2  0  0  0  0
 21 22  1  0  0  0  0
 23 21  1  0  0  0  0
 23 24  1  0  0  0  0
 25 23  2  0  0  0  0
 26 25  1  0  0  0  0
 27 25  1  0  0  0  0
 27 20  1  0  0  0  0
M  END
>  <minimizedAffinity>
-4.58197498

>  <minimizedRMSD>
1.17911816

$$$$
