
 OpenBabel03212520333D

 40 43  0  0  0  0  0  0  0  0999 V2000
   38.1470   75.3040   54.9480 C   0  0  0  0  0  0  0  0  0  0  0  0
   39.0100   74.2210   55.0240 C   0  0  0  0  0  0  0  0  0  0  0  0
   39.4940   73.6210   53.8850 C   0  0  0  0  0  0  0  0  0  0  0  0
   39.1560   74.0510   52.5990 C   0  0  0  0  0  0  0  0  0  0  0  0
   38.3000   75.1250   52.4970 C   0  0  0  0  0  0  0  0  0  0  0  0
   37.8140   75.7280   53.6450 C   0  0  0  0  0  0  0  0  0  0  0  0
   40.1740   72.7670   53.9260 H   0  0  0  0  0  0  0  0  0  0  0  0
   39.5520   73.5590   51.7330 H   0  0  0  0  0  0  0  0  0  0  0  0
   38.0080   75.4970   51.5310 H   0  0  0  0  0  0  0  0  0  0  0  0
   37.1430   76.5710   53.5500 H   0  0  0  0  0  0  0  0  0  0  0  0
   39.1560   72.3450   58.2030 C   0  0  0  0  0  0  0  0  0  0  0  0
   40.3490   72.7740   58.7480 C   0  0  0  0  0  0  0  0  0  0  0  0
   41.0830   73.7050   58.0060 C   0  0  0  0  0  0  0  0  0  0  0  0
   40.5930   74.1360   56.8030 N   0  0  0  0  0  0  0  0  0  0  0  0
   39.4420   73.7000   56.3160 C   0  0  0  0  0  0  0  0  0  0  0  0
   38.7330   72.8060   57.0220 N   0  0  0  0  0  0  0  0  0  0  0  0
   38.5930   71.6270   58.7790 H   0  0  0  0  0  0  0  0  0  0  0  0
   42.0130   74.0800   58.3650 H   0  0  0  0  0  0  0  0  0  0  0  0
   40.8090   72.2920   59.9990 N   0  0  0  0  0  0  0  0  0  0  0  0
   41.7410   71.3470   59.8990 C   0  0  0  0  0  0  0  0  0  0  0  0
   42.2620   70.8040   61.0770 C   0  0  0  0  0  0  0  0  0  0  0  0
   41.7970   71.2610   62.2970 C   0  0  0  0  0  0  0  0  0  0  0  0
   42.2110   70.8270   63.4000 O   0  0  0  0  0  0  0  0  0  0  0  0
   40.8370   72.2350   62.3200 N   0  0  0  0  0  0  0  0  0  0  0  0
   40.3310   72.7630   61.1740 C   0  0  0  0  0  0  0  0  0  0  0  0
   39.4610   73.6460   61.1770 O   0  0  0  0  0  0  0  0  0  0  0  0
   42.1330   70.9610   58.9680 H   0  0  0  0  0  0  0  0  0  0  0  0
   43.0140   70.0410   61.0590 H   0  0  0  0  0  0  0  0  0  0  0  0
   40.4230   72.6440   63.1920 H   0  0  0  0  0  0  0  0  0  0  0  0
   37.5130   76.0780   56.3590 S   0  0  0  0  0  0  0  0  0  0  0  0
   36.6360   75.1220   57.1260 O   0  0  0  0  0  0  0  0  0  0  0  0
   36.5560   77.1600   55.8720 O   0  0  0  0  0  0  0  0  0  0  0  0
   38.6670   76.7160   57.4670 C   0  0  0  0  0  0  0  0  0  0  0  0
   39.7140   77.6350   57.5870 C   0  0  0  0  0  0  0  0  0  0  0  0
   39.8850   78.1500   56.6440 H   0  0  0  0  0  0  0  0  0  0  0  0
   40.2120   77.6090   58.8720 C   0  0  0  0  0  0  0  0  0  0  0  0
   41.0300   78.2750   59.1030 H   0  0  0  0  0  0  0  0  0  0  0  0
   39.4400   76.6620   59.4960 C   0  0  0  0  0  0  0  0  0  0  0  0
   39.6440   76.4480   60.5580 H   0  0  0  0  0  0  0  0  0  0  0  0
   38.5560   76.1570   58.6730 O   0  0  0  0  0  0  0  0  0  0  0  0
  1  2  1  0  0  0  0
  1 30  1  0  0  0  0
  2 15  1  0  0  0  0
  3  7  1  0  0  0  0
  3  2  2  0  0  0  0
  4  3  1  0  0  0  0
  5  4  2  0  0  0  0
  5  6  1  0  0  0  0
  6  1  2  0  0  0  0
  8  4  1  0  0  0  0
  9  5  1  0  0  0  0
 10  6  1  0  0  0  0
 11 12  1  0  0  0  0
 11 17  1  0  0  0  0
 12 19  1  0  0  0  0
 13 18  1  0  0  0  0
 13 12  2  0  0  0  0
 14 13  1  0  0  0  0
 15 14  2  0  0  0  0
 15 16  1  0  0  0  0
 16 11  2  0  0  0  0
 19 25  1  0  0  0  0
 20 19  1  0  0  0  0
 20 21  2  0  0  0  0
 21 22  1  0  0  0  0
 22 24  1  0  0  0  0
 22 23  2  0  0  0  0
 24 29  1  0  0  0  0
 25 26  2  0  0  0  0
 25 24  1  0  0  0  0
 27 20  1  0  0  0  0
 28 21  1  0  0  0  0
 30 31  2  0  0  0  0
 30 33  1  0  0  0  0
 32 30  2  0  0  0  0
 33 34  2  0  0  0  0
 33 40  1  0  0  0  0
 34 36  1  0  0  0  0
 35 34  1  0  0  0  0
 36 37  1  0  0  0  0
 36 38  2  0  0  0  0
 38 39  1  0  0  0  0
 40 38  1  0  0  0  0
M  END
>  <minimizedAffinity>
-6.67471647

$$$$

 OpenBabel03212520333D

 40 43  0  0  0  0  0  0  0  0999 V2000
   44.2450   67.0380   60.7330 C   0  0  0  0  0  0  0  0  0  0  0  0
   44.1290   67.9370   59.6830 C   0  0  0  0  0  0  0  0  0  0  0  0
   44.7250   67.6890   58.4680 C   0  0  0  0  0  0  0  0  0  0  0  0
   45.4750   66.5370   58.2140 C   0  0  0  0  0  0  0  0  0  0  0  0
   45.6050   65.6280   59.2390 C   0  0  0  0  0  0  0  0  0  0  0  0
   45.0030   65.8800   60.4620 C   0  0  0  0  0  0  0  0  0  0  0  0
   44.6450   68.3850   57.6320 H   0  0  0  0  0  0  0  0  0  0  0  0
   45.9250   66.3750   57.2550 H   0  0  0  0  0  0  0  0  0  0  0  0
   46.1700   64.7240   59.0970 H   0  0  0  0  0  0  0  0  0  0  0  0
   45.1130   65.1570   61.2590 H   0  0  0  0  0  0  0  0  0  0  0  0
   41.3510   70.3700   59.7650 C   0  0  0  0  0  0  0  0  0  0  0  0
   41.9860   71.5350   60.1470 C   0  0  0  0  0  0  0  0  0  0  0  0
   43.3640   71.4580   60.3680 C   0  0  0  0  0  0  0  0  0  0  0  0
   44.0020   70.2600   60.2000 N   0  0  0  0  0  0  0  0  0  0  0  0
   43.3560   69.1640   59.8330 C   0  0  0  0  0  0  0  0  0  0  0  0
   42.0330   69.2310   59.6190 N   0  0  0  0  0  0  0  0  0  0  0  0
   40.2870   70.4340   59.5950 H   0  0  0  0  0  0  0  0  0  0  0  0
   43.9200   72.3180   60.6650 H   0  0  0  0  0  0  0  0  0  0  0  0
   41.2730   72.7500   60.3070 N   0  0  0  0  0  0  0  0  0  0  0  0
   41.0440   73.3910   59.1630 C   0  0  0  0  0  0  0  0  0  0  0  0
   40.3470   74.6020   59.2120 C   0  0  0  0  0  0  0  0  0  0  0  0
   39.9230   75.0920   60.4330 C   0  0  0  0  0  0  0  0  0  0  0  0
   39.2930   76.1690   60.5630 O   0  0  0  0  0  0  0  0  0  0  0  0
   40.1960   74.3760   61.5660 N   0  0  0  0  0  0  0  0  0  0  0  0
   40.8730   73.1980   61.5200 C   0  0  0  0  0  0  0  0  0  0  0  0
   41.1290   72.5370   62.5370 O   0  0  0  0  0  0  0  0  0  0  0  0
   41.3570   73.0460   58.1870 H   0  0  0  0  0  0  0  0  0  0  0  0
   40.1340   75.1620   58.3230 H   0  0  0  0  0  0  0  0  0  0  0  0
   39.9170   74.6640   62.5350 H   0  0  0  0  0  0  0  0  0  0  0  0
   43.5160   67.3220   62.2740 S   0  0  0  0  0  0  0  0  0  0  0  0
   43.7250   68.7550   62.6920 O   0  0  0  0  0  0  0  0  0  0  0  0
   44.3120   66.5120   63.2920 O   0  0  0  0  0  0  0  0  0  0  0  0
   41.8290   66.9940   62.3960 C   0  0  0  0  0  0  0  0  0  0  0  0
   40.7850   66.2700   61.8140 C   0  0  0  0  0  0  0  0  0  0  0  0
   41.1430   65.6920   60.9640 H   0  0  0  0  0  0  0  0  0  0  0  0
   39.6120   66.5100   62.4980 C   0  0  0  0  0  0  0  0  0  0  0  0
   38.7210   66.0080   62.1500 H   0  0  0  0  0  0  0  0  0  0  0  0
   39.9910   67.3830   63.4860 C   0  0  0  0  0  0  0  0  0  0  0  0
   39.2170   67.7360   64.1860 H   0  0  0  0  0  0  0  0  0  0  0  0
   41.2700   67.6520   63.4140 O   0  0  0  0  0  0  0  0  0  0  0  0
  1 30  1  0  0  0  0
  2 15  1  0  0  0  0
  2  1  2  0  0  0  0
  3  2  1  0  0  0  0
  4  3  2  0  0  0  0
  4  5  1  0  0  0  0
  5  6  2  0  0  0  0
  6  1  1  0  0  0  0
  6 10  1  0  0  0  0
  7  3  1  0  0  0  0
  8  4  1  0  0  0  0
  9  5  1  0  0  0  0
 11 12  1  0  0  0  0
 12 19  1  0  0  0  0
 12 13  2  0  0  0  0
 13 18  1  0  0  0  0
 14 13  1  0  0  0  0
 15 14  2  0  0  0  0
 16 11  2  0  0  0  0
 16 15  1  0  0  0  0
 17 11  1  0  0  0  0
 19 25  1  0  0  0  0
 20 21  2  0  0  0  0
 20 19  1  0  0  0  0
 21 22  1  0  0  0  0
 22 23  2  0  0  0  0
 22 24  1  0  0  0  0
 24 29  1  0  0  0  0
 25 24  1  0  0  0  0
 25 26  2  0  0  0  0
 27 20  1  0  0  0  0
 28 21  1  0  0  0  0
 30 33  1  0  0  0  0
 30 31  2  0  0  0  0
 30 32  2  0  0  0  0
 33 40  1  0  0  0  0
 34 33  2  0  0  0  0
 34 36  1  0  0  0  0
 35 34  1  0  0  0  0
 36 38  2  0  0  0  0
 37 36  1  0  0  0  0
 38 39  1  0  0  0  0
 40 38  1  0  0  0  0
M  END
>  <minimizedAffinity>
-6.14723206

$$$$

 OpenBabel03212520333D

 40 43  0  0  0  0  0  0  0  0999 V2000
   41.9480   71.1900   60.3980 C   0  0  0  0  0  0  0  0  0  0  0  0
   41.3700   70.8610   59.1810 C   0  0  0  0  0  0  0  0  0  0  0  0
   41.4070   69.5710   58.7040 C   0  0  0  0  0  0  0  0  0  0  0  0
   42.0180   68.5240   59.4000 C   0  0  0  0  0  0  0  0  0  0  0  0
   42.5990   68.8240   60.6110 C   0  0  0  0  0  0  0  0  0  0  0  0
   42.5610   70.1240   61.0890 C   0  0  0  0  0  0  0  0  0  0  0  0
   40.9580   69.2950   57.7480 H   0  0  0  0  0  0  0  0  0  0  0  0
   42.0280   67.5300   58.9990 H   0  0  0  0  0  0  0  0  0  0  0  0
   43.0830   68.0560   61.1870 H   0  0  0  0  0  0  0  0  0  0  0  0
   43.0210   70.3460   62.0420 H   0  0  0  0  0  0  0  0  0  0  0  0
   40.6910   73.7410   56.9690 C   0  0  0  0  0  0  0  0  0  0  0  0
   39.3130   73.7380   56.8910 C   0  0  0  0  0  0  0  0  0  0  0  0
   38.6430   72.7400   57.6040 C   0  0  0  0  0  0  0  0  0  0  0  0
   39.3690   71.8350   58.3300 N   0  0  0  0  0  0  0  0  0  0  0  0
   40.6910   71.8730   58.3790 C   0  0  0  0  0  0  0  0  0  0  0  0
   41.3410   72.8280   57.6970 N   0  0  0  0  0  0  0  0  0  0  0  0
   41.2040   74.5130   56.4170 H   0  0  0  0  0  0  0  0  0  0  0  0
   37.5790   72.6770   57.5900 H   0  0  0  0  0  0  0  0  0  0  0  0
   38.6120   74.7010   56.1220 N   0  0  0  0  0  0  0  0  0  0  0  0
   38.0730   75.6780   56.8490 C   0  0  0  0  0  0  0  0  0  0  0  0
   37.3590   76.6790   56.1850 C   0  0  0  0  0  0  0  0  0  0  0  0
   37.2350   76.6250   54.8090 C   0  0  0  0  0  0  0  0  0  0  0  0
   36.6110   77.4830   54.1380 O   0  0  0  0  0  0  0  0  0  0  0  0
   37.8170   75.5900   54.1300 N   0  0  0  0  0  0  0  0  0  0  0  0
   38.5110   74.6160   54.7750 C   0  0  0  0  0  0  0  0  0  0  0  0
   39.0450   73.6710   54.1750 O   0  0  0  0  0  0  0  0  0  0  0  0
   38.1450   75.7590   57.9250 H   0  0  0  0  0  0  0  0  0  0  0  0
   36.9040   77.4900   56.7180 H   0  0  0  0  0  0  0  0  0  0  0  0
   37.7780   75.4630   53.0900 H   0  0  0  0  0  0  0  0  0  0  0  0
   41.9280   72.8020   61.0230 S   0  0  0  0  0  0  0  0  0  0  0  0
   42.9180   73.6600   60.2780 O   0  0  0  0  0  0  0  0  0  0  0  0
   42.4820   72.7290   62.4410 O   0  0  0  0  0  0  0  0  0  0  0  0
   40.4110   73.6190   60.9850 C   0  0  0  0  0  0  0  0  0  0  0  0
   39.0670   73.5000   61.3480 C   0  0  0  0  0  0  0  0  0  0  0  0
   38.8820   72.5450   61.8350 H   0  0  0  0  0  0  0  0  0  0  0  0
   38.3810   74.6370   60.9760 C   0  0  0  0  0  0  0  0  0  0  0  0
   37.3250   74.6770   61.2000 H   0  0  0  0  0  0  0  0  0  0  0  0
   39.3470   75.4170   60.3920 C   0  0  0  0  0  0  0  0  0  0  0  0
   39.0470   76.4030   60.0020 H   0  0  0  0  0  0  0  0  0  0  0  0
   40.5100   74.8170   60.4050 O   0  0  0  0  0  0  0  0  0  0  0  0
  1 30  1  0  0  0  0
  1  6  1  0  0  0  0
  2  1  2  0  0  0  0
  3  2  1  0  0  0  0
  3  4  2  0  0  0  0
  4  5  1  0  0  0  0
  5  6  2  0  0  0  0
  5  9  1  0  0  0  0
  6 10  1  0  0  0  0
  7  3  1  0  0  0  0
  8  4  1  0  0  0  0
 11 16  1  0  0  0  0
 12 11  2  0  0  0  0
 12 13  1  0  0  0  0
 13 14  2  0  0  0  0
 14 15  1  0  0  0  0
 15  2  1  0  0  0  0
 16 15  2  0  0  0  0
 17 11  1  0  0  0  0
 18 13  1  0  0  0  0
 19 20  1  0  0  0  0
 19 12  1  0  0  0  0
 20 27  1  0  0  0  0
 21 28  1  0  0  0  0
 21 20  2  0  0  0  0
 22 21  1  0  0  0  0
 23 22  2  0  0  0  0
 24 25  1  0  0  0  0
 24 22  1  0  0  0  0
 25 19  1  0  0  0  0
 26 25  2  0  0  0  0
 29 24  1  0  0  0  0
 30 32  2  0  0  0  0
 31 30  2  0  0  0  0
 33 30  1  0  0  0  0
 33 34  2  0  0  0  0
 34 35  1  0  0  0  0
 36 37  1  0  0  0  0
 36 34  1  0  0  0  0
 38 40  1  0  0  0  0
 38 36  2  0  0  0  0
 39 38  1  0  0  0  0
 40 33  1  0  0  0  0
M  END
>  <minimizedAffinity>
-6.10715914

$$$$

 OpenBabel03212520333D

 40 43  0  0  0  0  0  0  0  0999 V2000
   41.7130   71.2020   60.3840 C   0  0  0  0  0  0  0  0  0  0  0  0
   41.2300   70.9560   59.1070 C   0  0  0  0  0  0  0  0  0  0  0  0
   41.3730   69.7190   58.5210 C   0  0  0  0  0  0  0  0  0  0  0  0
   42.0020   68.6470   59.1600 C   0  0  0  0  0  0  0  0  0  0  0  0
   42.4900   68.8650   60.4290 C   0  0  0  0  0  0  0  0  0  0  0  0
   42.3450   70.1110   61.0160 C   0  0  0  0  0  0  0  0  0  0  0  0
   41.0000   69.5080   57.5170 H   0  0  0  0  0  0  0  0  0  0  0  0
   42.0950   67.6960   58.6740 H   0  0  0  0  0  0  0  0  0  0  0  0
   42.9820   68.0740   60.9650 H   0  0  0  0  0  0  0  0  0  0  0  0
   42.7320   70.2690   62.0140 H   0  0  0  0  0  0  0  0  0  0  0  0
   40.4850   73.6960   56.7440 C   0  0  0  0  0  0  0  0  0  0  0  0
   39.1500   73.9450   56.9870 C   0  0  0  0  0  0  0  0  0  0  0  0
   38.5300   73.1610   57.9650 C   0  0  0  0  0  0  0  0  0  0  0  0
   39.2610   72.2060   58.6180 N   0  0  0  0  0  0  0  0  0  0  0  0
   40.5420   71.9990   58.3550 C   0  0  0  0  0  0  0  0  0  0  0  0
   41.1430   72.7470   57.4180 N   0  0  0  0  0  0  0  0  0  0  0  0
   40.9600   74.3030   55.9880 H   0  0  0  0  0  0  0  0  0  0  0  0
   37.5020   73.2980   58.2060 H   0  0  0  0  0  0  0  0  0  0  0  0
   38.4410   74.9470   56.2790 N   0  0  0  0  0  0  0  0  0  0  0  0
   38.1950   74.6330   55.0080 C   0  0  0  0  0  0  0  0  0  0  0  0
   37.5000   75.5560   54.2220 C   0  0  0  0  0  0  0  0  0  0  0  0
   37.0950   76.7540   54.7810 C   0  0  0  0  0  0  0  0  0  0  0  0
   36.4670   77.6350   54.1440 O   0  0  0  0  0  0  0  0  0  0  0  0
   37.3840   77.0060   56.0930 N   0  0  0  0  0  0  0  0  0  0  0  0
   38.0600   76.1090   56.8590 C   0  0  0  0  0  0  0  0  0  0  0  0
   38.3300   76.3210   58.0500 O   0  0  0  0  0  0  0  0  0  0  0  0
   38.4930   73.7090   54.5310 H   0  0  0  0  0  0  0  0  0  0  0  0
   37.2730   75.3570   53.1930 H   0  0  0  0  0  0  0  0  0  0  0  0
   37.1190   77.8830   56.6040 H   0  0  0  0  0  0  0  0  0  0  0  0
   41.5580   72.7460   61.1460 S   0  0  0  0  0  0  0  0  0  0  0  0
   42.3220   72.7620   62.4450 O   0  0  0  0  0  0  0  0  0  0  0  0
   40.0980   72.8840   61.5640 O   0  0  0  0  0  0  0  0  0  0  0  0
   42.0780   74.1090   60.2280 C   0  0  0  0  0  0  0  0  0  0  0  0
   43.1720   74.6450   59.5440 C   0  0  0  0  0  0  0  0  0  0  0  0
   44.0270   73.9730   59.5960 H   0  0  0  0  0  0  0  0  0  0  0  0
   42.8320   75.8680   59.0070 C   0  0  0  0  0  0  0  0  0  0  0  0
   43.5920   76.3950   58.4480 H   0  0  0  0  0  0  0  0  0  0  0  0
   41.5250   76.0340   59.3900 C   0  0  0  0  0  0  0  0  0  0  0  0
   41.0100   76.9570   59.0790 H   0  0  0  0  0  0  0  0  0  0  0  0
   41.1060   75.0120   60.0930 O   0  0  0  0  0  0  0  0  0  0  0  0
  1  6  1  0  0  0  0
  1 30  1  0  0  0  0
  2  1  2  0  0  0  0
  3  2  1  0  0  0  0
  3  4  2  0  0  0  0
  4  5  1  0  0  0  0
  5  9  1  0  0  0  0
  5  6  2  0  0  0  0
  6 10  1  0  0  0  0
  7  3  1  0  0  0  0
  8  4  1  0  0  0  0
 11 12  2  0  0  0  0
 11 16  1  0  0  0  0
 12 13  1  0  0  0  0
 13 18  1  0  0  0  0
 13 14  2  0  0  0  0
 15 14  1  0  0  0  0
 15  2  1  0  0  0  0
 16 15  2  0  0  0  0
 17 11  1  0  0  0  0
 19 25  1  0  0  0  0
 19 12  1  0  0  0  0
 20 19  1  0  0  0  0
 21 22  1  0  0  0  0
 21 20  2  0  0  0  0
 22 24  1  0  0  0  0
 23 22  2  0  0  0  0
 24 29  1  0  0  0  0
 24 25  1  0  0  0  0
 25 26  2  0  0  0  0
 27 20  1  0  0  0  0
 28 21  1  0  0  0  0
 30 32  2  0  0  0  0
 30 31  2  0  0  0  0
 33 30  1  0  0  0  0
 34 35  1  0  0  0  0
 34 33  2  0  0  0  0
 36 38  2  0  0  0  0
 36 34  1  0  0  0  0
 37 36  1  0  0  0  0
 38 40  1  0  0  0  0
 39 38  1  0  0  0  0
 40 33  1  0  0  0  0
M  END
>  <minimizedAffinity>
-6.0730567

$$$$

 OpenBabel03212520333D

 40 43  0  0  0  0  0  0  0  0999 V2000
   44.3160   69.8380   59.4840 C   0  0  0  0  0  0  0  0  0  0  0  0
   42.9890   69.7460   59.8790 C   0  0  0  0  0  0  0  0  0  0  0  0
   42.5750   68.7610   60.7460 C   0  0  0  0  0  0  0  0  0  0  0  0
   43.4450   67.8060   61.2780 C   0  0  0  0  0  0  0  0  0  0  0  0
   44.7670   67.8760   60.9030 C   0  0  0  0  0  0  0  0  0  0  0  0
   45.1820   68.8680   60.0290 C   0  0  0  0  0  0  0  0  0  0  0  0
   41.5350   68.6730   61.0660 H   0  0  0  0  0  0  0  0  0  0  0  0
   43.0880   67.0530   61.9520 H   0  0  0  0  0  0  0  0  0  0  0  0
   45.4790   67.1660   61.2840 H   0  0  0  0  0  0  0  0  0  0  0  0
   46.2240   68.9130   59.7430 H   0  0  0  0  0  0  0  0  0  0  0  0
   40.5690   72.5310   59.6960 C   0  0  0  0  0  0  0  0  0  0  0  0
   40.1320   72.4600   58.3890 C   0  0  0  0  0  0  0  0  0  0  0  0
   40.6820   71.4510   57.5930 C   0  0  0  0  0  0  0  0  0  0  0  0
   41.6060   70.6000   58.1360 N   0  0  0  0  0  0  0  0  0  0  0  0
   41.9980   70.7010   59.3970 C   0  0  0  0  0  0  0  0  0  0  0  0
   41.4750   71.6680   60.1660 N   0  0  0  0  0  0  0  0  0  0  0  0
   40.1420   73.3110   60.3060 H   0  0  0  0  0  0  0  0  0  0  0  0
   40.3910   71.3360   56.5740 H   0  0  0  0  0  0  0  0  0  0  0  0
   39.1720   73.3700   57.8770 N   0  0  0  0  0  0  0  0  0  0  0  0
   39.4930   74.6490   58.0640 C   0  0  0  0  0  0  0  0  0  0  0  0
   38.6110   75.6260   57.5960 C   0  0  0  0  0  0  0  0  0  0  0  0
   37.4450   75.2400   56.9610 C   0  0  0  0  0  0  0  0  0  0  0  0
   36.6020   76.0540   56.5120 O   0  0  0  0  0  0  0  0  0  0  0  0
   37.1840   73.9070   56.8060 N   0  0  0  0  0  0  0  0  0  0  0  0
   38.0410   72.9550   57.2600 C   0  0  0  0  0  0  0  0  0  0  0  0
   37.8200   71.7420   57.1280 O   0  0  0  0  0  0  0  0  0  0  0  0
   40.3920   74.9950   58.5550 H   0  0  0  0  0  0  0  0  0  0  0  0
   38.8170   76.6710   57.7180 H   0  0  0  0  0  0  0  0  0  0  0  0
   36.3290   73.5170   56.3390 H   0  0  0  0  0  0  0  0  0  0  0  0
   44.8690   71.0570   58.3900 S   0  0  0  0  0  0  0  0  0  0  0  0
   44.4620   70.7120   56.9800 O   0  0  0  0  0  0  0  0  0  0  0  0
   46.3910   70.9740   58.3740 O   0  0  0  0  0  0  0  0  0  0  0  0
   44.3340   72.6650   58.6990 C   0  0  0  0  0  0  0  0  0  0  0  0
   43.6880   73.7610   58.1180 C   0  0  0  0  0  0  0  0  0  0  0  0
   43.4150   73.5450   57.0870 H   0  0  0  0  0  0  0  0  0  0  0  0
   43.5950   74.7870   59.0340 C   0  0  0  0  0  0  0  0  0  0  0  0
   43.1150   75.6990   58.7130 H   0  0  0  0  0  0  0  0  0  0  0  0
   44.1950   74.2700   60.1550 C   0  0  0  0  0  0  0  0  0  0  0  0
   44.2500   74.9090   61.0510 H   0  0  0  0  0  0  0  0  0  0  0  0
   44.6150   73.0480   59.9450 O   0  0  0  0  0  0  0  0  0  0  0  0
  1  2  2  0  0  0  0
  1  6  1  0  0  0  0
  2  3  1  0  0  0  0
  3  7  1  0  0  0  0
  3  4  2  0  0  0  0
  4  8  1  0  0  0  0
  5  4  1  0  0  0  0
  5  9  1  0  0  0  0
  6  5  2  0  0  0  0
 10  6  1  0  0  0  0
 11 16  1  0  0  0  0
 11 17  1  0  0  0  0
 12 11  2  0  0  0  0
 13 14  2  0  0  0  0
 13 12  1  0  0  0  0
 14 15  1  0  0  0  0
 15  2  1  0  0  0  0
 15 16  2  0  0  0  0
 18 13  1  0  0  0  0
 19 20  1  0  0  0  0
 19 12  1  0  0  0  0
 20 27  1  0  0  0  0
 21 28  1  0  0  0  0
 21 20  2  0  0  0  0
 22 21  1  0  0  0  0
 23 22  2  0  0  0  0
 24 22  1  0  0  0  0
 24 25  1  0  0  0  0
 25 19  1  0  0  0  0
 26 25  2  0  0  0  0
 29 24  1  0  0  0  0
 30 33  1  0  0  0  0
 30  1  1  0  0  0  0
 31 30  2  0  0  0  0
 32 30  2  0  0  0  0
 33 40  1  0  0  0  0
 34 33  2  0  0  0  0
 34 36  1  0  0  0  0
 35 34  1  0  0  0  0
 36 38  2  0  0  0  0
 37 36  1  0  0  0  0
 38 39  1  0  0  0  0
 40 38  1  0  0  0  0
M  END
>  <minimizedAffinity>
-5.79717731

$$$$

 OpenBabel03212520333D

 40 43  0  0  0  0  0  0  0  0999 V2000
   41.5630   74.7970   59.7870 C   0  0  0  0  0  0  0  0  0  0  0  0
   40.9120   73.9340   60.6560 C   0  0  0  0  0  0  0  0  0  0  0  0
   39.7140   74.2820   61.2350 C   0  0  0  0  0  0  0  0  0  0  0  0
   39.0830   75.5060   60.9940 C   0  0  0  0  0  0  0  0  0  0  0  0
   39.7080   76.3800   60.1350 C   0  0  0  0  0  0  0  0  0  0  0  0
   40.9150   76.0280   59.5520 C   0  0  0  0  0  0  0  0  0  0  0  0
   39.1890   73.6150   61.9220 H   0  0  0  0  0  0  0  0  0  0  0  0
   38.1490   75.7440   61.4630 H   0  0  0  0  0  0  0  0  0  0  0  0
   39.2660   77.3350   59.9140 H   0  0  0  0  0  0  0  0  0  0  0  0
   41.3950   76.7240   58.8780 H   0  0  0  0  0  0  0  0  0  0  0  0
   42.7060   71.1670   62.3210 C   0  0  0  0  0  0  0  0  0  0  0  0
   42.4860   70.1100   61.4630 C   0  0  0  0  0  0  0  0  0  0  0  0
   41.7210   70.3720   60.3220 C   0  0  0  0  0  0  0  0  0  0  0  0
   41.2380   71.6360   60.1170 N   0  0  0  0  0  0  0  0  0  0  0  0
   41.4730   72.6240   60.9660 C   0  0  0  0  0  0  0  0  0  0  0  0
   42.2060   72.3790   62.0620 N   0  0  0  0  0  0  0  0  0  0  0  0
   43.2970   70.9610   63.2000 H   0  0  0  0  0  0  0  0  0  0  0  0
   41.5110   69.6030   59.6150 H   0  0  0  0  0  0  0  0  0  0  0  0
   43.0100   68.8190   61.7260 N   0  0  0  0  0  0  0  0  0  0  0  0
   44.1990   68.5990   61.1670 C   0  0  0  0  0  0  0  0  0  0  0  0
   44.8030   67.3550   61.3660 C   0  0  0  0  0  0  0  0  0  0  0  0
   44.1550   66.4010   62.1280 C   0  0  0  0  0  0  0  0  0  0  0  0
   44.6280   65.2600   62.3550 O   0  0  0  0  0  0  0  0  0  0  0  0
   42.9360   66.7000   62.6710 N   0  0  0  0  0  0  0  0  0  0  0  0
   42.3470   67.9100   62.4770 C   0  0  0  0  0  0  0  0  0  0  0  0
   41.2430   68.1980   62.9620 O   0  0  0  0  0  0  0  0  0  0  0  0
   44.7400   69.3150   60.5640 H   0  0  0  0  0  0  0  0  0  0  0  0
   45.7590   67.1210   60.9400 H   0  0  0  0  0  0  0  0  0  0  0  0
   42.3690   66.0440   63.2610 H   0  0  0  0  0  0  0  0  0  0  0  0
   43.0730   74.3950   59.0470 S   0  0  0  0  0  0  0  0  0  0  0  0
   44.1150   74.1330   60.1040 O   0  0  0  0  0  0  0  0  0  0  0  0
   43.5620   75.6540   58.3390 O   0  0  0  0  0  0  0  0  0  0  0  0
   43.0690   73.0400   57.9840 C   0  0  0  0  0  0  0  0  0  0  0  0
   42.4130   72.4850   56.8810 C   0  0  0  0  0  0  0  0  0  0  0  0
   41.5960   73.1250   56.5560 H   0  0  0  0  0  0  0  0  0  0  0  0
   43.0060   71.2870   56.5400 C   0  0  0  0  0  0  0  0  0  0  0  0
   42.5940   70.7500   55.6990 H   0  0  0  0  0  0  0  0  0  0  0  0
   44.0150   71.1560   57.4600 C   0  0  0  0  0  0  0  0  0  0  0  0
   44.6530   70.2600   57.4010 H   0  0  0  0  0  0  0  0  0  0  0  0
   44.0380   72.1730   58.2840 O   0  0  0  0  0  0  0  0  0  0  0  0
  1  2  1  0  0  0  0
  2 15  1  0  0  0  0
  2  3  2  0  0  0  0
  3  7  1  0  0  0  0
  4  3  1  0  0  0  0
  4  8  1  0  0  0  0
  5  4  2  0  0  0  0
  6  1  2  0  0  0  0
  6  5  1  0  0  0  0
  9  5  1  0  0  0  0
 10  6  1  0  0  0  0
 11 17  1  0  0  0  0
 12 19  1  0  0  0  0
 12 11  2  0  0  0  0
 13 12  1  0  0  0  0
 14 13  2  0  0  0  0
 14 15  1  0  0  0  0
 15 16  2  0  0  0  0
 16 11  1  0  0  0  0
 18 13  1  0  0  0  0
 19 25  1  0  0  0  0
 20 21  2  0  0  0  0
 20 19  1  0  0  0  0
 21 22  1  0  0  0  0
 22 23  2  0  0  0  0
 22 24  1  0  0  0  0
 24 29  1  0  0  0  0
 25 24  1  0  0  0  0
 25 26  2  0  0  0  0
 27 20  1  0  0  0  0
 28 21  1  0  0  0  0
 30  1  1  0  0  0  0
 30 31  2  0  0  0  0
 32 30  2  0  0  0  0
 33 40  1  0  0  0  0
 33 30  1  0  0  0  0
 34 33  2  0  0  0  0
 35 34  1  0  0  0  0
 36 34  1  0  0  0  0
 36 38  2  0  0  0  0
 37 36  1  0  0  0  0
 38 40  1  0  0  0  0
 39 38  1  0  0  0  0
M  END
>  <minimizedAffinity>
-5.75598192

$$$$

 OpenBabel03212520333D

 40 43  0  0  0  0  0  0  0  0999 V2000
   38.6740   76.2200   57.1170 C   0  0  0  0  0  0  0  0  0  0  0  0
   38.4780   75.0480   56.4030 C   0  0  0  0  0  0  0  0  0  0  0  0
   37.6090   75.0040   55.3370 C   0  0  0  0  0  0  0  0  0  0  0  0
   36.8770   76.1150   54.9100 C   0  0  0  0  0  0  0  0  0  0  0  0
   37.0530   77.2920   55.6020 C   0  0  0  0  0  0  0  0  0  0  0  0
   37.9290   77.3340   56.6750 C   0  0  0  0  0  0  0  0  0  0  0  0
   37.4430   74.0890   54.7640 H   0  0  0  0  0  0  0  0  0  0  0  0
   36.2090   76.0450   54.0750 H   0  0  0  0  0  0  0  0  0  0  0  0
   36.5150   78.1770   55.3150 H   0  0  0  0  0  0  0  0  0  0  0  0
   38.0590   78.2650   57.2100 H   0  0  0  0  0  0  0  0  0  0  0  0
   41.1400   72.5180   56.8070 C   0  0  0  0  0  0  0  0  0  0  0  0
   40.4820   71.4940   57.4560 C   0  0  0  0  0  0  0  0  0  0  0  0
   39.1290   71.6960   57.7430 C   0  0  0  0  0  0  0  0  0  0  0  0
   38.5350   72.8720   57.3750 N   0  0  0  0  0  0  0  0  0  0  0  0
   39.2030   73.8310   56.7520 C   0  0  0  0  0  0  0  0  0  0  0  0
   40.5020   73.6440   56.4730 N   0  0  0  0  0  0  0  0  0  0  0  0
   42.1840   72.3580   56.5870 H   0  0  0  0  0  0  0  0  0  0  0  0
   38.5570   70.9480   58.2430 H   0  0  0  0  0  0  0  0  0  0  0  0
   41.1480   70.2950   57.8160 N   0  0  0  0  0  0  0  0  0  0  0  0
   41.4720   70.2290   59.1060 C   0  0  0  0  0  0  0  0  0  0  0  0
   42.1320   69.0860   59.5640 C   0  0  0  0  0  0  0  0  0  0  0  0
   42.4260   68.0700   58.6730 C   0  0  0  0  0  0  0  0  0  0  0  0
   43.0160   67.0120   59.0030 O   0  0  0  0  0  0  0  0  0  0  0  0
   42.0620   68.2100   57.3620 N   0  0  0  0  0  0  0  0  0  0  0  0
   41.4190   69.3220   56.9170 C   0  0  0  0  0  0  0  0  0  0  0  0
   41.0810   69.4650   55.7320 O   0  0  0  0  0  0  0  0  0  0  0  0
   41.2610   70.9980   59.8370 H   0  0  0  0  0  0  0  0  0  0  0  0
   42.4180   68.9770   60.5920 H   0  0  0  0  0  0  0  0  0  0  0  0
   42.2400   67.4970   56.6140 H   0  0  0  0  0  0  0  0  0  0  0  0
   39.7510   76.3090   58.4660 S   0  0  0  0  0  0  0  0  0  0  0  0
   39.5990   77.6350   59.1660 O   0  0  0  0  0  0  0  0  0  0  0  0
   41.1650   76.3430   57.8960 O   0  0  0  0  0  0  0  0  0  0  0  0
   39.5880   75.0780   59.6600 C   0  0  0  0  0  0  0  0  0  0  0  0
   38.6790   74.4910   60.5450 C   0  0  0  0  0  0  0  0  0  0  0  0
   37.7070   74.9750   60.4760 H   0  0  0  0  0  0  0  0  0  0  0  0
   39.2950   73.4720   61.2390 C   0  0  0  0  0  0  0  0  0  0  0  0
   38.7010   72.9310   61.9610 H   0  0  0  0  0  0  0  0  0  0  0  0
   40.5750   73.4750   60.7440 C   0  0  0  0  0  0  0  0  0  0  0  0
   41.2850   72.7360   61.1460 H   0  0  0  0  0  0  0  0  0  0  0  0
   40.7270   74.4060   59.8360 O   0  0  0  0  0  0  0  0  0  0  0  0
  1 30  1  0  0  0  0
  2 15  1  0  0  0  0
  2  1  2  0  0  0  0
  3  2  1  0  0  0  0
  4  3  2  0  0  0  0
  4  5  1  0  0  0  0
  5  6  2  0  0  0  0
  6  1  1  0  0  0  0
  6 10  1  0  0  0  0
  7  3  1  0  0  0  0
  8  4  1  0  0  0  0
  9  5  1  0  0  0  0
 11 12  1  0  0  0  0
 12 13  2  0  0  0  0
 12 19  1  0  0  0  0
 13 18  1  0  0  0  0
 14 13  1  0  0  0  0
 15 14  2  0  0  0  0
 16 15  1  0  0  0  0
 16 11  2  0  0  0  0
 17 11  1  0  0  0  0
 19 20  1  0  0  0  0
 20 21  2  0  0  0  0
 20 27  1  0  0  0  0
 21 28  1  0  0  0  0
 22 23  2  0  0  0  0
 22 21  1  0  0  0  0
 24 22  1  0  0  0  0
 25 24  1  0  0  0  0
 25 19  1  0  0  0  0
 26 25  2  0  0  0  0
 29 24  1  0  0  0  0
 30 31  2  0  0  0  0
 30 33  1  0  0  0  0
 32 30  2  0  0  0  0
 33 40  1  0  0  0  0
 33 34  2  0  0  0  0
 34 36  1  0  0  0  0
 35 34  1  0  0  0  0
 36 37  1  0  0  0  0
 38 39  1  0  0  0  0
 38 36  2  0  0  0  0
 40 38  1  0  0  0  0
M  END
>  <minimizedAffinity>
-5.68727732

$$$$

 OpenBabel03212520333D

 40 43  0  0  0  0  0  0  0  0999 V2000
   40.8410   72.9660   60.7350 C   0  0  0  0  0  0  0  0  0  0  0  0
   41.2660   71.9290   59.9180 C   0  0  0  0  0  0  0  0  0  0  0  0
   41.9420   70.8500   60.4370 C   0  0  0  0  0  0  0  0  0  0  0  0
   42.2420   70.7260   61.7960 C   0  0  0  0  0  0  0  0  0  0  0  0
   41.8300   71.7410   62.6290 C   0  0  0  0  0  0  0  0  0  0  0  0
   41.1490   72.8280   62.1040 C   0  0  0  0  0  0  0  0  0  0  0  0
   42.2850   70.0260   59.8080 H   0  0  0  0  0  0  0  0  0  0  0  0
   42.7710   69.8700   62.1660 H   0  0  0  0  0  0  0  0  0  0  0  0
   42.0340   71.6960   63.6840 H   0  0  0  0  0  0  0  0  0  0  0  0
   40.8310   73.6190   62.7700 H   0  0  0  0  0  0  0  0  0  0  0  0
   41.6350   72.2730   56.2580 C   0  0  0  0  0  0  0  0  0  0  0  0
   40.3740   71.9500   55.8000 C   0  0  0  0  0  0  0  0  0  0  0  0
   39.4180   71.6190   56.7640 C   0  0  0  0  0  0  0  0  0  0  0  0
   39.7700   71.6310   58.0870 N   0  0  0  0  0  0  0  0  0  0  0  0
   40.9930   71.9480   58.4850 C   0  0  0  0  0  0  0  0  0  0  0  0
   41.9150   72.2660   57.5650 N   0  0  0  0  0  0  0  0  0  0  0  0
   42.3700   72.5280   55.5100 H   0  0  0  0  0  0  0  0  0  0  0  0
   38.4240   71.3600   56.4830 H   0  0  0  0  0  0  0  0  0  0  0  0
   40.0650   71.9530   54.4160 N   0  0  0  0  0  0  0  0  0  0  0  0
   40.2800   70.7830   53.8170 C   0  0  0  0  0  0  0  0  0  0  0  0
   40.0060   70.6800   52.4500 C   0  0  0  0  0  0  0  0  0  0  0  0
   39.5250   71.7840   51.7700 C   0  0  0  0  0  0  0  0  0  0  0  0
   39.2540   71.7750   50.5440 O   0  0  0  0  0  0  0  0  0  0  0  0
   39.3290   72.9520   52.4540 N   0  0  0  0  0  0  0  0  0  0  0  0
   39.5950   73.0530   53.7830 C   0  0  0  0  0  0  0  0  0  0  0  0
   39.4230   74.1030   54.4190 O   0  0  0  0  0  0  0  0  0  0  0  0
   40.6540   69.8960   54.3090 H   0  0  0  0  0  0  0  0  0  0  0  0
   40.1600   69.7640   51.9150 H   0  0  0  0  0  0  0  0  0  0  0  0
   38.9690   73.8400   52.0270 H   0  0  0  0  0  0  0  0  0  0  0  0
   39.9960   74.3410   60.1150 S   0  0  0  0  0  0  0  0  0  0  0  0
   39.8270   75.3780   61.1970 O   0  0  0  0  0  0  0  0  0  0  0  0
   38.5750   73.8810   59.8080 O   0  0  0  0  0  0  0  0  0  0  0  0
   40.7060   75.1290   58.7570 C   0  0  0  0  0  0  0  0  0  0  0  0
   40.4350   75.5960   57.4680 C   0  0  0  0  0  0  0  0  0  0  0  0
   39.4010   75.4010   57.1960 H   0  0  0  0  0  0  0  0  0  0  0  0
   41.5700   76.1670   56.9320 C   0  0  0  0  0  0  0  0  0  0  0  0
   41.5000   76.5710   55.9330 H   0  0  0  0  0  0  0  0  0  0  0  0
   42.5020   76.0240   57.9280 C   0  0  0  0  0  0  0  0  0  0  0  0
   43.5180   76.4090   57.7430 H   0  0  0  0  0  0  0  0  0  0  0  0
   41.9890   75.4240   58.9720 O   0  0  0  0  0  0  0  0  0  0  0  0
  1  6  1  0  0  0  0
  2  3  1  0  0  0  0
  2  1  2  0  0  0  0
  3  4  2  0  0  0  0
  4  8  1  0  0  0  0
  4  5  1  0  0  0  0
  5  9  1  0  0  0  0
  6  5  2  0  0  0  0
  6 10  1  0  0  0  0
  7  3  1  0  0  0  0
 11 16  1  0  0  0  0
 12 11  2  0  0  0  0
 12 13  1  0  0  0  0
 13 14  2  0  0  0  0
 14 15  1  0  0  0  0
 15  2  1  0  0  0  0
 16 15  2  0  0  0  0
 17 11  1  0  0  0  0
 18 13  1  0  0  0  0
 19 12  1  0  0  0  0
 20 27  1  0  0  0  0
 20 19  1  0  0  0  0
 21 20  2  0  0  0  0
 22 21  1  0  0  0  0
 22 24  1  0  0  0  0
 23 22  2  0  0  0  0
 24 25  1  0  0  0  0
 25 19  1  0  0  0  0
 25 26  2  0  0  0  0
 28 21  1  0  0  0  0
 29 24  1  0  0  0  0
 30  1  1  0  0  0  0
 30 31  2  0  0  0  0
 32 30  2  0  0  0  0
 33 40  1  0  0  0  0
 33 30  1  0  0  0  0
 34 33  2  0  0  0  0
 35 34  1  0  0  0  0
 36 34  1  0  0  0  0
 36 38  2  0  0  0  0
 37 36  1  0  0  0  0
 38 40  1  0  0  0  0
 39 38  1  0  0  0  0
M  END
>  <minimizedAffinity>
-5.65623093

$$$$

 OpenBabel03212520333D

 40 43  0  0  0  0  0  0  0  0999 V2000
   42.3840   70.8090   61.2530 C   0  0  0  0  0  0  0  0  0  0  0  0
   42.1930   70.1790   60.0310 C   0  0  0  0  0  0  0  0  0  0  0  0
   42.5600   68.8670   59.8460 C   0  0  0  0  0  0  0  0  0  0  0  0
   43.1390   68.0920   60.8550 C   0  0  0  0  0  0  0  0  0  0  0  0
   43.3400   68.6930   62.0770 C   0  0  0  0  0  0  0  0  0  0  0  0
   42.9690   70.0160   62.2610 C   0  0  0  0  0  0  0  0  0  0  0  0
   42.4170   68.3560   58.8910 H   0  0  0  0  0  0  0  0  0  0  0  0
   43.4130   67.0720   60.6750 H   0  0  0  0  0  0  0  0  0  0  0  0
   43.7810   68.1430   62.8880 H   0  0  0  0  0  0  0  0  0  0  0  0
   43.1320   70.4760   63.2270 H   0  0  0  0  0  0  0  0  0  0  0  0
   39.7280   71.7570   57.7760 C   0  0  0  0  0  0  0  0  0  0  0  0
   40.5240   72.2440   56.7600 C   0  0  0  0  0  0  0  0  0  0  0  0
   41.8990   72.0180   56.8710 C   0  0  0  0  0  0  0  0  0  0  0  0
   42.3790   71.3410   57.9590 N   0  0  0  0  0  0  0  0  0  0  0  0
   41.5810   70.8890   58.9140 C   0  0  0  0  0  0  0  0  0  0  0  0
   40.2610   71.1020   58.8130 N   0  0  0  0  0  0  0  0  0  0  0  0
   38.6680   71.9330   57.6870 H   0  0  0  0  0  0  0  0  0  0  0  0
   42.5740   72.3660   56.1230 H   0  0  0  0  0  0  0  0  0  0  0  0
   39.9720   72.9410   55.6550 N   0  0  0  0  0  0  0  0  0  0  0  0
   39.8650   74.2540   55.8500 C   0  0  0  0  0  0  0  0  0  0  0  0
   39.3320   75.0340   54.8200 C   0  0  0  0  0  0  0  0  0  0  0  0
   38.9360   74.4240   53.6430 C   0  0  0  0  0  0  0  0  0  0  0  0
   38.4480   75.0510   52.6720 O   0  0  0  0  0  0  0  0  0  0  0  0
   39.0770   73.0700   53.5170 N   0  0  0  0  0  0  0  0  0  0  0  0
   39.5950   72.3110   54.5190 C   0  0  0  0  0  0  0  0  0  0  0  0
   39.7310   71.0820   54.4210 O   0  0  0  0  0  0  0  0  0  0  0  0
   40.1610   74.7720   56.7520 H   0  0  0  0  0  0  0  0  0  0  0  0
   39.2210   76.0950   54.9200 H   0  0  0  0  0  0  0  0  0  0  0  0
   38.8060   72.5190   52.6670 H   0  0  0  0  0  0  0  0  0  0  0  0
   41.9430   72.4590   61.5180 S   0  0  0  0  0  0  0  0  0  0  0  0
   42.4180   72.9120   62.8750 O   0  0  0  0  0  0  0  0  0  0  0  0
   40.4220   72.4950   61.6190 O   0  0  0  0  0  0  0  0  0  0  0  0
   42.5210   73.6020   60.3660 C   0  0  0  0  0  0  0  0  0  0  0  0
   43.6850   74.1270   59.7980 C   0  0  0  0  0  0  0  0  0  0  0  0
   44.5690   73.6600   60.2280 H   0  0  0  0  0  0  0  0  0  0  0  0
   43.3570   75.0830   58.8600 C   0  0  0  0  0  0  0  0  0  0  0  0
   44.1690   75.5720   58.3430 H   0  0  0  0  0  0  0  0  0  0  0  0
   41.9860   75.1050   58.8920 C   0  0  0  0  0  0  0  0  0  0  0  0
   41.4660   75.8030   58.2170 H   0  0  0  0  0  0  0  0  0  0  0  0
   41.5200   74.2470   59.7640 O   0  0  0  0  0  0  0  0  0  0  0  0
  1 30  1  0  0  0  0
  1  6  1  0  0  0  0
  2  1  2  0  0  0  0
  3  2  1  0  0  0  0
  3  4  2  0  0  0  0
  4  5  1  0  0  0  0
  5  6  2  0  0  0  0
  5  9  1  0  0  0  0
  6 10  1  0  0  0  0
  7  3  1  0  0  0  0
  8  4  1  0  0  0  0
 11 16  1  0  0  0  0
 12 13  1  0  0  0  0
 12 11  2  0  0  0  0
 13 14  2  0  0  0  0
 14 15  1  0  0  0  0
 15  2  1  0  0  0  0
 16 15  2  0  0  0  0
 17 11  1  0  0  0  0
 18 13  1  0  0  0  0
 19 20  1  0  0  0  0
 19 12  1  0  0  0  0
 20 27  1  0  0  0  0
 21 28  1  0  0  0  0
 21 20  2  0  0  0  0
 22 21  1  0  0  0  0
 23 22  2  0  0  0  0
 24 22  1  0  0  0  0
 24 25  1  0  0  0  0
 25 19  1  0  0  0  0
 26 25  2  0  0  0  0
 29 24  1  0  0  0  0
 30 32  2  0  0  0  0
 30 31  2  0  0  0  0
 33 30  1  0  0  0  0
 34 35  1  0  0  0  0
 34 33  2  0  0  0  0
 36 38  2  0  0  0  0
 36 34  1  0  0  0  0
 37 36  1  0  0  0  0
 38 40  1  0  0  0  0
 39 38  1  0  0  0  0
 40 33  1  0  0  0  0
M  END
>  <minimizedAffinity>
-5.64535046

$$$$
