
 OpenBabel03212520353D

 35 38  0  0  0  0  0  0  0  0999 V2000
   40.1820   82.1350   58.7790 C   0  0  0  0  0  0  0  0  0  0  0  0
   41.1170   81.3670   58.0550 C   0  0  0  0  0  0  0  0  0  0  0  0
   42.0220   80.4940   58.7630 C   0  0  0  0  0  0  0  0  0  0  0  0
   41.9060   80.4710   60.1190 N   0  0  0  0  0  0  0  0  0  0  0  0
   40.9710   81.2380   60.7860 C   0  0  0  0  0  0  0  0  0  0  0  0
   40.1250   82.0560   60.1140 N   0  0  0  0  0  0  0  0  0  0  0  0
   39.5430   82.8440   58.3310 H   0  0  0  0  0  0  0  0  0  0  0  0
   42.7780   79.8420   58.4020 H   0  0  0  0  0  0  0  0  0  0  0  0
   41.3280   81.3320   56.6220 C   0  0  0  0  0  0  0  0  0  0  0  0
   42.2600   82.2880   56.1570 C   0  0  0  0  0  0  0  0  0  0  0  0
   42.5510   82.4800   54.8420 C   0  0  0  0  0  0  0  0  0  0  0  0
   41.9150   81.7110   53.8800 C   0  0  0  0  0  0  0  0  0  0  0  0
   40.9990   80.7670   54.3140 C   0  0  0  0  0  0  0  0  0  0  0  0
   40.3130   79.9520   53.4480 C   0  0  0  0  0  0  0  0  0  0  0  0
   39.4060   79.0110   53.9020 C   0  0  0  0  0  0  0  0  0  0  0  0
   39.1480   78.8430   55.2520 C   0  0  0  0  0  0  0  0  0  0  0  0
   39.8370   79.6620   56.1250 C   0  0  0  0  0  0  0  0  0  0  0  0
   40.7110   80.5760   55.6530 C   0  0  0  0  0  0  0  0  0  0  0  0
   42.8390   82.9770   56.7550 H   0  0  0  0  0  0  0  0  0  0  0  0
   43.2460   83.1880   54.4260 H   0  0  0  0  0  0  0  0  0  0  0  0
   42.0670   81.7790   52.8080 H   0  0  0  0  0  0  0  0  0  0  0  0
   40.5360   80.1010   52.3830 H   0  0  0  0  0  0  0  0  0  0  0  0
   38.9450   78.4450   53.0850 H   0  0  0  0  0  0  0  0  0  0  0  0
   38.4340   78.0890   55.4940 H   0  0  0  0  0  0  0  0  0  0  0  0
   39.5940   79.3840   57.1240 H   0  0  0  0  0  0  0  0  0  0  0  0
   40.8710   81.1930   62.2460 C   0  0  0  0  0  0  0  0  0  0  0  0
   40.5750   80.1560   62.8730 O   0  0  0  0  0  0  0  0  0  0  0  0
   41.1340   82.4270   62.9950 C   0  0  0  0  0  0  0  0  0  0  0  0
   42.3360   83.1310   62.8650 C   0  0  0  0  0  0  0  0  0  0  0  0
   43.1900   82.8930   62.2420 H   0  0  0  0  0  0  0  0  0  0  0  0
   42.2300   84.2190   63.7050 C   0  0  0  0  0  0  0  0  0  0  0  0
   42.9900   84.9730   63.8450 H   0  0  0  0  0  0  0  0  0  0  0  0
   40.9840   84.1210   64.2930 C   0  0  0  0  0  0  0  0  0  0  0  0
   40.6630   84.8770   65.0080 H   0  0  0  0  0  0  0  0  0  0  0  0
   40.3850   83.0590   63.8460 O   0  0  0  0  0  0  0  0  0  0  0  0
  1  6  1  0  0  0  0
  2  3  1  0  0  0  0
  2  1  2  0  0  0  0
  3  4  2  0  0  0  0
  4  5  1  0  0  0  0
  5 26  1  0  0  0  0
  6  5  2  0  0  0  0
  7  1  1  0  0  0  0
  8  3  1  0  0  0  0
  9  2  1  0  0  0  0
 10  9  1  0  0  0  0
 10 19  1  0  0  0  0
 11 10  2  0  0  0  0
 12 13  2  0  0  0  0
 12 11  1  0  0  0  0
 13 18  1  0  0  0  0
 14 15  2  0  0  0  0
 14 13  1  0  0  0  0
 15 16  1  0  0  0  0
 16 24  1  0  0  0  0
 16 17  2  0  0  0  0
 17 25  1  0  0  0  0
 18 17  1  0  0  0  0
 18  9  2  0  0  0  0
 20 11  1  0  0  0  0
 21 12  1  0  0  0  0
 22 14  1  0  0  0  0
 23 15  1  0  0  0  0
 26 27  2  0  0  0  0
 26 28  1  0  0  0  0
 28 35  1  0  0  0  0
 29 28  2  0  0  0  0
 29 31  1  0  0  0  0
 30 29  1  0  0  0  0
 31 32  1  0  0  0  0
 31 33  2  0  0  0  0
 33 34  1  0  0  0  0
 35 33  1  0  0  0  0
M  END
>  <minimizedAffinity>
-5.09427977

>  <minimizedRMSD>
2.97752571

$$$$
