
 OpenBabel03212520133D

 30 32  0  0  0  0  0  0  0  0999 V2000
   43.0030   84.8200   59.6580 Cl  0  0  0  0  0  0  0  0  0  0  0  0
   41.9400   83.4470   59.4560 C   0  0  0  0  0  0  0  0  0  0  0  0
   41.7210   82.8570   58.2220 C   0  0  0  0  0  0  0  0  0  0  0  0
   40.8570   81.7780   58.2130 C   0  0  0  0  0  0  0  0  0  0  0  0
   40.2150   81.2600   59.3280 C   0  0  0  0  0  0  0  0  0  0  0  0
   40.4650   81.8730   60.5080 C   0  0  0  0  0  0  0  0  0  0  0  0
   39.6830   81.2450   61.9610 Cl  0  0  0  0  0  0  0  0  0  0  0  0
   41.3310   82.9750   60.5850 C   0  0  0  0  0  0  0  0  0  0  0  0
   40.6970   81.3310   57.2440 H   0  0  0  0  0  0  0  0  0  0  0  0
   39.5540   80.4240   59.2870 H   0  0  0  0  0  0  0  0  0  0  0  0
   41.9720   84.4150   56.2410 C   0  0  0  0  0  0  0  0  0  0  0  0
   42.3760   83.3760   57.0710 C   0  0  0  0  0  0  0  0  0  0  0  0
   43.5960   82.7370   56.7460 C   0  0  0  0  0  0  0  0  0  0  0  0
   44.2850   83.1730   55.6610 N   0  0  0  0  0  0  0  0  0  0  0  0
   43.8540   84.1850   54.8880 C   0  0  0  0  0  0  0  0  0  0  0  0
   42.7080   84.7930   55.1840 N   0  0  0  0  0  0  0  0  0  0  0  0
   41.0460   84.8650   56.5270 H   0  0  0  0  0  0  0  0  0  0  0  0
   43.9920   81.9200   57.3290 H   0  0  0  0  0  0  0  0  0  0  0  0
   44.7300   84.5360   53.7360 C   0  0  0  0  0  0  0  0  0  0  0  0
   45.8770   85.1920   54.1450 F   0  0  0  0  0  0  0  0  0  0  0  0
   45.1340   83.3770   53.0890 F   0  0  0  0  0  0  0  0  0  0  0  0
   44.0920   85.3970   52.8610 F   0  0  0  0  0  0  0  0  0  0  0  0
   41.4750   83.5020   61.9380 C   0  0  0  0  0  0  0  0  0  0  0  0
   42.4400   83.2870   62.8850 C   0  0  0  0  0  0  0  0  0  0  0  0
   43.3220   82.6810   62.8590 H   0  0  0  0  0  0  0  0  0  0  0  0
   42.2110   83.9790   64.0470 C   0  0  0  0  0  0  0  0  0  0  0  0
   42.7500   84.0450   64.9760 H   0  0  0  0  0  0  0  0  0  0  0  0
   41.0400   84.6360   63.7540 C   0  0  0  0  0  0  0  0  0  0  0  0
   40.4340   85.3260   64.3600 H   0  0  0  0  0  0  0  0  0  0  0  0
   40.6940   84.3190   62.5640 O   0  0  0  0  0  0  0  0  0  0  0  0
  2  1  1  0  0  0  0
  2  8  1  0  0  0  0
  3  2  2  0  0  0  0
  4  3  1  0  0  0  0
  4  5  2  0  0  0  0
  5  6  1  0  0  0  0
  6  8  2  0  0  0  0
  6  7  1  0  0  0  0
  8 23  1  0  0  0  0
  9  4  1  0  0  0  0
 10  5  1  0  0  0  0
 11 17  1  0  0  0  0
 11 12  1  0  0  0  0
 12  3  1  0  0  0  0
 13 12  2  0  0  0  0
 13 18  1  0  0  0  0
 14 13  1  0  0  0  0
 15 16  1  0  0  0  0
 15 14  2  0  0  0  0
 16 11  2  0  0  0  0
 19 20  1  0  0  0  0
 19 15  1  0  0  0  0
 21 19  1  0  0  0  0
 22 19  1  0  0  0  0
 23 30  1  0  0  0  0
 23 24  2  0  0  0  0
 24 26  1  0  0  0  0
 25 24  1  0  0  0  0
 26 27  1  0  0  0  0
 28 26  2  0  0  0  0
 28 29  1  0  0  0  0
 30 28  1  0  0  0  0
M  END
>  <minimizedAffinity>
-4.27928257

>  <minimizedRMSD>
7.61237907

$$$$
