
 OpenBabel03212520313D

 40 43  0  0  0  0  0  0  0  0999 V2000
   42.1930   82.1130   62.0110 C   0  0  0  0  0  0  0  0  0  0  0  0
   42.6660   81.1180   61.1680 C   0  0  0  0  0  0  0  0  0  0  0  0
   43.9650   80.6730   61.2570 C   0  0  0  0  0  0  0  0  0  0  0  0
   44.8790   81.1830   62.1840 C   0  0  0  0  0  0  0  0  0  0  0  0
   44.4330   82.1710   63.0330 C   0  0  0  0  0  0  0  0  0  0  0  0
   43.1250   82.6180   62.9410 C   0  0  0  0  0  0  0  0  0  0  0  0
   44.3550   79.8920   60.6010 H   0  0  0  0  0  0  0  0  0  0  0  0
   45.8830   80.8130   62.2260 H   0  0  0  0  0  0  0  0  0  0  0  0
   45.0940   82.5980   63.7650 H   0  0  0  0  0  0  0  0  0  0  0  0
   42.7870   83.3940   63.6140 H   0  0  0  0  0  0  0  0  0  0  0  0
   40.3050   78.8400   59.4710 C   0  0  0  0  0  0  0  0  0  0  0  0
   40.1700   79.4230   58.2270 C   0  0  0  0  0  0  0  0  0  0  0  0
   40.8980   80.5940   57.9970 C   0  0  0  0  0  0  0  0  0  0  0  0
   41.6920   81.0940   58.9940 N   0  0  0  0  0  0  0  0  0  0  0  0
   41.7940   80.5030   60.1740 C   0  0  0  0  0  0  0  0  0  0  0  0
   41.0980   79.3800   60.4010 N   0  0  0  0  0  0  0  0  0  0  0  0
   39.7420   77.9360   59.6440 H   0  0  0  0  0  0  0  0  0  0  0  0
   40.8420   81.0990   57.0610 H   0  0  0  0  0  0  0  0  0  0  0  0
   39.3310   78.8610   57.2320 N   0  0  0  0  0  0  0  0  0  0  0  0
   38.2610   79.6020   56.9520 C   0  0  0  0  0  0  0  0  0  0  0  0
   37.3690   79.1360   55.9830 C   0  0  0  0  0  0  0  0  0  0  0  0
   37.6230   77.9330   55.3510 C   0  0  0  0  0  0  0  0  0  0  0  0
   36.8730   77.4440   54.4700 O   0  0  0  0  0  0  0  0  0  0  0  0
   38.7440   77.2270   55.6910 N   0  0  0  0  0  0  0  0  0  0  0  0
   39.6110   77.6800   56.6340 C   0  0  0  0  0  0  0  0  0  0  0  0
   40.6320   77.0540   56.9540 O   0  0  0  0  0  0  0  0  0  0  0  0
   38.0240   80.5470   57.4210 H   0  0  0  0  0  0  0  0  0  0  0  0
   36.4910   79.6900   55.7170 H   0  0  0  0  0  0  0  0  0  0  0  0
   39.0210   76.3080   55.2690 H   0  0  0  0  0  0  0  0  0  0  0  0
   40.5690   82.7010   61.9210 S   0  0  0  0  0  0  0  0  0  0  0  0
   40.1640   83.3100   63.2390 O   0  0  0  0  0  0  0  0  0  0  0  0
   39.6680   81.4790   61.7760 O   0  0  0  0  0  0  0  0  0  0  0  0
   40.2440   83.8680   60.6960 C   0  0  0  0  0  0  0  0  0  0  0  0
   39.2130   84.5690   60.0650 C   0  0  0  0  0  0  0  0  0  0  0  0
   38.2460   84.2920   60.4810 H   0  0  0  0  0  0  0  0  0  0  0  0
   39.7380   85.4030   59.1010 C   0  0  0  0  0  0  0  0  0  0  0  0
   39.0450   86.0070   58.5330 H   0  0  0  0  0  0  0  0  0  0  0  0
   41.0880   85.1760   59.1820 C   0  0  0  0  0  0  0  0  0  0  0  0
   41.7470   85.7350   58.4980 H   0  0  0  0  0  0  0  0  0  0  0  0
   41.3630   84.2890   60.1050 O   0  0  0  0  0  0  0  0  0  0  0  0
  1  6  1  0  0  0  0
  2  3  1  0  0  0  0
  2  1  2  0  0  0  0
  3  4  2  0  0  0  0
  4  8  1  0  0  0  0
  4  5  1  0  0  0  0
  5  9  1  0  0  0  0
  6  5  2  0  0  0  0
  6 10  1  0  0  0  0
  7  3  1  0  0  0  0
 11 17  1  0  0  0  0
 11 16  1  0  0  0  0
 12 11  2  0  0  0  0
 13 12  1  0  0  0  0
 13 14  2  0  0  0  0
 14 15  1  0  0  0  0
 15 16  2  0  0  0  0
 15  2  1  0  0  0  0
 18 13  1  0  0  0  0
 19 12  1  0  0  0  0
 20 19  1  0  0  0  0
 20 27  1  0  0  0  0
 21 20  2  0  0  0  0
 22 24  1  0  0  0  0
 22 21  1  0  0  0  0
 23 22  2  0  0  0  0
 24 25  1  0  0  0  0
 25 26  2  0  0  0  0
 25 19  1  0  0  0  0
 28 21  1  0  0  0  0
 29 24  1  0  0  0  0
 30  1  1  0  0  0  0
 30 31  2  0  0  0  0
 32 30  2  0  0  0  0
 33 30  1  0  0  0  0
 34 35  1  0  0  0  0
 34 33  2  0  0  0  0
 36 38  2  0  0  0  0
 36 34  1  0  0  0  0
 37 36  1  0  0  0  0
 38 40  1  0  0  0  0
 39 38  1  0  0  0  0
 40 33  1  0  0  0  0
M  END
>  <minimizedAffinity>
-6.14879465

>  <minimizedRMSD>
1.61486065

$$$$
