
 OpenBabel03212520313D

 40 43  0  0  0  0  0  0  0  0999 V2000
   42.4790   82.6710   62.4020 C   0  0  0  0  0  0  0  0  0  0  0  0
   42.8770   81.5690   61.6600 C   0  0  0  0  0  0  0  0  0  0  0  0
   44.1540   81.0670   61.7660 C   0  0  0  0  0  0  0  0  0  0  0  0
   45.1180   81.6220   62.6120 C   0  0  0  0  0  0  0  0  0  0  0  0
   44.7470   82.7160   63.3600 C   0  0  0  0  0  0  0  0  0  0  0  0
   43.4610   83.2200   63.2520 C   0  0  0  0  0  0  0  0  0  0  0  0
   44.4840   80.2010   61.1890 H   0  0  0  0  0  0  0  0  0  0  0  0
   46.1030   81.2050   62.6710 H   0  0  0  0  0  0  0  0  0  0  0  0
   45.4500   83.1820   64.0280 H   0  0  0  0  0  0  0  0  0  0  0  0
   43.1830   84.0810   63.8450 H   0  0  0  0  0  0  0  0  0  0  0  0
   40.3150   79.2900   60.2850 C   0  0  0  0  0  0  0  0  0  0  0  0
   40.2190   79.7060   58.9730 C   0  0  0  0  0  0  0  0  0  0  0  0
   41.0430   80.7680   58.5860 C   0  0  0  0  0  0  0  0  0  0  0  0
   41.8850   81.3300   59.5060 N   0  0  0  0  0  0  0  0  0  0  0  0
   41.9470   80.9010   60.7570 C   0  0  0  0  0  0  0  0  0  0  0  0
   41.1590   79.8830   61.1350 N   0  0  0  0  0  0  0  0  0  0  0  0
   39.6780   78.4710   60.5800 H   0  0  0  0  0  0  0  0  0  0  0  0
   41.0230   81.1410   57.5890 H   0  0  0  0  0  0  0  0  0  0  0  0
   39.3270   79.0870   58.0610 N   0  0  0  0  0  0  0  0  0  0  0  0
   38.8590   79.9110   57.1260 C   0  0  0  0  0  0  0  0  0  0  0  0
   37.9710   79.3980   56.1770 C   0  0  0  0  0  0  0  0  0  0  0  0
   37.6080   78.0650   56.2390 C   0  0  0  0  0  0  0  0  0  0  0  0
   36.8170   77.5270   55.4260 O   0  0  0  0  0  0  0  0  0  0  0  0
   38.1310   77.2800   57.2290 N   0  0  0  0  0  0  0  0  0  0  0  0
   38.9950   77.7780   58.1520 C   0  0  0  0  0  0  0  0  0  0  0  0
   39.4780   77.0810   59.0570 O   0  0  0  0  0  0  0  0  0  0  0  0
   39.1160   80.9580   57.0410 H   0  0  0  0  0  0  0  0  0  0  0  0
   37.5620   80.0140   55.4010 H   0  0  0  0  0  0  0  0  0  0  0  0
   37.9170   76.2610   57.3580 H   0  0  0  0  0  0  0  0  0  0  0  0
   40.8860   83.3330   62.2870 S   0  0  0  0  0  0  0  0  0  0  0  0
   40.6390   84.2920   63.4230 O   0  0  0  0  0  0  0  0  0  0  0  0
   39.9150   82.1850   62.5440 O   0  0  0  0  0  0  0  0  0  0  0  0
   40.5040   84.1600   60.8250 C   0  0  0  0  0  0  0  0  0  0  0  0
   39.4420   84.5420   60.0000 C   0  0  0  0  0  0  0  0  0  0  0  0
   38.4940   84.1980   60.4090 H   0  0  0  0  0  0  0  0  0  0  0  0
   39.9230   85.2410   58.9130 C   0  0  0  0  0  0  0  0  0  0  0  0
   39.2030   85.5960   58.1910 H   0  0  0  0  0  0  0  0  0  0  0  0
   41.2790   85.2600   59.1190 C   0  0  0  0  0  0  0  0  0  0  0  0
   41.9060   85.7710   58.3730 H   0  0  0  0  0  0  0  0  0  0  0  0
   41.5980   84.6330   60.2240 O   0  0  0  0  0  0  0  0  0  0  0  0
  1  6  1  0  0  0  0
  2  3  1  0  0  0  0
  2  1  2  0  0  0  0
  3  4  2  0  0  0  0
  4  8  1  0  0  0  0
  4  5  1  0  0  0  0
  5  9  1  0  0  0  0
  6  5  2  0  0  0  0
  6 10  1  0  0  0  0
  7  3  1  0  0  0  0
 11 17  1  0  0  0  0
 11 16  1  0  0  0  0
 12 11  2  0  0  0  0
 13 12  1  0  0  0  0
 13 14  2  0  0  0  0
 14 15  1  0  0  0  0
 15 16  2  0  0  0  0
 15  2  1  0  0  0  0
 18 13  1  0  0  0  0
 19 25  1  0  0  0  0
 19 12  1  0  0  0  0
 20 19  1  0  0  0  0
 21 22  1  0  0  0  0
 21 20  2  0  0  0  0
 22 24  1  0  0  0  0
 23 22  2  0  0  0  0
 24 29  1  0  0  0  0
 24 25  1  0  0  0  0
 25 26  2  0  0  0  0
 27 20  1  0  0  0  0
 28 21  1  0  0  0  0
 30  1  1  0  0  0  0
 30 32  2  0  0  0  0
 30 31  2  0  0  0  0
 33 30  1  0  0  0  0
 34 35  1  0  0  0  0
 34 33  2  0  0  0  0
 36 38  2  0  0  0  0
 36 34  1  0  0  0  0
 37 36  1  0  0  0  0
 38 40  1  0  0  0  0
 39 38  1  0  0  0  0
 40 33  1  0  0  0  0
M  END
>  <minimizedAffinity>
-6.59551525

>  <minimizedRMSD>
1.98172116

$$$$
