
 OpenBabel03212520353D

 35 38  0  0  0  0  0  0  0  0999 V2000
   40.8260   81.3320   61.2360 C   0  0  0  0  0  0  0  0  0  0  0  0
   41.2710   80.5810   60.1280 C   0  0  0  0  0  0  0  0  0  0  0  0
   42.6660   80.6150   59.7590 C   0  0  0  0  0  0  0  0  0  0  0  0
   43.4780   81.3910   60.5270 N   0  0  0  0  0  0  0  0  0  0  0  0
   42.9980   82.1070   61.6070 C   0  0  0  0  0  0  0  0  0  0  0  0
   41.6870   82.0700   61.9470 N   0  0  0  0  0  0  0  0  0  0  0  0
   39.8130   81.4080   61.5160 H   0  0  0  0  0  0  0  0  0  0  0  0
   43.1860   80.1220   58.9760 H   0  0  0  0  0  0  0  0  0  0  0  0
   40.4890   79.7400   59.2440 C   0  0  0  0  0  0  0  0  0  0  0  0
   40.1320   80.3660   58.0270 C   0  0  0  0  0  0  0  0  0  0  0  0
   39.3370   79.7890   57.0870 C   0  0  0  0  0  0  0  0  0  0  0  0
   38.8330   78.5160   57.3050 C   0  0  0  0  0  0  0  0  0  0  0  0
   39.1710   77.8840   58.4900 C   0  0  0  0  0  0  0  0  0  0  0  0
   38.7290   76.6230   58.8060 C   0  0  0  0  0  0  0  0  0  0  0  0
   39.0820   76.0070   59.9930 C   0  0  0  0  0  0  0  0  0  0  0  0
   39.9030   76.6300   60.9190 C   0  0  0  0  0  0  0  0  0  0  0  0
   40.3500   77.8980   60.6020 C   0  0  0  0  0  0  0  0  0  0  0  0
   39.9830   78.4770   59.4390 C   0  0  0  0  0  0  0  0  0  0  0  0
   40.4210   81.3520   57.6930 H   0  0  0  0  0  0  0  0  0  0  0  0
   39.0300   80.2100   56.1460 H   0  0  0  0  0  0  0  0  0  0  0  0
   38.1910   77.9620   56.6270 H   0  0  0  0  0  0  0  0  0  0  0  0
   38.0810   76.1480   58.0570 H   0  0  0  0  0  0  0  0  0  0  0  0
   38.6450   75.0080   60.0930 H   0  0  0  0  0  0  0  0  0  0  0  0
   40.1150   76.0670   61.7990 H   0  0  0  0  0  0  0  0  0  0  0  0
   41.0170   78.2290   61.3620 H   0  0  0  0  0  0  0  0  0  0  0  0
   43.8960   82.9350   62.4140 C   0  0  0  0  0  0  0  0  0  0  0  0
   44.4410   82.5230   63.4580 O   0  0  0  0  0  0  0  0  0  0  0  0
   44.1610   84.3070   61.9650 C   0  0  0  0  0  0  0  0  0  0  0  0
   45.3680   84.6670   61.3560 C   0  0  0  0  0  0  0  0  0  0  0  0
   46.2240   84.0400   61.1380 H   0  0  0  0  0  0  0  0  0  0  0  0
   45.2620   86.0110   61.0740 C   0  0  0  0  0  0  0  0  0  0  0  0
   46.0250   86.6090   60.5980 H   0  0  0  0  0  0  0  0  0  0  0  0
   44.0120   86.3940   61.5220 C   0  0  0  0  0  0  0  0  0  0  0  0
   43.6920   87.4290   61.4080 H   0  0  0  0  0  0  0  0  0  0  0  0
   43.4100   85.3630   62.0330 O   0  0  0  0  0  0  0  0  0  0  0  0
  1  7  1  0  0  0  0
  1  6  1  0  0  0  0
  2  1  2  0  0  0  0
  3  2  1  0  0  0  0
  3  4  2  0  0  0  0
  4  5  1  0  0  0  0
  5  6  2  0  0  0  0
  5 26  1  0  0  0  0
  8  3  1  0  0  0  0
  9 18  1  0  0  0  0
  9  2  1  0  0  0  0
 10  9  2  0  0  0  0
 11 12  2  0  0  0  0
 11 10  1  0  0  0  0
 12 13  1  0  0  0  0
 13 14  2  0  0  0  0
 13 18  1  0  0  0  0
 14 15  1  0  0  0  0
 15 23  1  0  0  0  0
 15 16  2  0  0  0  0
 16 24  1  0  0  0  0
 17 16  1  0  0  0  0
 17 25  1  0  0  0  0
 18 17  2  0  0  0  0
 19 10  1  0  0  0  0
 20 11  1  0  0  0  0
 21 12  1  0  0  0  0
 22 14  1  0  0  0  0
 26 27  2  0  0  0  0
 28 35  1  0  0  0  0
 28 26  1  0  0  0  0
 29 28  2  0  0  0  0
 30 29  1  0  0  0  0
 31 29  1  0  0  0  0
 31 33  2  0  0  0  0
 32 31  1  0  0  0  0
 33 35  1  0  0  0  0
 34 33  1  0  0  0  0
M  END
>  <minimizedAffinity>
-5.39050722

>  <minimizedRMSD>
4.31950808

$$$$
