
 OpenBabel03212520273D

 27 29  0  0  0  0  0  0  0  0999 V2000
   42.5390   84.8020   61.1000 C   0  0  0  0  0  0  0  0  0  0  0  0
   43.3980   85.2850   62.0690 C   0  0  0  0  0  0  0  0  0  0  0  0
   44.2700   86.0680   61.3040 C   0  0  0  0  0  0  0  0  0  0  0  0
   43.9320   86.0330   60.0020 N   0  0  0  0  0  0  0  0  0  0  0  0
   42.8560   85.2460   59.8730 N   0  0  0  0  0  0  0  0  0  0  0  0
   43.4040   85.1130   63.1290 H   0  0  0  0  0  0  0  0  0  0  0  0
   45.1150   86.6360   61.7050 H   0  0  0  0  0  0  0  0  0  0  0  0
   40.4930   81.7490   61.7130 C   0  0  0  0  0  0  0  0  0  0  0  0
   41.6110   82.5360   61.4600 C   0  0  0  0  0  0  0  0  0  0  0  0
   41.4070   83.9070   61.3650 C   0  0  0  0  0  0  0  0  0  0  0  0
   40.1500   84.4260   61.5200 N   0  0  0  0  0  0  0  0  0  0  0  0
   39.1060   83.5930   61.7660 C   0  0  0  0  0  0  0  0  0  0  0  0
   39.2690   82.2740   61.8620 N   0  0  0  0  0  0  0  0  0  0  0  0
   40.5590   80.6770   61.8020 H   0  0  0  0  0  0  0  0  0  0  0  0
   42.5880   82.0910   61.3440 H   0  0  0  0  0  0  0  0  0  0  0  0
   38.1900   84.1630   61.8610 H   0  0  0  0  0  0  0  0  0  0  0  0
   44.6070   86.7230   58.9150 C   0  0  0  0  0  0  0  0  0  0  0  0
   45.6930   86.6950   59.0630 H   0  0  0  0  0  0  0  0  0  0  0  0
   44.3050   86.2080   57.9830 H   0  0  0  0  0  0  0  0  0  0  0  0
   44.1420   88.1410   58.8980 C   0  0  0  0  0  0  0  0  0  0  0  0
   44.3740   89.1340   59.8260 C   0  0  0  0  0  0  0  0  0  0  0  0
   44.9600   88.9810   60.7290 H   0  0  0  0  0  0  0  0  0  0  0  0
   43.7420   90.2700   59.3750 C   0  0  0  0  0  0  0  0  0  0  0  0
   43.7260   91.2350   59.8690 H   0  0  0  0  0  0  0  0  0  0  0  0
   43.1500   89.8890   58.1700 C   0  0  0  0  0  0  0  0  0  0  0  0
   42.5580   90.5610   57.5380 H   0  0  0  0  0  0  0  0  0  0  0  0
   43.4020   88.6270   57.9130 O   0  0  0  0  0  0  0  0  0  0  0  0
  1 10  1  0  0  0  0
  1  2  1  0  0  0  0
  2  6  1  0  0  0  0
  3  7  1  0  0  0  0
  3  2  2  0  0  0  0
  4  3  1  0  0  0  0
  5  4  1  0  0  0  0
  5  1  2  0  0  0  0
  8 14  1  0  0  0  0
  8 13  1  0  0  0  0
  9  8  2  0  0  0  0
 10  9  1  0  0  0  0
 10 11  2  0  0  0  0
 11 12  1  0  0  0  0
 12 16  1  0  0  0  0
 12 13  2  0  0  0  0
 15  9  1  0  0  0  0
 17 18  1  0  0  0  0
 17  4  1  0  0  0  0
 19 17  1  0  0  0  0
 20 17  1  0  0  0  0
 20 21  2  0  0  0  0
 21 22  1  0  0  0  0
 23 21  1  0  0  0  0
 23 24  1  0  0  0  0
 25 23  2  0  0  0  0
 26 25  1  0  0  0  0
 27 25  1  0  0  0  0
 27 20  1  0  0  0  0
M  END
>  <minimizedAffinity>
-4.53509045

>  <minimizedRMSD>
0.613584459

$$$$
