
 OpenBabel03212520273D

 27 29  0  0  0  0  0  0  0  0999 V2000
   42.9100   85.0530   60.9840 C   0  0  0  0  0  0  0  0  0  0  0  0
   44.0220   85.4610   61.6960 C   0  0  0  0  0  0  0  0  0  0  0  0
   44.7950   86.0530   60.6910 C   0  0  0  0  0  0  0  0  0  0  0  0
   44.1710   85.9860   59.5010 N   0  0  0  0  0  0  0  0  0  0  0  0
   42.9980   85.3640   59.6810 N   0  0  0  0  0  0  0  0  0  0  0  0
   44.2440   85.3590   62.7410 H   0  0  0  0  0  0  0  0  0  0  0  0
   45.7760   86.5130   60.8450 H   0  0  0  0  0  0  0  0  0  0  0  0
   40.7380   83.1170   63.3130 C   0  0  0  0  0  0  0  0  0  0  0  0
   41.8690   83.7580   62.8190 C   0  0  0  0  0  0  0  0  0  0  0  0
   41.7590   84.3570   61.5700 C   0  0  0  0  0  0  0  0  0  0  0  0
   40.5760   84.3010   60.8850 N   0  0  0  0  0  0  0  0  0  0  0  0
   39.5130   83.6560   61.4330 C   0  0  0  0  0  0  0  0  0  0  0  0
   39.5870   83.0720   62.6270 N   0  0  0  0  0  0  0  0  0  0  0  0
   40.7350   82.6250   64.2720 H   0  0  0  0  0  0  0  0  0  0  0  0
   42.7860   83.7820   63.3890 H   0  0  0  0  0  0  0  0  0  0  0  0
   38.6630   83.7070   60.7640 H   0  0  0  0  0  0  0  0  0  0  0  0
   44.6680   86.4950   58.2330 C   0  0  0  0  0  0  0  0  0  0  0  0
   45.7360   86.2720   58.1270 H   0  0  0  0  0  0  0  0  0  0  0  0
   44.0650   86.0100   57.4430 H   0  0  0  0  0  0  0  0  0  0  0  0
   44.4630   87.9730   58.2070 C   0  0  0  0  0  0  0  0  0  0  0  0
   43.2950   88.6840   58.3880 C   0  0  0  0  0  0  0  0  0  0  0  0
   42.3350   88.2140   58.5810 H   0  0  0  0  0  0  0  0  0  0  0  0
   43.6080   90.0190   58.2760 C   0  0  0  0  0  0  0  0  0  0  0  0
   42.9190   90.8510   58.3650 H   0  0  0  0  0  0  0  0  0  0  0  0
   44.9820   90.0400   58.0270 C   0  0  0  0  0  0  0  0  0  0  0  0
   45.5670   90.9550   57.8830 H   0  0  0  0  0  0  0  0  0  0  0  0
   45.4610   88.8180   57.9920 O   0  0  0  0  0  0  0  0  0  0  0  0
  1 10  1  0  0  0  0
  1  2  1  0  0  0  0
  2  6  1  0  0  0  0
  3  7  1  0  0  0  0
  3  2  2  0  0  0  0
  4  5  1  0  0  0  0
  4  3  1  0  0  0  0
  5  1  2  0  0  0  0
  8 14  1  0  0  0  0
  9  8  1  0  0  0  0
  9 15  1  0  0  0  0
 10  9  2  0  0  0  0
 11 12  2  0  0  0  0
 11 10  1  0  0  0  0
 12 13  1  0  0  0  0
 13  8  2  0  0  0  0
 16 12  1  0  0  0  0
 17  4  1  0  0  0  0
 18 17  1  0  0  0  0
 19 17  1  0  0  0  0
 20 17  1  0  0  0  0
 20 21  2  0  0  0  0
 21 22  1  0  0  0  0
 23 24  1  0  0  0  0
 23 21  1  0  0  0  0
 25 23  2  0  0  0  0
 26 25  1  0  0  0  0
 27 25  1  0  0  0  0
 27 20  1  0  0  0  0
M  END
>  <minimizedAffinity>
-4.32801151

>  <minimizedRMSD>
1.39277434

$$$$
