
 OpenBabel03212520263D

 27 29  0  0  0  0  0  0  0  0999 V2000
   42.9530   85.0310   61.1340 C   0  0  0  0  0  0  0  0  0  0  0  0
   44.1910   84.8670   61.7250 C   0  0  0  0  0  0  0  0  0  0  0  0
   44.9960   85.6740   60.9130 C   0  0  0  0  0  0  0  0  0  0  0  0
   44.2720   86.2510   59.9380 N   0  0  0  0  0  0  0  0  0  0  0  0
   43.0010   85.8530   60.0730 N   0  0  0  0  0  0  0  0  0  0  0  0
   44.4730   84.2810   62.5790 H   0  0  0  0  0  0  0  0  0  0  0  0
   46.0730   85.8220   61.0500 H   0  0  0  0  0  0  0  0  0  0  0  0
   40.4710   83.2100   63.2350 C   0  0  0  0  0  0  0  0  0  0  0  0
   41.6730   83.8010   62.8590 C   0  0  0  0  0  0  0  0  0  0  0  0
   41.7200   84.3870   61.6000 C   0  0  0  0  0  0  0  0  0  0  0  0
   40.6150   84.3660   60.7930 N   0  0  0  0  0  0  0  0  0  0  0  0
   39.4760   83.7690   61.2290 C   0  0  0  0  0  0  0  0  0  0  0  0
   39.3990   83.1980   62.4300 N   0  0  0  0  0  0  0  0  0  0  0  0
   40.3460   82.7320   64.1930 H   0  0  0  0  0  0  0  0  0  0  0  0
   42.5240   83.7990   63.5230 H   0  0  0  0  0  0  0  0  0  0  0  0
   38.7050   83.8420   60.4720 H   0  0  0  0  0  0  0  0  0  0  0  0
   44.7670   87.1530   58.9100 C   0  0  0  0  0  0  0  0  0  0  0  0
   45.8610   87.1050   58.8580 H   0  0  0  0  0  0  0  0  0  0  0  0
   44.2950   86.8340   57.9610 H   0  0  0  0  0  0  0  0  0  0  0  0
   44.3440   88.5410   59.2590 C   0  0  0  0  0  0  0  0  0  0  0  0
   43.9840   89.5700   58.4140 C   0  0  0  0  0  0  0  0  0  0  0  0
   43.9680   89.4740   57.3310 H   0  0  0  0  0  0  0  0  0  0  0  0
   43.6760   90.6550   59.2020 C   0  0  0  0  0  0  0  0  0  0  0  0
   43.3540   91.6310   58.8540 H   0  0  0  0  0  0  0  0  0  0  0  0
   43.8720   90.2090   60.5090 C   0  0  0  0  0  0  0  0  0  0  0  0
   43.7150   90.8290   61.3990 H   0  0  0  0  0  0  0  0  0  0  0  0
   44.2670   88.9570   60.5130 O   0  0  0  0  0  0  0  0  0  0  0  0
  1 10  1  0  0  0  0
  1  2  1  0  0  0  0
  2  6  1  0  0  0  0
  3  7  1  0  0  0  0
  3  2  2  0  0  0  0
  4  5  1  0  0  0  0
  4  3  1  0  0  0  0
  5  1  2  0  0  0  0
  8 14  1  0  0  0  0
  9  8  1  0  0  0  0
  9 15  1  0  0  0  0
 10  9  2  0  0  0  0
 11 12  2  0  0  0  0
 11 10  1  0  0  0  0
 12 13  1  0  0  0  0
 13  8  2  0  0  0  0
 16 12  1  0  0  0  0
 17 20  1  0  0  0  0
 17  4  1  0  0  0  0
 18 17  1  0  0  0  0
 19 17  1  0  0  0  0
 20 27  1  0  0  0  0
 21 23  1  0  0  0  0
 21 20  2  0  0  0  0
 22 21  1  0  0  0  0
 23 25  2  0  0  0  0
 24 23  1  0  0  0  0
 25 27  1  0  0  0  0
 25 26  1  0  0  0  0
M  END
>  <minimizedAffinity>
-4.69625664

>  <minimizedRMSD>
1.14384449

$$$$
