
 OpenBabel03212520313D

 40 43  0  0  0  0  0  0  0  0999 V2000
   42.3050   82.7320   62.1820 C   0  0  0  0  0  0  0  0  0  0  0  0
   42.7770   81.7330   61.3430 C   0  0  0  0  0  0  0  0  0  0  0  0
   44.0460   81.2250   61.4900 C   0  0  0  0  0  0  0  0  0  0  0  0
   44.9310   81.6710   62.4750 C   0  0  0  0  0  0  0  0  0  0  0  0
   44.4880   82.6610   63.3210 C   0  0  0  0  0  0  0  0  0  0  0  0
   43.2090   83.1720   63.1710 C   0  0  0  0  0  0  0  0  0  0  0  0
   44.4330   80.4390   60.8380 H   0  0  0  0  0  0  0  0  0  0  0  0
   45.9140   81.2510   62.5620 H   0  0  0  0  0  0  0  0  0  0  0  0
   45.1280   83.0410   64.0980 H   0  0  0  0  0  0  0  0  0  0  0  0
   42.8730   83.9500   63.8430 H   0  0  0  0  0  0  0  0  0  0  0  0
   40.3200   79.6770   59.5020 C   0  0  0  0  0  0  0  0  0  0  0  0
   40.3730   80.2150   58.2320 C   0  0  0  0  0  0  0  0  0  0  0  0
   41.2590   81.2790   58.0340 C   0  0  0  0  0  0  0  0  0  0  0  0
   42.0120   81.7260   59.0850 N   0  0  0  0  0  0  0  0  0  0  0  0
   41.9310   81.1820   60.2900 C   0  0  0  0  0  0  0  0  0  0  0  0
   41.0840   80.1610   60.4870 N   0  0  0  0  0  0  0  0  0  0  0  0
   39.6360   78.8560   59.6510 H   0  0  0  0  0  0  0  0  0  0  0  0
   41.3530   81.7420   57.0800 H   0  0  0  0  0  0  0  0  0  0  0  0
   39.5680   79.7120   57.1790 N   0  0  0  0  0  0  0  0  0  0  0  0
   38.5440   80.5020   56.8640 C   0  0  0  0  0  0  0  0  0  0  0  0
   37.6880   80.0960   55.8370 C   0  0  0  0  0  0  0  0  0  0  0  0
   37.9270   78.8990   55.1870 C   0  0  0  0  0  0  0  0  0  0  0  0
   37.2070   78.4630   54.2560 O   0  0  0  0  0  0  0  0  0  0  0  0
   39.0000   78.1410   55.5680 N   0  0  0  0  0  0  0  0  0  0  0  0
   39.8330   78.5350   56.5660 C   0  0  0  0  0  0  0  0  0  0  0  0
   40.8100   77.8600   56.9230 O   0  0  0  0  0  0  0  0  0  0  0  0
   38.3200   81.4450   57.3440 H   0  0  0  0  0  0  0  0  0  0  0  0
   36.8470   80.6920   55.5390 H   0  0  0  0  0  0  0  0  0  0  0  0
   39.2630   77.2210   55.1370 H   0  0  0  0  0  0  0  0  0  0  0  0
   40.7190   83.4000   62.0200 S   0  0  0  0  0  0  0  0  0  0  0  0
   40.4210   84.3170   63.1780 O   0  0  0  0  0  0  0  0  0  0  0  0
   39.7380   82.2450   62.1900 O   0  0  0  0  0  0  0  0  0  0  0  0
   40.4030   84.2820   60.5740 C   0  0  0  0  0  0  0  0  0  0  0  0
   39.3840   84.6610   59.6950 C   0  0  0  0  0  0  0  0  0  0  0  0
   38.4250   84.2610   60.0200 H   0  0  0  0  0  0  0  0  0  0  0  0
   39.9080   85.4300   58.6770 C   0  0  0  0  0  0  0  0  0  0  0  0
   39.2240   85.7920   57.9240 H   0  0  0  0  0  0  0  0  0  0  0  0
   41.2450   85.4920   58.9780 C   0  0  0  0  0  0  0  0  0  0  0  0
   41.8990   86.0640   58.3020 H   0  0  0  0  0  0  0  0  0  0  0  0
   41.5130   84.8260   60.0740 O   0  0  0  0  0  0  0  0  0  0  0  0
  1  6  1  0  0  0  0
  2  3  1  0  0  0  0
  2  1  2  0  0  0  0
  3  4  2  0  0  0  0
  4  8  1  0  0  0  0
  4  5  1  0  0  0  0
  5  9  1  0  0  0  0
  6  5  2  0  0  0  0
  6 10  1  0  0  0  0
  7  3  1  0  0  0  0
 11 17  1  0  0  0  0
 11 16  1  0  0  0  0
 12 11  2  0  0  0  0
 13 12  1  0  0  0  0
 13 14  2  0  0  0  0
 14 15  1  0  0  0  0
 15 16  2  0  0  0  0
 15  2  1  0  0  0  0
 18 13  1  0  0  0  0
 19 12  1  0  0  0  0
 20 19  1  0  0  0  0
 20 27  1  0  0  0  0
 21 20  2  0  0  0  0
 22 24  1  0  0  0  0
 22 21  1  0  0  0  0
 23 22  2  0  0  0  0
 24 25  1  0  0  0  0
 25 26  2  0  0  0  0
 25 19  1  0  0  0  0
 28 21  1  0  0  0  0
 29 24  1  0  0  0  0
 30  1  1  0  0  0  0
 30 32  2  0  0  0  0
 30 31  2  0  0  0  0
 33 30  1  0  0  0  0
 34 35  1  0  0  0  0
 34 33  2  0  0  0  0
 36 38  2  0  0  0  0
 36 34  1  0  0  0  0
 37 36  1  0  0  0  0
 38 40  1  0  0  0  0
 39 38  1  0  0  0  0
 40 33  1  0  0  0  0
M  END
>  <minimizedAffinity>
-6.02822113

>  <minimizedRMSD>
1.24460435

$$$$
