
 OpenBabel03212520313D

 40 43  0  0  0  0  0  0  0  0999 V2000
   42.2430   82.1390   62.2130 C   0  0  0  0  0  0  0  0  0  0  0  0
   42.7170   81.0620   61.4780 C   0  0  0  0  0  0  0  0  0  0  0  0
   44.0260   80.6530   61.5840 C   0  0  0  0  0  0  0  0  0  0  0  0
   44.9510   81.2820   62.4230 C   0  0  0  0  0  0  0  0  0  0  0  0
   44.5050   82.3540   63.1630 C   0  0  0  0  0  0  0  0  0  0  0  0
   43.1870   82.7640   63.0550 C   0  0  0  0  0  0  0  0  0  0  0  0
   44.4150   79.8080   61.0130 H   0  0  0  0  0  0  0  0  0  0  0  0
   45.9630   80.9360   62.4810 H   0  0  0  0  0  0  0  0  0  0  0  0
   45.1750   82.8730   63.8250 H   0  0  0  0  0  0  0  0  0  0  0  0
   42.8500   83.6070   63.6420 H   0  0  0  0  0  0  0  0  0  0  0  0
   40.3480   78.5740   60.1200 C   0  0  0  0  0  0  0  0  0  0  0  0
   40.1870   78.9960   58.8170 C   0  0  0  0  0  0  0  0  0  0  0  0
   40.9010   80.1340   58.4290 C   0  0  0  0  0  0  0  0  0  0  0  0
   41.7070   80.7600   59.3410 N   0  0  0  0  0  0  0  0  0  0  0  0
   41.8340   80.3220   60.5840 C   0  0  0  0  0  0  0  0  0  0  0  0
   41.1510   79.2310   60.9630 N   0  0  0  0  0  0  0  0  0  0  0  0
   39.7960   77.6950   60.4150 H   0  0  0  0  0  0  0  0  0  0  0  0
   40.8260   80.5160   57.4380 H   0  0  0  0  0  0  0  0  0  0  0  0
   39.3370   78.3080   57.9140 N   0  0  0  0  0  0  0  0  0  0  0  0
   38.4950   79.1050   57.2590 C   0  0  0  0  0  0  0  0  0  0  0  0
   37.6130   78.5240   56.3430 C   0  0  0  0  0  0  0  0  0  0  0  0
   37.6420   77.1550   56.1480 C   0  0  0  0  0  0  0  0  0  0  0  0
   36.8850   76.5570   55.3460 O   0  0  0  0  0  0  0  0  0  0  0  0
   38.5360   76.4020   56.8580 N   0  0  0  0  0  0  0  0  0  0  0  0
   39.3940   76.9660   57.7490 C   0  0  0  0  0  0  0  0  0  0  0  0
   40.2110   76.2980   58.4000 O   0  0  0  0  0  0  0  0  0  0  0  0
   38.4390   80.1780   57.3800 H   0  0  0  0  0  0  0  0  0  0  0  0
   36.9130   79.1160   55.7870 H   0  0  0  0  0  0  0  0  0  0  0  0
   38.6330   75.3610   56.7790 H   0  0  0  0  0  0  0  0  0  0  0  0
   40.6070   82.6860   62.0980 S   0  0  0  0  0  0  0  0  0  0  0  0
   40.1830   83.3320   63.3920 O   0  0  0  0  0  0  0  0  0  0  0  0
   39.7350   81.4390   61.9950 O   0  0  0  0  0  0  0  0  0  0  0  0
   40.2580   83.7990   60.8300 C   0  0  0  0  0  0  0  0  0  0  0  0
   39.2340   84.5570   60.2580 C   0  0  0  0  0  0  0  0  0  0  0  0
   38.2970   84.4040   60.7900 H   0  0  0  0  0  0  0  0  0  0  0  0
   39.7250   85.2740   59.1870 C   0  0  0  0  0  0  0  0  0  0  0  0
   39.0330   85.9060   58.6510 H   0  0  0  0  0  0  0  0  0  0  0  0
   41.0500   84.9200   59.1460 C   0  0  0  0  0  0  0  0  0  0  0  0
   41.6790   85.3680   58.3600 H   0  0  0  0  0  0  0  0  0  0  0  0
   41.3410   84.0700   60.0990 O   0  0  0  0  0  0  0  0  0  0  0  0
  1  6  1  0  0  0  0
  2  3  1  0  0  0  0
  2  1  2  0  0  0  0
  3  4  2  0  0  0  0
  4  8  1  0  0  0  0
  4  5  1  0  0  0  0
  5  9  1  0  0  0  0
  6  5  2  0  0  0  0
  6 10  1  0  0  0  0
  7  3  1  0  0  0  0
 11 17  1  0  0  0  0
 11 16  1  0  0  0  0
 12 11  2  0  0  0  0
 13 12  1  0  0  0  0
 13 14  2  0  0  0  0
 14 15  1  0  0  0  0
 15 16  2  0  0  0  0
 15  2  1  0  0  0  0
 18 13  1  0  0  0  0
 19 12  1  0  0  0  0
 20 27  1  0  0  0  0
 20 19  1  0  0  0  0
 21 20  2  0  0  0  0
 22 21  1  0  0  0  0
 22 24  1  0  0  0  0
 23 22  2  0  0  0  0
 24 25  1  0  0  0  0
 25 19  1  0  0  0  0
 25 26  2  0  0  0  0
 28 21  1  0  0  0  0
 29 24  1  0  0  0  0
 30  1  1  0  0  0  0
 30 31  2  0  0  0  0
 32 30  2  0  0  0  0
 33 30  1  0  0  0  0
 34 35  1  0  0  0  0
 34 33  2  0  0  0  0
 36 34  1  0  0  0  0
 37 36  1  0  0  0  0
 38 36  2  0  0  0  0
 38 40  1  0  0  0  0
 39 38  1  0  0  0  0
 40 33  1  0  0  0  0
M  END
>  <minimizedAffinity>
-6.38269234

>  <minimizedRMSD>
2.19837236

$$$$
