
 OpenBabel03212520273D

 27 29  0  0  0  0  0  0  0  0999 V2000
   44.3130   85.2930   59.9580 C   0  0  0  0  0  0  0  0  0  0  0  0
   44.6670   86.4930   60.5460 C   0  0  0  0  0  0  0  0  0  0  0  0
   44.0000   86.4090   61.7740 C   0  0  0  0  0  0  0  0  0  0  0  0
   43.3210   85.2520   61.8750 N   0  0  0  0  0  0  0  0  0  0  0  0
   43.5150   84.5560   60.7470 N   0  0  0  0  0  0  0  0  0  0  0  0
   45.2870   87.2850   60.1720 H   0  0  0  0  0  0  0  0  0  0  0  0
   44.0250   87.1770   62.5530 H   0  0  0  0  0  0  0  0  0  0  0  0
   45.3400   85.3140   56.3760 C   0  0  0  0  0  0  0  0  0  0  0  0
   44.9220   85.7950   57.6120 C   0  0  0  0  0  0  0  0  0  0  0  0
   44.7510   84.8610   58.6270 C   0  0  0  0  0  0  0  0  0  0  0  0
   44.9920   83.5360   58.3850 N   0  0  0  0  0  0  0  0  0  0  0  0
   45.3980   83.1410   57.1500 C   0  0  0  0  0  0  0  0  0  0  0  0
   45.5700   84.0120   56.1580 N   0  0  0  0  0  0  0  0  0  0  0  0
   45.4970   85.9680   55.5340 H   0  0  0  0  0  0  0  0  0  0  0  0
   44.7420   86.8490   57.7650 H   0  0  0  0  0  0  0  0  0  0  0  0
   45.5420   82.0680   57.1320 H   0  0  0  0  0  0  0  0  0  0  0  0
   42.5150   84.8180   63.0050 C   0  0  0  0  0  0  0  0  0  0  0  0
   43.1480   84.3420   63.7620 H   0  0  0  0  0  0  0  0  0  0  0  0
   42.0120   85.7220   63.3960 H   0  0  0  0  0  0  0  0  0  0  0  0
   41.5050   83.8360   62.5110 C   0  0  0  0  0  0  0  0  0  0  0  0
   40.2660   84.0810   61.9550 C   0  0  0  0  0  0  0  0  0  0  0  0
   39.8670   85.0800   61.8070 H   0  0  0  0  0  0  0  0  0  0  0  0
   39.7030   82.8610   61.6590 C   0  0  0  0  0  0  0  0  0  0  0  0
   38.7310   82.6930   61.2100 H   0  0  0  0  0  0  0  0  0  0  0  0
   40.6590   81.9260   62.0620 C   0  0  0  0  0  0  0  0  0  0  0  0
   40.5330   80.8410   61.9680 H   0  0  0  0  0  0  0  0  0  0  0  0
   41.7110   82.5290   62.5610 O   0  0  0  0  0  0  0  0  0  0  0  0
  1  2  1  0  0  0  0
  1  5  2  0  0  0  0
  2  3  2  0  0  0  0
  3  4  1  0  0  0  0
  3  7  1  0  0  0  0
  4 17  1  0  0  0  0
  5  4  1  0  0  0  0
  6  2  1  0  0  0  0
  8  9  1  0  0  0  0
  9 15  1  0  0  0  0
  9 10  2  0  0  0  0
 10  1  1  0  0  0  0
 11 10  1  0  0  0  0
 12 11  2  0  0  0  0
 13  8  2  0  0  0  0
 13 12  1  0  0  0  0
 14  8  1  0  0  0  0
 16 12  1  0  0  0  0
 17 19  1  0  0  0  0
 17 18  1  0  0  0  0
 20 27  1  0  0  0  0
 20 17  1  0  0  0  0
 21 20  2  0  0  0  0
 22 21  1  0  0  0  0
 23 21  1  0  0  0  0
 23 25  2  0  0  0  0
 24 23  1  0  0  0  0
 25 27  1  0  0  0  0
 26 25  1  0  0  0  0
M  END
>  <minimizedAffinity>
-3.51528072

>  <minimizedRMSD>
6.0143609

$$$$
