
 OpenBabel03212520313D

 40 43  0  0  0  0  0  0  0  0999 V2000
   42.4050   82.7710   62.2480 C   0  0  0  0  0  0  0  0  0  0  0  0
   42.8050   81.6600   61.5190 C   0  0  0  0  0  0  0  0  0  0  0  0
   44.0440   81.0950   61.7130 C   0  0  0  0  0  0  0  0  0  0  0  0
   44.9670   81.5900   62.6380 C   0  0  0  0  0  0  0  0  0  0  0  0
   44.5940   82.6920   63.3740 C   0  0  0  0  0  0  0  0  0  0  0  0
   43.3460   83.2600   63.1780 C   0  0  0  0  0  0  0  0  0  0  0  0
   44.3760   80.2210   61.1480 H   0  0  0  0  0  0  0  0  0  0  0  0
   45.9240   81.1240   62.7630 H   0  0  0  0  0  0  0  0  0  0  0  0
   45.2660   83.1130   64.1010 H   0  0  0  0  0  0  0  0  0  0  0  0
   43.0650   84.1250   63.7630 H   0  0  0  0  0  0  0  0  0  0  0  0
   40.1870   79.5910   59.9340 C   0  0  0  0  0  0  0  0  0  0  0  0
   40.2780   79.9600   58.6080 C   0  0  0  0  0  0  0  0  0  0  0  0
   41.2440   80.9180   58.2840 C   0  0  0  0  0  0  0  0  0  0  0  0
   42.0340   81.4320   59.2760 N   0  0  0  0  0  0  0  0  0  0  0  0
   41.9150   81.0510   60.5380 C   0  0  0  0  0  0  0  0  0  0  0  0
   40.9900   80.1320   60.8560 N   0  0  0  0  0  0  0  0  0  0  0  0
   39.4410   78.8520   60.1800 H   0  0  0  0  0  0  0  0  0  0  0  0
   41.3710   81.2500   57.2800 H   0  0  0  0  0  0  0  0  0  0  0  0
   39.4320   79.3950   57.6210 N   0  0  0  0  0  0  0  0  0  0  0  0
   38.7440   80.2980   56.9240 C   0  0  0  0  0  0  0  0  0  0  0  0
   37.8790   79.8430   55.9250 C   0  0  0  0  0  0  0  0  0  0  0  0
   37.7650   78.4850   55.6940 C   0  0  0  0  0  0  0  0  0  0  0  0
   37.0120   77.9950   54.8170 O   0  0  0  0  0  0  0  0  0  0  0  0
   38.5040   77.6180   56.4500 N   0  0  0  0  0  0  0  0  0  0  0  0
   39.3450   78.0590   57.4220 C   0  0  0  0  0  0  0  0  0  0  0  0
   40.0230   77.2870   58.1170 O   0  0  0  0  0  0  0  0  0  0  0  0
   38.8030   81.3670   57.0710 H   0  0  0  0  0  0  0  0  0  0  0  0
   37.3000   80.5230   55.3320 H   0  0  0  0  0  0  0  0  0  0  0  0
   38.4850   76.5740   56.3500 H   0  0  0  0  0  0  0  0  0  0  0  0
   40.8590   83.5120   62.0240 S   0  0  0  0  0  0  0  0  0  0  0  0
   40.5780   84.4750   63.1490 O   0  0  0  0  0  0  0  0  0  0  0  0
   39.8170   82.4120   62.1990 O   0  0  0  0  0  0  0  0  0  0  0  0
   40.6260   84.3670   60.5470 C   0  0  0  0  0  0  0  0  0  0  0  0
   41.2850   84.8250   59.4020 C   0  0  0  0  0  0  0  0  0  0  0  0
   42.3400   84.5570   59.4330 H   0  0  0  0  0  0  0  0  0  0  0  0
   40.3930   85.4790   58.5800 C   0  0  0  0  0  0  0  0  0  0  0  0
   40.7740   85.8860   57.6550 H   0  0  0  0  0  0  0  0  0  0  0  0
   39.2060   85.3950   59.2640 C   0  0  0  0  0  0  0  0  0  0  0  0
   38.3150   85.8530   58.8070 H   0  0  0  0  0  0  0  0  0  0  0  0
   39.3570   84.7510   60.3940 O   0  0  0  0  0  0  0  0  0  0  0  0
  1  6  1  0  0  0  0
  2  3  1  0  0  0  0
  2  1  2  0  0  0  0
  3  4  2  0  0  0  0
  4  8  1  0  0  0  0
  4  5  1  0  0  0  0
  5  9  1  0  0  0  0
  6  5  2  0  0  0  0
  6 10  1  0  0  0  0
  7  3  1  0  0  0  0
 11 17  1  0  0  0  0
 11 16  1  0  0  0  0
 12 11  2  0  0  0  0
 13 12  1  0  0  0  0
 13 14  2  0  0  0  0
 14 15  1  0  0  0  0
 15 16  2  0  0  0  0
 15  2  1  0  0  0  0
 18 13  1  0  0  0  0
 19 12  1  0  0  0  0
 20 27  1  0  0  0  0
 20 19  1  0  0  0  0
 21 20  2  0  0  0  0
 22 21  1  0  0  0  0
 22 24  1  0  0  0  0
 23 22  2  0  0  0  0
 24 25  1  0  0  0  0
 25 19  1  0  0  0  0
 25 26  2  0  0  0  0
 28 21  1  0  0  0  0
 29 24  1  0  0  0  0
 30 32  2  0  0  0  0
 30  1  1  0  0  0  0
 30 31  2  0  0  0  0
 33 30  1  0  0  0  0
 34 35  1  0  0  0  0
 34 33  2  0  0  0  0
 36 38  2  0  0  0  0
 36 34  1  0  0  0  0
 37 36  1  0  0  0  0
 38 40  1  0  0  0  0
 39 38  1  0  0  0  0
 40 33  1  0  0  0  0
M  END
>  <minimizedAffinity>
-6.4313221

>  <minimizedRMSD>
1.68814433

$$$$
