
 OpenBabel03212520133D

 30 32  0  0  0  0  0  0  0  0999 V2000
   43.0520   83.9860   58.5920 Cl  0  0  0  0  0  0  0  0  0  0  0  0
   41.8590   82.7670   58.2100 C   0  0  0  0  0  0  0  0  0  0  0  0
   41.0300   82.2170   59.1740 C   0  0  0  0  0  0  0  0  0  0  0  0
   40.1330   81.2640   58.7270 C   0  0  0  0  0  0  0  0  0  0  0  0
   40.0110   80.8370   57.4130 C   0  0  0  0  0  0  0  0  0  0  0  0
   40.8440   81.4080   56.5130 C   0  0  0  0  0  0  0  0  0  0  0  0
   40.7200   80.9090   54.8240 Cl  0  0  0  0  0  0  0  0  0  0  0  0
   41.7780   82.3800   56.9020 C   0  0  0  0  0  0  0  0  0  0  0  0
   39.4960   80.8460   59.4900 H   0  0  0  0  0  0  0  0  0  0  0  0
   39.3060   80.1000   57.1000 H   0  0  0  0  0  0  0  0  0  0  0  0
   41.9840   82.1650   61.5200 C   0  0  0  0  0  0  0  0  0  0  0  0
   41.1420   82.6480   60.5240 C   0  0  0  0  0  0  0  0  0  0  0  0
   40.2770   83.7090   60.8810 C   0  0  0  0  0  0  0  0  0  0  0  0
   40.3220   84.1810   62.1530 N   0  0  0  0  0  0  0  0  0  0  0  0
   41.1550   83.6810   63.0820 C   0  0  0  0  0  0  0  0  0  0  0  0
   41.9740   82.6830   62.7570 N   0  0  0  0  0  0  0  0  0  0  0  0
   42.6180   81.3650   61.2020 H   0  0  0  0  0  0  0  0  0  0  0  0
   39.5860   84.1510   60.1790 H   0  0  0  0  0  0  0  0  0  0  0  0
   41.0770   84.3140   64.4270 C   0  0  0  0  0  0  0  0  0  0  0  0
   40.7210   85.6470   64.3480 F   0  0  0  0  0  0  0  0  0  0  0  0
   40.1020   83.6770   65.1820 F   0  0  0  0  0  0  0  0  0  0  0  0
   42.3010   84.2830   65.0710 F   0  0  0  0  0  0  0  0  0  0  0  0
   42.5890   82.8770   55.7950 C   0  0  0  0  0  0  0  0  0  0  0  0
   43.7940   82.4510   55.3030 C   0  0  0  0  0  0  0  0  0  0  0  0
   44.4300   81.6470   55.6150 H   0  0  0  0  0  0  0  0  0  0  0  0
   44.2280   83.1930   54.2370 C   0  0  0  0  0  0  0  0  0  0  0  0
   45.1100   83.1410   53.6210 H   0  0  0  0  0  0  0  0  0  0  0  0
   43.2120   84.1080   54.1020 C   0  0  0  0  0  0  0  0  0  0  0  0
   43.0810   84.9340   53.3840 H   0  0  0  0  0  0  0  0  0  0  0  0
   42.3380   83.8680   55.0030 O   0  0  0  0  0  0  0  0  0  0  0  0
  2  1  1  0  0  0  0
  2  3  1  0  0  0  0
  3 12  1  0  0  0  0
  4  3  2  0  0  0  0
  4  9  1  0  0  0  0
  5  4  1  0  0  0  0
  6  8  1  0  0  0  0
  6  5  2  0  0  0  0
  7  6  1  0  0  0  0
  8  2  2  0  0  0  0
 10  5  1  0  0  0  0
 11 16  1  0  0  0  0
 12 13  1  0  0  0  0
 12 11  2  0  0  0  0
 13 14  2  0  0  0  0
 14 15  1  0  0  0  0
 15 19  1  0  0  0  0
 16 15  2  0  0  0  0
 17 11  1  0  0  0  0
 18 13  1  0  0  0  0
 19 22  1  0  0  0  0
 19 21  1  0  0  0  0
 20 19  1  0  0  0  0
 23  8  1  0  0  0  0
 24 25  1  0  0  0  0
 24 23  2  0  0  0  0
 26 24  1  0  0  0  0
 27 26  1  0  0  0  0
 28 26  2  0  0  0  0
 28 30  1  0  0  0  0
 29 28  1  0  0  0  0
 30 23  1  0  0  0  0
M  END
>  <minimizedAffinity>
-5.19663334

>  <minimizedRMSD>
0.972957134

$$$$
