
 OpenBabel03212520313D

 40 43  0  0  0  0  0  0  0  0999 V2000
   43.1030   82.5840   62.6340 C   0  0  0  0  0  0  0  0  0  0  0  0
   43.4360   81.5580   61.7620 C   0  0  0  0  0  0  0  0  0  0  0  0
   44.7130   81.0490   61.7220 C   0  0  0  0  0  0  0  0  0  0  0  0
   45.7430   81.5210   62.5400 C   0  0  0  0  0  0  0  0  0  0  0  0
   45.4380   82.5400   63.4150 C   0  0  0  0  0  0  0  0  0  0  0  0
   44.1510   83.0510   63.4530 C   0  0  0  0  0  0  0  0  0  0  0  0
   44.9930   80.2420   61.0420 H   0  0  0  0  0  0  0  0  0  0  0  0
   46.7270   81.1010   62.4830 H   0  0  0  0  0  0  0  0  0  0  0  0
   46.1930   82.9400   64.0680 H   0  0  0  0  0  0  0  0  0  0  0  0
   43.9250   83.8510   64.1450 H   0  0  0  0  0  0  0  0  0  0  0  0
   40.5550   79.6450   60.4620 C   0  0  0  0  0  0  0  0  0  0  0  0
   40.5890   79.9340   59.1130 C   0  0  0  0  0  0  0  0  0  0  0  0
   41.6090   80.7850   58.6760 C   0  0  0  0  0  0  0  0  0  0  0  0
   42.5030   81.2800   59.5870 N   0  0  0  0  0  0  0  0  0  0  0  0
   42.4350   80.9770   60.8740 C   0  0  0  0  0  0  0  0  0  0  0  0
   41.4590   80.1620   61.3000 N   0  0  0  0  0  0  0  0  0  0  0  0
   39.7660   78.9880   60.7950 H   0  0  0  0  0  0  0  0  0  0  0  0
   41.6970   81.0520   57.6490 H   0  0  0  0  0  0  0  0  0  0  0  0
   39.6350   79.3940   58.2140 N   0  0  0  0  0  0  0  0  0  0  0  0
   39.1950   80.2690   57.3110 C   0  0  0  0  0  0  0  0  0  0  0  0
   38.2510   79.8350   56.3770 C   0  0  0  0  0  0  0  0  0  0  0  0
   37.8060   78.5260   56.4190 C   0  0  0  0  0  0  0  0  0  0  0  0
   36.9610   78.0590   55.6180 O   0  0  0  0  0  0  0  0  0  0  0  0
   38.3050   77.6870   57.3760 N   0  0  0  0  0  0  0  0  0  0  0  0
   39.2230   78.1070   58.2850 C   0  0  0  0  0  0  0  0  0  0  0  0
   39.6860   77.3590   59.1590 O   0  0  0  0  0  0  0  0  0  0  0  0
   39.5150   81.2990   57.2420 H   0  0  0  0  0  0  0  0  0  0  0  0
   37.8610   80.4940   55.6270 H   0  0  0  0  0  0  0  0  0  0  0  0
   38.0300   76.6810   57.4880 H   0  0  0  0  0  0  0  0  0  0  0  0
   41.5100   83.2530   62.7040 S   0  0  0  0  0  0  0  0  0  0  0  0
   41.5000   84.4780   63.5810 O   0  0  0  0  0  0  0  0  0  0  0  0
   40.6450   82.2450   63.4520 O   0  0  0  0  0  0  0  0  0  0  0  0
   40.7970   83.6940   61.1990 C   0  0  0  0  0  0  0  0  0  0  0  0
   39.6680   83.5020   60.3960 C   0  0  0  0  0  0  0  0  0  0  0  0
   38.9650   82.8240   60.8770 H   0  0  0  0  0  0  0  0  0  0  0  0
   39.7930   84.2340   59.2340 C   0  0  0  0  0  0  0  0  0  0  0  0
   38.9840   84.1760   58.5210 H   0  0  0  0  0  0  0  0  0  0  0  0
   41.0080   84.8530   59.3730 C   0  0  0  0  0  0  0  0  0  0  0  0
   41.3470   85.5120   58.5590 H   0  0  0  0  0  0  0  0  0  0  0  0
   41.5740   84.5320   60.5110 O   0  0  0  0  0  0  0  0  0  0  0  0
  1 30  1  0  0  0  0
  1  6  1  0  0  0  0
  2  1  2  0  0  0  0
  3  2  1  0  0  0  0
  3  4  2  0  0  0  0
  4  5  1  0  0  0  0
  5  6  2  0  0  0  0
  5  9  1  0  0  0  0
  6 10  1  0  0  0  0
  7  3  1  0  0  0  0
  8  4  1  0  0  0  0
 11 17  1  0  0  0  0
 11 16  1  0  0  0  0
 12 11  2  0  0  0  0
 13 12  1  0  0  0  0
 13 14  2  0  0  0  0
 14 15  1  0  0  0  0
 15 16  2  0  0  0  0
 15  2  1  0  0  0  0
 18 13  1  0  0  0  0
 19 25  1  0  0  0  0
 19 12  1  0  0  0  0
 20 19  1  0  0  0  0
 21 22  1  0  0  0  0
 21 20  2  0  0  0  0
 22 24  1  0  0  0  0
 23 22  2  0  0  0  0
 24 29  1  0  0  0  0
 24 25  1  0  0  0  0
 25 26  2  0  0  0  0
 27 20  1  0  0  0  0
 28 21  1  0  0  0  0
 30 32  2  0  0  0  0
 30 31  2  0  0  0  0
 33 30  1  0  0  0  0
 34 35  1  0  0  0  0
 34 33  2  0  0  0  0
 36 38  2  0  0  0  0
 36 34  1  0  0  0  0
 37 36  1  0  0  0  0
 38 40  1  0  0  0  0
 39 38  1  0  0  0  0
 40 33  1  0  0  0  0
M  END
>  <minimizedAffinity>
-6.43162394

>  <minimizedRMSD>
2.1183188

$$$$
