
 OpenBabel03212520313D

 40 43  0  0  0  0  0  0  0  0999 V2000
   42.3090   82.7280   62.1860 C   0  0  0  0  0  0  0  0  0  0  0  0
   42.7800   81.7310   61.3450 C   0  0  0  0  0  0  0  0  0  0  0  0
   44.0510   81.2240   61.4900 C   0  0  0  0  0  0  0  0  0  0  0  0
   44.9370   81.6700   62.4750 C   0  0  0  0  0  0  0  0  0  0  0  0
   44.4920   82.6590   63.3230 C   0  0  0  0  0  0  0  0  0  0  0  0
   43.2120   83.1680   63.1740 C   0  0  0  0  0  0  0  0  0  0  0  0
   44.4390   80.4400   60.8370 H   0  0  0  0  0  0  0  0  0  0  0  0
   45.9200   81.2520   62.5600 H   0  0  0  0  0  0  0  0  0  0  0  0
   45.1330   83.0390   64.0980 H   0  0  0  0  0  0  0  0  0  0  0  0
   42.8760   83.9450   63.8480 H   0  0  0  0  0  0  0  0  0  0  0  0
   40.3240   79.6740   59.5050 C   0  0  0  0  0  0  0  0  0  0  0  0
   40.3760   80.2110   58.2360 C   0  0  0  0  0  0  0  0  0  0  0  0
   41.2610   81.2760   58.0370 C   0  0  0  0  0  0  0  0  0  0  0  0
   42.0150   81.7230   59.0880 N   0  0  0  0  0  0  0  0  0  0  0  0
   41.9350   81.1790   60.2920 C   0  0  0  0  0  0  0  0  0  0  0  0
   41.0880   80.1580   60.4900 N   0  0  0  0  0  0  0  0  0  0  0  0
   39.6400   78.8520   59.6540 H   0  0  0  0  0  0  0  0  0  0  0  0
   41.3540   81.7400   57.0830 H   0  0  0  0  0  0  0  0  0  0  0  0
   39.5710   79.7080   57.1830 N   0  0  0  0  0  0  0  0  0  0  0  0
   38.5480   80.4990   56.8660 C   0  0  0  0  0  0  0  0  0  0  0  0
   37.6910   80.0940   55.8400 C   0  0  0  0  0  0  0  0  0  0  0  0
   37.9290   78.8950   55.1910 C   0  0  0  0  0  0  0  0  0  0  0  0
   37.2090   78.4590   54.2600 O   0  0  0  0  0  0  0  0  0  0  0  0
   39.0010   78.1360   55.5730 N   0  0  0  0  0  0  0  0  0  0  0  0
   39.8350   78.5300   56.5710 C   0  0  0  0  0  0  0  0  0  0  0  0
   40.8110   77.8550   56.9290 O   0  0  0  0  0  0  0  0  0  0  0  0
   38.3240   81.4430   57.3460 H   0  0  0  0  0  0  0  0  0  0  0  0
   36.8510   80.6900   55.5410 H   0  0  0  0  0  0  0  0  0  0  0  0
   39.2630   77.2160   55.1420 H   0  0  0  0  0  0  0  0  0  0  0  0
   40.7210   83.3930   62.0260 S   0  0  0  0  0  0  0  0  0  0  0  0
   40.4220   84.3080   63.1860 O   0  0  0  0  0  0  0  0  0  0  0  0
   39.7420   82.2360   62.1950 O   0  0  0  0  0  0  0  0  0  0  0  0
   40.4020   84.2770   60.5810 C   0  0  0  0  0  0  0  0  0  0  0  0
   39.3810   84.6570   59.7050 C   0  0  0  0  0  0  0  0  0  0  0  0
   38.4230   84.2580   60.0330 H   0  0  0  0  0  0  0  0  0  0  0  0
   39.9030   85.4270   58.6870 C   0  0  0  0  0  0  0  0  0  0  0  0
   39.2180   85.7900   57.9360 H   0  0  0  0  0  0  0  0  0  0  0  0
   41.2410   85.4880   58.9850 C   0  0  0  0  0  0  0  0  0  0  0  0
   41.8940   86.0580   58.3080 H   0  0  0  0  0  0  0  0  0  0  0  0
   41.5120   84.8200   60.0790 O   0  0  0  0  0  0  0  0  0  0  0  0
  1  6  1  0  0  0  0
  2  3  1  0  0  0  0
  2  1  2  0  0  0  0
  3  4  2  0  0  0  0
  4  8  1  0  0  0  0
  4  5  1  0  0  0  0
  5  9  1  0  0  0  0
  6  5  2  0  0  0  0
  6 10  1  0  0  0  0
  7  3  1  0  0  0  0
 11 17  1  0  0  0  0
 11 16  1  0  0  0  0
 12 11  2  0  0  0  0
 13 12  1  0  0  0  0
 13 14  2  0  0  0  0
 14 15  1  0  0  0  0
 15 16  2  0  0  0  0
 15  2  1  0  0  0  0
 18 13  1  0  0  0  0
 19 12  1  0  0  0  0
 20 19  1  0  0  0  0
 20 27  1  0  0  0  0
 21 20  2  0  0  0  0
 22 24  1  0  0  0  0
 22 21  1  0  0  0  0
 23 22  2  0  0  0  0
 24 25  1  0  0  0  0
 25 26  2  0  0  0  0
 25 19  1  0  0  0  0
 28 21  1  0  0  0  0
 29 24  1  0  0  0  0
 30  1  1  0  0  0  0
 30 32  2  0  0  0  0
 30 31  2  0  0  0  0
 33 30  1  0  0  0  0
 34 35  1  0  0  0  0
 34 33  2  0  0  0  0
 36 38  2  0  0  0  0
 36 34  1  0  0  0  0
 37 36  1  0  0  0  0
 38 40  1  0  0  0  0
 39 38  1  0  0  0  0
 40 33  1  0  0  0  0
M  END
>  <minimizedAffinity>
-6.03173494

>  <minimizedRMSD>
1.26398885

$$$$
