
 OpenBabel03212520133D

 30 32  0  0  0  0  0  0  0  0999 V2000
   42.7940   83.7280   58.4250 Cl  0  0  0  0  0  0  0  0  0  0  0  0
   41.6090   82.4690   58.1630 C   0  0  0  0  0  0  0  0  0  0  0  0
   40.8470   81.9470   59.1940 C   0  0  0  0  0  0  0  0  0  0  0  0
   39.9480   80.9580   58.8390 C   0  0  0  0  0  0  0  0  0  0  0  0
   39.7640   80.4700   57.5540 C   0  0  0  0  0  0  0  0  0  0  0  0
   40.5340   81.0160   56.5850 C   0  0  0  0  0  0  0  0  0  0  0  0
   40.3290   80.4400   54.9280 Cl  0  0  0  0  0  0  0  0  0  0  0  0
   41.4660   82.0230   56.8790 C   0  0  0  0  0  0  0  0  0  0  0  0
   39.3630   80.5610   59.6540 H   0  0  0  0  0  0  0  0  0  0  0  0
   39.0600   79.7050   57.3130 H   0  0  0  0  0  0  0  0  0  0  0  0
   41.9710   82.0620   61.4610 C   0  0  0  0  0  0  0  0  0  0  0  0
   41.0230   82.4390   60.5160 C   0  0  0  0  0  0  0  0  0  0  0  0
   40.1060   83.4460   60.9000 C   0  0  0  0  0  0  0  0  0  0  0  0
   40.2060   83.9710   62.1470 N   0  0  0  0  0  0  0  0  0  0  0  0
   41.1410   83.5740   63.0270 C   0  0  0  0  0  0  0  0  0  0  0  0
   42.0100   82.6280   62.6770 N   0  0  0  0  0  0  0  0  0  0  0  0
   42.6400   81.3000   61.1250 H   0  0  0  0  0  0  0  0  0  0  0  0
   39.3330   83.8060   60.2370 H   0  0  0  0  0  0  0  0  0  0  0  0
   41.1120   84.2530   64.3520 C   0  0  0  0  0  0  0  0  0  0  0  0
   40.7840   85.5910   64.2370 F   0  0  0  0  0  0  0  0  0  0  0  0
   40.1430   83.6650   65.1530 F   0  0  0  0  0  0  0  0  0  0  0  0
   42.3520   84.2170   64.9650 F   0  0  0  0  0  0  0  0  0  0  0  0
   42.2030   82.4870   55.7080 C   0  0  0  0  0  0  0  0  0  0  0  0
   43.4260   82.1170   55.2140 C   0  0  0  0  0  0  0  0  0  0  0  0
   44.1340   81.3970   55.5710 H   0  0  0  0  0  0  0  0  0  0  0  0
   43.7700   82.7980   54.0760 C   0  0  0  0  0  0  0  0  0  0  0  0
   44.6370   82.7640   53.4380 H   0  0  0  0  0  0  0  0  0  0  0  0
   42.6790   83.6140   53.8990 C   0  0  0  0  0  0  0  0  0  0  0  0
   42.4610   84.3620   53.1190 H   0  0  0  0  0  0  0  0  0  0  0  0
   41.8520   83.3830   54.8460 O   0  0  0  0  0  0  0  0  0  0  0  0
  2  1  1  0  0  0  0
  2  3  1  0  0  0  0
  3 12  1  0  0  0  0
  4  3  2  0  0  0  0
  4  9  1  0  0  0  0
  5  4  1  0  0  0  0
  6  8  1  0  0  0  0
  6  5  2  0  0  0  0
  7  6  1  0  0  0  0
  8  2  2  0  0  0  0
 10  5  1  0  0  0  0
 11 16  1  0  0  0  0
 12 13  1  0  0  0  0
 12 11  2  0  0  0  0
 13 14  2  0  0  0  0
 14 15  1  0  0  0  0
 15 19  1  0  0  0  0
 16 15  2  0  0  0  0
 17 11  1  0  0  0  0
 18 13  1  0  0  0  0
 19 22  1  0  0  0  0
 19 21  1  0  0  0  0
 20 19  1  0  0  0  0
 23  8  1  0  0  0  0
 24 25  1  0  0  0  0
 24 23  2  0  0  0  0
 26 24  1  0  0  0  0
 27 26  1  0  0  0  0
 28 26  2  0  0  0  0
 28 30  1  0  0  0  0
 29 28  1  0  0  0  0
 30 23  1  0  0  0  0
M  END
>  <minimizedAffinity>
-5.13438892

>  <minimizedRMSD>
0.706986368

$$$$
