
 OpenBabel03212520353D

 35 38  0  0  0  0  0  0  0  0999 V2000
   39.9600   81.1740   58.2160 C   0  0  0  0  0  0  0  0  0  0  0  0
   40.1540   79.8000   57.9660 C   0  0  0  0  0  0  0  0  0  0  0  0
   40.6640   78.9510   59.0170 C   0  0  0  0  0  0  0  0  0  0  0  0
   40.9280   79.5520   60.2080 N   0  0  0  0  0  0  0  0  0  0  0  0
   40.7180   80.9040   60.4080 C   0  0  0  0  0  0  0  0  0  0  0  0
   40.2390   81.6930   59.4170 N   0  0  0  0  0  0  0  0  0  0  0  0
   39.6590   81.8610   57.4740 H   0  0  0  0  0  0  0  0  0  0  0  0
   40.8670   77.9090   59.0260 H   0  0  0  0  0  0  0  0  0  0  0  0
   39.9180   79.0700   56.7370 C   0  0  0  0  0  0  0  0  0  0  0  0
   40.9910   79.1340   55.8190 C   0  0  0  0  0  0  0  0  0  0  0  0
   40.9530   78.5870   54.5740 C   0  0  0  0  0  0  0  0  0  0  0  0
   39.8110   77.9230   54.1530 C   0  0  0  0  0  0  0  0  0  0  0  0
   38.7480   77.8470   55.0380 C   0  0  0  0  0  0  0  0  0  0  0  0
   37.5720   77.2120   54.7250 C   0  0  0  0  0  0  0  0  0  0  0  0
   36.5230   77.1440   55.6240 C   0  0  0  0  0  0  0  0  0  0  0  0
   36.6100   77.7080   56.8860 C   0  0  0  0  0  0  0  0  0  0  0  0
   37.7920   78.3460   57.2030 C   0  0  0  0  0  0  0  0  0  0  0  0
   38.7960   78.4040   56.3030 C   0  0  0  0  0  0  0  0  0  0  0  0
   41.9480   79.6140   55.9680 H   0  0  0  0  0  0  0  0  0  0  0  0
   41.7320   78.6010   53.8320 H   0  0  0  0  0  0  0  0  0  0  0  0
   39.6700   77.4520   53.1860 H   0  0  0  0  0  0  0  0  0  0  0  0
   37.5260   76.7710   53.7200 H   0  0  0  0  0  0  0  0  0  0  0  0
   35.6590   76.6060   55.2200 H   0  0  0  0  0  0  0  0  0  0  0  0
   35.7460   77.5950   57.5010 H   0  0  0  0  0  0  0  0  0  0  0  0
   37.7480   78.6730   58.2150 H   0  0  0  0  0  0  0  0  0  0  0  0
   41.0140   81.5230   61.7010 C   0  0  0  0  0  0  0  0  0  0  0  0
   40.5440   81.1010   62.7770 O   0  0  0  0  0  0  0  0  0  0  0  0
   41.9030   82.6900   61.7210 C   0  0  0  0  0  0  0  0  0  0  0  0
   43.2950   82.5610   61.6850 C   0  0  0  0  0  0  0  0  0  0  0  0
   43.8850   81.6530   61.6400 H   0  0  0  0  0  0  0  0  0  0  0  0
   43.7950   83.8450   61.7180 C   0  0  0  0  0  0  0  0  0  0  0  0
   44.8430   84.1050   61.7020 H   0  0  0  0  0  0  0  0  0  0  0  0
   42.6940   84.6770   61.7720 C   0  0  0  0  0  0  0  0  0  0  0  0
   42.8340   85.7560   61.8070 H   0  0  0  0  0  0  0  0  0  0  0  0
   41.6150   83.9550   61.7720 O   0  0  0  0  0  0  0  0  0  0  0  0
  1  6  1  0  0  0  0
  2  1  2  0  0  0  0
  2  3  1  0  0  0  0
  3  8  1  0  0  0  0
  3  4  2  0  0  0  0
  4  5  1  0  0  0  0
  5 26  1  0  0  0  0
  6  5  2  0  0  0  0
  7  1  1  0  0  0  0
  9  2  1  0  0  0  0
 10 19  1  0  0  0  0
 10  9  2  0  0  0  0
 11 10  1  0  0  0  0
 12 11  2  0  0  0  0
 12 13  1  0  0  0  0
 13 18  1  0  0  0  0
 14 13  2  0  0  0  0
 14 15  1  0  0  0  0
 15 16  2  0  0  0  0
 16 17  1  0  0  0  0
 16 24  1  0  0  0  0
 17 25  1  0  0  0  0
 18  9  1  0  0  0  0
 18 17  2  0  0  0  0
 20 11  1  0  0  0  0
 21 12  1  0  0  0  0
 22 14  1  0  0  0  0
 23 15  1  0  0  0  0
 26 28  1  0  0  0  0
 26 27  2  0  0  0  0
 28 35  1  0  0  0  0
 29 31  1  0  0  0  0
 29 28  2  0  0  0  0
 30 29  1  0  0  0  0
 31 33  2  0  0  0  0
 32 31  1  0  0  0  0
 33 34  1  0  0  0  0
 35 33  1  0  0  0  0
M  END
>  <minimizedAffinity>
-5.06755257

>  <minimizedRMSD>
4.45382547

$$$$
