
 OpenBabel03212520313D

 40 43  0  0  0  0  0  0  0  0999 V2000
   42.3450   82.5680   61.8370 C   0  0  0  0  0  0  0  0  0  0  0  0
   42.7550   81.6420   60.8890 C   0  0  0  0  0  0  0  0  0  0  0  0
   43.9670   81.0010   61.0010 C   0  0  0  0  0  0  0  0  0  0  0  0
   44.8510   81.2330   62.0590 C   0  0  0  0  0  0  0  0  0  0  0  0
   44.4680   82.1470   63.0140 C   0  0  0  0  0  0  0  0  0  0  0  0
   43.2470   82.7920   62.8980 C   0  0  0  0  0  0  0  0  0  0  0  0
   44.3050   80.2710   60.2640 H   0  0  0  0  0  0  0  0  0  0  0  0
   45.7880   80.7150   62.1150 H   0  0  0  0  0  0  0  0  0  0  0  0
   45.1100   82.3620   63.8490 H   0  0  0  0  0  0  0  0  0  0  0  0
   42.9580   83.5070   63.6560 H   0  0  0  0  0  0  0  0  0  0  0  0
   40.2480   80.0250   58.7100 C   0  0  0  0  0  0  0  0  0  0  0  0
   40.3370   80.7680   57.5500 C   0  0  0  0  0  0  0  0  0  0  0  0
   41.2640   81.8160   57.5420 C   0  0  0  0  0  0  0  0  0  0  0  0
   42.0200   82.0480   58.6580 N   0  0  0  0  0  0  0  0  0  0  0  0
   41.9030   81.3110   59.7520 C   0  0  0  0  0  0  0  0  0  0  0  0
   41.0160   80.3050   59.7670 N   0  0  0  0  0  0  0  0  0  0  0  0
   39.5320   79.2180   58.7120 H   0  0  0  0  0  0  0  0  0  0  0  0
   41.3870   82.4310   56.6810 H   0  0  0  0  0  0  0  0  0  0  0  0
   39.5270   80.4830   56.4220 N   0  0  0  0  0  0  0  0  0  0  0  0
   38.2260   80.4310   56.6970 C   0  0  0  0  0  0  0  0  0  0  0  0
   37.3400   80.1550   55.6510 C   0  0  0  0  0  0  0  0  0  0  0  0
   37.8380   79.9480   54.3780 C   0  0  0  0  0  0  0  0  0  0  0  0
   37.1110   79.6960   53.3860 O   0  0  0  0  0  0  0  0  0  0  0  0
   39.1880   80.0180   54.1730 N   0  0  0  0  0  0  0  0  0  0  0  0
   40.0500   80.2860   55.1890 C   0  0  0  0  0  0  0  0  0  0  0  0
   41.2760   80.3530   55.0210 O   0  0  0  0  0  0  0  0  0  0  0  0
   37.7940   80.5860   57.6760 H   0  0  0  0  0  0  0  0  0  0  0  0
   36.2820   80.1010   55.8130 H   0  0  0  0  0  0  0  0  0  0  0  0
   39.6580   79.8760   53.2470 H   0  0  0  0  0  0  0  0  0  0  0  0
   40.8330   83.3980   61.7220 S   0  0  0  0  0  0  0  0  0  0  0  0
   40.6120   84.2460   62.9480 O   0  0  0  0  0  0  0  0  0  0  0  0
   39.7430   82.3350   61.7960 O   0  0  0  0  0  0  0  0  0  0  0  0
   40.6210   84.4170   60.3490 C   0  0  0  0  0  0  0  0  0  0  0  0
   41.3140   85.1720   59.3990 C   0  0  0  0  0  0  0  0  0  0  0  0
   42.3880   85.1140   59.5680 H   0  0  0  0  0  0  0  0  0  0  0  0
   40.4190   85.7640   58.5310 C   0  0  0  0  0  0  0  0  0  0  0  0
   40.8260   86.3800   57.7420 H   0  0  0  0  0  0  0  0  0  0  0  0
   39.1990   85.3420   58.9920 C   0  0  0  0  0  0  0  0  0  0  0  0
   38.3000   85.6850   58.4580 H   0  0  0  0  0  0  0  0  0  0  0  0
   39.3330   84.5670   60.0400 O   0  0  0  0  0  0  0  0  0  0  0  0
  1  6  1  0  0  0  0
  2  3  1  0  0  0  0
  2  1  2  0  0  0  0
  3  4  2  0  0  0  0
  4  8  1  0  0  0  0
  4  5  1  0  0  0  0
  5  9  1  0  0  0  0
  6  5  2  0  0  0  0
  6 10  1  0  0  0  0
  7  3  1  0  0  0  0
 11 17  1  0  0  0  0
 11 16  1  0  0  0  0
 12 11  2  0  0  0  0
 13 12  1  0  0  0  0
 13 14  2  0  0  0  0
 14 15  1  0  0  0  0
 15 16  2  0  0  0  0
 15  2  1  0  0  0  0
 18 13  1  0  0  0  0
 19 20  1  0  0  0  0
 19 12  1  0  0  0  0
 20 27  1  0  0  0  0
 21 28  1  0  0  0  0
 21 20  2  0  0  0  0
 22 21  1  0  0  0  0
 23 22  2  0  0  0  0
 24 22  1  0  0  0  0
 24 25  1  0  0  0  0
 25 19  1  0  0  0  0
 26 25  2  0  0  0  0
 29 24  1  0  0  0  0
 30 32  2  0  0  0  0
 30  1  1  0  0  0  0
 30 31  2  0  0  0  0
 33 30  1  0  0  0  0
 34 35  1  0  0  0  0
 34 33  2  0  0  0  0
 36 38  2  0  0  0  0
 36 34  1  0  0  0  0
 37 36  1  0  0  0  0
 38 40  1  0  0  0  0
 39 38  1  0  0  0  0
 40 33  1  0  0  0  0
M  END
>  <minimizedAffinity>
-6.01633072

>  <minimizedRMSD>
0.846596658

$$$$
