
 OpenBabel03212520273D

 27 29  0  0  0  0  0  0  0  0999 V2000
   42.9510   85.0330   61.1330 C   0  0  0  0  0  0  0  0  0  0  0  0
   44.1900   84.8710   61.7250 C   0  0  0  0  0  0  0  0  0  0  0  0
   44.9950   85.6780   60.9140 C   0  0  0  0  0  0  0  0  0  0  0  0
   44.2700   86.2540   59.9370 N   0  0  0  0  0  0  0  0  0  0  0  0
   42.9990   85.8540   60.0720 N   0  0  0  0  0  0  0  0  0  0  0  0
   44.4720   84.2860   62.5800 H   0  0  0  0  0  0  0  0  0  0  0  0
   46.0700   85.8270   61.0500 H   0  0  0  0  0  0  0  0  0  0  0  0
   40.4700   83.2110   63.2340 C   0  0  0  0  0  0  0  0  0  0  0  0
   41.6710   83.8030   62.8590 C   0  0  0  0  0  0  0  0  0  0  0  0
   41.7190   84.3880   61.5990 C   0  0  0  0  0  0  0  0  0  0  0  0
   40.6150   84.3650   60.7910 N   0  0  0  0  0  0  0  0  0  0  0  0
   39.4750   83.7670   61.2270 C   0  0  0  0  0  0  0  0  0  0  0  0
   39.3990   83.1980   62.4290 N   0  0  0  0  0  0  0  0  0  0  0  0
   40.3450   82.7340   64.1930 H   0  0  0  0  0  0  0  0  0  0  0  0
   42.5220   83.8030   63.5240 H   0  0  0  0  0  0  0  0  0  0  0  0
   38.7050   83.8380   60.4700 H   0  0  0  0  0  0  0  0  0  0  0  0
   44.7650   87.1550   58.9090 C   0  0  0  0  0  0  0  0  0  0  0  0
   45.8590   87.1080   58.8570 H   0  0  0  0  0  0  0  0  0  0  0  0
   44.2920   86.8360   57.9600 H   0  0  0  0  0  0  0  0  0  0  0  0
   44.3420   88.5430   59.2580 C   0  0  0  0  0  0  0  0  0  0  0  0
   43.9830   89.5730   58.4120 C   0  0  0  0  0  0  0  0  0  0  0  0
   43.9670   89.4770   57.3300 H   0  0  0  0  0  0  0  0  0  0  0  0
   43.6740   90.6580   59.1990 C   0  0  0  0  0  0  0  0  0  0  0  0
   43.3530   91.6330   58.8520 H   0  0  0  0  0  0  0  0  0  0  0  0
   43.8700   90.2110   60.5070 C   0  0  0  0  0  0  0  0  0  0  0  0
   43.7120   90.8320   61.3970 H   0  0  0  0  0  0  0  0  0  0  0  0
   44.2640   88.9600   60.5120 O   0  0  0  0  0  0  0  0  0  0  0  0
  1 10  1  0  0  0  0
  1  2  1  0  0  0  0
  2  6  1  0  0  0  0
  3  7  1  0  0  0  0
  3  2  2  0  0  0  0
  4  5  1  0  0  0  0
  4  3  1  0  0  0  0
  5  1  2  0  0  0  0
  8 14  1  0  0  0  0
  9  8  1  0  0  0  0
  9 15  1  0  0  0  0
 10  9  2  0  0  0  0
 11 12  2  0  0  0  0
 11 10  1  0  0  0  0
 12 13  1  0  0  0  0
 13  8  2  0  0  0  0
 16 12  1  0  0  0  0
 17 20  1  0  0  0  0
 17  4  1  0  0  0  0
 18 17  1  0  0  0  0
 19 17  1  0  0  0  0
 20 27  1  0  0  0  0
 21 23  1  0  0  0  0
 21 20  2  0  0  0  0
 22 21  1  0  0  0  0
 23 25  2  0  0  0  0
 24 23  1  0  0  0  0
 25 27  1  0  0  0  0
 25 26  1  0  0  0  0
M  END
>  <minimizedAffinity>
-4.69000483

>  <minimizedRMSD>
1.16835904

$$$$
