
 OpenBabel03212520133D

 30 32  0  0  0  0  0  0  0  0999 V2000
   42.9190   83.8600   58.5350 Cl  0  0  0  0  0  0  0  0  0  0  0  0
   41.7210   82.6300   58.2070 C   0  0  0  0  0  0  0  0  0  0  0  0
   40.9190   82.0960   59.2020 C   0  0  0  0  0  0  0  0  0  0  0  0
   40.0140   81.1330   58.7970 C   0  0  0  0  0  0  0  0  0  0  0  0
   39.8590   80.6800   57.4950 C   0  0  0  0  0  0  0  0  0  0  0  0
   40.6670   81.2350   56.5630 C   0  0  0  0  0  0  0  0  0  0  0  0
   40.5020   80.7040   54.8870 Cl  0  0  0  0  0  0  0  0  0  0  0  0
   41.6080   82.2180   56.9090 C   0  0  0  0  0  0  0  0  0  0  0  0
   39.3980   80.7270   59.5840 H   0  0  0  0  0  0  0  0  0  0  0  0
   39.1500   79.9350   57.2150 H   0  0  0  0  0  0  0  0  0  0  0  0
   41.9410   82.1000   61.5200 C   0  0  0  0  0  0  0  0  0  0  0  0
   41.0640   82.5530   60.5410 C   0  0  0  0  0  0  0  0  0  0  0  0
   40.1960   83.6100   60.9030 C   0  0  0  0  0  0  0  0  0  0  0  0
   40.2710   84.1060   62.1640 N   0  0  0  0  0  0  0  0  0  0  0  0
   41.1370   83.6340   63.0770 C   0  0  0  0  0  0  0  0  0  0  0  0
   41.9590   82.6400   62.7480 N   0  0  0  0  0  0  0  0  0  0  0  0
   42.5750   81.3020   61.1990 H   0  0  0  0  0  0  0  0  0  0  0  0
   39.4800   84.0300   60.2130 H   0  0  0  0  0  0  0  0  0  0  0  0
   41.0890   84.2900   64.4130 C   0  0  0  0  0  0  0  0  0  0  0  0
   40.7500   85.6270   64.3170 F   0  0  0  0  0  0  0  0  0  0  0  0
   40.1180   83.6800   65.1950 F   0  0  0  0  0  0  0  0  0  0  0  0
   42.3230   84.2540   65.0370 F   0  0  0  0  0  0  0  0  0  0  0  0
   42.3880   82.6960   55.7720 C   0  0  0  0  0  0  0  0  0  0  0  0
   43.5550   82.2310   55.2260 C   0  0  0  0  0  0  0  0  0  0  0  0
   44.1740   81.4010   55.5040 H   0  0  0  0  0  0  0  0  0  0  0  0
   43.9720   82.9670   54.1490 C   0  0  0  0  0  0  0  0  0  0  0  0
   44.8240   82.8880   53.4950 H   0  0  0  0  0  0  0  0  0  0  0  0
   42.9850   83.9200   54.0650 C   0  0  0  0  0  0  0  0  0  0  0  0
   42.8540   84.7560   53.3600 H   0  0  0  0  0  0  0  0  0  0  0  0
   42.1420   83.7030   55.0010 O   0  0  0  0  0  0  0  0  0  0  0  0
  2  1  1  0  0  0  0
  2  3  1  0  0  0  0
  3 12  1  0  0  0  0
  4  3  2  0  0  0  0
  4  9  1  0  0  0  0
  5  4  1  0  0  0  0
  6  8  1  0  0  0  0
  6  5  2  0  0  0  0
  7  6  1  0  0  0  0
  8  2  2  0  0  0  0
 10  5  1  0  0  0  0
 11 16  1  0  0  0  0
 12 13  1  0  0  0  0
 12 11  2  0  0  0  0
 13 14  2  0  0  0  0
 14 15  1  0  0  0  0
 15 19  1  0  0  0  0
 16 15  2  0  0  0  0
 17 11  1  0  0  0  0
 18 13  1  0  0  0  0
 19 22  1  0  0  0  0
 19 21  1  0  0  0  0
 20 19  1  0  0  0  0
 23  8  1  0  0  0  0
 24 25  1  0  0  0  0
 24 23  2  0  0  0  0
 26 24  1  0  0  0  0
 27 26  1  0  0  0  0
 28 26  2  0  0  0  0
 28 30  1  0  0  0  0
 29 28  1  0  0  0  0
 30 23  1  0  0  0  0
M  END
>  <minimizedAffinity>
-5.21663761

>  <minimizedRMSD>
0.924887836

$$$$
