
 OpenBabel03212520353D

 35 38  0  0  0  0  0  0  0  0999 V2000
   40.1560   82.1370   58.8090 C   0  0  0  0  0  0  0  0  0  0  0  0
   40.5800   80.9650   58.1490 C   0  0  0  0  0  0  0  0  0  0  0  0
   41.1600   79.8870   58.9140 C   0  0  0  0  0  0  0  0  0  0  0  0
   41.2600   80.0820   60.2570 N   0  0  0  0  0  0  0  0  0  0  0  0
   40.8270   81.2470   60.8610 C   0  0  0  0  0  0  0  0  0  0  0  0
   40.2840   82.2540   60.1360 N   0  0  0  0  0  0  0  0  0  0  0  0
   39.7910   82.9870   58.3040 H   0  0  0  0  0  0  0  0  0  0  0  0
   41.5250   78.9390   58.6060 H   0  0  0  0  0  0  0  0  0  0  0  0
   40.5300   80.6680   56.7320 C   0  0  0  0  0  0  0  0  0  0  0  0
   41.7050   81.0250   56.0310 C   0  0  0  0  0  0  0  0  0  0  0  0
   41.8450   80.9060   54.6830 C   0  0  0  0  0  0  0  0  0  0  0  0
   40.7950   80.4090   53.9270 C   0  0  0  0  0  0  0  0  0  0  0  0
   39.6350   80.0520   54.5940 C   0  0  0  0  0  0  0  0  0  0  0  0
   38.5350   79.5490   53.9440 C   0  0  0  0  0  0  0  0  0  0  0  0
   37.3880   79.1930   54.6290 C   0  0  0  0  0  0  0  0  0  0  0  0
   37.2920   79.3220   56.0050 C   0  0  0  0  0  0  0  0  0  0  0  0
   38.3970   79.8280   56.6600 C   0  0  0  0  0  0  0  0  0  0  0  0
   39.5020   80.1740   55.9650 C   0  0  0  0  0  0  0  0  0  0  0  0
   42.6140   81.4340   56.4490 H   0  0  0  0  0  0  0  0  0  0  0  0
   42.7090   81.1590   54.0940 H   0  0  0  0  0  0  0  0  0  0  0  0
   40.7950   80.2730   52.8500 H   0  0  0  0  0  0  0  0  0  0  0  0
   38.6340   79.4520   52.8540 H   0  0  0  0  0  0  0  0  0  0  0  0
   36.6040   78.8110   53.9640 H   0  0  0  0  0  0  0  0  0  0  0  0
   36.3650   79.0170   56.4330 H   0  0  0  0  0  0  0  0  0  0  0  0
   38.2140   79.8130   57.7090 H   0  0  0  0  0  0  0  0  0  0  0  0
   40.9490   81.4280   62.3100 C   0  0  0  0  0  0  0  0  0  0  0  0
   40.7290   80.5110   63.1270 O   0  0  0  0  0  0  0  0  0  0  0  0
   41.3500   82.7470   62.8090 C   0  0  0  0  0  0  0  0  0  0  0  0
   40.6680   83.3840   63.8510 C   0  0  0  0  0  0  0  0  0  0  0  0
   39.8080   83.0300   64.4060 H   0  0  0  0  0  0  0  0  0  0  0  0
   41.3140   84.5850   64.0490 C   0  0  0  0  0  0  0  0  0  0  0  0
   41.0400   85.3250   64.7860 H   0  0  0  0  0  0  0  0  0  0  0  0
   42.3430   84.6160   63.1270 C   0  0  0  0  0  0  0  0  0  0  0  0
   43.0070   85.4780   63.0870 H   0  0  0  0  0  0  0  0  0  0  0  0
   42.3210   83.5200   62.4300 O   0  0  0  0  0  0  0  0  0  0  0  0
  1  6  1  0  0  0  0
  2  1  2  0  0  0  0
  2  3  1  0  0  0  0
  3  4  2  0  0  0  0
  4  5  1  0  0  0  0
  5 26  1  0  0  0  0
  6  5  2  0  0  0  0
  7  1  1  0  0  0  0
  8  3  1  0  0  0  0
  9  2  1  0  0  0  0
 10 19  1  0  0  0  0
 10  9  1  0  0  0  0
 11 10  2  0  0  0  0
 12 13  2  0  0  0  0
 12 11  1  0  0  0  0
 13 18  1  0  0  0  0
 14 13  1  0  0  0  0
 14 15  2  0  0  0  0
 15 16  1  0  0  0  0
 16 24  1  0  0  0  0
 16 17  2  0  0  0  0
 17 25  1  0  0  0  0
 18 17  1  0  0  0  0
 18  9  2  0  0  0  0
 20 11  1  0  0  0  0
 21 12  1  0  0  0  0
 22 14  1  0  0  0  0
 23 15  1  0  0  0  0
 26 28  1  0  0  0  0
 26 27  2  0  0  0  0
 28 29  2  0  0  0  0
 29 31  1  0  0  0  0
 29 30  1  0  0  0  0
 31 32  1  0  0  0  0
 33 31  2  0  0  0  0
 34 33  1  0  0  0  0
 35 28  1  0  0  0  0
 35 33  1  0  0  0  0
M  END
>  <minimizedAffinity>
-5.62628317

>  <minimizedRMSD>
3.20563054

$$$$
