
 OpenBabel03212520273D

 27 29  0  0  0  0  0  0  0  0999 V2000
   42.7860   84.8100   61.0710 C   0  0  0  0  0  0  0  0  0  0  0  0
   43.5610   85.4790   61.9980 C   0  0  0  0  0  0  0  0  0  0  0  0
   44.4950   86.1170   61.1740 C   0  0  0  0  0  0  0  0  0  0  0  0
   44.2680   85.8320   59.8790 N   0  0  0  0  0  0  0  0  0  0  0  0
   43.2050   85.0200   59.8120 N   0  0  0  0  0  0  0  0  0  0  0  0
   43.4790   85.5100   63.0680 H   0  0  0  0  0  0  0  0  0  0  0  0
   45.3040   86.7630   61.5280 H   0  0  0  0  0  0  0  0  0  0  0  0
   40.6990   81.9450   62.2210 C   0  0  0  0  0  0  0  0  0  0  0  0
   41.8350   82.6910   61.9260 C   0  0  0  0  0  0  0  0  0  0  0  0
   41.6360   83.9640   61.4060 C   0  0  0  0  0  0  0  0  0  0  0  0
   40.3650   84.4320   61.2070 N   0  0  0  0  0  0  0  0  0  0  0  0
   39.3030   83.6450   61.5190 C   0  0  0  0  0  0  0  0  0  0  0  0
   39.4610   82.4200   62.0190 N   0  0  0  0  0  0  0  0  0  0  0  0
   40.7600   80.9490   62.6270 H   0  0  0  0  0  0  0  0  0  0  0  0
   42.8220   82.2890   62.0970 H   0  0  0  0  0  0  0  0  0  0  0  0
   38.3790   84.1640   61.3010 H   0  0  0  0  0  0  0  0  0  0  0  0
   45.0320   86.3150   58.7400 C   0  0  0  0  0  0  0  0  0  0  0  0
   46.1060   86.2710   58.9560 H   0  0  0  0  0  0  0  0  0  0  0  0
   44.7570   85.6700   57.8830 H   0  0  0  0  0  0  0  0  0  0  0  0
   44.6350   87.7280   58.4730 C   0  0  0  0  0  0  0  0  0  0  0  0
   43.3670   88.2720   58.4200 C   0  0  0  0  0  0  0  0  0  0  0  0
   42.4630   87.6910   58.5780 H   0  0  0  0  0  0  0  0  0  0  0  0
   43.5100   89.6120   58.1440 C   0  0  0  0  0  0  0  0  0  0  0  0
   42.7090   90.3350   58.0350 H   0  0  0  0  0  0  0  0  0  0  0  0
   44.8890   89.8080   58.0430 C   0  0  0  0  0  0  0  0  0  0  0  0
   45.3570   90.7740   57.8280 H   0  0  0  0  0  0  0  0  0  0  0  0
   45.5280   88.6780   58.2410 O   0  0  0  0  0  0  0  0  0  0  0  0
  1 10  1  0  0  0  0
  1  2  1  0  0  0  0
  2  6  1  0  0  0  0
  3  7  1  0  0  0  0
  3  2  2  0  0  0  0
  4  3  1  0  0  0  0
  5  4  1  0  0  0  0
  5  1  2  0  0  0  0
  8 14  1  0  0  0  0
  9 15  1  0  0  0  0
  9  8  2  0  0  0  0
 10  9  1  0  0  0  0
 11 10  2  0  0  0  0
 11 12  1  0  0  0  0
 12 13  2  0  0  0  0
 13  8  1  0  0  0  0
 16 12  1  0  0  0  0
 17 18  1  0  0  0  0
 17  4  1  0  0  0  0
 19 17  1  0  0  0  0
 20 17  1  0  0  0  0
 21 20  2  0  0  0  0
 21 22  1  0  0  0  0
 23 21  1  0  0  0  0
 24 23  1  0  0  0  0
 25 23  2  0  0  0  0
 25 27  1  0  0  0  0
 26 25  1  0  0  0  0
 27 20  1  0  0  0  0
M  END
>  <minimizedAffinity>
-4.25059223

>  <minimizedRMSD>
1.16295314

$$$$
