
 OpenBabel03212520313D

 40 43  0  0  0  0  0  0  0  0999 V2000
   42.2230   82.5610   61.7810 C   0  0  0  0  0  0  0  0  0  0  0  0
   42.6530   81.6460   60.8310 C   0  0  0  0  0  0  0  0  0  0  0  0
   43.8720   81.0200   60.9510 C   0  0  0  0  0  0  0  0  0  0  0  0
   44.7450   81.2590   62.0150 C   0  0  0  0  0  0  0  0  0  0  0  0
   44.3420   82.1630   62.9720 C   0  0  0  0  0  0  0  0  0  0  0  0
   43.1140   82.7920   62.8500 C   0  0  0  0  0  0  0  0  0  0  0  0
   44.2250   80.2980   60.2120 H   0  0  0  0  0  0  0  0  0  0  0  0
   45.6880   80.7530   62.0770 H   0  0  0  0  0  0  0  0  0  0  0  0
   44.9760   82.3830   63.8130 H   0  0  0  0  0  0  0  0  0  0  0  0
   42.8100   83.5000   63.6090 H   0  0  0  0  0  0  0  0  0  0  0  0
   40.1800   80.0080   58.6280 C   0  0  0  0  0  0  0  0  0  0  0  0
   40.2720   80.7550   57.4710 C   0  0  0  0  0  0  0  0  0  0  0  0
   41.1880   81.8110   57.4720 C   0  0  0  0  0  0  0  0  0  0  0  0
   41.9320   82.0490   58.5960 N   0  0  0  0  0  0  0  0  0  0  0  0
   41.8140   81.3090   59.6870 C   0  0  0  0  0  0  0  0  0  0  0  0
   40.9370   80.2930   59.6920 N   0  0  0  0  0  0  0  0  0  0  0  0
   39.4730   79.1940   58.6220 H   0  0  0  0  0  0  0  0  0  0  0  0
   41.3120   82.4300   56.6140 H   0  0  0  0  0  0  0  0  0  0  0  0
   39.4740   80.4640   56.3350 N   0  0  0  0  0  0  0  0  0  0  0  0
   38.1680   80.4390   56.5900 C   0  0  0  0  0  0  0  0  0  0  0  0
   37.2940   80.1600   55.5360 C   0  0  0  0  0  0  0  0  0  0  0  0
   37.8070   79.9220   54.2740 C   0  0  0  0  0  0  0  0  0  0  0  0
   37.0910   79.6650   53.2760 O   0  0  0  0  0  0  0  0  0  0  0  0
   39.1610   79.9650   54.0900 N   0  0  0  0  0  0  0  0  0  0  0  0
   40.0120   80.2360   55.1140 C   0  0  0  0  0  0  0  0  0  0  0  0
   41.2420   80.2790   54.9640 O   0  0  0  0  0  0  0  0  0  0  0  0
   37.7240   80.6190   57.5600 H   0  0  0  0  0  0  0  0  0  0  0  0
   36.2320   80.1270   55.6820 H   0  0  0  0  0  0  0  0  0  0  0  0
   39.6430   79.7990   53.1730 H   0  0  0  0  0  0  0  0  0  0  0  0
   40.7010   83.3720   61.6580 S   0  0  0  0  0  0  0  0  0  0  0  0
   40.4390   84.1760   62.9060 O   0  0  0  0  0  0  0  0  0  0  0  0
   39.6270   82.2910   61.6720 O   0  0  0  0  0  0  0  0  0  0  0  0
   40.5040   84.4320   60.3140 C   0  0  0  0  0  0  0  0  0  0  0  0
   41.2050   85.1270   59.3240 C   0  0  0  0  0  0  0  0  0  0  0  0
   42.2760   84.9510   59.4160 H   0  0  0  0  0  0  0  0  0  0  0  0
   40.3210   85.8260   58.5300 C   0  0  0  0  0  0  0  0  0  0  0  0
   40.7350   86.4090   57.7200 H   0  0  0  0  0  0  0  0  0  0  0  0
   39.0980   85.5270   59.0720 C   0  0  0  0  0  0  0  0  0  0  0  0
   38.2050   85.9730   58.6060 H   0  0  0  0  0  0  0  0  0  0  0  0
   39.2210   84.7240   60.0990 O   0  0  0  0  0  0  0  0  0  0  0  0
  1  6  1  0  0  0  0
  2  3  1  0  0  0  0
  2  1  2  0  0  0  0
  3  4  2  0  0  0  0
  4  8  1  0  0  0  0
  4  5  1  0  0  0  0
  5  9  1  0  0  0  0
  6  5  2  0  0  0  0
  6 10  1  0  0  0  0
  7  3  1  0  0  0  0
 11 16  1  0  0  0  0
 12 13  1  0  0  0  0
 12 11  2  0  0  0  0
 13 14  2  0  0  0  0
 14 15  1  0  0  0  0
 15 16  2  0  0  0  0
 15  2  1  0  0  0  0
 17 11  1  0  0  0  0
 18 13  1  0  0  0  0
 19 20  1  0  0  0  0
 19 12  1  0  0  0  0
 20 27  1  0  0  0  0
 21 28  1  0  0  0  0
 21 20  2  0  0  0  0
 22 21  1  0  0  0  0
 23 22  2  0  0  0  0
 24 22  1  0  0  0  0
 24 25  1  0  0  0  0
 25 19  1  0  0  0  0
 26 25  2  0  0  0  0
 29 24  1  0  0  0  0
 30 32  2  0  0  0  0
 30  1  1  0  0  0  0
 30 31  2  0  0  0  0
 33 30  1  0  0  0  0
 34 35  1  0  0  0  0
 34 33  2  0  0  0  0
 36 38  2  0  0  0  0
 36 34  1  0  0  0  0
 37 36  1  0  0  0  0
 38 40  1  0  0  0  0
 39 38  1  0  0  0  0
 40 33  1  0  0  0  0
M  END
>  <minimizedAffinity>
-6.07903051

>  <minimizedRMSD>
0.817012489

$$$$
