
 OpenBabel03212520263D

 27 29  0  0  0  0  0  0  0  0999 V2000
   42.5900   84.8800   61.1780 C   0  0  0  0  0  0  0  0  0  0  0  0
   43.5060   85.2390   62.1490 C   0  0  0  0  0  0  0  0  0  0  0  0
   44.3520   86.0920   61.4310 C   0  0  0  0  0  0  0  0  0  0  0  0
   43.9480   86.2090   60.1540 N   0  0  0  0  0  0  0  0  0  0  0  0
   42.8520   85.4570   59.9940 N   0  0  0  0  0  0  0  0  0  0  0  0
   43.5640   84.9480   63.1800 H   0  0  0  0  0  0  0  0  0  0  0  0
   45.2270   86.6010   61.8490 H   0  0  0  0  0  0  0  0  0  0  0  0
   40.5490   81.8100   61.7220 C   0  0  0  0  0  0  0  0  0  0  0  0
   41.6690   82.6070   61.5110 C   0  0  0  0  0  0  0  0  0  0  0  0
   41.4570   83.9760   61.4010 C   0  0  0  0  0  0  0  0  0  0  0  0
   40.1900   84.4830   61.5020 N   0  0  0  0  0  0  0  0  0  0  0  0
   39.1440   83.6410   61.7080 C   0  0  0  0  0  0  0  0  0  0  0  0
   39.3150   82.3250   61.8170 N   0  0  0  0  0  0  0  0  0  0  0  0
   40.6220   80.7390   61.8180 H   0  0  0  0  0  0  0  0  0  0  0  0
   42.6540   82.1710   61.4370 H   0  0  0  0  0  0  0  0  0  0  0  0
   38.2200   84.2020   61.7630 H   0  0  0  0  0  0  0  0  0  0  0  0
   44.5790   87.0090   59.1160 C   0  0  0  0  0  0  0  0  0  0  0  0
   45.6680   86.8950   59.1580 H   0  0  0  0  0  0  0  0  0  0  0  0
   44.1640   86.6560   58.1530 H   0  0  0  0  0  0  0  0  0  0  0  0
   44.2190   88.4400   59.3420 C   0  0  0  0  0  0  0  0  0  0  0  0
   43.8410   89.3900   58.4160 C   0  0  0  0  0  0  0  0  0  0  0  0
   43.7590   89.1860   57.3520 H   0  0  0  0  0  0  0  0  0  0  0  0
   43.6100   90.5600   59.1030 C   0  0  0  0  0  0  0  0  0  0  0  0
   43.2980   91.5060   58.6750 H   0  0  0  0  0  0  0  0  0  0  0  0
   43.8700   90.2420   60.4370 C   0  0  0  0  0  0  0  0  0  0  0  0
   43.7820   90.9550   61.2660 H   0  0  0  0  0  0  0  0  0  0  0  0
   44.2270   88.9840   60.5500 O   0  0  0  0  0  0  0  0  0  0  0  0
  1 10  1  0  0  0  0
  1  2  1  0  0  0  0
  2  6  1  0  0  0  0
  3  7  1  0  0  0  0
  3  2  2  0  0  0  0
  4  3  1  0  0  0  0
  5  4  1  0  0  0  0
  5  1  2  0  0  0  0
  8 13  1  0  0  0  0
  8 14  1  0  0  0  0
  9  8  2  0  0  0  0
 10 11  2  0  0  0  0
 10  9  1  0  0  0  0
 11 12  1  0  0  0  0
 12 16  1  0  0  0  0
 12 13  2  0  0  0  0
 15  9  1  0  0  0  0
 17 18  1  0  0  0  0
 17 20  1  0  0  0  0
 17  4  1  0  0  0  0
 19 17  1  0  0  0  0
 20 27  1  0  0  0  0
 21 23  1  0  0  0  0
 21 20  2  0  0  0  0
 22 21  1  0  0  0  0
 23 25  2  0  0  0  0
 24 23  1  0  0  0  0
 25 27  1  0  0  0  0
 25 26  1  0  0  0  0
M  END
>  <minimizedAffinity>
-4.64838839

>  <minimizedRMSD>
0.712200761

$$$$
