
 OpenBabel03212520273D

 27 29  0  0  0  0  0  0  0  0999 V2000
   44.5580   85.4090   60.5250 C   0  0  0  0  0  0  0  0  0  0  0  0
   44.1230   86.4850   61.2750 C   0  0  0  0  0  0  0  0  0  0  0  0
   43.4020   85.8440   62.2900 C   0  0  0  0  0  0  0  0  0  0  0  0
   43.4260   84.5090   62.1280 N   0  0  0  0  0  0  0  0  0  0  0  0
   44.1450   84.2360   61.0310 N   0  0  0  0  0  0  0  0  0  0  0  0
   44.2880   87.5350   61.1300 H   0  0  0  0  0  0  0  0  0  0  0  0
   42.8870   86.3550   63.1090 H   0  0  0  0  0  0  0  0  0  0  0  0
   45.6090   85.7980   56.9710 C   0  0  0  0  0  0  0  0  0  0  0  0
   44.7710   85.7010   58.0760 C   0  0  0  0  0  0  0  0  0  0  0  0
   45.3770   85.5190   59.3130 C   0  0  0  0  0  0  0  0  0  0  0  0
   46.7410   85.4440   59.4030 N   0  0  0  0  0  0  0  0  0  0  0  0
   47.4950   85.5470   58.2780 C   0  0  0  0  0  0  0  0  0  0  0  0
   46.9430   85.7210   57.0780 N   0  0  0  0  0  0  0  0  0  0  0  0
   45.2240   85.9380   55.9740 H   0  0  0  0  0  0  0  0  0  0  0  0
   43.6990   85.7650   57.9670 H   0  0  0  0  0  0  0  0  0  0  0  0
   48.5450   85.4680   58.5260 H   0  0  0  0  0  0  0  0  0  0  0  0
   42.7900   83.5220   62.9850 C   0  0  0  0  0  0  0  0  0  0  0  0
   43.3850   82.6020   63.0130 H   0  0  0  0  0  0  0  0  0  0  0  0
   42.7020   83.9870   63.9860 H   0  0  0  0  0  0  0  0  0  0  0  0
   41.4360   83.2220   62.4320 C   0  0  0  0  0  0  0  0  0  0  0  0
   41.0730   82.2470   61.5270 C   0  0  0  0  0  0  0  0  0  0  0  0
   41.7790   81.5460   61.0890 H   0  0  0  0  0  0  0  0  0  0  0  0
   39.7170   82.3630   61.3240 C   0  0  0  0  0  0  0  0  0  0  0  0
   39.1090   81.7480   60.6690 H   0  0  0  0  0  0  0  0  0  0  0  0
   39.3290   83.4270   62.1390 C   0  0  0  0  0  0  0  0  0  0  0  0
   38.2990   83.7940   62.2210 H   0  0  0  0  0  0  0  0  0  0  0  0
   40.3640   83.9160   62.7810 O   0  0  0  0  0  0  0  0  0  0  0  0
  1  5  2  0  0  0  0
  1  2  1  0  0  0  0
  2  3  2  0  0  0  0
  3  7  1  0  0  0  0
  4  3  1  0  0  0  0
  4 17  1  0  0  0  0
  5  4  1  0  0  0  0
  6  2  1  0  0  0  0
  8 13  2  0  0  0  0
  8  9  1  0  0  0  0
  9 10  2  0  0  0  0
 10 11  1  0  0  0  0
 10  1  1  0  0  0  0
 12 16  1  0  0  0  0
 12 11  2  0  0  0  0
 13 12  1  0  0  0  0
 14  8  1  0  0  0  0
 15  9  1  0  0  0  0
 17 18  1  0  0  0  0
 17 19  1  0  0  0  0
 20 27  1  0  0  0  0
 20 17  1  0  0  0  0
 21 20  2  0  0  0  0
 22 21  1  0  0  0  0
 23 21  1  0  0  0  0
 23 25  2  0  0  0  0
 24 23  1  0  0  0  0
 25 26  1  0  0  0  0
 25 27  1  0  0  0  0
M  END
>  <minimizedAffinity>
-3.46287608

>  <minimizedRMSD>
6.36887598

$$$$
