
 OpenBabel03212520053D

 40 44  0  0  0  0  0  0  0  0999 V2000
   40.7340   81.7660   57.1210 C   0  0  0  0  0  0  0  0  0  0  0  0
   41.8080   82.3440   56.4240 C   0  0  0  0  0  0  0  0  0  0  0  0
   42.5870   83.2590   57.1010 C   0  0  0  0  0  0  0  0  0  0  0  0
   42.3030   83.5740   58.4060 N   0  0  0  0  0  0  0  0  0  0  0  0
   41.2540   82.9880   59.0450 C   0  0  0  0  0  0  0  0  0  0  0  0
   40.4650   82.0820   58.4030 N   0  0  0  0  0  0  0  0  0  0  0  0
   40.0440   81.0430   56.7240 H   0  0  0  0  0  0  0  0  0  0  0  0
   41.8550   81.9230   55.4500 H   0  0  0  0  0  0  0  0  0  0  0  0
   39.6800   83.0980   60.9140 C   0  0  0  0  0  0  0  0  0  0  0  0
   40.9820   83.2950   60.4420 C   0  0  0  0  0  0  0  0  0  0  0  0
   42.0000   83.7500   61.2820 C   0  0  0  0  0  0  0  0  0  0  0  0
   41.7650   84.0240   62.6090 C   0  0  0  0  0  0  0  0  0  0  0  0
   42.4580   84.4520   63.6720 N   0  0  0  0  0  0  0  0  0  0  0  0
   41.6630   84.5290   64.7680 C   0  0  0  0  0  0  0  0  0  0  0  0
   40.4550   84.1350   64.3410 N   0  0  0  0  0  0  0  0  0  0  0  0
   40.4800   83.8190   63.0350 C   0  0  0  0  0  0  0  0  0  0  0  0
   39.4170   83.3700   62.2610 C   0  0  0  0  0  0  0  0  0  0  0  0
   38.8800   82.7470   60.2790 H   0  0  0  0  0  0  0  0  0  0  0  0
   43.0070   83.8990   60.9010 H   0  0  0  0  0  0  0  0  0  0  0  0
   43.4860   84.6730   63.5650 H   0  0  0  0  0  0  0  0  0  0  0  0
   42.0270   84.8550   65.7360 H   0  0  0  0  0  0  0  0  0  0  0  0
   38.4290   83.2380   62.6880 H   0  0  0  0  0  0  0  0  0  0  0  0
   42.3570   83.6230   54.1640 Cl  0  0  0  0  0  0  0  0  0  0  0  0
   43.7480   84.1210   55.1020 C   0  0  0  0  0  0  0  0  0  0  0  0
   43.7080   83.8990   56.4530 C   0  0  0  0  0  0  0  0  0  0  0  0
   44.8420   84.3390   57.1320 C   0  0  0  0  0  0  0  0  0  0  0  0
   45.9160   84.9420   56.5180 C   0  0  0  0  0  0  0  0  0  0  0  0
   45.8970   85.1340   55.1600 C   0  0  0  0  0  0  0  0  0  0  0  0
   47.2670   85.8870   54.3590 Cl  0  0  0  0  0  0  0  0  0  0  0  0
   44.7930   84.7170   54.4430 C   0  0  0  0  0  0  0  0  0  0  0  0
   44.8970   84.2060   58.2030 H   0  0  0  0  0  0  0  0  0  0  0  0
   46.7790   85.2690   57.0810 H   0  0  0  0  0  0  0  0  0  0  0  0
   44.8680   84.9650   53.0080 C   0  0  0  0  0  0  0  0  0  0  0  0
   44.4310   86.0150   52.2440 C   0  0  0  0  0  0  0  0  0  0  0  0
   43.9260   86.9100   52.5330 H   0  0  0  0  0  0  0  0  0  0  0  0
   44.7060   85.8480   50.9080 C   0  0  0  0  0  0  0  0  0  0  0  0
   44.5130   86.4570   50.0400 H   0  0  0  0  0  0  0  0  0  0  0  0
   45.3380   84.6280   50.9110 C   0  0  0  0  0  0  0  0  0  0  0  0
   45.7570   84.0390   50.1000 H   0  0  0  0  0  0  0  0  0  0  0  0
   45.4010   84.1790   52.1090 O   0  0  0  0  0  0  0  0  0  0  0  0
  1  6  1  0  0  0  0
  2  3  1  0  0  0  0
  2  1  2  0  0  0  0
  3  4  2  0  0  0  0
  4  5  1  0  0  0  0
  5 10  1  0  0  0  0
  6  5  2  0  0  0  0
  7  1  1  0  0  0  0
  8  2  1  0  0  0  0
  9 17  1  0  0  0  0
 10  9  2  0  0  0  0
 10 11  1  0  0  0  0
 11 12  2  0  0  0  0
 12 16  1  0  0  0  0
 12 13  1  0  0  0  0
 13 14  1  0  0  0  0
 14 21  1  0  0  0  0
 15 14  2  0  0  0  0
 16 15  1  0  0  0  0
 17 22  1  0  0  0  0
 17 16  2  0  0  0  0
 18  9  1  0  0  0  0
 19 11  1  0  0  0  0
 20 13  1  0  0  0  0
 23 24  1  0  0  0  0
 24 25  1  0  0  0  0
 25  3  1  0  0  0  0
 25 26  2  0  0  0  0
 26 31  1  0  0  0  0
 27 32  1  0  0  0  0
 27 26  1  0  0  0  0
 28 27  2  0  0  0  0
 29 28  1  0  0  0  0
 30 24  2  0  0  0  0
 30 28  1  0  0  0  0
 33 30  1  0  0  0  0
 34 35  1  0  0  0  0
 34 33  2  0  0  0  0
 36 38  2  0  0  0  0
 36 34  1  0  0  0  0
 37 36  1  0  0  0  0
 38 40  1  0  0  0  0
 39 38  1  0  0  0  0
 40 33  1  0  0  0  0
M  END
>  <minimizedAffinity>
-5.02682638

>  <minimizedRMSD>
0.35120225

$$$$
