
 OpenBabel03212520063D

 40 44  0  0  0  0  0  0  0  0999 V2000
   42.4080   72.6060   56.5000 C   0  0  0  0  0  0  0  0  0  0  0  0
   42.3150   71.3380   57.0980 C   0  0  0  0  0  0  0  0  0  0  0  0
   41.8480   71.2770   58.3940 C   0  0  0  0  0  0  0  0  0  0  0  0
   41.4920   72.4280   59.0520 N   0  0  0  0  0  0  0  0  0  0  0  0
   41.5950   73.6370   58.4340 C   0  0  0  0  0  0  0  0  0  0  0  0
   42.0550   73.7300   57.1560 N   0  0  0  0  0  0  0  0  0  0  0  0
   42.7550   72.8060   55.5030 H   0  0  0  0  0  0  0  0  0  0  0  0
   42.6070   70.6000   56.3910 H   0  0  0  0  0  0  0  0  0  0  0  0
   40.0080   74.7990   59.8880 C   0  0  0  0  0  0  0  0  0  0  0  0
   41.1780   74.8500   59.1230 C   0  0  0  0  0  0  0  0  0  0  0  0
   41.9390   76.0180   59.0340 C   0  0  0  0  0  0  0  0  0  0  0  0
   41.5710   77.1660   59.6940 C   0  0  0  0  0  0  0  0  0  0  0  0
   42.0290   78.4150   59.8440 N   0  0  0  0  0  0  0  0  0  0  0  0
   41.2140   79.1350   60.6540 C   0  0  0  0  0  0  0  0  0  0  0  0
   40.2370   78.2830   60.9970 N   0  0  0  0  0  0  0  0  0  0  0  0
   40.4220   77.0770   60.4340 C   0  0  0  0  0  0  0  0  0  0  0  0
   39.6130   75.9550   60.5700 C   0  0  0  0  0  0  0  0  0  0  0  0
   39.4060   73.9060   59.9680 H   0  0  0  0  0  0  0  0  0  0  0  0
   42.8460   76.0420   58.4340 H   0  0  0  0  0  0  0  0  0  0  0  0
   42.9190   78.7020   59.3520 H   0  0  0  0  0  0  0  0  0  0  0  0
   41.4020   80.1720   60.9070 H   0  0  0  0  0  0  0  0  0  0  0  0
   38.7160   75.9810   61.1790 H   0  0  0  0  0  0  0  0  0  0  0  0
   42.9560   71.1760   61.1460 Cl  0  0  0  0  0  0  0  0  0  0  0  0
   42.2030   69.8120   60.3470 C   0  0  0  0  0  0  0  0  0  0  0  0
   41.7250   70.0120   59.0780 C   0  0  0  0  0  0  0  0  0  0  0  0
   41.1250   68.8880   58.5170 C   0  0  0  0  0  0  0  0  0  0  0  0
   41.0130   67.6770   59.1630 C   0  0  0  0  0  0  0  0  0  0  0  0
   41.5130   67.5400   60.4320 C   0  0  0  0  0  0  0  0  0  0  0  0
   41.3940   65.9970   61.2630 Cl  0  0  0  0  0  0  0  0  0  0  0  0
   42.1160   68.6270   61.0320 C   0  0  0  0  0  0  0  0  0  0  0  0
   40.7180   68.9530   57.5180 H   0  0  0  0  0  0  0  0  0  0  0  0
   40.5390   66.8270   58.6920 H   0  0  0  0  0  0  0  0  0  0  0  0
   42.6160   68.3830   62.3800 C   0  0  0  0  0  0  0  0  0  0  0  0
   43.8610   68.0410   62.8390 C   0  0  0  0  0  0  0  0  0  0  0  0
   44.7680   67.8740   62.3010 H   0  0  0  0  0  0  0  0  0  0  0  0
   43.9020   67.9050   64.2060 C   0  0  0  0  0  0  0  0  0  0  0  0
   44.6940   67.6510   64.8920 H   0  0  0  0  0  0  0  0  0  0  0  0
   42.6010   68.1840   64.5470 C   0  0  0  0  0  0  0  0  0  0  0  0
   42.1080   68.2130   65.5130 H   0  0  0  0  0  0  0  0  0  0  0  0
   41.9270   68.4440   63.4890 O   0  0  0  0  0  0  0  0  0  0  0  0
  1  2  2  0  0  0  0
  1  6  1  0  0  0  0
  2  3  1  0  0  0  0
  3  4  2  0  0  0  0
  3 25  1  0  0  0  0
  5  4  1  0  0  0  0
  5 10  1  0  0  0  0
  6  5  2  0  0  0  0
  7  1  1  0  0  0  0
  8  2  1  0  0  0  0
  9 18  1  0  0  0  0
  9 17  1  0  0  0  0
 10  9  2  0  0  0  0
 11 10  1  0  0  0  0
 11 12  2  0  0  0  0
 12 13  1  0  0  0  0
 12 16  1  0  0  0  0
 13 14  1  0  0  0  0
 14 21  1  0  0  0  0
 14 15  2  0  0  0  0
 16 17  2  0  0  0  0
 16 15  1  0  0  0  0
 17 22  1  0  0  0  0
 19 11  1  0  0  0  0
 20 13  1  0  0  0  0
 24 30  1  0  0  0  0
 24 23  1  0  0  0  0
 25 24  2  0  0  0  0
 26 25  1  0  0  0  0
 26 27  2  0  0  0  0
 27 28  1  0  0  0  0
 28 30  2  0  0  0  0
 28 29  1  0  0  0  0
 30 33  1  0  0  0  0
 31 26  1  0  0  0  0
 32 27  1  0  0  0  0
 33 34  2  0  0  0  0
 33 40  1  0  0  0  0
 34 36  1  0  0  0  0
 35 34  1  0  0  0  0
 36 38  2  0  0  0  0
 36 37  1  0  0  0  0
 38 39  1  0  0  0  0
 40 38  1  0  0  0  0
M  END
>  <minimizedAffinity>
-7.35909605

$$$$

 OpenBabel03212520063D

 40 44  0  0  0  0  0  0  0  0999 V2000
   45.0970   73.5550   58.5890 C   0  0  0  0  0  0  0  0  0  0  0  0
   44.2370   74.6490   58.3920 C   0  0  0  0  0  0  0  0  0  0  0  0
   43.0060   74.6110   59.0130 C   0  0  0  0  0  0  0  0  0  0  0  0
   42.6600   73.5340   59.7900 N   0  0  0  0  0  0  0  0  0  0  0  0
   43.5240   72.4960   59.9570 C   0  0  0  0  0  0  0  0  0  0  0  0
   44.7460   72.5030   59.3550 N   0  0  0  0  0  0  0  0  0  0  0  0
   46.0810   73.4460   58.1690 H   0  0  0  0  0  0  0  0  0  0  0  0
   44.7310   75.3720   57.7910 H   0  0  0  0  0  0  0  0  0  0  0  0
   43.6180   70.1030   60.4510 C   0  0  0  0  0  0  0  0  0  0  0  0
   43.1680   71.3750   60.8160 C   0  0  0  0  0  0  0  0  0  0  0  0
   42.4170   71.5780   61.9760 C   0  0  0  0  0  0  0  0  0  0  0  0
   42.0900   70.5340   62.8090 C   0  0  0  0  0  0  0  0  0  0  0  0
   41.4230   70.3510   63.9550 N   0  0  0  0  0  0  0  0  0  0  0  0
   41.4360   69.0440   64.3180 C   0  0  0  0  0  0  0  0  0  0  0  0
   42.1350   68.4300   63.3530 N   0  0  0  0  0  0  0  0  0  0  0  0
   42.5490   69.3040   62.4200 C   0  0  0  0  0  0  0  0  0  0  0  0
   43.2970   69.0240   61.2830 C   0  0  0  0  0  0  0  0  0  0  0  0
   44.1980   69.9270   59.5570 H   0  0  0  0  0  0  0  0  0  0  0  0
   42.0740   72.5740   62.2460 H   0  0  0  0  0  0  0  0  0  0  0  0
   40.9810   71.1820   64.4350 H   0  0  0  0  0  0  0  0  0  0  0  0
   40.9510   68.6790   65.2170 H   0  0  0  0  0  0  0  0  0  0  0  0
   43.6160   68.0130   61.0570 H   0  0  0  0  0  0  0  0  0  0  0  0
   40.8340   74.1740   57.0380 Cl  0  0  0  0  0  0  0  0  0  0  0  0
   41.0200   75.6410   57.9730 C   0  0  0  0  0  0  0  0  0  0  0  0
   42.0660   75.6950   58.8570 C   0  0  0  0  0  0  0  0  0  0  0  0
   42.1360   76.8850   59.5770 C   0  0  0  0  0  0  0  0  0  0  0  0
   41.2470   77.9250   59.4260 C   0  0  0  0  0  0  0  0  0  0  0  0
   40.2210   77.8110   58.5230 C   0  0  0  0  0  0  0  0  0  0  0  0
   39.0880   79.1350   58.3060 Cl  0  0  0  0  0  0  0  0  0  0  0  0
   40.1080   76.6490   57.7870 C   0  0  0  0  0  0  0  0  0  0  0  0
   42.9290   77.0170   60.2990 H   0  0  0  0  0  0  0  0  0  0  0  0
   41.3360   78.8340   60.0050 H   0  0  0  0  0  0  0  0  0  0  0  0
   38.9880   76.6230   56.8540 C   0  0  0  0  0  0  0  0  0  0  0  0
   38.9230   76.8590   55.5050 C   0  0  0  0  0  0  0  0  0  0  0  0
   39.6970   77.1210   54.8170 H   0  0  0  0  0  0  0  0  0  0  0  0
   37.6500   76.7270   55.0060 C   0  0  0  0  0  0  0  0  0  0  0  0
   37.2380   76.8370   54.0150 H   0  0  0  0  0  0  0  0  0  0  0  0
   36.9460   76.3960   56.1370 C   0  0  0  0  0  0  0  0  0  0  0  0
   35.8920   76.1840   56.2850 H   0  0  0  0  0  0  0  0  0  0  0  0
   37.7410   76.3510   57.1400 O   0  0  0  0  0  0  0  0  0  0  0  0
  1  6  1  0  0  0  0
  2  1  2  0  0  0  0
  2  3  1  0  0  0  0
  3  4  2  0  0  0  0
  4  5  1  0  0  0  0
  5 10  1  0  0  0  0
  6  5  2  0  0  0  0
  7  1  1  0  0  0  0
  8  2  1  0  0  0  0
  9 10  2  0  0  0  0
  9 17  1  0  0  0  0
 10 11  1  0  0  0  0
 11 19  1  0  0  0  0
 11 12  2  0  0  0  0
 12 13  1  0  0  0  0
 13 14  1  0  0  0  0
 13 20  1  0  0  0  0
 14 21  1  0  0  0  0
 15 14  2  0  0  0  0
 16 12  1  0  0  0  0
 16 15  1  0  0  0  0
 17 16  2  0  0  0  0
 18  9  1  0  0  0  0
 22 17  1  0  0  0  0
 23 24  1  0  0  0  0
 24 25  1  0  0  0  0
 25  3  1  0  0  0  0
 25 26  2  0  0  0  0
 26 31  1  0  0  0  0
 27 26  1  0  0  0  0
 27 32  1  0  0  0  0
 28 27  2  0  0  0  0
 29 28  1  0  0  0  0
 30 24  2  0  0  0  0
 30 28  1  0  0  0  0
 33 40  1  0  0  0  0
 33 30  1  0  0  0  0
 34 33  2  0  0  0  0
 35 34  1  0  0  0  0
 36 34  1  0  0  0  0
 36 38  2  0  0  0  0
 37 36  1  0  0  0  0
 38 39  1  0  0  0  0
 38 40  1  0  0  0  0
M  END
>  <minimizedAffinity>
-7.22001171

$$$$

 OpenBabel03212520063D

 40 44  0  0  0  0  0  0  0  0999 V2000
   43.5650   74.6510   59.6840 C   0  0  0  0  0  0  0  0  0  0  0  0
   43.5120   73.4740   60.4500 C   0  0  0  0  0  0  0  0  0  0  0  0
   42.2930   72.8370   60.5540 C   0  0  0  0  0  0  0  0  0  0  0  0
   41.1900   73.3540   59.9220 N   0  0  0  0  0  0  0  0  0  0  0  0
   41.2860   74.4960   59.1870 C   0  0  0  0  0  0  0  0  0  0  0  0
   42.4750   75.1490   59.0670 N   0  0  0  0  0  0  0  0  0  0  0  0
   44.4410   75.2520   59.5160 H   0  0  0  0  0  0  0  0  0  0  0  0
   44.4870   73.2490   60.8060 H   0  0  0  0  0  0  0  0  0  0  0  0
   39.8230   76.3750   58.6330 C   0  0  0  0  0  0  0  0  0  0  0  0
   40.1220   75.0170   58.4860 C   0  0  0  0  0  0  0  0  0  0  0  0
   39.3460   74.1830   57.6770 C   0  0  0  0  0  0  0  0  0  0  0  0
   38.2550   74.6640   56.9910 C   0  0  0  0  0  0  0  0  0  0  0  0
   37.3220   74.1910   56.1550 N   0  0  0  0  0  0  0  0  0  0  0  0
   36.4680   75.1760   55.7790 C   0  0  0  0  0  0  0  0  0  0  0  0
   36.9100   76.2710   56.4140 N   0  0  0  0  0  0  0  0  0  0  0  0
   37.9950   75.9980   57.1580 C   0  0  0  0  0  0  0  0  0  0  0  0
   38.7180   76.8870   57.9440 C   0  0  0  0  0  0  0  0  0  0  0  0
   40.4110   77.0340   59.2540 H   0  0  0  0  0  0  0  0  0  0  0  0
   39.5910   73.1290   57.5730 H   0  0  0  0  0  0  0  0  0  0  0  0
   37.3370   73.1700   55.8870 H   0  0  0  0  0  0  0  0  0  0  0  0
   35.6360   75.0060   55.1050 H   0  0  0  0  0  0  0  0  0  0  0  0
   38.4330   77.9310   58.0160 H   0  0  0  0  0  0  0  0  0  0  0  0
   42.6570   70.2990   59.0590 Cl  0  0  0  0  0  0  0  0  0  0  0  0
   42.2840   70.3790   60.7670 C   0  0  0  0  0  0  0  0  0  0  0  0
   42.1560   71.6240   61.3250 C   0  0  0  0  0  0  0  0  0  0  0  0
   41.8770   71.6050   62.6890 C   0  0  0  0  0  0  0  0  0  0  0  0
   41.7370   70.4510   63.4270 C   0  0  0  0  0  0  0  0  0  0  0  0
   41.8750   69.2350   62.8090 C   0  0  0  0  0  0  0  0  0  0  0  0
   41.6820   67.7530   63.7320 Cl  0  0  0  0  0  0  0  0  0  0  0  0
   42.1530   69.2010   61.4570 C   0  0  0  0  0  0  0  0  0  0  0  0
   41.7610   72.5430   63.2140 H   0  0  0  0  0  0  0  0  0  0  0  0
   41.5200   70.4800   64.4850 H   0  0  0  0  0  0  0  0  0  0  0  0
   42.2800   67.8630   60.8930 C   0  0  0  0  0  0  0  0  0  0  0  0
   41.3580   67.0280   60.3180 C   0  0  0  0  0  0  0  0  0  0  0  0
   40.3130   67.1730   60.1500 H   0  0  0  0  0  0  0  0  0  0  0  0
   41.9050   65.8350   59.9110 C   0  0  0  0  0  0  0  0  0  0  0  0
   41.4870   64.9640   59.4330 H   0  0  0  0  0  0  0  0  0  0  0  0
   43.2190   65.9990   60.2760 C   0  0  0  0  0  0  0  0  0  0  0  0
   44.0750   65.3400   60.1750 H   0  0  0  0  0  0  0  0  0  0  0  0
   43.3730   67.1490   60.8190 O   0  0  0  0  0  0  0  0  0  0  0  0
  1  2  1  0  0  0  0
  2  3  2  0  0  0  0
  2  8  1  0  0  0  0
  3 25  1  0  0  0  0
  4  3  1  0  0  0  0
  5  4  2  0  0  0  0
  6  5  1  0  0  0  0
  6  1  2  0  0  0  0
  7  1  1  0  0  0  0
  9 18  1  0  0  0  0
 10  9  1  0  0  0  0
 10  5  1  0  0  0  0
 11 10  2  0  0  0  0
 12 16  2  0  0  0  0
 12 11  1  0  0  0  0
 13 12  1  0  0  0  0
 14 13  1  0  0  0  0
 14 15  2  0  0  0  0
 15 16  1  0  0  0  0
 16 17  1  0  0  0  0
 17 22  1  0  0  0  0
 17  9  2  0  0  0  0
 19 11  1  0  0  0  0
 20 13  1  0  0  0  0
 21 14  1  0  0  0  0
 23 24  1  0  0  0  0
 24 25  2  0  0  0  0
 24 30  1  0  0  0  0
 25 26  1  0  0  0  0
 26 31  1  0  0  0  0
 26 27  2  0  0  0  0
 27 32  1  0  0  0  0
 28 27  1  0  0  0  0
 28 29  1  0  0  0  0
 30 28  2  0  0  0  0
 33 30  1  0  0  0  0
 34 33  2  0  0  0  0
 35 34  1  0  0  0  0
 36 38  2  0  0  0  0
 36 34  1  0  0  0  0
 37 36  1  0  0  0  0
 38 40  1  0  0  0  0
 39 38  1  0  0  0  0
 40 33  1  0  0  0  0
M  END
>  <minimizedAffinity>
-7.20566177

$$$$

 OpenBabel03212520063D

 40 44  0  0  0  0  0  0  0  0999 V2000
   44.3200   74.1840   60.0890 C   0  0  0  0  0  0  0  0  0  0  0  0
   43.3600   74.9510   59.4080 C   0  0  0  0  0  0  0  0  0  0  0  0
   42.0710   74.4610   59.3610 C   0  0  0  0  0  0  0  0  0  0  0  0
   41.7650   73.2680   59.9650 N   0  0  0  0  0  0  0  0  0  0  0  0
   42.7260   72.5570   60.6170 C   0  0  0  0  0  0  0  0  0  0  0  0
   44.0080   73.0130   60.6800 N   0  0  0  0  0  0  0  0  0  0  0  0
   45.3580   74.4370   60.2060 H   0  0  0  0  0  0  0  0  0  0  0  0
   43.8150   75.8440   59.0590 H   0  0  0  0  0  0  0  0  0  0  0  0
   42.4760   70.1250   60.5580 C   0  0  0  0  0  0  0  0  0  0  0  0
   42.3870   71.3120   61.2920 C   0  0  0  0  0  0  0  0  0  0  0  0
   42.0070   71.3110   62.6360 C   0  0  0  0  0  0  0  0  0  0  0  0
   41.7030   70.1420   63.2930 C   0  0  0  0  0  0  0  0  0  0  0  0
   41.3240   69.7640   64.5200 N   0  0  0  0  0  0  0  0  0  0  0  0
   41.1740   68.4170   64.5860 C   0  0  0  0  0  0  0  0  0  0  0  0
   41.4760   67.9810   63.3550 N   0  0  0  0  0  0  0  0  0  0  0  0
   41.8030   69.0010   62.5430 C   0  0  0  0  0  0  0  0  0  0  0  0
   42.1730   68.9230   61.2060 C   0  0  0  0  0  0  0  0  0  0  0  0
   42.7680   70.1070   59.5180 H   0  0  0  0  0  0  0  0  0  0  0  0
   41.9410   72.2420   63.1930 H   0  0  0  0  0  0  0  0  0  0  0  0
   41.1850   70.4970   65.2680 H   0  0  0  0  0  0  0  0  0  0  0  0
   40.8700   67.9030   65.4910 H   0  0  0  0  0  0  0  0  0  0  0  0
   42.2220   67.9680   60.6930 H   0  0  0  0  0  0  0  0  0  0  0  0
   41.6650   73.7770   56.5020 Cl  0  0  0  0  0  0  0  0  0  0  0  0
   40.7350   74.9900   57.3550 C   0  0  0  0  0  0  0  0  0  0  0  0
   41.0280   75.1890   58.6790 C   0  0  0  0  0  0  0  0  0  0  0  0
   40.2350   76.1560   59.2920 C   0  0  0  0  0  0  0  0  0  0  0  0
   39.2440   76.8590   58.6440 C   0  0  0  0  0  0  0  0  0  0  0  0
   39.0020   76.6140   57.3160 C   0  0  0  0  0  0  0  0  0  0  0  0
   37.7530   77.5140   56.4700 Cl  0  0  0  0  0  0  0  0  0  0  0  0
   39.7600   75.6630   56.6640 C   0  0  0  0  0  0  0  0  0  0  0  0
   40.3940   76.3800   60.3370 H   0  0  0  0  0  0  0  0  0  0  0  0
   38.6510   77.6020   59.1570 H   0  0  0  0  0  0  0  0  0  0  0  0
   39.4280   75.4760   55.2570 C   0  0  0  0  0  0  0  0  0  0  0  0
   38.5860   74.5920   54.6330 C   0  0  0  0  0  0  0  0  0  0  0  0
   37.9700   73.8230   55.0450 H   0  0  0  0  0  0  0  0  0  0  0  0
   38.5640   74.7570   53.2680 C   0  0  0  0  0  0  0  0  0  0  0  0
   38.0310   74.2510   52.4790 H   0  0  0  0  0  0  0  0  0  0  0  0
   39.4460   75.7970   53.1050 C   0  0  0  0  0  0  0  0  0  0  0  0
   39.7840   76.3120   52.2110 H   0  0  0  0  0  0  0  0  0  0  0  0
   39.8980   76.1600   54.2470 O   0  0  0  0  0  0  0  0  0  0  0  0
  1  7  1  0  0  0  0
  1  6  1  0  0  0  0
  2  1  2  0  0  0  0
  3  2  1  0  0  0  0
  3  4  2  0  0  0  0
  4  5  1  0  0  0  0
  5  6  2  0  0  0  0
  5 10  1  0  0  0  0
  8  2  1  0  0  0  0
  9 17  2  0  0  0  0
  9 10  1  0  0  0  0
 10 11  2  0  0  0  0
 11 19  1  0  0  0  0
 11 12  1  0  0  0  0
 12 13  1  0  0  0  0
 13 14  1  0  0  0  0
 13 20  1  0  0  0  0
 14 21  1  0  0  0  0
 15 14  2  0  0  0  0
 16 12  2  0  0  0  0
 16 15  1  0  0  0  0
 17 16  1  0  0  0  0
 18  9  1  0  0  0  0
 22 17  1  0  0  0  0
 23 24  1  0  0  0  0
 24 25  1  0  0  0  0
 25 26  2  0  0  0  0
 25  3  1  0  0  0  0
 26 31  1  0  0  0  0
 27 32  1  0  0  0  0
 27 26  1  0  0  0  0
 28 27  2  0  0  0  0
 29 28  1  0  0  0  0
 30 28  1  0  0  0  0
 30 24  2  0  0  0  0
 33 30  1  0  0  0  0
 34 35  1  0  0  0  0
 34 33  2  0  0  0  0
 36 34  1  0  0  0  0
 37 36  1  0  0  0  0
 38 36  2  0  0  0  0
 38 40  1  0  0  0  0
 39 38  1  0  0  0  0
 40 33  1  0  0  0  0
M  END
>  <minimizedAffinity>
-7.03228951

$$$$

 OpenBabel03212520063D

 40 44  0  0  0  0  0  0  0  0999 V2000
   43.7940   70.0660   58.4870 C   0  0  0  0  0  0  0  0  0  0  0  0
   43.0500   71.2120   58.1620 C   0  0  0  0  0  0  0  0  0  0  0  0
   41.9460   71.4960   58.9390 C   0  0  0  0  0  0  0  0  0  0  0  0
   41.6110   70.6740   59.9850 N   0  0  0  0  0  0  0  0  0  0  0  0
   42.3610   69.5730   60.2670 C   0  0  0  0  0  0  0  0  0  0  0  0
   43.4550   69.2650   59.5170 N   0  0  0  0  0  0  0  0  0  0  0  0
   44.6720   69.7200   57.9720 H   0  0  0  0  0  0  0  0  0  0  0  0
   43.5170   71.7080   57.3470 H   0  0  0  0  0  0  0  0  0  0  0  0
   42.3870   69.1700   62.6790 C   0  0  0  0  0  0  0  0  0  0  0  0
   42.0240   68.7270   61.4030 C   0  0  0  0  0  0  0  0  0  0  0  0
   41.3420   67.5230   61.2160 C   0  0  0  0  0  0  0  0  0  0  0  0
   40.9980   66.7220   62.2800 C   0  0  0  0  0  0  0  0  0  0  0  0
   40.3670   65.5580   62.4820 N   0  0  0  0  0  0  0  0  0  0  0  0
   40.3190   65.2590   63.8040 C   0  0  0  0  0  0  0  0  0  0  0  0
   40.9430   66.2810   64.4080 N   0  0  0  0  0  0  0  0  0  0  0  0
   41.3670   67.1890   63.5130 C   0  0  0  0  0  0  0  0  0  0  0  0
   42.0470   68.3720   63.7770 C   0  0  0  0  0  0  0  0  0  0  0  0
   42.9150   70.0980   62.8430 H   0  0  0  0  0  0  0  0  0  0  0  0
   41.0670   67.1910   60.2180 H   0  0  0  0  0  0  0  0  0  0  0  0
   39.9940   65.0210   61.6530 H   0  0  0  0  0  0  0  0  0  0  0  0
   39.8530   64.3580   64.1860 H   0  0  0  0  0  0  0  0  0  0  0  0
   42.2990   68.6590   64.7920 H   0  0  0  0  0  0  0  0  0  0  0  0
   42.7520   74.0040   60.3070 Cl  0  0  0  0  0  0  0  0  0  0  0  0
   41.3720   73.8770   59.2390 C   0  0  0  0  0  0  0  0  0  0  0  0
   41.1290   72.6550   58.6680 C   0  0  0  0  0  0  0  0  0  0  0  0
   40.0260   72.6380   57.8180 C   0  0  0  0  0  0  0  0  0  0  0  0
   39.2390   73.7380   57.5630 C   0  0  0  0  0  0  0  0  0  0  0  0
   39.5330   74.9340   58.1670 C   0  0  0  0  0  0  0  0  0  0  0  0
   38.5280   76.3420   57.8660 Cl  0  0  0  0  0  0  0  0  0  0  0  0
   40.6180   75.0010   59.0170 C   0  0  0  0  0  0  0  0  0  0  0  0
   39.7590   71.7160   57.3220 H   0  0  0  0  0  0  0  0  0  0  0  0
   38.3900   73.6830   56.8950 H   0  0  0  0  0  0  0  0  0  0  0  0
   40.8490   76.3130   59.6100 C   0  0  0  0  0  0  0  0  0  0  0  0
   41.7680   77.2890   59.3260 C   0  0  0  0  0  0  0  0  0  0  0  0
   42.5400   77.3110   58.5880 H   0  0  0  0  0  0  0  0  0  0  0  0
   41.6380   78.3910   60.1380 C   0  0  0  0  0  0  0  0  0  0  0  0
   42.1760   79.3230   60.1970 H   0  0  0  0  0  0  0  0  0  0  0  0
   40.5820   78.0190   60.9340 C   0  0  0  0  0  0  0  0  0  0  0  0
   40.0830   78.5400   61.7450 H   0  0  0  0  0  0  0  0  0  0  0  0
   40.1800   76.8510   60.5960 O   0  0  0  0  0  0  0  0  0  0  0  0
  1  6  1  0  0  0  0
  2  1  2  0  0  0  0
  2  3  1  0  0  0  0
  3  4  2  0  0  0  0
  4  5  1  0  0  0  0
  5 10  1  0  0  0  0
  6  5  2  0  0  0  0
  7  1  1  0  0  0  0
  8  2  1  0  0  0  0
  9 18  1  0  0  0  0
  9 17  1  0  0  0  0
 10  9  2  0  0  0  0
 11 10  1  0  0  0  0
 11 12  2  0  0  0  0
 12 13  1  0  0  0  0
 12 16  1  0  0  0  0
 13 14  1  0  0  0  0
 14 21  1  0  0  0  0
 14 15  2  0  0  0  0
 16 17  2  0  0  0  0
 16 15  1  0  0  0  0
 17 22  1  0  0  0  0
 19 11  1  0  0  0  0
 20 13  1  0  0  0  0
 24 23  1  0  0  0  0
 25  3  1  0  0  0  0
 25 24  2  0  0  0  0
 26 25  1  0  0  0  0
 27 26  2  0  0  0  0
 27 28  1  0  0  0  0
 28 30  2  0  0  0  0
 29 28  1  0  0  0  0
 30 24  1  0  0  0  0
 30 33  1  0  0  0  0
 31 26  1  0  0  0  0
 32 27  1  0  0  0  0
 33 40  1  0  0  0  0
 34 33  2  0  0  0  0
 34 36  1  0  0  0  0
 35 34  1  0  0  0  0
 36 37  1  0  0  0  0
 36 38  2  0  0  0  0
 38 39  1  0  0  0  0
 40 38  1  0  0  0  0
M  END
>  <minimizedAffinity>
-6.91116858

$$$$

 OpenBabel03212520063D

 40 44  0  0  0  0  0  0  0  0999 V2000
   43.2750   75.2120   59.2720 C   0  0  0  0  0  0  0  0  0  0  0  0
   43.2880   74.0510   60.0640 C   0  0  0  0  0  0  0  0  0  0  0  0
   42.1100   73.3430   60.1740 C   0  0  0  0  0  0  0  0  0  0  0  0
   40.9820   73.7770   59.5240 N   0  0  0  0  0  0  0  0  0  0  0  0
   41.0130   74.9070   58.7650 C   0  0  0  0  0  0  0  0  0  0  0  0
   42.1610   75.6290   58.6380 N   0  0  0  0  0  0  0  0  0  0  0  0
   44.1130   75.8620   59.0970 H   0  0  0  0  0  0  0  0  0  0  0  0
   44.2720   73.8950   60.4320 H   0  0  0  0  0  0  0  0  0  0  0  0
   38.7070   74.4990   58.0610 C   0  0  0  0  0  0  0  0  0  0  0  0
   39.8240   75.3400   58.0450 C   0  0  0  0  0  0  0  0  0  0  0  0
   39.8020   76.5680   57.3810 C   0  0  0  0  0  0  0  0  0  0  0  0
   38.6810   77.0020   56.7140 C   0  0  0  0  0  0  0  0  0  0  0  0
   38.3010   78.0710   56.0020 N   0  0  0  0  0  0  0  0  0  0  0  0
   37.0190   77.9380   55.5790 C   0  0  0  0  0  0  0  0  0  0  0  0
   36.6240   76.7500   56.0570 N   0  0  0  0  0  0  0  0  0  0  0  0
   37.6070   76.1530   56.7520 C   0  0  0  0  0  0  0  0  0  0  0  0
   37.5540   74.9190   57.3890 C   0  0  0  0  0  0  0  0  0  0  0  0
   38.7060   73.5460   58.5690 H   0  0  0  0  0  0  0  0  0  0  0  0
   40.6790   77.2110   57.3770 H   0  0  0  0  0  0  0  0  0  0  0  0
   38.9860   78.8590   55.8470 H   0  0  0  0  0  0  0  0  0  0  0  0
   36.5150   78.6930   54.9850 H   0  0  0  0  0  0  0  0  0  0  0  0
   36.6540   74.3140   57.3630 H   0  0  0  0  0  0  0  0  0  0  0  0
   42.4380   70.7880   58.7000 Cl  0  0  0  0  0  0  0  0  0  0  0  0
   42.1620   70.8890   60.4260 C   0  0  0  0  0  0  0  0  0  0  0  0
   42.0410   72.1410   60.9710 C   0  0  0  0  0  0  0  0  0  0  0  0
   41.8420   72.1390   62.3490 C   0  0  0  0  0  0  0  0  0  0  0  0
   41.7670   70.9950   63.1110 C   0  0  0  0  0  0  0  0  0  0  0  0
   41.8940   69.7710   62.5050 C   0  0  0  0  0  0  0  0  0  0  0  0
   41.7840   68.3020   63.4610 Cl  0  0  0  0  0  0  0  0  0  0  0  0
   42.0950   69.7210   61.1410 C   0  0  0  0  0  0  0  0  0  0  0  0
   41.7360   73.0830   62.8650 H   0  0  0  0  0  0  0  0  0  0  0  0
   41.6110   71.0370   64.1800 H   0  0  0  0  0  0  0  0  0  0  0  0
   42.2170   68.3760   60.5910 C   0  0  0  0  0  0  0  0  0  0  0  0
   43.3150   67.6030   60.3150 C   0  0  0  0  0  0  0  0  0  0  0  0
   44.3530   67.8160   60.4440 H   0  0  0  0  0  0  0  0  0  0  0  0
   42.9810   66.3750   59.7950 C   0  0  0  0  0  0  0  0  0  0  0  0
   43.5710   65.5340   59.4710 H   0  0  0  0  0  0  0  0  0  0  0  0
   41.6100   66.4530   59.7730 C   0  0  0  0  0  0  0  0  0  0  0  0
   40.8600   65.7380   59.4480 H   0  0  0  0  0  0  0  0  0  0  0  0
   41.2370   67.5900   60.2280 O   0  0  0  0  0  0  0  0  0  0  0  0
  1  2  1  0  0  0  0
  2  3  2  0  0  0  0
  2  8  1  0  0  0  0
  3 25  1  0  0  0  0
  4  3  1  0  0  0  0
  5  4  2  0  0  0  0
  6  5  1  0  0  0  0
  6  1  2  0  0  0  0
  7  1  1  0  0  0  0
  9 18  1  0  0  0  0
 10  9  1  0  0  0  0
 10  5  1  0  0  0  0
 11 10  2  0  0  0  0
 12 16  2  0  0  0  0
 12 11  1  0  0  0  0
 13 12  1  0  0  0  0
 14 13  1  0  0  0  0
 14 15  2  0  0  0  0
 15 16  1  0  0  0  0
 16 17  1  0  0  0  0
 17  9  2  0  0  0  0
 19 11  1  0  0  0  0
 20 13  1  0  0  0  0
 21 14  1  0  0  0  0
 22 17  1  0  0  0  0
 23 24  1  0  0  0  0
 24 25  2  0  0  0  0
 24 30  1  0  0  0  0
 25 26  1  0  0  0  0
 26 31  1  0  0  0  0
 26 27  2  0  0  0  0
 27 32  1  0  0  0  0
 28 27  1  0  0  0  0
 28 29  1  0  0  0  0
 30 28  2  0  0  0  0
 33 30  1  0  0  0  0
 34 35  1  0  0  0  0
 34 33  2  0  0  0  0
 36 34  1  0  0  0  0
 37 36  1  0  0  0  0
 38 36  2  0  0  0  0
 38 40  1  0  0  0  0
 39 38  1  0  0  0  0
 40 33  1  0  0  0  0
M  END
>  <minimizedAffinity>
-6.88486624

$$$$

 OpenBabel03212520063D

 40 44  0  0  0  0  0  0  0  0999 V2000
   44.1140   70.3510   58.2710 C   0  0  0  0  0  0  0  0  0  0  0  0
   43.3000   71.4710   58.0320 C   0  0  0  0  0  0  0  0  0  0  0  0
   42.0320   71.4640   58.5740 C   0  0  0  0  0  0  0  0  0  0  0  0
   41.6070   70.3920   59.3180 N   0  0  0  0  0  0  0  0  0  0  0  0
   42.4290   69.3270   59.5280 C   0  0  0  0  0  0  0  0  0  0  0  0
   43.6860   69.3030   59.0040 N   0  0  0  0  0  0  0  0  0  0  0  0
   45.1180   70.2160   57.9120 H   0  0  0  0  0  0  0  0  0  0  0  0
   43.8500   72.1840   57.4690 H   0  0  0  0  0  0  0  0  0  0  0  0
   41.8390   66.9630   59.7380 C   0  0  0  0  0  0  0  0  0  0  0  0
   41.9880   68.2100   60.3520 C   0  0  0  0  0  0  0  0  0  0  0  0
   41.7440   68.3850   61.7160 C   0  0  0  0  0  0  0  0  0  0  0  0
   41.3470   67.3360   62.5120 C   0  0  0  0  0  0  0  0  0  0  0  0
   41.0400   67.1280   63.7990 N   0  0  0  0  0  0  0  0  0  0  0  0
   40.7120   65.8300   64.0130 C   0  0  0  0  0  0  0  0  0  0  0  0
   40.8280   65.2470   62.8120 N   0  0  0  0  0  0  0  0  0  0  0  0
   41.2130   66.1310   61.8760 C   0  0  0  0  0  0  0  0  0  0  0  0
   41.4360   65.8810   60.5280 C   0  0  0  0  0  0  0  0  0  0  0  0
   42.0220   66.8100   58.6840 H   0  0  0  0  0  0  0  0  0  0  0  0
   41.8630   69.3610   62.1790 H   0  0  0  0  0  0  0  0  0  0  0  0
   41.0780   67.9370   64.4770 H   0  0  0  0  0  0  0  0  0  0  0  0
   40.4290   65.4490   64.9880 H   0  0  0  0  0  0  0  0  0  0  0  0
   41.3020   64.8880   60.1120 H   0  0  0  0  0  0  0  0  0  0  0  0
   42.5170   73.8510   60.2700 Cl  0  0  0  0  0  0  0  0  0  0  0  0
   41.2280   73.7390   59.0910 C   0  0  0  0  0  0  0  0  0  0  0  0
   41.1340   72.5760   58.3710 C   0  0  0  0  0  0  0  0  0  0  0  0
   40.0970   72.5700   57.4420 C   0  0  0  0  0  0  0  0  0  0  0  0
   39.2330   73.6250   57.2510 C   0  0  0  0  0  0  0  0  0  0  0  0
   39.3780   74.7610   58.0050 C   0  0  0  0  0  0  0  0  0  0  0  0
   38.2740   76.1090   57.7850 Cl  0  0  0  0  0  0  0  0  0  0  0  0
   40.3940   74.8160   58.9390 C   0  0  0  0  0  0  0  0  0  0  0  0
   39.9470   71.6940   56.8280 H   0  0  0  0  0  0  0  0  0  0  0  0
   38.4400   73.5800   56.5180 H   0  0  0  0  0  0  0  0  0  0  0  0
   40.4660   76.0640   59.6900 C   0  0  0  0  0  0  0  0  0  0  0  0
   39.8550   76.4630   60.8500 C   0  0  0  0  0  0  0  0  0  0  0  0
   39.1720   75.9370   61.4810 H   0  0  0  0  0  0  0  0  0  0  0  0
   40.2030   77.7400   61.2190 C   0  0  0  0  0  0  0  0  0  0  0  0
   39.9220   78.3620   62.0540 H   0  0  0  0  0  0  0  0  0  0  0  0
   41.0650   78.0910   60.2090 C   0  0  0  0  0  0  0  0  0  0  0  0
   41.6200   79.0060   60.0310 H   0  0  0  0  0  0  0  0  0  0  0  0
   41.1760   77.1180   59.3830 O   0  0  0  0  0  0  0  0  0  0  0  0
  1  6  1  0  0  0  0
  2  1  2  0  0  0  0
  2  3  1  0  0  0  0
  3  4  2  0  0  0  0
  4  5  1  0  0  0  0
  5 10  1  0  0  0  0
  6  5  2  0  0  0  0
  7  1  1  0  0  0  0
  8  2  1  0  0  0  0
  9 10  2  0  0  0  0
  9 17  1  0  0  0  0
 10 11  1  0  0  0  0
 11 19  1  0  0  0  0
 11 12  2  0  0  0  0
 12 13  1  0  0  0  0
 13 14  1  0  0  0  0
 13 20  1  0  0  0  0
 14 21  1  0  0  0  0
 15 14  2  0  0  0  0
 16 12  1  0  0  0  0
 16 15  1  0  0  0  0
 17 16  2  0  0  0  0
 18  9  1  0  0  0  0
 22 17  1  0  0  0  0
 24 23  1  0  0  0  0
 25  3  1  0  0  0  0
 25 24  2  0  0  0  0
 26 25  1  0  0  0  0
 27 26  2  0  0  0  0
 27 28  1  0  0  0  0
 28 30  2  0  0  0  0
 29 28  1  0  0  0  0
 30 24  1  0  0  0  0
 30 33  1  0  0  0  0
 31 26  1  0  0  0  0
 32 27  1  0  0  0  0
 33 34  2  0  0  0  0
 34 36  1  0  0  0  0
 34 35  1  0  0  0  0
 36 37  1  0  0  0  0
 38 36  2  0  0  0  0
 39 38  1  0  0  0  0
 40 33  1  0  0  0  0
 40 38  1  0  0  0  0
M  END
>  <minimizedAffinity>
-6.85015392

$$$$

 OpenBabel03212520063D

 40 44  0  0  0  0  0  0  0  0999 V2000
   43.3280   74.2950   59.7560 C   0  0  0  0  0  0  0  0  0  0  0  0
   43.3420   72.9070   59.9750 C   0  0  0  0  0  0  0  0  0  0  0  0
   42.2250   72.1920   59.5960 C   0  0  0  0  0  0  0  0  0  0  0  0
   41.1550   72.8370   59.0280 N   0  0  0  0  0  0  0  0  0  0  0  0
   41.1840   74.1830   58.8320 C   0  0  0  0  0  0  0  0  0  0  0  0
   42.2710   74.9170   59.1970 N   0  0  0  0  0  0  0  0  0  0  0  0
   44.1220   74.9770   60.0010 H   0  0  0  0  0  0  0  0  0  0  0  0
   44.2810   72.6310   60.3870 H   0  0  0  0  0  0  0  0  0  0  0  0
   39.8020   76.1810   58.5520 C   0  0  0  0  0  0  0  0  0  0  0  0
   40.0630   74.8560   58.1910 C   0  0  0  0  0  0  0  0  0  0  0  0
   39.2910   74.1960   57.2320 C   0  0  0  0  0  0  0  0  0  0  0  0
   38.2410   74.8240   56.6020 C   0  0  0  0  0  0  0  0  0  0  0  0
   37.3240   74.5300   55.6720 N   0  0  0  0  0  0  0  0  0  0  0  0
   36.5160   75.5940   55.4380 C   0  0  0  0  0  0  0  0  0  0  0  0
   36.9690   76.5520   56.2590 N   0  0  0  0  0  0  0  0  0  0  0  0
   38.0170   76.1200   56.9800 C   0  0  0  0  0  0  0  0  0  0  0  0
   38.7390   76.8400   57.9240 C   0  0  0  0  0  0  0  0  0  0  0  0
   40.3870   76.7070   59.2920 H   0  0  0  0  0  0  0  0  0  0  0  0
   39.5060   73.1650   56.9620 H   0  0  0  0  0  0  0  0  0  0  0  0
   37.3170   73.5670   55.2380 H   0  0  0  0  0  0  0  0  0  0  0  0
   35.7040   75.5680   54.7200 H   0  0  0  0  0  0  0  0  0  0  0  0
   38.4850   77.8680   58.1600 H   0  0  0  0  0  0  0  0  0  0  0  0
   41.8660   71.2740   62.3960 Cl  0  0  0  0  0  0  0  0  0  0  0  0
   42.0110   70.1940   61.0270 C   0  0  0  0  0  0  0  0  0  0  0  0
   42.1610   70.7630   59.7900 C   0  0  0  0  0  0  0  0  0  0  0  0
   42.2510   69.8400   58.7510 C   0  0  0  0  0  0  0  0  0  0  0  0
   42.1980   68.4760   58.9310 C   0  0  0  0  0  0  0  0  0  0  0  0
   42.0490   67.9680   60.1960 C   0  0  0  0  0  0  0  0  0  0  0  0
   41.9980   66.2300   60.4450 Cl  0  0  0  0  0  0  0  0  0  0  0  0
   41.9530   68.8430   61.2590 C   0  0  0  0  0  0  0  0  0  0  0  0
   42.3700   70.1980   57.7390 H   0  0  0  0  0  0  0  0  0  0  0  0
   42.2720   67.7920   58.0970 H   0  0  0  0  0  0  0  0  0  0  0  0
   41.7980   68.2070   62.5620 C   0  0  0  0  0  0  0  0  0  0  0  0
   42.7180   67.8370   63.5080 C   0  0  0  0  0  0  0  0  0  0  0  0
   43.7810   67.9340   63.5050 H   0  0  0  0  0  0  0  0  0  0  0  0
   42.1380   67.2590   64.6120 C   0  0  0  0  0  0  0  0  0  0  0  0
   42.5460   66.8580   65.5260 H   0  0  0  0  0  0  0  0  0  0  0  0
   40.8070   67.3010   64.2750 C   0  0  0  0  0  0  0  0  0  0  0  0
   39.9250   66.9670   64.8110 H   0  0  0  0  0  0  0  0  0  0  0  0
   40.6740   67.8410   63.1210 O   0  0  0  0  0  0  0  0  0  0  0  0
  1  2  1  0  0  0  0
  1  7  1  0  0  0  0
  2  8  1  0  0  0  0
  3 25  1  0  0  0  0
  3  2  2  0  0  0  0
  4  3  1  0  0  0  0
  5  4  2  0  0  0  0
  5  6  1  0  0  0  0
  6  1  2  0  0  0  0
  9 18  1  0  0  0  0
 10  9  1  0  0  0  0
 10  5  1  0  0  0  0
 11 10  2  0  0  0  0
 12 16  2  0  0  0  0
 12 11  1  0  0  0  0
 13 12  1  0  0  0  0
 14 13  1  0  0  0  0
 14 15  2  0  0  0  0
 15 16  1  0  0  0  0
 16 17  1  0  0  0  0
 17 22  1  0  0  0  0
 17  9  2  0  0  0  0
 19 11  1  0  0  0  0
 20 13  1  0  0  0  0
 21 14  1  0  0  0  0
 24 30  1  0  0  0  0
 24 23  1  0  0  0  0
 25 24  2  0  0  0  0
 26 27  2  0  0  0  0
 26 25  1  0  0  0  0
 27 28  1  0  0  0  0
 28 29  1  0  0  0  0
 28 30  2  0  0  0  0
 30 33  1  0  0  0  0
 31 26  1  0  0  0  0
 32 27  1  0  0  0  0
 33 40  1  0  0  0  0
 33 34  2  0  0  0  0
 34 36  1  0  0  0  0
 35 34  1  0  0  0  0
 36 37  1  0  0  0  0
 38 36  2  0  0  0  0
 38 39  1  0  0  0  0
 40 38  1  0  0  0  0
M  END
>  <minimizedAffinity>
-6.82682419

$$$$

 OpenBabel03212520063D

 40 44  0  0  0  0  0  0  0  0999 V2000
   43.8030   70.1010   57.6240 C   0  0  0  0  0  0  0  0  0  0  0  0
   43.1910   71.3640   57.6860 C   0  0  0  0  0  0  0  0  0  0  0  0
   42.1540   71.5250   58.5810 C   0  0  0  0  0  0  0  0  0  0  0  0
   41.7560   70.4760   59.3700 N   0  0  0  0  0  0  0  0  0  0  0  0
   42.3790   69.2680   59.2790 C   0  0  0  0  0  0  0  0  0  0  0  0
   43.4040   69.0770   58.4040 N   0  0  0  0  0  0  0  0  0  0  0  0
   44.6180   69.8290   56.9760 H   0  0  0  0  0  0  0  0  0  0  0  0
   43.6880   72.0230   57.0170 H   0  0  0  0  0  0  0  0  0  0  0  0
   41.8600   66.8970   59.5800 C   0  0  0  0  0  0  0  0  0  0  0  0
   41.9790   68.1700   60.1480 C   0  0  0  0  0  0  0  0  0  0  0  0
   41.7450   68.3860   61.5070 C   0  0  0  0  0  0  0  0  0  0  0  0
   41.3870   67.3560   62.3450 C   0  0  0  0  0  0  0  0  0  0  0  0
   41.1010   67.1870   63.6420 N   0  0  0  0  0  0  0  0  0  0  0  0
   40.8130   65.8880   63.9070 C   0  0  0  0  0  0  0  0  0  0  0  0
   40.9330   65.2650   62.7260 N   0  0  0  0  0  0  0  0  0  0  0  0
   41.2820   66.1260   61.7550 C   0  0  0  0  0  0  0  0  0  0  0  0
   41.4980   65.8330   60.4140 C   0  0  0  0  0  0  0  0  0  0  0  0
   42.0360   66.7110   58.5310 H   0  0  0  0  0  0  0  0  0  0  0  0
   41.8410   69.3820   61.9340 H   0  0  0  0  0  0  0  0  0  0  0  0
   41.1230   68.0200   64.2910 H   0  0  0  0  0  0  0  0  0  0  0  0
   40.5520   65.5340   64.8980 H   0  0  0  0  0  0  0  0  0  0  0  0
   41.3880   64.8230   60.0360 H   0  0  0  0  0  0  0  0  0  0  0  0
   39.9500   72.0060   56.6520 Cl  0  0  0  0  0  0  0  0  0  0  0  0
   40.4450   73.1580   57.8730 C   0  0  0  0  0  0  0  0  0  0  0  0
   41.4720   72.7920   58.7030 C   0  0  0  0  0  0  0  0  0  0  0  0
   41.7960   73.7520   59.6580 C   0  0  0  0  0  0  0  0  0  0  0  0
   41.1540   74.9650   59.7730 C   0  0  0  0  0  0  0  0  0  0  0  0
   40.1330   75.2730   58.9100 C   0  0  0  0  0  0  0  0  0  0  0  0
   39.3160   76.8230   59.0330 Cl  0  0  0  0  0  0  0  0  0  0  0  0
   39.7740   74.3520   57.9470 C   0  0  0  0  0  0  0  0  0  0  0  0
   42.5950   73.5500   60.3570 H   0  0  0  0  0  0  0  0  0  0  0  0
   41.4360   75.6840   60.5290 H   0  0  0  0  0  0  0  0  0  0  0  0
   38.6800   74.7710   57.0790 C   0  0  0  0  0  0  0  0  0  0  0  0
   38.6770   75.3810   55.8520 C   0  0  0  0  0  0  0  0  0  0  0  0
   39.4940   75.6950   55.2400 H   0  0  0  0  0  0  0  0  0  0  0  0
   37.4070   75.6040   55.3750 C   0  0  0  0  0  0  0  0  0  0  0  0
   37.0350   76.0520   54.4670 H   0  0  0  0  0  0  0  0  0  0  0  0
   36.6400   75.0900   56.3920 C   0  0  0  0  0  0  0  0  0  0  0  0
   35.5630   75.0200   56.5070 H   0  0  0  0  0  0  0  0  0  0  0  0
   37.4020   74.6380   57.3170 O   0  0  0  0  0  0  0  0  0  0  0  0
  1  2  2  0  0  0  0
  1  6  1  0  0  0  0
  2  3  1  0  0  0  0
  3 25  1  0  0  0  0
  3  4  2  0  0  0  0
  5  4  1  0  0  0  0
  5 10  1  0  0  0  0
  6  5  2  0  0  0  0
  7  1  1  0  0  0  0
  8  2  1  0  0  0  0
  9 10  2  0  0  0  0
  9 17  1  0  0  0  0
 10 11  1  0  0  0  0
 11 19  1  0  0  0  0
 11 12  2  0  0  0  0
 12 13  1  0  0  0  0
 13 14  1  0  0  0  0
 13 20  1  0  0  0  0
 14 21  1  0  0  0  0
 15 14  2  0  0  0  0
 16 12  1  0  0  0  0
 16 15  1  0  0  0  0
 17 16  2  0  0  0  0
 18  9  1  0  0  0  0
 22 17  1  0  0  0  0
 23 24  1  0  0  0  0
 24 30  2  0  0  0  0
 24 25  1  0  0  0  0
 25 26  2  0  0  0  0
 26 27  1  0  0  0  0
 26 31  1  0  0  0  0
 27 32  1  0  0  0  0
 28 29  1  0  0  0  0
 28 27  2  0  0  0  0
 30 28  1  0  0  0  0
 33 40  1  0  0  0  0
 33 30  1  0  0  0  0
 34 33  2  0  0  0  0
 35 34  1  0  0  0  0
 36 34  1  0  0  0  0
 36 38  2  0  0  0  0
 37 36  1  0  0  0  0
 38 39  1  0  0  0  0
 38 40  1  0  0  0  0
M  END
>  <minimizedAffinity>
-6.59120321

$$$$
