
 OpenBabel03212521063D

 35 38  0  0  0  0  0  0  0  0999 V2000
   41.8190   84.2470   61.5590 C   0  0  0  0  0  0  0  0  0  0  0  0
   41.4660   83.9400   62.8680 C   0  0  0  0  0  0  0  0  0  0  0  0
   40.1940   83.5150   63.2060 C   0  0  0  0  0  0  0  0  0  0  0  0
   39.2410   83.3890   62.2050 C   0  0  0  0  0  0  0  0  0  0  0  0
   39.5800   83.6930   60.8840 C   0  0  0  0  0  0  0  0  0  0  0  0
   40.8550   84.1170   60.5620 C   0  0  0  0  0  0  0  0  0  0  0  0
   42.1650   84.0170   63.7020 H   0  0  0  0  0  0  0  0  0  0  0  0
   39.8830   83.2690   64.2100 H   0  0  0  0  0  0  0  0  0  0  0  0
   38.2050   83.0650   62.3410 H   0  0  0  0  0  0  0  0  0  0  0  0
   38.8450   83.6010   60.0870 H   0  0  0  0  0  0  0  0  0  0  0  0
   45.3410   84.1650   60.6170 C   0  0  0  0  0  0  0  0  0  0  0  0
   45.7280   85.4890   60.7040 C   0  0  0  0  0  0  0  0  0  0  0  0
   44.7530   86.4380   61.0950 C   0  0  0  0  0  0  0  0  0  0  0  0
   43.5020   85.9910   61.3630 N   0  0  0  0  0  0  0  0  0  0  0  0
   43.1570   84.6850   61.2680 C   0  0  0  0  0  0  0  0  0  0  0  0
   44.0830   83.7910   60.8970 N   0  0  0  0  0  0  0  0  0  0  0  0
   46.1270   83.4890   60.3130 H   0  0  0  0  0  0  0  0  0  0  0  0
   46.6730   85.9400   60.5180 H   0  0  0  0  0  0  0  0  0  0  0  0
   44.8590   87.5060   61.2200 H   0  0  0  0  0  0  0  0  0  0  0  0
   41.1650   84.4220   59.1870 C   0  0  0  0  0  0  0  0  0  0  0  0
   40.7250   85.7040   58.8310 C   0  0  0  0  0  0  0  0  0  0  0  0
   40.9280   86.1920   57.5440 C   0  0  0  0  0  0  0  0  0  0  0  0
   41.5550   85.3910   56.6690 N   0  0  0  0  0  0  0  0  0  0  0  0
   41.9760   84.1500   57.0260 C   0  0  0  0  0  0  0  0  0  0  0  0
   41.7860   83.6660   58.2680 N   0  0  0  0  0  0  0  0  0  0  0  0
   40.2070   86.4140   59.4880 H   0  0  0  0  0  0  0  0  0  0  0  0
   40.6170   87.1550   57.2130 H   0  0  0  0  0  0  0  0  0  0  0  0
   42.6500   83.3270   56.0340 C   0  0  0  0  0  0  0  0  0  0  0  0
   42.6220   83.8080   54.7230 C   0  0  0  0  0  0  0  0  0  0  0  0
   42.1920   84.6960   54.2470 H   0  0  0  0  0  0  0  0  0  0  0  0
   43.3130   82.8940   53.9200 C   0  0  0  0  0  0  0  0  0  0  0  0
   43.5160   82.8970   52.8560 H   0  0  0  0  0  0  0  0  0  0  0  0
   43.7200   81.9040   54.8200 C   0  0  0  0  0  0  0  0  0  0  0  0
   44.2820   81.0270   54.5680 H   0  0  0  0  0  0  0  0  0  0  0  0
   43.3160   82.1910   56.0350 O   0  0  0  0  0  0  0  0  0  0  0  0
  1  2  1  0  0  0  0
  2  3  2  0  0  0  0
  2  7  1  0  0  0  0
  3  8  1  0  0  0  0
  4  9  1  0  0  0  0
  4  3  1  0  0  0  0
  5  4  2  0  0  0  0
  6  5  1  0  0  0  0
  6  1  2  0  0  0  0
 10  5  1  0  0  0  0
 11 12  2  0  0  0  0
 11 16  1  0  0  0  0
 12 13  1  0  0  0  0
 13 19  1  0  0  0  0
 13 14  2  0  0  0  0
 15 14  1  0  0  0  0
 15  1  1  0  0  0  0
 16 15  2  0  0  0  0
 17 11  1  0  0  0  0
 18 12  1  0  0  0  0
 20  6  1  0  0  0  0
 21 20  1  0  0  0  0
 21 26  1  0  0  0  0
 22 21  2  0  0  0  0
 23 24  2  0  0  0  0
 23 22  1  0  0  0  0
 24 25  1  0  0  0  0
 25 20  2  0  0  0  0
 27 22  1  0  0  0  0
 28 35  1  0  0  0  0
 28 24  1  0  0  0  0
 29 28  2  0  0  0  0
 30 29  1  0  0  0  0
 31 29  1  0  0  0  0
 31 33  2  0  0  0  0
 32 31  1  0  0  0  0
 33 35  1  0  0  0  0
 34 33  1  0  0  0  0
M  END
>  <minimizedAffinity>
-5.37415504

>  <minimizedRMSD>
0.25573045

$$$$
