
 OpenBabel03212520043D

 40 44  0  0  0  0  0  0  0  0999 V2000
   40.7960   81.8340   57.1390 C   0  0  0  0  0  0  0  0  0  0  0  0
   41.9830   82.2630   56.5220 C   0  0  0  0  0  0  0  0  0  0  0  0
   42.8370   83.0520   57.2640 C   0  0  0  0  0  0  0  0  0  0  0  0
   42.5160   83.3880   58.5550 N   0  0  0  0  0  0  0  0  0  0  0  0
   41.3560   82.9490   59.1160 C   0  0  0  0  0  0  0  0  0  0  0  0
   40.4910   82.1710   58.4080 N   0  0  0  0  0  0  0  0  0  0  0  0
   40.0390   81.2200   56.6850 H   0  0  0  0  0  0  0  0  0  0  0  0
   42.0330   81.8500   55.5440 H   0  0  0  0  0  0  0  0  0  0  0  0
   39.7240   83.0840   60.9320 C   0  0  0  0  0  0  0  0  0  0  0  0
   41.0390   83.2760   60.4990 C   0  0  0  0  0  0  0  0  0  0  0  0
   42.0300   83.7450   61.3640 C   0  0  0  0  0  0  0  0  0  0  0  0
   41.7530   84.0380   62.6790 C   0  0  0  0  0  0  0  0  0  0  0  0
   42.4130   84.4820   63.7560 N   0  0  0  0  0  0  0  0  0  0  0  0
   41.5830   84.5740   64.8260 C   0  0  0  0  0  0  0  0  0  0  0  0
   40.3900   84.1710   64.3660 N   0  0  0  0  0  0  0  0  0  0  0  0
   40.4560   83.8370   63.0670 C   0  0  0  0  0  0  0  0  0  0  0  0
   39.4180   83.3750   62.2660 C   0  0  0  0  0  0  0  0  0  0  0  0
   38.9450   82.7220   60.2780 H   0  0  0  0  0  0  0  0  0  0  0  0
   43.0490   83.8900   61.0120 H   0  0  0  0  0  0  0  0  0  0  0  0
   43.4420   84.7030   63.6780 H   0  0  0  0  0  0  0  0  0  0  0  0
   41.9160   84.9150   65.8000 H   0  0  0  0  0  0  0  0  0  0  0  0
   38.4170   83.2480   62.6640 H   0  0  0  0  0  0  0  0  0  0  0  0
   42.6710   84.1580   54.5150 Cl  0  0  0  0  0  0  0  0  0  0  0  0
   44.1550   84.0590   55.4370 C   0  0  0  0  0  0  0  0  0  0  0  0
   44.0760   83.5340   56.7010 C   0  0  0  0  0  0  0  0  0  0  0  0
   45.2930   83.5060   57.3780 C   0  0  0  0  0  0  0  0  0  0  0  0
   46.4780   83.9570   56.8420 C   0  0  0  0  0  0  0  0  0  0  0  0
   46.4920   84.4700   55.5700 C   0  0  0  0  0  0  0  0  0  0  0  0
   47.9980   85.0340   54.8660 Cl  0  0  0  0  0  0  0  0  0  0  0  0
   45.3090   84.5210   54.8590 C   0  0  0  0  0  0  0  0  0  0  0  0
   45.3260   83.1090   58.3820 H   0  0  0  0  0  0  0  0  0  0  0  0
   47.4020   83.9180   57.4010 H   0  0  0  0  0  0  0  0  0  0  0  0
   45.4260   85.0820   53.5180 C   0  0  0  0  0  0  0  0  0  0  0  0
   45.3220   86.3700   53.0590 C   0  0  0  0  0  0  0  0  0  0  0  0
   45.1260   87.2730   53.5920 H   0  0  0  0  0  0  0  0  0  0  0  0
   45.5040   86.4620   51.7010 C   0  0  0  0  0  0  0  0  0  0  0  0
   45.4910   87.2970   51.0170 H   0  0  0  0  0  0  0  0  0  0  0  0
   45.7250   85.1480   51.3640 C   0  0  0  0  0  0  0  0  0  0  0  0
   45.9230   84.6820   50.4030 H   0  0  0  0  0  0  0  0  0  0  0  0
   45.6700   84.4220   52.4170 O   0  0  0  0  0  0  0  0  0  0  0  0
  1  6  1  0  0  0  0
  2  1  2  0  0  0  0
  2  3  1  0  0  0  0
  3  4  2  0  0  0  0
  4  5  1  0  0  0  0
  5 10  1  0  0  0  0
  6  5  2  0  0  0  0
  7  1  1  0  0  0  0
  8  2  1  0  0  0  0
  9 17  1  0  0  0  0
 10  9  2  0  0  0  0
 10 11  1  0  0  0  0
 11 12  2  0  0  0  0
 12 16  1  0  0  0  0
 12 13  1  0  0  0  0
 13 14  1  0  0  0  0
 14 21  1  0  0  0  0
 15 14  2  0  0  0  0
 16 15  1  0  0  0  0
 17 22  1  0  0  0  0
 17 16  2  0  0  0  0
 18  9  1  0  0  0  0
 19 11  1  0  0  0  0
 20 13  1  0  0  0  0
 23 24  1  0  0  0  0
 24 25  1  0  0  0  0
 25  3  1  0  0  0  0
 25 26  2  0  0  0  0
 26 31  1  0  0  0  0
 27 26  1  0  0  0  0
 27 32  1  0  0  0  0
 28 27  2  0  0  0  0
 29 28  1  0  0  0  0
 30 24  2  0  0  0  0
 30 28  1  0  0  0  0
 33 30  1  0  0  0  0
 34 33  2  0  0  0  0
 34 35  1  0  0  0  0
 36 34  1  0  0  0  0
 37 36  1  0  0  0  0
 38 36  2  0  0  0  0
 38 40  1  0  0  0  0
 39 38  1  0  0  0  0
 40 33  1  0  0  0  0
M  END
>  <minimizedAffinity>
-4.80924559

>  <minimizedRMSD>
0.722665012

$$$$
