
 OpenBabel03212520043D

 40 44  0  0  0  0  0  0  0  0999 V2000
   40.7370   81.7660   57.1210 C   0  0  0  0  0  0  0  0  0  0  0  0
   41.8110   82.3440   56.4230 C   0  0  0  0  0  0  0  0  0  0  0  0
   42.5890   83.2600   57.1000 C   0  0  0  0  0  0  0  0  0  0  0  0
   42.3040   83.5750   58.4050 N   0  0  0  0  0  0  0  0  0  0  0  0
   41.2550   82.9880   59.0450 C   0  0  0  0  0  0  0  0  0  0  0  0
   40.4670   82.0820   58.4030 N   0  0  0  0  0  0  0  0  0  0  0  0
   40.0480   81.0420   56.7240 H   0  0  0  0  0  0  0  0  0  0  0  0
   41.8580   81.9230   55.4500 H   0  0  0  0  0  0  0  0  0  0  0  0
   39.6810   83.0990   60.9130 C   0  0  0  0  0  0  0  0  0  0  0  0
   40.9830   83.2950   60.4420 C   0  0  0  0  0  0  0  0  0  0  0  0
   42.0010   83.7500   61.2820 C   0  0  0  0  0  0  0  0  0  0  0  0
   41.7650   84.0240   62.6090 C   0  0  0  0  0  0  0  0  0  0  0  0
   42.4590   84.4510   63.6720 N   0  0  0  0  0  0  0  0  0  0  0  0
   41.6630   84.5290   64.7680 C   0  0  0  0  0  0  0  0  0  0  0  0
   40.4550   84.1350   64.3400 N   0  0  0  0  0  0  0  0  0  0  0  0
   40.4800   83.8190   63.0340 C   0  0  0  0  0  0  0  0  0  0  0  0
   39.4170   83.3710   62.2600 C   0  0  0  0  0  0  0  0  0  0  0  0
   38.8810   82.7480   60.2770 H   0  0  0  0  0  0  0  0  0  0  0  0
   43.0080   83.8980   60.9010 H   0  0  0  0  0  0  0  0  0  0  0  0
   43.4860   84.6720   63.5650 H   0  0  0  0  0  0  0  0  0  0  0  0
   42.0270   84.8540   65.7360 H   0  0  0  0  0  0  0  0  0  0  0  0
   38.4290   83.2400   62.6870 H   0  0  0  0  0  0  0  0  0  0  0  0
   42.3590   83.6230   54.1640 Cl  0  0  0  0  0  0  0  0  0  0  0  0
   43.7500   84.1230   55.1010 C   0  0  0  0  0  0  0  0  0  0  0  0
   43.7090   83.9010   56.4530 C   0  0  0  0  0  0  0  0  0  0  0  0
   44.8420   84.3420   57.1320 C   0  0  0  0  0  0  0  0  0  0  0  0
   45.9170   84.9450   56.5180 C   0  0  0  0  0  0  0  0  0  0  0  0
   45.8980   85.1370   55.1600 C   0  0  0  0  0  0  0  0  0  0  0  0
   47.2680   85.8910   54.3600 Cl  0  0  0  0  0  0  0  0  0  0  0  0
   44.7950   84.7190   54.4430 C   0  0  0  0  0  0  0  0  0  0  0  0
   44.8980   84.2090   58.2030 H   0  0  0  0  0  0  0  0  0  0  0  0
   46.7790   85.2730   57.0820 H   0  0  0  0  0  0  0  0  0  0  0  0
   44.8690   84.9670   53.0080 C   0  0  0  0  0  0  0  0  0  0  0  0
   44.4320   86.0170   52.2440 C   0  0  0  0  0  0  0  0  0  0  0  0
   43.9260   86.9110   52.5320 H   0  0  0  0  0  0  0  0  0  0  0  0
   44.7070   85.8490   50.9080 C   0  0  0  0  0  0  0  0  0  0  0  0
   44.5140   86.4590   50.0400 H   0  0  0  0  0  0  0  0  0  0  0  0
   45.3400   84.6290   50.9110 C   0  0  0  0  0  0  0  0  0  0  0  0
   45.7600   84.0420   50.1010 H   0  0  0  0  0  0  0  0  0  0  0  0
   45.4040   84.1820   52.1090 O   0  0  0  0  0  0  0  0  0  0  0  0
  1  6  1  0  0  0  0
  2  3  1  0  0  0  0
  2  1  2  0  0  0  0
  3  4  2  0  0  0  0
  4  5  1  0  0  0  0
  5 10  1  0  0  0  0
  6  5  2  0  0  0  0
  7  1  1  0  0  0  0
  8  2  1  0  0  0  0
  9 17  1  0  0  0  0
 10  9  2  0  0  0  0
 10 11  1  0  0  0  0
 11 12  2  0  0  0  0
 12 16  1  0  0  0  0
 12 13  1  0  0  0  0
 13 14  1  0  0  0  0
 14 21  1  0  0  0  0
 15 14  2  0  0  0  0
 16 15  1  0  0  0  0
 17 22  1  0  0  0  0
 17 16  2  0  0  0  0
 18  9  1  0  0  0  0
 19 11  1  0  0  0  0
 20 13  1  0  0  0  0
 23 24  1  0  0  0  0
 24 25  1  0  0  0  0
 25  3  1  0  0  0  0
 25 26  2  0  0  0  0
 26 31  1  0  0  0  0
 27 32  1  0  0  0  0
 27 26  1  0  0  0  0
 28 27  2  0  0  0  0
 29 28  1  0  0  0  0
 30 24  2  0  0  0  0
 30 28  1  0  0  0  0
 33 30  1  0  0  0  0
 34 35  1  0  0  0  0
 34 33  2  0  0  0  0
 36 38  2  0  0  0  0
 36 34  1  0  0  0  0
 37 36  1  0  0  0  0
 38 40  1  0  0  0  0
 39 38  1  0  0  0  0
 40 33  1  0  0  0  0
M  END
>  <minimizedAffinity>
-5.02720785

>  <minimizedRMSD>
0.194570482

$$$$
