
 OpenBabel03212521073D

 35 38  0  0  0  0  0  0  0  0999 V2000
   41.8120   84.2420   61.5630 C   0  0  0  0  0  0  0  0  0  0  0  0
   41.4620   83.9540   62.8770 C   0  0  0  0  0  0  0  0  0  0  0  0
   40.1910   83.5330   63.2230 C   0  0  0  0  0  0  0  0  0  0  0  0
   39.2360   83.3920   62.2260 C   0  0  0  0  0  0  0  0  0  0  0  0
   39.5720   83.6770   60.9000 C   0  0  0  0  0  0  0  0  0  0  0  0
   40.8460   84.0980   60.5700 C   0  0  0  0  0  0  0  0  0  0  0  0
   42.1630   84.0440   63.7080 H   0  0  0  0  0  0  0  0  0  0  0  0
   39.8820   83.3010   64.2310 H   0  0  0  0  0  0  0  0  0  0  0  0
   38.2010   83.0690   62.3690 H   0  0  0  0  0  0  0  0  0  0  0  0
   38.8360   83.5730   60.1060 H   0  0  0  0  0  0  0  0  0  0  0  0
   45.3170   84.1590   60.5600 C   0  0  0  0  0  0  0  0  0  0  0  0
   45.7180   85.4760   60.6810 C   0  0  0  0  0  0  0  0  0  0  0  0
   44.7590   86.4210   61.1170 C   0  0  0  0  0  0  0  0  0  0  0  0
   43.5070   85.9770   61.3920 N   0  0  0  0  0  0  0  0  0  0  0  0
   43.1500   84.6770   61.2630 C   0  0  0  0  0  0  0  0  0  0  0  0
   44.0600   83.7870   60.8490 N   0  0  0  0  0  0  0  0  0  0  0  0
   46.0920   83.4850   60.2230 H   0  0  0  0  0  0  0  0  0  0  0  0
   46.6640   85.9240   60.4930 H   0  0  0  0  0  0  0  0  0  0  0  0
   44.8760   87.4840   61.2730 H   0  0  0  0  0  0  0  0  0  0  0  0
   41.1540   84.3830   59.1900 C   0  0  0  0  0  0  0  0  0  0  0  0
   40.8390   85.7070   58.8550 C   0  0  0  0  0  0  0  0  0  0  0  0
   41.0610   86.1850   57.5670 C   0  0  0  0  0  0  0  0  0  0  0  0
   41.5810   85.3330   56.6710 N   0  0  0  0  0  0  0  0  0  0  0  0
   41.8810   84.0520   57.0070 C   0  0  0  0  0  0  0  0  0  0  0  0
   41.6720   83.5770   58.2500 N   0  0  0  0  0  0  0  0  0  0  0  0
   40.4120   86.4600   59.5300 H   0  0  0  0  0  0  0  0  0  0  0  0
   40.8430   87.1790   57.2510 H   0  0  0  0  0  0  0  0  0  0  0  0
   42.4440   83.1740   55.9930 C   0  0  0  0  0  0  0  0  0  0  0  0
   43.8370   83.0820   55.9740 C   0  0  0  0  0  0  0  0  0  0  0  0
   44.6380   83.5330   56.5690 H   0  0  0  0  0  0  0  0  0  0  0  0
   44.1910   82.2020   54.9440 C   0  0  0  0  0  0  0  0  0  0  0  0
   45.1600   81.8630   54.6030 H   0  0  0  0  0  0  0  0  0  0  0  0
   42.9600   81.8170   54.4020 C   0  0  0  0  0  0  0  0  0  0  0  0
   42.8260   81.1390   53.5800 H   0  0  0  0  0  0  0  0  0  0  0  0
   41.9720   82.4020   55.0360 O   0  0  0  0  0  0  0  0  0  0  0  0
  1  2  1  0  0  0  0
  2  3  2  0  0  0  0
  2  7  1  0  0  0  0
  3  8  1  0  0  0  0
  4  9  1  0  0  0  0
  4  3  1  0  0  0  0
  5  4  2  0  0  0  0
  6  5  1  0  0  0  0
  6  1  2  0  0  0  0
 10  5  1  0  0  0  0
 11 12  2  0  0  0  0
 11 16  1  0  0  0  0
 12 13  1  0  0  0  0
 13 19  1  0  0  0  0
 13 14  2  0  0  0  0
 15 14  1  0  0  0  0
 15  1  1  0  0  0  0
 16 15  2  0  0  0  0
 17 11  1  0  0  0  0
 18 12  1  0  0  0  0
 20  6  1  0  0  0  0
 21 20  1  0  0  0  0
 21 26  1  0  0  0  0
 22 21  2  0  0  0  0
 23 24  2  0  0  0  0
 23 22  1  0  0  0  0
 24 25  1  0  0  0  0
 25 20  2  0  0  0  0
 27 22  1  0  0  0  0
 28 24  1  0  0  0  0
 29 28  2  0  0  0  0
 29 30  1  0  0  0  0
 31 29  1  0  0  0  0
 32 31  1  0  0  0  0
 33 31  2  0  0  0  0
 33 35  1  0  0  0  0
 34 33  1  0  0  0  0
 35 28  1  0  0  0  0
M  END
>  <minimizedAffinity>
-5.32877493

>  <minimizedRMSD>
0.34293282

$$$$
