
 OpenBabel03212520053D

 40 44  0  0  0  0  0  0  0  0999 V2000
   40.7890   81.6850   57.2790 C   0  0  0  0  0  0  0  0  0  0  0  0
   41.9550   82.1370   56.6380 C   0  0  0  0  0  0  0  0  0  0  0  0
   42.7880   82.9760   57.3490 C   0  0  0  0  0  0  0  0  0  0  0  0
   42.4680   83.3370   58.6330 N   0  0  0  0  0  0  0  0  0  0  0  0
   41.3290   82.8740   59.2180 C   0  0  0  0  0  0  0  0  0  0  0  0
   40.4850   82.0470   58.5410 N   0  0  0  0  0  0  0  0  0  0  0  0
   40.0500   81.0330   56.8500 H   0  0  0  0  0  0  0  0  0  0  0  0
   42.0110   81.6990   55.6720 H   0  0  0  0  0  0  0  0  0  0  0  0
   39.6950   83.0650   61.0280 C   0  0  0  0  0  0  0  0  0  0  0  0
   41.0140   83.2290   60.5950 C   0  0  0  0  0  0  0  0  0  0  0  0
   42.0110   83.6970   61.4550 C   0  0  0  0  0  0  0  0  0  0  0  0
   41.7350   84.0160   62.7630 C   0  0  0  0  0  0  0  0  0  0  0  0
   42.3990   84.4670   63.8360 N   0  0  0  0  0  0  0  0  0  0  0  0
   41.5680   84.5900   64.9010 C   0  0  0  0  0  0  0  0  0  0  0  0
   40.3700   84.1990   64.4450 N   0  0  0  0  0  0  0  0  0  0  0  0
   40.4340   83.8420   63.1510 C   0  0  0  0  0  0  0  0  0  0  0  0
   39.3910   83.3830   62.3560 C   0  0  0  0  0  0  0  0  0  0  0  0
   38.9110   82.7060   60.3770 H   0  0  0  0  0  0  0  0  0  0  0  0
   43.0320   83.8190   61.1030 H   0  0  0  0  0  0  0  0  0  0  0  0
   43.4320   84.6700   63.7560 H   0  0  0  0  0  0  0  0  0  0  0  0
   41.9040   84.9410   65.8700 H   0  0  0  0  0  0  0  0  0  0  0  0
   38.3870   83.2790   62.7530 H   0  0  0  0  0  0  0  0  0  0  0  0
   42.5010   84.2790   54.6980 Cl  0  0  0  0  0  0  0  0  0  0  0  0
   44.0270   84.0980   55.5340 C   0  0  0  0  0  0  0  0  0  0  0  0
   44.0040   83.4850   56.7600 C   0  0  0  0  0  0  0  0  0  0  0  0
   45.2530   83.3950   57.3700 C   0  0  0  0  0  0  0  0  0  0  0  0
   46.4160   83.8710   56.8080 C   0  0  0  0  0  0  0  0  0  0  0  0
   46.3730   84.4740   55.5770 C   0  0  0  0  0  0  0  0  0  0  0  0
   47.8510   85.0720   54.8400 Cl  0  0  0  0  0  0  0  0  0  0  0  0
   45.1580   84.5890   54.9330 C   0  0  0  0  0  0  0  0  0  0  0  0
   45.3300   82.9260   58.3410 H   0  0  0  0  0  0  0  0  0  0  0  0
   47.3660   83.7810   57.3160 H   0  0  0  0  0  0  0  0  0  0  0  0
   45.2160   85.2430   53.6310 C   0  0  0  0  0  0  0  0  0  0  0  0
   45.3450   84.7360   52.3640 C   0  0  0  0  0  0  0  0  0  0  0  0
   45.4350   83.7240   52.0370 H   0  0  0  0  0  0  0  0  0  0  0  0
   45.3570   85.7160   51.4010 C   0  0  0  0  0  0  0  0  0  0  0  0
   45.4410   85.6850   50.3270 H   0  0  0  0  0  0  0  0  0  0  0  0
   45.2270   86.8510   52.1650 C   0  0  0  0  0  0  0  0  0  0  0  0
   45.1820   87.8990   51.8850 H   0  0  0  0  0  0  0  0  0  0  0  0
   45.1530   86.5300   53.4020 O   0  0  0  0  0  0  0  0  0  0  0  0
  1  6  1  0  0  0  0
  2  1  2  0  0  0  0
  2  3  1  0  0  0  0
  3  4  2  0  0  0  0
  4  5  1  0  0  0  0
  5 10  1  0  0  0  0
  6  5  2  0  0  0  0
  7  1  1  0  0  0  0
  8  2  1  0  0  0  0
  9 17  1  0  0  0  0
 10  9  2  0  0  0  0
 10 11  1  0  0  0  0
 11 12  2  0  0  0  0
 12 16  1  0  0  0  0
 12 13  1  0  0  0  0
 13 14  1  0  0  0  0
 14 21  1  0  0  0  0
 15 14  2  0  0  0  0
 16 15  1  0  0  0  0
 17 22  1  0  0  0  0
 17 16  2  0  0  0  0
 18  9  1  0  0  0  0
 19 11  1  0  0  0  0
 20 13  1  0  0  0  0
 23 24  1  0  0  0  0
 24 25  1  0  0  0  0
 25  3  1  0  0  0  0
 25 26  2  0  0  0  0
 26 31  1  0  0  0  0
 27 32  1  0  0  0  0
 27 26  1  0  0  0  0
 28 27  2  0  0  0  0
 29 28  1  0  0  0  0
 30 24  2  0  0  0  0
 30 28  1  0  0  0  0
 33 30  1  0  0  0  0
 34 33  2  0  0  0  0
 35 34  1  0  0  0  0
 36 38  2  0  0  0  0
 36 34  1  0  0  0  0
 37 36  1  0  0  0  0
 38 40  1  0  0  0  0
 39 38  1  0  0  0  0
 40 33  1  0  0  0  0
M  END
>  <minimizedAffinity>
-5.01925898

>  <minimizedRMSD>
0.745020449

$$$$
