
 OpenBabel03212521083D

 35 38  0  0  0  0  0  0  0  0999 V2000
   40.1370   75.0830   58.1730 C   0  0  0  0  0  0  0  0  0  0  0  0
   39.1880   75.9870   57.7090 C   0  0  0  0  0  0  0  0  0  0  0  0
   39.0550   77.2540   58.2470 C   0  0  0  0  0  0  0  0  0  0  0  0
   39.8980   77.6350   59.2820 C   0  0  0  0  0  0  0  0  0  0  0  0
   40.8580   76.7390   59.7580 C   0  0  0  0  0  0  0  0  0  0  0  0
   40.9780   75.4760   59.2110 C   0  0  0  0  0  0  0  0  0  0  0  0
   38.4950   75.7520   56.9000 H   0  0  0  0  0  0  0  0  0  0  0  0
   38.3310   77.9820   57.9150 H   0  0  0  0  0  0  0  0  0  0  0  0
   39.8940   78.6030   59.7900 H   0  0  0  0  0  0  0  0  0  0  0  0
   41.5270   77.0200   60.5700 H   0  0  0  0  0  0  0  0  0  0  0  0
   39.4580   71.5770   57.4380 C   0  0  0  0  0  0  0  0  0  0  0  0
   40.3740   71.2710   56.4480 C   0  0  0  0  0  0  0  0  0  0  0  0
   41.2500   72.2980   56.0200 C   0  0  0  0  0  0  0  0  0  0  0  0
   41.1380   73.5160   56.6060 N   0  0  0  0  0  0  0  0  0  0  0  0
   40.2280   73.7790   57.5740 C   0  0  0  0  0  0  0  0  0  0  0  0
   39.4020   72.8050   57.9760 N   0  0  0  0  0  0  0  0  0  0  0  0
   38.8170   70.7540   57.7220 H   0  0  0  0  0  0  0  0  0  0  0  0
   40.5420   70.3590   55.9290 H   0  0  0  0  0  0  0  0  0  0  0  0
   42.0250   72.2580   55.2680 H   0  0  0  0  0  0  0  0  0  0  0  0
   41.9810   74.5790   59.7320 C   0  0  0  0  0  0  0  0  0  0  0  0
   43.2720   74.9840   59.3670 C   0  0  0  0  0  0  0  0  0  0  0  0
   44.3850   74.2530   59.7700 C   0  0  0  0  0  0  0  0  0  0  0  0
   44.1710   73.1560   60.5130 N   0  0  0  0  0  0  0  0  0  0  0  0
   42.9140   72.7730   60.8590 C   0  0  0  0  0  0  0  0  0  0  0  0
   41.8290   73.4720   60.4760 N   0  0  0  0  0  0  0  0  0  0  0  0
   43.5260   75.8650   58.7640 H   0  0  0  0  0  0  0  0  0  0  0  0
   45.3900   74.5080   59.5260 H   0  0  0  0  0  0  0  0  0  0  0  0
   42.7440   71.5750   61.6650 C   0  0  0  0  0  0  0  0  0  0  0  0
   41.7870   71.6570   62.6810 C   0  0  0  0  0  0  0  0  0  0  0  0
   41.1080   72.4440   63.0250 H   0  0  0  0  0  0  0  0  0  0  0  0
   41.7630   70.4240   63.3430 C   0  0  0  0  0  0  0  0  0  0  0  0
   41.1690   70.0790   64.1780 H   0  0  0  0  0  0  0  0  0  0  0  0
   42.7280   69.6680   62.6670 C   0  0  0  0  0  0  0  0  0  0  0  0
   42.9960   68.6540   62.8940 H   0  0  0  0  0  0  0  0  0  0  0  0
   43.2730   70.3700   61.7030 O   0  0  0  0  0  0  0  0  0  0  0  0
  1  6  1  0  0  0  0
  2  1  2  0  0  0  0
  2  3  1  0  0  0  0
  3  4  2  0  0  0  0
  4  5  1  0  0  0  0
  4  9  1  0  0  0  0
  5 10  1  0  0  0  0
  6 20  1  0  0  0  0
  6  5  2  0  0  0  0
  7  2  1  0  0  0  0
  8  3  1  0  0  0  0
 11 17  1  0  0  0  0
 11 16  1  0  0  0  0
 12 11  2  0  0  0  0
 13 12  1  0  0  0  0
 13 14  2  0  0  0  0
 14 15  1  0  0  0  0
 15 16  2  0  0  0  0
 15  1  1  0  0  0  0
 18 12  1  0  0  0  0
 19 13  1  0  0  0  0
 20 25  1  0  0  0  0
 21 20  2  0  0  0  0
 21 22  1  0  0  0  0
 22 23  2  0  0  0  0
 23 24  1  0  0  0  0
 24 28  1  0  0  0  0
 25 24  2  0  0  0  0
 26 21  1  0  0  0  0
 27 22  1  0  0  0  0
 28 35  1  0  0  0  0
 28 29  2  0  0  0  0
 29 30  1  0  0  0  0
 29 31  1  0  0  0  0
 31 32  1  0  0  0  0
 33 34  1  0  0  0  0
 33 31  2  0  0  0  0
 35 33  1  0  0  0  0
M  END
>  <minimizedAffinity>
-5.80090809

$$$$

 OpenBabel03212521083D

 35 38  0  0  0  0  0  0  0  0999 V2000
   41.1650   74.5530   59.9240 C   0  0  0  0  0  0  0  0  0  0  0  0
   40.6270   75.8120   60.1650 C   0  0  0  0  0  0  0  0  0  0  0  0
   39.4160   75.9820   60.8120 C   0  0  0  0  0  0  0  0  0  0  0  0
   38.7180   74.8590   61.2340 C   0  0  0  0  0  0  0  0  0  0  0  0
   39.2460   73.5870   61.0000 C   0  0  0  0  0  0  0  0  0  0  0  0
   40.4560   73.4330   60.3520 C   0  0  0  0  0  0  0  0  0  0  0  0
   41.1220   76.7340   59.8610 H   0  0  0  0  0  0  0  0  0  0  0  0
   38.9660   76.9410   61.0160 H   0  0  0  0  0  0  0  0  0  0  0  0
   37.7550   74.8590   61.7530 H   0  0  0  0  0  0  0  0  0  0  0  0
   38.7120   72.6950   61.3230 H   0  0  0  0  0  0  0  0  0  0  0  0
   43.6450   74.4740   57.2520 C   0  0  0  0  0  0  0  0  0  0  0  0
   44.8310   74.2280   57.9200 C   0  0  0  0  0  0  0  0  0  0  0  0
   44.7780   74.0860   59.3270 C   0  0  0  0  0  0  0  0  0  0  0  0
   43.5710   74.1980   59.9340 N   0  0  0  0  0  0  0  0  0  0  0  0
   42.4290   74.4390   59.2470 C   0  0  0  0  0  0  0  0  0  0  0  0
   42.4830   74.5730   57.9160 N   0  0  0  0  0  0  0  0  0  0  0  0
   43.7480   74.5730   56.1810 H   0  0  0  0  0  0  0  0  0  0  0  0
   45.8190   74.1230   57.5430 H   0  0  0  0  0  0  0  0  0  0  0  0
   45.5850   73.8930   60.0190 H   0  0  0  0  0  0  0  0  0  0  0  0
   40.9680   72.1030   60.1290 C   0  0  0  0  0  0  0  0  0  0  0  0
   40.6400   71.6340   58.8490 C   0  0  0  0  0  0  0  0  0  0  0  0
   41.0410   70.3680   58.4330 C   0  0  0  0  0  0  0  0  0  0  0  0
   41.7450   69.6250   59.3010 N   0  0  0  0  0  0  0  0  0  0  0  0
   42.0560   70.0900   60.5390 C   0  0  0  0  0  0  0  0  0  0  0  0
   41.6740   71.3140   60.9530 N   0  0  0  0  0  0  0  0  0  0  0  0
   40.0700   72.1810   58.0870 H   0  0  0  0  0  0  0  0  0  0  0  0
   40.8240   69.9550   57.4760 H   0  0  0  0  0  0  0  0  0  0  0  0
   42.8220   69.2400   61.4360 C   0  0  0  0  0  0  0  0  0  0  0  0
   42.8120   69.6110   62.7830 C   0  0  0  0  0  0  0  0  0  0  0  0
   42.3420   70.4260   63.3440 H   0  0  0  0  0  0  0  0  0  0  0  0
   43.5930   68.6870   63.4850 C   0  0  0  0  0  0  0  0  0  0  0  0
   43.8370   68.6190   64.5360 H   0  0  0  0  0  0  0  0  0  0  0  0
   44.0300   67.8030   62.4920 C   0  0  0  0  0  0  0  0  0  0  0  0
   44.6600   66.9490   62.6510 H   0  0  0  0  0  0  0  0  0  0  0  0
   43.5620   68.1570   61.3190 O   0  0  0  0  0  0  0  0  0  0  0  0
  1  2  2  0  0  0  0
  1  6  1  0  0  0  0
  2  3  1  0  0  0  0
  3  8  1  0  0  0  0
  3  4  2  0  0  0  0
  4  9  1  0  0  0  0
  5  4  1  0  0  0  0
  5 10  1  0  0  0  0
  6  5  2  0  0  0  0
  7  2  1  0  0  0  0
 11 16  2  0  0  0  0
 11 12  1  0  0  0  0
 12 13  2  0  0  0  0
 13 14  1  0  0  0  0
 13 19  1  0  0  0  0
 15  1  1  0  0  0  0
 15 14  2  0  0  0  0
 16 15  1  0  0  0  0
 17 11  1  0  0  0  0
 18 12  1  0  0  0  0
 20  6  1  0  0  0  0
 20 25  1  0  0  0  0
 21 20  2  0  0  0  0
 22 21  1  0  0  0  0
 22 23  2  0  0  0  0
 23 24  1  0  0  0  0
 24 25  2  0  0  0  0
 24 28  1  0  0  0  0
 26 21  1  0  0  0  0
 27 22  1  0  0  0  0
 28 29  2  0  0  0  0
 29 30  1  0  0  0  0
 29 31  1  0  0  0  0
 31 32  1  0  0  0  0
 33 34  1  0  0  0  0
 33 31  2  0  0  0  0
 35 28  1  0  0  0  0
 35 33  1  0  0  0  0
M  END
>  <minimizedAffinity>
-5.69055986

$$$$

 OpenBabel03212521083D

 35 38  0  0  0  0  0  0  0  0999 V2000
   42.2450   72.7130   60.2670 C   0  0  0  0  0  0  0  0  0  0  0  0
   42.9140   71.6860   60.9230 C   0  0  0  0  0  0  0  0  0  0  0  0
   42.4450   71.1400   62.1050 C   0  0  0  0  0  0  0  0  0  0  0  0
   41.2690   71.6330   62.6510 C   0  0  0  0  0  0  0  0  0  0  0  0
   40.5840   72.6650   62.0030 C   0  0  0  0  0  0  0  0  0  0  0  0
   41.0660   73.2010   60.8240 C   0  0  0  0  0  0  0  0  0  0  0  0
   43.8420   71.2520   60.5490 H   0  0  0  0  0  0  0  0  0  0  0  0
   42.9360   70.3430   62.6420 H   0  0  0  0  0  0  0  0  0  0  0  0
   40.7960   71.2890   63.5750 H   0  0  0  0  0  0  0  0  0  0  0  0
   39.6610   73.0650   62.4180 H   0  0  0  0  0  0  0  0  0  0  0  0
   44.1380   74.8020   57.9540 C   0  0  0  0  0  0  0  0  0  0  0  0
   43.8270   74.2740   56.7150 C   0  0  0  0  0  0  0  0  0  0  0  0
   42.9420   73.1690   56.6710 C   0  0  0  0  0  0  0  0  0  0  0  0
   42.4540   72.6980   57.8450 N   0  0  0  0  0  0  0  0  0  0  0  0
   42.7810   73.2410   59.0420 C   0  0  0  0  0  0  0  0  0  0  0  0
   43.6180   74.2850   59.0790 N   0  0  0  0  0  0  0  0  0  0  0  0
   44.8170   75.6420   57.9240 H   0  0  0  0  0  0  0  0  0  0  0  0
   44.1510   74.5660   55.7450 H   0  0  0  0  0  0  0  0  0  0  0  0
   42.5820   72.6240   55.8110 H   0  0  0  0  0  0  0  0  0  0  0  0
   40.3300   74.2650   60.1870 C   0  0  0  0  0  0  0  0  0  0  0  0
   40.5830   75.5030   60.7960 C   0  0  0  0  0  0  0  0  0  0  0  0
   39.9700   76.6610   60.3300 C   0  0  0  0  0  0  0  0  0  0  0  0
   39.1360   76.5440   59.2860 N   0  0  0  0  0  0  0  0  0  0  0  0
   38.8980   75.3400   58.7050 C   0  0  0  0  0  0  0  0  0  0  0  0
   39.4850   74.2110   59.1460 N   0  0  0  0  0  0  0  0  0  0  0  0
   41.2500   75.6770   61.6500 H   0  0  0  0  0  0  0  0  0  0  0  0
   40.1210   77.6290   60.7490 H   0  0  0  0  0  0  0  0  0  0  0  0
   37.9840   75.2740   57.5760 C   0  0  0  0  0  0  0  0  0  0  0  0
   37.8320   76.4570   56.8460 C   0  0  0  0  0  0  0  0  0  0  0  0
   38.2590   77.4620   56.9290 H   0  0  0  0  0  0  0  0  0  0  0  0
   36.9250   76.2050   55.8100 C   0  0  0  0  0  0  0  0  0  0  0  0
   36.5420   76.8500   55.0310 H   0  0  0  0  0  0  0  0  0  0  0  0
   36.5850   74.8590   55.9910 C   0  0  0  0  0  0  0  0  0  0  0  0
   35.9020   74.3020   55.3790 H   0  0  0  0  0  0  0  0  0  0  0  0
   37.2180   74.3560   57.0230 O   0  0  0  0  0  0  0  0  0  0  0  0
  1  6  2  0  0  0  0
  1  2  1  0  0  0  0
  2  3  2  0  0  0  0
  3  8  1  0  0  0  0
  3  4  1  0  0  0  0
  4  9  1  0  0  0  0
  5 10  1  0  0  0  0
  5  4  2  0  0  0  0
  6  5  1  0  0  0  0
  7  2  1  0  0  0  0
 11 16  1  0  0  0  0
 12 11  2  0  0  0  0
 13 12  1  0  0  0  0
 13 14  2  0  0  0  0
 14 15  1  0  0  0  0
 15 16  2  0  0  0  0
 15  1  1  0  0  0  0
 17 11  1  0  0  0  0
 18 12  1  0  0  0  0
 19 13  1  0  0  0  0
 20 21  1  0  0  0  0
 20  6  1  0  0  0  0
 21 26  1  0  0  0  0
 22 27  1  0  0  0  0
 22 21  2  0  0  0  0
 23 22  1  0  0  0  0
 24 25  1  0  0  0  0
 24 23  2  0  0  0  0
 25 20  2  0  0  0  0
 28 24  1  0  0  0  0
 29 30  1  0  0  0  0
 29 28  2  0  0  0  0
 31 33  2  0  0  0  0
 31 29  1  0  0  0  0
 32 31  1  0  0  0  0
 33 35  1  0  0  0  0
 34 33  1  0  0  0  0
 35 28  1  0  0  0  0
M  END
>  <minimizedAffinity>
-5.57414055

$$$$

 OpenBabel03212521083D

 35 38  0  0  0  0  0  0  0  0999 V2000
   40.3650   74.9340   57.6610 C   0  0  0  0  0  0  0  0  0  0  0  0
   39.6160   75.3240   56.5560 C   0  0  0  0  0  0  0  0  0  0  0  0
   40.0400   75.0880   55.2610 C   0  0  0  0  0  0  0  0  0  0  0  0
   41.2510   74.4400   55.0590 C   0  0  0  0  0  0  0  0  0  0  0  0
   42.0150   74.0420   56.1590 C   0  0  0  0  0  0  0  0  0  0  0  0
   41.5790   74.2860   57.4470 C   0  0  0  0  0  0  0  0  0  0  0  0
   38.6580   75.8360   56.6440 H   0  0  0  0  0  0  0  0  0  0  0  0
   39.4870   75.3750   54.3800 H   0  0  0  0  0  0  0  0  0  0  0  0
   41.6950   74.1960   54.0900 H   0  0  0  0  0  0  0  0  0  0  0  0
   42.9670   73.5340   56.0190 H   0  0  0  0  0  0  0  0  0  0  0  0
   39.7810   76.6300   60.8360 C   0  0  0  0  0  0  0  0  0  0  0  0
   38.9480   75.7610   61.5170 C   0  0  0  0  0  0  0  0  0  0  0  0
   38.5760   74.5600   60.8680 C   0  0  0  0  0  0  0  0  0  0  0  0
   39.0580   74.3330   59.6220 N   0  0  0  0  0  0  0  0  0  0  0  0
   39.8730   75.2070   58.9840 C   0  0  0  0  0  0  0  0  0  0  0  0
   40.2230   76.3430   59.6010 N   0  0  0  0  0  0  0  0  0  0  0  0
   40.0300   77.5300   61.3810 H   0  0  0  0  0  0  0  0  0  0  0  0
   38.5190   75.8430   62.4860 H   0  0  0  0  0  0  0  0  0  0  0  0
   37.9420   73.7630   61.2300 H   0  0  0  0  0  0  0  0  0  0  0  0
   42.3970   73.8590   58.5560 C   0  0  0  0  0  0  0  0  0  0  0  0
   43.5220   74.6810   58.7110 C   0  0  0  0  0  0  0  0  0  0  0  0
   44.4410   74.4390   59.7270 C   0  0  0  0  0  0  0  0  0  0  0  0
   44.2080   73.3980   60.5410 N   0  0  0  0  0  0  0  0  0  0  0  0
   43.1140   72.6080   60.3790 C   0  0  0  0  0  0  0  0  0  0  0  0
   42.2170   72.8320   59.4000 N   0  0  0  0  0  0  0  0  0  0  0  0
   43.7800   75.5470   58.0890 H   0  0  0  0  0  0  0  0  0  0  0  0
   45.3140   75.0260   59.8970 H   0  0  0  0  0  0  0  0  0  0  0  0
   42.9130   71.4940   61.2910 C   0  0  0  0  0  0  0  0  0  0  0  0
   42.1320   71.7630   62.4180 C   0  0  0  0  0  0  0  0  0  0  0  0
   41.6130   72.6540   62.7890 H   0  0  0  0  0  0  0  0  0  0  0  0
   42.0490   70.5860   63.1700 C   0  0  0  0  0  0  0  0  0  0  0  0
   41.5430   70.3750   64.1020 H   0  0  0  0  0  0  0  0  0  0  0  0
   42.8030   69.6680   62.4300 C   0  0  0  0  0  0  0  0  0  0  0  0
   42.9710   68.6430   62.6960 H   0  0  0  0  0  0  0  0  0  0  0  0
   43.2860   70.2330   61.3490 O   0  0  0  0  0  0  0  0  0  0  0  0
  1 15  1  0  0  0  0
  2  7  1  0  0  0  0
  2  1  2  0  0  0  0
  3  2  1  0  0  0  0
  4  3  2  0  0  0  0
  4  5  1  0  0  0  0
  5  6  2  0  0  0  0
  6  1  1  0  0  0  0
  6 20  1  0  0  0  0
  8  3  1  0  0  0  0
  9  4  1  0  0  0  0
 10  5  1  0  0  0  0
 11 17  1  0  0  0  0
 11 12  1  0  0  0  0
 12 18  1  0  0  0  0
 13 19  1  0  0  0  0
 13 12  2  0  0  0  0
 14 13  1  0  0  0  0
 15 16  1  0  0  0  0
 15 14  2  0  0  0  0
 16 11  2  0  0  0  0
 20 21  2  0  0  0  0
 20 25  1  0  0  0  0
 21 22  1  0  0  0  0
 22 27  1  0  0  0  0
 22 23  2  0  0  0  0
 24 23  1  0  0  0  0
 24 28  1  0  0  0  0
 25 24  2  0  0  0  0
 26 21  1  0  0  0  0
 28 35  1  0  0  0  0
 28 29  2  0  0  0  0
 29 30  1  0  0  0  0
 29 31  1  0  0  0  0
 31 32  1  0  0  0  0
 33 34  1  0  0  0  0
 33 31  2  0  0  0  0
 35 33  1  0  0  0  0
M  END
>  <minimizedAffinity>
-5.57168007

$$$$

 OpenBabel03212521083D

 35 38  0  0  0  0  0  0  0  0999 V2000
   41.5370   74.9810   59.7530 C   0  0  0  0  0  0  0  0  0  0  0  0
   41.0600   76.2720   59.5570 C   0  0  0  0  0  0  0  0  0  0  0  0
   39.9170   76.7350   60.1820 C   0  0  0  0  0  0  0  0  0  0  0  0
   39.2250   75.8840   61.0330 C   0  0  0  0  0  0  0  0  0  0  0  0
   39.6920   74.5830   61.2400 C   0  0  0  0  0  0  0  0  0  0  0  0
   40.8360   74.1340   60.6080 C   0  0  0  0  0  0  0  0  0  0  0  0
   41.5550   76.9910   58.9040 H   0  0  0  0  0  0  0  0  0  0  0  0
   39.5160   77.7290   60.0560 H   0  0  0  0  0  0  0  0  0  0  0  0
   38.3130   76.1280   61.5840 H   0  0  0  0  0  0  0  0  0  0  0  0
   39.1620   73.9020   61.9030 H   0  0  0  0  0  0  0  0  0  0  0  0
   43.7800   73.8520   57.1080 C   0  0  0  0  0  0  0  0  0  0  0  0
   45.0000   73.7380   57.7470 C   0  0  0  0  0  0  0  0  0  0  0  0
   45.0560   74.0580   59.1250 C   0  0  0  0  0  0  0  0  0  0  0  0
   43.9120   74.4550   59.7340 N   0  0  0  0  0  0  0  0  0  0  0  0
   42.7320   74.5550   59.0750 C   0  0  0  0  0  0  0  0  0  0  0  0
   42.6840   74.2510   57.7720 N   0  0  0  0  0  0  0  0  0  0  0  0
   43.8000   73.5950   56.0590 H   0  0  0  0  0  0  0  0  0  0  0  0
   45.9470   73.4390   57.3670 H   0  0  0  0  0  0  0  0  0  0  0  0
   45.9060   74.0330   59.7930 H   0  0  0  0  0  0  0  0  0  0  0  0
   41.2850   72.7850   60.8470 C   0  0  0  0  0  0  0  0  0  0  0  0
   41.8000   72.6360   62.1430 C   0  0  0  0  0  0  0  0  0  0  0  0
   42.2870   71.4070   62.5750 C   0  0  0  0  0  0  0  0  0  0  0  0
   42.2440   70.3830   61.7090 N   0  0  0  0  0  0  0  0  0  0  0  0
   41.7440   70.5400   60.4560 C   0  0  0  0  0  0  0  0  0  0  0  0
   41.2690   71.7240   60.0250 N   0  0  0  0  0  0  0  0  0  0  0  0
   41.8680   73.4230   62.9050 H   0  0  0  0  0  0  0  0  0  0  0  0
   42.6900   71.2300   63.5450 H   0  0  0  0  0  0  0  0  0  0  0  0
   41.7230   69.3940   59.5610 C   0  0  0  0  0  0  0  0  0  0  0  0
   41.6710   68.1420   60.1780 C   0  0  0  0  0  0  0  0  0  0  0  0
   41.6410   67.8070   61.2200 H   0  0  0  0  0  0  0  0  0  0  0  0
   41.6580   67.1710   59.1690 C   0  0  0  0  0  0  0  0  0  0  0  0
   41.6220   66.0910   59.2250 H   0  0  0  0  0  0  0  0  0  0  0  0
   41.7040   67.9210   57.9890 C   0  0  0  0  0  0  0  0  0  0  0  0
   41.7080   67.5180   56.9950 H   0  0  0  0  0  0  0  0  0  0  0  0
   41.7400   69.2040   58.2580 O   0  0  0  0  0  0  0  0  0  0  0  0
  1  6  1  0  0  0  0
  2  1  2  0  0  0  0
  2  3  1  0  0  0  0
  3  4  2  0  0  0  0
  4  5  1  0  0  0  0
  4  9  1  0  0  0  0
  5 10  1  0  0  0  0
  6 20  1  0  0  0  0
  6  5  2  0  0  0  0
  7  2  1  0  0  0  0
  8  3  1  0  0  0  0
 11 12  2  0  0  0  0
 11 16  1  0  0  0  0
 12 13  1  0  0  0  0
 13 14  2  0  0  0  0
 13 19  1  0  0  0  0
 15 14  1  0  0  0  0
 15  1  1  0  0  0  0
 16 15  2  0  0  0  0
 17 11  1  0  0  0  0
 18 12  1  0  0  0  0
 20 21  1  0  0  0  0
 21 22  2  0  0  0  0
 21 26  1  0  0  0  0
 22 27  1  0  0  0  0
 23 22  1  0  0  0  0
 24 23  2  0  0  0  0
 25 24  1  0  0  0  0
 25 20  2  0  0  0  0
 28 29  2  0  0  0  0
 28 24  1  0  0  0  0
 29 30  1  0  0  0  0
 31 32  1  0  0  0  0
 31 29  1  0  0  0  0
 33 35  1  0  0  0  0
 33 31  2  0  0  0  0
 34 33  1  0  0  0  0
 35 28  1  0  0  0  0
M  END
>  <minimizedAffinity>
-5.5348525

$$$$

 OpenBabel03212521083D

 35 38  0  0  0  0  0  0  0  0999 V2000
   38.1450   75.2640   56.8950 C   0  0  0  0  0  0  0  0  0  0  0  0
   37.0880   76.0360   56.4250 C   0  0  0  0  0  0  0  0  0  0  0  0
   36.7470   76.0750   55.0850 C   0  0  0  0  0  0  0  0  0  0  0  0
   37.4820   75.3190   54.1830 C   0  0  0  0  0  0  0  0  0  0  0  0
   38.5460   74.5380   54.6400 C   0  0  0  0  0  0  0  0  0  0  0  0
   38.8760   74.5100   55.9810 C   0  0  0  0  0  0  0  0  0  0  0  0
   36.4710   76.6530   57.0790 H   0  0  0  0  0  0  0  0  0  0  0  0
   35.9350   76.6610   54.6830 H   0  0  0  0  0  0  0  0  0  0  0  0
   37.3130   75.2640   53.1040 H   0  0  0  0  0  0  0  0  0  0  0  0
   39.1340   73.9390   53.9470 H   0  0  0  0  0  0  0  0  0  0  0  0
   38.2780   74.2380   60.3920 C   0  0  0  0  0  0  0  0  0  0  0  0
   39.0270   75.2320   60.9920 C   0  0  0  0  0  0  0  0  0  0  0  0
   39.5020   76.2850   60.1730 C   0  0  0  0  0  0  0  0  0  0  0  0
   39.1920   76.2560   58.8540 N   0  0  0  0  0  0  0  0  0  0  0  0
   38.4540   75.2640   58.3000 C   0  0  0  0  0  0  0  0  0  0  0  0
   38.0070   74.2700   59.0780 N   0  0  0  0  0  0  0  0  0  0  0  0
   37.9440   73.4620   61.0660 H   0  0  0  0  0  0  0  0  0  0  0  0
   39.3240   75.3490   62.0060 H   0  0  0  0  0  0  0  0  0  0  0  0
   40.0960   77.1440   60.4510 H   0  0  0  0  0  0  0  0  0  0  0  0
   39.9820   73.6910   56.4140 C   0  0  0  0  0  0  0  0  0  0  0  0
   41.1860   74.4100   56.4130 C   0  0  0  0  0  0  0  0  0  0  0  0
   42.3760   73.8010   56.7990 C   0  0  0  0  0  0  0  0  0  0  0  0
   42.3220   72.5120   57.1660 N   0  0  0  0  0  0  0  0  0  0  0  0
   41.1500   71.8250   57.1610 C   0  0  0  0  0  0  0  0  0  0  0  0
   39.9910   72.4030   56.7900 N   0  0  0  0  0  0  0  0  0  0  0  0
   41.3090   75.4620   56.1270 H   0  0  0  0  0  0  0  0  0  0  0  0
   43.3210   74.2920   56.8200 H   0  0  0  0  0  0  0  0  0  0  0  0
   41.1530   70.4300   57.5690 C   0  0  0  0  0  0  0  0  0  0  0  0
   41.4880   69.5060   56.5760 C   0  0  0  0  0  0  0  0  0  0  0  0
   41.7610   69.5910   55.5180 H   0  0  0  0  0  0  0  0  0  0  0  0
   41.4390   68.2290   57.1480 C   0  0  0  0  0  0  0  0  0  0  0  0
   41.6290   67.2540   56.7210 H   0  0  0  0  0  0  0  0  0  0  0  0
   41.0700   68.4760   58.4750 C   0  0  0  0  0  0  0  0  0  0  0  0
   40.9300   67.7290   59.2320 H   0  0  0  0  0  0  0  0  0  0  0  0
   40.9140   69.7620   58.6790 O   0  0  0  0  0  0  0  0  0  0  0  0
  1 15  1  0  0  0  0
  2  1  1  0  0  0  0
  2  7  1  0  0  0  0
  3  2  2  0  0  0  0
  4  5  2  0  0  0  0
  4  3  1  0  0  0  0
  5  6  1  0  0  0  0
  6 20  1  0  0  0  0
  6  1  2  0  0  0  0
  8  3  1  0  0  0  0
  9  4  1  0  0  0  0
 10  5  1  0  0  0  0
 11 12  1  0  0  0  0
 11 17  1  0  0  0  0
 12 18  1  0  0  0  0
 13 19  1  0  0  0  0
 13 12  2  0  0  0  0
 14 13  1  0  0  0  0
 15 14  2  0  0  0  0
 15 16  1  0  0  0  0
 16 11  2  0  0  0  0
 20 25  1  0  0  0  0
 21 20  2  0  0  0  0
 21 22  1  0  0  0  0
 22 27  1  0  0  0  0
 22 23  2  0  0  0  0
 24 23  1  0  0  0  0
 24 28  1  0  0  0  0
 25 24  2  0  0  0  0
 26 21  1  0  0  0  0
 28 35  1  0  0  0  0
 29 31  1  0  0  0  0
 29 28  2  0  0  0  0
 30 29  1  0  0  0  0
 31 33  2  0  0  0  0
 32 31  1  0  0  0  0
 33 35  1  0  0  0  0
 33 34  1  0  0  0  0
M  END
>  <minimizedAffinity>
-5.31962681

$$$$

 OpenBabel03212521083D

 35 38  0  0  0  0  0  0  0  0999 V2000
   42.4650   74.6830   58.6120 C   0  0  0  0  0  0  0  0  0  0  0  0
   43.7940   74.8650   58.9750 C   0  0  0  0  0  0  0  0  0  0  0  0
   44.8390   74.4450   58.1730 C   0  0  0  0  0  0  0  0  0  0  0  0
   44.5500   73.8230   56.9660 C   0  0  0  0  0  0  0  0  0  0  0  0
   43.2190   73.6330   56.5870 C   0  0  0  0  0  0  0  0  0  0  0  0
   42.1860   74.0580   57.4000 C   0  0  0  0  0  0  0  0  0  0  0  0
   44.0910   75.3460   59.9080 H   0  0  0  0  0  0  0  0  0  0  0  0
   45.8820   74.5680   58.4200 H   0  0  0  0  0  0  0  0  0  0  0  0
   45.2820   73.4460   56.2460 H   0  0  0  0  0  0  0  0  0  0  0  0
   42.9730   73.1470   55.6450 H   0  0  0  0  0  0  0  0  0  0  0  0
   40.0480   76.8780   60.2360 C   0  0  0  0  0  0  0  0  0  0  0  0
   39.4240   76.0500   61.1510 C   0  0  0  0  0  0  0  0  0  0  0  0
   39.8430   74.6990   61.2120 C   0  0  0  0  0  0  0  0  0  0  0  0
   40.8310   74.3010   60.3730 N   0  0  0  0  0  0  0  0  0  0  0  0
   41.4200   75.1410   59.4890 C   0  0  0  0  0  0  0  0  0  0  0  0
   41.0200   76.4180   59.4340 N   0  0  0  0  0  0  0  0  0  0  0  0
   39.6850   77.8960   60.2360 H   0  0  0  0  0  0  0  0  0  0  0  0
   38.6480   76.2600   61.8470 H   0  0  0  0  0  0  0  0  0  0  0  0
   39.4830   73.9060   61.8510 H   0  0  0  0  0  0  0  0  0  0  0  0
   40.8250   73.8430   56.9730 C   0  0  0  0  0  0  0  0  0  0  0  0
   40.3780   72.5560   57.3050 C   0  0  0  0  0  0  0  0  0  0  0  0
   39.0880   72.1470   56.9810 C   0  0  0  0  0  0  0  0  0  0  0  0
   38.3010   73.0270   56.3430 N   0  0  0  0  0  0  0  0  0  0  0  0
   38.7460   74.2710   56.0260 C   0  0  0  0  0  0  0  0  0  0  0  0
   39.9910   74.6790   56.3350 N   0  0  0  0  0  0  0  0  0  0  0  0
   40.9610   71.7850   57.8240 H   0  0  0  0  0  0  0  0  0  0  0  0
   38.6910   71.1850   57.2050 H   0  0  0  0  0  0  0  0  0  0  0  0
   37.8470   75.1810   55.3350 C   0  0  0  0  0  0  0  0  0  0  0  0
   37.3910   76.2700   56.0820 C   0  0  0  0  0  0  0  0  0  0  0  0
   37.5590   76.6130   57.1090 H   0  0  0  0  0  0  0  0  0  0  0  0
   36.5470   77.0270   55.2610 C   0  0  0  0  0  0  0  0  0  0  0  0
   35.9970   77.9380   55.4570 H   0  0  0  0  0  0  0  0  0  0  0  0
   36.5520   76.3270   54.0490 C   0  0  0  0  0  0  0  0  0  0  0  0
   36.0130   76.6080   53.1660 H   0  0  0  0  0  0  0  0  0  0  0  0
   37.3170   75.2650   54.1320 O   0  0  0  0  0  0  0  0  0  0  0  0
  1  2  1  0  0  0  0
  1 15  1  0  0  0  0
  2  7  1  0  0  0  0
  3  8  1  0  0  0  0
  3  2  2  0  0  0  0
  4  3  1  0  0  0  0
  5  4  2  0  0  0  0
  5  6  1  0  0  0  0
  6  1  2  0  0  0  0
  9  4  1  0  0  0  0
 10  5  1  0  0  0  0
 11 12  1  0  0  0  0
 12 13  2  0  0  0  0
 12 18  1  0  0  0  0
 13 19  1  0  0  0  0
 14 13  1  0  0  0  0
 15 14  2  0  0  0  0
 16 15  1  0  0  0  0
 16 11  2  0  0  0  0
 17 11  1  0  0  0  0
 20 21  1  0  0  0  0
 20  6  1  0  0  0  0
 21 26  1  0  0  0  0
 22 27  1  0  0  0  0
 22 21  2  0  0  0  0
 23 22  1  0  0  0  0
 24 25  1  0  0  0  0
 24 23  2  0  0  0  0
 25 20  2  0  0  0  0
 28 24  1  0  0  0  0
 28 29  2  0  0  0  0
 29 30  1  0  0  0  0
 31 32  1  0  0  0  0
 31 29  1  0  0  0  0
 33 35  1  0  0  0  0
 33 31  2  0  0  0  0
 34 33  1  0  0  0  0
 35 28  1  0  0  0  0
M  END
>  <minimizedAffinity>
-5.29364204

$$$$

 OpenBabel03212521083D

 35 38  0  0  0  0  0  0  0  0999 V2000
   41.0520   74.5120   59.8480 C   0  0  0  0  0  0  0  0  0  0  0  0
   40.4930   75.7380   60.1900 C   0  0  0  0  0  0  0  0  0  0  0  0
   39.2950   75.8350   60.8750 C   0  0  0  0  0  0  0  0  0  0  0  0
   38.6320   74.6700   61.2340 C   0  0  0  0  0  0  0  0  0  0  0  0
   39.1810   73.4300   60.8990 C   0  0  0  0  0  0  0  0  0  0  0  0
   40.3780   73.3490   60.2130 C   0  0  0  0  0  0  0  0  0  0  0  0
   40.9610   76.6910   59.9390 H   0  0  0  0  0  0  0  0  0  0  0  0
   38.8310   76.7670   61.1570 H   0  0  0  0  0  0  0  0  0  0  0  0
   37.6840   74.6110   61.7750 H   0  0  0  0  0  0  0  0  0  0  0  0
   38.6750   72.5060   61.1720 H   0  0  0  0  0  0  0  0  0  0  0  0
   44.6320   74.3360   59.1780 C   0  0  0  0  0  0  0  0  0  0  0  0
   44.7050   74.3990   57.7990 C   0  0  0  0  0  0  0  0  0  0  0  0
   43.4920   74.5040   57.0780 C   0  0  0  0  0  0  0  0  0  0  0  0
   42.3330   74.5380   57.7820 N   0  0  0  0  0  0  0  0  0  0  0  0
   42.3000   74.4740   59.1350 C   0  0  0  0  0  0  0  0  0  0  0  0
   43.4500   74.3740   59.8130 N   0  0  0  0  0  0  0  0  0  0  0  0
   45.5890   74.2550   59.6730 H   0  0  0  0  0  0  0  0  0  0  0  0
   45.5530   74.3800   57.1570 H   0  0  0  0  0  0  0  0  0  0  0  0
   43.3420   74.5660   56.0100 H   0  0  0  0  0  0  0  0  0  0  0  0
   40.9110   72.0500   59.8850 C   0  0  0  0  0  0  0  0  0  0  0  0
   41.5470   71.4610   60.9860 C   0  0  0  0  0  0  0  0  0  0  0  0
   42.1300   70.2020   60.8800 C   0  0  0  0  0  0  0  0  0  0  0  0
   42.0590   69.5850   59.6910 N   0  0  0  0  0  0  0  0  0  0  0  0
   41.4410   70.1660   58.6300 C   0  0  0  0  0  0  0  0  0  0  0  0
   40.8730   71.3840   58.7200 N   0  0  0  0  0  0  0  0  0  0  0  0
   41.6450   71.9020   61.9870 H   0  0  0  0  0  0  0  0  0  0  0  0
   42.6260   69.7020   61.6790 H   0  0  0  0  0  0  0  0  0  0  0  0
   41.3950   69.4490   57.3660 C   0  0  0  0  0  0  0  0  0  0  0  0
   41.1810   70.2330   56.2290 C   0  0  0  0  0  0  0  0  0  0  0  0
   41.0340   71.3060   56.0600 H   0  0  0  0  0  0  0  0  0  0  0  0
   41.1680   69.3800   55.1190 C   0  0  0  0  0  0  0  0  0  0  0  0
   41.0330   69.5880   54.0670 H   0  0  0  0  0  0  0  0  0  0  0  0
   41.3800   68.1130   55.6760 C   0  0  0  0  0  0  0  0  0  0  0  0
   41.4340   67.1930   55.1270 H   0  0  0  0  0  0  0  0  0  0  0  0
   41.5070   68.1960   56.9780 O   0  0  0  0  0  0  0  0  0  0  0  0
  1  2  2  0  0  0  0
  1  6  1  0  0  0  0
  2  3  1  0  0  0  0
  3  8  1  0  0  0  0
  3  4  2  0  0  0  0
  4  9  1  0  0  0  0
  5 10  1  0  0  0  0
  5  4  1  0  0  0  0
  6  5  2  0  0  0  0
  7  2  1  0  0  0  0
 11 17  1  0  0  0  0
 11 16  1  0  0  0  0
 12 11  2  0  0  0  0
 13 14  2  0  0  0  0
 13 12  1  0  0  0  0
 14 15  1  0  0  0  0
 15 16  2  0  0  0  0
 15  1  1  0  0  0  0
 18 12  1  0  0  0  0
 19 13  1  0  0  0  0
 20  6  1  0  0  0  0
 20 21  1  0  0  0  0
 21 26  1  0  0  0  0
 22 21  2  0  0  0  0
 22 27  1  0  0  0  0
 23 22  1  0  0  0  0
 24 25  1  0  0  0  0
 24 23  2  0  0  0  0
 25 20  2  0  0  0  0
 28 24  1  0  0  0  0
 29 28  2  0  0  0  0
 30 29  1  0  0  0  0
 31 33  2  0  0  0  0
 31 29  1  0  0  0  0
 32 31  1  0  0  0  0
 33 35  1  0  0  0  0
 34 33  1  0  0  0  0
 35 28  1  0  0  0  0
M  END
>  <minimizedAffinity>
-5.27639246

$$$$

 OpenBabel03212521083D

 35 38  0  0  0  0  0  0  0  0999 V2000
   38.1430   75.2760   56.9410 C   0  0  0  0  0  0  0  0  0  0  0  0
   37.1130   76.0750   56.4580 C   0  0  0  0  0  0  0  0  0  0  0  0
   36.7710   76.1040   55.1180 C   0  0  0  0  0  0  0  0  0  0  0  0
   37.4790   75.3090   54.2280 C   0  0  0  0  0  0  0  0  0  0  0  0
   38.5170   74.4990   54.6980 C   0  0  0  0  0  0  0  0  0  0  0  0
   38.8470   74.4820   56.0390 C   0  0  0  0  0  0  0  0  0  0  0  0
   36.5170   76.7230   57.1020 H   0  0  0  0  0  0  0  0  0  0  0  0
   35.9790   76.7100   54.7060 H   0  0  0  0  0  0  0  0  0  0  0  0
   37.3080   75.2410   53.1500 H   0  0  0  0  0  0  0  0  0  0  0  0
   39.0840   73.8700   54.0140 H   0  0  0  0  0  0  0  0  0  0  0  0
   38.2720   74.2850   60.4470 C   0  0  0  0  0  0  0  0  0  0  0  0
   39.0280   75.2810   61.0360 C   0  0  0  0  0  0  0  0  0  0  0  0
   39.5090   76.3220   60.2060 C   0  0  0  0  0  0  0  0  0  0  0  0
   39.1980   76.2810   58.8880 N   0  0  0  0  0  0  0  0  0  0  0  0
   38.4530   75.2880   58.3450 C   0  0  0  0  0  0  0  0  0  0  0  0
   38.0000   74.3050   59.1330 N   0  0  0  0  0  0  0  0  0  0  0  0
   37.9340   73.5190   61.1300 H   0  0  0  0  0  0  0  0  0  0  0  0
   39.3260   75.4060   62.0490 H   0  0  0  0  0  0  0  0  0  0  0  0
   40.1090   77.1800   60.4750 H   0  0  0  0  0  0  0  0  0  0  0  0
   39.9260   73.6340   56.4840 C   0  0  0  0  0  0  0  0  0  0  0  0
   39.5530   72.2820   56.4810 C   0  0  0  0  0  0  0  0  0  0  0  0
   40.4520   71.2970   56.8770 C   0  0  0  0  0  0  0  0  0  0  0  0
   41.6760   71.6920   57.2590 N   0  0  0  0  0  0  0  0  0  0  0  0
   42.0250   73.0050   57.2590 C   0  0  0  0  0  0  0  0  0  0  0  0
   41.1640   73.9680   56.8770 N   0  0  0  0  0  0  0  0  0  0  0  0
   38.5740   71.8840   56.1840 H   0  0  0  0  0  0  0  0  0  0  0  0
   40.2290   70.2560   56.8970 H   0  0  0  0  0  0  0  0  0  0  0  0
   43.3660   73.3740   57.6830 C   0  0  0  0  0  0  0  0  0  0  0  0
   44.1400   74.0490   56.7350 C   0  0  0  0  0  0  0  0  0  0  0  0
   43.9650   74.3800   55.7060 H   0  0  0  0  0  0  0  0  0  0  0  0
   45.3850   74.3190   57.3150 C   0  0  0  0  0  0  0  0  0  0  0  0
   46.2580   74.8200   56.9200 H   0  0  0  0  0  0  0  0  0  0  0  0
   45.2740   73.7760   58.6000 C   0  0  0  0  0  0  0  0  0  0  0  0
   46.0400   73.7890   59.3510 H   0  0  0  0  0  0  0  0  0  0  0  0
   44.0900   73.2380   58.7740 O   0  0  0  0  0  0  0  0  0  0  0  0
  1 15  1  0  0  0  0
  2  1  1  0  0  0  0
  2  7  1  0  0  0  0
  3  2  2  0  0  0  0
  4  5  2  0  0  0  0
  4  3  1  0  0  0  0
  5  6  1  0  0  0  0
  6 20  1  0  0  0  0
  6  1  2  0  0  0  0
  8  3  1  0  0  0  0
  9  4  1  0  0  0  0
 10  5  1  0  0  0  0
 11 12  1  0  0  0  0
 11 17  1  0  0  0  0
 12 18  1  0  0  0  0
 13 19  1  0  0  0  0
 13 12  2  0  0  0  0
 14 13  1  0  0  0  0
 15 14  2  0  0  0  0
 15 16  1  0  0  0  0
 16 11  2  0  0  0  0
 20 25  1  0  0  0  0
 21 20  2  0  0  0  0
 21 22  1  0  0  0  0
 22 27  1  0  0  0  0
 22 23  2  0  0  0  0
 23 24  1  0  0  0  0
 24 28  1  0  0  0  0
 25 24  2  0  0  0  0
 26 21  1  0  0  0  0
 28 35  1  0  0  0  0
 29 31  1  0  0  0  0
 29 28  2  0  0  0  0
 30 29  1  0  0  0  0
 31 33  2  0  0  0  0
 32 31  1  0  0  0  0
 33 35  1  0  0  0  0
 33 34  1  0  0  0  0
M  END
>  <minimizedAffinity>
-5.2438674

$$$$
