
 OpenBabel03212521063D

 35 38  0  0  0  0  0  0  0  0999 V2000
   41.8360   84.2450   61.5660 C   0  0  0  0  0  0  0  0  0  0  0  0
   41.4810   83.9240   62.8710 C   0  0  0  0  0  0  0  0  0  0  0  0
   40.2090   83.4940   63.2020 C   0  0  0  0  0  0  0  0  0  0  0  0
   39.2580   83.3780   62.1980 C   0  0  0  0  0  0  0  0  0  0  0  0
   39.6000   83.6960   60.8810 C   0  0  0  0  0  0  0  0  0  0  0  0
   40.8750   84.1250   60.5660 C   0  0  0  0  0  0  0  0  0  0  0  0
   42.1780   83.9930   63.7070 H   0  0  0  0  0  0  0  0  0  0  0  0
   39.8960   83.2370   64.2020 H   0  0  0  0  0  0  0  0  0  0  0  0
   38.2230   83.0510   62.3280 H   0  0  0  0  0  0  0  0  0  0  0  0
   38.8670   83.6120   60.0810 H   0  0  0  0  0  0  0  0  0  0  0  0
   45.3730   84.1700   60.6830 C   0  0  0  0  0  0  0  0  0  0  0  0
   45.7470   85.5000   60.7340 C   0  0  0  0  0  0  0  0  0  0  0  0
   44.7570   86.4500   61.0810 C   0  0  0  0  0  0  0  0  0  0  0  0
   43.5050   85.9990   61.3430 N   0  0  0  0  0  0  0  0  0  0  0  0
   43.1750   84.6870   61.2830 C   0  0  0  0  0  0  0  0  0  0  0  0
   44.1150   83.7920   60.9540 N   0  0  0  0  0  0  0  0  0  0  0  0
   46.1710   83.4920   60.4120 H   0  0  0  0  0  0  0  0  0  0  0  0
   46.6910   85.9540   60.5490 H   0  0  0  0  0  0  0  0  0  0  0  0
   44.8500   87.5230   61.1740 H   0  0  0  0  0  0  0  0  0  0  0  0
   41.1880   84.4440   59.1950 C   0  0  0  0  0  0  0  0  0  0  0  0
   40.6620   85.6890   58.8230 C   0  0  0  0  0  0  0  0  0  0  0  0
   40.8530   86.1850   57.5370 C   0  0  0  0  0  0  0  0  0  0  0  0
   41.5530   85.4270   56.6780 N   0  0  0  0  0  0  0  0  0  0  0  0
   42.0560   84.2210   57.0500 C   0  0  0  0  0  0  0  0  0  0  0  0
   41.8790   83.7310   58.2920 N   0  0  0  0  0  0  0  0  0  0  0  0
   40.0820   86.3630   59.4660 H   0  0  0  0  0  0  0  0  0  0  0  0
   40.4800   87.1210   57.1940 H   0  0  0  0  0  0  0  0  0  0  0  0
   42.8070   83.4450   56.0770 C   0  0  0  0  0  0  0  0  0  0  0  0
   42.6740   83.8460   54.7450 C   0  0  0  0  0  0  0  0  0  0  0  0
   42.1120   84.6420   54.2420 H   0  0  0  0  0  0  0  0  0  0  0  0
   43.4580   82.9920   53.9620 C   0  0  0  0  0  0  0  0  0  0  0  0
   43.6280   82.9650   52.8940 H   0  0  0  0  0  0  0  0  0  0  0  0
   44.0230   82.1160   54.8950 C   0  0  0  0  0  0  0  0  0  0  0  0
   44.6930   81.3100   54.6660 H   0  0  0  0  0  0  0  0  0  0  0  0
   43.6220   82.4110   56.1090 O   0  0  0  0  0  0  0  0  0  0  0  0
  1  2  1  0  0  0  0
  2  3  2  0  0  0  0
  2  7  1  0  0  0  0
  3  8  1  0  0  0  0
  4  9  1  0  0  0  0
  4  3  1  0  0  0  0
  5  4  2  0  0  0  0
  6  5  1  0  0  0  0
  6  1  2  0  0  0  0
 10  5  1  0  0  0  0
 11 12  2  0  0  0  0
 11 16  1  0  0  0  0
 12 13  1  0  0  0  0
 13 19  1  0  0  0  0
 13 14  2  0  0  0  0
 15 14  1  0  0  0  0
 15  1  1  0  0  0  0
 16 15  2  0  0  0  0
 17 11  1  0  0  0  0
 18 12  1  0  0  0  0
 20  6  1  0  0  0  0
 21 20  1  0  0  0  0
 21 26  1  0  0  0  0
 22 21  2  0  0  0  0
 23 24  2  0  0  0  0
 23 22  1  0  0  0  0
 24 25  1  0  0  0  0
 25 20  2  0  0  0  0
 27 22  1  0  0  0  0
 28 35  1  0  0  0  0
 28 24  1  0  0  0  0
 29 28  2  0  0  0  0
 30 29  1  0  0  0  0
 31 29  1  0  0  0  0
 31 33  2  0  0  0  0
 32 31  1  0  0  0  0
 33 35  1  0  0  0  0
 34 33  1  0  0  0  0
M  END
>  <minimizedAffinity>
-5.35039473

>  <minimizedRMSD>
0.296307325

$$$$
