
 OpenBabel03212520303D

 27 29  0  0  0  0  0  0  0  0999 V2000
   40.2980   81.2620   60.2830 C   0  0  0  0  0  0  0  0  0  0  0  0
   40.7090   82.5940   60.4560 C   0  0  0  0  0  0  0  0  0  0  0  0
   40.8270   83.4010   59.3150 C   0  0  0  0  0  0  0  0  0  0  0  0
   40.5370   82.8430   58.1070 N   0  0  0  0  0  0  0  0  0  0  0  0
   40.1480   81.5700   57.9870 C   0  0  0  0  0  0  0  0  0  0  0  0
   40.0290   80.7830   59.0640 N   0  0  0  0  0  0  0  0  0  0  0  0
   40.2130   80.6540   61.1780 H   0  0  0  0  0  0  0  0  0  0  0  0
   41.1380   84.4220   59.4170 H   0  0  0  0  0  0  0  0  0  0  0  0
   40.9930   83.0930   61.7660 N   0  0  0  0  0  0  0  0  0  0  0  0
   39.9050   83.3940   62.4710 C   0  0  0  0  0  0  0  0  0  0  0  0
   40.0810   83.8890   63.7650 C   0  0  0  0  0  0  0  0  0  0  0  0
   41.3740   84.0500   64.2690 C   0  0  0  0  0  0  0  0  0  0  0  0
   41.6290   84.4890   65.4180 O   0  0  0  0  0  0  0  0  0  0  0  0
   42.4200   83.7180   63.4750 N   0  0  0  0  0  0  0  0  0  0  0  0
   42.2600   83.2310   62.2070 C   0  0  0  0  0  0  0  0  0  0  0  0
   43.2320   82.9280   61.4890 O   0  0  0  0  0  0  0  0  0  0  0  0
   38.8920   83.2820   62.1150 H   0  0  0  0  0  0  0  0  0  0  0  0
   39.2470   84.1550   64.3960 H   0  0  0  0  0  0  0  0  0  0  0  0
   43.4230   83.8150   63.7960 H   0  0  0  0  0  0  0  0  0  0  0  0
   39.8240   80.9220   56.7200 C   0  0  0  0  0  0  0  0  0  0  0  0
   38.7010   80.3220   56.1790 C   0  0  0  0  0  0  0  0  0  0  0  0
   37.8040   80.2880   56.7870 H   0  0  0  0  0  0  0  0  0  0  0  0
   39.1100   79.9110   54.9080 C   0  0  0  0  0  0  0  0  0  0  0  0
   38.3650   79.4010   54.2880 H   0  0  0  0  0  0  0  0  0  0  0  0
   40.4470   80.2860   54.7600 C   0  0  0  0  0  0  0  0  0  0  0  0
   40.9010   80.0300   53.8130 H   0  0  0  0  0  0  0  0  0  0  0  0
   40.8210   80.8860   55.8740 O   0  0  0  0  0  0  0  0  0  0  0  0
  1  2  1  0  0  0  0
  1  7  1  0  0  0  0
  2  9  1  0  0  0  0
  3  8  1  0  0  0  0
  3  2  2  0  0  0  0
  4  3  1  0  0  0  0
  5  4  2  0  0  0  0
  5  6  1  0  0  0  0
  6  1  2  0  0  0  0
  9 15  1  0  0  0  0
  9 10  1  0  0  0  0
 10 11  2  0  0  0  0
 11 12  1  0  0  0  0
 11 18  1  0  0  0  0
 12 13  2  0  0  0  0
 14 19  1  0  0  0  0
 14 12  1  0  0  0  0
 15 14  1  0  0  0  0
 16 15  2  0  0  0  0
 17 10  1  0  0  0  0
 20  5  1  0  0  0  0
 21 20  2  0  0  0  0
 21 22  1  0  0  0  0
 23 21  1  0  0  0  0
 24 23  1  0  0  0  0
 25 23  2  0  0  0  0
 25 27  1  0  0  0  0
 26 25  1  0  0  0  0
 27 20  1  0  0  0  0
M  END
>  <minimizedAffinity>
-5.0314846

>  <minimizedRMSD>
7.92308474

$$$$
