
 OpenBabel03212521063D

 35 38  0  0  0  0  0  0  0  0999 V2000
   41.8140   84.2480   61.5590 C   0  0  0  0  0  0  0  0  0  0  0  0
   41.4570   83.9440   62.8680 C   0  0  0  0  0  0  0  0  0  0  0  0
   40.1830   83.5230   63.2030 C   0  0  0  0  0  0  0  0  0  0  0  0
   39.2320   83.3990   62.1990 C   0  0  0  0  0  0  0  0  0  0  0  0
   39.5760   83.7000   60.8790 C   0  0  0  0  0  0  0  0  0  0  0  0
   40.8530   84.1210   60.5600 C   0  0  0  0  0  0  0  0  0  0  0  0
   42.1540   84.0200   63.7030 H   0  0  0  0  0  0  0  0  0  0  0  0
   39.8680   83.2790   64.2060 H   0  0  0  0  0  0  0  0  0  0  0  0
   38.1950   83.0770   62.3330 H   0  0  0  0  0  0  0  0  0  0  0  0
   38.8430   83.6090   60.0790 H   0  0  0  0  0  0  0  0  0  0  0  0
   45.3420   84.1540   60.6420 C   0  0  0  0  0  0  0  0  0  0  0  0
   45.7300   85.4790   60.7140 C   0  0  0  0  0  0  0  0  0  0  0  0
   44.7530   86.4330   61.0880 C   0  0  0  0  0  0  0  0  0  0  0  0
   43.4990   85.9900   61.3530 N   0  0  0  0  0  0  0  0  0  0  0  0
   43.1550   84.6820   61.2720 C   0  0  0  0  0  0  0  0  0  0  0  0
   44.0820   83.7840   60.9180 N   0  0  0  0  0  0  0  0  0  0  0  0
   46.1300   83.4740   60.3510 H   0  0  0  0  0  0  0  0  0  0  0  0
   46.6760   85.9260   60.5290 H   0  0  0  0  0  0  0  0  0  0  0  0
   44.8580   87.5020   61.2000 H   0  0  0  0  0  0  0  0  0  0  0  0
   41.1680   84.4220   59.1860 C   0  0  0  0  0  0  0  0  0  0  0  0
   40.7140   85.6970   58.8210 C   0  0  0  0  0  0  0  0  0  0  0  0
   40.9200   86.1820   57.5330 C   0  0  0  0  0  0  0  0  0  0  0  0
   41.5620   85.3850   56.6650 N   0  0  0  0  0  0  0  0  0  0  0  0
   41.9960   84.1500   57.0300 C   0  0  0  0  0  0  0  0  0  0  0  0
   41.8040   83.6700   58.2740 N   0  0  0  0  0  0  0  0  0  0  0  0
   40.1840   86.4040   59.4720 H   0  0  0  0  0  0  0  0  0  0  0  0
   40.5990   87.1400   57.1960 H   0  0  0  0  0  0  0  0  0  0  0  0
   42.6860   83.3310   56.0470 C   0  0  0  0  0  0  0  0  0  0  0  0
   43.7460   83.9470   55.3770 C   0  0  0  0  0  0  0  0  0  0  0  0
   44.1960   84.9450   55.4210 H   0  0  0  0  0  0  0  0  0  0  0  0
   44.2820   83.0160   54.4810 C   0  0  0  0  0  0  0  0  0  0  0  0
   45.1030   83.0970   53.7820 H   0  0  0  0  0  0  0  0  0  0  0  0
   43.4920   81.8780   54.6760 C   0  0  0  0  0  0  0  0  0  0  0  0
   43.6050   80.9450   54.1570 H   0  0  0  0  0  0  0  0  0  0  0  0
   42.5790   82.1010   55.5900 O   0  0  0  0  0  0  0  0  0  0  0  0
  1  2  1  0  0  0  0
  2  3  2  0  0  0  0
  2  7  1  0  0  0  0
  3  8  1  0  0  0  0
  4  9  1  0  0  0  0
  4  3  1  0  0  0  0
  5  4  2  0  0  0  0
  6  5  1  0  0  0  0
  6  1  2  0  0  0  0
 10  5  1  0  0  0  0
 11 12  2  0  0  0  0
 11 16  1  0  0  0  0
 12 13  1  0  0  0  0
 13 19  1  0  0  0  0
 13 14  2  0  0  0  0
 15 14  1  0  0  0  0
 15  1  1  0  0  0  0
 16 15  2  0  0  0  0
 17 11  1  0  0  0  0
 18 12  1  0  0  0  0
 20  6  1  0  0  0  0
 21 20  1  0  0  0  0
 21 26  1  0  0  0  0
 22 21  2  0  0  0  0
 23 24  2  0  0  0  0
 23 22  1  0  0  0  0
 24 25  1  0  0  0  0
 25 20  2  0  0  0  0
 27 22  1  0  0  0  0
 28 24  1  0  0  0  0
 29 30  1  0  0  0  0
 29 28  2  0  0  0  0
 31 33  2  0  0  0  0
 31 29  1  0  0  0  0
 32 31  1  0  0  0  0
 33 35  1  0  0  0  0
 34 33  1  0  0  0  0
 35 28  1  0  0  0  0
M  END
>  <minimizedAffinity>
-5.26690006

>  <minimizedRMSD>
0.215206608

$$$$
