
 OpenBabel03212520303D

 27 29  0  0  0  0  0  0  0  0999 V2000
   39.1000   74.0730   57.9020 C   0  0  0  0  0  0  0  0  0  0  0  0
   39.5580   74.7750   59.0290 C   0  0  0  0  0  0  0  0  0  0  0  0
   39.3010   76.1510   59.1000 C   0  0  0  0  0  0  0  0  0  0  0  0
   38.6220   76.7260   58.0690 N   0  0  0  0  0  0  0  0  0  0  0  0
   38.2020   76.0220   57.0130 C   0  0  0  0  0  0  0  0  0  0  0  0
   38.4380   74.7060   56.9280 N   0  0  0  0  0  0  0  0  0  0  0  0
   39.3090   73.0090   57.8670 H   0  0  0  0  0  0  0  0  0  0  0  0
   39.6390   76.7110   59.9490 H   0  0  0  0  0  0  0  0  0  0  0  0
   40.2640   74.0850   60.0650 N   0  0  0  0  0  0  0  0  0  0  0  0
   41.5660   73.9470   59.8220 C   0  0  0  0  0  0  0  0  0  0  0  0
   42.3410   73.2850   60.7780 C   0  0  0  0  0  0  0  0  0  0  0  0
   41.7340   72.7970   61.9370 C   0  0  0  0  0  0  0  0  0  0  0  0
   42.3500   72.1900   62.8490 O   0  0  0  0  0  0  0  0  0  0  0  0
   40.4020   72.9850   62.0940 N   0  0  0  0  0  0  0  0  0  0  0  0
   39.6330   73.6320   61.1670 C   0  0  0  0  0  0  0  0  0  0  0  0
   38.4080   73.7980   61.3250 O   0  0  0  0  0  0  0  0  0  0  0  0
   42.0690   74.3100   58.9390 H   0  0  0  0  0  0  0  0  0  0  0  0
   43.4020   73.1350   60.6510 H   0  0  0  0  0  0  0  0  0  0  0  0
   39.8820   72.6410   62.9490 H   0  0  0  0  0  0  0  0  0  0  0  0
   37.4710   76.5850   55.8830 C   0  0  0  0  0  0  0  0  0  0  0  0
   36.9260   77.8200   55.5780 C   0  0  0  0  0  0  0  0  0  0  0  0
   37.0290   78.6120   56.3110 H   0  0  0  0  0  0  0  0  0  0  0  0
   36.3660   77.6440   54.3110 C   0  0  0  0  0  0  0  0  0  0  0  0
   35.8690   78.5120   53.8640 H   0  0  0  0  0  0  0  0  0  0  0  0
   36.6040   76.3220   53.9300 C   0  0  0  0  0  0  0  0  0  0  0  0
   36.2220   76.0400   52.9590 H   0  0  0  0  0  0  0  0  0  0  0  0
   37.2680   75.7370   54.9080 O   0  0  0  0  0  0  0  0  0  0  0  0
  1  2  1  0  0  0  0
  2  3  2  0  0  0  0
  2  9  1  0  0  0  0
  3  8  1  0  0  0  0
  4  3  1  0  0  0  0
  5  4  2  0  0  0  0
  6  5  1  0  0  0  0
  6  1  2  0  0  0  0
  7  1  1  0  0  0  0
  9 15  1  0  0  0  0
 10  9  1  0  0  0  0
 10 11  2  0  0  0  0
 11 12  1  0  0  0  0
 12 14  1  0  0  0  0
 12 13  2  0  0  0  0
 14 19  1  0  0  0  0
 15 16  2  0  0  0  0
 15 14  1  0  0  0  0
 17 10  1  0  0  0  0
 18 11  1  0  0  0  0
 20  5  1  0  0  0  0
 21 20  2  0  0  0  0
 21 22  1  0  0  0  0
 23 21  1  0  0  0  0
 24 23  1  0  0  0  0
 25 23  2  0  0  0  0
 25 27  1  0  0  0  0
 26 25  1  0  0  0  0
 27 20  1  0  0  0  0
M  END
>  <minimizedAffinity>
-5.491992

$$$$

 OpenBabel03212520303D

 27 29  0  0  0  0  0  0  0  0999 V2000
   41.9530   70.2610   60.7020 C   0  0  0  0  0  0  0  0  0  0  0  0
   42.2310   69.7810   61.9920 C   0  0  0  0  0  0  0  0  0  0  0  0
   41.8280   70.5590   63.0870 C   0  0  0  0  0  0  0  0  0  0  0  0
   41.1900   71.7350   62.8320 N   0  0  0  0  0  0  0  0  0  0  0  0
   40.9440   72.1560   61.5880 C   0  0  0  0  0  0  0  0  0  0  0  0
   41.3220   71.4270   60.5290 N   0  0  0  0  0  0  0  0  0  0  0  0
   42.2740   69.6440   59.8690 H   0  0  0  0  0  0  0  0  0  0  0  0
   42.0270   70.2170   64.0830 H   0  0  0  0  0  0  0  0  0  0  0  0
   42.9080   68.5320   62.1620 N   0  0  0  0  0  0  0  0  0  0  0  0
   44.1390   68.5180   61.6570 C   0  0  0  0  0  0  0  0  0  0  0  0
   44.8800   67.3400   61.7750 C   0  0  0  0  0  0  0  0  0  0  0  0
   44.3120   66.2320   62.4090 C   0  0  0  0  0  0  0  0  0  0  0  0
   44.9020   65.1320   62.5600 O   0  0  0  0  0  0  0  0  0  0  0  0
   43.0510   66.3420   62.8910 N   0  0  0  0  0  0  0  0  0  0  0  0
   42.3160   67.4900   62.7820 C   0  0  0  0  0  0  0  0  0  0  0  0
   41.1570   67.5770   63.2310 O   0  0  0  0  0  0  0  0  0  0  0  0
   44.6090   69.3540   61.1610 H   0  0  0  0  0  0  0  0  0  0  0  0
   45.8830   67.2530   61.3900 H   0  0  0  0  0  0  0  0  0  0  0  0
   42.5650   65.5410   63.3820 H   0  0  0  0  0  0  0  0  0  0  0  0
   40.2660   73.4040   61.2570 C   0  0  0  0  0  0  0  0  0  0  0  0
   40.6540   74.6340   60.7540 C   0  0  0  0  0  0  0  0  0  0  0  0
   41.7040   74.7780   60.5270 H   0  0  0  0  0  0  0  0  0  0  0  0
   39.4680   75.3690   60.6920 C   0  0  0  0  0  0  0  0  0  0  0  0
   39.5400   76.3950   60.3150 H   0  0  0  0  0  0  0  0  0  0  0  0
   38.4420   74.5450   61.1580 C   0  0  0  0  0  0  0  0  0  0  0  0
   37.4550   74.9860   61.1660 H   0  0  0  0  0  0  0  0  0  0  0  0
   38.9770   73.3830   61.4820 O   0  0  0  0  0  0  0  0  0  0  0  0
  1  2  1  0  0  0  0
  2  9  1  0  0  0  0
  2  3  2  0  0  0  0
  3  8  1  0  0  0  0
  4  3  1  0  0  0  0
  5  4  2  0  0  0  0
  6  1  2  0  0  0  0
  6  5  1  0  0  0  0
  7  1  1  0  0  0  0
  9 15  1  0  0  0  0
 10 11  2  0  0  0  0
 10  9  1  0  0  0  0
 11 12  1  0  0  0  0
 12 13  2  0  0  0  0
 12 14  1  0  0  0  0
 14 19  1  0  0  0  0
 15 14  1  0  0  0  0
 15 16  2  0  0  0  0
 17 10  1  0  0  0  0
 18 11  1  0  0  0  0
 20 27  1  0  0  0  0
 20  5  1  0  0  0  0
 21 20  2  0  0  0  0
 22 21  1  0  0  0  0
 23 21  1  0  0  0  0
 23 25  2  0  0  0  0
 24 23  1  0  0  0  0
 25 26  1  0  0  0  0
 25 27  1  0  0  0  0
M  END
>  <minimizedAffinity>
-5.43977118

$$$$

 OpenBabel03212520303D

 27 29  0  0  0  0  0  0  0  0999 V2000
   41.3910   71.7520   60.2440 C   0  0  0  0  0  0  0  0  0  0  0  0
   41.2480   72.8900   61.0540 C   0  0  0  0  0  0  0  0  0  0  0  0
   41.6770   72.8100   62.3870 C   0  0  0  0  0  0  0  0  0  0  0  0
   42.2060   71.6300   62.8160 N   0  0  0  0  0  0  0  0  0  0  0  0
   42.3250   70.5700   62.0110 C   0  0  0  0  0  0  0  0  0  0  0  0
   41.9210   70.6270   60.7350 N   0  0  0  0  0  0  0  0  0  0  0  0
   41.0530   71.8360   59.2160 H   0  0  0  0  0  0  0  0  0  0  0  0
   41.5800   73.6630   63.0280 H   0  0  0  0  0  0  0  0  0  0  0  0
   40.6800   74.0880   60.5160 N   0  0  0  0  0  0  0  0  0  0  0  0
   41.5470   74.8300   59.8310 C   0  0  0  0  0  0  0  0  0  0  0  0
   41.0840   76.0210   59.2660 C   0  0  0  0  0  0  0  0  0  0  0  0
   39.7460   76.3880   59.4360 C   0  0  0  0  0  0  0  0  0  0  0  0
   39.2420   77.4380   58.9660 O   0  0  0  0  0  0  0  0  0  0  0  0
   38.9400   75.5670   60.1510 N   0  0  0  0  0  0  0  0  0  0  0  0
   39.3810   74.3990   60.7080 C   0  0  0  0  0  0  0  0  0  0  0  0
   38.6270   73.6530   61.3620 O   0  0  0  0  0  0  0  0  0  0  0  0
   42.5850   74.5790   59.6790 H   0  0  0  0  0  0  0  0  0  0  0  0
   41.7270   76.6740   58.6980 H   0  0  0  0  0  0  0  0  0  0  0  0
   37.9180   75.7860   60.3160 H   0  0  0  0  0  0  0  0  0  0  0  0
   42.8830   69.2840   62.4160 C   0  0  0  0  0  0  0  0  0  0  0  0
   43.6360   68.8290   63.4840 C   0  0  0  0  0  0  0  0  0  0  0  0
   43.9170   69.5470   64.2460 H   0  0  0  0  0  0  0  0  0  0  0  0
   43.8140   67.4690   63.2240 C   0  0  0  0  0  0  0  0  0  0  0  0
   44.3940   66.8960   63.9540 H   0  0  0  0  0  0  0  0  0  0  0  0
   43.1620   67.1860   62.0210 C   0  0  0  0  0  0  0  0  0  0  0  0
   43.2160   66.1580   61.6910 H   0  0  0  0  0  0  0  0  0  0  0  0
   42.6240   68.3090   61.5840 O   0  0  0  0  0  0  0  0  0  0  0  0
  1  6  2  0  0  0  0
  1  2  1  0  0  0  0
  2  3  2  0  0  0  0
  3  4  1  0  0  0  0
  3  8  1  0  0  0  0
  5 20  1  0  0  0  0
  5  4  2  0  0  0  0
  6  5  1  0  0  0  0
  7  1  1  0  0  0  0
  9 15  1  0  0  0  0
  9  2  1  0  0  0  0
 10  9  1  0  0  0  0
 11 12  1  0  0  0  0
 11 10  2  0  0  0  0
 12 14  1  0  0  0  0
 13 12  2  0  0  0  0
 14 19  1  0  0  0  0
 14 15  1  0  0  0  0
 15 16  2  0  0  0  0
 17 10  1  0  0  0  0
 18 11  1  0  0  0  0
 20 21  2  0  0  0  0
 21 22  1  0  0  0  0
 23 21  1  0  0  0  0
 23 24  1  0  0  0  0
 25 23  2  0  0  0  0
 26 25  1  0  0  0  0
 27 25  1  0  0  0  0
 27 20  1  0  0  0  0
M  END
>  <minimizedAffinity>
-5.39079332

$$$$

 OpenBabel03212520303D

 27 29  0  0  0  0  0  0  0  0999 V2000
   40.2260   73.8890   58.2800 C   0  0  0  0  0  0  0  0  0  0  0  0
   39.0310   74.5280   58.6470 C   0  0  0  0  0  0  0  0  0  0  0  0
   38.5620   74.3520   59.9560 C   0  0  0  0  0  0  0  0  0  0  0  0
   39.2960   73.5690   60.7960 N   0  0  0  0  0  0  0  0  0  0  0  0
   40.4300   72.9790   60.4070 C   0  0  0  0  0  0  0  0  0  0  0  0
   40.8940   73.1350   59.1600 N   0  0  0  0  0  0  0  0  0  0  0  0
   40.5710   74.0370   57.2630 H   0  0  0  0  0  0  0  0  0  0  0  0
   37.6520   74.8280   60.2630 H   0  0  0  0  0  0  0  0  0  0  0  0
   38.3260   75.3310   57.6950 N   0  0  0  0  0  0  0  0  0  0  0  0
   37.4550   74.6460   56.9580 C   0  0  0  0  0  0  0  0  0  0  0  0
   36.7180   75.3450   55.9990 C   0  0  0  0  0  0  0  0  0  0  0  0
   36.9180   76.7200   55.8470 C   0  0  0  0  0  0  0  0  0  0  0  0
   36.3030   77.4290   55.0120 O   0  0  0  0  0  0  0  0  0  0  0  0
   37.8280   77.3300   56.6430 N   0  0  0  0  0  0  0  0  0  0  0  0
   38.5550   76.6560   57.5860 C   0  0  0  0  0  0  0  0  0  0  0  0
   39.3890   77.2310   58.3110 O   0  0  0  0  0  0  0  0  0  0  0  0
   37.2740   73.5850   57.0480 H   0  0  0  0  0  0  0  0  0  0  0  0
   35.9940   74.8580   55.3650 H   0  0  0  0  0  0  0  0  0  0  0  0
   38.0260   78.3670   56.5790 H   0  0  0  0  0  0  0  0  0  0  0  0
   41.2550   72.1330   61.2630 C   0  0  0  0  0  0  0  0  0  0  0  0
   42.4950   71.5270   61.1490 C   0  0  0  0  0  0  0  0  0  0  0  0
   43.0460   71.6730   60.2280 H   0  0  0  0  0  0  0  0  0  0  0  0
   42.6620   70.8590   62.3640 C   0  0  0  0  0  0  0  0  0  0  0  0
   43.5940   70.2990   62.4970 H   0  0  0  0  0  0  0  0  0  0  0  0
   41.5210   71.0990   63.1330 C   0  0  0  0  0  0  0  0  0  0  0  0
   41.5110   70.6380   64.1100 H   0  0  0  0  0  0  0  0  0  0  0  0
   40.7150   71.8660   62.4240 O   0  0  0  0  0  0  0  0  0  0  0  0
  1  2  2  0  0  0  0
  1  6  1  0  0  0  0
  2  3  1  0  0  0  0
  3  8  1  0  0  0  0
  3  4  2  0  0  0  0
  5  4  1  0  0  0  0
  5 20  1  0  0  0  0
  6  5  2  0  0  0  0
  7  1  1  0  0  0  0
  9  2  1  0  0  0  0
 10 17  1  0  0  0  0
 10  9  1  0  0  0  0
 11 10  2  0  0  0  0
 12 11  1  0  0  0  0
 12 14  1  0  0  0  0
 13 12  2  0  0  0  0
 14 15  1  0  0  0  0
 15  9  1  0  0  0  0
 15 16  2  0  0  0  0
 18 11  1  0  0  0  0
 19 14  1  0  0  0  0
 20 27  1  0  0  0  0
 21 20  2  0  0  0  0
 21 23  1  0  0  0  0
 22 21  1  0  0  0  0
 23 24  1  0  0  0  0
 23 25  2  0  0  0  0
 25 26  1  0  0  0  0
 27 25  1  0  0  0  0
M  END
>  <minimizedAffinity>
-5.38349533

$$$$

 OpenBabel03212520303D

 27 29  0  0  0  0  0  0  0  0999 V2000
   40.5820   72.8910   58.8160 C   0  0  0  0  0  0  0  0  0  0  0  0
   39.6040   73.7570   59.3320 C   0  0  0  0  0  0  0  0  0  0  0  0
   39.3530   73.7230   60.7110 C   0  0  0  0  0  0  0  0  0  0  0  0
   40.0750   72.8500   61.4690 N   0  0  0  0  0  0  0  0  0  0  0  0
   40.9980   72.0430   60.9380 C   0  0  0  0  0  0  0  0  0  0  0  0
   41.2520   72.0610   59.6230 N   0  0  0  0  0  0  0  0  0  0  0  0
   40.7600   72.9330   57.7470 H   0  0  0  0  0  0  0  0  0  0  0  0
   38.6120   74.3730   61.1330 H   0  0  0  0  0  0  0  0  0  0  0  0
   38.8940   74.6400   58.4580 N   0  0  0  0  0  0  0  0  0  0  0  0
   39.2660   75.9130   58.5690 C   0  0  0  0  0  0  0  0  0  0  0  0
   38.6290   76.8520   57.7540 C   0  0  0  0  0  0  0  0  0  0  0  0
   37.6370   76.4300   56.8650 C   0  0  0  0  0  0  0  0  0  0  0  0
   37.0110   77.2020   56.0960 O   0  0  0  0  0  0  0  0  0  0  0  0
   37.3260   75.1130   56.8250 N   0  0  0  0  0  0  0  0  0  0  0  0
   37.9430   74.1840   57.6170 C   0  0  0  0  0  0  0  0  0  0  0  0
   37.6470   72.9750   57.5700 O   0  0  0  0  0  0  0  0  0  0  0  0
   40.0280   76.2750   59.2420 H   0  0  0  0  0  0  0  0  0  0  0  0
   38.8770   77.9010   57.7870 H   0  0  0  0  0  0  0  0  0  0  0  0
   36.5860   74.7290   56.1750 H   0  0  0  0  0  0  0  0  0  0  0  0
   41.8000   71.0920   61.7000 C   0  0  0  0  0  0  0  0  0  0  0  0
   43.0110   70.4490   61.5110 C   0  0  0  0  0  0  0  0  0  0  0  0
   43.5550   70.6550   60.5960 H   0  0  0  0  0  0  0  0  0  0  0  0
   43.1680   69.6690   62.6590 C   0  0  0  0  0  0  0  0  0  0  0  0
   44.0780   69.0630   62.7250 H   0  0  0  0  0  0  0  0  0  0  0  0
   42.0490   69.8850   63.4660 C   0  0  0  0  0  0  0  0  0  0  0  0
   42.0350   69.3400   64.3990 H   0  0  0  0  0  0  0  0  0  0  0  0
   41.2660   70.7440   62.8420 O   0  0  0  0  0  0  0  0  0  0  0  0
  1  2  2  0  0  0  0
  1  6  1  0  0  0  0
  2  3  1  0  0  0  0
  3  8  1  0  0  0  0
  3  4  2  0  0  0  0
  5  4  1  0  0  0  0
  5 20  1  0  0  0  0
  6  5  2  0  0  0  0
  7  1  1  0  0  0  0
  9 10  1  0  0  0  0
  9  2  1  0  0  0  0
 10 17  1  0  0  0  0
 11 18  1  0  0  0  0
 11 10  2  0  0  0  0
 12 11  1  0  0  0  0
 13 12  2  0  0  0  0
 14 12  1  0  0  0  0
 14 15  1  0  0  0  0
 15  9  1  0  0  0  0
 16 15  2  0  0  0  0
 19 14  1  0  0  0  0
 20 27  1  0  0  0  0
 21 20  2  0  0  0  0
 21 23  1  0  0  0  0
 22 21  1  0  0  0  0
 23 24  1  0  0  0  0
 23 25  2  0  0  0  0
 25 26  1  0  0  0  0
 27 25  1  0  0  0  0
M  END
>  <minimizedAffinity>
-5.30931425

$$$$

 OpenBabel03212520303D

 27 29  0  0  0  0  0  0  0  0999 V2000
   40.9060   72.5730   59.2650 C   0  0  0  0  0  0  0  0  0  0  0  0
   39.9720   73.4630   59.8190 C   0  0  0  0  0  0  0  0  0  0  0  0
   39.7270   73.3890   61.1980 C   0  0  0  0  0  0  0  0  0  0  0  0
   40.4110   72.4570   61.9180 N   0  0  0  0  0  0  0  0  0  0  0  0
   41.2930   71.6280   61.3510 C   0  0  0  0  0  0  0  0  0  0  0  0
   41.5410   71.6830   60.0360 N   0  0  0  0  0  0  0  0  0  0  0  0
   41.0810   72.6460   58.1970 H   0  0  0  0  0  0  0  0  0  0  0  0
   39.0200   74.0570   61.6480 H   0  0  0  0  0  0  0  0  0  0  0  0
   39.3010   74.4100   58.9830 N   0  0  0  0  0  0  0  0  0  0  0  0
   38.2710   73.8960   58.3150 C   0  0  0  0  0  0  0  0  0  0  0  0
   37.5510   74.7460   57.4700 C   0  0  0  0  0  0  0  0  0  0  0  0
   37.9310   76.0850   57.3570 C   0  0  0  0  0  0  0  0  0  0  0  0
   37.3450   76.9210   56.6240 O   0  0  0  0  0  0  0  0  0  0  0  0
   38.9950   76.5160   58.0770 N   0  0  0  0  0  0  0  0  0  0  0  0
   39.7060   75.6940   58.9070 C   0  0  0  0  0  0  0  0  0  0  0  0
   40.6820   76.1040   59.5640 O   0  0  0  0  0  0  0  0  0  0  0  0
   37.9480   72.8680   58.3770 H   0  0  0  0  0  0  0  0  0  0  0  0
   36.7050   74.4020   56.8970 H   0  0  0  0  0  0  0  0  0  0  0  0
   39.3330   77.5170   58.0370 H   0  0  0  0  0  0  0  0  0  0  0  0
   42.0530   70.6120   62.0720 C   0  0  0  0  0  0  0  0  0  0  0  0
   42.0900   70.1500   63.3760 C   0  0  0  0  0  0  0  0  0  0  0  0
   41.4170   70.6060   64.0930 H   0  0  0  0  0  0  0  0  0  0  0  0
   43.0670   69.1520   63.3580 C   0  0  0  0  0  0  0  0  0  0  0  0
   43.2680   68.6380   64.3040 H   0  0  0  0  0  0  0  0  0  0  0  0
   43.5590   69.0740   62.0530 C   0  0  0  0  0  0  0  0  0  0  0  0
   44.3310   68.3350   61.8890 H   0  0  0  0  0  0  0  0  0  0  0  0
   42.9170   69.9700   61.3290 O   0  0  0  0  0  0  0  0  0  0  0  0
  1  2  2  0  0  0  0
  1  6  1  0  0  0  0
  2  3  1  0  0  0  0
  3  8  1  0  0  0  0
  3  4  2  0  0  0  0
  5  4  1  0  0  0  0
  5 20  1  0  0  0  0
  6  5  2  0  0  0  0
  7  1  1  0  0  0  0
  9  2  1  0  0  0  0
 10 17  1  0  0  0  0
 10  9  1  0  0  0  0
 11 10  2  0  0  0  0
 12 11  1  0  0  0  0
 12 14  1  0  0  0  0
 13 12  2  0  0  0  0
 14 15  1  0  0  0  0
 15  9  1  0  0  0  0
 15 16  2  0  0  0  0
 18 11  1  0  0  0  0
 19 14  1  0  0  0  0
 20 21  2  0  0  0  0
 21 22  1  0  0  0  0
 23 21  1  0  0  0  0
 23 24  1  0  0  0  0
 25 23  2  0  0  0  0
 26 25  1  0  0  0  0
 27 25  1  0  0  0  0
 27 20  1  0  0  0  0
M  END
>  <minimizedAffinity>
-5.26349974

$$$$

 OpenBabel03212520303D

 27 29  0  0  0  0  0  0  0  0999 V2000
   41.4160   71.5920   60.3930 C   0  0  0  0  0  0  0  0  0  0  0  0
   41.4190   72.7390   61.2040 C   0  0  0  0  0  0  0  0  0  0  0  0
   41.8820   72.6150   62.5210 C   0  0  0  0  0  0  0  0  0  0  0  0
   42.3010   71.3870   62.9370 N   0  0  0  0  0  0  0  0  0  0  0  0
   42.2820   70.3200   62.1330 C   0  0  0  0  0  0  0  0  0  0  0  0
   41.8440   70.4180   60.8710 N   0  0  0  0  0  0  0  0  0  0  0  0
   41.0540   71.7090   59.3780 H   0  0  0  0  0  0  0  0  0  0  0  0
   41.8960   73.4740   63.1630 H   0  0  0  0  0  0  0  0  0  0  0  0
   40.9590   73.9880   60.6800 N   0  0  0  0  0  0  0  0  0  0  0  0
   39.7310   74.3140   61.0790 C   0  0  0  0  0  0  0  0  0  0  0  0
   39.1940   75.5200   60.6190 C   0  0  0  0  0  0  0  0  0  0  0  0
   39.9510   76.3290   59.7680 C   0  0  0  0  0  0  0  0  0  0  0  0
   39.5510   77.4260   59.3050 O   0  0  0  0  0  0  0  0  0  0  0  0
   41.1910   75.9110   59.4160 N   0  0  0  0  0  0  0  0  0  0  0  0
   41.7280   74.7340   59.8610 C   0  0  0  0  0  0  0  0  0  0  0  0
   42.8700   74.3630   59.5290 O   0  0  0  0  0  0  0  0  0  0  0  0
   39.1180   73.7160   61.7350 H   0  0  0  0  0  0  0  0  0  0  0  0
   38.2070   75.8510   60.8990 H   0  0  0  0  0  0  0  0  0  0  0  0
   41.8150   76.4760   58.7760 H   0  0  0  0  0  0  0  0  0  0  0  0
   42.7190   68.9840   62.5240 C   0  0  0  0  0  0  0  0  0  0  0  0
   43.8990   68.4290   62.9890 C   0  0  0  0  0  0  0  0  0  0  0  0
   44.7490   69.0870   63.1200 H   0  0  0  0  0  0  0  0  0  0  0  0
   43.5970   67.0760   63.1580 C   0  0  0  0  0  0  0  0  0  0  0  0
   44.4020   66.4310   63.5270 H   0  0  0  0  0  0  0  0  0  0  0  0
   42.2630   66.8960   62.7870 C   0  0  0  0  0  0  0  0  0  0  0  0
   41.8880   65.8860   62.8690 H   0  0  0  0  0  0  0  0  0  0  0  0
   41.7890   68.0700   62.4170 O   0  0  0  0  0  0  0  0  0  0  0  0
  1  6  2  0  0  0  0
  1  2  1  0  0  0  0
  2  3  2  0  0  0  0
  3  4  1  0  0  0  0
  3  8  1  0  0  0  0
  5 20  1  0  0  0  0
  5  4  2  0  0  0  0
  6  5  1  0  0  0  0
  7  1  1  0  0  0  0
  9 10  1  0  0  0  0
  9  2  1  0  0  0  0
 10 17  1  0  0  0  0
 11 18  1  0  0  0  0
 11 10  2  0  0  0  0
 12 11  1  0  0  0  0
 13 12  2  0  0  0  0
 14 12  1  0  0  0  0
 14 15  1  0  0  0  0
 15  9  1  0  0  0  0
 16 15  2  0  0  0  0
 19 14  1  0  0  0  0
 20 21  2  0  0  0  0
 21 22  1  0  0  0  0
 21 23  1  0  0  0  0
 23 24  1  0  0  0  0
 25 26  1  0  0  0  0
 25 23  2  0  0  0  0
 27 20  1  0  0  0  0
 27 25  1  0  0  0  0
M  END
>  <minimizedAffinity>
-5.23923731

$$$$

 OpenBabel03212520303D

 27 29  0  0  0  0  0  0  0  0999 V2000
   42.0630   70.8160   60.2250 C   0  0  0  0  0  0  0  0  0  0  0  0
   42.1110   71.9560   61.0440 C   0  0  0  0  0  0  0  0  0  0  0  0
   42.0000   71.7780   62.4300 C   0  0  0  0  0  0  0  0  0  0  0  0
   41.8520   70.5080   62.9000 N   0  0  0  0  0  0  0  0  0  0  0  0
   41.8120   69.4490   62.0860 C   0  0  0  0  0  0  0  0  0  0  0  0
   41.9150   69.5990   60.7590 N   0  0  0  0  0  0  0  0  0  0  0  0
   42.1500   70.9750   59.1560 H   0  0  0  0  0  0  0  0  0  0  0  0
   42.0340   72.6310   63.0790 H   0  0  0  0  0  0  0  0  0  0  0  0
   42.2680   73.2520   60.4590 N   0  0  0  0  0  0  0  0  0  0  0  0
   41.1220   73.9110   60.3040 C   0  0  0  0  0  0  0  0  0  0  0  0
   41.1750   75.1890   59.7410 C   0  0  0  0  0  0  0  0  0  0  0  0
   42.4090   75.7230   59.3630 C   0  0  0  0  0  0  0  0  0  0  0  0
   42.5530   76.8600   58.8490 O   0  0  0  0  0  0  0  0  0  0  0  0
   43.5220   74.9750   59.5590 N   0  0  0  0  0  0  0  0  0  0  0  0
   43.4830   73.7240   60.1110 C   0  0  0  0  0  0  0  0  0  0  0  0
   44.5150   73.0480   60.2860 O   0  0  0  0  0  0  0  0  0  0  0  0
   40.1520   73.5310   60.5850 H   0  0  0  0  0  0  0  0  0  0  0  0
   40.2880   75.7830   59.5840 H   0  0  0  0  0  0  0  0  0  0  0  0
   44.4860   75.3210   59.2960 H   0  0  0  0  0  0  0  0  0  0  0  0
   41.6550   68.0690   62.5340 C   0  0  0  0  0  0  0  0  0  0  0  0
   40.8880   67.4230   63.4870 C   0  0  0  0  0  0  0  0  0  0  0  0
   40.2140   68.0250   64.0860 H   0  0  0  0  0  0  0  0  0  0  0  0
   41.2530   66.0800   63.3690 C   0  0  0  0  0  0  0  0  0  0  0  0
   40.7600   65.3710   64.0420 H   0  0  0  0  0  0  0  0  0  0  0  0
   42.2140   65.9970   62.3590 C   0  0  0  0  0  0  0  0  0  0  0  0
   42.5930   65.0060   62.1550 H   0  0  0  0  0  0  0  0  0  0  0  0
   42.4150   67.2160   61.8960 O   0  0  0  0  0  0  0  0  0  0  0  0
  1  6  2  0  0  0  0
  1  2  1  0  0  0  0
  2  3  2  0  0  0  0
  3  4  1  0  0  0  0
  3  8  1  0  0  0  0
  5 20  1  0  0  0  0
  5  4  2  0  0  0  0
  6  5  1  0  0  0  0
  7  1  1  0  0  0  0
  9  2  1  0  0  0  0
 10  9  1  0  0  0  0
 10 17  1  0  0  0  0
 11 10  2  0  0  0  0
 12 14  1  0  0  0  0
 12 11  1  0  0  0  0
 13 12  2  0  0  0  0
 14 15  1  0  0  0  0
 15 16  2  0  0  0  0
 15  9  1  0  0  0  0
 18 11  1  0  0  0  0
 19 14  1  0  0  0  0
 20 21  2  0  0  0  0
 21 22  1  0  0  0  0
 23 21  1  0  0  0  0
 23 24  1  0  0  0  0
 25 23  2  0  0  0  0
 26 25  1  0  0  0  0
 27 25  1  0  0  0  0
 27 20  1  0  0  0  0
M  END
>  <minimizedAffinity>
-5.12655687

$$$$

 OpenBabel03212520303D

 27 29  0  0  0  0  0  0  0  0999 V2000
   40.6940   73.2990   56.8490 C   0  0  0  0  0  0  0  0  0  0  0  0
   39.5480   73.3460   57.6590 C   0  0  0  0  0  0  0  0  0  0  0  0
   38.4820   72.4920   57.3450 C   0  0  0  0  0  0  0  0  0  0  0  0
   38.6230   71.6660   56.2700 N   0  0  0  0  0  0  0  0  0  0  0  0
   39.7320   71.6520   55.5250 C   0  0  0  0  0  0  0  0  0  0  0  0
   40.7610   72.4610   55.8090 N   0  0  0  0  0  0  0  0  0  0  0  0
   41.5070   73.9690   57.1090 H   0  0  0  0  0  0  0  0  0  0  0  0
   37.5950   72.5060   57.9460 H   0  0  0  0  0  0  0  0  0  0  0  0
   39.4910   74.2480   58.7680 N   0  0  0  0  0  0  0  0  0  0  0  0
   39.9940   73.7440   59.8930 C   0  0  0  0  0  0  0  0  0  0  0  0
   39.9830   74.5510   61.0330 C   0  0  0  0  0  0  0  0  0  0  0  0
   39.4500   75.8410   60.9570 C   0  0  0  0  0  0  0  0  0  0  0  0
   39.3960   76.6360   61.9280 O   0  0  0  0  0  0  0  0  0  0  0  0
   38.9580   76.2650   59.7680 N   0  0  0  0  0  0  0  0  0  0  0  0
   38.9650   75.4840   58.6450 C   0  0  0  0  0  0  0  0  0  0  0  0
   38.5100   75.8880   57.5570 O   0  0  0  0  0  0  0  0  0  0  0  0
   40.4150   72.7540   59.9890 H   0  0  0  0  0  0  0  0  0  0  0  0
   40.3730   74.2120   61.9790 H   0  0  0  0  0  0  0  0  0  0  0  0
   38.5420   77.2290   59.6430 H   0  0  0  0  0  0  0  0  0  0  0  0
   39.9370   70.7900   54.3650 C   0  0  0  0  0  0  0  0  0  0  0  0
   40.4460   69.5200   54.1590 C   0  0  0  0  0  0  0  0  0  0  0  0
   40.7980   68.9700   55.0250 H   0  0  0  0  0  0  0  0  0  0  0  0
   40.3380   69.3270   52.7800 C   0  0  0  0  0  0  0  0  0  0  0  0
   40.6900   68.3690   52.3850 H   0  0  0  0  0  0  0  0  0  0  0  0
   39.7740   70.4850   52.2400 C   0  0  0  0  0  0  0  0  0  0  0  0
   39.6300   70.4780   51.1690 H   0  0  0  0  0  0  0  0  0  0  0  0
   39.5560   71.3250   53.2340 O   0  0  0  0  0  0  0  0  0  0  0  0
  1  7  1  0  0  0  0
  1  2  1  0  0  0  0
  2  9  1  0  0  0  0
  3  2  2  0  0  0  0
  3  8  1  0  0  0  0
  4  3  1  0  0  0  0
  5  6  1  0  0  0  0
  5  4  2  0  0  0  0
  6  1  2  0  0  0  0
  9 10  1  0  0  0  0
 10 17  1  0  0  0  0
 10 11  2  0  0  0  0
 11 18  1  0  0  0  0
 12 11  1  0  0  0  0
 12 13  2  0  0  0  0
 14 12  1  0  0  0  0
 15  9  1  0  0  0  0
 15 14  1  0  0  0  0
 16 15  2  0  0  0  0
 19 14  1  0  0  0  0
 20  5  1  0  0  0  0
 21 20  2  0  0  0  0
 21 22  1  0  0  0  0
 23 21  1  0  0  0  0
 24 23  1  0  0  0  0
 25 23  2  0  0  0  0
 25 27  1  0  0  0  0
 26 25  1  0  0  0  0
 27 20  1  0  0  0  0
M  END
>  <minimizedAffinity>
-4.89856052

$$$$
