
 OpenBabel03212520043D

 40 44  0  0  0  0  0  0  0  0999 V2000
   40.7880   81.6880   57.2780 C   0  0  0  0  0  0  0  0  0  0  0  0
   41.9540   82.1390   56.6370 C   0  0  0  0  0  0  0  0  0  0  0  0
   42.7880   82.9770   57.3490 C   0  0  0  0  0  0  0  0  0  0  0  0
   42.4670   83.3380   58.6330 N   0  0  0  0  0  0  0  0  0  0  0  0
   41.3280   82.8760   59.2180 C   0  0  0  0  0  0  0  0  0  0  0  0
   40.4840   82.0490   58.5400 N   0  0  0  0  0  0  0  0  0  0  0  0
   40.0480   81.0360   56.8490 H   0  0  0  0  0  0  0  0  0  0  0  0
   42.0090   81.7020   55.6710 H   0  0  0  0  0  0  0  0  0  0  0  0
   39.6940   83.0660   61.0280 C   0  0  0  0  0  0  0  0  0  0  0  0
   41.0140   83.2300   60.5940 C   0  0  0  0  0  0  0  0  0  0  0  0
   42.0100   83.6980   61.4540 C   0  0  0  0  0  0  0  0  0  0  0  0
   41.7350   84.0170   62.7630 C   0  0  0  0  0  0  0  0  0  0  0  0
   42.3980   84.4670   63.8350 N   0  0  0  0  0  0  0  0  0  0  0  0
   41.5680   84.5900   64.9010 C   0  0  0  0  0  0  0  0  0  0  0  0
   40.3700   84.1980   64.4450 N   0  0  0  0  0  0  0  0  0  0  0  0
   40.4330   83.8420   63.1510 C   0  0  0  0  0  0  0  0  0  0  0  0
   39.3900   83.3830   62.3560 C   0  0  0  0  0  0  0  0  0  0  0  0
   38.9110   82.7060   60.3770 H   0  0  0  0  0  0  0  0  0  0  0  0
   43.0320   83.8210   61.1030 H   0  0  0  0  0  0  0  0  0  0  0  0
   43.4320   84.6710   63.7560 H   0  0  0  0  0  0  0  0  0  0  0  0
   41.9040   84.9410   65.8700 H   0  0  0  0  0  0  0  0  0  0  0  0
   38.3870   83.2780   62.7530 H   0  0  0  0  0  0  0  0  0  0  0  0
   42.5010   84.2800   54.6970 Cl  0  0  0  0  0  0  0  0  0  0  0  0
   44.0270   84.0990   55.5340 C   0  0  0  0  0  0  0  0  0  0  0  0
   44.0040   83.4860   56.7600 C   0  0  0  0  0  0  0  0  0  0  0  0
   45.2520   83.3960   57.3700 C   0  0  0  0  0  0  0  0  0  0  0  0
   46.4150   83.8720   56.8090 C   0  0  0  0  0  0  0  0  0  0  0  0
   46.3740   84.4740   55.5780 C   0  0  0  0  0  0  0  0  0  0  0  0
   47.8510   85.0720   54.8400 Cl  0  0  0  0  0  0  0  0  0  0  0  0
   45.1580   84.5890   54.9330 C   0  0  0  0  0  0  0  0  0  0  0  0
   45.3290   82.9270   58.3410 H   0  0  0  0  0  0  0  0  0  0  0  0
   47.3660   83.7820   57.3170 H   0  0  0  0  0  0  0  0  0  0  0  0
   45.2170   85.2430   53.6310 C   0  0  0  0  0  0  0  0  0  0  0  0
   45.3460   84.7370   52.3650 C   0  0  0  0  0  0  0  0  0  0  0  0
   45.4360   83.7240   52.0370 H   0  0  0  0  0  0  0  0  0  0  0  0
   45.3580   85.7170   51.4010 C   0  0  0  0  0  0  0  0  0  0  0  0
   45.4430   85.6850   50.3270 H   0  0  0  0  0  0  0  0  0  0  0  0
   45.2290   86.8510   52.1650 C   0  0  0  0  0  0  0  0  0  0  0  0
   45.1840   87.8980   51.8840 H   0  0  0  0  0  0  0  0  0  0  0  0
   45.1530   86.5300   53.4020 O   0  0  0  0  0  0  0  0  0  0  0  0
  1  6  1  0  0  0  0
  2  1  2  0  0  0  0
  2  3  1  0  0  0  0
  3  4  2  0  0  0  0
  4  5  1  0  0  0  0
  5 10  1  0  0  0  0
  6  5  2  0  0  0  0
  7  1  1  0  0  0  0
  8  2  1  0  0  0  0
  9 17  1  0  0  0  0
 10  9  2  0  0  0  0
 10 11  1  0  0  0  0
 11 12  2  0  0  0  0
 12 16  1  0  0  0  0
 12 13  1  0  0  0  0
 13 14  1  0  0  0  0
 14 21  1  0  0  0  0
 15 14  2  0  0  0  0
 16 15  1  0  0  0  0
 17 22  1  0  0  0  0
 17 16  2  0  0  0  0
 18  9  1  0  0  0  0
 19 11  1  0  0  0  0
 20 13  1  0  0  0  0
 23 24  1  0  0  0  0
 24 25  1  0  0  0  0
 25  3  1  0  0  0  0
 25 26  2  0  0  0  0
 26 31  1  0  0  0  0
 27 32  1  0  0  0  0
 27 26  1  0  0  0  0
 28 27  2  0  0  0  0
 29 28  1  0  0  0  0
 30 24  2  0  0  0  0
 30 28  1  0  0  0  0
 33 30  1  0  0  0  0
 34 33  2  0  0  0  0
 35 34  1  0  0  0  0
 36 38  2  0  0  0  0
 36 34  1  0  0  0  0
 37 36  1  0  0  0  0
 38 40  1  0  0  0  0
 39 38  1  0  0  0  0
 40 33  1  0  0  0  0
M  END
>  <minimizedAffinity>
-5.01933575

>  <minimizedRMSD>
0.659887135

$$$$
