
 OpenBabel03212521073D

 35 38  0  0  0  0  0  0  0  0999 V2000
   41.8270   84.2420   61.5750 C   0  0  0  0  0  0  0  0  0  0  0  0
   41.4490   83.9680   62.8840 C   0  0  0  0  0  0  0  0  0  0  0  0
   40.1700   83.5530   63.2090 C   0  0  0  0  0  0  0  0  0  0  0  0
   39.2350   83.4040   62.1940 C   0  0  0  0  0  0  0  0  0  0  0  0
   39.6000   83.6750   60.8730 C   0  0  0  0  0  0  0  0  0  0  0  0
   40.8810   84.0890   60.5640 C   0  0  0  0  0  0  0  0  0  0  0  0
   42.1330   84.0650   63.7290 H   0  0  0  0  0  0  0  0  0  0  0  0
   39.8400   83.3320   64.2120 H   0  0  0  0  0  0  0  0  0  0  0  0
   38.1970   83.0840   62.3190 H   0  0  0  0  0  0  0  0  0  0  0  0
   38.8800   83.5640   60.0640 H   0  0  0  0  0  0  0  0  0  0  0  0
   45.3710   84.1300   60.7280 C   0  0  0  0  0  0  0  0  0  0  0  0
   45.7540   85.4580   60.7630 C   0  0  0  0  0  0  0  0  0  0  0  0
   44.7670   86.4200   61.0860 C   0  0  0  0  0  0  0  0  0  0  0  0
   43.5100   85.9820   61.3420 N   0  0  0  0  0  0  0  0  0  0  0  0
   43.1710   84.6710   61.2980 C   0  0  0  0  0  0  0  0  0  0  0  0
   44.1080   83.7640   60.9920 N   0  0  0  0  0  0  0  0  0  0  0  0
   46.1670   83.4430   60.4750 H   0  0  0  0  0  0  0  0  0  0  0  0
   46.7020   85.9030   60.5800 H   0  0  0  0  0  0  0  0  0  0  0  0
   44.8670   87.4930   61.1640 H   0  0  0  0  0  0  0  0  0  0  0  0
   41.2180   84.3590   59.1880 C   0  0  0  0  0  0  0  0  0  0  0  0
   40.7710   85.6260   58.7870 C   0  0  0  0  0  0  0  0  0  0  0  0
   40.9960   86.0810   57.4920 C   0  0  0  0  0  0  0  0  0  0  0  0
   41.6500   85.2640   56.6520 N   0  0  0  0  0  0  0  0  0  0  0  0
   42.0770   84.0380   57.0520 C   0  0  0  0  0  0  0  0  0  0  0  0
   41.8660   83.5860   58.3030 N   0  0  0  0  0  0  0  0  0  0  0  0
   40.2310   86.3480   59.4130 H   0  0  0  0  0  0  0  0  0  0  0  0
   40.6820   87.0310   57.1280 H   0  0  0  0  0  0  0  0  0  0  0  0
   42.7820   83.1960   56.0990 C   0  0  0  0  0  0  0  0  0  0  0  0
   43.2040   81.9540   56.5790 C   0  0  0  0  0  0  0  0  0  0  0  0
   43.1260   81.4460   57.5460 H   0  0  0  0  0  0  0  0  0  0  0  0
   43.8550   81.2920   55.5320 C   0  0  0  0  0  0  0  0  0  0  0  0
   44.3230   80.3170   55.4910 H   0  0  0  0  0  0  0  0  0  0  0  0
   43.7790   82.1990   54.4690 C   0  0  0  0  0  0  0  0  0  0  0  0
   44.1740   82.0390   53.4850 H   0  0  0  0  0  0  0  0  0  0  0  0
   43.1490   83.2890   54.8370 O   0  0  0  0  0  0  0  0  0  0  0  0
  1  2  1  0  0  0  0
  2  3  2  0  0  0  0
  2  7  1  0  0  0  0
  3  8  1  0  0  0  0
  4  9  1  0  0  0  0
  4  3  1  0  0  0  0
  5  4  2  0  0  0  0
  6  5  1  0  0  0  0
  6  1  2  0  0  0  0
 10  5  1  0  0  0  0
 11 12  2  0  0  0  0
 11 16  1  0  0  0  0
 12 13  1  0  0  0  0
 13 19  1  0  0  0  0
 13 14  2  0  0  0  0
 15 14  1  0  0  0  0
 15  1  1  0  0  0  0
 16 15  2  0  0  0  0
 17 11  1  0  0  0  0
 18 12  1  0  0  0  0
 20  6  1  0  0  0  0
 21 20  1  0  0  0  0
 21 26  1  0  0  0  0
 22 21  2  0  0  0  0
 23 24  2  0  0  0  0
 23 22  1  0  0  0  0
 24 25  1  0  0  0  0
 25 20  2  0  0  0  0
 27 22  1  0  0  0  0
 28 29  2  0  0  0  0
 28 24  1  0  0  0  0
 29 30  1  0  0  0  0
 31 29  1  0  0  0  0
 32 31  1  0  0  0  0
 33 35  1  0  0  0  0
 33 31  2  0  0  0  0
 34 33  1  0  0  0  0
 35 28  1  0  0  0  0
M  END
>  <minimizedAffinity>
-5.24201918

>  <minimizedRMSD>
0.0950351804

$$$$
