
 OpenBabel03212520053D

 40 44  0  0  0  0  0  0  0  0999 V2000
   40.7510   81.8060   57.1080 C   0  0  0  0  0  0  0  0  0  0  0  0
   41.8580   82.3470   56.4320 C   0  0  0  0  0  0  0  0  0  0  0  0
   42.6610   83.2260   57.1290 C   0  0  0  0  0  0  0  0  0  0  0  0
   42.3680   83.5420   58.4320 N   0  0  0  0  0  0  0  0  0  0  0  0
   41.2860   82.9930   59.0490 C   0  0  0  0  0  0  0  0  0  0  0  0
   40.4730   82.1240   58.3880 N   0  0  0  0  0  0  0  0  0  0  0  0
   40.0400   81.1140   56.6940 H   0  0  0  0  0  0  0  0  0  0  0  0
   41.9050   81.9320   55.4560 H   0  0  0  0  0  0  0  0  0  0  0  0
   39.6980   83.1050   60.9050 C   0  0  0  0  0  0  0  0  0  0  0  0
   41.0030   83.3000   60.4440 C   0  0  0  0  0  0  0  0  0  0  0  0
   42.0150   83.7550   61.2920 C   0  0  0  0  0  0  0  0  0  0  0  0
   41.7700   84.0290   62.6170 C   0  0  0  0  0  0  0  0  0  0  0  0
   42.4560   84.4560   63.6860 N   0  0  0  0  0  0  0  0  0  0  0  0
   41.6520   84.5350   64.7750 C   0  0  0  0  0  0  0  0  0  0  0  0
   40.4470   84.1410   64.3380 N   0  0  0  0  0  0  0  0  0  0  0  0
   40.4820   83.8250   63.0330 C   0  0  0  0  0  0  0  0  0  0  0  0
   39.4240   83.3770   62.2500 C   0  0  0  0  0  0  0  0  0  0  0  0
   38.9020   82.7550   60.2640 H   0  0  0  0  0  0  0  0  0  0  0  0
   43.0260   83.9020   60.9190 H   0  0  0  0  0  0  0  0  0  0  0  0
   43.4840   84.6760   63.5860 H   0  0  0  0  0  0  0  0  0  0  0  0
   42.0080   84.8600   65.7460 H   0  0  0  0  0  0  0  0  0  0  0  0
   38.4320   83.2470   62.6700 H   0  0  0  0  0  0  0  0  0  0  0  0
   42.4340   83.7630   54.2180 Cl  0  0  0  0  0  0  0  0  0  0  0  0
   43.8610   84.1180   55.1660 C   0  0  0  0  0  0  0  0  0  0  0  0
   43.8160   83.8260   56.5050 C   0  0  0  0  0  0  0  0  0  0  0  0
   44.9810   84.1540   57.1940 C   0  0  0  0  0  0  0  0  0  0  0  0
   46.0880   84.7190   56.6010 C   0  0  0  0  0  0  0  0  0  0  0  0
   46.0720   84.9850   55.2560 C   0  0  0  0  0  0  0  0  0  0  0  0
   47.4830   85.6900   54.4820 Cl  0  0  0  0  0  0  0  0  0  0  0  0
   44.9380   84.6800   54.5300 C   0  0  0  0  0  0  0  0  0  0  0  0
   45.0360   83.9600   58.2550 H   0  0  0  0  0  0  0  0  0  0  0  0
   46.9740   84.9590   57.1720 H   0  0  0  0  0  0  0  0  0  0  0  0
   45.0180   85.0000   53.1100 C   0  0  0  0  0  0  0  0  0  0  0  0
   44.6430   86.1160   52.4070 C   0  0  0  0  0  0  0  0  0  0  0  0
   44.1960   87.0230   52.7490 H   0  0  0  0  0  0  0  0  0  0  0  0
   44.8980   86.0040   51.0610 C   0  0  0  0  0  0  0  0  0  0  0  0
   44.7380   86.6710   50.2290 H   0  0  0  0  0  0  0  0  0  0  0  0
   45.4530   84.7490   50.9920 C   0  0  0  0  0  0  0  0  0  0  0  0
   45.8290   84.1810   50.1470 H   0  0  0  0  0  0  0  0  0  0  0  0
   45.4960   84.2340   52.1630 O   0  0  0  0  0  0  0  0  0  0  0  0
  1  6  1  0  0  0  0
  2  1  2  0  0  0  0
  2  3  1  0  0  0  0
  3  4  2  0  0  0  0
  4  5  1  0  0  0  0
  5 10  1  0  0  0  0
  6  5  2  0  0  0  0
  7  1  1  0  0  0  0
  8  2  1  0  0  0  0
  9 17  1  0  0  0  0
 10  9  2  0  0  0  0
 10 11  1  0  0  0  0
 11 12  2  0  0  0  0
 12 16  1  0  0  0  0
 12 13  1  0  0  0  0
 13 14  1  0  0  0  0
 14 21  1  0  0  0  0
 15 14  2  0  0  0  0
 16 15  1  0  0  0  0
 17 22  1  0  0  0  0
 17 16  2  0  0  0  0
 18  9  1  0  0  0  0
 19 11  1  0  0  0  0
 20 13  1  0  0  0  0
 23 24  1  0  0  0  0
 24 25  1  0  0  0  0
 25  3  1  0  0  0  0
 25 26  2  0  0  0  0
 26 31  1  0  0  0  0
 27 32  1  0  0  0  0
 27 26  1  0  0  0  0
 28 27  2  0  0  0  0
 29 28  1  0  0  0  0
 30 24  2  0  0  0  0
 30 28  1  0  0  0  0
 33 30  1  0  0  0  0
 34 35  1  0  0  0  0
 34 33  2  0  0  0  0
 36 34  1  0  0  0  0
 37 36  1  0  0  0  0
 38 36  2  0  0  0  0
 38 40  1  0  0  0  0
 39 38  1  0  0  0  0
 40 33  1  0  0  0  0
M  END
>  <minimizedAffinity>
-4.97675323

>  <minimizedRMSD>
0.219527915

$$$$
