
 OpenBabel03212520053D

 40 44  0  0  0  0  0  0  0  0999 V2000
   40.1370   81.0370   57.4390 C   0  0  0  0  0  0  0  0  0  0  0  0
   41.3160   81.2030   56.6930 C   0  0  0  0  0  0  0  0  0  0  0  0
   42.3330   81.9390   57.2660 C   0  0  0  0  0  0  0  0  0  0  0  0
   42.1730   82.4750   58.5190 N   0  0  0  0  0  0  0  0  0  0  0  0
   41.0140   82.2870   59.2080 C   0  0  0  0  0  0  0  0  0  0  0  0
   39.9910   81.5680   58.6690 N   0  0  0  0  0  0  0  0  0  0  0  0
   39.2650   80.4940   57.1210 H   0  0  0  0  0  0  0  0  0  0  0  0
   41.2240   80.6720   55.7780 H   0  0  0  0  0  0  0  0  0  0  0  0
   39.5740   82.9290   61.0770 C   0  0  0  0  0  0  0  0  0  0  0  0
   40.8660   82.8230   60.5540 C   0  0  0  0  0  0  0  0  0  0  0  0
   41.9870   83.1980   61.2990 C   0  0  0  0  0  0  0  0  0  0  0  0
   41.8660   83.6860   62.5780 C   0  0  0  0  0  0  0  0  0  0  0  0
   42.6720   84.1210   63.5550 N   0  0  0  0  0  0  0  0  0  0  0  0
   41.9550   84.4880   64.6460 C   0  0  0  0  0  0  0  0  0  0  0  0
   40.6780   84.2630   64.3050 N   0  0  0  0  0  0  0  0  0  0  0  0
   40.5860   83.7740   63.0570 C   0  0  0  0  0  0  0  0  0  0  0  0
   39.4260   83.4240   62.3780 C   0  0  0  0  0  0  0  0  0  0  0  0
   38.6960   82.6460   60.5160 H   0  0  0  0  0  0  0  0  0  0  0  0
   42.9850   83.1100   60.8780 H   0  0  0  0  0  0  0  0  0  0  0  0
   43.7160   84.1370   63.3940 H   0  0  0  0  0  0  0  0  0  0  0  0
   42.4150   84.8700   65.5500 H   0  0  0  0  0  0  0  0  0  0  0  0
   38.4510   83.5310   62.8410 H   0  0  0  0  0  0  0  0  0  0  0  0
   42.4870   84.4160   55.6380 Cl  0  0  0  0  0  0  0  0  0  0  0  0
   43.7860   83.2490   55.7630 C   0  0  0  0  0  0  0  0  0  0  0  0
   43.5750   82.1570   56.5630 C   0  0  0  0  0  0  0  0  0  0  0  0
   44.6590   81.2850   56.6250 C   0  0  0  0  0  0  0  0  0  0  0  0
   45.8420   81.4850   55.9500 C   0  0  0  0  0  0  0  0  0  0  0  0
   45.9910   82.5980   55.1630 C   0  0  0  0  0  0  0  0  0  0  0  0
   47.4870   82.8580   54.2820 Cl  0  0  0  0  0  0  0  0  0  0  0  0
   44.9440   83.4930   55.0710 C   0  0  0  0  0  0  0  0  0  0  0  0
   44.5830   80.3950   57.2340 H   0  0  0  0  0  0  0  0  0  0  0  0
   46.6610   80.7830   56.0250 H   0  0  0  0  0  0  0  0  0  0  0  0
   45.1980   84.6430   54.2110 C   0  0  0  0  0  0  0  0  0  0  0  0
   45.8410   85.8300   54.4480 C   0  0  0  0  0  0  0  0  0  0  0  0
   46.3110   86.1900   55.3360 H   0  0  0  0  0  0  0  0  0  0  0  0
   45.8580   86.6520   53.3460 C   0  0  0  0  0  0  0  0  0  0  0  0
   46.2650   87.6340   53.1740 H   0  0  0  0  0  0  0  0  0  0  0  0
   45.1830   85.8860   52.4240 C   0  0  0  0  0  0  0  0  0  0  0  0
   44.9240   86.0800   51.3890 H   0  0  0  0  0  0  0  0  0  0  0  0
   44.8380   84.7760   52.9600 O   0  0  0  0  0  0  0  0  0  0  0  0
  1  6  1  0  0  0  0
  2  3  1  0  0  0  0
  2  1  2  0  0  0  0
  3  4  2  0  0  0  0
  4  5  1  0  0  0  0
  5 10  1  0  0  0  0
  6  5  2  0  0  0  0
  7  1  1  0  0  0  0
  8  2  1  0  0  0  0
  9 17  1  0  0  0  0
 10  9  2  0  0  0  0
 10 11  1  0  0  0  0
 11 12  2  0  0  0  0
 12 16  1  0  0  0  0
 12 13  1  0  0  0  0
 13 14  1  0  0  0  0
 14 21  1  0  0  0  0
 15 14  2  0  0  0  0
 16 15  1  0  0  0  0
 17 22  1  0  0  0  0
 17 16  2  0  0  0  0
 18  9  1  0  0  0  0
 19 11  1  0  0  0  0
 20 13  1  0  0  0  0
 23 24  1  0  0  0  0
 24 25  1  0  0  0  0
 25 26  2  0  0  0  0
 25  3  1  0  0  0  0
 26 31  1  0  0  0  0
 27 32  1  0  0  0  0
 27 26  1  0  0  0  0
 28 27  2  0  0  0  0
 29 28  1  0  0  0  0
 30 28  1  0  0  0  0
 30 24  2  0  0  0  0
 33 34  2  0  0  0  0
 33 30  1  0  0  0  0
 34 35  1  0  0  0  0
 36 34  1  0  0  0  0
 37 36  1  0  0  0  0
 38 40  1  0  0  0  0
 38 36  2  0  0  0  0
 39 38  1  0  0  0  0
 40 33  1  0  0  0  0
M  END
>  <minimizedAffinity>
-4.59599972

>  <minimizedRMSD>
1.68317389

$$$$
