
 OpenBabel03212521073D

 35 38  0  0  0  0  0  0  0  0999 V2000
   41.8140   84.2400   61.5710 C   0  0  0  0  0  0  0  0  0  0  0  0
   41.4600   83.9670   62.8880 C   0  0  0  0  0  0  0  0  0  0  0  0
   40.1880   83.5490   63.2350 C   0  0  0  0  0  0  0  0  0  0  0  0
   39.2370   83.3960   62.2360 C   0  0  0  0  0  0  0  0  0  0  0  0
   39.5770   83.6650   60.9080 C   0  0  0  0  0  0  0  0  0  0  0  0
   40.8520   84.0830   60.5770 C   0  0  0  0  0  0  0  0  0  0  0  0
   42.1580   84.0660   63.7200 H   0  0  0  0  0  0  0  0  0  0  0  0
   39.8760   83.3280   64.2440 H   0  0  0  0  0  0  0  0  0  0  0  0
   38.2020   83.0730   62.3790 H   0  0  0  0  0  0  0  0  0  0  0  0
   38.8440   83.5520   60.1120 H   0  0  0  0  0  0  0  0  0  0  0  0
   45.3230   84.1470   60.5840 C   0  0  0  0  0  0  0  0  0  0  0  0
   45.7230   85.4660   60.6880 C   0  0  0  0  0  0  0  0  0  0  0  0
   44.7600   86.4160   61.1080 C   0  0  0  0  0  0  0  0  0  0  0  0
   43.5090   85.9740   61.3840 N   0  0  0  0  0  0  0  0  0  0  0  0
   43.1530   84.6720   61.2710 C   0  0  0  0  0  0  0  0  0  0  0  0
   44.0660   83.7780   60.8730 N   0  0  0  0  0  0  0  0  0  0  0  0
   46.1010   83.4700   60.2580 H   0  0  0  0  0  0  0  0  0  0  0  0
   46.6690   85.9120   60.4980 H   0  0  0  0  0  0  0  0  0  0  0  0
   44.8760   87.4810   61.2490 H   0  0  0  0  0  0  0  0  0  0  0  0
   41.1640   84.3520   59.1950 C   0  0  0  0  0  0  0  0  0  0  0  0
   40.8530   85.6740   58.8440 C   0  0  0  0  0  0  0  0  0  0  0  0
   41.0800   86.1370   57.5520 C   0  0  0  0  0  0  0  0  0  0  0  0
   41.6010   85.2740   56.6660 N   0  0  0  0  0  0  0  0  0  0  0  0
   41.8970   83.9950   57.0180 C   0  0  0  0  0  0  0  0  0  0  0  0
   41.6830   83.5350   58.2650 N   0  0  0  0  0  0  0  0  0  0  0  0
   40.4270   86.4350   59.5100 H   0  0  0  0  0  0  0  0  0  0  0  0
   40.8650   87.1280   57.2250 H   0  0  0  0  0  0  0  0  0  0  0  0
   42.4600   83.1060   56.0150 C   0  0  0  0  0  0  0  0  0  0  0  0
   41.6590   82.0230   55.6430 C   0  0  0  0  0  0  0  0  0  0  0  0
   40.6640   81.6730   55.9440 H   0  0  0  0  0  0  0  0  0  0  0  0
   42.3580   81.2870   54.6810 C   0  0  0  0  0  0  0  0  0  0  0  0
   42.0900   80.3860   54.1440 H   0  0  0  0  0  0  0  0  0  0  0  0
   43.5580   81.9900   54.5340 C   0  0  0  0  0  0  0  0  0  0  0  0
   44.3600   81.7250   53.8720 H   0  0  0  0  0  0  0  0  0  0  0  0
   43.5790   83.0380   55.3240 O   0  0  0  0  0  0  0  0  0  0  0  0
  1  2  1  0  0  0  0
  2  3  2  0  0  0  0
  2  7  1  0  0  0  0
  3  8  1  0  0  0  0
  4  9  1  0  0  0  0
  4  3  1  0  0  0  0
  5  4  2  0  0  0  0
  6  5  1  0  0  0  0
  6  1  2  0  0  0  0
 10  5  1  0  0  0  0
 11 12  2  0  0  0  0
 11 16  1  0  0  0  0
 12 13  1  0  0  0  0
 13 19  1  0  0  0  0
 13 14  2  0  0  0  0
 15 14  1  0  0  0  0
 15  1  1  0  0  0  0
 16 15  2  0  0  0  0
 17 11  1  0  0  0  0
 18 12  1  0  0  0  0
 20  6  1  0  0  0  0
 21 20  1  0  0  0  0
 21 26  1  0  0  0  0
 22 21  2  0  0  0  0
 23 24  2  0  0  0  0
 23 22  1  0  0  0  0
 24 25  1  0  0  0  0
 25 20  2  0  0  0  0
 27 22  1  0  0  0  0
 28 24  1  0  0  0  0
 29 30  1  0  0  0  0
 29 28  2  0  0  0  0
 31 29  1  0  0  0  0
 32 31  1  0  0  0  0
 33 31  2  0  0  0  0
 33 35  1  0  0  0  0
 34 33  1  0  0  0  0
 35 28  1  0  0  0  0
M  END
>  <minimizedAffinity>
-5.41670752

>  <minimizedRMSD>
0.347286016

$$$$
