
 OpenBabel03212521073D

 35 38  0  0  0  0  0  0  0  0999 V2000
   41.8250   84.2440   61.5590 C   0  0  0  0  0  0  0  0  0  0  0  0
   41.4740   83.9370   62.8690 C   0  0  0  0  0  0  0  0  0  0  0  0
   40.2030   83.5100   63.2080 C   0  0  0  0  0  0  0  0  0  0  0  0
   39.2490   83.3820   62.2080 C   0  0  0  0  0  0  0  0  0  0  0  0
   39.5870   83.6870   60.8860 C   0  0  0  0  0  0  0  0  0  0  0  0
   40.8610   84.1130   60.5640 C   0  0  0  0  0  0  0  0  0  0  0  0
   42.1740   84.0150   63.7020 H   0  0  0  0  0  0  0  0  0  0  0  0
   39.8930   83.2630   64.2120 H   0  0  0  0  0  0  0  0  0  0  0  0
   38.2150   83.0560   62.3450 H   0  0  0  0  0  0  0  0  0  0  0  0
   38.8520   83.5930   60.0890 H   0  0  0  0  0  0  0  0  0  0  0  0
   45.3470   84.1690   60.6150 C   0  0  0  0  0  0  0  0  0  0  0  0
   45.7320   85.4940   60.7010 C   0  0  0  0  0  0  0  0  0  0  0  0
   44.7560   86.4410   61.0940 C   0  0  0  0  0  0  0  0  0  0  0  0
   43.5050   85.9920   61.3620 N   0  0  0  0  0  0  0  0  0  0  0  0
   43.1630   84.6840   61.2680 C   0  0  0  0  0  0  0  0  0  0  0  0
   44.0890   83.7920   60.8950 N   0  0  0  0  0  0  0  0  0  0  0  0
   46.1340   83.4940   60.3100 H   0  0  0  0  0  0  0  0  0  0  0  0
   46.6760   85.9460   60.5140 H   0  0  0  0  0  0  0  0  0  0  0  0
   44.8600   87.5090   61.2180 H   0  0  0  0  0  0  0  0  0  0  0  0
   41.1700   84.4180   59.1880 C   0  0  0  0  0  0  0  0  0  0  0  0
   40.7280   85.7000   58.8330 C   0  0  0  0  0  0  0  0  0  0  0  0
   40.9300   86.1890   57.5460 C   0  0  0  0  0  0  0  0  0  0  0  0
   41.5560   85.3890   56.6700 N   0  0  0  0  0  0  0  0  0  0  0  0
   41.9780   84.1470   57.0260 C   0  0  0  0  0  0  0  0  0  0  0  0
   41.7900   83.6630   58.2680 N   0  0  0  0  0  0  0  0  0  0  0  0
   40.2110   86.4100   59.4910 H   0  0  0  0  0  0  0  0  0  0  0  0
   40.6180   87.1530   57.2160 H   0  0  0  0  0  0  0  0  0  0  0  0
   42.6520   83.3250   56.0330 C   0  0  0  0  0  0  0  0  0  0  0  0
   42.6200   83.8060   54.7220 C   0  0  0  0  0  0  0  0  0  0  0  0
   42.1900   84.6940   54.2470 H   0  0  0  0  0  0  0  0  0  0  0  0
   43.3110   82.8930   53.9170 C   0  0  0  0  0  0  0  0  0  0  0  0
   43.5130   82.8960   52.8540 H   0  0  0  0  0  0  0  0  0  0  0  0
   43.7190   81.9040   54.8170 C   0  0  0  0  0  0  0  0  0  0  0  0
   44.2830   81.0260   54.5640 H   0  0  0  0  0  0  0  0  0  0  0  0
   43.3190   82.1900   56.0330 O   0  0  0  0  0  0  0  0  0  0  0  0
  1  2  1  0  0  0  0
  2  3  2  0  0  0  0
  2  7  1  0  0  0  0
  3  8  1  0  0  0  0
  4  9  1  0  0  0  0
  4  3  1  0  0  0  0
  5  4  2  0  0  0  0
  6  5  1  0  0  0  0
  6  1  2  0  0  0  0
 10  5  1  0  0  0  0
 11 12  2  0  0  0  0
 11 16  1  0  0  0  0
 12 13  1  0  0  0  0
 13 19  1  0  0  0  0
 13 14  2  0  0  0  0
 15 14  1  0  0  0  0
 15  1  1  0  0  0  0
 16 15  2  0  0  0  0
 17 11  1  0  0  0  0
 18 12  1  0  0  0  0
 20  6  1  0  0  0  0
 21 20  1  0  0  0  0
 21 26  1  0  0  0  0
 22 21  2  0  0  0  0
 23 24  2  0  0  0  0
 23 22  1  0  0  0  0
 24 25  1  0  0  0  0
 25 20  2  0  0  0  0
 27 22  1  0  0  0  0
 28 24  1  0  0  0  0
 29 28  2  0  0  0  0
 30 29  1  0  0  0  0
 31 29  1  0  0  0  0
 31 33  2  0  0  0  0
 32 31  1  0  0  0  0
 33 35  1  0  0  0  0
 34 33  1  0  0  0  0
 35 28  1  0  0  0  0
M  END
>  <minimizedAffinity>
-5.37493277

>  <minimizedRMSD>
0.220596701

$$$$
