
 OpenBabel03212520053D

 40 44  0  0  0  0  0  0  0  0999 V2000
   40.1410   81.0310   57.4360 C   0  0  0  0  0  0  0  0  0  0  0  0
   41.3170   81.2030   56.6880 C   0  0  0  0  0  0  0  0  0  0  0  0
   42.3320   81.9440   57.2580 C   0  0  0  0  0  0  0  0  0  0  0  0
   42.1720   82.4790   58.5110 N   0  0  0  0  0  0  0  0  0  0  0  0
   41.0160   82.2860   59.2040 C   0  0  0  0  0  0  0  0  0  0  0  0
   39.9950   81.5610   58.6670 N   0  0  0  0  0  0  0  0  0  0  0  0
   39.2710   80.4830   57.1210 H   0  0  0  0  0  0  0  0  0  0  0  0
   41.2260   80.6710   55.7730 H   0  0  0  0  0  0  0  0  0  0  0  0
   39.5750   82.9290   61.0720 C   0  0  0  0  0  0  0  0  0  0  0  0
   40.8680   82.8220   60.5490 C   0  0  0  0  0  0  0  0  0  0  0  0
   41.9890   83.1950   61.2940 C   0  0  0  0  0  0  0  0  0  0  0  0
   41.8680   83.6830   62.5740 C   0  0  0  0  0  0  0  0  0  0  0  0
   42.6750   84.1170   63.5510 N   0  0  0  0  0  0  0  0  0  0  0  0
   41.9580   84.4840   64.6420 C   0  0  0  0  0  0  0  0  0  0  0  0
   40.6810   84.2600   64.3010 N   0  0  0  0  0  0  0  0  0  0  0  0
   40.5880   83.7730   63.0530 C   0  0  0  0  0  0  0  0  0  0  0  0
   39.4280   83.4230   62.3730 C   0  0  0  0  0  0  0  0  0  0  0  0
   38.6970   82.6460   60.5110 H   0  0  0  0  0  0  0  0  0  0  0  0
   42.9880   83.1060   60.8740 H   0  0  0  0  0  0  0  0  0  0  0  0
   43.7190   84.1320   63.3910 H   0  0  0  0  0  0  0  0  0  0  0  0
   42.4180   84.8660   65.5460 H   0  0  0  0  0  0  0  0  0  0  0  0
   38.4530   83.5310   62.8370 H   0  0  0  0  0  0  0  0  0  0  0  0
   42.4720   84.4250   55.6360 Cl  0  0  0  0  0  0  0  0  0  0  0  0
   43.7750   83.2630   55.7540 C   0  0  0  0  0  0  0  0  0  0  0  0
   43.5710   82.1680   56.5520 C   0  0  0  0  0  0  0  0  0  0  0  0
   44.6580   81.3000   56.6100 C   0  0  0  0  0  0  0  0  0  0  0  0
   45.8390   81.5050   55.9320 C   0  0  0  0  0  0  0  0  0  0  0  0
   45.9810   82.6210   55.1470 C   0  0  0  0  0  0  0  0  0  0  0  0
   47.4750   82.8890   54.2620 Cl  0  0  0  0  0  0  0  0  0  0  0  0
   44.9310   83.5130   55.0590 C   0  0  0  0  0  0  0  0  0  0  0  0
   44.5880   80.4090   57.2170 H   0  0  0  0  0  0  0  0  0  0  0  0
   46.6600   80.8060   56.0030 H   0  0  0  0  0  0  0  0  0  0  0  0
   45.1780   84.6650   54.2010 C   0  0  0  0  0  0  0  0  0  0  0  0
   45.8440   85.8420   54.4290 C   0  0  0  0  0  0  0  0  0  0  0  0
   46.3420   86.1890   55.3070 H   0  0  0  0  0  0  0  0  0  0  0  0
   45.8420   86.6710   53.3330 C   0  0  0  0  0  0  0  0  0  0  0  0
   46.2580   87.6500   53.1570 H   0  0  0  0  0  0  0  0  0  0  0  0
   45.1330   85.9220   52.4260 C   0  0  0  0  0  0  0  0  0  0  0  0
   44.8500   86.1280   51.3970 H   0  0  0  0  0  0  0  0  0  0  0  0
   44.7870   84.8120   52.9620 O   0  0  0  0  0  0  0  0  0  0  0  0
  1  6  1  0  0  0  0
  2  3  1  0  0  0  0
  2  1  2  0  0  0  0
  3  4  2  0  0  0  0
  4  5  1  0  0  0  0
  5 10  1  0  0  0  0
  6  5  2  0  0  0  0
  7  1  1  0  0  0  0
  8  2  1  0  0  0  0
  9 17  1  0  0  0  0
 10  9  2  0  0  0  0
 10 11  1  0  0  0  0
 11 12  2  0  0  0  0
 12 16  1  0  0  0  0
 12 13  1  0  0  0  0
 13 14  1  0  0  0  0
 14 21  1  0  0  0  0
 15 14  2  0  0  0  0
 16 15  1  0  0  0  0
 17 22  1  0  0  0  0
 17 16  2  0  0  0  0
 18  9  1  0  0  0  0
 19 11  1  0  0  0  0
 20 13  1  0  0  0  0
 23 24  1  0  0  0  0
 24 25  1  0  0  0  0
 25 26  2  0  0  0  0
 25  3  1  0  0  0  0
 26 31  1  0  0  0  0
 27 32  1  0  0  0  0
 27 26  1  0  0  0  0
 28 27  2  0  0  0  0
 29 28  1  0  0  0  0
 30 28  1  0  0  0  0
 30 24  2  0  0  0  0
 33 34  2  0  0  0  0
 33 30  1  0  0  0  0
 34 35  1  0  0  0  0
 36 34  1  0  0  0  0
 37 36  1  0  0  0  0
 38 40  1  0  0  0  0
 38 36  2  0  0  0  0
 39 38  1  0  0  0  0
 40 33  1  0  0  0  0
M  END
>  <minimizedAffinity>
-4.61076832

>  <minimizedRMSD>
1.58755529

$$$$
