
 OpenBabel03212520403D

 32 32  0  0  1  0  0  0  0  0999 V2000
   42.3840   85.4210   59.7670 C   0  0  1  0  0  0  0  0  0  0  0  0
   43.3940   86.5500   59.6240 C   0  0  0  0  0  0  0  0  0  0  0  0
   43.1900   85.5130   58.5130 C   0  0  1  0  0  0  0  0  0  0  0  0
   41.3630   85.7900   59.8600 H   0  0  0  0  0  0  0  0  0  0  0  0
   43.0300   87.5860   59.4310 H   0  0  0  0  0  0  0  0  0  0  0  0
   44.3810   86.4790   60.1060 H   0  0  0  0  0  0  0  0  0  0  0  0
   42.5620   85.8920   57.6520 H   0  0  0  0  0  0  0  0  0  0  0  0
   42.8030   84.4690   60.7450 O   0  0  0  0  0  0  0  0  0  0  0  0
   40.0580   83.5300   62.9150 C   0  0  0  0  0  0  0  0  0  0  0  0
   40.6050   83.7610   64.1850 C   0  0  0  0  0  0  0  0  0  0  0  0
   41.9350   84.2450   64.2480 C   0  0  0  0  0  0  0  0  0  0  0  0
   42.5530   84.4380   63.0660 N   0  0  0  0  0  0  0  0  0  0  0  0
   42.0220   84.2140   61.8530 C   0  0  0  0  0  0  0  0  0  0  0  0
   40.7780   83.7600   61.7750 N   0  0  0  0  0  0  0  0  0  0  0  0
   39.0370   83.1570   62.8290 H   0  0  0  0  0  0  0  0  0  0  0  0
   40.0530   83.5850   65.0960 H   0  0  0  0  0  0  0  0  0  0  0  0
   42.4220   84.4460   65.1930 H   0  0  0  0  0  0  0  0  0  0  0  0
   44.1360   84.5630   58.3060 O   0  0  0  0  0  0  0  0  0  0  0  0
   45.4810   84.7630   56.1840 C   0  0  0  0  0  0  0  0  0  0  0  0
   44.7200   84.1920   57.1540 C   0  0  0  0  0  0  0  0  0  0  0  0
   44.4400   82.8350   56.9300 C   0  0  0  0  0  0  0  0  0  0  0  0
   43.8630   82.1450   57.5420 H   0  0  0  0  0  0  0  0  0  0  0  0
   44.9090   82.1520   55.8050 C   0  0  0  0  0  0  0  0  0  0  0  0
   44.7330   81.1150   55.5710 H   0  0  0  0  0  0  0  0  0  0  0  0
   45.6750   82.8000   54.8590 C   0  0  0  0  0  3  0  0  0  0  0  0
   45.9600   84.1310   55.0620 C   0  0  0  0  0  3  0  0  0  0  0  0
   45.8930   87.3110   55.8410 N   0  0  0  0  0  0  0  0  0  0  0  0
   45.8930   86.1390   56.3730 C   0  0  0  0  0  3  0  0  0  0  0  0
   46.6450   86.2400   57.6070 N   0  0  0  0  0  1  0  0  0  0  0  0
   45.4160   87.5220   54.9310 H   0  0  0  0  0  0  0  0  0  0  0  0
   47.2280   86.4410   58.4540 H   0  0  0  0  0  0  0  0  0  0  0  0
   47.2640   86.9860   58.0230 H   0  0  0  0  0 15  0  0  0  0  0  0
  1  4  1  6  0  0  0
  1  8  1  0  0  0  0
  2  1  1  0  0  0  0
  2  6  1  0  0  0  0
  3  7  1  6  0  0  0
  3  2  1  0  0  0  0
  3  1  1  0  0  0  0
  5  2  1  0  0  0  0
  8 13  1  0  0  0  0
  9 10  1  0  0  0  0
 10 11  2  0  0  0  0
 10 16  1  0  0  0  0
 11 17  1  0  0  0  0
 12 11  1  0  0  0  0
 13 12  2  0  0  0  0
 14 13  1  0  0  0  0
 14  9  2  0  0  0  0
 15  9  1  0  0  0  0
 18  3  1  0  0  0  0
 19 28  1  0  0  0  0
 19 20  1  0  0  0  0
 20 18  1  0  0  0  0
 21 20  2  0  0  0  0
 21 22  1  0  0  0  0
 23 21  1  0  0  0  0
 24 23  1  0  0  0  0
 25 26  1  0  0  0  0
 25 23  2  0  0  0  0
 26 19  2  0  0  0  0
 27 28  2  0  0  0  0
 29 31  1  0  0  0  0
 30 27  1  0  0  0  0
M  END
>  <minimizedAffinity>
-3.68967247

>  <minimizedRMSD>
0.66636771

$$$$
