
 OpenBabel03212520403D

 32 32  0  0  1  0  0  0  0  0999 V2000
   42.4920   85.5790   59.9290 C   0  0  1  0  0  0  0  0  0  0  0  0
   43.8000   86.2540   59.5440 C   0  0  0  0  0  0  0  0  0  0  0  0
   42.9480   85.5110   58.5080 C   0  0  1  0  0  0  0  0  0  0  0  0
   41.7520   86.2910   60.2950 H   0  0  0  0  0  0  0  0  0  0  0  0
   43.8390   87.3670   59.4720 H   0  0  0  0  0  0  0  0  0  0  0  0
   44.7630   85.7610   59.7470 H   0  0  0  0  0  0  0  0  0  0  0  0
   42.3360   86.1980   57.8510 H   0  0  0  0  0  0  0  0  0  0  0  0
   42.7210   84.4300   60.7450 O   0  0  0  0  0  0  0  0  0  0  0  0
   40.0420   83.5850   63.0320 C   0  0  0  0  0  0  0  0  0  0  0  0
   40.6270   83.8650   64.2750 C   0  0  0  0  0  0  0  0  0  0  0  0
   41.9590   84.3470   64.2790 C   0  0  0  0  0  0  0  0  0  0  0  0
   42.5410   84.4910   63.0720 N   0  0  0  0  0  0  0  0  0  0  0  0
   41.9740   84.2210   61.8850 C   0  0  0  0  0  0  0  0  0  0  0  0
   40.7260   83.7680   61.8630 N   0  0  0  0  0  0  0  0  0  0  0  0
   39.0180   83.2120   62.9920 H   0  0  0  0  0  0  0  0  0  0  0  0
   40.1030   83.7260   65.2080 H   0  0  0  0  0  0  0  0  0  0  0  0
   42.4750   84.5830   65.2000 H   0  0  0  0  0  0  0  0  0  0  0  0
   43.3650   84.3080   58.0420 O   0  0  0  0  0  0  0  0  0  0  0  0
   41.9040   82.4450   57.1760 C   0  0  0  0  0  0  0  0  0  0  0  0
   42.7680   83.4940   57.1550 C   0  0  0  0  0  0  0  0  0  0  0  0
   43.1780   83.8640   55.8650 C   0  0  0  0  0  0  0  0  0  0  0  0
   43.8560   84.6600   55.5640 H   0  0  0  0  0  0  0  0  0  0  0  0
   42.7310   83.2010   54.7200 C   0  0  0  0  0  0  0  0  0  0  0  0
   43.0040   83.4320   53.7030 H   0  0  0  0  0  0  0  0  0  0  0  0
   41.8540   82.1410   54.8190 C   0  0  0  0  0  3  0  0  0  0  0  0
   41.4390   81.7640   56.0770 C   0  0  0  0  0  3  0  0  0  0  0  0
   41.3690   81.1250   59.3560 N   0  0  0  0  0  0  0  0  0  0  0  0
   41.3580   82.0470   58.4580 C   0  0  0  0  0  3  0  0  0  0  0  0
   40.3790   83.0300   58.8770 N   0  0  0  0  0  1  0  0  0  0  0  0
   41.9940   80.2850   59.2990 H   0  0  0  0  0  0  0  0  0  0  0  0
   39.6300   83.6450   59.2780 H   0  0  0  0  0  0  0  0  0  0  0  0
   39.6360   83.0430   59.6260 H   0  0  0  0  0 15  0  0  0  0  0  0
  1  4  1  1  0  0  0
  1  8  1  0  0  0  0
  2  6  1  0  0  0  0
  2  1  1  0  0  0  0
  3  7  1  6  0  0  0
  3  2  1  0  0  0  0
  3  1  1  0  0  0  0
  5  2  1  0  0  0  0
  8 13  1  0  0  0  0
  9 10  1  0  0  0  0
 10 11  2  0  0  0  0
 10 16  1  0  0  0  0
 11 17  1  0  0  0  0
 12 11  1  0  0  0  0
 13 12  2  0  0  0  0
 14 13  1  0  0  0  0
 14  9  2  0  0  0  0
 15  9  1  0  0  0  0
 18  3  1  0  0  0  0
 19 28  1  0  0  0  0
 20 19  1  0  0  0  0
 20 18  1  0  0  0  0
 21 20  2  0  0  0  0
 22 21  1  0  0  0  0
 23 25  2  0  0  0  0
 23 21  1  0  0  0  0
 24 23  1  0  0  0  0
 25 26  1  0  0  0  0
 26 19  2  0  0  0  0
 28 27  2  0  0  0  0
 29 31  1  0  0  0  0
 30 27  1  0  0  0  0
M  END
>  <minimizedAffinity>
-4.1040988

>  <minimizedRMSD>
1.90769911

$$$$
