
 OpenBabel03212520403D

 32 32  0  0  1  0  0  0  0  0999 V2000
   42.3450   85.4210   59.8120 C   0  0  1  0  0  0  0  0  0  0  0  0
   43.5010   85.8460   58.9180 C   0  0  0  0  0  0  0  0  0  0  0  0
   42.3690   84.9540   58.3930 C   0  0  1  0  0  0  0  0  0  0  0  0
   41.7600   86.2710   60.1610 H   0  0  0  0  0  0  0  0  0  0  0  0
   43.5430   86.8950   58.5420 H   0  0  0  0  0  0  0  0  0  0  0  0
   44.4700   85.3270   58.9750 H   0  0  0  0  0  0  0  0  0  0  0  0
   41.6080   85.5110   57.7690 H   0  0  0  0  0  0  0  0  0  0  0  0
   42.7750   84.4970   60.8120 O   0  0  0  0  0  0  0  0  0  0  0  0
   40.0410   83.6390   63.0280 C   0  0  0  0  0  0  0  0  0  0  0  0
   40.6110   83.8710   64.2880 C   0  0  0  0  0  0  0  0  0  0  0  0
   41.9520   84.3260   64.3290 C   0  0  0  0  0  0  0  0  0  0  0  0
   42.5570   84.4930   63.1360 N   0  0  0  0  0  0  0  0  0  0  0  0
   42.0050   84.2700   61.9330 C   0  0  0  0  0  0  0  0  0  0  0  0
   40.7490   83.8430   61.8770 N   0  0  0  0  0  0  0  0  0  0  0  0
   39.0110   83.2890   62.9610 H   0  0  0  0  0  0  0  0  0  0  0  0
   40.0680   83.7160   65.2080 H   0  0  0  0  0  0  0  0  0  0  0  0
   42.4560   84.5250   65.2650 H   0  0  0  0  0  0  0  0  0  0  0  0
   42.6070   83.6370   58.1730 O   0  0  0  0  0  0  0  0  0  0  0  0
   40.8140   81.9100   57.7790 C   0  0  0  0  0  0  0  0  0  0  0  0
   41.8520   82.7440   57.5100 C   0  0  0  0  0  0  0  0  0  0  0  0
   42.2930   82.6890   56.1780 C   0  0  0  0  0  0  0  0  0  0  0  0
   43.0960   83.2460   55.7010 H   0  0  0  0  0  0  0  0  0  0  0  0
   41.7070   81.8450   55.2320 C   0  0  0  0  0  0  0  0  0  0  0  0
   41.9950   81.7530   54.1980 H   0  0  0  0  0  0  0  0  0  0  0  0
   40.6570   81.0220   55.5800 C   0  0  0  0  0  3  0  0  0  0  0  0
   40.2090   81.0630   56.8810 C   0  0  0  0  0  3  0  0  0  0  0  0
   40.0510   81.2930   60.1910 N   0  0  0  0  0  0  0  0  0  0  0  0
   40.2350   81.9610   59.1060 C   0  0  0  0  0  3  0  0  0  0  0  0
   39.5450   83.2240   59.2700 N   0  0  0  0  0  1  0  0  0  0  0  0
   40.4470   80.3330   60.3410 H   0  0  0  0  0  0  0  0  0  0  0  0
   38.9860   84.0800   59.5040 H   0  0  0  0  0  0  0  0  0  0  0  0
   38.8560   83.5900   59.9800 H   0  0  0  0  0 15  0  0  0  0  0  0
  1  4  1  1  0  0  0
  1  8  1  0  0  0  0
  2  6  1  0  0  0  0
  2  1  1  0  0  0  0
  3  7  1  6  0  0  0
  3  2  1  0  0  0  0
  3  1  1  0  0  0  0
  5  2  1  0  0  0  0
  8 13  1  0  0  0  0
  9 10  1  0  0  0  0
 10 11  2  0  0  0  0
 10 16  1  0  0  0  0
 11 17  1  0  0  0  0
 12 11  1  0  0  0  0
 13 12  2  0  0  0  0
 14 13  1  0  0  0  0
 14  9  2  0  0  0  0
 15  9  1  0  0  0  0
 18  3  1  0  0  0  0
 19 28  1  0  0  0  0
 20 19  1  0  0  0  0
 20 18  1  0  0  0  0
 21 20  2  0  0  0  0
 22 21  1  0  0  0  0
 23 25  2  0  0  0  0
 23 21  1  0  0  0  0
 24 23  1  0  0  0  0
 25 26  1  0  0  0  0
 26 19  2  0  0  0  0
 27 30  1  0  0  0  0
 28 27  2  0  0  0  0
 29 31  1  0  0  0  0
M  END
>  <minimizedAffinity>
-4.81068182

>  <minimizedRMSD>
2.88211536

$$$$
