
 OpenBabel03212520403D

 32 32  0  0  1  0  0  0  0  0999 V2000
   42.4510   85.5920   59.9480 C   0  0  1  0  0  0  0  0  0  0  0  0
   43.7470   86.2740   59.5320 C   0  0  0  0  0  0  0  0  0  0  0  0
   42.8850   85.5080   58.5210 C   0  0  1  0  0  0  0  0  0  0  0  0
   41.7110   86.3010   60.3150 H   0  0  0  0  0  0  0  0  0  0  0  0
   43.7730   87.3860   59.4430 H   0  0  0  0  0  0  0  0  0  0  0  0
   44.7180   85.7940   59.7260 H   0  0  0  0  0  0  0  0  0  0  0  0
   42.2560   86.1790   57.8640 H   0  0  0  0  0  0  0  0  0  0  0  0
   42.7050   84.4570   60.7770 O   0  0  0  0  0  0  0  0  0  0  0  0
   40.0100   83.5780   63.0310 C   0  0  0  0  0  0  0  0  0  0  0  0
   40.5840   83.8470   64.2820 C   0  0  0  0  0  0  0  0  0  0  0  0
   41.9140   84.3340   64.3030 C   0  0  0  0  0  0  0  0  0  0  0  0
   42.5050   84.4930   63.1020 N   0  0  0  0  0  0  0  0  0  0  0  0
   41.9490   84.2330   61.9080 C   0  0  0  0  0  0  0  0  0  0  0  0
   40.7040   83.7760   61.8710 N   0  0  0  0  0  0  0  0  0  0  0  0
   38.9880   83.2020   62.9790 H   0  0  0  0  0  0  0  0  0  0  0  0
   40.0520   83.6970   65.2090 H   0  0  0  0  0  0  0  0  0  0  0  0
   42.4210   84.5640   65.2300 H   0  0  0  0  0  0  0  0  0  0  0  0
   43.3070   84.3020   58.0660 O   0  0  0  0  0  0  0  0  0  0  0  0
   41.7280   82.4820   57.3220 C   0  0  0  0  0  0  0  0  0  0  0  0
   42.6820   83.4480   57.2380 C   0  0  0  0  0  0  0  0  0  0  0  0
   43.1810   83.6390   55.9400 C   0  0  0  0  0  0  0  0  0  0  0  0
   43.9390   84.3390   55.5950 H   0  0  0  0  0  0  0  0  0  0  0  0
   42.7300   82.8930   54.8490 C   0  0  0  0  0  0  0  0  0  0  0  0
   43.0690   82.9870   53.8300 H   0  0  0  0  0  0  0  0  0  0  0  0
   41.7610   81.9260   55.0110 C   0  0  0  0  0  3  0  0  0  0  0  0
   41.2570   81.7260   56.2770 C   0  0  0  0  0  3  0  0  0  0  0  0
   41.0150   81.4800   59.6170 N   0  0  0  0  0  0  0  0  0  0  0  0
   41.0920   82.2740   58.6070 C   0  0  0  0  0  3  0  0  0  0  0  0
   40.1270   83.3310   58.8300 N   0  0  0  0  0  1  0  0  0  0  0  0
   41.6090   80.6220   59.7110 H   0  0  0  0  0  0  0  0  0  0  0  0
   39.3780   84.0150   59.0970 H   0  0  0  0  0  0  0  0  0  0  0  0
   39.3400   83.4650   59.5210 H   0  0  0  0  0 15  0  0  0  0  0  0
  1  4  1  1  0  0  0
  1  8  1  0  0  0  0
  2  6  1  0  0  0  0
  2  1  1  0  0  0  0
  3  7  1  6  0  0  0
  3  2  1  0  0  0  0
  3  1  1  0  0  0  0
  5  2  1  0  0  0  0
  8 13  1  0  0  0  0
  9 10  1  0  0  0  0
 10 11  2  0  0  0  0
 10 16  1  0  0  0  0
 11 17  1  0  0  0  0
 12 11  1  0  0  0  0
 13 12  2  0  0  0  0
 14 13  1  0  0  0  0
 14  9  2  0  0  0  0
 15  9  1  0  0  0  0
 18  3  1  0  0  0  0
 19 28  1  0  0  0  0
 20 19  1  0  0  0  0
 20 18  1  0  0  0  0
 21 20  2  0  0  0  0
 22 21  1  0  0  0  0
 23 25  2  0  0  0  0
 23 21  1  0  0  0  0
 24 23  1  0  0  0  0
 25 26  1  0  0  0  0
 26 19  2  0  0  0  0
 27 30  1  0  0  0  0
 28 27  2  0  0  0  0
 29 31  1  0  0  0  0
M  END
>  <minimizedAffinity>
-4.24320507

>  <minimizedRMSD>
2.06954527

$$$$
