
 OpenBabel03212520403D

 32 32  0  0  1  0  0  0  0  0999 V2000
   42.3780   85.4470   59.7570 C   0  0  1  0  0  0  0  0  0  0  0  0
   43.4090   86.5610   59.6520 C   0  0  0  0  0  0  0  0  0  0  0  0
   43.1790   85.5730   58.5020 C   0  0  1  0  0  0  0  0  0  0  0  0
   41.3650   85.8310   59.8710 H   0  0  0  0  0  0  0  0  0  0  0  0
   43.0630   87.6110   59.5020 H   0  0  0  0  0  0  0  0  0  0  0  0
   44.3970   86.4540   60.1250 H   0  0  0  0  0  0  0  0  0  0  0  0
   42.5530   85.9970   57.6610 H   0  0  0  0  0  0  0  0  0  0  0  0
   42.7860   84.4490   60.6950 O   0  0  0  0  0  0  0  0  0  0  0  0
   40.0990   83.5260   62.9430 C   0  0  0  0  0  0  0  0  0  0  0  0
   40.6790   83.7680   64.1960 C   0  0  0  0  0  0  0  0  0  0  0  0
   42.0090   84.2530   64.2210 C   0  0  0  0  0  0  0  0  0  0  0  0
   42.5960   84.4370   63.0220 N   0  0  0  0  0  0  0  0  0  0  0  0
   42.0340   84.2030   61.8240 C   0  0  0  0  0  0  0  0  0  0  0  0
   40.7880   83.7480   61.7830 N   0  0  0  0  0  0  0  0  0  0  0  0
   39.0770   83.1520   62.8870 H   0  0  0  0  0  0  0  0  0  0  0  0
   40.1510   83.5990   65.1230 H   0  0  0  0  0  0  0  0  0  0  0  0
   42.5210   84.4620   65.1510 H   0  0  0  0  0  0  0  0  0  0  0  0
   44.1050   84.6150   58.2530 O   0  0  0  0  0  0  0  0  0  0  0  0
   45.5340   84.9860   56.2090 C   0  0  0  0  0  0  0  0  0  0  0  0
   44.7410   84.3370   57.1020 C   0  0  0  0  0  0  0  0  0  0  0  0
   44.4880   82.9980   56.7650 C   0  0  0  0  0  0  0  0  0  0  0  0
   43.8940   82.2580   57.3000 H   0  0  0  0  0  0  0  0  0  0  0  0
   45.0100   82.4060   55.6130 C   0  0  0  0  0  0  0  0  0  0  0  0
   44.8570   81.3870   55.2960 H   0  0  0  0  0  0  0  0  0  0  0  0
   45.8060   83.1290   54.7500 C   0  0  0  0  0  3  0  0  0  0  0  0
   46.0670   84.4440   55.0640 C   0  0  0  0  0  3  0  0  0  0  0  0
   45.8940   87.5630   56.0900 N   0  0  0  0  0  0  0  0  0  0  0  0
   45.9200   86.3480   56.5170 C   0  0  0  0  0  3  0  0  0  0  0  0
   46.6770   86.3540   57.7520 N   0  0  0  0  0  1  0  0  0  0  0  0
   45.4060   87.8440   55.2050 H   0  0  0  0  0  0  0  0  0  0  0  0
   47.2630   86.4910   58.6100 H   0  0  0  0  0  0  0  0  0  0  0  0
   47.2850   87.0730   58.2290 H   0  0  0  0  0 15  0  0  0  0  0  0
  1  4  1  6  0  0  0
  1  8  1  0  0  0  0
  2  1  1  0  0  0  0
  2  6  1  0  0  0  0
  3  7  1  6  0  0  0
  3  2  1  0  0  0  0
  3  1  1  0  0  0  0
  5  2  1  0  0  0  0
  8 13  1  0  0  0  0
  9 10  1  0  0  0  0
 10 11  2  0  0  0  0
 10 16  1  0  0  0  0
 11 17  1  0  0  0  0
 12 11  1  0  0  0  0
 13 12  2  0  0  0  0
 14 13  1  0  0  0  0
 14  9  2  0  0  0  0
 15  9  1  0  0  0  0
 18  3  1  0  0  0  0
 19 28  1  0  0  0  0
 19 20  1  0  0  0  0
 20 18  1  0  0  0  0
 21 20  2  0  0  0  0
 21 22  1  0  0  0  0
 23 21  1  0  0  0  0
 24 23  1  0  0  0  0
 25 26  1  0  0  0  0
 25 23  2  0  0  0  0
 26 19  2  0  0  0  0
 27 28  2  0  0  0  0
 29 31  1  0  0  0  0
 30 27  1  0  0  0  0
M  END
>  <minimizedAffinity>
-3.71469903

>  <minimizedRMSD>
1.02371895

$$$$
