
 OpenBabel03212520403D

 32 32  0  0  1  0  0  0  0  0999 V2000
   42.2490   85.5080   59.7540 C   0  0  1  0  0  0  0  0  0  0  0  0
   43.4820   86.3800   59.5660 C   0  0  0  0  0  0  0  0  0  0  0  0
   42.8840   85.5770   58.4030 C   0  0  1  0  0  0  0  0  0  0  0  0
   41.3730   86.0880   60.0430 H   0  0  0  0  0  0  0  0  0  0  0  0
   43.3650   87.4900   59.5350 H   0  0  0  0  0  0  0  0  0  0  0  0
   44.4740   86.0190   59.8770 H   0  0  0  0  0  0  0  0  0  0  0  0
   42.2640   86.2030   57.6940 H   0  0  0  0  0  0  0  0  0  0  0  0
   42.5410   84.3630   60.5560 O   0  0  0  0  0  0  0  0  0  0  0  0
   40.0600   83.5510   63.0670 C   0  0  0  0  0  0  0  0  0  0  0  0
   40.7520   83.8310   64.2540 C   0  0  0  0  0  0  0  0  0  0  0  0
   42.0840   84.3020   64.1420 C   0  0  0  0  0  0  0  0  0  0  0  0
   42.5610   84.4360   62.8890 N   0  0  0  0  0  0  0  0  0  0  0  0
   41.8930   84.1660   61.7560 C   0  0  0  0  0  0  0  0  0  0  0  0
   40.6440   83.7230   61.8430 N   0  0  0  0  0  0  0  0  0  0  0  0
   39.0340   83.1870   63.1170 H   0  0  0  0  0  0  0  0  0  0  0  0
   40.3080   83.7020   65.2300 H   0  0  0  0  0  0  0  0  0  0  0  0
   42.6780   84.5380   65.0140 H   0  0  0  0  0  0  0  0  0  0  0  0
   43.5290   84.4710   57.9580 O   0  0  0  0  0  0  0  0  0  0  0  0
   44.8420   83.6800   55.9570 C   0  0  0  0  0  0  0  0  0  0  0  0
   43.7760   84.0920   56.6930 C   0  0  0  0  0  0  0  0  0  0  0  0
   42.5770   84.1540   55.9660 C   0  0  0  0  0  0  0  0  0  0  0  0
   41.5860   84.4460   56.3060 H   0  0  0  0  0  0  0  0  0  0  0  0
   42.5070   83.8220   54.6110 C   0  0  0  0  0  0  0  0  0  0  0  0
   41.6230   83.8480   53.9950 H   0  0  0  0  0  0  0  0  0  0  0  0
   43.6340   83.4140   53.9290 C   0  0  0  0  0  3  0  0  0  0  0  0
   44.8190   83.3460   54.6250 C   0  0  0  0  0  3  0  0  0  0  0  0
   47.3660   83.7660   56.5970 N   0  0  0  0  0  0  0  0  0  0  0  0
   46.1060   83.5010   56.6440 C   0  0  0  0  0  3  0  0  0  0  0  0
   45.8980   82.6560   57.8000 N   0  0  0  0  0  1  0  0  0  0  0  0
   47.7930   84.3650   55.8510 H   0  0  0  0  0  0  0  0  0  0  0  0
   45.8890   82.0310   58.6430 H   0  0  0  0  0  0  0  0  0  0  0  0
   46.5480   82.1380   58.4510 H   0  0  0  0  0 15  0  0  0  0  0  0
  1  4  1  1  0  0  0
  1  8  1  0  0  0  0
  2  1  1  0  0  0  0
  2  6  1  0  0  0  0
  3  7  1  6  0  0  0
  3  2  1  0  0  0  0
  3  1  1  0  0  0  0
  5  2  1  0  0  0  0
  8 13  1  0  0  0  0
  9 15  1  0  0  0  0
  9 10  1  0  0  0  0
 10 16  1  0  0  0  0
 11 10  2  0  0  0  0
 11 17  1  0  0  0  0
 12 11  1  0  0  0  0
 13 14  1  0  0  0  0
 13 12  2  0  0  0  0
 14  9  2  0  0  0  0
 18  3  1  0  0  0  0
 19 28  1  0  0  0  0
 19 20  1  0  0  0  0
 20 18  1  0  0  0  0
 21 22  1  0  0  0  0
 21 20  2  0  0  0  0
 23 21  1  0  0  0  0
 24 23  1  0  0  0  0
 25 23  2  0  0  0  0
 25 26  1  0  0  0  0
 26 19  2  0  0  0  0
 27 28  2  0  0  0  0
 29 31  1  0  0  0  0
 30 27  1  0  0  0  0
M  END
>  <minimizedAffinity>
-3.56187916

>  <minimizedRMSD>
0.769806743

$$$$
