
 OpenBabel03212520403D

 32 32  0  0  1  0  0  0  0  0999 V2000
   44.1540   85.8120   61.5900 C   0  0  1  0  0  0  0  0  0  0  0  0
   45.4590   85.9920   60.8280 C   0  0  0  0  0  0  0  0  0  0  0  0
   44.1040   86.0160   60.1110 C   0  0  1  0  0  0  0  0  0  0  0  0
   43.9890   86.6060   62.3170 H   0  0  0  0  0  0  0  0  0  0  0  0
   46.0110   86.9580   60.9120 H   0  0  0  0  0  0  0  0  0  0  0  0
   46.0750   85.1190   60.5610 H   0  0  0  0  0  0  0  0  0  0  0  0
   43.7470   87.0580   59.8560 H   0  0  0  0  0  0  0  0  0  0  0  0
   44.0140   84.4740   62.0710 O   0  0  0  0  0  0  0  0  0  0  0  0
   41.1540   82.5410   63.1690 C   0  0  0  0  0  0  0  0  0  0  0  0
   40.5110   83.4440   64.0280 C   0  0  0  0  0  0  0  0  0  0  0  0
   41.1030   84.7200   64.2010 C   0  0  0  0  0  0  0  0  0  0  0  0
   42.2410   84.9430   63.5150 N   0  0  0  0  0  0  0  0  0  0  0  0
   42.8520   84.0730   62.6940 C   0  0  0  0  0  0  0  0  0  0  0  0
   42.3110   82.8740   62.5200 N   0  0  0  0  0  0  0  0  0  0  0  0
   40.7260   81.5510   63.0130 H   0  0  0  0  0  0  0  0  0  0  0  0
   39.5980   83.2010   64.5490 H   0  0  0  0  0  0  0  0  0  0  0  0
   40.6640   85.4670   64.8480 H   0  0  0  0  0  0  0  0  0  0  0  0
   43.7360   84.9580   59.3460 O   0  0  0  0  0  0  0  0  0  0  0  0
   42.0550   83.1030   59.0550 C   0  0  0  0  0  0  0  0  0  0  0  0
   42.5380   84.3570   59.2600 C   0  0  0  0  0  0  0  0  0  0  0  0
   41.5390   85.3280   59.4330 C   0  0  0  0  0  0  0  0  0  0  0  0
   41.6470   86.3950   59.6120 H   0  0  0  0  0  0  0  0  0  0  0  0
   40.1780   85.0140   59.3920 C   0  0  0  0  0  0  0  0  0  0  0  0
   39.3610   85.7080   59.5170 H   0  0  0  0  0  0  0  0  0  0  0  0
   39.7610   83.7180   59.1780 C   0  0  0  0  0  3  0  0  0  0  0  0
   40.7270   82.7510   59.0060 C   0  0  0  0  0  3  0  0  0  0  0  0
   43.2840   80.9230   58.3370 N   0  0  0  0  0  0  0  0  0  0  0  0
   43.0120   82.0200   58.9520 C   0  0  0  0  0  3  0  0  0  0  0  0
   44.0340   82.1980   59.9640 N   0  0  0  0  0  1  0  0  0  0  0  0
   42.6980   80.5530   57.5500 H   0  0  0  0  0  0  0  0  0  0  0  0
   44.8110   82.1930   60.6660 H   0  0  0  0  0  0  0  0  0  0  0  0
   44.7890   81.5730   60.3520 H   0  0  0  0  0 15  0  0  0  0  0  0
  1  8  1  0  0  0  0
  1  4  1  1  0  0  0
  2  5  1  0  0  0  0
  2  1  1  0  0  0  0
  3  7  1  6  0  0  0
  3  2  1  0  0  0  0
  3  1  1  0  0  0  0
  6  2  1  0  0  0  0
  8 13  1  0  0  0  0
  9 10  1  0  0  0  0
 10 11  2  0  0  0  0
 10 16  1  0  0  0  0
 11 17  1  0  0  0  0
 12 11  1  0  0  0  0
 13 12  2  0  0  0  0
 14 13  1  0  0  0  0
 14  9  2  0  0  0  0
 15  9  1  0  0  0  0
 18  3  1  0  0  0  0
 19 20  1  0  0  0  0
 20 18  1  0  0  0  0
 20 21  2  0  0  0  0
 21 22  1  0  0  0  0
 23 21  1  0  0  0  0
 23 24  1  0  0  0  0
 25 23  2  0  0  0  0
 26 19  2  0  0  0  0
 26 25  1  0  0  0  0
 27 28  2  0  0  0  0
 28 19  1  0  0  0  0
 29 31  1  0  0  0  0
 30 27  1  0  0  0  0
M  END
>  <minimizedAffinity>
-4.57514715

>  <minimizedRMSD>
3.34575987

$$$$
