
 OpenBabel03212520403D

 32 32  0  0  1  0  0  0  0  0999 V2000
   42.3840   85.4210   59.7670 C   0  0  1  0  0  0  0  0  0  0  0  0
   43.3950   86.5500   59.6260 C   0  0  0  0  0  0  0  0  0  0  0  0
   43.1910   85.5140   58.5130 C   0  0  1  0  0  0  0  0  0  0  0  0
   41.3630   85.7910   59.8600 H   0  0  0  0  0  0  0  0  0  0  0  0
   43.0310   87.5870   59.4330 H   0  0  0  0  0  0  0  0  0  0  0  0
   44.3810   86.4790   60.1080 H   0  0  0  0  0  0  0  0  0  0  0  0
   42.5630   85.8930   57.6530 H   0  0  0  0  0  0  0  0  0  0  0  0
   42.8030   84.4690   60.7460 O   0  0  0  0  0  0  0  0  0  0  0  0
   40.0580   83.5290   62.9150 C   0  0  0  0  0  0  0  0  0  0  0  0
   40.6050   83.7610   64.1850 C   0  0  0  0  0  0  0  0  0  0  0  0
   41.9350   84.2460   64.2490 C   0  0  0  0  0  0  0  0  0  0  0  0
   42.5520   84.4380   63.0660 N   0  0  0  0  0  0  0  0  0  0  0  0
   42.0220   84.2140   61.8530 C   0  0  0  0  0  0  0  0  0  0  0  0
   40.7780   83.7600   61.7760 N   0  0  0  0  0  0  0  0  0  0  0  0
   39.0370   83.1570   62.8300 H   0  0  0  0  0  0  0  0  0  0  0  0
   40.0530   83.5850   65.0960 H   0  0  0  0  0  0  0  0  0  0  0  0
   42.4220   84.4470   65.1940 H   0  0  0  0  0  0  0  0  0  0  0  0
   44.1360   84.5640   58.3070 O   0  0  0  0  0  0  0  0  0  0  0  0
   45.4790   84.7600   56.1820 C   0  0  0  0  0  0  0  0  0  0  0  0
   44.7180   84.1910   57.1550 C   0  0  0  0  0  0  0  0  0  0  0  0
   44.4370   82.8340   56.9330 C   0  0  0  0  0  0  0  0  0  0  0  0
   43.8580   82.1460   57.5460 H   0  0  0  0  0  0  0  0  0  0  0  0
   44.9020   82.1490   55.8070 C   0  0  0  0  0  0  0  0  0  0  0  0
   44.7240   81.1110   55.5750 H   0  0  0  0  0  0  0  0  0  0  0  0
   45.6670   82.7930   54.8590 C   0  0  0  0  0  3  0  0  0  0  0  0
   45.9550   84.1250   55.0610 C   0  0  0  0  0  3  0  0  0  0  0  0
   45.8950   87.3070   55.8340 N   0  0  0  0  0  0  0  0  0  0  0  0
   45.8930   86.1350   56.3690 C   0  0  0  0  0  3  0  0  0  0  0  0
   46.6450   86.2370   57.6030 N   0  0  0  0  0  1  0  0  0  0  0  0
   45.4180   87.5160   54.9250 H   0  0  0  0  0  0  0  0  0  0  0  0
   47.2290   86.4380   58.4500 H   0  0  0  0  0  0  0  0  0  0  0  0
   47.2660   86.9820   58.0180 H   0  0  0  0  0 15  0  0  0  0  0  0
  1  4  1  6  0  0  0
  1  8  1  0  0  0  0
  2  1  1  0  0  0  0
  2  6  1  0  0  0  0
  3  7  1  6  0  0  0
  3  2  1  0  0  0  0
  3  1  1  0  0  0  0
  5  2  1  0  0  0  0
  8 13  1  0  0  0  0
  9 10  1  0  0  0  0
 10 11  2  0  0  0  0
 10 16  1  0  0  0  0
 11 17  1  0  0  0  0
 12 11  1  0  0  0  0
 13 12  2  0  0  0  0
 14 13  1  0  0  0  0
 14  9  2  0  0  0  0
 15  9  1  0  0  0  0
 18  3  1  0  0  0  0
 19 28  1  0  0  0  0
 19 20  1  0  0  0  0
 20 18  1  0  0  0  0
 21 20  2  0  0  0  0
 21 22  1  0  0  0  0
 23 21  1  0  0  0  0
 24 23  1  0  0  0  0
 25 26  1  0  0  0  0
 25 23  2  0  0  0  0
 26 19  2  0  0  0  0
 27 28  2  0  0  0  0
 29 31  1  0  0  0  0
 30 27  1  0  0  0  0
M  END
>  <minimizedAffinity>
-3.68933415

>  <minimizedRMSD>
0.911485493

$$$$
