
 OpenBabel03212520403D

 32 32  0  0  1  0  0  0  0  0999 V2000
   42.5670   85.5550   60.0030 C   0  0  1  0  0  0  0  0  0  0  0  0
   43.9110   86.1810   59.6600 C   0  0  0  0  0  0  0  0  0  0  0  0
   43.0540   85.4910   58.5920 C   0  0  1  0  0  0  0  0  0  0  0  0
   41.8500   86.2910   60.3640 H   0  0  0  0  0  0  0  0  0  0  0  0
   43.9980   87.2920   59.6080 H   0  0  0  0  0  0  0  0  0  0  0  0
   44.8480   85.6460   59.8760 H   0  0  0  0  0  0  0  0  0  0  0  0
   42.4860   86.2130   57.9330 H   0  0  0  0  0  0  0  0  0  0  0  0
   42.7300   84.3850   60.8050 O   0  0  0  0  0  0  0  0  0  0  0  0
   39.9970   83.5960   63.0480 C   0  0  0  0  0  0  0  0  0  0  0  0
   40.5630   83.8790   64.2990 C   0  0  0  0  0  0  0  0  0  0  0  0
   41.9020   84.3430   64.3240 C   0  0  0  0  0  0  0  0  0  0  0  0
   42.5080   84.4690   63.1270 N   0  0  0  0  0  0  0  0  0  0  0  0
   41.9590   84.1960   61.9320 C   0  0  0  0  0  0  0  0  0  0  0  0
   40.7060   83.7600   61.8910 N   0  0  0  0  0  0  0  0  0  0  0  0
   38.9690   83.2370   62.9930 H   0  0  0  0  0  0  0  0  0  0  0  0
   40.0200   83.7570   65.2240 H   0  0  0  0  0  0  0  0  0  0  0  0
   42.4040   84.5810   65.2530 H   0  0  0  0  0  0  0  0  0  0  0  0
   43.4310   84.2790   58.1160 O   0  0  0  0  0  0  0  0  0  0  0  0
   41.9110   82.4940   57.1900 C   0  0  0  0  0  0  0  0  0  0  0  0
   42.8200   83.5040   57.2030 C   0  0  0  0  0  0  0  0  0  0  0  0
   43.2760   83.8730   55.9280 C   0  0  0  0  0  0  0  0  0  0  0  0
   43.9950   84.6420   55.6550 H   0  0  0  0  0  0  0  0  0  0  0  0
   42.8280   83.2450   54.7640 C   0  0  0  0  0  0  0  0  0  0  0  0
   43.1340   83.4760   53.7570 H   0  0  0  0  0  0  0  0  0  0  0  0
   41.9040   82.2230   54.8290 C   0  0  0  0  0  3  0  0  0  0  0  0
   41.4430   81.8490   56.0710 C   0  0  0  0  0  3  0  0  0  0  0  0
   41.2670   81.1700   59.3380 N   0  0  0  0  0  0  0  0  0  0  0  0
   41.3190   82.1040   58.4530 C   0  0  0  0  0  3  0  0  0  0  0  0
   40.3760   83.1240   58.8650 N   0  0  0  0  0  1  0  0  0  0  0  0
   41.8550   80.3040   59.2830 H   0  0  0  0  0  0  0  0  0  0  0  0
   39.6460   83.7660   59.2580 H   0  0  0  0  0  0  0  0  0  0  0  0
   39.6170   83.1600   59.5970 H   0  0  0  0  0 15  0  0  0  0  0  0
  1  4  1  1  0  0  0
  1  8  1  0  0  0  0
  2  6  1  0  0  0  0
  2  1  1  0  0  0  0
  3  7  1  6  0  0  0
  3  2  1  0  0  0  0
  3  1  1  0  0  0  0
  5  2  1  0  0  0  0
  8 13  1  0  0  0  0
  9 10  1  0  0  0  0
 10 11  2  0  0  0  0
 10 16  1  0  0  0  0
 11 17  1  0  0  0  0
 12 11  1  0  0  0  0
 13 12  2  0  0  0  0
 14 13  1  0  0  0  0
 14  9  2  0  0  0  0
 15  9  1  0  0  0  0
 18  3  1  0  0  0  0
 19 20  1  0  0  0  0
 19 28  1  0  0  0  0
 20 18  1  0  0  0  0
 21 20  2  0  0  0  0
 22 21  1  0  0  0  0
 23 25  2  0  0  0  0
 23 21  1  0  0  0  0
 24 23  1  0  0  0  0
 25 26  1  0  0  0  0
 26 19  2  0  0  0  0
 28 27  2  0  0  0  0
 29 31  1  0  0  0  0
 30 27  1  0  0  0  0
M  END
>  <minimizedAffinity>
-4.11113119

>  <minimizedRMSD>
1.96995962

$$$$
