
 OpenBabel03212520403D

 32 32  0  0  1  0  0  0  0  0999 V2000
   42.0670   85.3850   59.5860 C   0  0  1  0  0  0  0  0  0  0  0  0
   43.1120   85.8290   58.5730 C   0  0  0  0  0  0  0  0  0  0  0  0
   42.0020   84.8400   58.1960 C   0  0  1  0  0  0  0  0  0  0  0  0
   41.4570   86.2150   59.9410 H   0  0  0  0  0  0  0  0  0  0  0  0
   43.0510   86.8560   58.1420 H   0  0  0  0  0  0  0  0  0  0  0  0
   44.1150   85.3760   58.5710 H   0  0  0  0  0  0  0  0  0  0  0  0
   41.1560   85.3120   57.6130 H   0  0  0  0  0  0  0  0  0  0  0  0
   42.6400   84.5470   60.5900 O   0  0  0  0  0  0  0  0  0  0  0  0
   40.0760   83.5550   62.9490 C   0  0  0  0  0  0  0  0  0  0  0  0
   40.7150   83.7770   64.1770 C   0  0  0  0  0  0  0  0  0  0  0  0
   42.0420   84.2720   64.1460 C   0  0  0  0  0  0  0  0  0  0  0  0
   42.5670   84.4850   62.9230 N   0  0  0  0  0  0  0  0  0  0  0  0
   41.9480   84.2710   61.7500 C   0  0  0  0  0  0  0  0  0  0  0  0
   40.7050   83.8070   61.7620 N   0  0  0  0  0  0  0  0  0  0  0  0
   39.0540   83.1740   62.9360 H   0  0  0  0  0  0  0  0  0  0  0  0
   40.2360   83.5840   65.1250 H   0  0  0  0  0  0  0  0  0  0  0  0
   42.5980   84.4670   65.0540 H   0  0  0  0  0  0  0  0  0  0  0  0
   42.3080   83.5300   58.0230 O   0  0  0  0  0  0  0  0  0  0  0  0
   41.2910   81.9740   56.3210 C   0  0  0  0  0  0  0  0  0  0  0  0
   41.5400   82.5440   57.5300 C   0  0  0  0  0  0  0  0  0  0  0  0
   40.8110   81.9750   58.5860 C   0  0  0  0  0  0  0  0  0  0  0  0
   40.8220   82.2370   59.6420 H   0  0  0  0  0  0  0  0  0  0  0  0
   39.9160   80.9210   58.3910 C   0  0  0  0  0  0  0  0  0  0  0  0
   39.3260   80.4390   59.1560 H   0  0  0  0  0  0  0  0  0  0  0  0
   39.7120   80.3940   57.1340 C   0  0  0  0  0  3  0  0  0  0  0  0
   40.4190   80.9380   56.0860 C   0  0  0  0  0  3  0  0  0  0  0  0
   42.0020   82.7330   53.9330 N   0  0  0  0  0  0  0  0  0  0  0  0
   42.0620   82.4380   55.1860 C   0  0  0  0  0  3  0  0  0  0  0  0
   43.4480   82.5730   55.5820 N   0  0  0  0  0  1  0  0  0  0  0  0
   41.1060   82.7150   53.3890 H   0  0  0  0  0  0  0  0  0  0  0  0
   44.4800   82.6810   55.7290 H   0  0  0  0  0  0  0  0  0  0  0  0
   44.3490   82.6990   55.0470 H   0  0  0  0  0 15  0  0  0  0  0  0
  1  4  1  1  0  0  0
  1  8  1  0  0  0  0
  2  1  1  0  0  0  0
  3  7  1  6  0  0  0
  3  2  1  0  0  0  0
  3  1  1  0  0  0  0
  5  2  1  0  0  0  0
  6  2  1  0  0  0  0
  8 13  1  0  0  0  0
  9 10  1  0  0  0  0
 10 16  1  0  0  0  0
 11 10  2  0  0  0  0
 11 17  1  0  0  0  0
 12 11  1  0  0  0  0
 13 14  1  0  0  0  0
 13 12  2  0  0  0  0
 14  9  2  0  0  0  0
 15  9  1  0  0  0  0
 18  3  1  0  0  0  0
 19 20  1  0  0  0  0
 20 18  1  0  0  0  0
 20 21  2  0  0  0  0
 21 22  1  0  0  0  0
 23 21  1  0  0  0  0
 23 24  1  0  0  0  0
 25 23  2  0  0  0  0
 26 19  2  0  0  0  0
 26 25  1  0  0  0  0
 27 28  2  0  0  0  0
 28 19  1  0  0  0  0
 29 31  1  0  0  0  0
 30 27  1  0  0  0  0
M  END
>  <minimizedAffinity>
-4.49009466

>  <minimizedRMSD>
3.4541676

$$$$
