
 OpenBabel03212520403D

 32 32  0  0  1  0  0  0  0  0999 V2000
   42.5530   85.5950   59.9190 C   0  0  1  0  0  0  0  0  0  0  0  0
   43.7450   86.5410   59.9420 C   0  0  0  0  0  0  0  0  0  0  0  0
   43.3800   85.7450   58.6830 C   0  0  1  0  0  0  0  0  0  0  0  0
   41.6100   86.1150   60.0840 H   0  0  0  0  0  0  0  0  0  0  0  0
   43.5680   87.6420   59.9210 H   0  0  0  0  0  0  0  0  0  0  0  0
   44.6990   86.2260   60.3920 H   0  0  0  0  0  0  0  0  0  0  0  0
   42.8370   86.3580   57.9030 H   0  0  0  0  0  0  0  0  0  0  0  0
   42.7900   84.4420   60.7270 O   0  0  0  0  0  0  0  0  0  0  0  0
   40.0550   83.5270   62.9190 C   0  0  0  0  0  0  0  0  0  0  0  0
   40.6100   83.7660   64.1840 C   0  0  0  0  0  0  0  0  0  0  0  0
   41.9420   84.2460   64.2370 C   0  0  0  0  0  0  0  0  0  0  0  0
   42.5530   84.4280   63.0490 N   0  0  0  0  0  0  0  0  0  0  0  0
   42.0150   84.1980   61.8410 C   0  0  0  0  0  0  0  0  0  0  0  0
   40.7680   83.7470   61.7740 N   0  0  0  0  0  0  0  0  0  0  0  0
   39.0320   83.1570   62.8430 H   0  0  0  0  0  0  0  0  0  0  0  0
   40.0630   83.5990   65.1000 H   0  0  0  0  0  0  0  0  0  0  0  0
   42.4350   84.4530   65.1770 H   0  0  0  0  0  0  0  0  0  0  0  0
   44.1500   84.6920   58.3140 O   0  0  0  0  0  0  0  0  0  0  0  0
   44.4010   84.0150   55.8990 C   0  0  0  0  0  0  0  0  0  0  0  0
   44.7510   84.4600   57.1350 C   0  0  0  0  0  0  0  0  0  0  0  0
   46.1130   84.7750   57.2590 C   0  0  0  0  0  0  0  0  0  0  0  0
   46.6520   85.1500   58.1270 H   0  0  0  0  0  0  0  0  0  0  0  0
   47.0110   84.6350   56.1990 C   0  0  0  0  0  0  0  0  0  0  0  0
   48.0660   84.8580   56.2250 H   0  0  0  0  0  0  0  0  0  0  0  0
   46.5840   84.1740   54.9720 C   0  0  0  0  0  3  0  0  0  0  0  0
   45.2510   83.8610   54.8300 C   0  0  0  0  0  3  0  0  0  0  0  0
   42.0030   83.0040   55.9900 N   0  0  0  0  0  0  0  0  0  0  0  0
   42.9990   83.7470   55.6520 C   0  0  0  0  0  3  0  0  0  0  0  0
   42.5420   84.5940   54.5710 N   0  0  0  0  0  1  0  0  0  0  0  0
   42.0610   82.2910   56.7580 H   0  0  0  0  0  0  0  0  0  0  0  0
   42.0960   85.1240   53.7830 H   0  0  0  0  0  0  0  0  0  0  0  0
   41.6770   84.5990   53.9660 H   0  0  0  0  0 15  0  0  0  0  0  0
  1  2  1  0  0  0  0
  1  4  1  1  0  0  0
  1  8  1  0  0  0  0
  2  6  1  0  0  0  0
  3  7  1  6  0  0  0
  3  1  1  0  0  0  0
  3  2  1  0  0  0  0
  5  2  1  0  0  0  0
  8 13  1  0  0  0  0
  9 10  1  0  0  0  0
 10 11  2  0  0  0  0
 10 16  1  0  0  0  0
 11 17  1  0  0  0  0
 12 11  1  0  0  0  0
 13 12  2  0  0  0  0
 14 13  1  0  0  0  0
 14  9  2  0  0  0  0
 15  9  1  0  0  0  0
 18  3  1  0  0  0  0
 19 20  1  0  0  0  0
 20 21  2  0  0  0  0
 20 18  1  0  0  0  0
 21 22  1  0  0  0  0
 23 24  1  0  0  0  0
 23 21  1  0  0  0  0
 25 23  2  0  0  0  0
 26 25  1  0  0  0  0
 26 19  2  0  0  0  0
 27 30  1  0  0  0  0
 28 19  1  0  0  0  0
 28 27  2  0  0  0  0
 31 29  1  0  0  0  0
M  END
>  <minimizedAffinity>
-3.96741295

>  <minimizedRMSD>
0.864774883

$$$$
