
 OpenBabel03212520443D

 23 24  0  0  0  0  0  0  0  0999 V2000
   40.3970   79.9370   60.0170 C   0  0  0  0  0  0  0  0  0  0  0  0
   40.5150   80.1640   61.3690 C   0  0  0  0  0  0  0  0  0  0  0  0
   40.5440   79.0270   62.1410 C   0  0  0  0  0  0  0  0  0  0  0  0
   40.6330   79.1000   63.2080 H   0  0  0  0  0  0  0  0  0  0  0  0
   40.4620   77.7830   61.6090 C   0  0  0  0  0  0  0  0  0  0  0  0
   40.4880   76.9220   62.2500 H   0  0  0  0  0  0  0  0  0  0  0  0
   40.3450   77.5580   60.2650 C   0  0  0  0  0  3  0  0  0  0  0  0
   40.3110   78.6620   59.4430 C   0  0  0  0  0  3  0  0  0  0  0  0
   40.6020   81.5200   61.8800 C   0  0  0  0  0  0  0  0  0  0  0  0
   41.8770   81.9630   62.2430 C   0  0  0  0  0  0  0  0  0  0  0  0
   42.0760   83.2480   62.7460 C   0  0  0  0  0  0  0  0  0  0  0  0
   40.9680   84.0430   62.8610 N   0  0  0  0  0  0  0  0  0  0  0  0
   39.7480   83.6080   62.5100 C   0  0  0  0  0  0  0  0  0  0  0  0
   39.5940   82.3750   62.0330 N   0  0  0  0  0  0  0  0  0  0  0  0
   42.8070   81.4520   62.2040 H   0  0  0  0  0  0  0  0  0  0  0  0
   43.0140   83.6830   63.0540 H   0  0  0  0  0  0  0  0  0  0  0  0
   38.8820   84.2750   62.6180 H   0  0  0  0  0  0  0  0  0  0  0  0
   39.6440   81.7600   58.2720 N   0  0  0  0  0  0  0  0  0  0  0  0
   40.3300   80.9670   59.0110 C   0  0  0  0  0  0  0  0  0  0  0  0
   41.5040   81.5350   58.3900 N   0  0  0  0  0  0  0  0  0  0  0  0
   40.0770   82.4220   57.6010 H   0  0  0  0  0  0  0  0  0  0  0  0
   42.0390   80.9860   57.6580 H   0  0  0  0  0  0  0  0  0  0  0  0
   42.1630   82.3650   58.3280 H   0  0  0  0  0  0  0  0  0  0  0  0
  1  2  1  0  0  0  0
  2  9  1  0  0  0  0
  2  3  2  0  0  0  0
  3  4  1  0  0  0  0
  5  3  1  0  0  0  0
  5  6  1  0  0  0  0
  7  5  2  0  0  0  0
  8  1  2  0  0  0  0
  8  7  1  0  0  0  0
  9 14  2  0  0  0  0
  9 10  1  0  0  0  0
 10 11  2  0  0  0  0
 11 12  1  0  0  0  0
 11 16  1  0  0  0  0
 13 17  1  0  0  0  0
 13 12  2  0  0  0  0
 14 13  1  0  0  0  0
 15 10  1  0  0  0  0
 18 19  2  0  0  0  0
 19  1  1  0  0  0  0
 20 19  1  0  0  0  0
 21 18  1  0  0  0  0
 22 20  1  0  0  0  0
 23 20  1  0  0  0  0
M  END
>  <minimizedAffinity>
-4.5372653

>  <minimizedRMSD>
1.81523633

$$$$
