
 OpenBabel03212520433D

 23 24  0  0  0  0  0  0  0  0999 V2000
   40.5900   79.8210   60.5590 C   0  0  0  0  0  0  0  0  0  0  0  0
   40.1900   80.8230   59.7070 C   0  0  0  0  0  0  0  0  0  0  0  0
   40.1510   80.4660   58.3800 C   0  0  0  0  0  0  0  0  0  0  0  0
   39.8510   81.1810   57.6370 H   0  0  0  0  0  0  0  0  0  0  0  0
   40.4810   79.2240   57.9490 C   0  0  0  0  0  0  0  0  0  0  0  0
   40.4360   78.9890   56.9040 H   0  0  0  0  0  0  0  0  0  0  0  0
   40.8770   78.2280   58.7990 C   0  0  0  0  0  3  0  0  0  0  0  0
   40.9360   78.5290   60.1400 C   0  0  0  0  0  3  0  0  0  0  0  0
   39.8460   82.1350   60.2270 C   0  0  0  0  0  0  0  0  0  0  0  0
   40.0680   83.2170   59.3710 C   0  0  0  0  0  0  0  0  0  0  0  0
   39.7730   84.5200   59.7680 C   0  0  0  0  0  0  0  0  0  0  0  0
   39.2590   84.6790   61.0270 N   0  0  0  0  0  0  0  0  0  0  0  0
   39.0500   83.6340   61.8410 C   0  0  0  0  0  0  0  0  0  0  0  0
   39.3430   82.4020   61.4290 N   0  0  0  0  0  0  0  0  0  0  0  0
   40.4560   83.2290   58.3830 H   0  0  0  0  0  0  0  0  0  0  0  0
   39.9070   85.4190   59.1850 H   0  0  0  0  0  0  0  0  0  0  0  0
   38.6370   83.8010   62.8450 H   0  0  0  0  0  0  0  0  0  0  0  0
   41.0550   80.6510   63.0140 N   0  0  0  0  0  0  0  0  0  0  0  0
   40.7250   79.9580   61.9880 C   0  0  0  0  0  0  0  0  0  0  0  0
   40.3640   78.9090   62.9130 N   0  0  0  0  0  0  0  0  0  0  0  0
   40.9700   80.2980   63.9860 H   0  0  0  0  0  0  0  0  0  0  0  0
   40.9900   78.0620   63.0310 H   0  0  0  0  0  0  0  0  0  0  0  0
   39.6590   78.5560   63.6260 H   0  0  0  0  0  0  0  0  0  0  0  0
  1 19  1  0  0  0  0
  2  9  1  0  0  0  0
  2  1  2  0  0  0  0
  3  2  1  0  0  0  0
  4  3  1  0  0  0  0
  5  3  2  0  0  0  0
  5  7  1  0  0  0  0
  6  5  1  0  0  0  0
  7  8  2  0  0  0  0
  8  1  1  0  0  0  0
  9 14  1  0  0  0  0
 10 11  1  0  0  0  0
 10  9  2  0  0  0  0
 11 12  2  0  0  0  0
 12 13  1  0  0  0  0
 13 17  1  0  0  0  0
 14 13  2  0  0  0  0
 15 10  1  0  0  0  0
 16 11  1  0  0  0  0
 18 21  1  0  0  0  0
 19 20  1  0  0  0  0
 19 18  2  0  0  0  0
 20 22  1  0  0  0  0
 20 23  1  0  0  0  0
M  END
>  <minimizedAffinity>
-4.49249506

>  <minimizedRMSD>
1.24767125

$$$$
