
 OpenBabel03212520443D

 23 24  0  0  0  0  0  0  0  0999 V2000
   41.6040   80.0640   60.2330 C   0  0  0  0  0  0  0  0  0  0  0  0
   40.9550   80.2950   61.4230 C   0  0  0  0  0  0  0  0  0  0  0  0
   40.4880   79.1640   62.0500 C   0  0  0  0  0  0  0  0  0  0  0  0
   39.9670   79.2400   62.9850 H   0  0  0  0  0  0  0  0  0  0  0  0
   40.6540   77.9220   61.5320 C   0  0  0  0  0  0  0  0  0  0  0  0
   40.2740   77.0660   62.0540 H   0  0  0  0  0  0  0  0  0  0  0  0
   41.3010   77.6950   60.3480 C   0  0  0  0  0  3  0  0  0  0  0  0
   41.7910   78.7920   59.6760 C   0  0  0  0  0  3  0  0  0  0  0  0
   40.8090   81.6480   61.9300 C   0  0  0  0  0  0  0  0  0  0  0  0
   39.6820   82.3520   61.4970 C   0  0  0  0  0  0  0  0  0  0  0  0
   39.4430   83.6580   61.9220 C   0  0  0  0  0  0  0  0  0  0  0  0
   40.3610   84.2060   62.7760 N   0  0  0  0  0  0  0  0  0  0  0  0
   41.4400   83.5220   63.1860 C   0  0  0  0  0  0  0  0  0  0  0  0
   41.6370   82.2750   62.7610 N   0  0  0  0  0  0  0  0  0  0  0  0
   38.9040   82.0460   60.8440 H   0  0  0  0  0  0  0  0  0  0  0  0
   38.6080   84.2840   61.6470 H   0  0  0  0  0  0  0  0  0  0  0  0
   42.1550   83.9950   63.8720 H   0  0  0  0  0  0  0  0  0  0  0  0
   42.0420   81.9390   58.4370 N   0  0  0  0  0  0  0  0  0  0  0  0
   42.1660   81.0900   59.3880 C   0  0  0  0  0  0  0  0  0  0  0  0
   43.5350   81.5360   59.5020 N   0  0  0  0  0  0  0  0  0  0  0  0
   42.8200   82.5530   58.1220 H   0  0  0  0  0  0  0  0  0  0  0  0
   44.3250   80.9330   59.1340 H   0  0  0  0  0  0  0  0  0  0  0  0
   44.1970   82.2980   59.8320 H   0  0  0  0  0  0  0  0  0  0  0  0
  1  2  1  0  0  0  0
  2  9  1  0  0  0  0
  2  3  2  0  0  0  0
  3  4  1  0  0  0  0
  5  3  1  0  0  0  0
  5  6  1  0  0  0  0
  7  5  2  0  0  0  0
  8  1  2  0  0  0  0
  8  7  1  0  0  0  0
  9 14  1  0  0  0  0
 10 11  1  0  0  0  0
 10  9  2  0  0  0  0
 11 12  2  0  0  0  0
 12 13  1  0  0  0  0
 13 17  1  0  0  0  0
 14 13  2  0  0  0  0
 15 10  1  0  0  0  0
 16 11  1  0  0  0  0
 18 19  2  0  0  0  0
 19 20  1  0  0  0  0
 19  1  1  0  0  0  0
 20 23  1  0  0  0  0
 21 18  1  0  0  0  0
 22 20  1  0  0  0  0
M  END
>  <minimizedAffinity>
-3.6720171

>  <minimizedRMSD>
3.07139778

$$$$
