
 OpenBabel03212519593D

 23 24  0  0  0  0  0  0  0  0999 V2000
   42.0150   81.7670   62.2960 C   0  0  0  0  0  0  0  0  0  0  0  0
   43.1230   81.0100   62.0170 C   0  0  0  0  0  0  0  0  0  0  0  0
   44.3380   81.5330   62.4070 C   0  0  0  0  0  0  0  0  0  0  0  0
   45.2910   81.0110   62.2330 H   0  0  0  0  0  0  0  0  0  0  0  0
   44.3700   82.7690   63.0440 C   0  0  0  0  0  0  0  0  0  0  0  0
   45.3400   83.1430   63.3340 H   0  0  0  0  0  0  0  0  0  0  0  0
   43.2450   83.5120   63.3150 C   0  0  0  0  0  3  0  0  0  0  0  0
   42.0330   82.9920   62.9260 C   0  0  0  0  0  3  0  0  0  0  0  0
   43.2250   78.2320   59.5380 C   0  0  0  0  0  0  0  0  0  0  0  0
   42.9320   77.1260   60.3450 C   0  0  0  0  0  0  0  0  0  0  0  0
   42.7130   77.3800   61.6970 C   0  0  0  0  0  0  0  0  0  0  0  0
   42.7960   78.6670   62.1390 N   0  0  0  0  0  0  0  0  0  0  0  0
   43.0790   79.7150   61.3440 C   0  0  0  0  0  0  0  0  0  0  0  0
   43.2880   79.4620   60.0510 N   0  0  0  0  0  0  0  0  0  0  0  0
   43.4060   78.0880   58.4680 H   0  0  0  0  0  0  0  0  0  0  0  0
   42.8810   76.1450   59.9410 H   0  0  0  0  0  0  0  0  0  0  0  0
   42.4820   76.5860   62.3880 H   0  0  0  0  0  0  0  0  0  0  0  0
   39.8730   80.3820   61.6330 N   0  0  0  0  0  0  0  0  0  0  0  0
   40.6930   81.3160   61.9430 C   0  0  0  0  0  0  0  0  0  0  0  0
   39.5880   82.1990   61.8270 N   0  0  0  0  0  0  0  0  0  0  0  0
   38.8830   80.5510   61.4410 H   0  0  0  0  0  0  0  0  0  0  0  0
   39.1330   82.6360   62.6800 H   0  0  0  0  0  0  0  0  0  0  0  0
   38.8500   82.7570   61.3460 H   0  0  0  0  0  0  0  0  0  0  0  0
  1  8  1  0  0  0  0
  2  1  2  0  0  0  0
  2  3  1  0  0  0  0
  3  5  2  0  0  0  0
  4  3  1  0  0  0  0
  5  7  1  0  0  0  0
  5  6  1  0  0  0  0
  8  7  2  0  0  0  0
  9 14  2  0  0  0  0
  9 10  1  0  0  0  0
 10 11  2  0  0  0  0
 11 12  1  0  0  0  0
 11 17  1  0  0  0  0
 13  2  1  0  0  0  0
 13 12  2  0  0  0  0
 14 13  1  0  0  0  0
 15  9  1  0  0  0  0
 16 10  1  0  0  0  0
 18 19  2  0  0  0  0
 19  1  1  0  0  0  0
 20 19  1  0  0  0  0
 20 22  1  0  0  0  0
 21 18  1  0  0  0  0
 23 20  1  0  0  0  0
M  END
>  <minimizedAffinity>
-3.995507

>  <minimizedRMSD>
6.23802185

$$$$
