
 OpenBabel03212520443D

 23 24  0  0  0  0  0  0  0  0999 V2000
   40.9110   80.0920   59.7150 C   0  0  0  0  0  0  0  0  0  0  0  0
   40.8990   80.8020   60.8920 C   0  0  0  0  0  0  0  0  0  0  0  0
   41.5850   80.2110   61.9250 C   0  0  0  0  0  0  0  0  0  0  0  0
   41.6340   80.6890   62.8850 H   0  0  0  0  0  0  0  0  0  0  0  0
   42.2220   79.0220   61.7910 C   0  0  0  0  0  0  0  0  0  0  0  0
   42.7460   78.5960   62.6250 H   0  0  0  0  0  0  0  0  0  0  0  0
   42.2340   78.3170   60.6190 C   0  0  0  0  0  3  0  0  0  0  0  0
   41.5610   78.8620   59.5490 C   0  0  0  0  0  3  0  0  0  0  0  0
   40.2020   82.0740   60.9750 C   0  0  0  0  0  0  0  0  0  0  0  0
   40.5210   83.0180   59.9960 C   0  0  0  0  0  0  0  0  0  0  0  0
   39.9120   84.2720   59.9810 C   0  0  0  0  0  0  0  0  0  0  0  0
   38.9950   84.5240   60.9650 N   0  0  0  0  0  0  0  0  0  0  0  0
   38.6960   83.6110   61.9010 C   0  0  0  0  0  0  0  0  0  0  0  0
   39.2960   82.4220   61.8860 N   0  0  0  0  0  0  0  0  0  0  0  0
   41.2050   82.9500   59.1880 H   0  0  0  0  0  0  0  0  0  0  0  0
   40.0880   85.0670   59.2720 H   0  0  0  0  0  0  0  0  0  0  0  0
   37.9550   83.8490   62.6760 H   0  0  0  0  0  0  0  0  0  0  0  0
   39.1760   80.7530   57.8480 N   0  0  0  0  0  0  0  0  0  0  0  0
   40.2500   80.4990   58.4990 C   0  0  0  0  0  0  0  0  0  0  0  0
   40.9670   80.8360   57.2920 N   0  0  0  0  0  0  0  0  0  0  0  0
   39.1760   81.0600   56.8550 H   0  0  0  0  0  0  0  0  0  0  0  0
   41.3930   80.0730   56.6920 H   0  0  0  0  0  0  0  0  0  0  0  0
   41.3060   81.6090   56.6460 H   0  0  0  0  0  0  0  0  0  0  0  0
  1  2  1  0  0  0  0
  2  9  1  0  0  0  0
  2  3  2  0  0  0  0
  3  4  1  0  0  0  0
  5  3  1  0  0  0  0
  5  6  1  0  0  0  0
  7  5  2  0  0  0  0
  8  1  2  0  0  0  0
  8  7  1  0  0  0  0
  9 14  1  0  0  0  0
 10  9  2  0  0  0  0
 11 10  1  0  0  0  0
 11 12  2  0  0  0  0
 12 13  1  0  0  0  0
 13 17  1  0  0  0  0
 14 13  2  0  0  0  0
 15 10  1  0  0  0  0
 16 11  1  0  0  0  0
 18 19  2  0  0  0  0
 19  1  1  0  0  0  0
 20 19  1  0  0  0  0
 21 18  1  0  0  0  0
 22 20  1  0  0  0  0
 23 20  1  0  0  0  0
M  END
>  <minimizedAffinity>
-4.37482691

>  <minimizedRMSD>
0.958953381

$$$$
