
 OpenBabel03212519593D

 23 24  0  0  0  0  0  0  0  0999 V2000
   42.3380   84.6920   62.4400 C   0  0  0  0  0  0  0  0  0  0  0  0
   41.4970   84.2820   61.4390 C   0  0  0  0  0  0  0  0  0  0  0  0
   40.3420   83.6370   61.8310 C   0  0  0  0  0  0  0  0  0  0  0  0
   39.5970   83.2670   61.1120 H   0  0  0  0  0  0  0  0  0  0  0  0
   40.1020   83.4450   63.1870 C   0  0  0  0  0  0  0  0  0  0  0  0
   39.1870   82.9370   63.4530 H   0  0  0  0  0  0  0  0  0  0  0  0
   40.9590   83.8640   64.1770 C   0  0  0  0  0  0  0  0  0  0  0  0
   42.1110   84.5060   63.7870 C   0  0  0  0  0  0  0  0  0  0  0  0
   42.9270   84.2650   58.0000 C   0  0  0  0  0  0  0  0  0  0  0  0
   41.9940   85.0460   57.3050 C   0  0  0  0  0  0  0  0  0  0  0  0
   40.9220   85.5410   58.0430 C   0  0  0  0  0  0  0  0  0  0  0  0
   40.8510   85.2400   59.3710 N   0  0  0  0  0  0  0  0  0  0  0  0
   41.7600   84.4870   60.0180 C   0  0  0  0  0  0  0  0  0  0  0  0
   42.7830   84.0170   59.3030 N   0  0  0  0  0  0  0  0  0  0  0  0
   43.7890   83.8510   57.4670 H   0  0  0  0  0  0  0  0  0  0  0  0
   42.1040   85.2460   56.2680 H   0  0  0  0  0  0  0  0  0  0  0  0
   40.1590   86.1500   57.5860 H   0  0  0  0  0  0  0  0  0  0  0  0
   44.2220   86.4660   61.9490 N   0  0  0  0  0  0  0  0  0  0  0  0
   43.5680   85.3830   62.1510 C   0  0  0  0  0  0  0  0  0  0  0  0
   44.8000   84.7080   61.9540 N   0  0  0  0  0  0  0  0  0  0  0  0
   45.2260   86.4790   61.7500 H   0  0  0  0  0  0  0  0  0  0  0  0
   45.3240   84.2630   62.7610 H   0  0  0  0  0  0  0  0  0  0  0  0
   45.6150   84.3300   61.4250 H   0  0  0  0  0  0  0  0  0  0  0  0
  1  8  1  0  0  0  0
  2  3  1  0  0  0  0
  2  1  2  0  0  0  0
  3  5  2  0  0  0  0
  4  3  1  0  0  0  0
  5  6  1  0  0  0  0
  5  7  1  0  0  0  0
  8  7  2  0  0  0  0
  9 14  1  0  0  0  0
 10  9  2  0  0  0  0
 10 11  1  0  0  0  0
 11 12  2  0  0  0  0
 12 13  1  0  0  0  0
 13  2  1  0  0  0  0
 14 13  2  0  0  0  0
 15  9  1  0  0  0  0
 16 10  1  0  0  0  0
 17 11  1  0  0  0  0
 18 19  2  0  0  0  0
 19  1  1  0  0  0  0
 20 19  1  0  0  0  0
 20 22  1  0  0  0  0
 21 18  1  0  0  0  0
 23 20  1  0  0  0  0
M  END
>  <minimizedAffinity>
-4.82644463

>  <minimizedRMSD>
4.1295886

$$$$
