
 OpenBabel03212520443D

 23 24  0  0  0  0  0  0  0  0999 V2000
   40.4110   80.8230   60.6170 C   0  0  0  0  0  0  0  0  0  0  0  0
   40.9840   80.7450   61.8650 C   0  0  0  0  0  0  0  0  0  0  0  0
   41.2430   79.4670   62.2980 C   0  0  0  0  0  0  0  0  0  0  0  0
   41.6900   79.3030   63.2600 H   0  0  0  0  0  0  0  0  0  0  0  0
   40.9560   78.3720   61.5520 C   0  0  0  0  0  0  0  0  0  0  0  0
   41.1750   77.3920   61.9290 H   0  0  0  0  0  0  0  0  0  0  0  0
   40.3870   78.4520   60.3110 C   0  0  0  0  0  3  0  0  0  0  0  0
   40.1040   79.7080   59.8260 C   0  0  0  0  0  3  0  0  0  0  0  0
   41.2730   81.9540   62.6160 C   0  0  0  0  0  0  0  0  0  0  0  0
   42.5940   82.4080   62.5720 C   0  0  0  0  0  0  0  0  0  0  0  0
   42.9810   83.5590   63.2570 C   0  0  0  0  0  0  0  0  0  0  0  0
   42.0090   84.2120   63.9650 N   0  0  0  0  0  0  0  0  0  0  0  0
   40.7440   83.7670   64.0010 C   0  0  0  0  0  0  0  0  0  0  0  0
   40.4080   82.6650   63.3350 N   0  0  0  0  0  0  0  0  0  0  0  0
   43.4330   82.0000   62.0670 H   0  0  0  0  0  0  0  0  0  0  0  0
   43.9700   83.9900   63.2870 H   0  0  0  0  0  0  0  0  0  0  0  0
   39.9910   84.3170   64.5820 H   0  0  0  0  0  0  0  0  0  0  0  0
   39.7020   83.2860   60.0120 N   0  0  0  0  0  0  0  0  0  0  0  0
   40.0330   82.0480   59.9580 C   0  0  0  0  0  0  0  0  0  0  0  0
   39.9050   82.1600   58.5230 N   0  0  0  0  0  0  0  0  0  0  0  0
   39.4920   83.8520   59.1670 H   0  0  0  0  0  0  0  0  0  0  0  0
   39.0630   81.7460   58.0280 H   0  0  0  0  0  0  0  0  0  0  0  0
   40.3300   82.5170   57.6180 H   0  0  0  0  0  0  0  0  0  0  0  0
  1  2  1  0  0  0  0
  2  3  2  0  0  0  0
  2  9  1  0  0  0  0
  3  4  1  0  0  0  0
  5  6  1  0  0  0  0
  5  3  1  0  0  0  0
  7  5  2  0  0  0  0
  8  7  1  0  0  0  0
  8  1  2  0  0  0  0
  9 14  1  0  0  0  0
 10  9  2  0  0  0  0
 10 11  1  0  0  0  0
 11 16  1  0  0  0  0
 11 12  2  0  0  0  0
 12 13  1  0  0  0  0
 13 17  1  0  0  0  0
 14 13  2  0  0  0  0
 15 10  1  0  0  0  0
 19 18  2  0  0  0  0
 19  1  1  0  0  0  0
 20 19  1  0  0  0  0
 21 18  1  0  0  0  0
 22 20  1  0  0  0  0
 23 20  1  0  0  0  0
M  END
>  <minimizedAffinity>
-5.11088514

>  <minimizedRMSD>
2.68774462

$$$$
