
 OpenBabel03212520453D

 23 24  0  0  0  0  0  0  0  0999 V2000
   38.3510   74.4380   58.2890 C   0  0  0  0  0  0  0  0  0  0  0  0
   38.5310   75.7730   58.0100 C   0  0  0  0  0  0  0  0  0  0  0  0
   39.0720   76.5060   59.0400 C   0  0  0  0  0  0  0  0  0  0  0  0
   39.2510   77.5570   58.9190 H   0  0  0  0  0  0  0  0  0  0  0  0
   39.4000   75.9530   60.2330 C   0  0  0  0  0  0  0  0  0  0  0  0
   39.8200   76.5630   61.0100 H   0  0  0  0  0  0  0  0  0  0  0  0
   39.2200   74.6260   60.5090 C   0  0  0  0  0  3  0  0  0  0  0  0
   38.6810   73.8430   59.5140 C   0  0  0  0  0  3  0  0  0  0  0  0
   38.1640   76.3070   56.7110 C   0  0  0  0  0  0  0  0  0  0  0  0
   39.2020   76.4520   55.7870 C   0  0  0  0  0  0  0  0  0  0  0  0
   38.9620   76.9560   54.5090 C   0  0  0  0  0  0  0  0  0  0  0  0
   37.6700   77.2950   54.2130 N   0  0  0  0  0  0  0  0  0  0  0  0
   36.6810   77.1530   55.1070 C   0  0  0  0  0  0  0  0  0  0  0  0
   36.9450   76.6680   56.3190 N   0  0  0  0  0  0  0  0  0  0  0  0
   40.2350   76.2290   55.8890 H   0  0  0  0  0  0  0  0  0  0  0  0
   39.6910   77.1060   53.7270 H   0  0  0  0  0  0  0  0  0  0  0  0
   35.6560   77.4370   54.8340 H   0  0  0  0  0  0  0  0  0  0  0  0
   37.8660   72.3650   56.7400 N   0  0  0  0  0  0  0  0  0  0  0  0
   37.7870   73.4750   57.3770 C   0  0  0  0  0  0  0  0  0  0  0  0
   36.4950   73.6490   56.7520 N   0  0  0  0  0  0  0  0  0  0  0  0
   37.1170   72.0220   56.1070 H   0  0  0  0  0  0  0  0  0  0  0  0
   36.3770   74.3340   55.9520 H   0  0  0  0  0  0  0  0  0  0  0  0
   35.4730   73.3610   56.7300 H   0  0  0  0  0  0  0  0  0  0  0  0
  1  8  1  0  0  0  0
  2  1  2  0  0  0  0
  2  3  1  0  0  0  0
  3  5  2  0  0  0  0
  4  3  1  0  0  0  0
  5  7  1  0  0  0  0
  5  6  1  0  0  0  0
  8  7  2  0  0  0  0
  9  2  1  0  0  0  0
 10 15  1  0  0  0  0
 10  9  2  0  0  0  0
 11 10  1  0  0  0  0
 12 11  2  0  0  0  0
 12 13  1  0  0  0  0
 13 14  2  0  0  0  0
 14  9  1  0  0  0  0
 16 11  1  0  0  0  0
 17 13  1  0  0  0  0
 18 19  2  0  0  0  0
 19  1  1  0  0  0  0
 20 19  1  0  0  0  0
 21 18  1  0  0  0  0
 22 20  1  0  0  0  0
 23 20  1  0  0  0  0
M  END
>  <minimizedAffinity>
-5.26444435

$$$$

 OpenBabel03212520453D

 23 24  0  0  0  0  0  0  0  0999 V2000
   39.0150   73.4280   58.6560 C   0  0  0  0  0  0  0  0  0  0  0  0
   38.6710   74.7540   58.7790 C   0  0  0  0  0  0  0  0  0  0  0  0
   38.9590   75.3100   60.0030 C   0  0  0  0  0  0  0  0  0  0  0  0
   38.7270   76.3400   60.1960 H   0  0  0  0  0  0  0  0  0  0  0  0
   39.5360   74.6050   61.0060 C   0  0  0  0  0  0  0  0  0  0  0  0
   39.7430   75.0790   61.9460 H   0  0  0  0  0  0  0  0  0  0  0  0
   39.8780   73.2860   60.8820 C   0  0  0  0  0  3  0  0  0  0  0  0
   39.6130   72.6770   59.6770 C   0  0  0  0  0  3  0  0  0  0  0  0
   38.0590   75.4590   57.6670 C   0  0  0  0  0  0  0  0  0  0  0  0
   38.5040   76.7650   57.4430 C   0  0  0  0  0  0  0  0  0  0  0  0
   37.9840   77.5330   56.4020 C   0  0  0  0  0  0  0  0  0  0  0  0
   37.0260   76.9450   55.6210 N   0  0  0  0  0  0  0  0  0  0  0  0
   36.6060   75.6910   55.8450 C   0  0  0  0  0  0  0  0  0  0  0  0
   37.1240   74.9850   56.8480 N   0  0  0  0  0  0  0  0  0  0  0  0
   39.2320   77.3310   57.9690 H   0  0  0  0  0  0  0  0  0  0  0  0
   38.2590   78.5450   56.1470 H   0  0  0  0  0  0  0  0  0  0  0  0
   35.8340   75.2530   55.1970 H   0  0  0  0  0  0  0  0  0  0  0  0
   38.1290   71.7350   56.8450 N   0  0  0  0  0  0  0  0  0  0  0  0
   38.7990   72.6260   57.4780 C   0  0  0  0  0  0  0  0  0  0  0  0
   39.6430   72.7090   56.3080 N   0  0  0  0  0  0  0  0  0  0  0  0
   38.3670   71.4270   55.8820 H   0  0  0  0  0  0  0  0  0  0  0  0
   40.6080   72.2710   56.3130 H   0  0  0  0  0  0  0  0  0  0  0  0
   39.7460   73.0570   55.3100 H   0  0  0  0  0  0  0  0  0  0  0  0
  1  2  2  0  0  0  0
  1  8  1  0  0  0  0
  2  3  1  0  0  0  0
  3  4  1  0  0  0  0
  3  5  2  0  0  0  0
  5  6  1  0  0  0  0
  7  5  1  0  0  0  0
  8  7  2  0  0  0  0
  9  2  1  0  0  0  0
 10  9  1  0  0  0  0
 10 15  1  0  0  0  0
 11 10  2  0  0  0  0
 12 13  2  0  0  0  0
 12 11  1  0  0  0  0
 13 14  1  0  0  0  0
 14  9  2  0  0  0  0
 16 11  1  0  0  0  0
 17 13  1  0  0  0  0
 18 19  2  0  0  0  0
 19  1  1  0  0  0  0
 20 22  1  0  0  0  0
 20 19  1  0  0  0  0
 21 18  1  0  0  0  0
 23 20  1  0  0  0  0
M  END
>  <minimizedAffinity>
-5.04989195

$$$$

 OpenBabel03212520453D

 23 24  0  0  0  0  0  0  0  0999 V2000
   39.9000   74.3720   60.0450 C   0  0  0  0  0  0  0  0  0  0  0  0
   40.0470   74.5640   58.6910 C   0  0  0  0  0  0  0  0  0  0  0  0
   41.2800   74.2170   58.1940 C   0  0  0  0  0  0  0  0  0  0  0  0
   41.4930   74.3310   57.1480 H   0  0  0  0  0  0  0  0  0  0  0  0
   42.2700   73.7240   58.9780 C   0  0  0  0  0  0  0  0  0  0  0  0
   43.2180   73.4660   58.5470 H   0  0  0  0  0  0  0  0  0  0  0  0
   42.1220   73.5340   60.3240 C   0  0  0  0  0  3  0  0  0  0  0  0
   40.9060   73.8650   60.8770 C   0  0  0  0  0  3  0  0  0  0  0  0
   38.9480   75.0920   57.9010 C   0  0  0  0  0  0  0  0  0  0  0  0
   39.0010   76.4570   57.6040 C   0  0  0  0  0  0  0  0  0  0  0  0
   37.9980   77.0670   56.8520 C   0  0  0  0  0  0  0  0  0  0  0  0
   36.9730   76.2660   56.4260 N   0  0  0  0  0  0  0  0  0  0  0  0
   36.9330   74.9580   56.7170 C   0  0  0  0  0  0  0  0  0  0  0  0
   37.9070   74.4060   57.4370 N   0  0  0  0  0  0  0  0  0  0  0  0
   39.7300   77.1790   57.8710 H   0  0  0  0  0  0  0  0  0  0  0  0
   37.9450   78.1080   56.5700 H   0  0  0  0  0  0  0  0  0  0  0  0
   36.0930   74.3470   56.3570 H   0  0  0  0  0  0  0  0  0  0  0  0
   37.4970   74.4070   61.1230 N   0  0  0  0  0  0  0  0  0  0  0  0
   38.7080   74.6760   60.7960 C   0  0  0  0  0  0  0  0  0  0  0  0
   38.6110   75.8080   61.6900 N   0  0  0  0  0  0  0  0  0  0  0  0
   36.9520   74.9800   61.7950 H   0  0  0  0  0  0  0  0  0  0  0  0
   38.5030   76.7880   61.3020 H   0  0  0  0  0  0  0  0  0  0  0  0
   38.5990   76.1460   62.6970 H   0  0  0  0  0  0  0  0  0  0  0  0
  1 19  1  0  0  0  0
  1  8  1  0  0  0  0
  2  1  2  0  0  0  0
  3  2  1  0  0  0  0
  3  5  2  0  0  0  0
  4  3  1  0  0  0  0
  5  7  1  0  0  0  0
  6  5  1  0  0  0  0
  7  8  2  0  0  0  0
  9  2  1  0  0  0  0
 10 15  1  0  0  0  0
 10  9  1  0  0  0  0
 11 10  2  0  0  0  0
 12 13  2  0  0  0  0
 12 11  1  0  0  0  0
 13 14  1  0  0  0  0
 14  9  2  0  0  0  0
 16 11  1  0  0  0  0
 17 13  1  0  0  0  0
 18 21  1  0  0  0  0
 19 18  2  0  0  0  0
 19 20  1  0  0  0  0
 20 23  1  0  0  0  0
 22 20  1  0  0  0  0
M  END
>  <minimizedAffinity>
-5.01162815

$$$$

 OpenBabel03212520453D

 23 24  0  0  0  0  0  0  0  0999 V2000
   38.9930   74.2800   59.3500 C   0  0  0  0  0  0  0  0  0  0  0  0
   39.7170   73.1110   59.3860 C   0  0  0  0  0  0  0  0  0  0  0  0
   39.3870   72.2010   58.4110 C   0  0  0  0  0  0  0  0  0  0  0  0
   39.8960   71.2580   58.3560 H   0  0  0  0  0  0  0  0  0  0  0  0
   38.4240   72.4400   57.4870 C   0  0  0  0  0  0  0  0  0  0  0  0
   38.1980   71.7010   56.7430 H   0  0  0  0  0  0  0  0  0  0  0  0
   37.7050   73.6030   57.4520 C   0  0  0  0  0  3  0  0  0  0  0  0
   37.9930   74.5510   58.4070 C   0  0  0  0  0  3  0  0  0  0  0  0
   40.7400   72.9130   60.3980 C   0  0  0  0  0  0  0  0  0  0  0  0
   42.0530   73.1960   60.0120 C   0  0  0  0  0  0  0  0  0  0  0  0
   43.1140   73.0400   60.9040 C   0  0  0  0  0  0  0  0  0  0  0  0
   42.8020   72.6020   62.1620 N   0  0  0  0  0  0  0  0  0  0  0  0
   41.5380   72.3320   62.5220 C   0  0  0  0  0  0  0  0  0  0  0  0
   40.5490   72.4920   61.6460 N   0  0  0  0  0  0  0  0  0  0  0  0
   42.4250   73.5380   59.0790 H   0  0  0  0  0  0  0  0  0  0  0  0
   44.1570   73.2300   60.7050 H   0  0  0  0  0  0  0  0  0  0  0  0
   41.3260   71.9810   63.5410 H   0  0  0  0  0  0  0  0  0  0  0  0
   39.6970   76.4820   60.6090 N   0  0  0  0  0  0  0  0  0  0  0  0
   39.1460   75.3730   60.2760 C   0  0  0  0  0  0  0  0  0  0  0  0
   38.4030   75.4640   61.5120 N   0  0  0  0  0  0  0  0  0  0  0  0
   39.4690   76.9850   61.4890 H   0  0  0  0  0  0  0  0  0  0  0  0
   38.6620   74.8530   62.3380 H   0  0  0  0  0  0  0  0  0  0  0  0
   37.6060   75.9300   62.0370 H   0  0  0  0  0  0  0  0  0  0  0  0
  1  2  1  0  0  0  0
  1 19  1  0  0  0  0
  2  9  1  0  0  0  0
  3  2  2  0  0  0  0
  4  3  1  0  0  0  0
  5  3  1  0  0  0  0
  6  5  1  0  0  0  0
  7  5  2  0  0  0  0
  7  8  1  0  0  0  0
  8  1  2  0  0  0  0
  9 14  1  0  0  0  0
 10  9  2  0  0  0  0
 10 11  1  0  0  0  0
 11 12  2  0  0  0  0
 12 13  1  0  0  0  0
 13 17  1  0  0  0  0
 14 13  2  0  0  0  0
 15 10  1  0  0  0  0
 16 11  1  0  0  0  0
 18 21  1  0  0  0  0
 19 18  2  0  0  0  0
 19 20  1  0  0  0  0
 20 23  1  0  0  0  0
 20 22  1  0  0  0  0
M  END
>  <minimizedAffinity>
-4.8912096

$$$$

 OpenBabel03212520453D

 23 24  0  0  0  0  0  0  0  0999 V2000
   40.3340   73.9410   60.9660 C   0  0  0  0  0  0  0  0  0  0  0  0
   41.2530   74.3910   60.0470 C   0  0  0  0  0  0  0  0  0  0  0  0
   42.4810   73.7770   60.1160 C   0  0  0  0  0  0  0  0  0  0  0  0
   43.2650   74.0600   59.4390 H   0  0  0  0  0  0  0  0  0  0  0  0
   42.7610   72.8060   61.0190 C   0  0  0  0  0  0  0  0  0  0  0  0
   43.7330   72.3540   61.0380 H   0  0  0  0  0  0  0  0  0  0  0  0
   41.8460   72.3600   61.9330 C   0  0  0  0  0  3  0  0  0  0  0  0
   40.5980   72.9400   61.9100 C   0  0  0  0  0  3  0  0  0  0  0  0
   40.8940   75.4320   59.0990 C   0  0  0  0  0  0  0  0  0  0  0  0
   40.6310   75.0140   57.7920 C   0  0  0  0  0  0  0  0  0  0  0  0
   40.2770   75.9290   56.8030 C   0  0  0  0  0  0  0  0  0  0  0  0
   40.2030   77.2440   57.1770 N   0  0  0  0  0  0  0  0  0  0  0  0
   40.4580   77.6350   58.4340 C   0  0  0  0  0  0  0  0  0  0  0  0
   40.7930   76.7340   59.3550 N   0  0  0  0  0  0  0  0  0  0  0  0
   40.6530   74.0370   57.3770 H   0  0  0  0  0  0  0  0  0  0  0  0
   40.0560   75.7100   55.7690 H   0  0  0  0  0  0  0  0  0  0  0  0
   40.3890   78.6990   58.6970 H   0  0  0  0  0  0  0  0  0  0  0  0
   37.7240   74.2820   60.9730 N   0  0  0  0  0  0  0  0  0  0  0  0
   38.9890   74.4410   61.0990 C   0  0  0  0  0  0  0  0  0  0  0  0
   38.6900   75.7590   61.6120 N   0  0  0  0  0  0  0  0  0  0  0  0
   37.0330   75.0120   61.2330 H   0  0  0  0  0  0  0  0  0  0  0  0
   38.8480   76.6160   61.0080 H   0  0  0  0  0  0  0  0  0  0  0  0
   38.3350   76.3340   62.4320 H   0  0  0  0  0  0  0  0  0  0  0  0
  1 19  1  0  0  0  0
  1  8  1  0  0  0  0
  2  3  1  0  0  0  0
  2  1  2  0  0  0  0
  3  5  2  0  0  0  0
  4  3  1  0  0  0  0
  5  6  1  0  0  0  0
  5  7  1  0  0  0  0
  8  7  2  0  0  0  0
  9 14  1  0  0  0  0
  9  2  1  0  0  0  0
 10  9  2  0  0  0  0
 11 12  2  0  0  0  0
 11 10  1  0  0  0  0
 12 13  1  0  0  0  0
 13 17  1  0  0  0  0
 13 14  2  0  0  0  0
 15 10  1  0  0  0  0
 16 11  1  0  0  0  0
 18 19  2  0  0  0  0
 18 21  1  0  0  0  0
 19 20  1  0  0  0  0
 20 23  1  0  0  0  0
 22 20  1  0  0  0  0
M  END
>  <minimizedAffinity>
-4.87318182

$$$$

 OpenBabel03212520453D

 23 24  0  0  0  0  0  0  0  0999 V2000
   40.2490   75.6440   59.8910 C   0  0  0  0  0  0  0  0  0  0  0  0
   41.2080   74.8900   59.2570 C   0  0  0  0  0  0  0  0  0  0  0  0
   42.3570   75.5740   58.9380 C   0  0  0  0  0  0  0  0  0  0  0  0
   43.1650   75.0710   58.4400 H   0  0  0  0  0  0  0  0  0  0  0  0
   42.5280   76.8870   59.2280 C   0  0  0  0  0  0  0  0  0  0  0  0
   43.4420   77.3810   58.9600 H   0  0  0  0  0  0  0  0  0  0  0  0
   41.5730   77.6350   59.8590 C   0  0  0  0  0  3  0  0  0  0  0  0
   40.4010   77.0020   60.2020 C   0  0  0  0  0  3  0  0  0  0  0  0
   40.9700   73.4850   58.9760 C   0  0  0  0  0  0  0  0  0  0  0  0
   41.6870   72.5700   59.7520 C   0  0  0  0  0  0  0  0  0  0  0  0
   41.5350   71.1960   59.5670 C   0  0  0  0  0  0  0  0  0  0  0  0
   40.6560   70.7990   58.5970 N   0  0  0  0  0  0  0  0  0  0  0  0
   39.9730   71.6850   57.8570 C   0  0  0  0  0  0  0  0  0  0  0  0
   40.1420   72.9900   58.0600 N   0  0  0  0  0  0  0  0  0  0  0  0
   42.3910   72.7450   60.5260 H   0  0  0  0  0  0  0  0  0  0  0  0
   42.0400   70.4120   60.1100 H   0  0  0  0  0  0  0  0  0  0  0  0
   39.2770   71.3280   57.0870 H   0  0  0  0  0  0  0  0  0  0  0  0
   37.8960   74.4770   60.0750 N   0  0  0  0  0  0  0  0  0  0  0  0
   38.9590   75.1550   60.3080 C   0  0  0  0  0  0  0  0  0  0  0  0
   38.3830   75.4630   61.5980 N   0  0  0  0  0  0  0  0  0  0  0  0
   37.1210   74.3880   60.7600 H   0  0  0  0  0  0  0  0  0  0  0  0
   37.9750   76.4230   61.7850 H   0  0  0  0  0  0  0  0  0  0  0  0
   38.1540   75.1140   62.5740 H   0  0  0  0  0  0  0  0  0  0  0  0
  1  8  1  0  0  0  0
  1 19  1  0  0  0  0
  2  1  2  0  0  0  0
  3  5  2  0  0  0  0
  3  2  1  0  0  0  0
  4  3  1  0  0  0  0
  5  7  1  0  0  0  0
  6  5  1  0  0  0  0
  7  8  2  0  0  0  0
  9  2  1  0  0  0  0
  9 10  1  0  0  0  0
 10 15  1  0  0  0  0
 11 10  2  0  0  0  0
 11 16  1  0  0  0  0
 12 11  1  0  0  0  0
 13 14  1  0  0  0  0
 13 12  2  0  0  0  0
 14  9  2  0  0  0  0
 17 13  1  0  0  0  0
 18 19  2  0  0  0  0
 18 21  1  0  0  0  0
 19 20  1  0  0  0  0
 20 22  1  0  0  0  0
 20 23  1  0  0  0  0
M  END
>  <minimizedAffinity>
-4.85847378

$$$$

 OpenBabel03212520453D

 23 24  0  0  0  0  0  0  0  0999 V2000
   42.2970   73.7530   60.4960 C   0  0  0  0  0  0  0  0  0  0  0  0
   40.9370   73.8790   60.6580 C   0  0  0  0  0  0  0  0  0  0  0  0
   40.3890   73.0280   61.5870 C   0  0  0  0  0  0  0  0  0  0  0  0
   39.3340   73.0500   61.7850 H   0  0  0  0  0  0  0  0  0  0  0  0
   41.1330   72.1380   62.2880 C   0  0  0  0  0  0  0  0  0  0  0  0
   40.6630   71.4920   63.0050 H   0  0  0  0  0  0  0  0  0  0  0  0
   42.4850   72.0140   62.1270 C   0  0  0  0  0  3  0  0  0  0  0  0
   43.0880   72.8410   61.2080 C   0  0  0  0  0  3  0  0  0  0  0  0
   40.1930   74.8550   59.8810 C   0  0  0  0  0  0  0  0  0  0  0  0
   39.2920   74.3430   58.9450 C   0  0  0  0  0  0  0  0  0  0  0  0
   38.5260   75.1910   58.1460 C   0  0  0  0  0  0  0  0  0  0  0  0
   38.7030   76.5350   58.3270 N   0  0  0  0  0  0  0  0  0  0  0  0
   39.5710   77.0170   59.2290 C   0  0  0  0  0  0  0  0  0  0  0  0
   40.2870   76.1790   59.9760 N   0  0  0  0  0  0  0  0  0  0  0  0
   39.0630   73.3340   58.7080 H   0  0  0  0  0  0  0  0  0  0  0  0
   37.8060   74.8960   57.3970 H   0  0  0  0  0  0  0  0  0  0  0  0
   39.6870   78.1030   59.3460 H   0  0  0  0  0  0  0  0  0  0  0  0
   43.1790   75.2980   58.5550 N   0  0  0  0  0  0  0  0  0  0  0  0
   43.0920   74.5220   59.5720 C   0  0  0  0  0  0  0  0  0  0  0  0
   44.5340   74.5920   59.6470 N   0  0  0  0  0  0  0  0  0  0  0  0
   44.0830   75.6540   58.1910 H   0  0  0  0  0  0  0  0  0  0  0  0
   45.1260   73.7730   59.3270 H   0  0  0  0  0  0  0  0  0  0  0  0
   45.3820   75.1720   59.9130 H   0  0  0  0  0  0  0  0  0  0  0  0
  1  2  2  0  0  0  0
  1  8  1  0  0  0  0
  2  3  1  0  0  0  0
  3  4  1  0  0  0  0
  3  5  2  0  0  0  0
  5  6  1  0  0  0  0
  7  5  1  0  0  0  0
  8  7  2  0  0  0  0
  9 14  1  0  0  0  0
  9  2  1  0  0  0  0
 10  9  2  0  0  0  0
 11 12  2  0  0  0  0
 11 10  1  0  0  0  0
 12 13  1  0  0  0  0
 13 17  1  0  0  0  0
 13 14  2  0  0  0  0
 15 10  1  0  0  0  0
 16 11  1  0  0  0  0
 18 19  2  0  0  0  0
 19 20  1  0  0  0  0
 19  1  1  0  0  0  0
 20 23  1  0  0  0  0
 21 18  1  0  0  0  0
 22 20  1  0  0  0  0
M  END
>  <minimizedAffinity>
-4.67305517

$$$$

 OpenBabel03212520453D

 23 24  0  0  0  0  0  0  0  0999 V2000
   40.1070   75.6600   59.2390 C   0  0  0  0  0  0  0  0  0  0  0  0
   41.2130   75.3110   58.5000 C   0  0  0  0  0  0  0  0  0  0  0  0
   41.2710   75.8790   57.2500 C   0  0  0  0  0  0  0  0  0  0  0  0
   42.0960   75.6670   56.5980 H   0  0  0  0  0  0  0  0  0  0  0  0
   40.3120   76.7170   56.7860 C   0  0  0  0  0  0  0  0  0  0  0  0
   40.3970   77.1380   55.8020 H   0  0  0  0  0  0  0  0  0  0  0  0
   39.2120   77.0630   57.5220 C   0  0  0  0  0  3  0  0  0  0  0  0
   39.1020   76.5230   58.7820 C   0  0  0  0  0  3  0  0  0  0  0  0
   42.2110   74.4110   59.0530 C   0  0  0  0  0  0  0  0  0  0  0  0
   43.4380   74.9850   59.3950 C   0  0  0  0  0  0  0  0  0  0  0  0
   44.4660   74.2140   59.9340 C   0  0  0  0  0  0  0  0  0  0  0  0
   44.2110   72.8810   60.1090 N   0  0  0  0  0  0  0  0  0  0  0  0
   43.0290   72.3400   59.7770 C   0  0  0  0  0  0  0  0  0  0  0  0
   42.0680   73.1050   59.2650 N   0  0  0  0  0  0  0  0  0  0  0  0
   43.7600   75.9930   59.3110 H   0  0  0  0  0  0  0  0  0  0  0  0
   45.4460   74.5590   60.2290 H   0  0  0  0  0  0  0  0  0  0  0  0
   42.8610   71.2650   59.9310 H   0  0  0  0  0  0  0  0  0  0  0  0
   39.9820   74.3170   61.5000 N   0  0  0  0  0  0  0  0  0  0  0  0
   39.8180   75.1810   60.5670 C   0  0  0  0  0  0  0  0  0  0  0  0
   38.9180   75.8650   61.4690 N   0  0  0  0  0  0  0  0  0  0  0  0
   39.5070   74.3830   62.4210 H   0  0  0  0  0  0  0  0  0  0  0  0
   37.8700   75.8080   61.3230 H   0  0  0  0  0  0  0  0  0  0  0  0
   38.8210   76.4810   62.3280 H   0  0  0  0  0  0  0  0  0  0  0  0
  1 19  1  0  0  0  0
  2  9  1  0  0  0  0
  2  1  2  0  0  0  0
  3  2  1  0  0  0  0
  4  3  1  0  0  0  0
  5  3  2  0  0  0  0
  5  7  1  0  0  0  0
  6  5  1  0  0  0  0
  7  8  2  0  0  0  0
  8  1  1  0  0  0  0
  9 14  2  0  0  0  0
  9 10  1  0  0  0  0
 10 11  2  0  0  0  0
 11 12  1  0  0  0  0
 11 16  1  0  0  0  0
 13 17  1  0  0  0  0
 13 12  2  0  0  0  0
 14 13  1  0  0  0  0
 15 10  1  0  0  0  0
 18 21  1  0  0  0  0
 19 20  1  0  0  0  0
 19 18  2  0  0  0  0
 20 23  1  0  0  0  0
 22 20  1  0  0  0  0
M  END
>  <minimizedAffinity>
-4.60913754

$$$$

 OpenBabel03212520453D

 23 24  0  0  0  0  0  0  0  0999 V2000
   40.7950   75.6910   60.0240 C   0  0  0  0  0  0  0  0  0  0  0  0
   41.2020   74.3770   60.0450 C   0  0  0  0  0  0  0  0  0  0  0  0
   40.3190   73.5130   60.6480 C   0  0  0  0  0  0  0  0  0  0  0  0
   40.5480   72.4670   60.7140 H   0  0  0  0  0  0  0  0  0  0  0  0
   39.1430   73.9270   61.1790 C   0  0  0  0  0  0  0  0  0  0  0  0
   38.4830   73.2170   61.6410 H   0  0  0  0  0  0  0  0  0  0  0  0
   38.7400   75.2330   61.1570 C   0  0  0  0  0  3  0  0  0  0  0  0
   39.5850   76.1440   60.5660 C   0  0  0  0  0  3  0  0  0  0  0  0
   42.4730   73.9930   59.4550 C   0  0  0  0  0  0  0  0  0  0  0  0
   42.4100   73.1180   58.3680 C   0  0  0  0  0  0  0  0  0  0  0  0
   43.5690   72.6840   57.7270 C   0  0  0  0  0  0  0  0  0  0  0  0
   44.7570   73.1580   58.2140 N   0  0  0  0  0  0  0  0  0  0  0  0
   44.8060   73.9980   59.2580 C   0  0  0  0  0  0  0  0  0  0  0  0
   43.6800   74.3930   59.8480 N   0  0  0  0  0  0  0  0  0  0  0  0
   41.5640   72.6820   57.8990 H   0  0  0  0  0  0  0  0  0  0  0  0
   43.6280   72.0120   56.8840 H   0  0  0  0  0  0  0  0  0  0  0  0
   45.7790   74.3570   59.6220 H   0  0  0  0  0  0  0  0  0  0  0  0
   42.5060   77.6350   59.5490 N   0  0  0  0  0  0  0  0  0  0  0  0
   41.5540   76.7800   59.4630 C   0  0  0  0  0  0  0  0  0  0  0  0
   41.2710   77.3470   58.1640 N   0  0  0  0  0  0  0  0  0  0  0  0
   42.7190   78.3210   58.7990 H   0  0  0  0  0  0  0  0  0  0  0  0
   40.4350   77.9850   58.0310 H   0  0  0  0  0  0  0  0  0  0  0  0
   41.5600   77.4220   57.1450 H   0  0  0  0  0  0  0  0  0  0  0  0
  1  2  2  0  0  0  0
  1  8  1  0  0  0  0
  2  3  1  0  0  0  0
  3  4  1  0  0  0  0
  3  5  2  0  0  0  0
  5  6  1  0  0  0  0
  7  5  1  0  0  0  0
  8  7  2  0  0  0  0
  9 14  1  0  0  0  0
  9  2  1  0  0  0  0
 10  9  2  0  0  0  0
 11 12  2  0  0  0  0
 11 10  1  0  0  0  0
 12 13  1  0  0  0  0
 13 17  1  0  0  0  0
 13 14  2  0  0  0  0
 15 10  1  0  0  0  0
 16 11  1  0  0  0  0
 19 18  2  0  0  0  0
 19  1  1  0  0  0  0
 20 19  1  0  0  0  0
 21 18  1  0  0  0  0
 22 20  1  0  0  0  0
 23 20  1  0  0  0  0
M  END
>  <minimizedAffinity>
-4.60286999

$$$$
