
 OpenBabel03212520433D

 23 24  0  0  0  0  0  0  0  0999 V2000
   42.1860   80.7540   61.7260 C   0  0  0  0  0  0  0  0  0  0  0  0
   40.8600   80.7900   61.3620 C   0  0  0  0  0  0  0  0  0  0  0  0
   40.2930   79.5570   61.1430 C   0  0  0  0  0  0  0  0  0  0  0  0
   39.2620   79.4800   60.8540 H   0  0  0  0  0  0  0  0  0  0  0  0
   40.9880   78.4010   61.2760 C   0  0  0  0  0  0  0  0  0  0  0  0
   40.5050   77.4600   61.0940 H   0  0  0  0  0  0  0  0  0  0  0  0
   42.3070   78.3680   61.6380 C   0  0  0  0  0  3  0  0  0  0  0  0
   42.9270   79.5750   61.8710 C   0  0  0  0  0  3  0  0  0  0  0  0
   40.1660   82.0600   61.2400 C   0  0  0  0  0  0  0  0  0  0  0  0
   40.2570   82.6970   59.9990 C   0  0  0  0  0  0  0  0  0  0  0  0
   39.6290   83.9210   59.7720 C   0  0  0  0  0  0  0  0  0  0  0  0
   38.9270   84.4570   60.8170 N   0  0  0  0  0  0  0  0  0  0  0  0
   38.8460   83.8370   62.0040 C   0  0  0  0  0  0  0  0  0  0  0  0
   39.4570   82.6690   62.1870 N   0  0  0  0  0  0  0  0  0  0  0  0
   40.7640   82.3920   59.1180 H   0  0  0  0  0  0  0  0  0  0  0  0
   39.6390   84.4910   58.8550 H   0  0  0  0  0  0  0  0  0  0  0  0
   38.2740   84.2990   62.8200 H   0  0  0  0  0  0  0  0  0  0  0  0
   44.0110   82.6530   61.7190 N   0  0  0  0  0  0  0  0  0  0  0  0
   42.9990   81.9150   61.9930 C   0  0  0  0  0  0  0  0  0  0  0  0
   42.7020   82.8540   63.0500 N   0  0  0  0  0  0  0  0  0  0  0  0
   44.2420   83.5160   62.2480 H   0  0  0  0  0  0  0  0  0  0  0  0
   42.9010   82.6010   64.0590 H   0  0  0  0  0  0  0  0  0  0  0  0
   42.3250   83.8130   63.3060 H   0  0  0  0  0  0  0  0  0  0  0  0
  1  8  1  0  0  0  0
  1 19  1  0  0  0  0
  2  1  2  0  0  0  0
  3  5  2  0  0  0  0
  3  2  1  0  0  0  0
  4  3  1  0  0  0  0
  5  7  1  0  0  0  0
  6  5  1  0  0  0  0
  7  8  2  0  0  0  0
  9  2  1  0  0  0  0
  9 14  1  0  0  0  0
 10  9  2  0  0  0  0
 11 10  1  0  0  0  0
 11 12  2  0  0  0  0
 12 13  1  0  0  0  0
 13 14  2  0  0  0  0
 13 17  1  0  0  0  0
 15 10  1  0  0  0  0
 16 11  1  0  0  0  0
 18 19  2  0  0  0  0
 18 21  1  0  0  0  0
 19 20  1  0  0  0  0
 20 23  1  0  0  0  0
 20 22  1  0  0  0  0
M  END
>  <minimizedAffinity>
-4.87949085

>  <minimizedRMSD>
2.20103526

$$$$
