
 OpenBabel03212520553D

 40 43  0  0  0  0  0  0  0  0999 V2000
   39.8270   77.2530   59.3190 C   0  0  0  0  0  0  0  0  0  0  0  0
   40.5640   76.1490   59.0470 C   0  0  0  0  0  0  0  0  0  0  0  0
   40.0440   75.3920   57.9830 C   0  0  0  0  0  0  0  0  0  0  0  0
   38.9380   75.7130   57.3000 N   0  0  0  0  0  0  0  0  0  0  0  0
   38.2650   76.8370   57.6440 C   0  0  0  0  0  0  0  0  0  0  0  0
   38.7060   77.6250   58.6640 N   0  0  0  0  0  0  0  0  0  0  0  0
   41.4550   75.8400   59.5550 H   0  0  0  0  0  0  0  0  0  0  0  0
   40.5450   74.4790   57.6650 H   0  0  0  0  0  0  0  0  0  0  0  0
   40.9510   80.3030   61.7850 C   0  0  0  0  0  0  0  0  0  0  0  0
   40.8780   79.0910   62.4430 C   0  0  0  0  0  0  0  0  0  0  0  0
   40.5180   78.0020   61.7370 C   0  0  0  0  0  0  0  0  0  0  0  0
   40.2320   78.1290   60.3810 C   0  0  0  0  0  0  0  0  0  0  0  0
   40.4930   79.9430   60.0640 S   0  0  0  0  0  0  0  0  0  0  0  0
   41.1010   78.9930   63.5040 H   0  0  0  0  0  0  0  0  0  0  0  0
   40.4050   76.9790   62.0660 H   0  0  0  0  0  0  0  0  0  0  0  0
   43.0060   83.1570   62.8280 C   0  0  0  0  0  0  0  0  0  0  0  0
   42.0980   83.9310   63.6120 C   0  0  0  0  0  0  0  0  0  0  0  0
   40.7980   83.4650   63.7710 C   0  0  0  0  0  0  0  0  0  0  0  0
   40.4610   82.2930   63.1690 N   0  0  0  0  0  0  0  0  0  0  0  0
   41.3380   81.5870   62.4360 C   0  0  0  0  0  0  0  0  0  0  0  0
   42.5810   82.0140   62.2730 N   0  0  0  0  0  0  0  0  0  0  0  0
   44.0150   83.5030   62.6950 H   0  0  0  0  0  0  0  0  0  0  0  0
   42.4260   84.8600   64.0690 H   0  0  0  0  0  0  0  0  0  0  0  0
   40.0810   84.0200   64.3550 H   0  0  0  0  0  0  0  0  0  0  0  0
   37.0550   77.1990   56.9000 C   0  0  0  0  0  0  0  0  0  0  0  0
   35.9680   76.7780   57.3620 O   0  0  0  0  0  0  0  0  0  0  0  0
   37.7280   77.4820   54.5330 C   0  0  0  0  0  0  0  0  0  0  0  0
   37.3790   78.0030   55.7380 C   0  0  0  0  0  0  0  0  0  0  0  0
   37.3390   79.3960   55.8170 C   0  0  0  0  0  0  0  0  0  0  0  0
   37.0660   79.8400   56.7580 H   0  0  0  0  0  0  0  0  0  0  0  0
   37.6510   80.1290   54.6930 C   0  0  0  0  0  0  0  0  0  0  0  0
   37.5920   81.1970   54.8500 H   0  0  0  0  0  0  0  0  0  0  0  0
   38.0040   79.5930   53.4730 C   0  0  0  0  0  3  0  0  0  0  0  0
   38.0370   78.2280   53.4160 C   0  0  0  0  0  3  0  0  0  0  0  0
   37.6180   74.8350   54.6020 N   0  0  0  0  0  0  0  0  0  0  0  0
   37.7990   76.0480   54.3200 C   0  0  0  0  0  0  0  0  0  0  0  0
   38.4220   75.5320   53.1270 N   0  0  0  0  0  0  0  0  0  0  0  0
   37.1800   74.3820   55.4000 H   0  0  0  0  0  0  0  0  0  0  0  0
   39.1200   75.0640   52.5110 H   0  0  0  0  0  0  0  0  0  0  0  0
   37.9880   75.6140   52.1610 H   0  0  0  0  0  0  0  0  0  0  0  0
  1 12  1  0  0  0  0
  2  1  1  0  0  0  0
  2  7  1  0  0  0  0
  3  2  2  0  0  0  0
  4  5  2  0  0  0  0
  4  3  1  0  0  0  0
  5  6  1  0  0  0  0
  6  1  2  0  0  0  0
  8  3  1  0  0  0  0
  9 20  1  0  0  0  0
  9 10  2  0  0  0  0
 10 14  1  0  0  0  0
 11 15  1  0  0  0  0
 11 10  1  0  0  0  0
 12 11  2  0  0  0  0
 13 12  1  0  0  0  0
 13  9  1  0  0  0  0
 16 17  1  0  0  0  0
 17 18  2  0  0  0  0
 17 23  1  0  0  0  0
 18 24  1  0  0  0  0
 19 18  1  0  0  0  0
 20 19  2  0  0  0  0
 21 20  1  0  0  0  0
 21 16  2  0  0  0  0
 22 16  1  0  0  0  0
 25 26  2  0  0  0  0
 25  5  1  0  0  0  0
 27 28  1  0  0  0  0
 28 29  2  0  0  0  0
 28 25  1  0  0  0  0
 29 30  1  0  0  0  0
 31 32  1  0  0  0  0
 31 29  1  0  0  0  0
 33 31  2  0  0  0  0
 34 33  1  0  0  0  0
 34 27  2  0  0  0  0
 35 38  1  0  0  0  0
 36 27  1  0  0  0  0
 36 35  2  0  0  0  0
 37 36  1  0  0  0  0
 39 37  1  0  0  0  0
 40 37  1  0  0  0  0
M  END
>  <minimizedAffinity>
-6.9972806

>  <minimizedRMSD>
0.902721941

$$$$
