
 OpenBabel03212520553D

 40 43  0  0  0  0  0  0  0  0999 V2000
   39.6680   77.0820   59.3290 C   0  0  0  0  0  0  0  0  0  0  0  0
   40.2610   75.8710   59.2040 C   0  0  0  0  0  0  0  0  0  0  0  0
   39.7330   75.1070   58.1490 C   0  0  0  0  0  0  0  0  0  0  0  0
   38.7470   75.5190   57.3430 N   0  0  0  0  0  0  0  0  0  0  0  0
   38.2130   76.7470   57.5420 C   0  0  0  0  0  0  0  0  0  0  0  0
   38.6720   77.5480   58.5450 N   0  0  0  0  0  0  0  0  0  0  0  0
   41.0530   75.4860   59.8160 H   0  0  0  0  0  0  0  0  0  0  0  0
   40.1250   74.1130   57.9440 H   0  0  0  0  0  0  0  0  0  0  0  0
   40.8620   80.1770   61.7040 C   0  0  0  0  0  0  0  0  0  0  0  0
   40.7940   78.9790   62.3900 C   0  0  0  0  0  0  0  0  0  0  0  0
   40.4130   77.8790   61.7160 C   0  0  0  0  0  0  0  0  0  0  0  0
   40.1010   77.9780   60.3630 C   0  0  0  0  0  0  0  0  0  0  0  0
   40.3670   79.7820   60.0020 S   0  0  0  0  0  0  0  0  0  0  0  0
   41.0380   78.9030   63.4480 H   0  0  0  0  0  0  0  0  0  0  0  0
   40.2990   76.8630   62.0690 H   0  0  0  0  0  0  0  0  0  0  0  0
   42.9790   82.9960   62.7160 C   0  0  0  0  0  0  0  0  0  0  0  0
   42.0700   83.8330   63.4320 C   0  0  0  0  0  0  0  0  0  0  0  0
   40.7490   83.4200   63.5560 C   0  0  0  0  0  0  0  0  0  0  0  0
   40.3930   82.2380   62.9880 N   0  0  0  0  0  0  0  0  0  0  0  0
   41.2710   81.4710   62.3200 C   0  0  0  0  0  0  0  0  0  0  0  0
   42.5340   81.8470   62.1900 N   0  0  0  0  0  0  0  0  0  0  0  0
   44.0050   83.3010   62.6110 H   0  0  0  0  0  0  0  0  0  0  0  0
   42.4150   84.7680   63.8650 H   0  0  0  0  0  0  0  0  0  0  0  0
   40.0320   84.0240   64.0900 H   0  0  0  0  0  0  0  0  0  0  0  0
   37.1350   77.2090   56.6620 C   0  0  0  0  0  0  0  0  0  0  0  0
   36.0060   77.3500   57.1890 O   0  0  0  0  0  0  0  0  0  0  0  0
   37.9230   78.6340   54.7960 C   0  0  0  0  0  0  0  0  0  0  0  0
   37.6190   77.4150   55.3120 C   0  0  0  0  0  0  0  0  0  0  0  0
   37.8000   76.3240   54.4600 C   0  0  0  0  0  0  0  0  0  0  0  0
   37.5680   75.3450   54.8380 H   0  0  0  0  0  0  0  0  0  0  0  0
   38.2640   76.5560   53.1820 C   0  0  0  0  0  0  0  0  0  0  0  0
   38.3730   75.6530   52.5970 H   0  0  0  0  0  0  0  0  0  0  0  0
   38.5710   77.7960   52.6670 C   0  0  0  0  0  3  0  0  0  0  0  0
   38.3870   78.8510   53.5160 C   0  0  0  0  0  3  0  0  0  0  0  0
   37.9450   80.5860   56.5880 N   0  0  0  0  0  0  0  0  0  0  0  0
   37.7850   79.8450   55.5840 C   0  0  0  0  0  0  0  0  0  0  0  0
   37.0500   80.9650   55.0510 N   0  0  0  0  0  0  0  0  0  0  0  0
   38.4280   80.4380   57.4710 H   0  0  0  0  0  0  0  0  0  0  0  0
   36.2880   81.6650   54.9220 H   0  0  0  0  0  0  0  0  0  0  0  0
   37.4070   81.5710   54.2550 H   0  0  0  0  0  0  0  0  0  0  0  0
  1 12  1  0  0  0  0
  2  1  1  0  0  0  0
  2  7  1  0  0  0  0
  3  2  2  0  0  0  0
  4  5  2  0  0  0  0
  4  3  1  0  0  0  0
  5  6  1  0  0  0  0
  6  1  2  0  0  0  0
  8  3  1  0  0  0  0
  9 20  1  0  0  0  0
  9 10  2  0  0  0  0
 10 14  1  0  0  0  0
 11 15  1  0  0  0  0
 11 10  1  0  0  0  0
 12 11  2  0  0  0  0
 13 12  1  0  0  0  0
 13  9  1  0  0  0  0
 16 17  1  0  0  0  0
 17 18  2  0  0  0  0
 17 23  1  0  0  0  0
 18 24  1  0  0  0  0
 19 18  1  0  0  0  0
 20 19  2  0  0  0  0
 21 20  1  0  0  0  0
 21 16  2  0  0  0  0
 22 16  1  0  0  0  0
 25 26  2  0  0  0  0
 25  5  1  0  0  0  0
 27 28  1  0  0  0  0
 27 36  1  0  0  0  0
 28 25  1  0  0  0  0
 29 30  1  0  0  0  0
 29 28  2  0  0  0  0
 31 29  1  0  0  0  0
 32 31  1  0  0  0  0
 33 31  2  0  0  0  0
 33 34  1  0  0  0  0
 34 27  2  0  0  0  0
 35 38  1  0  0  0  0
 36 35  2  0  0  0  0
 37 36  1  0  0  0  0
 39 37  1  0  0  0  0
 40 37  1  0  0  0  0
M  END
>  <minimizedAffinity>
-7.12073851

>  <minimizedRMSD>
0.306426853

$$$$
