
 OpenBabel03212520553D

 40 43  0  0  0  0  0  0  0  0999 V2000
   39.8110   77.2590   59.2450 C   0  0  0  0  0  0  0  0  0  0  0  0
   40.5540   76.1630   58.9570 C   0  0  0  0  0  0  0  0  0  0  0  0
   40.0340   75.4130   57.8880 C   0  0  0  0  0  0  0  0  0  0  0  0
   38.9230   75.7340   57.2150 N   0  0  0  0  0  0  0  0  0  0  0  0
   38.2430   76.8500   57.5730 C   0  0  0  0  0  0  0  0  0  0  0  0
   38.6850   77.6300   58.6000 N   0  0  0  0  0  0  0  0  0  0  0  0
   41.4500   75.8540   59.4580 H   0  0  0  0  0  0  0  0  0  0  0  0
   40.5390   74.5070   57.5590 H   0  0  0  0  0  0  0  0  0  0  0  0
   40.9260   80.2910   61.7380 C   0  0  0  0  0  0  0  0  0  0  0  0
   40.8680   79.0700   62.3830 C   0  0  0  0  0  0  0  0  0  0  0  0
   40.5120   77.9870   61.6670 C   0  0  0  0  0  0  0  0  0  0  0  0
   40.2160   78.1260   60.3140 C   0  0  0  0  0  0  0  0  0  0  0  0
   40.4600   79.9450   60.0160 S   0  0  0  0  0  0  0  0  0  0  0  0
   41.0990   78.9620   63.4410 H   0  0  0  0  0  0  0  0  0  0  0  0
   40.4100   76.9590   61.9850 H   0  0  0  0  0  0  0  0  0  0  0  0
   42.9800   83.1180   62.8510 C   0  0  0  0  0  0  0  0  0  0  0  0
   42.0540   83.9050   63.6000 C   0  0  0  0  0  0  0  0  0  0  0  0
   40.7430   83.4570   63.7130 C   0  0  0  0  0  0  0  0  0  0  0  0
   40.4130   82.2890   63.1010 N   0  0  0  0  0  0  0  0  0  0  0  0
   41.3060   81.5700   62.4010 C   0  0  0  0  0  0  0  0  0  0  0  0
   42.5600   81.9800   62.2830 N   0  0  0  0  0  0  0  0  0  0  0  0
   43.9980   83.4510   62.7540 H   0  0  0  0  0  0  0  0  0  0  0  0
   42.3780   84.8310   64.0680 H   0  0  0  0  0  0  0  0  0  0  0  0
   40.0140   84.0230   64.2700 H   0  0  0  0  0  0  0  0  0  0  0  0
   37.0270   77.2120   56.8390 C   0  0  0  0  0  0  0  0  0  0  0  0
   35.9570   76.6970   57.2420 O   0  0  0  0  0  0  0  0  0  0  0  0
   37.6990   77.7320   54.5120 C   0  0  0  0  0  0  0  0  0  0  0  0
   37.3260   78.1280   55.7570 C   0  0  0  0  0  0  0  0  0  0  0  0
   37.2350   79.5060   55.9610 C   0  0  0  0  0  0  0  0  0  0  0  0
   36.9410   79.8530   56.9360 H   0  0  0  0  0  0  0  0  0  0  0  0
   37.5220   80.3490   54.9090 C   0  0  0  0  0  0  0  0  0  0  0  0
   37.4240   81.3950   55.1610 H   0  0  0  0  0  0  0  0  0  0  0  0
   37.9010   79.9380   53.6500 C   0  0  0  0  0  3  0  0  0  0  0  0
   37.9850   78.5870   53.4690 C   0  0  0  0  0  3  0  0  0  0  0  0
   37.6370   75.0900   54.3120 N   0  0  0  0  0  0  0  0  0  0  0  0
   37.8250   76.3270   54.1730 C   0  0  0  0  0  0  0  0  0  0  0  0
   38.5920   75.9360   53.0160 N   0  0  0  0  0  0  0  0  0  0  0  0
   37.1190   74.5570   55.0060 H   0  0  0  0  0  0  0  0  0  0  0  0
   39.3660   75.5370   52.4430 H   0  0  0  0  0  0  0  0  0  0  0  0
   38.2710   76.1080   52.0170 H   0  0  0  0  0  0  0  0  0  0  0  0
  1 12  1  0  0  0  0
  2  1  1  0  0  0  0
  2  7  1  0  0  0  0
  3  2  2  0  0  0  0
  4  5  2  0  0  0  0
  4  3  1  0  0  0  0
  5  6  1  0  0  0  0
  6  1  2  0  0  0  0
  8  3  1  0  0  0  0
  9 10  2  0  0  0  0
  9 20  1  0  0  0  0
 10 14  1  0  0  0  0
 11 15  1  0  0  0  0
 11 10  1  0  0  0  0
 12 11  2  0  0  0  0
 13 12  1  0  0  0  0
 13  9  1  0  0  0  0
 16 17  1  0  0  0  0
 17 18  2  0  0  0  0
 17 23  1  0  0  0  0
 18 24  1  0  0  0  0
 19 18  1  0  0  0  0
 20 19  2  0  0  0  0
 21 20  1  0  0  0  0
 21 16  2  0  0  0  0
 22 16  1  0  0  0  0
 25 26  2  0  0  0  0
 25  5  1  0  0  0  0
 27 28  1  0  0  0  0
 28 29  2  0  0  0  0
 28 25  1  0  0  0  0
 29 30  1  0  0  0  0
 31 32  1  0  0  0  0
 31 29  1  0  0  0  0
 33 31  2  0  0  0  0
 34 33  1  0  0  0  0
 34 27  2  0  0  0  0
 35 38  1  0  0  0  0
 36 35  2  0  0  0  0
 36 27  1  0  0  0  0
 37 36  1  0  0  0  0
 39 37  1  0  0  0  0
 40 37  1  0  0  0  0
M  END
>  <minimizedAffinity>
-6.93014145

>  <minimizedRMSD>
1.16200805

$$$$
