
 OpenBabel03212520553D

 40 43  0  0  0  0  0  0  0  0999 V2000
   39.8430   77.8550   59.2930 C   0  0  0  0  0  0  0  0  0  0  0  0
   40.0010   76.5110   59.3410 C   0  0  0  0  0  0  0  0  0  0  0  0
   39.5400   75.8630   58.1820 C   0  0  0  0  0  0  0  0  0  0  0  0
   38.9980   76.4930   57.1320 N   0  0  0  0  0  0  0  0  0  0  0  0
   38.8800   77.8420   57.1730 C   0  0  0  0  0  0  0  0  0  0  0  0
   39.3050   78.5420   58.2620 N   0  0  0  0  0  0  0  0  0  0  0  0
   40.4260   75.9500   60.1490 H   0  0  0  0  0  0  0  0  0  0  0  0
   39.6110   74.7800   58.0960 H   0  0  0  0  0  0  0  0  0  0  0  0
   40.9790   80.7360   61.9500 C   0  0  0  0  0  0  0  0  0  0  0  0
   40.9750   79.4720   62.5090 C   0  0  0  0  0  0  0  0  0  0  0  0
   40.6180   78.4320   61.7330 C   0  0  0  0  0  0  0  0  0  0  0  0
   40.2680   78.6570   60.4050 C   0  0  0  0  0  0  0  0  0  0  0  0
   40.4550   80.4980   60.2270 S   0  0  0  0  0  0  0  0  0  0  0  0
   41.2490   79.2970   63.5480 H   0  0  0  0  0  0  0  0  0  0  0  0
   40.5530   77.3820   61.9810 H   0  0  0  0  0  0  0  0  0  0  0  0
   42.9980   83.5460   63.1640 C   0  0  0  0  0  0  0  0  0  0  0  0
   42.0910   84.2420   64.0190 C   0  0  0  0  0  0  0  0  0  0  0  0
   40.8030   83.7390   64.1660 C   0  0  0  0  0  0  0  0  0  0  0  0
   40.4780   82.6080   63.4860 N   0  0  0  0  0  0  0  0  0  0  0  0
   41.3540   81.9750   62.6870 C   0  0  0  0  0  0  0  0  0  0  0  0
   42.5850   82.4390   62.5340 N   0  0  0  0  0  0  0  0  0  0  0  0
   43.9980   83.9220   63.0390 H   0  0  0  0  0  0  0  0  0  0  0  0
   42.4100   85.1420   64.5380 H   0  0  0  0  0  0  0  0  0  0  0  0
   40.0880   84.2350   64.8030 H   0  0  0  0  0  0  0  0  0  0  0  0
   38.2920   78.5420   56.0270 C   0  0  0  0  0  0  0  0  0  0  0  0
   37.0410   78.6340   56.0110 O   0  0  0  0  0  0  0  0  0  0  0  0
   39.0690   79.4490   53.8580 C   0  0  0  0  0  0  0  0  0  0  0  0
   39.3200   79.0010   55.1150 C   0  0  0  0  0  0  0  0  0  0  0  0
   40.6580   79.0030   55.5130 C   0  0  0  0  0  0  0  0  0  0  0  0
   40.8900   78.6540   56.5030 H   0  0  0  0  0  0  0  0  0  0  0  0
   41.6100   79.4500   54.6220 C   0  0  0  0  0  0  0  0  0  0  0  0
   42.6150   79.4140   55.0170 H   0  0  0  0  0  0  0  0  0  0  0  0
   41.3470   79.9030   53.3470 C   0  0  0  0  0  3  0  0  0  0  0  0
   40.0320   79.8930   52.9770 C   0  0  0  0  0  3  0  0  0  0  0  0
   36.5590   79.9720   53.1870 N   0  0  0  0  0  0  0  0  0  0  0  0
   37.7190   79.5040   53.3290 C   0  0  0  0  0  0  0  0  0  0  0  0
   37.2700   78.4910   52.4070 N   0  0  0  0  0  0  0  0  0  0  0  0
   36.1030   80.7870   53.5900 H   0  0  0  0  0  0  0  0  0  0  0  0
   36.7530   77.6660   52.0310 H   0  0  0  0  0  0  0  0  0  0  0  0
   37.6170   78.4190   51.4060 H   0  0  0  0  0  0  0  0  0  0  0  0
  1  2  1  0  0  0  0
  1 12  1  0  0  0  0
  2  7  1  0  0  0  0
  3  2  2  0  0  0  0
  4  5  2  0  0  0  0
  4  3  1  0  0  0  0
  5  6  1  0  0  0  0
  6  1  2  0  0  0  0
  8  3  1  0  0  0  0
  9 10  2  0  0  0  0
  9 20  1  0  0  0  0
 10 14  1  0  0  0  0
 11 15  1  0  0  0  0
 11 10  1  0  0  0  0
 12 11  2  0  0  0  0
 13 12  1  0  0  0  0
 13  9  1  0  0  0  0
 16 17  1  0  0  0  0
 17 18  2  0  0  0  0
 17 23  1  0  0  0  0
 18 24  1  0  0  0  0
 19 18  1  0  0  0  0
 20 19  2  0  0  0  0
 21 20  1  0  0  0  0
 21 16  2  0  0  0  0
 22 16  1  0  0  0  0
 25  5  1  0  0  0  0
 26 25  2  0  0  0  0
 27 28  1  0  0  0  0
 28 29  2  0  0  0  0
 28 25  1  0  0  0  0
 29 30  1  0  0  0  0
 31 32  1  0  0  0  0
 31 29  1  0  0  0  0
 33 31  2  0  0  0  0
 34 33  1  0  0  0  0
 34 27  2  0  0  0  0
 35 36  2  0  0  0  0
 35 38  1  0  0  0  0
 36 27  1  0  0  0  0
 37 36  1  0  0  0  0
 39 37  1  0  0  0  0
 40 37  1  0  0  0  0
M  END
>  <minimizedAffinity>
-6.0010643

>  <minimizedRMSD>
1.87387371

$$$$
