
 OpenBabel03212520573D

 40 43  0  0  0  0  0  0  0  0999 V2000
   43.1950   72.9470   60.1730 C   0  0  0  0  0  0  0  0  0  0  0  0
   44.3110   72.6990   59.4470 C   0  0  0  0  0  0  0  0  0  0  0  0
   44.6630   73.7640   58.6000 C   0  0  0  0  0  0  0  0  0  0  0  0
   43.9770   74.9100   58.5080 N   0  0  0  0  0  0  0  0  0  0  0  0
   42.8710   75.0700   59.2730 C   0  0  0  0  0  0  0  0  0  0  0  0
   42.4660   74.0830   60.1210 N   0  0  0  0  0  0  0  0  0  0  0  0
   44.9010   71.8050   59.4770 H   0  0  0  0  0  0  0  0  0  0  0  0
   45.5420   73.6880   57.9630 H   0  0  0  0  0  0  0  0  0  0  0  0
   41.9160   69.6240   62.1650 C   0  0  0  0  0  0  0  0  0  0  0  0
   41.8870   70.7570   62.9540 C   0  0  0  0  0  0  0  0  0  0  0  0
   42.2850   71.9230   62.4110 C   0  0  0  0  0  0  0  0  0  0  0  0
   42.7100   71.9530   61.0860 C   0  0  0  0  0  0  0  0  0  0  0  0
   42.5350   70.1800   60.5500 S   0  0  0  0  0  0  0  0  0  0  0  0
   41.5550   70.7330   63.9910 H   0  0  0  0  0  0  0  0  0  0  0  0
   42.3350   72.9060   62.8590 H   0  0  0  0  0  0  0  0  0  0  0  0
   40.1480   67.0150   64.0410 C   0  0  0  0  0  0  0  0  0  0  0  0
   40.7140   65.8120   63.5190 C   0  0  0  0  0  0  0  0  0  0  0  0
   41.6900   65.9120   62.5340 C   0  0  0  0  0  0  0  0  0  0  0  0
   42.0540   67.1550   62.1210 N   0  0  0  0  0  0  0  0  0  0  0  0
   41.5030   68.2700   62.6300 C   0  0  0  0  0  0  0  0  0  0  0  0
   40.5720   68.1940   63.5690 N   0  0  0  0  0  0  0  0  0  0  0  0
   39.3920   66.9540   64.8030 H   0  0  0  0  0  0  0  0  0  0  0  0
   40.3820   64.8460   63.8910 H   0  0  0  0  0  0  0  0  0  0  0  0
   42.1410   65.0270   62.1150 H   0  0  0  0  0  0  0  0  0  0  0  0
   42.1160   76.3230   59.1820 C   0  0  0  0  0  0  0  0  0  0  0  0
   42.6590   77.3400   59.6750 O   0  0  0  0  0  0  0  0  0  0  0  0
   39.6650   75.9620   59.1680 C   0  0  0  0  0  0  0  0  0  0  0  0
   40.8460   76.1180   58.5150 C   0  0  0  0  0  0  0  0  0  0  0  0
   40.7880   76.0750   57.1200 C   0  0  0  0  0  0  0  0  0  0  0  0
   41.7050   76.1960   56.5730 H   0  0  0  0  0  0  0  0  0  0  0  0
   39.5630   75.8820   56.5180 C   0  0  0  0  0  0  0  0  0  0  0  0
   39.6170   75.8650   55.4390 H   0  0  0  0  0  0  0  0  0  0  0  0
   38.3700   75.7250   57.1880 C   0  0  0  0  0  3  0  0  0  0  0  0
   38.4470   75.7690   58.5510 C   0  0  0  0  0  3  0  0  0  0  0  0
   39.4880   76.5310   61.7500 N   0  0  0  0  0  0  0  0  0  0  0  0
   39.5930   75.9940   60.6170 C   0  0  0  0  0  0  0  0  0  0  0  0
   39.6820   74.7640   61.3640 N   0  0  0  0  0  0  0  0  0  0  0  0
   39.3780   77.5010   62.0330 H   0  0  0  0  0  0  0  0  0  0  0  0
   40.0680   74.0210   61.9870 H   0  0  0  0  0  0  0  0  0  0  0  0
   38.9120   74.0340   61.3810 H   0  0  0  0  0  0  0  0  0  0  0  0
  1 12  1  0  0  0  0
  2  7  1  0  0  0  0
  2  1  2  0  0  0  0
  3  2  1  0  0  0  0
  4  3  2  0  0  0  0
  4  5  1  0  0  0  0
  5  6  2  0  0  0  0
  6  1  1  0  0  0  0
  8  3  1  0  0  0  0
  9 20  1  0  0  0  0
  9 10  2  0  0  0  0
 10 14  1  0  0  0  0
 11 15  1  0  0  0  0
 11 10  1  0  0  0  0
 12 11  2  0  0  0  0
 13 12  1  0  0  0  0
 13  9  1  0  0  0  0
 16 22  1  0  0  0  0
 17 23  1  0  0  0  0
 17 16  2  0  0  0  0
 18 17  1  0  0  0  0
 19 18  2  0  0  0  0
 19 20  1  0  0  0  0
 20 21  2  0  0  0  0
 21 16  1  0  0  0  0
 24 18  1  0  0  0  0
 25  5  1  0  0  0  0
 25 26  2  0  0  0  0
 27 36  1  0  0  0  0
 28 27  2  0  0  0  0
 28 25  1  0  0  0  0
 29 28  1  0  0  0  0
 30 29  1  0  0  0  0
 31 29  2  0  0  0  0
 31 33  1  0  0  0  0
 32 31  1  0  0  0  0
 33 34  2  0  0  0  0
 34 27  1  0  0  0  0
 35 38  1  0  0  0  0
 36 37  1  0  0  0  0
 36 35  2  0  0  0  0
 37 40  1  0  0  0  0
 37 39  1  0  0  0  0
M  END
>  <minimizedAffinity>
-7.17884398

$$$$

 OpenBabel03212520573D

 40 43  0  0  0  0  0  0  0  0999 V2000
   42.0670   73.7130   60.3700 C   0  0  0  0  0  0  0  0  0  0  0  0
   43.1400   73.9960   59.5920 C   0  0  0  0  0  0  0  0  0  0  0  0
   43.0310   75.2350   58.9390 C   0  0  0  0  0  0  0  0  0  0  0  0
   41.9850   76.0610   59.0600 N   0  0  0  0  0  0  0  0  0  0  0  0
   40.9560   75.6950   59.8620 C   0  0  0  0  0  0  0  0  0  0  0  0
   40.9880   74.5080   60.5310 N   0  0  0  0  0  0  0  0  0  0  0  0
   44.0050   73.3770   59.4540 H   0  0  0  0  0  0  0  0  0  0  0  0
   43.8290   75.5790   58.2820 H   0  0  0  0  0  0  0  0  0  0  0  0
   41.9200   69.8730   61.7430 C   0  0  0  0  0  0  0  0  0  0  0  0
   42.0200   70.7970   62.7660 C   0  0  0  0  0  0  0  0  0  0  0  0
   42.0760   72.1030   62.4430 C   0  0  0  0  0  0  0  0  0  0  0  0
   42.0320   72.4800   61.1040 C   0  0  0  0  0  0  0  0  0  0  0  0
   41.9010   70.8530   60.2130 S   0  0  0  0  0  0  0  0  0  0  0  0
   42.0540   70.5020   63.8130 H   0  0  0  0  0  0  0  0  0  0  0  0
   42.1540   72.9660   63.0890 H   0  0  0  0  0  0  0  0  0  0  0  0
   41.8010   66.2870   60.9850 C   0  0  0  0  0  0  0  0  0  0  0  0
   41.7110   65.6930   62.2800 C   0  0  0  0  0  0  0  0  0  0  0  0
   41.6930   66.5280   63.3910 C   0  0  0  0  0  0  0  0  0  0  0  0
   41.7620   67.8690   63.1830 N   0  0  0  0  0  0  0  0  0  0  0  0
   41.8470   68.4000   61.9520 C   0  0  0  0  0  0  0  0  0  0  0  0
   41.8650   67.6210   60.8810 N   0  0  0  0  0  0  0  0  0  0  0  0
   41.8160   65.6550   60.1150 H   0  0  0  0  0  0  0  0  0  0  0  0
   41.6580   64.6120   62.3830 H   0  0  0  0  0  0  0  0  0  0  0  0
   41.6260   66.1180   64.3870 H   0  0  0  0  0  0  0  0  0  0  0  0
   39.8080   76.5940   60.0050 C   0  0  0  0  0  0  0  0  0  0  0  0
   39.4610   76.8740   61.1770 O   0  0  0  0  0  0  0  0  0  0  0  0
   38.4490   76.2240   57.9680 C   0  0  0  0  0  0  0  0  0  0  0  0
   39.2910   76.9890   58.7100 C   0  0  0  0  0  0  0  0  0  0  0  0
   39.6520   78.2200   58.1590 C   0  0  0  0  0  0  0  0  0  0  0  0
   40.3170   78.8490   58.7220 H   0  0  0  0  0  0  0  0  0  0  0  0
   39.1390   78.5650   56.9270 C   0  0  0  0  0  0  0  0  0  0  0  0
   39.4720   79.5330   56.5820 H   0  0  0  0  0  0  0  0  0  0  0  0
   38.2850   77.7840   56.1800 C   0  0  0  0  0  3  0  0  0  0  0  0
   37.9440   76.5830   56.7360 C   0  0  0  0  0  3  0  0  0  0  0  0
   37.8350   73.9990   59.2690 N   0  0  0  0  0  0  0  0  0  0  0  0
   37.9950   74.9270   58.4350 C   0  0  0  0  0  0  0  0  0  0  0  0
   37.2960   74.0460   57.5320 N   0  0  0  0  0  0  0  0  0  0  0  0
   38.1070   73.9080   60.2430 H   0  0  0  0  0  0  0  0  0  0  0  0
   37.1050   73.2330   56.9090 H   0  0  0  0  0  0  0  0  0  0  0  0
   36.3070   74.2260   57.1910 H   0  0  0  0  0  0  0  0  0  0  0  0
  1  6  1  0  0  0  0
  1 12  1  0  0  0  0
  2  1  2  0  0  0  0
  3  4  2  0  0  0  0
  3  2  1  0  0  0  0
  4  5  1  0  0  0  0
  5 25  1  0  0  0  0
  5  6  2  0  0  0  0
  7  2  1  0  0  0  0
  8  3  1  0  0  0  0
  9 20  1  0  0  0  0
  9 10  2  0  0  0  0
 10 14  1  0  0  0  0
 11 10  1  0  0  0  0
 11 15  1  0  0  0  0
 12 11  2  0  0  0  0
 13 12  1  0  0  0  0
 13  9  1  0  0  0  0
 16 17  1  0  0  0  0
 17 23  1  0  0  0  0
 17 18  2  0  0  0  0
 18 24  1  0  0  0  0
 19 18  1  0  0  0  0
 20 19  2  0  0  0  0
 21 16  2  0  0  0  0
 21 20  1  0  0  0  0
 22 16  1  0  0  0  0
 25 26  2  0  0  0  0
 27 36  1  0  0  0  0
 27 28  1  0  0  0  0
 28 25  1  0  0  0  0
 29 28  2  0  0  0  0
 29 30  1  0  0  0  0
 31 29  1  0  0  0  0
 32 31  1  0  0  0  0
 33 34  1  0  0  0  0
 33 31  2  0  0  0  0
 34 27  2  0  0  0  0
 35 38  1  0  0  0  0
 36 35  2  0  0  0  0
 37 36  1  0  0  0  0
 39 37  1  0  0  0  0
 40 37  1  0  0  0  0
M  END
>  <minimizedAffinity>
-7.08365297

$$$$

 OpenBabel03212520573D

 40 43  0  0  0  0  0  0  0  0999 V2000
   41.2840   70.1150   58.8050 C   0  0  0  0  0  0  0  0  0  0  0  0
   41.1530   69.4440   57.6350 C   0  0  0  0  0  0  0  0  0  0  0  0
   41.5550   68.1000   57.7260 C   0  0  0  0  0  0  0  0  0  0  0  0
   42.0210   67.5280   58.8430 N   0  0  0  0  0  0  0  0  0  0  0  0
   42.1170   68.2780   59.9670 C   0  0  0  0  0  0  0  0  0  0  0  0
   41.7460   69.5890   59.9600 N   0  0  0  0  0  0  0  0  0  0  0  0
   40.7880   69.8450   56.7110 H   0  0  0  0  0  0  0  0  0  0  0  0
   41.4990   67.4520   56.8530 H   0  0  0  0  0  0  0  0  0  0  0  0
   40.9190   74.1410   59.3580 C   0  0  0  0  0  0  0  0  0  0  0  0
   39.8330   73.5970   58.6990 C   0  0  0  0  0  0  0  0  0  0  0  0
   39.8320   72.2730   58.4560 C   0  0  0  0  0  0  0  0  0  0  0  0
   40.9120   71.5000   58.8700 C   0  0  0  0  0  0  0  0  0  0  0  0
   42.0350   72.7430   59.6760 S   0  0  0  0  0  0  0  0  0  0  0  0
   38.9890   74.2030   58.3750 H   0  0  0  0  0  0  0  0  0  0  0  0
   39.0860   71.6680   57.9610 H   0  0  0  0  0  0  0  0  0  0  0  0
   40.1300   77.4470   60.7360 C   0  0  0  0  0  0  0  0  0  0  0  0
   41.2540   78.2320   60.3370 C   0  0  0  0  0  0  0  0  0  0  0  0
   42.2630   77.6190   59.6040 C   0  0  0  0  0  0  0  0  0  0  0  0
   42.1240   76.3000   59.3060 N   0  0  0  0  0  0  0  0  0  0  0  0
   41.0550   75.5860   59.6960 C   0  0  0  0  0  0  0  0  0  0  0  0
   40.0830   76.1530   60.3950 N   0  0  0  0  0  0  0  0  0  0  0  0
   39.3410   77.9060   61.3040 H   0  0  0  0  0  0  0  0  0  0  0  0
   41.3090   79.2840   60.6060 H   0  0  0  0  0  0  0  0  0  0  0  0
   43.1280   78.1780   59.2840 H   0  0  0  0  0  0  0  0  0  0  0  0
   42.6220   67.6590   61.1960 C   0  0  0  0  0  0  0  0  0  0  0  0
   43.8680   67.5610   61.3010 O   0  0  0  0  0  0  0  0  0  0  0  0
   41.1100   68.0210   63.1240 C   0  0  0  0  0  0  0  0  0  0  0  0
   41.5330   67.2750   62.0710 C   0  0  0  0  0  0  0  0  0  0  0  0
   40.8490   66.0770   61.8520 C   0  0  0  0  0  0  0  0  0  0  0  0
   41.1580   65.4640   61.0260 H   0  0  0  0  0  0  0  0  0  0  0  0
   39.8150   65.7440   62.7010 C   0  0  0  0  0  0  0  0  0  0  0  0
   39.3460   64.8030   62.4530 H   0  0  0  0  0  0  0  0  0  0  0  0
   39.3920   66.5070   63.7670 C   0  0  0  0  0  3  0  0  0  0  0  0
   40.0740   67.6740   63.9660 C   0  0  0  0  0  3  0  0  0  0  0  0
   42.6160   70.0430   63.9410 N   0  0  0  0  0  0  0  0  0  0  0  0
   41.7350   69.2890   63.4520 C   0  0  0  0  0  0  0  0  0  0  0  0
   41.0990   70.5230   63.0600 N   0  0  0  0  0  0  0  0  0  0  0  0
   43.4780   69.8430   64.4400 H   0  0  0  0  0  0  0  0  0  0  0  0
   40.5860   71.4270   63.1340 H   0  0  0  0  0  0  0  0  0  0  0  0
   41.0410   70.8550   62.0530 H   0  0  0  0  0  0  0  0  0  0  0  0
  1 12  1  0  0  0  0
  1  6  1  0  0  0  0
  2  3  1  0  0  0  0
  2  1  2  0  0  0  0
  3  4  2  0  0  0  0
  4  5  1  0  0  0  0
  5 25  1  0  0  0  0
  6  5  2  0  0  0  0
  7  2  1  0  0  0  0
  8  3  1  0  0  0  0
  9 13  1  0  0  0  0
  9 20  1  0  0  0  0
 10  9  2  0  0  0  0
 11 10  1  0  0  0  0
 11 12  2  0  0  0  0
 12 13  1  0  0  0  0
 14 10  1  0  0  0  0
 15 11  1  0  0  0  0
 16 22  1  0  0  0  0
 17 23  1  0  0  0  0
 17 16  2  0  0  0  0
 18 17  1  0  0  0  0
 19 18  2  0  0  0  0
 19 20  1  0  0  0  0
 20 21  2  0  0  0  0
 21 16  1  0  0  0  0
 24 18  1  0  0  0  0
 25 26  2  0  0  0  0
 25 28  1  0  0  0  0
 27 36  1  0  0  0  0
 27 34  1  0  0  0  0
 28 27  2  0  0  0  0
 29 28  1  0  0  0  0
 29 31  2  0  0  0  0
 30 29  1  0  0  0  0
 31 33  1  0  0  0  0
 32 31  1  0  0  0  0
 33 34  2  0  0  0  0
 35 38  1  0  0  0  0
 36 35  2  0  0  0  0
 37 39  1  0  0  0  0
 37 36  1  0  0  0  0
 40 37  1  0  0  0  0
M  END
>  <minimizedAffinity>
-6.9525485

$$$$

 OpenBabel03212520573D

 40 43  0  0  0  0  0  0  0  0999 V2000
   43.0800   72.8540   59.8310 C   0  0  0  0  0  0  0  0  0  0  0  0
   44.3340   72.9020   59.3210 C   0  0  0  0  0  0  0  0  0  0  0  0
   44.5100   73.9450   58.3950 C   0  0  0  0  0  0  0  0  0  0  0  0
   43.5500   74.8080   58.0420 N   0  0  0  0  0  0  0  0  0  0  0  0
   42.3240   74.6840   58.6050 C   0  0  0  0  0  0  0  0  0  0  0  0
   42.0750   73.6980   59.5120 N   0  0  0  0  0  0  0  0  0  0  0  0
   45.1430   72.2420   59.5620 H   0  0  0  0  0  0  0  0  0  0  0  0
   45.4750   74.0910   57.9120 H   0  0  0  0  0  0  0  0  0  0  0  0
   42.0870   69.5020   61.9340 C   0  0  0  0  0  0  0  0  0  0  0  0
   42.2650   70.6040   62.7480 C   0  0  0  0  0  0  0  0  0  0  0  0
   42.5960   71.7760   62.1730 C   0  0  0  0  0  0  0  0  0  0  0  0
   42.7460   71.8420   60.7910 C   0  0  0  0  0  0  0  0  0  0  0  0
   42.3920   70.1000   60.2460 S   0  0  0  0  0  0  0  0  0  0  0  0
   42.1470   70.5510   63.8290 H   0  0  0  0  0  0  0  0  0  0  0  0
   42.7760   72.7370   62.6320 H   0  0  0  0  0  0  0  0  0  0  0  0
   41.8260   65.8480   62.1050 C   0  0  0  0  0  0  0  0  0  0  0  0
   41.0650   65.6410   63.2960 C   0  0  0  0  0  0  0  0  0  0  0  0
   40.6540   66.7530   64.0200 C   0  0  0  0  0  0  0  0  0  0  0  0
   41.0000   67.9830   63.5540 N   0  0  0  0  0  0  0  0  0  0  0  0
   41.7180   68.1470   62.4300 C   0  0  0  0  0  0  0  0  0  0  0  0
   42.1180   67.0990   61.7260 N   0  0  0  0  0  0  0  0  0  0  0  0
   42.1510   64.9980   61.5330 H   0  0  0  0  0  0  0  0  0  0  0  0
   40.8190   64.6320   63.6180 H   0  0  0  0  0  0  0  0  0  0  0  0
   40.0780   66.6390   64.9250 H   0  0  0  0  0  0  0  0  0  0  0  0
   41.2670   75.6270   58.2290 C   0  0  0  0  0  0  0  0  0  0  0  0
   40.7660   75.4790   57.0890 O   0  0  0  0  0  0  0  0  0  0  0  0
   39.9890   76.4500   60.1850 C   0  0  0  0  0  0  0  0  0  0  0  0
   41.0090   76.5730   59.2960 C   0  0  0  0  0  0  0  0  0  0  0  0
   41.8350   77.6870   59.4580 C   0  0  0  0  0  0  0  0  0  0  0  0
   42.6520   77.8130   58.7710 H   0  0  0  0  0  0  0  0  0  0  0  0
   41.5630   78.5640   60.4850 C   0  0  0  0  0  0  0  0  0  0  0  0
   42.2550   79.3930   60.5330 H   0  0  0  0  0  0  0  0  0  0  0  0
   40.5260   78.4320   61.3830 C   0  0  0  0  0  3  0  0  0  0  0  0
   39.7300   77.3370   61.2080 C   0  0  0  0  0  3  0  0  0  0  0  0
   38.0620   74.6910   59.7190 N   0  0  0  0  0  0  0  0  0  0  0  0
   39.0660   75.3320   60.1260 C   0  0  0  0  0  0  0  0  0  0  0  0
   39.2720   74.1880   60.9800 N   0  0  0  0  0  0  0  0  0  0  0  0
   37.3530   74.9120   59.0250 H   0  0  0  0  0  0  0  0  0  0  0  0
   39.1290   73.5050   61.7550 H   0  0  0  0  0  0  0  0  0  0  0  0
   40.0630   73.4930   60.8430 H   0  0  0  0  0  0  0  0  0  0  0  0
  1 12  1  0  0  0  0
  2  7  1  0  0  0  0
  2  1  2  0  0  0  0
  3  2  1  0  0  0  0
  4  3  2  0  0  0  0
  4  5  1  0  0  0  0
  5  6  2  0  0  0  0
  6  1  1  0  0  0  0
  8  3  1  0  0  0  0
  9 20  1  0  0  0  0
  9 10  2  0  0  0  0
 10 14  1  0  0  0  0
 11 15  1  0  0  0  0
 11 10  1  0  0  0  0
 12 11  2  0  0  0  0
 13 12  1  0  0  0  0
 13  9  1  0  0  0  0
 16 17  1  0  0  0  0
 17 23  1  0  0  0  0
 17 18  2  0  0  0  0
 18 24  1  0  0  0  0
 19 18  1  0  0  0  0
 20 19  2  0  0  0  0
 21 16  2  0  0  0  0
 21 20  1  0  0  0  0
 22 16  1  0  0  0  0
 25  5  1  0  0  0  0
 25 28  1  0  0  0  0
 26 25  2  0  0  0  0
 27 34  1  0  0  0  0
 28 29  1  0  0  0  0
 28 27  2  0  0  0  0
 29 31  2  0  0  0  0
 30 29  1  0  0  0  0
 31 32  1  0  0  0  0
 31 33  1  0  0  0  0
 34 33  2  0  0  0  0
 35 36  2  0  0  0  0
 36 27  1  0  0  0  0
 36 37  1  0  0  0  0
 37 39  1  0  0  0  0
 38 35  1  0  0  0  0
 40 37  1  0  0  0  0
M  END
>  <minimizedAffinity>
-6.8030653

$$$$

 OpenBabel03212520573D

 40 43  0  0  0  0  0  0  0  0999 V2000
   42.3580   73.6460   60.4250 C   0  0  0  0  0  0  0  0  0  0  0  0
   43.5460   73.9700   59.8610 C   0  0  0  0  0  0  0  0  0  0  0  0
   43.5010   75.1770   59.1420 C   0  0  0  0  0  0  0  0  0  0  0  0
   42.4060   75.9370   59.0160 N   0  0  0  0  0  0  0  0  0  0  0  0
   41.2610   75.5330   59.6160 C   0  0  0  0  0  0  0  0  0  0  0  0
   41.2250   74.3740   60.3330 N   0  0  0  0  0  0  0  0  0  0  0  0
   44.4550   73.4050   59.9250 H   0  0  0  0  0  0  0  0  0  0  0  0
   44.3920   75.5490   58.6400 H   0  0  0  0  0  0  0  0  0  0  0  0
   41.9730   69.8650   61.9090 C   0  0  0  0  0  0  0  0  0  0  0  0
   42.1330   70.8100   62.9040 C   0  0  0  0  0  0  0  0  0  0  0  0
   42.2700   72.1000   62.5430 C   0  0  0  0  0  0  0  0  0  0  0  0
   42.2470   72.4390   61.1940 C   0  0  0  0  0  0  0  0  0  0  0  0
   42.0120   70.7980   60.3510 S   0  0  0  0  0  0  0  0  0  0  0  0
   42.1500   70.5430   63.9600 H   0  0  0  0  0  0  0  0  0  0  0  0
   42.4030   72.9740   63.1640 H   0  0  0  0  0  0  0  0  0  0  0  0
   42.0280   66.2420   61.3410 C   0  0  0  0  0  0  0  0  0  0  0  0
   41.5210   65.7210   62.5700 C   0  0  0  0  0  0  0  0  0  0  0  0
   41.1700   66.6170   63.5730 C   0  0  0  0  0  0  0  0  0  0  0  0
   41.3280   67.9450   63.3280 N   0  0  0  0  0  0  0  0  0  0  0  0
   41.8080   68.4050   62.1610 C   0  0  0  0  0  0  0  0  0  0  0  0
   42.1480   67.5670   61.1920 N   0  0  0  0  0  0  0  0  0  0  0  0
   42.3040   65.5620   60.5550 H   0  0  0  0  0  0  0  0  0  0  0  0
   41.4170   64.6480   62.7070 H   0  0  0  0  0  0  0  0  0  0  0  0
   40.7830   66.2640   64.5160 H   0  0  0  0  0  0  0  0  0  0  0  0
   40.0570   76.3600   59.4880 C   0  0  0  0  0  0  0  0  0  0  0  0
   40.0000   77.3790   60.2170 O   0  0  0  0  0  0  0  0  0  0  0  0
   39.0390   76.2680   57.2320 C   0  0  0  0  0  0  0  0  0  0  0  0
   39.1470   75.8070   58.5050 C   0  0  0  0  0  0  0  0  0  0  0  0
   38.3190   74.7350   58.8440 C   0  0  0  0  0  0  0  0  0  0  0  0
   38.3810   74.3460   59.8440 H   0  0  0  0  0  0  0  0  0  0  0  0
   37.4680   74.2310   57.8840 C   0  0  0  0  0  0  0  0  0  0  0  0
   36.8690   73.4040   58.2370 H   0  0  0  0  0  0  0  0  0  0  0  0
   37.3640   74.7050   56.5940 C   0  0  0  0  0  3  0  0  0  0  0  0
   38.1820   75.7530   56.2820 C   0  0  0  0  0  3  0  0  0  0  0  0
   40.1040   78.5720   56.4710 N   0  0  0  0  0  0  0  0  0  0  0  0
   39.8500   77.3730   56.7560 C   0  0  0  0  0  0  0  0  0  0  0  0
   41.1930   77.1260   56.2920 N   0  0  0  0  0  0  0  0  0  0  0  0
   39.5480   79.4190   56.5450 H   0  0  0  0  0  0  0  0  0  0  0  0
   42.0010   77.0220   55.6410 H   0  0  0  0  0  0  0  0  0  0  0  0
   41.9940   76.8650   56.9370 H   0  0  0  0  0  0  0  0  0  0  0  0
  1 12  1  0  0  0  0
  2  7  1  0  0  0  0
  2  1  2  0  0  0  0
  3  2  1  0  0  0  0
  4  3  2  0  0  0  0
  4  5  1  0  0  0  0
  5  6  2  0  0  0  0
  6  1  1  0  0  0  0
  8  3  1  0  0  0  0
  9 20  1  0  0  0  0
  9 10  2  0  0  0  0
 10 14  1  0  0  0  0
 11 10  1  0  0  0  0
 11 15  1  0  0  0  0
 12 11  2  0  0  0  0
 13 12  1  0  0  0  0
 13  9  1  0  0  0  0
 16 17  1  0  0  0  0
 17 23  1  0  0  0  0
 17 18  2  0  0  0  0
 18 24  1  0  0  0  0
 19 18  1  0  0  0  0
 20 19  2  0  0  0  0
 21 16  2  0  0  0  0
 21 20  1  0  0  0  0
 22 16  1  0  0  0  0
 25  5  1  0  0  0  0
 25 26  2  0  0  0  0
 27 28  1  0  0  0  0
 28 29  2  0  0  0  0
 28 25  1  0  0  0  0
 29 30  1  0  0  0  0
 31 32  1  0  0  0  0
 31 29  1  0  0  0  0
 33 31  2  0  0  0  0
 34 33  1  0  0  0  0
 34 27  2  0  0  0  0
 35 38  1  0  0  0  0
 35 36  2  0  0  0  0
 36 27  1  0  0  0  0
 37 36  1  0  0  0  0
 37 40  1  0  0  0  0
 39 37  1  0  0  0  0
M  END
>  <minimizedAffinity>
-6.78997326

$$$$

 OpenBabel03212520573D

 40 43  0  0  0  0  0  0  0  0999 V2000
   41.1690   72.7380   57.7480 C   0  0  0  0  0  0  0  0  0  0  0  0
   41.9000   72.9520   56.6280 C   0  0  0  0  0  0  0  0  0  0  0  0
   41.5920   74.1700   55.9970 C   0  0  0  0  0  0  0  0  0  0  0  0
   40.6750   75.0370   56.4430 N   0  0  0  0  0  0  0  0  0  0  0  0
   39.9920   74.7390   57.5730 C   0  0  0  0  0  0  0  0  0  0  0  0
   40.2340   73.5770   58.2430 N   0  0  0  0  0  0  0  0  0  0  0  0
   42.6460   72.2980   56.2220 H   0  0  0  0  0  0  0  0  0  0  0  0
   42.1110   74.4600   55.0850 H   0  0  0  0  0  0  0  0  0  0  0  0
   41.9430   69.8090   60.4820 C   0  0  0  0  0  0  0  0  0  0  0  0
   41.5350   69.3010   59.2630 C   0  0  0  0  0  0  0  0  0  0  0  0
   41.2490   70.1680   58.2740 C   0  0  0  0  0  0  0  0  0  0  0  0
   41.3710   71.5350   58.5040 C   0  0  0  0  0  0  0  0  0  0  0  0
   41.9400   71.6140   60.2730 S   0  0  0  0  0  0  0  0  0  0  0  0
   41.4390   68.2310   59.0840 H   0  0  0  0  0  0  0  0  0  0  0  0
   40.9190   69.9710   57.2640 H   0  0  0  0  0  0  0  0  0  0  0  0
   43.7730   68.5750   63.4110 C   0  0  0  0  0  0  0  0  0  0  0  0
   42.9820   67.4630   63.8320 C   0  0  0  0  0  0  0  0  0  0  0  0
   41.8370   67.1530   63.1080 C   0  0  0  0  0  0  0  0  0  0  0  0
   41.5310   67.9290   62.0350 N   0  0  0  0  0  0  0  0  0  0  0  0
   42.2940   68.9710   61.6630 C   0  0  0  0  0  0  0  0  0  0  0  0
   43.3890   69.2810   62.3400 N   0  0  0  0  0  0  0  0  0  0  0  0
   44.6620   68.8280   63.9600 H   0  0  0  0  0  0  0  0  0  0  0  0
   43.2790   66.8790   64.6990 H   0  0  0  0  0  0  0  0  0  0  0  0
   41.2130   66.3210   63.3940 H   0  0  0  0  0  0  0  0  0  0  0  0
   38.9890   75.6840   58.0720 C   0  0  0  0  0  0  0  0  0  0  0  0
   37.8300   75.5660   57.6070 O   0  0  0  0  0  0  0  0  0  0  0  0
   39.4880   76.4230   60.3830 C   0  0  0  0  0  0  0  0  0  0  0  0
   39.5680   76.5960   59.0380 C   0  0  0  0  0  0  0  0  0  0  0  0
   40.2600   77.7280   58.6040 C   0  0  0  0  0  0  0  0  0  0  0  0
   40.3420   77.8940   57.5450 H   0  0  0  0  0  0  0  0  0  0  0  0
   40.8010   78.5720   59.5500 C   0  0  0  0  0  0  0  0  0  0  0  0
   41.3180   79.4190   59.1200 H   0  0  0  0  0  0  0  0  0  0  0  0
   40.7150   78.3890   60.9130 C   0  0  0  0  0  3  0  0  0  0  0  0
   40.0340   77.2770   61.3170 C   0  0  0  0  0  3  0  0  0  0  0  0
   37.8070   74.6180   61.3520 N   0  0  0  0  0  0  0  0  0  0  0  0
   38.8010   75.2820   60.9580 C   0  0  0  0  0  0  0  0  0  0  0  0
   39.5610   74.1380   61.4010 N   0  0  0  0  0  0  0  0  0  0  0  0
   36.8120   74.8240   61.3540 H   0  0  0  0  0  0  0  0  0  0  0  0
   40.0080   73.4470   62.0400 H   0  0  0  0  0  0  0  0  0  0  0  0
   40.0420   73.4650   60.7350 H   0  0  0  0  0  0  0  0  0  0  0  0
  1  6  1  0  0  0  0
  1 12  1  0  0  0  0
  2  1  2  0  0  0  0
  3  4  2  0  0  0  0
  3  2  1  0  0  0  0
  4  5  1  0  0  0  0
  5 25  1  0  0  0  0
  5  6  2  0  0  0  0
  7  2  1  0  0  0  0
  8  3  1  0  0  0  0
  9 20  1  0  0  0  0
 10  9  2  0  0  0  0
 11 12  2  0  0  0  0
 11 10  1  0  0  0  0
 12 13  1  0  0  0  0
 13  9  1  0  0  0  0
 14 10  1  0  0  0  0
 15 11  1  0  0  0  0
 16 17  1  0  0  0  0
 16 22  1  0  0  0  0
 17 23  1  0  0  0  0
 18 24  1  0  0  0  0
 18 17  2  0  0  0  0
 19 18  1  0  0  0  0
 20 19  2  0  0  0  0
 20 21  1  0  0  0  0
 21 16  2  0  0  0  0
 25 28  1  0  0  0  0
 26 25  2  0  0  0  0
 27 36  1  0  0  0  0
 27 34  1  0  0  0  0
 28 27  2  0  0  0  0
 29 28  1  0  0  0  0
 29 31  2  0  0  0  0
 30 29  1  0  0  0  0
 31 33  1  0  0  0  0
 32 31  1  0  0  0  0
 33 34  2  0  0  0  0
 35 38  1  0  0  0  0
 36 35  2  0  0  0  0
 36 37  1  0  0  0  0
 37 39  1  0  0  0  0
 40 37  1  0  0  0  0
M  END
>  <minimizedAffinity>
-6.76322031

$$$$

 OpenBabel03212520573D

 40 43  0  0  0  0  0  0  0  0999 V2000
   41.3430   72.6300   57.8680 C   0  0  0  0  0  0  0  0  0  0  0  0
   42.2720   73.0920   56.9970 C   0  0  0  0  0  0  0  0  0  0  0  0
   42.1150   74.4560   56.6990 C   0  0  0  0  0  0  0  0  0  0  0  0
   41.1530   75.2320   57.2120 N   0  0  0  0  0  0  0  0  0  0  0  0
   40.2670   74.6840   58.0770 C   0  0  0  0  0  0  0  0  0  0  0  0
   40.3540   73.3670   58.4180 N   0  0  0  0  0  0  0  0  0  0  0  0
   43.0640   72.5220   56.5520 H   0  0  0  0  0  0  0  0  0  0  0  0
   42.7980   74.9480   56.0090 H   0  0  0  0  0  0  0  0  0  0  0  0
   41.7450   68.9960   59.6800 C   0  0  0  0  0  0  0  0  0  0  0  0
   41.1880   68.9000   58.4190 C   0  0  0  0  0  0  0  0  0  0  0  0
   41.0040   70.0330   57.7150 C   0  0  0  0  0  0  0  0  0  0  0  0
   41.3750   71.2530   58.2710 C   0  0  0  0  0  0  0  0  0  0  0  0
   42.0450   70.7700   59.9370 S   0  0  0  0  0  0  0  0  0  0  0  0
   40.8980   67.9450   57.9850 H   0  0  0  0  0  0  0  0  0  0  0  0
   40.5890   70.1640   56.7260 H   0  0  0  0  0  0  0  0  0  0  0  0
   43.5650   66.6270   61.8070 C   0  0  0  0  0  0  0  0  0  0  0  0
   42.5460   65.7060   62.1970 C   0  0  0  0  0  0  0  0  0  0  0  0
   41.2540   65.9100   61.7280 C   0  0  0  0  0  0  0  0  0  0  0  0
   41.0300   66.9790   60.9190 N   0  0  0  0  0  0  0  0  0  0  0  0
   42.0090   67.8300   60.5690 C   0  0  0  0  0  0  0  0  0  0  0  0
   43.2470   67.6520   61.0060 N   0  0  0  0  0  0  0  0  0  0  0  0
   44.5700   66.4830   62.1620 H   0  0  0  0  0  0  0  0  0  0  0  0
   42.7870   64.8680   62.8470 H   0  0  0  0  0  0  0  0  0  0  0  0
   40.4570   65.2360   62.0000 H   0  0  0  0  0  0  0  0  0  0  0  0
   39.2120   75.5260   58.6490 C   0  0  0  0  0  0  0  0  0  0  0  0
   39.0440   75.4470   59.8890 O   0  0  0  0  0  0  0  0  0  0  0  0
   37.6230   75.8080   56.7700 C   0  0  0  0  0  0  0  0  0  0  0  0
   38.5560   76.3090   57.6200 C   0  0  0  0  0  0  0  0  0  0  0  0
   38.8690   77.6600   57.4630 C   0  0  0  0  0  0  0  0  0  0  0  0
   39.6040   78.0880   58.1200 H   0  0  0  0  0  0  0  0  0  0  0  0
   38.2240   78.3750   56.4770 C   0  0  0  0  0  0  0  0  0  0  0  0
   38.5300   79.4100   56.4310 H   0  0  0  0  0  0  0  0  0  0  0  0
   37.2780   77.8590   55.6180 C   0  0  0  0  0  3  0  0  0  0  0  0
   36.9860   76.5360   55.7870 C   0  0  0  0  0  3  0  0  0  0  0  0
   37.3120   73.2020   57.1390 N   0  0  0  0  0  0  0  0  0  0  0  0
   37.2070   74.4190   56.8370 C   0  0  0  0  0  0  0  0  0  0  0  0
   35.9480   74.0210   56.2580 N   0  0  0  0  0  0  0  0  0  0  0  0
   38.0390   72.6840   57.6250 H   0  0  0  0  0  0  0  0  0  0  0  0
   35.2660   73.5810   55.6030 H   0  0  0  0  0  0  0  0  0  0  0  0
   35.0060   74.2830   56.6730 H   0  0  0  0  0  0  0  0  0  0  0  0
  1 12  1  0  0  0  0
  1  6  1  0  0  0  0
  2  1  2  0  0  0  0
  3  2  1  0  0  0  0
  3  4  2  0  0  0  0
  4  5  1  0  0  0  0
  5  6  2  0  0  0  0
  5 25  1  0  0  0  0
  7  2  1  0  0  0  0
  8  3  1  0  0  0  0
  9 13  1  0  0  0  0
  9 20  1  0  0  0  0
 10  9  2  0  0  0  0
 11 12  2  0  0  0  0
 11 10  1  0  0  0  0
 12 13  1  0  0  0  0
 14 10  1  0  0  0  0
 15 11  1  0  0  0  0
 16 22  1  0  0  0  0
 16 17  1  0  0  0  0
 17 23  1  0  0  0  0
 18 24  1  0  0  0  0
 18 17  2  0  0  0  0
 19 18  1  0  0  0  0
 20 19  2  0  0  0  0
 20 21  1  0  0  0  0
 21 16  2  0  0  0  0
 25 26  2  0  0  0  0
 27 36  1  0  0  0  0
 27 28  1  0  0  0  0
 28 25  1  0  0  0  0
 29 28  2  0  0  0  0
 29 30  1  0  0  0  0
 31 29  1  0  0  0  0
 32 31  1  0  0  0  0
 33 34  1  0  0  0  0
 33 31  2  0  0  0  0
 34 27  2  0  0  0  0
 35 38  1  0  0  0  0
 36 35  2  0  0  0  0
 37 40  1  0  0  0  0
 37 36  1  0  0  0  0
 39 37  1  0  0  0  0
M  END
>  <minimizedAffinity>
-6.57254648

$$$$

 OpenBabel03212520573D

 40 43  0  0  0  0  0  0  0  0999 V2000
   41.0990   72.1590   61.1100 C   0  0  0  0  0  0  0  0  0  0  0  0
   41.2740   72.1710   62.4530 C   0  0  0  0  0  0  0  0  0  0  0  0
   42.2460   71.2540   62.8880 C   0  0  0  0  0  0  0  0  0  0  0  0
   42.9350   70.4460   62.0740 N   0  0  0  0  0  0  0  0  0  0  0  0
   42.6930   70.5020   60.7430 C   0  0  0  0  0  0  0  0  0  0  0  0
   41.7650   71.3670   60.2430 N   0  0  0  0  0  0  0  0  0  0  0  0
   40.7540   72.7930   63.1550 H   0  0  0  0  0  0  0  0  0  0  0  0
   42.4800   71.1660   63.9480 H   0  0  0  0  0  0  0  0  0  0  0  0
   38.8230   74.6120   58.7760 C   0  0  0  0  0  0  0  0  0  0  0  0
   38.3030   74.4600   60.0470 C   0  0  0  0  0  0  0  0  0  0  0  0
   38.9640   73.6730   60.9170 C   0  0  0  0  0  0  0  0  0  0  0  0
   40.1380   73.0430   60.5140 C   0  0  0  0  0  0  0  0  0  0  0  0
   40.3350   73.6060   58.7530 S   0  0  0  0  0  0  0  0  0  0  0  0
   37.3840   74.9530   60.3610 H   0  0  0  0  0  0  0  0  0  0  0  0
   38.7220   73.4310   61.9420 H   0  0  0  0  0  0  0  0  0  0  0  0
   38.1130   77.5210   56.6570 C   0  0  0  0  0  0  0  0  0  0  0  0
   37.0930   77.0340   55.7840 C   0  0  0  0  0  0  0  0  0  0  0  0
   36.6640   75.7210   55.9350 C   0  0  0  0  0  0  0  0  0  0  0  0
   37.2420   74.9680   56.9080 N   0  0  0  0  0  0  0  0  0  0  0  0
   38.2020   75.4530   57.7140 C   0  0  0  0  0  0  0  0  0  0  0  0
   38.6230   76.7020   57.5860 N   0  0  0  0  0  0  0  0  0  0  0  0
   38.4560   78.5340   56.5540 H   0  0  0  0  0  0  0  0  0  0  0  0
   36.6680   77.6850   55.0250 H   0  0  0  0  0  0  0  0  0  0  0  0
   35.8960   75.3160   55.2950 H   0  0  0  0  0  0  0  0  0  0  0  0
   43.4450   69.6240   59.8420 C   0  0  0  0  0  0  0  0  0  0  0  0
   44.2770   70.1790   59.0860 O   0  0  0  0  0  0  0  0  0  0  0  0
   41.9840   67.6710   59.4100 C   0  0  0  0  0  0  0  0  0  0  0  0
   43.0560   68.2390   60.0200 C   0  0  0  0  0  0  0  0  0  0  0  0
   43.8010   67.4050   60.8560 C   0  0  0  0  0  0  0  0  0  0  0  0
   44.6570   67.8240   61.3540 H   0  0  0  0  0  0  0  0  0  0  0  0
   43.4050   66.0930   61.0000 C   0  0  0  0  0  0  0  0  0  0  0  0
   44.0420   65.5260   61.6640 H   0  0  0  0  0  0  0  0  0  0  0  0
   42.3160   65.5240   60.3770 C   0  0  0  0  0  3  0  0  0  0  0  0
   41.6000   66.3560   59.5640 C   0  0  0  0  0  3  0  0  0  0  0  0
   40.3260   69.3410   58.1900 N   0  0  0  0  0  0  0  0  0  0  0  0
   41.1350   68.4320   58.5120 C   0  0  0  0  0  0  0  0  0  0  0  0
   41.0410   68.0520   57.1240 N   0  0  0  0  0  0  0  0  0  0  0  0
   39.8930   70.0850   58.7300 H   0  0  0  0  0  0  0  0  0  0  0  0
   40.6450   67.6790   56.2340 H   0  0  0  0  0  0  0  0  0  0  0  0
   41.8320   68.1870   56.4280 H   0  0  0  0  0  0  0  0  0  0  0  0
  1  2  1  0  0  0  0
  2  3  2  0  0  0  0
  2  7  1  0  0  0  0
  3  8  1  0  0  0  0
  4  3  1  0  0  0  0
  5  4  2  0  0  0  0
  6  5  1  0  0  0  0
  6  1  2  0  0  0  0
  9 10  2  0  0  0  0
 10 14  1  0  0  0  0
 10 11  1  0  0  0  0
 11 15  1  0  0  0  0
 12 11  2  0  0  0  0
 12  1  1  0  0  0  0
 13  9  1  0  0  0  0
 13 12  1  0  0  0  0
 16 21  1  0  0  0  0
 17 18  1  0  0  0  0
 17 16  2  0  0  0  0
 18 19  2  0  0  0  0
 19 20  1  0  0  0  0
 20  9  1  0  0  0  0
 21 20  2  0  0  0  0
 22 16  1  0  0  0  0
 23 17  1  0  0  0  0
 24 18  1  0  0  0  0
 25 28  1  0  0  0  0
 25  5  1  0  0  0  0
 26 25  2  0  0  0  0
 27 34  2  0  0  0  0
 27 28  1  0  0  0  0
 28 29  2  0  0  0  0
 29 31  1  0  0  0  0
 29 30  1  0  0  0  0
 31 32  1  0  0  0  0
 33 31  2  0  0  0  0
 34 33  1  0  0  0  0
 35 36  2  0  0  0  0
 35 38  1  0  0  0  0
 36 27  1  0  0  0  0
 37 36  1  0  0  0  0
 39 37  1  0  0  0  0
 40 37  1  0  0  0  0
M  END
>  <minimizedAffinity>
-6.57118225

$$$$

 OpenBabel03212520573D

 40 43  0  0  0  0  0  0  0  0999 V2000
   40.5610   72.5970   60.0520 C   0  0  0  0  0  0  0  0  0  0  0  0
   40.5160   73.3440   61.1810 C   0  0  0  0  0  0  0  0  0  0  0  0
   41.3850   72.8780   62.1830 C   0  0  0  0  0  0  0  0  0  0  0  0
   42.1800   71.8090   62.0520 N   0  0  0  0  0  0  0  0  0  0  0  0
   42.1590   71.1220   60.8850 C   0  0  0  0  0  0  0  0  0  0  0  0
   41.3440   71.5120   59.8650 N   0  0  0  0  0  0  0  0  0  0  0  0
   39.9020   74.2070   61.3470 H   0  0  0  0  0  0  0  0  0  0  0  0
   41.4410   73.3920   63.1410 H   0  0  0  0  0  0  0  0  0  0  0  0
   38.4370   74.3350   57.0330 C   0  0  0  0  0  0  0  0  0  0  0  0
   38.2620   72.9650   57.0830 C   0  0  0  0  0  0  0  0  0  0  0  0
   38.9110   72.2730   58.0390 C   0  0  0  0  0  0  0  0  0  0  0  0
   39.7290   72.9490   58.9380 C   0  0  0  0  0  0  0  0  0  0  0  0
   39.5770   74.7210   58.3940 S   0  0  0  0  0  0  0  0  0  0  0  0
   37.6210   72.4370   56.3790 H   0  0  0  0  0  0  0  0  0  0  0  0
   38.9030   71.2110   58.2400 H   0  0  0  0  0  0  0  0  0  0  0  0
   37.2890   75.6300   53.8000 C   0  0  0  0  0  0  0  0  0  0  0  0
   36.6010   76.8270   54.1650 C   0  0  0  0  0  0  0  0  0  0  0  0
   36.5410   77.1710   55.5100 C   0  0  0  0  0  0  0  0  0  0  0  0
   37.1430   76.3470   56.4080 N   0  0  0  0  0  0  0  0  0  0  0  0
   37.7820   75.2260   56.0350 C   0  0  0  0  0  0  0  0  0  0  0  0
   37.8510   74.8810   54.7570 N   0  0  0  0  0  0  0  0  0  0  0  0
   37.3440   75.3500   52.7630 H   0  0  0  0  0  0  0  0  0  0  0  0
   36.1400   77.4470   53.4010 H   0  0  0  0  0  0  0  0  0  0  0  0
   36.0310   78.0680   55.8270 H   0  0  0  0  0  0  0  0  0  0  0  0
   43.0290   69.9530   60.7290 C   0  0  0  0  0  0  0  0  0  0  0  0
   44.1740   70.1660   60.2650 O   0  0  0  0  0  0  0  0  0  0  0  0
   41.7170   67.8920   60.3210 C   0  0  0  0  0  0  0  0  0  0  0  0
   42.3580   68.7430   61.1620 C   0  0  0  0  0  0  0  0  0  0  0  0
   42.3510   68.3940   62.5140 C   0  0  0  0  0  0  0  0  0  0  0  0
   42.8510   69.0460   63.2070 H   0  0  0  0  0  0  0  0  0  0  0  0
   41.7070   67.2350   62.8910 C   0  0  0  0  0  0  0  0  0  0  0  0
   41.7540   67.0470   63.9540 H   0  0  0  0  0  0  0  0  0  0  0  0
   41.0580   66.3770   62.0300 C   0  0  0  0  0  3  0  0  0  0  0  0
   41.0760   66.7360   60.7130 C   0  0  0  0  0  3  0  0  0  0  0  0
   42.0780   68.1210   57.7050 N   0  0  0  0  0  0  0  0  0  0  0  0
   41.6600   68.1410   58.8920 C   0  0  0  0  0  0  0  0  0  0  0  0
   40.5110   68.8040   58.3270 N   0  0  0  0  0  0  0  0  0  0  0  0
   42.9330   67.7590   57.2930 H   0  0  0  0  0  0  0  0  0  0  0  0
   39.9270   69.5450   57.8840 H   0  0  0  0  0  0  0  0  0  0  0  0
   39.5560   68.3470   58.2460 H   0  0  0  0  0  0  0  0  0  0  0  0
  1  2  1  0  0  0  0
  2  7  1  0  0  0  0
  2  3  2  0  0  0  0
  3  8  1  0  0  0  0
  4  3  1  0  0  0  0
  5  4  2  0  0  0  0
  6  1  2  0  0  0  0
  6  5  1  0  0  0  0
  9 10  2  0  0  0  0
  9 13  1  0  0  0  0
 10 11  1  0  0  0  0
 11 15  1  0  0  0  0
 11 12  2  0  0  0  0
 12  1  1  0  0  0  0
 13 12  1  0  0  0  0
 14 10  1  0  0  0  0
 16 17  2  0  0  0  0
 16 21  1  0  0  0  0
 17 18  1  0  0  0  0
 18 24  1  0  0  0  0
 18 19  2  0  0  0  0
 20 19  1  0  0  0  0
 20  9  1  0  0  0  0
 21 20  2  0  0  0  0
 22 16  1  0  0  0  0
 23 17  1  0  0  0  0
 25  5  1  0  0  0  0
 25 28  1  0  0  0  0
 26 25  2  0  0  0  0
 27 34  2  0  0  0  0
 27 28  1  0  0  0  0
 28 29  2  0  0  0  0
 29 31  1  0  0  0  0
 29 30  1  0  0  0  0
 31 32  1  0  0  0  0
 33 31  2  0  0  0  0
 34 33  1  0  0  0  0
 35 36  2  0  0  0  0
 36 27  1  0  0  0  0
 37 36  1  0  0  0  0
 38 35  1  0  0  0  0
 39 37  1  0  0  0  0
 40 37  1  0  0  0  0
M  END
>  <minimizedAffinity>
-6.51557255

$$$$
