
 OpenBabel03212520553D

 40 43  0  0  0  0  0  0  0  0999 V2000
   39.7120   77.1800   59.2270 C   0  0  0  0  0  0  0  0  0  0  0  0
   40.3630   76.0090   59.0230 C   0  0  0  0  0  0  0  0  0  0  0  0
   39.8350   75.2660   57.9540 C   0  0  0  0  0  0  0  0  0  0  0  0
   38.7970   75.6580   57.2060 N   0  0  0  0  0  0  0  0  0  0  0  0
   38.2060   76.8460   57.4830 C   0  0  0  0  0  0  0  0  0  0  0  0
   38.6620   77.6250   58.5040 N   0  0  0  0  0  0  0  0  0  0  0  0
   41.1980   75.6410   59.5870 H   0  0  0  0  0  0  0  0  0  0  0  0
   40.2700   74.3040   57.6880 H   0  0  0  0  0  0  0  0  0  0  0  0
   40.9120   80.2130   61.6780 C   0  0  0  0  0  0  0  0  0  0  0  0
   40.8020   79.0070   62.3430 C   0  0  0  0  0  0  0  0  0  0  0  0
   40.4140   77.9250   61.6430 C   0  0  0  0  0  0  0  0  0  0  0  0
   40.1380   78.0500   60.2850 C   0  0  0  0  0  0  0  0  0  0  0  0
   40.4510   79.8540   59.9570 S   0  0  0  0  0  0  0  0  0  0  0  0
   41.0190   78.9100   63.4060 H   0  0  0  0  0  0  0  0  0  0  0  0
   40.2710   76.9070   61.9780 H   0  0  0  0  0  0  0  0  0  0  0  0
   43.0130   83.0640   62.6320 C   0  0  0  0  0  0  0  0  0  0  0  0
   42.1520   83.8200   63.4830 C   0  0  0  0  0  0  0  0  0  0  0  0
   40.8670   83.3440   63.7160 C   0  0  0  0  0  0  0  0  0  0  0  0
   40.5000   82.1790   63.1190 N   0  0  0  0  0  0  0  0  0  0  0  0
   41.3320   81.4890   62.3220 C   0  0  0  0  0  0  0  0  0  0  0  0
   42.5610   81.9270   62.0880 N   0  0  0  0  0  0  0  0  0  0  0  0
   44.0100   83.4190   62.4410 H   0  0  0  0  0  0  0  0  0  0  0  0
   42.5030   84.7450   63.9320 H   0  0  0  0  0  0  0  0  0  0  0  0
   40.1860   83.8860   64.3530 H   0  0  0  0  0  0  0  0  0  0  0  0
   37.0710   77.2860   56.6670 C   0  0  0  0  0  0  0  0  0  0  0  0
   35.9550   77.3260   57.2370 O   0  0  0  0  0  0  0  0  0  0  0  0
   37.8880   78.8330   54.9130 C   0  0  0  0  0  0  0  0  0  0  0  0
   37.4920   77.5980   55.3150 C   0  0  0  0  0  0  0  0  0  0  0  0
   37.5080   76.5990   54.3400 C   0  0  0  0  0  0  0  0  0  0  0  0
   37.2000   75.6100   54.6260 H   0  0  0  0  0  0  0  0  0  0  0  0
   37.9170   76.9290   53.0660 C   0  0  0  0  0  0  0  0  0  0  0  0
   37.8970   76.0930   52.3820 H   0  0  0  0  0  0  0  0  0  0  0  0
   38.3180   78.1860   52.6660 C   0  0  0  0  0  3  0  0  0  0  0  0
   38.2940   79.1490   53.6340 C   0  0  0  0  0  3  0  0  0  0  0  0
   38.3110   80.6010   56.8410 N   0  0  0  0  0  0  0  0  0  0  0  0
   37.9230   79.9540   55.8350 C   0  0  0  0  0  0  0  0  0  0  0  0
   37.0530   81.0830   55.6210 N   0  0  0  0  0  0  0  0  0  0  0  0
   39.0020   80.3920   57.5570 H   0  0  0  0  0  0  0  0  0  0  0  0
   36.2660   81.7530   55.7570 H   0  0  0  0  0  0  0  0  0  0  0  0
   37.1850   81.7800   54.8300 H   0  0  0  0  0  0  0  0  0  0  0  0
  1 12  1  0  0  0  0
  2  1  1  0  0  0  0
  2  7  1  0  0  0  0
  3  2  2  0  0  0  0
  4  5  2  0  0  0  0
  4  3  1  0  0  0  0
  5  6  1  0  0  0  0
  6  1  2  0  0  0  0
  8  3  1  0  0  0  0
  9 20  1  0  0  0  0
  9 10  2  0  0  0  0
 10 14  1  0  0  0  0
 11 15  1  0  0  0  0
 11 10  1  0  0  0  0
 12 11  2  0  0  0  0
 13 12  1  0  0  0  0
 13  9  1  0  0  0  0
 16 17  1  0  0  0  0
 17 18  2  0  0  0  0
 17 23  1  0  0  0  0
 18 24  1  0  0  0  0
 19 18  1  0  0  0  0
 20 19  2  0  0  0  0
 21 20  1  0  0  0  0
 21 16  2  0  0  0  0
 22 16  1  0  0  0  0
 25 26  2  0  0  0  0
 25  5  1  0  0  0  0
 27 28  1  0  0  0  0
 27 36  1  0  0  0  0
 28 25  1  0  0  0  0
 29 30  1  0  0  0  0
 29 28  2  0  0  0  0
 31 29  1  0  0  0  0
 32 31  1  0  0  0  0
 33 31  2  0  0  0  0
 33 34  1  0  0  0  0
 34 27  2  0  0  0  0
 35 38  1  0  0  0  0
 36 35  2  0  0  0  0
 37 39  1  0  0  0  0
 37 36  1  0  0  0  0
 40 37  1  0  0  0  0
M  END
>  <minimizedAffinity>
-7.03990173

>  <minimizedRMSD>
1.15931797

$$$$
