
 OpenBabel03212520553D

 40 43  0  0  0  0  0  0  0  0999 V2000
   39.8210   77.2350   59.1570 C   0  0  0  0  0  0  0  0  0  0  0  0
   40.5830   76.1530   58.8670 C   0  0  0  0  0  0  0  0  0  0  0  0
   40.0830   75.4030   57.7890 C   0  0  0  0  0  0  0  0  0  0  0  0
   38.9720   75.7110   57.1080 N   0  0  0  0  0  0  0  0  0  0  0  0
   38.2730   76.8140   57.4690 C   0  0  0  0  0  0  0  0  0  0  0  0
   38.6940   77.5940   58.5050 N   0  0  0  0  0  0  0  0  0  0  0  0
   41.4790   75.8540   59.3730 H   0  0  0  0  0  0  0  0  0  0  0  0
   40.6050   74.5070   57.4570 H   0  0  0  0  0  0  0  0  0  0  0  0
   40.8950   80.2620   61.6730 C   0  0  0  0  0  0  0  0  0  0  0  0
   40.8050   79.0440   62.3190 C   0  0  0  0  0  0  0  0  0  0  0  0
   40.4580   77.9620   61.5960 C   0  0  0  0  0  0  0  0  0  0  0  0
   40.2040   78.1010   60.2350 C   0  0  0  0  0  0  0  0  0  0  0  0
   40.4760   79.9170   59.9390 S   0  0  0  0  0  0  0  0  0  0  0  0
   41.0030   78.9360   63.3840 H   0  0  0  0  0  0  0  0  0  0  0  0
   40.3350   76.9370   61.9140 H   0  0  0  0  0  0  0  0  0  0  0  0
   42.9470   83.0680   62.8410 C   0  0  0  0  0  0  0  0  0  0  0  0
   42.0080   83.8690   63.5590 C   0  0  0  0  0  0  0  0  0  0  0  0
   40.6890   83.4370   63.6310 C   0  0  0  0  0  0  0  0  0  0  0  0
   40.3640   82.2710   63.0130 N   0  0  0  0  0  0  0  0  0  0  0  0
   41.2700   81.5390   62.3440 C   0  0  0  0  0  0  0  0  0  0  0  0
   42.5320   81.9340   62.2640 N   0  0  0  0  0  0  0  0  0  0  0  0
   43.9710   83.3880   62.7760 H   0  0  0  0  0  0  0  0  0  0  0  0
   42.3280   84.7930   64.0340 H   0  0  0  0  0  0  0  0  0  0  0  0
   39.9490   84.0140   64.1640 H   0  0  0  0  0  0  0  0  0  0  0  0
   37.0580   77.1630   56.7280 C   0  0  0  0  0  0  0  0  0  0  0  0
   35.9870   76.6560   57.1400 O   0  0  0  0  0  0  0  0  0  0  0  0
   37.6650   77.6370   54.3740 C   0  0  0  0  0  0  0  0  0  0  0  0
   37.3570   78.0570   55.6280 C   0  0  0  0  0  0  0  0  0  0  0  0
   37.3370   79.4400   55.8250 C   0  0  0  0  0  0  0  0  0  0  0  0
   37.0970   79.8050   56.8070 H   0  0  0  0  0  0  0  0  0  0  0  0
   37.6240   80.2620   54.7570 C   0  0  0  0  0  0  0  0  0  0  0  0
   37.5840   81.3120   55.0040 H   0  0  0  0  0  0  0  0  0  0  0  0
   37.9350   79.8260   53.4860 C   0  0  0  0  0  3  0  0  0  0  0  0
   37.9500   78.4710   53.3140 C   0  0  0  0  0  3  0  0  0  0  0  0
   37.2430   75.1150   53.6780 N   0  0  0  0  0  0  0  0  0  0  0  0
   37.7110   76.2260   54.0390 C   0  0  0  0  0  0  0  0  0  0  0  0
   38.9610   75.5120   54.1230 N   0  0  0  0  0  0  0  0  0  0  0  0
   36.3020   74.8270   53.4180 H   0  0  0  0  0  0  0  0  0  0  0  0
   39.6910   74.8500   54.4660 H   0  0  0  0  0  0  0  0  0  0  0  0
   39.7630   75.6580   53.4420 H   0  0  0  0  0  0  0  0  0  0  0  0
  1 12  1  0  0  0  0
  2  1  1  0  0  0  0
  2  7  1  0  0  0  0
  3  2  2  0  0  0  0
  4  5  2  0  0  0  0
  4  3  1  0  0  0  0
  5  6  1  0  0  0  0
  6  1  2  0  0  0  0
  8  3  1  0  0  0  0
  9 10  2  0  0  0  0
  9 20  1  0  0  0  0
 10 14  1  0  0  0  0
 11 15  1  0  0  0  0
 11 10  1  0  0  0  0
 12 11  2  0  0  0  0
 13 12  1  0  0  0  0
 13  9  1  0  0  0  0
 16 17  1  0  0  0  0
 17 18  2  0  0  0  0
 17 23  1  0  0  0  0
 18 24  1  0  0  0  0
 19 18  1  0  0  0  0
 20 19  2  0  0  0  0
 21 20  1  0  0  0  0
 21 16  2  0  0  0  0
 22 16  1  0  0  0  0
 25 26  2  0  0  0  0
 25  5  1  0  0  0  0
 27 28  1  0  0  0  0
 28 29  2  0  0  0  0
 28 25  1  0  0  0  0
 29 30  1  0  0  0  0
 31 32  1  0  0  0  0
 31 29  1  0  0  0  0
 33 31  2  0  0  0  0
 34 33  1  0  0  0  0
 34 27  2  0  0  0  0
 35 36  2  0  0  0  0
 36 37  1  0  0  0  0
 36 27  1  0  0  0  0
 37 39  1  0  0  0  0
 38 35  1  0  0  0  0
 40 37  1  0  0  0  0
M  END
>  <minimizedAffinity>
-6.96876907

>  <minimizedRMSD>
1.16557968

$$$$
