
 OpenBabel03212520553D

 40 43  0  0  0  0  0  0  0  0999 V2000
   39.8260   77.2530   59.3190 C   0  0  0  0  0  0  0  0  0  0  0  0
   40.5630   76.1490   59.0460 C   0  0  0  0  0  0  0  0  0  0  0  0
   40.0440   75.3920   57.9820 C   0  0  0  0  0  0  0  0  0  0  0  0
   38.9380   75.7130   57.3000 N   0  0  0  0  0  0  0  0  0  0  0  0
   38.2640   76.8370   57.6440 C   0  0  0  0  0  0  0  0  0  0  0  0
   38.7050   77.6250   58.6640 N   0  0  0  0  0  0  0  0  0  0  0  0
   41.4550   75.8400   59.5550 H   0  0  0  0  0  0  0  0  0  0  0  0
   40.5440   74.4790   57.6650 H   0  0  0  0  0  0  0  0  0  0  0  0
   40.9510   80.3030   61.7850 C   0  0  0  0  0  0  0  0  0  0  0  0
   40.8780   79.0900   62.4430 C   0  0  0  0  0  0  0  0  0  0  0  0
   40.5170   78.0020   61.7370 C   0  0  0  0  0  0  0  0  0  0  0  0
   40.2320   78.1290   60.3810 C   0  0  0  0  0  0  0  0  0  0  0  0
   40.4930   79.9420   60.0640 S   0  0  0  0  0  0  0  0  0  0  0  0
   41.1010   78.9920   63.5040 H   0  0  0  0  0  0  0  0  0  0  0  0
   40.4040   76.9790   62.0660 H   0  0  0  0  0  0  0  0  0  0  0  0
   43.0070   83.1560   62.8280 C   0  0  0  0  0  0  0  0  0  0  0  0
   42.0980   83.9300   63.6120 C   0  0  0  0  0  0  0  0  0  0  0  0
   40.7980   83.4650   63.7700 C   0  0  0  0  0  0  0  0  0  0  0  0
   40.4610   82.2930   63.1680 N   0  0  0  0  0  0  0  0  0  0  0  0
   41.3380   81.5860   62.4360 C   0  0  0  0  0  0  0  0  0  0  0  0
   42.5820   82.0130   62.2740 N   0  0  0  0  0  0  0  0  0  0  0  0
   44.0160   83.5020   62.6960 H   0  0  0  0  0  0  0  0  0  0  0  0
   42.4270   84.8600   64.0690 H   0  0  0  0  0  0  0  0  0  0  0  0
   40.0820   84.0200   64.3550 H   0  0  0  0  0  0  0  0  0  0  0  0
   37.0540   77.1990   56.9000 C   0  0  0  0  0  0  0  0  0  0  0  0
   35.9670   76.7780   57.3620 O   0  0  0  0  0  0  0  0  0  0  0  0
   37.7290   77.4830   54.5330 C   0  0  0  0  0  0  0  0  0  0  0  0
   37.3790   78.0030   55.7380 C   0  0  0  0  0  0  0  0  0  0  0  0
   37.3390   79.3950   55.8180 C   0  0  0  0  0  0  0  0  0  0  0  0
   37.0650   79.8400   56.7580 H   0  0  0  0  0  0  0  0  0  0  0  0
   37.6500   80.1290   54.6930 C   0  0  0  0  0  0  0  0  0  0  0  0
   37.5910   81.1970   54.8490 H   0  0  0  0  0  0  0  0  0  0  0  0
   38.0040   79.5930   53.4730 C   0  0  0  0  0  3  0  0  0  0  0  0
   38.0370   78.2290   53.4160 C   0  0  0  0  0  3  0  0  0  0  0  0
   37.6170   74.8350   54.6020 N   0  0  0  0  0  0  0  0  0  0  0  0
   37.7990   76.0480   54.3210 C   0  0  0  0  0  0  0  0  0  0  0  0
   38.4210   75.5320   53.1280 N   0  0  0  0  0  0  0  0  0  0  0  0
   37.1810   74.3820   55.4000 H   0  0  0  0  0  0  0  0  0  0  0  0
   39.1200   75.0650   52.5090 H   0  0  0  0  0  0  0  0  0  0  0  0
   37.9880   75.6150   52.1600 H   0  0  0  0  0  0  0  0  0  0  0  0
  1 12  1  0  0  0  0
  2  1  1  0  0  0  0
  2  7  1  0  0  0  0
  3  2  2  0  0  0  0
  4  5  2  0  0  0  0
  4  3  1  0  0  0  0
  5  6  1  0  0  0  0
  6  1  2  0  0  0  0
  8  3  1  0  0  0  0
  9 20  1  0  0  0  0
  9 10  2  0  0  0  0
 10 14  1  0  0  0  0
 11 15  1  0  0  0  0
 11 10  1  0  0  0  0
 12 11  2  0  0  0  0
 13 12  1  0  0  0  0
 13  9  1  0  0  0  0
 16 17  1  0  0  0  0
 17 18  2  0  0  0  0
 17 23  1  0  0  0  0
 18 24  1  0  0  0  0
 19 18  1  0  0  0  0
 20 19  2  0  0  0  0
 21 20  1  0  0  0  0
 21 16  2  0  0  0  0
 22 16  1  0  0  0  0
 25 26  2  0  0  0  0
 25  5  1  0  0  0  0
 27 28  1  0  0  0  0
 28 29  2  0  0  0  0
 28 25  1  0  0  0  0
 29 30  1  0  0  0  0
 31 32  1  0  0  0  0
 31 29  1  0  0  0  0
 33 31  2  0  0  0  0
 34 33  1  0  0  0  0
 34 27  2  0  0  0  0
 35 38  1  0  0  0  0
 36 27  1  0  0  0  0
 36 35  2  0  0  0  0
 37 36  1  0  0  0  0
 39 37  1  0  0  0  0
 40 37  1  0  0  0  0
M  END
>  <minimizedAffinity>
-6.99999905

>  <minimizedRMSD>
0.651071131

$$$$
