
 OpenBabel03212520553D

 40 43  0  0  0  0  0  0  0  0999 V2000
   39.9410   77.6660   59.5980 C   0  0  0  0  0  0  0  0  0  0  0  0
   40.3710   76.3820   59.5680 C   0  0  0  0  0  0  0  0  0  0  0  0
   39.8690   75.6610   58.4700 C   0  0  0  0  0  0  0  0  0  0  0  0
   39.0500   76.1750   57.5450 N   0  0  0  0  0  0  0  0  0  0  0  0
   38.6720   77.4710   57.6560 C   0  0  0  0  0  0  0  0  0  0  0  0
   39.1170   78.2360   58.6920 N   0  0  0  0  0  0  0  0  0  0  0  0
   41.0240   75.9140   60.2770 H   0  0  0  0  0  0  0  0  0  0  0  0
   40.1390   74.6160   58.3320 H   0  0  0  0  0  0  0  0  0  0  0  0
   41.0400   80.6990   62.0960 C   0  0  0  0  0  0  0  0  0  0  0  0
   41.1200   79.4590   62.7020 C   0  0  0  0  0  0  0  0  0  0  0  0
   40.7840   78.3740   61.9800 C   0  0  0  0  0  0  0  0  0  0  0  0
   40.3700   78.5300   60.6610 C   0  0  0  0  0  0  0  0  0  0  0  0
   40.4610   80.3700   60.4070 S   0  0  0  0  0  0  0  0  0  0  0  0
   41.4440   79.3390   63.7350 H   0  0  0  0  0  0  0  0  0  0  0  0
   40.7800   77.3330   62.2710 H   0  0  0  0  0  0  0  0  0  0  0  0
   42.9870   83.6170   63.1670 C   0  0  0  0  0  0  0  0  0  0  0  0
   42.0620   84.3310   63.9870 C   0  0  0  0  0  0  0  0  0  0  0  0
   40.7880   83.8030   64.1610 C   0  0  0  0  0  0  0  0  0  0  0  0
   40.4910   82.6320   63.5380 N   0  0  0  0  0  0  0  0  0  0  0  0
   41.3830   81.9830   62.7710 C   0  0  0  0  0  0  0  0  0  0  0  0
   42.6020   82.4700   62.5930 N   0  0  0  0  0  0  0  0  0  0  0  0
   43.9770   84.0120   63.0220 H   0  0  0  0  0  0  0  0  0  0  0  0
   42.3580   85.2640   64.4600 H   0  0  0  0  0  0  0  0  0  0  0  0
   40.0600   84.3120   64.7730 H   0  0  0  0  0  0  0  0  0  0  0  0
   37.7790   78.0440   56.6450 C   0  0  0  0  0  0  0  0  0  0  0  0
   36.5480   77.9510   56.8690 O   0  0  0  0  0  0  0  0  0  0  0  0
   38.4310   78.2130   54.2610 C   0  0  0  0  0  0  0  0  0  0  0  0
   38.5340   78.6230   55.5520 C   0  0  0  0  0  0  0  0  0  0  0  0
   39.4280   79.6670   55.7960 C   0  0  0  0  0  0  0  0  0  0  0  0
   39.5330   80.0150   56.8080 H   0  0  0  0  0  0  0  0  0  0  0  0
   40.1280   80.1970   54.7330 C   0  0  0  0  0  0  0  0  0  0  0  0
   40.7940   80.9990   55.0180 H   0  0  0  0  0  0  0  0  0  0  0  0
   40.0160   79.7740   53.4260 C   0  0  0  0  0  3  0  0  0  0  0  0
   39.1370   78.7520   53.2080 C   0  0  0  0  0  3  0  0  0  0  0  0
   36.4150   76.5810   53.7140 N   0  0  0  0  0  0  0  0  0  0  0  0
   37.5310   77.1410   53.8780 C   0  0  0  0  0  0  0  0  0  0  0  0
   38.0670   75.9070   53.3600 N   0  0  0  0  0  0  0  0  0  0  0  0
   35.4650   76.8980   53.8890 H   0  0  0  0  0  0  0  0  0  0  0  0
   38.3390   74.9020   53.3100 H   0  0  0  0  0  0  0  0  0  0  0  0
   38.5140   75.8230   52.4010 H   0  0  0  0  0  0  0  0  0  0  0  0
  1 12  1  0  0  0  0
  2  1  1  0  0  0  0
  2  7  1  0  0  0  0
  3  2  2  0  0  0  0
  4  5  2  0  0  0  0
  4  3  1  0  0  0  0
  5  6  1  0  0  0  0
  6  1  2  0  0  0  0
  8  3  1  0  0  0  0
  9 10  2  0  0  0  0
  9 20  1  0  0  0  0
 10 14  1  0  0  0  0
 11 15  1  0  0  0  0
 11 10  1  0  0  0  0
 12 11  2  0  0  0  0
 13 12  1  0  0  0  0
 13  9  1  0  0  0  0
 16 17  1  0  0  0  0
 17 18  2  0  0  0  0
 17 23  1  0  0  0  0
 18 24  1  0  0  0  0
 19 18  1  0  0  0  0
 20 19  2  0  0  0  0
 21 20  1  0  0  0  0
 21 16  2  0  0  0  0
 22 16  1  0  0  0  0
 25 26  2  0  0  0  0
 25  5  1  0  0  0  0
 27 28  1  0  0  0  0
 28 29  2  0  0  0  0
 28 25  1  0  0  0  0
 29 30  1  0  0  0  0
 31 32  1  0  0  0  0
 31 29  1  0  0  0  0
 33 31  2  0  0  0  0
 34 33  1  0  0  0  0
 34 27  2  0  0  0  0
 35 36  2  0  0  0  0
 35 38  1  0  0  0  0
 36 27  1  0  0  0  0
 37 36  1  0  0  0  0
 39 37  1  0  0  0  0
 40 37  1  0  0  0  0
M  END
>  <minimizedAffinity>
-6.04282951

>  <minimizedRMSD>
1.330024

$$$$
