
 OpenBabel03212520553D

 40 43  0  0  0  0  0  0  0  0999 V2000
   39.6640   77.0680   59.3300 C   0  0  0  0  0  0  0  0  0  0  0  0
   40.2610   75.8580   59.2040 C   0  0  0  0  0  0  0  0  0  0  0  0
   39.7320   75.0930   58.1510 C   0  0  0  0  0  0  0  0  0  0  0  0
   38.7430   75.5010   57.3470 N   0  0  0  0  0  0  0  0  0  0  0  0
   38.2060   76.7280   57.5470 C   0  0  0  0  0  0  0  0  0  0  0  0
   38.6650   77.5310   58.5480 N   0  0  0  0  0  0  0  0  0  0  0  0
   41.0540   75.4760   59.8150 H   0  0  0  0  0  0  0  0  0  0  0  0
   40.1260   74.0990   57.9460 H   0  0  0  0  0  0  0  0  0  0  0  0
   40.8600   80.1670   61.6990 C   0  0  0  0  0  0  0  0  0  0  0  0
   40.7900   78.9710   62.3880 C   0  0  0  0  0  0  0  0  0  0  0  0
   40.4080   77.8690   61.7150 C   0  0  0  0  0  0  0  0  0  0  0  0
   40.0970   77.9660   60.3620 C   0  0  0  0  0  0  0  0  0  0  0  0
   40.3660   79.7690   59.9970 S   0  0  0  0  0  0  0  0  0  0  0  0
   41.0330   78.8970   63.4460 H   0  0  0  0  0  0  0  0  0  0  0  0
   40.2930   76.8550   62.0710 H   0  0  0  0  0  0  0  0  0  0  0  0
   42.9780   82.9880   62.7030 C   0  0  0  0  0  0  0  0  0  0  0  0
   42.0700   83.8260   63.4190 C   0  0  0  0  0  0  0  0  0  0  0  0
   40.7490   83.4130   63.5470 C   0  0  0  0  0  0  0  0  0  0  0  0
   40.3920   82.2300   62.9810 N   0  0  0  0  0  0  0  0  0  0  0  0
   41.2690   81.4620   62.3120 C   0  0  0  0  0  0  0  0  0  0  0  0
   42.5330   81.8390   62.1800 N   0  0  0  0  0  0  0  0  0  0  0  0
   44.0030   83.2930   62.5960 H   0  0  0  0  0  0  0  0  0  0  0  0
   42.4150   84.7620   63.8510 H   0  0  0  0  0  0  0  0  0  0  0  0
   40.0330   84.0180   64.0800 H   0  0  0  0  0  0  0  0  0  0  0  0
   37.1250   77.1860   56.6690 C   0  0  0  0  0  0  0  0  0  0  0  0
   35.9970   77.3260   57.1980 O   0  0  0  0  0  0  0  0  0  0  0  0
   37.8970   78.6110   54.7950 C   0  0  0  0  0  0  0  0  0  0  0  0
   37.6040   77.3910   55.3170 C   0  0  0  0  0  0  0  0  0  0  0  0
   37.7940   76.2980   54.4690 C   0  0  0  0  0  0  0  0  0  0  0  0
   37.5720   75.3190   54.8520 H   0  0  0  0  0  0  0  0  0  0  0  0
   38.2540   76.5290   53.1910 C   0  0  0  0  0  0  0  0  0  0  0  0
   38.3710   75.6250   52.6100 H   0  0  0  0  0  0  0  0  0  0  0  0
   38.5480   77.7690   52.6690 C   0  0  0  0  0  0  0  0  0  0  0  0
   38.3560   78.8260   53.5130 C   0  0  0  0  0  0  0  0  0  0  0  0
   37.8800   80.5620   56.5890 N   0  0  0  0  0  0  0  0  0  0  0  0
   37.7470   79.8230   55.5780 C   0  0  0  0  0  0  0  0  0  0  0  0
   37.0540   80.9570   55.0170 N   0  0  0  0  0  0  0  0  0  0  0  0
   38.3250   80.4060   57.4890 H   0  0  0  0  0  0  0  0  0  0  0  0
   36.3100   81.6700   54.8580 H   0  0  0  0  0  0  0  0  0  0  0  0
   37.4530   81.5560   54.2370 H   0  0  0  0  0  0  0  0  0  0  0  0
  1 12  1  0  0  0  0
  2  1  1  0  0  0  0
  2  7  1  0  0  0  0
  3  2  2  0  0  0  0
  4  5  2  0  0  0  0
  4  3  1  0  0  0  0
  5  6  1  0  0  0  0
  6  1  2  0  0  0  0
  8  3  1  0  0  0  0
  9 20  1  0  0  0  0
  9 10  2  0  0  0  0
 10 14  1  0  0  0  0
 11 15  1  0  0  0  0
 11 10  1  0  0  0  0
 12 11  2  0  0  0  0
 13 12  1  0  0  0  0
 13  9  1  0  0  0  0
 16 17  1  0  0  0  0
 17 18  2  0  0  0  0
 17 23  1  0  0  0  0
 18 24  1  0  0  0  0
 19 18  1  0  0  0  0
 20 19  2  0  0  0  0
 21 20  1  0  0  0  0
 21 16  2  0  0  0  0
 22 16  1  0  0  0  0
 25 26  2  0  0  0  0
 25  5  1  0  0  0  0
 27 28  1  0  0  0  0
 27 36  1  0  0  0  0
 28 25  1  0  0  0  0
 29 30  1  0  0  0  0
 29 28  2  0  0  0  0
 31 29  1  0  0  0  0
 32 31  1  0  0  0  0
 33 31  2  0  0  0  0
 33 34  1  0  0  0  0
 34 27  2  0  0  0  0
 35 38  1  0  0  0  0
 36 35  2  0  0  0  0
 37 36  1  0  0  0  0
 39 37  1  0  0  0  0
 40 37  1  0  0  0  0
M  END
>  <minimizedAffinity>
-7.13803053

>  <minimizedRMSD>
1.0067215

$$$$
