
 OpenBabel03212520553D

 40 43  0  0  0  0  0  0  0  0999 V2000
   39.7410   77.2020   59.2230 C   0  0  0  0  0  0  0  0  0  0  0  0
   40.4110   76.0430   59.0160 C   0  0  0  0  0  0  0  0  0  0  0  0
   39.8950   75.2950   57.9430 C   0  0  0  0  0  0  0  0  0  0  0  0
   38.8520   75.6730   57.1950 N   0  0  0  0  0  0  0  0  0  0  0  0
   38.2430   76.8500   57.4760 C   0  0  0  0  0  0  0  0  0  0  0  0
   38.6850   77.6330   58.5000 N   0  0  0  0  0  0  0  0  0  0  0  0
   41.2510   75.6860   59.5790 H   0  0  0  0  0  0  0  0  0  0  0  0
   40.3460   74.3410   57.6740 H   0  0  0  0  0  0  0  0  0  0  0  0
   40.8750   80.2480   61.6890 C   0  0  0  0  0  0  0  0  0  0  0  0
   40.8100   79.0330   62.3440 C   0  0  0  0  0  0  0  0  0  0  0  0
   40.4470   77.9460   61.6380 C   0  0  0  0  0  0  0  0  0  0  0  0
   40.1520   78.0760   60.2840 C   0  0  0  0  0  0  0  0  0  0  0  0
   40.4060   79.8910   59.9700 S   0  0  0  0  0  0  0  0  0  0  0  0
   41.0410   78.9330   63.4030 H   0  0  0  0  0  0  0  0  0  0  0  0
   40.3390   76.9220   61.9650 H   0  0  0  0  0  0  0  0  0  0  0  0
   42.9540   83.0560   62.8040 C   0  0  0  0  0  0  0  0  0  0  0  0
   42.0270   83.8710   63.5220 C   0  0  0  0  0  0  0  0  0  0  0  0
   40.7060   83.4470   63.6120 C   0  0  0  0  0  0  0  0  0  0  0  0
   40.3680   82.2760   63.0100 N   0  0  0  0  0  0  0  0  0  0  0  0
   41.2640   81.5300   62.3410 C   0  0  0  0  0  0  0  0  0  0  0  0
   42.5270   81.9170   62.2440 N   0  0  0  0  0  0  0  0  0  0  0  0
   43.9800   83.3690   62.7250 H   0  0  0  0  0  0  0  0  0  0  0  0
   42.3570   84.7980   63.9820 H   0  0  0  0  0  0  0  0  0  0  0  0
   39.9750   84.0340   64.1450 H   0  0  0  0  0  0  0  0  0  0  0  0
   37.1020   77.2760   56.6600 C   0  0  0  0  0  0  0  0  0  0  0  0
   35.9850   77.2990   57.2300 O   0  0  0  0  0  0  0  0  0  0  0  0
   37.9060   78.8340   54.9100 C   0  0  0  0  0  0  0  0  0  0  0  0
   37.5180   77.5950   55.3090 C   0  0  0  0  0  0  0  0  0  0  0  0
   37.5400   76.5990   54.3310 C   0  0  0  0  0  0  0  0  0  0  0  0
   37.2390   75.6070   54.6130 H   0  0  0  0  0  0  0  0  0  0  0  0
   37.9450   76.9370   53.0570 C   0  0  0  0  0  0  0  0  0  0  0  0
   37.9300   76.1030   52.3690 H   0  0  0  0  0  0  0  0  0  0  0  0
   38.3360   78.1970   52.6610 C   0  0  0  0  0  3  0  0  0  0  0  0
   38.3080   79.1570   53.6320 C   0  0  0  0  0  3  0  0  0  0  0  0
   38.3160   80.5980   56.8450 N   0  0  0  0  0  0  0  0  0  0  0  0
   37.9320   79.9520   55.8360 C   0  0  0  0  0  0  0  0  0  0  0  0
   37.0560   81.0770   55.6230 N   0  0  0  0  0  0  0  0  0  0  0  0
   39.0070   80.3920   57.5610 H   0  0  0  0  0  0  0  0  0  0  0  0
   36.2660   81.7440   55.7610 H   0  0  0  0  0  0  0  0  0  0  0  0
   37.1870   81.7770   54.8350 H   0  0  0  0  0  0  0  0  0  0  0  0
  1 12  1  0  0  0  0
  2  1  1  0  0  0  0
  2  7  1  0  0  0  0
  3  2  2  0  0  0  0
  4  5  2  0  0  0  0
  4  3  1  0  0  0  0
  5  6  1  0  0  0  0
  6  1  2  0  0  0  0
  8  3  1  0  0  0  0
  9 20  1  0  0  0  0
  9 10  2  0  0  0  0
 10 14  1  0  0  0  0
 11 15  1  0  0  0  0
 11 10  1  0  0  0  0
 12 11  2  0  0  0  0
 13 12  1  0  0  0  0
 13  9  1  0  0  0  0
 16 17  1  0  0  0  0
 17 18  2  0  0  0  0
 17 23  1  0  0  0  0
 18 24  1  0  0  0  0
 19 18  1  0  0  0  0
 20 19  2  0  0  0  0
 21 20  1  0  0  0  0
 21 16  2  0  0  0  0
 22 16  1  0  0  0  0
 25 26  2  0  0  0  0
 25  5  1  0  0  0  0
 27 28  1  0  0  0  0
 27 36  1  0  0  0  0
 28 25  1  0  0  0  0
 29 30  1  0  0  0  0
 29 28  2  0  0  0  0
 31 29  1  0  0  0  0
 32 31  1  0  0  0  0
 33 31  2  0  0  0  0
 33 34  1  0  0  0  0
 34 27  2  0  0  0  0
 35 38  1  0  0  0  0
 36 35  2  0  0  0  0
 37 39  1  0  0  0  0
 37 36  1  0  0  0  0
 40 37  1  0  0  0  0
M  END
>  <minimizedAffinity>
-7.05301666

>  <minimizedRMSD>
0.62707746

$$$$
