
 OpenBabel03212520323D

 44 48  0  0  0  0  0  0  0  0999 V2000
   42.8390   82.0800   62.5490 C   0  0  0  0  0  0  0  0  0  0  0  0
   43.4490   81.0460   61.8680 C   0  0  0  0  0  0  0  0  0  0  0  0
   44.8150   80.8590   61.9550 C   0  0  0  0  0  0  0  0  0  0  0  0
   45.6430   81.6780   62.7150 C   0  0  0  0  0  0  0  0  0  0  0  0
   45.0570   82.7130   63.4030 C   0  0  0  0  0  0  0  0  0  0  0  0
   43.6840   82.9060   63.3180 C   0  0  0  0  0  0  0  0  0  0  0  0
   45.2910   80.0500   61.4210 H   0  0  0  0  0  0  0  0  0  0  0  0
   46.7100   81.5010   62.7590 H   0  0  0  0  0  0  0  0  0  0  0  0
   45.6530   83.3740   64.0040 H   0  0  0  0  0  0  0  0  0  0  0  0
   43.2080   83.7240   63.8580 H   0  0  0  0  0  0  0  0  0  0  0  0
   41.5840   78.0760   60.7130 C   0  0  0  0  0  0  0  0  0  0  0  0
   41.2240   78.4450   59.4130 C   0  0  0  0  0  0  0  0  0  0  0  0
   41.6400   79.7060   58.9780 C   0  0  0  0  0  0  0  0  0  0  0  0
   42.3570   80.4890   59.8290 N   0  0  0  0  0  0  0  0  0  0  0  0
   42.6830   80.1160   61.0550 C   0  0  0  0  0  0  0  0  0  0  0  0
   42.2920   78.9040   61.4920 N   0  0  0  0  0  0  0  0  0  0  0  0
   41.2910   77.1160   61.1010 H   0  0  0  0  0  0  0  0  0  0  0  0
   41.3940   80.0420   57.9920 H   0  0  0  0  0  0  0  0  0  0  0  0
   40.4760   77.5690   58.5920 N   0  0  0  0  0  0  0  0  0  0  0  0
   39.1520   77.6850   58.7520 C   0  0  0  0  0  0  0  0  0  0  0  0
   38.3150   76.8700   57.9970 C   0  0  0  0  0  0  0  0  0  0  0  0
   38.8740   75.9710   57.1060 C   0  0  0  0  0  0  0  0  0  0  0  0
   38.2450   75.1780   56.3640 O   0  0  0  0  0  0  0  0  0  0  0  0
   40.2390   75.9140   57.0000 N   0  0  0  0  0  0  0  0  0  0  0  0
   41.0550   76.7130   57.7420 C   0  0  0  0  0  0  0  0  0  0  0  0
   42.2930   76.6680   57.6510 O   0  0  0  0  0  0  0  0  0  0  0  0
   38.6680   78.3720   59.4340 H   0  0  0  0  0  0  0  0  0  0  0  0
   37.2370   76.8960   58.0620 H   0  0  0  0  0  0  0  0  0  0  0  0
   40.7690   75.2650   56.3520 H   0  0  0  0  0  0  0  0  0  0  0  0
   41.1350   82.3530   62.4550 S   0  0  0  0  0  0  0  0  0  0  0  0
   40.6150   82.8570   63.7750 O   0  0  0  0  0  0  0  0  0  0  0  0
   40.4740   80.9900   62.2900 O   0  0  0  0  0  0  0  0  0  0  0  0
   38.6470   83.9480   61.4510 H   0  0  0  0  0  0  0  0  0  0  0  0
   39.4940   84.1220   60.8710 N   0  0  0  0  0  0  0  0  0  0  0  0
   40.6190   83.4560   61.2350 C   0  0  0  0  0  0  0  0  0  0  0  0
   41.5690   83.8470   60.3340 N   0  0  0  0  0  0  0  0  0  0  0  0
   41.0510   84.7050   59.4690 C   0  0  0  0  0  0  0  0  0  0  0  0
   41.4550   85.4390   58.3670 C   0  0  0  0  0  0  0  0  0  0  0  0
   42.4950   85.3420   58.0490 H   0  0  0  0  0  0  0  0  0  0  0  0
   40.6310   86.2660   57.6720 N   0  0  0  0  0  0  0  0  0  0  0  0
   39.3480   86.4110   58.0340 C   0  0  0  0  0  0  0  0  0  0  0  0
   38.5770   87.0170   57.5960 H   0  0  0  0  0  0  0  0  0  0  0  0
   38.9000   85.7080   59.1160 N   0  0  0  0  0  0  0  0  0  0  0  0
   39.7260   84.8910   59.7970 C   0  0  0  0  0  0  0  0  0  0  0  0
  1  6  1  0  0  0  0
  2  3  1  0  0  0  0
  2  1  2  0  0  0  0
  3  4  2  0  0  0  0
  4  8  1  0  0  0  0
  4  5  1  0  0  0  0
  5  9  1  0  0  0  0
  6  5  2  0  0  0  0
  6 10  1  0  0  0  0
  7  3  1  0  0  0  0
 11 17  1  0  0  0  0
 11 16  1  0  0  0  0
 12 11  2  0  0  0  0
 13 12  1  0  0  0  0
 13 14  2  0  0  0  0
 14 15  1  0  0  0  0
 15 16  2  0  0  0  0
 15  2  1  0  0  0  0
 18 13  1  0  0  0  0
 19 20  1  0  0  0  0
 19 12  1  0  0  0  0
 20 27  1  0  0  0  0
 21 28  1  0  0  0  0
 21 20  2  0  0  0  0
 22 21  1  0  0  0  0
 23 22  2  0  0  0  0
 24 22  1  0  0  0  0
 24 25  1  0  0  0  0
 25 19  1  0  0  0  0
 26 25  2  0  0  0  0
 29 24  1  0  0  0  0
 30  1  1  0  0  0  0
 30 31  2  0  0  0  0
 32 30  2  0  0  0  0
 34 35  1  0  0  0  0
 34 33  1  0  0  0  0
 35 30  1  0  0  0  0
 36 35  2  0  0  0  0
 37 44  1  0  0  0  0
 37 36  1  0  0  0  0
 38 37  2  0  0  0  0
 39 38  1  0  0  0  0
 40 41  2  0  0  0  0
 40 38  1  0  0  0  0
 41 43  1  0  0  0  0
 42 41  1  0  0  0  0
 43 44  2  0  0  0  0
 44 34  1  0  0  0  0
M  END
>  <minimizedAffinity>
-7.16438389

>  <minimizedRMSD>
2.80533051

$$$$
