
 OpenBabel03212520313D

 44 48  0  0  0  0  0  0  0  0999 V2000
   42.8680   82.1190   62.5620 C   0  0  0  0  0  0  0  0  0  0  0  0
   43.4650   81.0900   61.8620 C   0  0  0  0  0  0  0  0  0  0  0  0
   44.8310   80.8940   61.9340 C   0  0  0  0  0  0  0  0  0  0  0  0
   45.6700   81.6980   62.6980 C   0  0  0  0  0  0  0  0  0  0  0  0
   45.0970   82.7270   63.4040 C   0  0  0  0  0  0  0  0  0  0  0  0
   43.7240   82.9290   63.3340 C   0  0  0  0  0  0  0  0  0  0  0  0
   45.2960   80.0890   61.3850 H   0  0  0  0  0  0  0  0  0  0  0  0
   46.7360   81.5130   62.7300 H   0  0  0  0  0  0  0  0  0  0  0  0
   45.7020   83.3750   64.0090 H   0  0  0  0  0  0  0  0  0  0  0  0
   43.2580   83.7420   63.8900 H   0  0  0  0  0  0  0  0  0  0  0  0
   41.6140   78.1280   60.6660 C   0  0  0  0  0  0  0  0  0  0  0  0
   41.1980   78.5370   59.3960 C   0  0  0  0  0  0  0  0  0  0  0  0
   41.5720   79.8220   58.9930 C   0  0  0  0  0  0  0  0  0  0  0  0
   42.3060   80.5870   59.8450 N   0  0  0  0  0  0  0  0  0  0  0  0
   42.6860   80.1760   61.0440 C   0  0  0  0  0  0  0  0  0  0  0  0
   42.3350   78.9400   61.4490 N   0  0  0  0  0  0  0  0  0  0  0  0
   41.3540   77.1480   61.0280 H   0  0  0  0  0  0  0  0  0  0  0  0
   41.2830   80.1890   58.0310 H   0  0  0  0  0  0  0  0  0  0  0  0
   40.4350   77.6780   58.5700 N   0  0  0  0  0  0  0  0  0  0  0  0
   39.1820   77.4920   59.0020 C   0  0  0  0  0  0  0  0  0  0  0  0
   38.3390   76.6620   58.2700 C   0  0  0  0  0  0  0  0  0  0  0  0
   38.8200   76.0590   57.1210 C   0  0  0  0  0  0  0  0  0  0  0  0
   38.1760   75.2900   56.3670 O   0  0  0  0  0  0  0  0  0  0  0  0
   40.1150   76.2990   56.7460 N   0  0  0  0  0  0  0  0  0  0  0  0
   40.9370   77.1120   57.4660 C   0  0  0  0  0  0  0  0  0  0  0  0
   42.1120   77.3360   57.1310 O   0  0  0  0  0  0  0  0  0  0  0  0
   38.7600   77.9420   59.8920 H   0  0  0  0  0  0  0  0  0  0  0  0
   37.3150   76.4570   58.5450 H   0  0  0  0  0  0  0  0  0  0  0  0
   40.5820   75.8900   55.8880 H   0  0  0  0  0  0  0  0  0  0  0  0
   41.1640   82.4020   62.4860 S   0  0  0  0  0  0  0  0  0  0  0  0
   40.6660   82.9300   63.8060 O   0  0  0  0  0  0  0  0  0  0  0  0
   40.4910   81.0420   62.3520 O   0  0  0  0  0  0  0  0  0  0  0  0
   38.6560   83.9420   61.4490 H   0  0  0  0  0  0  0  0  0  0  0  0
   39.5060   84.1320   60.8780 N   0  0  0  0  0  0  0  0  0  0  0  0
   40.6400   83.4910   61.2570 C   0  0  0  0  0  0  0  0  0  0  0  0
   41.5910   83.9000   60.3660 N   0  0  0  0  0  0  0  0  0  0  0  0
   41.0660   84.7440   59.4920 C   0  0  0  0  0  0  0  0  0  0  0  0
   41.4680   85.4830   58.3940 C   0  0  0  0  0  0  0  0  0  0  0  0
   42.5140   85.4060   58.0870 H   0  0  0  0  0  0  0  0  0  0  0  0
   40.6350   86.2890   57.6860 N   0  0  0  0  0  0  0  0  0  0  0  0
   39.3450   86.4080   58.0320 C   0  0  0  0  0  0  0  0  0  0  0  0
   38.5680   86.9970   57.5830 H   0  0  0  0  0  0  0  0  0  0  0  0
   38.9000   85.7000   59.1110 N   0  0  0  0  0  0  0  0  0  0  0  0
   39.7340   84.9030   59.8050 C   0  0  0  0  0  0  0  0  0  0  0  0
  1  6  1  0  0  0  0
  2  3  1  0  0  0  0
  2  1  2  0  0  0  0
  3  4  2  0  0  0  0
  4  8  1  0  0  0  0
  4  5  1  0  0  0  0
  5  9  1  0  0  0  0
  6  5  2  0  0  0  0
  6 10  1  0  0  0  0
  7  3  1  0  0  0  0
 11 17  1  0  0  0  0
 11 16  1  0  0  0  0
 12 11  2  0  0  0  0
 13 12  1  0  0  0  0
 13 14  2  0  0  0  0
 14 15  1  0  0  0  0
 15 16  2  0  0  0  0
 15  2  1  0  0  0  0
 18 13  1  0  0  0  0
 19 20  1  0  0  0  0
 19 12  1  0  0  0  0
 20 27  1  0  0  0  0
 21 28  1  0  0  0  0
 21 20  2  0  0  0  0
 22 21  1  0  0  0  0
 23 22  2  0  0  0  0
 24 22  1  0  0  0  0
 24 25  1  0  0  0  0
 25 19  1  0  0  0  0
 26 25  2  0  0  0  0
 29 24  1  0  0  0  0
 30  1  1  0  0  0  0
 30 31  2  0  0  0  0
 32 30  2  0  0  0  0
 34 35  1  0  0  0  0
 34 33  1  0  0  0  0
 35 30  1  0  0  0  0
 36 35  2  0  0  0  0
 37 44  1  0  0  0  0
 37 36  1  0  0  0  0
 38 37  2  0  0  0  0
 39 38  1  0  0  0  0
 40 41  2  0  0  0  0
 40 38  1  0  0  0  0
 41 43  1  0  0  0  0
 42 41  1  0  0  0  0
 43 44  2  0  0  0  0
 44 34  1  0  0  0  0
M  END
>  <minimizedAffinity>
-7.17580318

>  <minimizedRMSD>
2.73975396

$$$$
