
 OpenBabel03212520323D

 44 48  0  0  0  0  0  0  0  0999 V2000
   43.5870   81.9770   62.5990 C   0  0  0  0  0  0  0  0  0  0  0  0
   44.0410   80.8050   62.0280 C   0  0  0  0  0  0  0  0  0  0  0  0
   45.3460   80.3920   62.2190 C   0  0  0  0  0  0  0  0  0  0  0  0
   46.2610   81.1100   62.9810 C   0  0  0  0  0  0  0  0  0  0  0  0
   45.8300   82.2790   63.5600 C   0  0  0  0  0  0  0  0  0  0  0  0
   44.5200   82.6990   63.3690 C   0  0  0  0  0  0  0  0  0  0  0  0
   45.6990   79.4760   61.7710 H   0  0  0  0  0  0  0  0  0  0  0  0
   47.2760   80.7550   63.1090 H   0  0  0  0  0  0  0  0  0  0  0  0
   46.4990   82.8690   64.1570 H   0  0  0  0  0  0  0  0  0  0  0  0
   44.1670   83.6240   63.8240 H   0  0  0  0  0  0  0  0  0  0  0  0
   41.7720   78.1070   60.9320 C   0  0  0  0  0  0  0  0  0  0  0  0
   41.5290   78.4540   59.5990 C   0  0  0  0  0  0  0  0  0  0  0  0
   42.1590   79.6070   59.1220 C   0  0  0  0  0  0  0  0  0  0  0  0
   42.9570   80.3130   59.9670 N   0  0  0  0  0  0  0  0  0  0  0  0
   43.1690   79.9640   61.2250 C   0  0  0  0  0  0  0  0  0  0  0  0
   42.5710   78.8550   61.7020 N   0  0  0  0  0  0  0  0  0  0  0  0
   41.3120   77.2290   61.3510 H   0  0  0  0  0  0  0  0  0  0  0  0
   42.0100   79.9210   58.1100 H   0  0  0  0  0  0  0  0  0  0  0  0
   40.6830   77.6630   58.7860 N   0  0  0  0  0  0  0  0  0  0  0  0
   39.4150   78.0890   58.7570 C   0  0  0  0  0  0  0  0  0  0  0  0
   38.4910   77.3850   57.9910 C   0  0  0  0  0  0  0  0  0  0  0  0
   38.9110   76.2720   57.2840 C   0  0  0  0  0  0  0  0  0  0  0  0
   38.1920   75.5450   56.5560 O   0  0  0  0  0  0  0  0  0  0  0  0
   40.2270   75.9010   57.3660 N   0  0  0  0  0  0  0  0  0  0  0  0
   41.1280   76.5920   58.1170 C   0  0  0  0  0  0  0  0  0  0  0  0
   42.3230   76.2610   58.1950 O   0  0  0  0  0  0  0  0  0  0  0  0
   39.0390   78.9520   59.2910 H   0  0  0  0  0  0  0  0  0  0  0  0
   37.4500   77.6580   57.9110 H   0  0  0  0  0  0  0  0  0  0  0  0
   40.6530   75.0690   56.8670 H   0  0  0  0  0  0  0  0  0  0  0  0
   41.9650   82.5310   62.3720 S   0  0  0  0  0  0  0  0  0  0  0  0
   41.5260   83.3530   63.5560 O   0  0  0  0  0  0  0  0  0  0  0  0
   41.0640   81.3040   62.4150 O   0  0  0  0  0  0  0  0  0  0  0  0
   43.2130   83.2740   59.6090 H   0  0  0  0  0  0  0  0  0  0  0  0
   42.2920   83.7320   59.7680 N   0  0  0  0  0  0  0  0  0  0  0  0
   41.6870   83.4690   60.9530 C   0  0  0  0  0  0  0  0  0  0  0  0
   40.5170   84.1760   60.9170 N   0  0  0  0  0  0  0  0  0  0  0  0
   40.4170   84.8340   59.7730 C   0  0  0  0  0  0  0  0  0  0  0  0
   39.5280   85.6870   59.1410 C   0  0  0  0  0  0  0  0  0  0  0  0
   38.6110   85.9470   59.6740 H   0  0  0  0  0  0  0  0  0  0  0  0
   39.7380   86.2090   57.9050 N   0  0  0  0  0  0  0  0  0  0  0  0
   40.8530   85.9100   57.2200 C   0  0  0  0  0  0  0  0  0  0  0  0
   41.1640   86.2370   56.2460 H   0  0  0  0  0  0  0  0  0  0  0  0
   41.7610   85.0730   57.8010 N   0  0  0  0  0  0  0  0  0  0  0  0
   41.5420   84.5610   59.0260 C   0  0  0  0  0  0  0  0  0  0  0  0
  1  6  1  0  0  0  0
  2  3  1  0  0  0  0
  2  1  2  0  0  0  0
  3  4  2  0  0  0  0
  4  8  1  0  0  0  0
  4  5  1  0  0  0  0
  5  9  1  0  0  0  0
  6  5  2  0  0  0  0
  6 10  1  0  0  0  0
  7  3  1  0  0  0  0
 11 17  1  0  0  0  0
 11 16  1  0  0  0  0
 12 11  2  0  0  0  0
 13 12  1  0  0  0  0
 13 14  2  0  0  0  0
 14 15  1  0  0  0  0
 15 16  2  0  0  0  0
 15  2  1  0  0  0  0
 18 13  1  0  0  0  0
 19 12  1  0  0  0  0
 20 19  1  0  0  0  0
 20 27  1  0  0  0  0
 21 20  2  0  0  0  0
 22 24  1  0  0  0  0
 22 21  1  0  0  0  0
 23 22  2  0  0  0  0
 24 25  1  0  0  0  0
 25 26  2  0  0  0  0
 25 19  1  0  0  0  0
 28 21  1  0  0  0  0
 29 24  1  0  0  0  0
 30 32  2  0  0  0  0
 30  1  1  0  0  0  0
 30 31  2  0  0  0  0
 33 34  1  0  0  0  0
 34 35  1  0  0  0  0
 35 30  1  0  0  0  0
 36 35  2  0  0  0  0
 37 36  1  0  0  0  0
 38 39  1  0  0  0  0
 38 37  1  0  0  0  0
 40 38  2  0  0  0  0
 41 43  2  0  0  0  0
 41 40  1  0  0  0  0
 42 41  1  0  0  0  0
 43 44  1  0  0  0  0
 44 34  1  0  0  0  0
 44 37  2  0  0  0  0
M  END
>  <minimizedAffinity>
-6.17025232

>  <minimizedRMSD>
3.10235977

$$$$
