
 OpenBabel03212520353D

 39 43  0  0  0  0  0  0  0  0999 V2000
   39.6950   83.8550   60.8970 C   0  0  0  0  0  0  0  0  0  0  0  0
   40.9710   84.0390   60.3270 C   0  0  0  0  0  0  0  0  0  0  0  0
   42.1100   84.1910   61.1950 C   0  0  0  0  0  0  0  0  0  0  0  0
   41.8830   84.1470   62.5390 N   0  0  0  0  0  0  0  0  0  0  0  0
   40.6010   83.9600   63.0400 C   0  0  0  0  0  0  0  0  0  0  0  0
   39.5240   83.8150   62.2130 N   0  0  0  0  0  0  0  0  0  0  0  0
   38.8160   83.8170   60.3180 H   0  0  0  0  0  0  0  0  0  0  0  0
   43.1410   84.3250   60.9870 H   0  0  0  0  0  0  0  0  0  0  0  0
   41.3370   84.1280   58.9270 C   0  0  0  0  0  0  0  0  0  0  0  0
   41.4800   85.4420   58.4470 C   0  0  0  0  0  0  0  0  0  0  0  0
   41.7390   85.7610   57.1470 C   0  0  0  0  0  0  0  0  0  0  0  0
   41.8730   84.7440   56.2170 C   0  0  0  0  0  0  0  0  0  0  0  0
   41.7380   83.4400   56.6620 C   0  0  0  0  0  0  0  0  0  0  0  0
   41.8530   82.3600   55.8250 C   0  0  0  0  0  0  0  0  0  0  0  0
   41.7210   81.0670   56.2900 C   0  0  0  0  0  0  0  0  0  0  0  0
   41.4710   80.7990   57.6160 C   0  0  0  0  0  0  0  0  0  0  0  0
   41.3520   81.8810   58.4710 C   0  0  0  0  0  0  0  0  0  0  0  0
   41.4790   83.1350   57.9870 C   0  0  0  0  0  0  0  0  0  0  0  0
   41.4010   86.3650   59.0060 H   0  0  0  0  0  0  0  0  0  0  0  0
   41.8570   86.7400   56.7190 H   0  0  0  0  0  0  0  0  0  0  0  0
   42.0760   84.8810   55.1540 H   0  0  0  0  0  0  0  0  0  0  0  0
   42.0550   82.5900   54.7730 H   0  0  0  0  0  0  0  0  0  0  0  0
   41.8350   80.3150   55.5100 H   0  0  0  0  0  0  0  0  0  0  0  0
   41.3900   79.7690   57.8630 H   0  0  0  0  0  0  0  0  0  0  0  0
   41.2330   81.5310   59.4650 H   0  0  0  0  0  0  0  0  0  0  0  0
   40.3180   83.9310   64.4830 C   0  0  0  0  0  0  0  0  0  0  0  0
   40.6040   82.9090   65.1340 O   0  0  0  0  0  0  0  0  0  0  0  0
   40.9530   86.7510   64.4180 H   0  0  0  0  0  0  0  0  0  0  0  0
   40.1520   86.3560   64.9770 N   0  0  0  0  0  0  0  0  0  0  0  0
   39.7110   85.0940   65.1270 C   0  0  0  0  0  0  0  0  0  0  0  0
   38.6440   85.0710   65.9470 N   0  0  0  0  0  0  0  0  0  0  0  0
   38.3520   86.3200   66.3610 C   0  0  0  0  0  0  0  0  0  0  0  0
   37.4030   86.8800   67.1780 C   0  0  0  0  0  0  0  0  0  0  0  0
   36.6950   86.1660   67.6170 H   0  0  0  0  0  0  0  0  0  0  0  0
   37.4080   88.2180   67.3760 N   0  0  0  0  0  0  0  0  0  0  0  0
   38.3640   88.9620   66.7500 C   0  0  0  0  0  0  0  0  0  0  0  0
   38.2300   90.0200   67.0130 H   0  0  0  0  0  0  0  0  0  0  0  0
   39.3150   88.4430   65.9380 N   0  0  0  0  0  0  0  0  0  0  0  0
   39.3130   87.0980   65.7360 C   0  0  0  0  0  0  0  0  0  0  0  0
  1  6  1  0  0  0  0
  2  1  2  0  0  0  0
  2  3  1  0  0  0  0
  3  4  2  0  0  0  0
  4  5  1  0  0  0  0
  5 26  1  0  0  0  0
  6  5  2  0  0  0  0
  7  1  1  0  0  0  0
  8  3  1  0  0  0  0
  9  2  1  0  0  0  0
 10  9  1  0  0  0  0
 10 19  1  0  0  0  0
 11 10  2  0  0  0  0
 12 13  2  0  0  0  0
 12 11  1  0  0  0  0
 13 18  1  0  0  0  0
 14 15  2  0  0  0  0
 14 13  1  0  0  0  0
 15 16  1  0  0  0  0
 16 24  1  0  0  0  0
 16 17  2  0  0  0  0
 17 25  1  0  0  0  0
 18 17  1  0  0  0  0
 18  9  2  0  0  0  0
 20 11  1  0  0  0  0
 21 12  1  0  0  0  0
 22 14  1  0  0  0  0
 23 15  1  0  0  0  0
 26 30  1  0  0  0  0
 26 27  2  0  0  0  0
 28 29  1  0  0  0  0
 29 30  1  0  0  0  0
 29 39  1  0  0  0  0
 30 31  2  0  0  0  0
 31 32  1  0  0  0  0
 32 33  1  0  0  0  0
 33 35  2  0  0  0  0
 33 34  1  0  0  0  0
 36 37  1  0  0  0  0
 36 35  1  0  0  0  0
 38 36  2  0  0  0  0
 39 38  1  0  0  0  0
 39 32  2  0  0  0  0
M  END
>  <minimizedAffinity>
3.79075646

>  <minimizedRMSD>
1.5129317

$$$$
