
 OpenBabel03212520303D

 31 34  0  0  0  0  0  0  0  0999 V2000
   41.2990   72.6200   62.2330 C   0  0  0  0  0  0  0  0  0  0  0  0
   41.0600   72.8430   60.8650 C   0  0  0  0  0  0  0  0  0  0  0  0
   41.3320   71.7950   59.9690 C   0  0  0  0  0  0  0  0  0  0  0  0
   41.8090   70.6270   60.4860 N   0  0  0  0  0  0  0  0  0  0  0  0
   42.0230   70.4560   61.7990 C   0  0  0  0  0  0  0  0  0  0  0  0
   41.7690   71.4490   62.6690 N   0  0  0  0  0  0  0  0  0  0  0  0
   41.0920   73.4280   62.9330 H   0  0  0  0  0  0  0  0  0  0  0  0
   41.1580   71.9340   58.9060 H   0  0  0  0  0  0  0  0  0  0  0  0
   42.5240   69.1980   62.2340 N   0  0  0  0  0  0  0  0  0  0  0  0
   43.4440   69.1300   63.2270 C   0  0  0  0  0  0  0  0  0  0  0  0
   43.9310   69.9040   63.8210 H   0  0  0  0  0  0  0  0  0  0  0  0
   43.7450   67.8280   63.4410 N   0  0  0  0  0  0  0  0  0  0  0  0
   43.0230   67.0520   62.5910 C   0  0  0  0  0  0  0  0  0  0  0  0
   42.9130   65.6830   62.3530 C   0  0  0  0  0  0  0  0  0  0  0  0
   43.5370   65.0290   62.9750 H   0  0  0  0  0  0  0  0  0  0  0  0
   42.0610   65.2570   61.3920 N   0  0  0  0  0  0  0  0  0  0  0  0
   41.3410   66.1760   60.6900 C   0  0  0  0  0  0  0  0  0  0  0  0
   40.7110   65.6800   59.9630 H   0  0  0  0  0  0  0  0  0  0  0  0
   41.4300   67.5160   60.9010 N   0  0  0  0  0  0  0  0  0  0  0  0
   42.2770   67.9380   61.8580 C   0  0  0  0  0  0  0  0  0  0  0  0
   40.5620   74.0930   60.4230 N   0  0  0  0  0  0  0  0  0  0  0  0
   41.4790   74.8310   59.7750 C   0  0  0  0  0  0  0  0  0  0  0  0
   41.1010   76.0880   59.2920 C   0  0  0  0  0  0  0  0  0  0  0  0
   39.7860   76.5340   59.5000 C   0  0  0  0  0  0  0  0  0  0  0  0
   39.3700   77.6400   59.1020 O   0  0  0  0  0  0  0  0  0  0  0  0
   38.9350   75.7190   60.1650 N   0  0  0  0  0  0  0  0  0  0  0  0
   39.3020   74.4930   60.6350 C   0  0  0  0  0  0  0  0  0  0  0  0
   38.5100   73.7480   61.2470 O   0  0  0  0  0  0  0  0  0  0  0  0
   42.5080   74.5220   59.5940 H   0  0  0  0  0  0  0  0  0  0  0  0
   41.7930   76.7260   58.7640 H   0  0  0  0  0  0  0  0  0  0  0  0
   37.9440   76.0460   60.3250 H   0  0  0  0  0  0  0  0  0  0  0  0
  1  6  1  0  0  0  0
  1  7  1  0  0  0  0
  2  1  2  0  0  0  0
  3  4  2  0  0  0  0
  3  2  1  0  0  0  0
  4  5  1  0  0  0  0
  5  9  1  0  0  0  0
  5  6  2  0  0  0  0
  8  3  1  0  0  0  0
  9 10  1  0  0  0  0
 10 12  2  0  0  0  0
 10 11  1  0  0  0  0
 13 12  1  0  0  0  0
 14 13  1  0  0  0  0
 14 15  1  0  0  0  0
 16 14  2  0  0  0  0
 17 19  2  0  0  0  0
 17 16  1  0  0  0  0
 18 17  1  0  0  0  0
 19 20  1  0  0  0  0
 20  9  1  0  0  0  0
 20 13  2  0  0  0  0
 21 27  1  0  0  0  0
 21  2  1  0  0  0  0
 22 21  1  0  0  0  0
 23 24  1  0  0  0  0
 23 22  2  0  0  0  0
 24 26  1  0  0  0  0
 25 24  2  0  0  0  0
 26 31  1  0  0  0  0
 26 27  1  0  0  0  0
 27 28  2  0  0  0  0
 29 22  1  0  0  0  0
 30 23  1  0  0  0  0
M  END
>  <minimizedAffinity>
-6.88249826

$$$$

 OpenBabel03212520303D

 31 34  0  0  0  0  0  0  0  0999 V2000
   42.1720   73.5440   59.7570 C   0  0  0  0  0  0  0  0  0  0  0  0
   41.3080   72.6220   60.3750 C   0  0  0  0  0  0  0  0  0  0  0  0
   39.9250   72.8480   60.2790 C   0  0  0  0  0  0  0  0  0  0  0  0
   39.5090   73.9480   59.5910 N   0  0  0  0  0  0  0  0  0  0  0  0
   40.3660   74.8040   59.0150 C   0  0  0  0  0  0  0  0  0  0  0  0
   41.6930   74.6020   59.0980 N   0  0  0  0  0  0  0  0  0  0  0  0
   43.2450   73.3760   59.8270 H   0  0  0  0  0  0  0  0  0  0  0  0
   39.2310   72.1540   60.7450 H   0  0  0  0  0  0  0  0  0  0  0  0
   39.8270   75.9220   58.3210 N   0  0  0  0  0  0  0  0  0  0  0  0
   40.4310   77.1330   58.3940 C   0  0  0  0  0  0  0  0  0  0  0  0
   41.3250   77.4700   58.9200 H   0  0  0  0  0  0  0  0  0  0  0  0
   39.7190   78.0100   57.6480 N   0  0  0  0  0  0  0  0  0  0  0  0
   38.6570   77.3710   57.0920 C   0  0  0  0  0  0  0  0  0  0  0  0
   37.6060   77.7440   56.2550 C   0  0  0  0  0  0  0  0  0  0  0  0
   37.5840   78.7940   55.9390 H   0  0  0  0  0  0  0  0  0  0  0  0
   36.7000   76.8050   55.8930 N   0  0  0  0  0  0  0  0  0  0  0  0
   36.8430   75.5330   56.3570 C   0  0  0  0  0  0  0  0  0  0  0  0
   36.0440   74.9070   55.9800 H   0  0  0  0  0  0  0  0  0  0  0  0
   37.8580   75.1440   57.1740 N   0  0  0  0  0  0  0  0  0  0  0  0
   38.7580   76.0770   57.5320 C   0  0  0  0  0  0  0  0  0  0  0  0
   41.8370   71.5060   61.0690 N   0  0  0  0  0  0  0  0  0  0  0  0
   41.9460   70.4070   60.3040 C   0  0  0  0  0  0  0  0  0  0  0  0
   42.4570   69.2410   60.8830 C   0  0  0  0  0  0  0  0  0  0  0  0
   42.8370   69.2580   62.2350 C   0  0  0  0  0  0  0  0  0  0  0  0
   43.3010   68.2630   62.8250 O   0  0  0  0  0  0  0  0  0  0  0  0
   42.6890   70.4130   62.9240 N   0  0  0  0  0  0  0  0  0  0  0  0
   42.1910   71.5510   62.3590 C   0  0  0  0  0  0  0  0  0  0  0  0
   42.0590   72.6120   63.0020 O   0  0  0  0  0  0  0  0  0  0  0  0
   41.6630   70.3530   59.2540 H   0  0  0  0  0  0  0  0  0  0  0  0
   42.5680   68.3280   60.3200 H   0  0  0  0  0  0  0  0  0  0  0  0
   42.9720   70.4360   63.9400 H   0  0  0  0  0  0  0  0  0  0  0  0
  1  7  1  0  0  0  0
  1  2  1  0  0  0  0
  2 21  1  0  0  0  0
  3  2  2  0  0  0  0
  3  8  1  0  0  0  0
  4  3  1  0  0  0  0
  5  6  1  0  0  0  0
  5  4  2  0  0  0  0
  6  1  2  0  0  0  0
  9 10  1  0  0  0  0
  9  5  1  0  0  0  0
 10 11  1  0  0  0  0
 12 10  2  0  0  0  0
 13 20  1  0  0  0  0
 13 12  1  0  0  0  0
 14 13  2  0  0  0  0
 15 14  1  0  0  0  0
 16 14  1  0  0  0  0
 16 17  2  0  0  0  0
 17 19  1  0  0  0  0
 18 17  1  0  0  0  0
 19 20  2  0  0  0  0
 20  9  1  0  0  0  0
 21 27  1  0  0  0  0
 22 23  2  0  0  0  0
 22 21  1  0  0  0  0
 23 24  1  0  0  0  0
 24 25  2  0  0  0  0
 24 26  1  0  0  0  0
 26 31  1  0  0  0  0
 27 26  1  0  0  0  0
 27 28  2  0  0  0  0
 29 22  1  0  0  0  0
 30 23  1  0  0  0  0
M  END
>  <minimizedAffinity>
-6.38550186

$$$$

 OpenBabel03212520303D

 31 34  0  0  0  0  0  0  0  0999 V2000
   38.7340   74.0930   59.8600 C   0  0  0  0  0  0  0  0  0  0  0  0
   39.1830   74.3130   58.5450 C   0  0  0  0  0  0  0  0  0  0  0  0
   40.3790   73.6940   58.1450 C   0  0  0  0  0  0  0  0  0  0  0  0
   41.0270   72.9160   59.0570 N   0  0  0  0  0  0  0  0  0  0  0  0
   40.5630   72.7300   60.3020 C   0  0  0  0  0  0  0  0  0  0  0  0
   39.4210   73.3170   60.7020 N   0  0  0  0  0  0  0  0  0  0  0  0
   37.8090   74.5700   60.1780 H   0  0  0  0  0  0  0  0  0  0  0  0
   40.7530   73.8440   57.1350 H   0  0  0  0  0  0  0  0  0  0  0  0
   41.3170   71.9000   61.1770 N   0  0  0  0  0  0  0  0  0  0  0  0
   41.4470   72.2210   62.4870 C   0  0  0  0  0  0  0  0  0  0  0  0
   41.0640   73.0570   63.0730 H   0  0  0  0  0  0  0  0  0  0  0  0
   42.2050   71.2710   63.0850 N   0  0  0  0  0  0  0  0  0  0  0  0
   42.5660   70.3370   62.1660 C   0  0  0  0  0  0  0  0  0  0  0  0
   43.3210   69.1660   62.1910 C   0  0  0  0  0  0  0  0  0  0  0  0
   43.7480   68.8820   63.1610 H   0  0  0  0  0  0  0  0  0  0  0  0
   43.4730   68.4660   61.0420 N   0  0  0  0  0  0  0  0  0  0  0  0
   42.8870   68.9280   59.9020 C   0  0  0  0  0  0  0  0  0  0  0  0
   43.1010   68.2630   59.0770 H   0  0  0  0  0  0  0  0  0  0  0  0
   42.1470   70.0690   59.8510 N   0  0  0  0  0  0  0  0  0  0  0  0
   41.9960   70.7610   60.9940 C   0  0  0  0  0  0  0  0  0  0  0  0
   38.4390   75.1410   57.6690 N   0  0  0  0  0  0  0  0  0  0  0  0
   37.5560   74.4610   56.9180 C   0  0  0  0  0  0  0  0  0  0  0  0
   36.7630   75.1740   56.0130 C   0  0  0  0  0  0  0  0  0  0  0  0
   36.9150   76.5670   55.9200 C   0  0  0  0  0  0  0  0  0  0  0  0
   36.2480   77.2740   55.1400 O   0  0  0  0  0  0  0  0  0  0  0  0
   37.8320   77.1620   56.7180 N   0  0  0  0  0  0  0  0  0  0  0  0
   38.6050   76.4670   57.6010 C   0  0  0  0  0  0  0  0  0  0  0  0
   39.4470   77.0250   58.3320 O   0  0  0  0  0  0  0  0  0  0  0  0
   37.4080   73.3820   56.9610 H   0  0  0  0  0  0  0  0  0  0  0  0
   36.0370   74.6830   55.3840 H   0  0  0  0  0  0  0  0  0  0  0  0
   37.9530   78.2080   56.6550 H   0  0  0  0  0  0  0  0  0  0  0  0
  1  7  1  0  0  0  0
  1  6  1  0  0  0  0
  2  1  2  0  0  0  0
  3  2  1  0  0  0  0
  3  4  2  0  0  0  0
  4  5  1  0  0  0  0
  5  6  2  0  0  0  0
  5  9  1  0  0  0  0
  8  3  1  0  0  0  0
  9 10  1  0  0  0  0
 10 11  1  0  0  0  0
 10 12  2  0  0  0  0
 13 14  1  0  0  0  0
 13 12  1  0  0  0  0
 14 15  1  0  0  0  0
 16 14  2  0  0  0  0
 17 16  1  0  0  0  0
 18 17  1  0  0  0  0
 19 17  2  0  0  0  0
 19 20  1  0  0  0  0
 20  9  1  0  0  0  0
 20 13  2  0  0  0  0
 21  2  1  0  0  0  0
 22 29  1  0  0  0  0
 22 21  1  0  0  0  0
 23 22  2  0  0  0  0
 24 23  1  0  0  0  0
 24 26  1  0  0  0  0
 25 24  2  0  0  0  0
 26 27  1  0  0  0  0
 27 21  1  0  0  0  0
 27 28  2  0  0  0  0
 30 23  1  0  0  0  0
 31 26  1  0  0  0  0
M  END
>  <minimizedAffinity>
-6.35740042

$$$$

 OpenBabel03212520303D

 31 34  0  0  0  0  0  0  0  0999 V2000
   41.9720   73.4830   59.7290 C   0  0  0  0  0  0  0  0  0  0  0  0
   41.0760   72.5870   60.3410 C   0  0  0  0  0  0  0  0  0  0  0  0
   39.7010   72.8520   60.2310 C   0  0  0  0  0  0  0  0  0  0  0  0
   39.3220   73.9610   59.5360 N   0  0  0  0  0  0  0  0  0  0  0  0
   40.2090   74.7900   58.9650 C   0  0  0  0  0  0  0  0  0  0  0  0
   41.5290   74.5520   59.0610 N   0  0  0  0  0  0  0  0  0  0  0  0
   43.0390   73.2860   59.8100 H   0  0  0  0  0  0  0  0  0  0  0  0
   38.9830   72.1790   60.6930 H   0  0  0  0  0  0  0  0  0  0  0  0
   39.7080   75.9200   58.2620 N   0  0  0  0  0  0  0  0  0  0  0  0
   40.3450   77.1140   58.3370 C   0  0  0  0  0  0  0  0  0  0  0  0
   41.2430   77.4270   58.8700 H   0  0  0  0  0  0  0  0  0  0  0  0
   39.6650   78.0080   57.5800 N   0  0  0  0  0  0  0  0  0  0  0  0
   38.5900   77.3960   57.0160 C   0  0  0  0  0  0  0  0  0  0  0  0
   37.5590   77.7950   56.1680 C   0  0  0  0  0  0  0  0  0  0  0  0
   37.5690   78.8440   55.8480 H   0  0  0  0  0  0  0  0  0  0  0  0
   36.6310   76.8810   55.8000 N   0  0  0  0  0  0  0  0  0  0  0  0
   36.7330   75.6060   56.2690 C   0  0  0  0  0  0  0  0  0  0  0  0
   35.9210   75.0020   55.8870 H   0  0  0  0  0  0  0  0  0  0  0  0
   37.7290   75.1920   57.0980 N   0  0  0  0  0  0  0  0  0  0  0  0
   38.6510   76.1020   57.4620 C   0  0  0  0  0  0  0  0  0  0  0  0
   41.5670   71.4600   61.0450 N   0  0  0  0  0  0  0  0  0  0  0  0
   41.6470   71.6550   62.3720 C   0  0  0  0  0  0  0  0  0  0  0  0
   42.1190   70.6090   63.1710 C   0  0  0  0  0  0  0  0  0  0  0  0
   42.4920   69.3990   62.5650 C   0  0  0  0  0  0  0  0  0  0  0  0
   42.9220   68.4200   63.2060 O   0  0  0  0  0  0  0  0  0  0  0  0
   42.3770   69.2980   61.2210 N   0  0  0  0  0  0  0  0  0  0  0  0
   41.9150   70.3180   60.4400 C   0  0  0  0  0  0  0  0  0  0  0  0
   41.8130   70.2150   59.2010 O   0  0  0  0  0  0  0  0  0  0  0  0
   41.3680   72.5780   62.8800 H   0  0  0  0  0  0  0  0  0  0  0  0
   42.2050   70.7070   64.2420 H   0  0  0  0  0  0  0  0  0  0  0  0
   42.6540   68.3920   60.7560 H   0  0  0  0  0  0  0  0  0  0  0  0
  1  7  1  0  0  0  0
  1  2  1  0  0  0  0
  2 21  1  0  0  0  0
  3  2  2  0  0  0  0
  3  8  1  0  0  0  0
  4  3  1  0  0  0  0
  5  6  1  0  0  0  0
  5  4  2  0  0  0  0
  6  1  2  0  0  0  0
  9 10  1  0  0  0  0
  9  5  1  0  0  0  0
 10 11  1  0  0  0  0
 12 10  2  0  0  0  0
 13 20  1  0  0  0  0
 13 12  1  0  0  0  0
 14 13  2  0  0  0  0
 15 14  1  0  0  0  0
 16 14  1  0  0  0  0
 16 17  2  0  0  0  0
 17 19  1  0  0  0  0
 18 17  1  0  0  0  0
 19 20  2  0  0  0  0
 20  9  1  0  0  0  0
 21 22  1  0  0  0  0
 22 29  1  0  0  0  0
 22 23  2  0  0  0  0
 23 30  1  0  0  0  0
 24 23  1  0  0  0  0
 24 25  2  0  0  0  0
 26 24  1  0  0  0  0
 27 21  1  0  0  0  0
 27 26  1  0  0  0  0
 28 27  2  0  0  0  0
 31 26  1  0  0  0  0
M  END
>  <minimizedAffinity>
-6.14979601

$$$$

 OpenBabel03212520303D

 31 34  0  0  0  0  0  0  0  0999 V2000
   39.0580   73.7140   60.2020 C   0  0  0  0  0  0  0  0  0  0  0  0
   39.4590   73.9330   58.8720 C   0  0  0  0  0  0  0  0  0  0  0  0
   40.6140   73.2750   58.4150 C   0  0  0  0  0  0  0  0  0  0  0  0
   41.2710   72.4650   59.2920 N   0  0  0  0  0  0  0  0  0  0  0  0
   40.8530   72.2820   60.5540 C   0  0  0  0  0  0  0  0  0  0  0  0
   39.7510   72.9050   61.0070 N   0  0  0  0  0  0  0  0  0  0  0  0
   38.1650   74.2210   60.5630 H   0  0  0  0  0  0  0  0  0  0  0  0
   40.9510   73.4230   57.3930 H   0  0  0  0  0  0  0  0  0  0  0  0
   41.6120   71.4160   61.3880 N   0  0  0  0  0  0  0  0  0  0  0  0
   41.8080   71.7170   62.6950 C   0  0  0  0  0  0  0  0  0  0  0  0
   41.4800   72.5600   63.3040 H   0  0  0  0  0  0  0  0  0  0  0  0
   42.5550   70.7340   63.2510 N   0  0  0  0  0  0  0  0  0  0  0  0
   42.8430   69.7980   62.3090 C   0  0  0  0  0  0  0  0  0  0  0  0
   43.5540   68.6000   62.2920 C   0  0  0  0  0  0  0  0  0  0  0  0
   44.0110   68.2900   63.2400 H   0  0  0  0  0  0  0  0  0  0  0  0
   43.6330   67.9080   61.1300 N   0  0  0  0  0  0  0  0  0  0  0  0
   43.0170   68.4030   60.0210 C   0  0  0  0  0  0  0  0  0  0  0  0
   43.1720   67.7390   59.1810 H   0  0  0  0  0  0  0  0  0  0  0  0
   42.3180   69.5700   60.0120 N   0  0  0  0  0  0  0  0  0  0  0  0
   42.2410   70.2550   61.1670 C   0  0  0  0  0  0  0  0  0  0  0  0
   38.7100   74.7960   58.0350 N   0  0  0  0  0  0  0  0  0  0  0  0
   39.0900   76.0820   58.1220 C   0  0  0  0  0  0  0  0  0  0  0  0
   38.4200   77.0280   57.3390 C   0  0  0  0  0  0  0  0  0  0  0  0
   37.3800   76.6050   56.4960 C   0  0  0  0  0  0  0  0  0  0  0  0
   36.7340   77.3840   55.7680 O   0  0  0  0  0  0  0  0  0  0  0  0
   37.0690   75.2880   56.4780 N   0  0  0  0  0  0  0  0  0  0  0  0
   37.7230   74.3650   57.2400 C   0  0  0  0  0  0  0  0  0  0  0  0
   37.4290   73.1530   57.2160 O   0  0  0  0  0  0  0  0  0  0  0  0
   39.8900   76.4490   58.7630 H   0  0  0  0  0  0  0  0  0  0  0  0
   38.6800   78.0750   57.3660 H   0  0  0  0  0  0  0  0  0  0  0  0
   36.2890   74.9610   55.8470 H   0  0  0  0  0  0  0  0  0  0  0  0
  1  7  1  0  0  0  0
  1  6  1  0  0  0  0
  2  1  2  0  0  0  0
  3  2  1  0  0  0  0
  3  4  2  0  0  0  0
  4  5  1  0  0  0  0
  5  6  2  0  0  0  0
  5  9  1  0  0  0  0
  8  3  1  0  0  0  0
  9 10  1  0  0  0  0
 10 12  2  0  0  0  0
 10 11  1  0  0  0  0
 13 12  1  0  0  0  0
 14 13  1  0  0  0  0
 14 15  1  0  0  0  0
 16 14  2  0  0  0  0
 17 16  1  0  0  0  0
 18 17  1  0  0  0  0
 19 17  2  0  0  0  0
 19 20  1  0  0  0  0
 20  9  1  0  0  0  0
 20 13  2  0  0  0  0
 21 22  1  0  0  0  0
 21  2  1  0  0  0  0
 22 29  1  0  0  0  0
 23 30  1  0  0  0  0
 23 22  2  0  0  0  0
 24 23  1  0  0  0  0
 25 24  2  0  0  0  0
 26 24  1  0  0  0  0
 26 27  1  0  0  0  0
 27 21  1  0  0  0  0
 28 27  2  0  0  0  0
 31 26  1  0  0  0  0
M  END
>  <minimizedAffinity>
-6.12510252

$$$$

 OpenBabel03212520303D

 31 34  0  0  0  0  0  0  0  0999 V2000
   41.2870   70.9470   62.5580 C   0  0  0  0  0  0  0  0  0  0  0  0
   42.0470   70.3000   61.5660 C   0  0  0  0  0  0  0  0  0  0  0  0
   42.2180   70.9560   60.3350 C   0  0  0  0  0  0  0  0  0  0  0  0
   41.6370   72.1780   60.1810 N   0  0  0  0  0  0  0  0  0  0  0  0
   40.9210   72.7620   61.1540 C   0  0  0  0  0  0  0  0  0  0  0  0
   40.7460   72.1480   62.3370 N   0  0  0  0  0  0  0  0  0  0  0  0
   41.1490   70.4460   63.5140 H   0  0  0  0  0  0  0  0  0  0  0  0
   42.8000   70.4830   59.5490 H   0  0  0  0  0  0  0  0  0  0  0  0
   40.3550   74.0400   60.8900 N   0  0  0  0  0  0  0  0  0  0  0  0
   39.1170   74.3510   61.3450 C   0  0  0  0  0  0  0  0  0  0  0  0
   38.3900   73.7810   61.9240 H   0  0  0  0  0  0  0  0  0  0  0  0
   38.8270   75.6160   60.9580 N   0  0  0  0  0  0  0  0  0  0  0  0
   39.8730   76.1240   60.2540 C   0  0  0  0  0  0  0  0  0  0  0  0
   40.1430   77.3370   59.6230 C   0  0  0  0  0  0  0  0  0  0  0  0
   39.3580   78.1000   59.6780 H   0  0  0  0  0  0  0  0  0  0  0  0
   41.3340   77.4920   58.9980 N   0  0  0  0  0  0  0  0  0  0  0  0
   42.2250   76.4620   59.0040 C   0  0  0  0  0  0  0  0  0  0  0  0
   43.1220   76.7410   58.4660 H   0  0  0  0  0  0  0  0  0  0  0  0
   41.9850   75.2690   59.6120 N   0  0  0  0  0  0  0  0  0  0  0  0
   40.8020   75.1170   60.2330 C   0  0  0  0  0  0  0  0  0  0  0  0
   42.6120   69.0270   61.8210 N   0  0  0  0  0  0  0  0  0  0  0  0
   43.5670   69.0480   62.7660 C   0  0  0  0  0  0  0  0  0  0  0  0
   44.1970   67.8460   63.1020 C   0  0  0  0  0  0  0  0  0  0  0  0
   43.8140   66.6650   62.4450 C   0  0  0  0  0  0  0  0  0  0  0  0
   44.3270   65.5540   62.6870 O   0  0  0  0  0  0  0  0  0  0  0  0
   42.8430   66.7450   61.5070 N   0  0  0  0  0  0  0  0  0  0  0  0
   42.2270   67.9170   61.1790 C   0  0  0  0  0  0  0  0  0  0  0  0
   41.3320   67.9800   60.3130 O   0  0  0  0  0  0  0  0  0  0  0  0
   43.8920   69.9410   63.2970 H   0  0  0  0  0  0  0  0  0  0  0  0
   44.9710   67.8000   63.8530 H   0  0  0  0  0  0  0  0  0  0  0  0
   42.5480   65.8620   61.0080 H   0  0  0  0  0  0  0  0  0  0  0  0
  1  7  1  0  0  0  0
  2 21  1  0  0  0  0
  2  1  2  0  0  0  0
  3  2  1  0  0  0  0
  4  3  2  0  0  0  0
  4  5  1  0  0  0  0
  5  6  2  0  0  0  0
  6  1  1  0  0  0  0
  8  3  1  0  0  0  0
  9  5  1  0  0  0  0
  9 10  1  0  0  0  0
 10 11  1  0  0  0  0
 12 10  2  0  0  0  0
 13 12  1  0  0  0  0
 14 15  1  0  0  0  0
 14 13  2  0  0  0  0
 16 17  2  0  0  0  0
 16 14  1  0  0  0  0
 17 19  1  0  0  0  0
 18 17  1  0  0  0  0
 19 20  2  0  0  0  0
 20 13  1  0  0  0  0
 20  9  1  0  0  0  0
 21 22  1  0  0  0  0
 22 23  2  0  0  0  0
 22 29  1  0  0  0  0
 23 30  1  0  0  0  0
 24 25  2  0  0  0  0
 24 23  1  0  0  0  0
 26 24  1  0  0  0  0
 27 26  1  0  0  0  0
 27 21  1  0  0  0  0
 28 27  2  0  0  0  0
 31 26  1  0  0  0  0
M  END
>  <minimizedAffinity>
-5.99615431

$$$$

 OpenBabel03212520303D

 31 34  0  0  0  0  0  0  0  0999 V2000
   43.1720   70.7610   59.9230 C   0  0  0  0  0  0  0  0  0  0  0  0
   42.3240   70.2950   60.9450 C   0  0  0  0  0  0  0  0  0  0  0  0
   41.4740   71.2230   61.5690 C   0  0  0  0  0  0  0  0  0  0  0  0
   41.5240   72.5170   61.1430 N   0  0  0  0  0  0  0  0  0  0  0  0
   42.3460   72.9190   60.1620 C   0  0  0  0  0  0  0  0  0  0  0  0
   43.1670   72.0440   59.5550 N   0  0  0  0  0  0  0  0  0  0  0  0
   43.8340   70.0480   59.4350 H   0  0  0  0  0  0  0  0  0  0  0  0
   40.8070   70.8960   62.3620 H   0  0  0  0  0  0  0  0  0  0  0  0
   42.3210   74.2920   59.7930 N   0  0  0  0  0  0  0  0  0  0  0  0
   43.4690   74.9420   59.4810 C   0  0  0  0  0  0  0  0  0  0  0  0
   44.5070   74.6100   59.4490 H   0  0  0  0  0  0  0  0  0  0  0  0
   43.1620   76.2230   59.1690 N   0  0  0  0  0  0  0  0  0  0  0  0
   41.8200   76.4050   59.2780 C   0  0  0  0  0  0  0  0  0  0  0  0
   40.9500   77.4770   59.0900 C   0  0  0  0  0  0  0  0  0  0  0  0
   41.4040   78.4250   58.7780 H   0  0  0  0  0  0  0  0  0  0  0  0
   39.6260   77.2830   59.2980 N   0  0  0  0  0  0  0  0  0  0  0  0
   39.1890   76.0520   59.6840 C   0  0  0  0  0  0  0  0  0  0  0  0
   38.1140   76.0600   59.8090 H   0  0  0  0  0  0  0  0  0  0  0  0
   40.0180   74.9900   59.8750 N   0  0  0  0  0  0  0  0  0  0  0  0
   41.3320   75.1850   59.6670 C   0  0  0  0  0  0  0  0  0  0  0  0
   42.3450   68.9300   61.3200 N   0  0  0  0  0  0  0  0  0  0  0  0
   41.6610   68.1370   60.4780 C   0  0  0  0  0  0  0  0  0  0  0  0
   41.6110   66.7650   60.7470 C   0  0  0  0  0  0  0  0  0  0  0  0
   42.2730   66.2660   61.8800 C   0  0  0  0  0  0  0  0  0  0  0  0
   42.2770   65.0580   62.1900 O   0  0  0  0  0  0  0  0  0  0  0  0
   42.9350   67.1430   62.6690 N   0  0  0  0  0  0  0  0  0  0  0  0
   42.9850   68.4810   62.4070 C   0  0  0  0  0  0  0  0  0  0  0  0
   43.5980   69.2820   63.1400 O   0  0  0  0  0  0  0  0  0  0  0  0
   41.1350   68.4850   59.5900 H   0  0  0  0  0  0  0  0  0  0  0  0
   41.0770   66.0800   60.1070 H   0  0  0  0  0  0  0  0  0  0  0  0
   43.4360   66.7770   63.5230 H   0  0  0  0  0  0  0  0  0  0  0  0
  1  2  1  0  0  0  0
  2 21  1  0  0  0  0
  2  3  2  0  0  0  0
  3  8  1  0  0  0  0
  4  3  1  0  0  0  0
  5  4  2  0  0  0  0
  6  1  2  0  0  0  0
  6  5  1  0  0  0  0
  7  1  1  0  0  0  0
  9  5  1  0  0  0  0
 10  9  1  0  0  0  0
 11 10  1  0  0  0  0
 12 13  1  0  0  0  0
 12 10  2  0  0  0  0
 13 20  1  0  0  0  0
 14 13  2  0  0  0  0
 14 16  1  0  0  0  0
 15 14  1  0  0  0  0
 16 17  2  0  0  0  0
 17 18  1  0  0  0  0
 17 19  1  0  0  0  0
 20  9  1  0  0  0  0
 20 19  2  0  0  0  0
 21 27  1  0  0  0  0
 22 23  2  0  0  0  0
 22 21  1  0  0  0  0
 23 24  1  0  0  0  0
 24 25  2  0  0  0  0
 24 26  1  0  0  0  0
 26 31  1  0  0  0  0
 27 26  1  0  0  0  0
 27 28  2  0  0  0  0
 29 22  1  0  0  0  0
 30 23  1  0  0  0  0
M  END
>  <minimizedAffinity>
-5.97305632

$$$$

 OpenBabel03212520303D

 31 34  0  0  0  0  0  0  0  0999 V2000
   41.1180   71.6540   59.2770 C   0  0  0  0  0  0  0  0  0  0  0  0
   41.1770   72.4660   60.4250 C   0  0  0  0  0  0  0  0  0  0  0  0
   41.5510   71.8650   61.6390 C   0  0  0  0  0  0  0  0  0  0  0  0
   41.8350   70.5320   61.6250 N   0  0  0  0  0  0  0  0  0  0  0  0
   41.7690   69.7940   60.5070 C   0  0  0  0  0  0  0  0  0  0  0  0
   41.4110   70.3530   59.3380 N   0  0  0  0  0  0  0  0  0  0  0  0
   40.8280   72.1120   58.3330 H   0  0  0  0  0  0  0  0  0  0  0  0
   41.6060   72.4640   62.5430 H   0  0  0  0  0  0  0  0  0  0  0  0
   42.0850   68.4100   60.6030 N   0  0  0  0  0  0  0  0  0  0  0  0
   41.3780   67.4930   59.8990 C   0  0  0  0  0  0  0  0  0  0  0  0
   40.5380   67.5940   59.2100 H   0  0  0  0  0  0  0  0  0  0  0  0
   41.8830   66.2660   60.1700 N   0  0  0  0  0  0  0  0  0  0  0  0
   42.9140   66.3860   61.0460 C   0  0  0  0  0  0  0  0  0  0  0  0
   43.7890   65.4990   61.6700 C   0  0  0  0  0  0  0  0  0  0  0  0
   43.6590   64.4370   61.4300 H   0  0  0  0  0  0  0  0  0  0  0  0
   44.7250   65.9950   62.5130 N   0  0  0  0  0  0  0  0  0  0  0  0
   44.7810   67.3390   62.7250 C   0  0  0  0  0  0  0  0  0  0  0  0
   45.5760   67.5750   63.4190 H   0  0  0  0  0  0  0  0  0  0  0  0
   43.9380   68.2260   62.1300 N   0  0  0  0  0  0  0  0  0  0  0  0
   43.0090   67.7310   61.2910 C   0  0  0  0  0  0  0  0  0  0  0  0
   40.8620   73.8440   60.3390 N   0  0  0  0  0  0  0  0  0  0  0  0
   41.8160   74.5700   59.7330 C   0  0  0  0  0  0  0  0  0  0  0  0
   41.6150   75.9470   59.5900 C   0  0  0  0  0  0  0  0  0  0  0  0
   40.4300   76.5200   60.0810 C   0  0  0  0  0  0  0  0  0  0  0  0
   40.1750   77.7370   59.9930 O   0  0  0  0  0  0  0  0  0  0  0  0
   39.5280   75.7060   60.6760 N   0  0  0  0  0  0  0  0  0  0  0  0
   39.7240   74.3630   60.8160 C   0  0  0  0  0  0  0  0  0  0  0  0
   38.8860   73.6210   61.3660 O   0  0  0  0  0  0  0  0  0  0  0  0
   42.7470   74.1640   59.3400 H   0  0  0  0  0  0  0  0  0  0  0  0
   42.3450   76.5820   59.1130 H   0  0  0  0  0  0  0  0  0  0  0  0
   38.6350   76.1280   61.0480 H   0  0  0  0  0  0  0  0  0  0  0  0
  1  6  2  0  0  0  0
  1  2  1  0  0  0  0
  2  3  2  0  0  0  0
  3  8  1  0  0  0  0
  4  3  1  0  0  0  0
  5  9  1  0  0  0  0
  5  4  2  0  0  0  0
  6  5  1  0  0  0  0
  7  1  1  0  0  0  0
  9 20  1  0  0  0  0
 10 12  2  0  0  0  0
 10  9  1  0  0  0  0
 11 10  1  0  0  0  0
 12 13  1  0  0  0  0
 13 20  2  0  0  0  0
 13 14  1  0  0  0  0
 14 16  2  0  0  0  0
 15 14  1  0  0  0  0
 16 17  1  0  0  0  0
 17 18  1  0  0  0  0
 19 17  2  0  0  0  0
 20 19  1  0  0  0  0
 21  2  1  0  0  0  0
 21 27  1  0  0  0  0
 22 21  1  0  0  0  0
 23 22  2  0  0  0  0
 23 24  1  0  0  0  0
 24 26  1  0  0  0  0
 25 24  2  0  0  0  0
 26 27  1  0  0  0  0
 26 31  1  0  0  0  0
 27 28  2  0  0  0  0
 29 22  1  0  0  0  0
 30 23  1  0  0  0  0
M  END
>  <minimizedAffinity>
-5.77382183

$$$$

 OpenBabel03212520303D

 31 34  0  0  0  0  0  0  0  0999 V2000
   41.7350   70.5650   59.6790 C   0  0  0  0  0  0  0  0  0  0  0  0
   42.6290   70.8580   60.7250 C   0  0  0  0  0  0  0  0  0  0  0  0
   42.9440   72.2060   60.9640 C   0  0  0  0  0  0  0  0  0  0  0  0
   42.3610   73.1450   60.1670 N   0  0  0  0  0  0  0  0  0  0  0  0
   41.5110   72.8230   59.1800 C   0  0  0  0  0  0  0  0  0  0  0  0
   41.2000   71.5380   58.9360 N   0  0  0  0  0  0  0  0  0  0  0  0
   41.4860   69.5230   59.4860 H   0  0  0  0  0  0  0  0  0  0  0  0
   43.6310   72.4660   61.7650 H   0  0  0  0  0  0  0  0  0  0  0  0
   40.9590   73.8800   58.4050 N   0  0  0  0  0  0  0  0  0  0  0  0
   40.7870   73.7360   57.0690 C   0  0  0  0  0  0  0  0  0  0  0  0
   41.0020   72.9080   56.3930 H   0  0  0  0  0  0  0  0  0  0  0  0
   40.2490   74.8790   56.5830 N   0  0  0  0  0  0  0  0  0  0  0  0
   40.0710   75.7620   57.6000 C   0  0  0  0  0  0  0  0  0  0  0  0
   39.5730   77.0600   57.7070 C   0  0  0  0  0  0  0  0  0  0  0  0
   39.2270   77.5270   56.7770 H   0  0  0  0  0  0  0  0  0  0  0  0
   39.5470   77.6470   58.9270 N   0  0  0  0  0  0  0  0  0  0  0  0
   40.0070   76.9540   60.0050 C   0  0  0  0  0  0  0  0  0  0  0  0
   39.9200   77.5570   60.9000 H   0  0  0  0  0  0  0  0  0  0  0  0
   40.4990   75.6880   59.9280 N   0  0  0  0  0  0  0  0  0  0  0  0
   40.5220   75.1060   58.7150 C   0  0  0  0  0  0  0  0  0  0  0  0
   43.1850   69.8110   61.5000 N   0  0  0  0  0  0  0  0  0  0  0  0
   43.9850   68.9940   60.7940 C   0  0  0  0  0  0  0  0  0  0  0  0
   44.5920   67.9220   61.4550 C   0  0  0  0  0  0  0  0  0  0  0  0
   44.3460   67.7350   62.8250 C   0  0  0  0  0  0  0  0  0  0  0  0
   44.8470   66.8040   63.4860 O   0  0  0  0  0  0  0  0  0  0  0  0
   43.5240   68.6090   63.4490 N   0  0  0  0  0  0  0  0  0  0  0  0
   42.9330   69.6560   62.8050 C   0  0  0  0  0  0  0  0  0  0  0  0
   42.1770   70.4580   63.3900 O   0  0  0  0  0  0  0  0  0  0  0  0
   44.2010   69.1050   59.7320 H   0  0  0  0  0  0  0  0  0  0  0  0
   45.2440   67.2330   60.9410 H   0  0  0  0  0  0  0  0  0  0  0  0
   43.3340   68.4770   64.4790 H   0  0  0  0  0  0  0  0  0  0  0  0
  1  2  1  0  0  0  0
  2  3  2  0  0  0  0
  2 21  1  0  0  0  0
  3  8  1  0  0  0  0
  4  3  1  0  0  0  0
  5  4  2  0  0  0  0
  6  5  1  0  0  0  0
  6  1  2  0  0  0  0
  7  1  1  0  0  0  0
  9 20  1  0  0  0  0
  9  5  1  0  0  0  0
 10  9  1  0  0  0  0
 11 10  1  0  0  0  0
 12 10  2  0  0  0  0
 12 13  1  0  0  0  0
 13 14  2  0  0  0  0
 13 20  1  0  0  0  0
 14 16  1  0  0  0  0
 15 14  1  0  0  0  0
 16 17  2  0  0  0  0
 17 18  1  0  0  0  0
 19 17  1  0  0  0  0
 20 19  2  0  0  0  0
 21 27  1  0  0  0  0
 22 23  2  0  0  0  0
 22 21  1  0  0  0  0
 23 24  1  0  0  0  0
 24 26  1  0  0  0  0
 24 25  2  0  0  0  0
 26 31  1  0  0  0  0
 27 28  2  0  0  0  0
 27 26  1  0  0  0  0
 29 22  1  0  0  0  0
 30 23  1  0  0  0  0
M  END
>  <minimizedAffinity>
-5.67051935

$$$$
