
 OpenBabel03212520463D

 23 25  0  0  0  0  0  0  0  0999 V2000
   42.4550   84.1940   59.1410 C   0  0  0  0  0  0  0  0  0  0  0  0
   41.5190   85.1390   59.5890 C   0  0  0  0  0  0  0  0  0  0  0  0
   40.1490   84.7910   59.5950 C   0  0  0  0  0  0  0  0  0  0  0  0
   39.8340   83.5510   59.1630 N   0  0  0  0  0  0  0  0  0  0  0  0
   40.7530   82.6660   58.7380 C   0  0  0  0  0  0  0  0  0  0  0  0
   42.0490   82.9830   58.7280 N   0  0  0  0  0  0  0  0  0  0  0  0
   43.7770   84.6960   59.1970 N   0  0  0  0  0  0  0  0  0  0  0  0
   41.7430   86.1410   59.9420 H   0  0  0  0  0  0  0  0  0  0  0  0
   39.4060   85.4920   59.9330 H   0  0  0  0  0  0  0  0  0  0  0  0
   44.5960   84.3610   59.7550 H   0  0  0  0  0  0  0  0  0  0  0  0
   44.1050   85.5310   58.6340 H   0  0  0  0  0  0  0  0  0  0  0  0
   40.3200   81.3810   58.3000 N   0  0  0  0  0  0  0  0  0  0  0  0
   39.8930   81.1170   57.0460 C   0  0  0  0  0  0  0  0  0  0  0  0
   39.8050   81.7840   56.1980 H   0  0  0  0  0  0  0  0  0  0  0  0
   39.5730   79.7970   57.0240 N   0  0  0  0  0  0  0  0  0  0  0  0
   39.8000   79.2710   58.2370 C   0  0  0  0  0  0  0  0  0  0  0  0
   39.6180   77.9620   58.6820 C   0  0  0  0  0  0  0  0  0  0  0  0
   39.2440   77.1590   58.0530 H   0  0  0  0  0  0  0  0  0  0  0  0
   39.9430   77.7520   59.9740 N   0  0  0  0  0  0  0  0  0  0  0  0
   40.4110   78.7160   60.7920 C   0  0  0  0  0  0  0  0  0  0  0  0
   40.6520   78.4790   61.8180 H   0  0  0  0  0  0  0  0  0  0  0  0
   40.5880   79.9970   60.3540 N   0  0  0  0  0  0  0  0  0  0  0  0
   40.2770   80.2640   59.0630 C   0  0  0  0  0  0  0  0  0  0  0  0
  1  7  1  0  0  0  0
  1  2  1  0  0  0  0
  2  3  2  0  0  0  0
  2  8  1  0  0  0  0
  3  9  1  0  0  0  0
  4  3  1  0  0  0  0
  5  4  2  0  0  0  0
  6  5  1  0  0  0  0
  6  1  2  0  0  0  0
  7 10  1  0  0  0  0
 11  7  1  0  0  0  0
 12  5  1  0  0  0  0
 12 23  1  0  0  0  0
 13 12  1  0  0  0  0
 14 13  1  0  0  0  0
 15 13  2  0  0  0  0
 15 16  1  0  0  0  0
 16 17  2  0  0  0  0
 16 23  1  0  0  0  0
 17 19  1  0  0  0  0
 18 17  1  0  0  0  0
 19 20  2  0  0  0  0
 20 21  1  0  0  0  0
 22 20  1  0  0  0  0
 23 22  2  0  0  0  0
M  END
>  <minimizedAffinity>
-3.83207011

>  <minimizedRMSD>
6.76563692

$$$$
