
 OpenBabel03212520323D

 44 48  0  0  0  0  0  0  0  0999 V2000
   43.6280   82.0410   62.6270 C   0  0  0  0  0  0  0  0  0  0  0  0
   44.1230   80.8370   62.1690 C   0  0  0  0  0  0  0  0  0  0  0  0
   45.4420   80.4910   62.3920 C   0  0  0  0  0  0  0  0  0  0  0  0
   46.3330   81.3110   63.0760 C   0  0  0  0  0  0  0  0  0  0  0  0
   45.8610   82.5140   63.5430 C   0  0  0  0  0  0  0  0  0  0  0  0
   44.5360   82.8670   63.3200 C   0  0  0  0  0  0  0  0  0  0  0  0
   45.8280   79.5490   62.0320 H   0  0  0  0  0  0  0  0  0  0  0  0
   47.3600   81.0060   63.2320 H   0  0  0  0  0  0  0  0  0  0  0  0
   46.5090   83.1820   64.0770 H   0  0  0  0  0  0  0  0  0  0  0  0
   44.1510   83.8180   63.6850 H   0  0  0  0  0  0  0  0  0  0  0  0
   41.9370   77.9760   61.3520 C   0  0  0  0  0  0  0  0  0  0  0  0
   41.6950   78.1740   59.9890 C   0  0  0  0  0  0  0  0  0  0  0  0
   42.2970   79.2880   59.3960 C   0  0  0  0  0  0  0  0  0  0  0  0
   43.0680   80.1010   60.1660 N   0  0  0  0  0  0  0  0  0  0  0  0
   43.2810   79.8920   61.4550 C   0  0  0  0  0  0  0  0  0  0  0  0
   42.7100   78.8230   62.0430 N   0  0  0  0  0  0  0  0  0  0  0  0
   41.4990   77.1340   61.8590 H   0  0  0  0  0  0  0  0  0  0  0  0
   42.1470   79.4900   58.3560 H   0  0  0  0  0  0  0  0  0  0  0  0
   40.8780   77.2780   59.2600 N   0  0  0  0  0  0  0  0  0  0  0  0
   39.5870   77.6320   59.2320 C   0  0  0  0  0  0  0  0  0  0  0  0
   38.6870   76.8230   58.5450 C   0  0  0  0  0  0  0  0  0  0  0  0
   39.1540   75.6830   57.9130 C   0  0  0  0  0  0  0  0  0  0  0  0
   38.4610   74.8650   57.2610 O   0  0  0  0  0  0  0  0  0  0  0  0
   40.4900   75.3910   57.9880 N   0  0  0  0  0  0  0  0  0  0  0  0
   41.3670   76.1860   58.6620 C   0  0  0  0  0  0  0  0  0  0  0  0
   42.5800   75.9270   58.7330 O   0  0  0  0  0  0  0  0  0  0  0  0
   39.1750   78.5120   59.7090 H   0  0  0  0  0  0  0  0  0  0  0  0
   37.6310   77.0320   58.4710 H   0  0  0  0  0  0  0  0  0  0  0  0
   40.9500   74.5470   57.5430 H   0  0  0  0  0  0  0  0  0  0  0  0
   41.9870   82.5130   62.3560 S   0  0  0  0  0  0  0  0  0  0  0  0
   41.4550   83.2530   63.5560 O   0  0  0  0  0  0  0  0  0  0  0  0
   41.1580   81.2360   62.3080 O   0  0  0  0  0  0  0  0  0  0  0  0
   43.3230   83.5020   59.7140 H   0  0  0  0  0  0  0  0  0  0  0  0
   42.3580   83.8730   59.8380 N   0  0  0  0  0  0  0  0  0  0  0  0
   41.7110   83.4980   60.9690 C   0  0  0  0  0  0  0  0  0  0  0  0
   40.4890   84.1050   60.8950 N   0  0  0  0  0  0  0  0  0  0  0  0
   40.3970   84.8120   59.7800 C   0  0  0  0  0  0  0  0  0  0  0  0
   39.4770   85.6200   59.1360 C   0  0  0  0  0  0  0  0  0  0  0  0
   38.5110   85.7750   59.6230 H   0  0  0  0  0  0  0  0  0  0  0  0
   39.7120   86.2230   57.9410 N   0  0  0  0  0  0  0  0  0  0  0  0
   40.8850   86.0550   57.3130 C   0  0  0  0  0  0  0  0  0  0  0  0
   41.2230   86.4580   56.3760 H   0  0  0  0  0  0  0  0  0  0  0  0
   41.8280   85.2670   57.9090 N   0  0  0  0  0  0  0  0  0  0  0  0
   41.5840   84.6750   59.0920 C   0  0  0  0  0  0  0  0  0  0  0  0
  1  6  1  0  0  0  0
  2  3  1  0  0  0  0
  2  1  2  0  0  0  0
  3  4  2  0  0  0  0
  4  8  1  0  0  0  0
  4  5  1  0  0  0  0
  5  9  1  0  0  0  0
  6  5  2  0  0  0  0
  6 10  1  0  0  0  0
  7  3  1  0  0  0  0
 11 17  1  0  0  0  0
 11 16  1  0  0  0  0
 12 11  2  0  0  0  0
 13 12  1  0  0  0  0
 13 14  2  0  0  0  0
 14 15  1  0  0  0  0
 15 16  2  0  0  0  0
 15  2  1  0  0  0  0
 18 13  1  0  0  0  0
 19 12  1  0  0  0  0
 20 19  1  0  0  0  0
 20 27  1  0  0  0  0
 21 20  2  0  0  0  0
 22 24  1  0  0  0  0
 22 21  1  0  0  0  0
 23 22  2  0  0  0  0
 24 25  1  0  0  0  0
 25 26  2  0  0  0  0
 25 19  1  0  0  0  0
 28 21  1  0  0  0  0
 29 24  1  0  0  0  0
 30  1  1  0  0  0  0
 30 31  2  0  0  0  0
 32 30  2  0  0  0  0
 33 34  1  0  0  0  0
 34 35  1  0  0  0  0
 35 30  1  0  0  0  0
 36 35  2  0  0  0  0
 37 36  1  0  0  0  0
 38 39  1  0  0  0  0
 38 37  1  0  0  0  0
 40 38  2  0  0  0  0
 41 43  2  0  0  0  0
 41 40  1  0  0  0  0
 42 41  1  0  0  0  0
 43 44  1  0  0  0  0
 44 37  2  0  0  0  0
 44 34  1  0  0  0  0
M  END
>  <minimizedAffinity>
-6.42787457

>  <minimizedRMSD>
3.45703602

$$$$
