
 OpenBabel03212520323D

 44 48  0  0  0  0  0  0  0  0999 V2000
   43.9040   82.1710   62.5030 C   0  0  0  0  0  0  0  0  0  0  0  0
   44.2420   81.2480   61.5350 C   0  0  0  0  0  0  0  0  0  0  0  0
   45.5030   80.6850   61.5130 C   0  0  0  0  0  0  0  0  0  0  0  0
   46.4880   81.0030   62.4420 C   0  0  0  0  0  0  0  0  0  0  0  0
   46.1730   81.9190   63.4170 C   0  0  0  0  0  0  0  0  0  0  0  0
   44.9060   82.4880   63.4420 C   0  0  0  0  0  0  0  0  0  0  0  0
   45.7660   79.9640   60.7540 H   0  0  0  0  0  0  0  0  0  0  0  0
   47.4660   80.5410   62.3940 H   0  0  0  0  0  0  0  0  0  0  0  0
   46.8990   82.1970   64.1570 H   0  0  0  0  0  0  0  0  0  0  0  0
   44.6450   83.2160   64.2100 H   0  0  0  0  0  0  0  0  0  0  0  0
   41.5320   79.4800   59.7560 C   0  0  0  0  0  0  0  0  0  0  0  0
   41.5260   80.1260   58.5170 C   0  0  0  0  0  0  0  0  0  0  0  0
   42.4600   81.1510   58.3350 C   0  0  0  0  0  0  0  0  0  0  0  0
   43.3040   81.4540   59.3570 N   0  0  0  0  0  0  0  0  0  0  0  0
   43.2890   80.8270   60.5210 C   0  0  0  0  0  0  0  0  0  0  0  0
   42.3960   79.8370   60.7140 N   0  0  0  0  0  0  0  0  0  0  0  0
   40.8350   78.6830   59.9510 H   0  0  0  0  0  0  0  0  0  0  0  0
   42.5010   81.6810   57.4070 H   0  0  0  0  0  0  0  0  0  0  0  0
   40.6120   79.7480   57.5060 N   0  0  0  0  0  0  0  0  0  0  0  0
   39.5380   80.5440   57.4290 C   0  0  0  0  0  0  0  0  0  0  0  0
   38.5670   80.2650   56.4710 C   0  0  0  0  0  0  0  0  0  0  0  0
   38.7440   79.1810   55.6300 C   0  0  0  0  0  0  0  0  0  0  0  0
   37.9550   78.8140   54.7250 O   0  0  0  0  0  0  0  0  0  0  0  0
   39.8710   78.4160   55.7720 N   0  0  0  0  0  0  0  0  0  0  0  0
   40.8180   78.6920   56.7110 C   0  0  0  0  0  0  0  0  0  0  0  0
   41.8430   78.0030   56.8440 O   0  0  0  0  0  0  0  0  0  0  0  0
   39.3550   81.4020   58.0640 H   0  0  0  0  0  0  0  0  0  0  0  0
   37.6710   80.8530   56.3400 H   0  0  0  0  0  0  0  0  0  0  0  0
   40.1040   77.5680   55.1820 H   0  0  0  0  0  0  0  0  0  0  0  0
   42.3390   82.9060   62.5550 S   0  0  0  0  0  0  0  0  0  0  0  0
   42.2190   83.7870   63.7700 O   0  0  0  0  0  0  0  0  0  0  0  0
   41.3310   81.7910   62.8030 O   0  0  0  0  0  0  0  0  0  0  0  0
   43.5470   84.3140   60.0440 H   0  0  0  0  0  0  0  0  0  0  0  0
   42.5140   84.4250   60.1080 N   0  0  0  0  0  0  0  0  0  0  0  0
   41.9100   83.8500   61.1780 C   0  0  0  0  0  0  0  0  0  0  0  0
   40.5820   84.1360   61.0310 N   0  0  0  0  0  0  0  0  0  0  0  0
   40.3860   84.8460   59.9310 C   0  0  0  0  0  0  0  0  0  0  0  0
   39.3350   85.4250   59.2440 C   0  0  0  0  0  0  0  0  0  0  0  0
   38.3330   85.3110   59.6640 H   0  0  0  0  0  0  0  0  0  0  0  0
   39.4850   86.1200   58.0870 N   0  0  0  0  0  0  0  0  0  0  0  0
   40.7000   86.2790   57.5410 C   0  0  0  0  0  0  0  0  0  0  0  0
   40.9850   86.7930   56.6430 H   0  0  0  0  0  0  0  0  0  0  0  0
   41.7710   85.7260   58.1820 N   0  0  0  0  0  0  0  0  0  0  0  0
   41.6110   85.0390   59.3280 C   0  0  0  0  0  0  0  0  0  0  0  0
  1 30  1  0  0  0  0
  1  6  1  0  0  0  0
  2  1  2  0  0  0  0
  3  2  1  0  0  0  0
  3  4  2  0  0  0  0
  4  5  1  0  0  0  0
  5  6  2  0  0  0  0
  5  9  1  0  0  0  0
  6 10  1  0  0  0  0
  7  3  1  0  0  0  0
  8  4  1  0  0  0  0
 11 17  1  0  0  0  0
 11 16  1  0  0  0  0
 12 11  2  0  0  0  0
 13 12  1  0  0  0  0
 13 14  2  0  0  0  0
 14 15  1  0  0  0  0
 15 16  2  0  0  0  0
 15  2  1  0  0  0  0
 18 13  1  0  0  0  0
 19 12  1  0  0  0  0
 20 19  1  0  0  0  0
 20 27  1  0  0  0  0
 21 20  2  0  0  0  0
 22 24  1  0  0  0  0
 22 21  1  0  0  0  0
 23 22  2  0  0  0  0
 24 25  1  0  0  0  0
 25 26  2  0  0  0  0
 25 19  1  0  0  0  0
 28 21  1  0  0  0  0
 29 24  1  0  0  0  0
 30 32  2  0  0  0  0
 30 31  2  0  0  0  0
 33 34  1  0  0  0  0
 34 35  1  0  0  0  0
 35 30  1  0  0  0  0
 36 35  2  0  0  0  0
 37 36  1  0  0  0  0
 38 39  1  0  0  0  0
 38 37  2  0  0  0  0
 40 38  1  0  0  0  0
 41 40  2  0  0  0  0
 41 43  1  0  0  0  0
 42 41  1  0  0  0  0
 43 44  2  0  0  0  0
 44 37  1  0  0  0  0
 44 34  1  0  0  0  0
M  END
>  <minimizedAffinity>
-6.04871273

>  <minimizedRMSD>
2.19851804

$$$$
