
 OpenBabel03212520293D

 31 34  0  0  0  0  0  0  0  0999 V2000
   39.7060   81.2330   57.8400 C   0  0  0  0  0  0  0  0  0  0  0  0
   40.3640   80.1420   57.2420 C   0  0  0  0  0  0  0  0  0  0  0  0
   41.6860   79.8750   57.6350 C   0  0  0  0  0  0  0  0  0  0  0  0
   42.2470   80.6910   58.5710 N   0  0  0  0  0  0  0  0  0  0  0  0
   41.5840   81.7210   59.1170 C   0  0  0  0  0  0  0  0  0  0  0  0
   40.3180   81.9910   58.7520 N   0  0  0  0  0  0  0  0  0  0  0  0
   38.6820   81.4470   57.5410 H   0  0  0  0  0  0  0  0  0  0  0  0
   42.2220   79.0400   57.1920 H   0  0  0  0  0  0  0  0  0  0  0  0
   42.2620   82.5120   60.0860 N   0  0  0  0  0  0  0  0  0  0  0  0
   42.0960   83.8570   60.1140 C   0  0  0  0  0  0  0  0  0  0  0  0
   41.4990   84.5290   59.4970 H   0  0  0  0  0  0  0  0  0  0  0  0
   42.8470   84.3570   61.1240 N   0  0  0  0  0  0  0  0  0  0  0  0
   43.4980   83.3420   61.7480 C   0  0  0  0  0  0  0  0  0  0  0  0
   44.3850   83.2470   62.8190 C   0  0  0  0  0  0  0  0  0  0  0  0
   44.6540   84.1880   63.3140 H   0  0  0  0  0  0  0  0  0  0  0  0
   44.8460   82.0250   63.1740 N   0  0  0  0  0  0  0  0  0  0  0  0
   44.4310   80.9310   62.4760 C   0  0  0  0  0  0  0  0  0  0  0  0
   44.8870   80.0360   62.8790 H   0  0  0  0  0  0  0  0  0  0  0  0
   43.5680   80.9970   61.4270 N   0  0  0  0  0  0  0  0  0  0  0  0
   43.1100   82.2120   61.0760 C   0  0  0  0  0  0  0  0  0  0  0  0
   39.6960   79.3510   56.2760 N   0  0  0  0  0  0  0  0  0  0  0  0
   39.8700   79.7900   55.0180 C   0  0  0  0  0  0  0  0  0  0  0  0
   39.2560   79.0860   53.9760 C   0  0  0  0  0  0  0  0  0  0  0  0
   38.4840   77.9530   54.2790 C   0  0  0  0  0  0  0  0  0  0  0  0
   37.9050   77.2720   53.4090 O   0  0  0  0  0  0  0  0  0  0  0  0
   38.3670   77.5900   55.5760 N   0  0  0  0  0  0  0  0  0  0  0  0
   38.9660   78.2750   56.5930 C   0  0  0  0  0  0  0  0  0  0  0  0
   38.8520   77.9320   57.7860 O   0  0  0  0  0  0  0  0  0  0  0  0
   40.4610   80.6630   54.7430 H   0  0  0  0  0  0  0  0  0  0  0  0
   39.3600   79.3900   52.9470 H   0  0  0  0  0  0  0  0  0  0  0  0
   37.7880   76.7390   55.8130 H   0  0  0  0  0  0  0  0  0  0  0  0
  1  6  1  0  0  0  0
  2  3  1  0  0  0  0
  2  1  2  0  0  0  0
  3  4  2  0  0  0  0
  4  5  1  0  0  0  0
  5  9  1  0  0  0  0
  6  5  2  0  0  0  0
  7  1  1  0  0  0  0
  8  3  1  0  0  0  0
  9 10  1  0  0  0  0
  9 20  1  0  0  0  0
 10 12  2  0  0  0  0
 11 10  1  0  0  0  0
 12 13  1  0  0  0  0
 13 14  1  0  0  0  0
 14 16  2  0  0  0  0
 14 15  1  0  0  0  0
 17 18  1  0  0  0  0
 17 16  1  0  0  0  0
 19 17  2  0  0  0  0
 20 19  1  0  0  0  0
 20 13  2  0  0  0  0
 21 27  1  0  0  0  0
 21  2  1  0  0  0  0
 22 21  1  0  0  0  0
 23 24  1  0  0  0  0
 23 22  2  0  0  0  0
 24 26  1  0  0  0  0
 25 24  2  0  0  0  0
 26 31  1  0  0  0  0
 26 27  1  0  0  0  0
 27 28  2  0  0  0  0
 29 22  1  0  0  0  0
 30 23  1  0  0  0  0
M  END
>  <minimizedAffinity>
-4.36219263

>  <minimizedRMSD>
6.5177846

$$$$
