
 OpenBabel03212520313D

 44 48  0  0  0  0  0  0  0  0999 V2000
   42.8480   82.1240   62.5570 C   0  0  0  0  0  0  0  0  0  0  0  0
   43.4350   81.0970   61.8450 C   0  0  0  0  0  0  0  0  0  0  0  0
   44.7990   80.8890   61.9120 C   0  0  0  0  0  0  0  0  0  0  0  0
   45.6470   81.6790   62.6810 C   0  0  0  0  0  0  0  0  0  0  0  0
   45.0840   82.7060   63.3980 C   0  0  0  0  0  0  0  0  0  0  0  0
   43.7130   82.9210   63.3330 C   0  0  0  0  0  0  0  0  0  0  0  0
   45.2570   80.0860   61.3540 H   0  0  0  0  0  0  0  0  0  0  0  0
   46.7120   81.4850   62.7080 H   0  0  0  0  0  0  0  0  0  0  0  0
   45.6960   83.3440   64.0070 H   0  0  0  0  0  0  0  0  0  0  0  0
   43.2550   83.7320   63.8980 H   0  0  0  0  0  0  0  0  0  0  0  0
   41.5640   78.1580   60.6240 C   0  0  0  0  0  0  0  0  0  0  0  0
   41.1390   78.5860   59.3620 C   0  0  0  0  0  0  0  0  0  0  0  0
   41.5150   79.8750   58.9740 C   0  0  0  0  0  0  0  0  0  0  0  0
   42.2580   80.6250   59.8310 N   0  0  0  0  0  0  0  0  0  0  0  0
   42.6470   80.1970   61.0210 C   0  0  0  0  0  0  0  0  0  0  0  0
   42.2940   78.9570   61.4120 N   0  0  0  0  0  0  0  0  0  0  0  0
   41.3030   77.1740   60.9740 H   0  0  0  0  0  0  0  0  0  0  0  0
   41.2190   80.2560   58.0190 H   0  0  0  0  0  0  0  0  0  0  0  0
   40.3670   77.7400   58.5320 N   0  0  0  0  0  0  0  0  0  0  0  0
   39.1530   77.4670   59.0250 C   0  0  0  0  0  0  0  0  0  0  0  0
   38.3050   76.6410   58.2930 C   0  0  0  0  0  0  0  0  0  0  0  0
   38.7410   76.1320   57.0830 C   0  0  0  0  0  0  0  0  0  0  0  0
   38.0880   75.3790   56.3210 O   0  0  0  0  0  0  0  0  0  0  0  0
   39.9980   76.4600   56.6470 N   0  0  0  0  0  0  0  0  0  0  0  0
   40.8250   77.2680   57.3660 C   0  0  0  0  0  0  0  0  0  0  0  0
   41.9650   77.5700   56.9760 O   0  0  0  0  0  0  0  0  0  0  0  0
   38.7670   77.8410   59.9650 H   0  0  0  0  0  0  0  0  0  0  0  0
   37.3120   76.3690   58.6150 H   0  0  0  0  0  0  0  0  0  0  0  0
   40.4290   76.1260   55.7380 H   0  0  0  0  0  0  0  0  0  0  0  0
   41.1460   82.4220   62.4880 S   0  0  0  0  0  0  0  0  0  0  0  0
   40.6600   82.9600   63.8080 O   0  0  0  0  0  0  0  0  0  0  0  0
   40.4610   81.0670   62.3630 O   0  0  0  0  0  0  0  0  0  0  0  0
   38.6410   83.9620   61.4410 H   0  0  0  0  0  0  0  0  0  0  0  0
   39.4930   84.1510   60.8730 N   0  0  0  0  0  0  0  0  0  0  0  0
   40.6250   83.5090   61.2560 C   0  0  0  0  0  0  0  0  0  0  0  0
   41.5810   83.9180   60.3690 N   0  0  0  0  0  0  0  0  0  0  0  0
   41.0590   84.7620   59.4920 C   0  0  0  0  0  0  0  0  0  0  0  0
   41.4650   85.5010   58.3940 C   0  0  0  0  0  0  0  0  0  0  0  0
   42.5110   85.4230   58.0920 H   0  0  0  0  0  0  0  0  0  0  0  0
   40.6340   86.3080   57.6840 N   0  0  0  0  0  0  0  0  0  0  0  0
   39.3440   86.4270   58.0270 C   0  0  0  0  0  0  0  0  0  0  0  0
   38.5670   87.0160   57.5730 H   0  0  0  0  0  0  0  0  0  0  0  0
   38.8930   85.7180   59.1030 N   0  0  0  0  0  0  0  0  0  0  0  0
   39.7250   84.9220   59.8000 C   0  0  0  0  0  0  0  0  0  0  0  0
  1  6  1  0  0  0  0
  2  3  1  0  0  0  0
  2  1  2  0  0  0  0
  3  4  2  0  0  0  0
  4  8  1  0  0  0  0
  4  5  1  0  0  0  0
  5  9  1  0  0  0  0
  6  5  2  0  0  0  0
  6 10  1  0  0  0  0
  7  3  1  0  0  0  0
 11 17  1  0  0  0  0
 11 16  1  0  0  0  0
 12 11  2  0  0  0  0
 13 12  1  0  0  0  0
 13 14  2  0  0  0  0
 14 15  1  0  0  0  0
 15 16  2  0  0  0  0
 15  2  1  0  0  0  0
 18 13  1  0  0  0  0
 19 20  1  0  0  0  0
 19 12  1  0  0  0  0
 20 27  1  0  0  0  0
 21 28  1  0  0  0  0
 21 20  2  0  0  0  0
 22 21  1  0  0  0  0
 23 22  2  0  0  0  0
 24 22  1  0  0  0  0
 24 25  1  0  0  0  0
 25 19  1  0  0  0  0
 26 25  2  0  0  0  0
 29 24  1  0  0  0  0
 30  1  1  0  0  0  0
 30 31  2  0  0  0  0
 32 30  2  0  0  0  0
 34 35  1  0  0  0  0
 34 33  1  0  0  0  0
 35 30  1  0  0  0  0
 36 35  2  0  0  0  0
 37 44  1  0  0  0  0
 37 36  1  0  0  0  0
 38 37  2  0  0  0  0
 39 38  1  0  0  0  0
 40 41  2  0  0  0  0
 40 38  1  0  0  0  0
 41 43  1  0  0  0  0
 42 41  1  0  0  0  0
 43 44  2  0  0  0  0
 44 34  1  0  0  0  0
M  END
>  <minimizedAffinity>
-7.22341442

>  <minimizedRMSD>
2.48701978

$$$$
