
 OpenBabel03212520463D

 23 25  0  0  0  0  0  0  0  0999 V2000
   41.8790   83.5320   57.3620 C   0  0  0  0  0  0  0  0  0  0  0  0
   41.7720   84.8450   56.8770 C   0  0  0  0  0  0  0  0  0  0  0  0
   41.1930   85.8330   57.7050 C   0  0  0  0  0  0  0  0  0  0  0  0
   40.7780   85.4350   58.9270 N   0  0  0  0  0  0  0  0  0  0  0  0
   40.8930   84.1690   59.3660 C   0  0  0  0  0  0  0  0  0  0  0  0
   41.4380   83.2280   58.5930 N   0  0  0  0  0  0  0  0  0  0  0  0
   42.4790   82.6690   56.4150 N   0  0  0  0  0  0  0  0  0  0  0  0
   42.0960   85.1920   55.9010 H   0  0  0  0  0  0  0  0  0  0  0  0
   41.0950   86.8480   57.3630 H   0  0  0  0  0  0  0  0  0  0  0  0
   43.3730   82.1290   56.4740 H   0  0  0  0  0  0  0  0  0  0  0  0
   42.0510   82.4590   55.4680 H   0  0  0  0  0  0  0  0  0  0  0  0
   40.4240   83.8490   60.6730 N   0  0  0  0  0  0  0  0  0  0  0  0
   39.2350   83.2590   60.9230 C   0  0  0  0  0  0  0  0  0  0  0  0
   38.4670   82.9430   60.2270 H   0  0  0  0  0  0  0  0  0  0  0  0
   39.1550   83.1220   62.2720 N   0  0  0  0  0  0  0  0  0  0  0  0
   40.2710   83.6160   62.8280 C   0  0  0  0  0  0  0  0  0  0  0  0
   40.6320   83.6900   64.1740 C   0  0  0  0  0  0  0  0  0  0  0  0
   40.0040   83.3290   64.9850 H   0  0  0  0  0  0  0  0  0  0  0  0
   41.8350   84.2500   64.4090 N   0  0  0  0  0  0  0  0  0  0  0  0
   42.6460   84.7100   63.4360 C   0  0  0  0  0  0  0  0  0  0  0  0
   43.6010   85.1480   63.6950 H   0  0  0  0  0  0  0  0  0  0  0  0
   42.2920   84.6370   62.1210 N   0  0  0  0  0  0  0  0  0  0  0  0
   41.0920   84.0830   61.8260 C   0  0  0  0  0  0  0  0  0  0  0  0
  1  6  1  0  0  0  0
  2  1  2  0  0  0  0
  2  3  1  0  0  0  0
  3  4  2  0  0  0  0
  4  5  1  0  0  0  0
  5 12  1  0  0  0  0
  6  5  2  0  0  0  0
  7 10  1  0  0  0  0
  7  1  1  0  0  0  0
  8  2  1  0  0  0  0
  9  3  1  0  0  0  0
 11  7  1  0  0  0  0
 12 13  1  0  0  0  0
 12 23  1  0  0  0  0
 13 15  2  0  0  0  0
 14 13  1  0  0  0  0
 15 16  1  0  0  0  0
 16 17  1  0  0  0  0
 17 19  2  0  0  0  0
 17 18  1  0  0  0  0
 20 21  1  0  0  0  0
 20 19  1  0  0  0  0
 22 20  2  0  0  0  0
 23 22  1  0  0  0  0
 23 16  2  0  0  0  0
M  END
>  <minimizedAffinity>
-5.11116457

>  <minimizedRMSD>
3.6687541

$$$$
