
 OpenBabel03212520463D

 23 25  0  0  0  0  0  0  0  0999 V2000
   37.6340   74.3900   57.4770 C   0  0  0  0  0  0  0  0  0  0  0  0
   37.7940   75.7770   57.3360 C   0  0  0  0  0  0  0  0  0  0  0  0
   38.7280   76.4420   58.1610 C   0  0  0  0  0  0  0  0  0  0  0  0
   39.4120   75.6810   59.0430 N   0  0  0  0  0  0  0  0  0  0  0  0
   39.2370   74.3520   59.1560 C   0  0  0  0  0  0  0  0  0  0  0  0
   38.3590   73.7130   58.3820 N   0  0  0  0  0  0  0  0  0  0  0  0
   36.6640   73.8790   56.5810 N   0  0  0  0  0  0  0  0  0  0  0  0
   37.2590   76.4130   56.6380 H   0  0  0  0  0  0  0  0  0  0  0  0
   38.8760   77.5050   58.0790 H   0  0  0  0  0  0  0  0  0  0  0  0
   36.7720   73.1870   55.8030 H   0  0  0  0  0  0  0  0  0  0  0  0
   35.6450   74.1650   56.6030 H   0  0  0  0  0  0  0  0  0  0  0  0
   40.0080   73.6360   60.1180 N   0  0  0  0  0  0  0  0  0  0  0  0
   39.5410   73.2610   61.3280 C   0  0  0  0  0  0  0  0  0  0  0  0
   38.5630   73.4220   61.7660 H   0  0  0  0  0  0  0  0  0  0  0  0
   40.5620   72.6090   61.9430 N   0  0  0  0  0  0  0  0  0  0  0  0
   41.6240   72.5890   61.1250 C   0  0  0  0  0  0  0  0  0  0  0  0
   42.8880   72.0340   61.3270 C   0  0  0  0  0  0  0  0  0  0  0  0
   43.1780   71.5160   62.2380 H   0  0  0  0  0  0  0  0  0  0  0  0
   43.7450   72.1840   60.2980 N   0  0  0  0  0  0  0  0  0  0  0  0
   43.4290   72.8180   59.1500 C   0  0  0  0  0  0  0  0  0  0  0  0
   44.1660   72.9020   58.3640 H   0  0  0  0  0  0  0  0  0  0  0  0
   42.1930   73.3590   58.9540 N   0  0  0  0  0  0  0  0  0  0  0  0
   41.2910   73.2380   59.9570 C   0  0  0  0  0  0  0  0  0  0  0  0
  1  6  1  0  0  0  0
  2  1  2  0  0  0  0
  2  3  1  0  0  0  0
  3  4  2  0  0  0  0
  4  5  1  0  0  0  0
  5 12  1  0  0  0  0
  6  5  2  0  0  0  0
  7 11  1  0  0  0  0
  7  1  1  0  0  0  0
  8  2  1  0  0  0  0
  9  3  1  0  0  0  0
 10  7  1  0  0  0  0
 12 13  1  0  0  0  0
 13 14  1  0  0  0  0
 13 15  2  0  0  0  0
 16 17  1  0  0  0  0
 16 15  1  0  0  0  0
 17 18  1  0  0  0  0
 19 17  2  0  0  0  0
 20 19  1  0  0  0  0
 21 20  1  0  0  0  0
 22 20  2  0  0  0  0
 22 23  1  0  0  0  0
 23 12  1  0  0  0  0
 23 16  2  0  0  0  0
M  END
>  <minimizedAffinity>
-5.32057476

$$$$

 OpenBabel03212520463D

 23 25  0  0  0  0  0  0  0  0999 V2000
   39.0960   75.8890   60.3440 C   0  0  0  0  0  0  0  0  0  0  0  0
   40.0670   76.8970   60.4400 C   0  0  0  0  0  0  0  0  0  0  0  0
   40.6520   77.3960   59.2540 C   0  0  0  0  0  0  0  0  0  0  0  0
   40.2260   76.8560   58.0920 N   0  0  0  0  0  0  0  0  0  0  0  0
   39.2920   75.8890   58.0300 C   0  0  0  0  0  0  0  0  0  0  0  0
   38.7330   75.4110   59.1430 N   0  0  0  0  0  0  0  0  0  0  0  0
   38.6130   75.5020   61.6170 N   0  0  0  0  0  0  0  0  0  0  0  0
   40.4290   77.3490   61.3590 H   0  0  0  0  0  0  0  0  0  0  0  0
   41.4000   78.1690   59.2920 H   0  0  0  0  0  0  0  0  0  0  0  0
   37.6470   75.5690   62.0130 H   0  0  0  0  0  0  0  0  0  0  0  0
   39.2260   75.0680   62.3640 H   0  0  0  0  0  0  0  0  0  0  0  0
   38.9090   75.3830   56.7540 N   0  0  0  0  0  0  0  0  0  0  0  0
   39.3720   74.2270   56.2320 C   0  0  0  0  0  0  0  0  0  0  0  0
   40.0730   73.5160   56.6540 H   0  0  0  0  0  0  0  0  0  0  0  0
   38.7790   74.0940   55.0180 N   0  0  0  0  0  0  0  0  0  0  0  0
   37.9740   75.1450   54.8070 C   0  0  0  0  0  0  0  0  0  0  0  0
   37.1670   75.4370   53.7060 C   0  0  0  0  0  0  0  0  0  0  0  0
   37.0930   74.7980   52.8300 H   0  0  0  0  0  0  0  0  0  0  0  0
   36.4700   76.5860   53.8030 N   0  0  0  0  0  0  0  0  0  0  0  0
   36.5300   77.4080   54.8700 C   0  0  0  0  0  0  0  0  0  0  0  0
   35.9420   78.3160   54.8820 H   0  0  0  0  0  0  0  0  0  0  0  0
   37.3190   77.1210   55.9440 N   0  0  0  0  0  0  0  0  0  0  0  0
   38.0430   75.9780   55.9020 C   0  0  0  0  0  0  0  0  0  0  0  0
  1  2  1  0  0  0  0
  1  7  1  0  0  0  0
  2  8  1  0  0  0  0
  3  9  1  0  0  0  0
  3  2  2  0  0  0  0
  4  3  1  0  0  0  0
  5  4  2  0  0  0  0
  5  6  1  0  0  0  0
  6  1  2  0  0  0  0
  7 10  1  0  0  0  0
  7 11  1  0  0  0  0
 12  5  1  0  0  0  0
 13 14  1  0  0  0  0
 13 12  1  0  0  0  0
 15 13  2  0  0  0  0
 16 15  1  0  0  0  0
 16 23  1  0  0  0  0
 17 19  1  0  0  0  0
 17 16  2  0  0  0  0
 18 17  1  0  0  0  0
 19 20  2  0  0  0  0
 20 21  1  0  0  0  0
 20 22  1  0  0  0  0
 23 22  2  0  0  0  0
 23 12  1  0  0  0  0
M  END
>  <minimizedAffinity>
-5.2013669

$$$$

 OpenBabel03212520463D

 23 25  0  0  0  0  0  0  0  0999 V2000
   37.6320   75.1010   54.2040 C   0  0  0  0  0  0  0  0  0  0  0  0
   38.7020   74.4480   53.5730 C   0  0  0  0  0  0  0  0  0  0  0  0
   39.9410   74.3620   54.2460 C   0  0  0  0  0  0  0  0  0  0  0  0
   40.0070   74.9250   55.4730 N   0  0  0  0  0  0  0  0  0  0  0  0
   38.9640   75.5450   56.0530 C   0  0  0  0  0  0  0  0  0  0  0  0
   37.7900   75.6320   55.4270 N   0  0  0  0  0  0  0  0  0  0  0  0
   36.4670   75.1000   53.3990 N   0  0  0  0  0  0  0  0  0  0  0  0
   38.6780   73.9880   52.5900 H   0  0  0  0  0  0  0  0  0  0  0  0
   40.7820   73.8680   53.7910 H   0  0  0  0  0  0  0  0  0  0  0  0
   35.5310   74.6680   53.5780 H   0  0  0  0  0  0  0  0  0  0  0  0
   36.4150   75.5750   52.4540 H   0  0  0  0  0  0  0  0  0  0  0  0
   39.1340   76.1080   57.3510 N   0  0  0  0  0  0  0  0  0  0  0  0
   39.3540   77.4200   57.5800 C   0  0  0  0  0  0  0  0  0  0  0  0
   39.4370   78.2360   56.8710 H   0  0  0  0  0  0  0  0  0  0  0  0
   39.4600   77.5590   58.9270 N   0  0  0  0  0  0  0  0  0  0  0  0
   39.3080   76.3580   59.5030 C   0  0  0  0  0  0  0  0  0  0  0  0
   39.3390   76.0120   60.8550 C   0  0  0  0  0  0  0  0  0  0  0  0
   39.5010   76.7310   61.6550 H   0  0  0  0  0  0  0  0  0  0  0  0
   39.1500   74.7030   61.1110 N   0  0  0  0  0  0  0  0  0  0  0  0
   38.9450   73.7770   60.1520 C   0  0  0  0  0  0  0  0  0  0  0  0
   38.7990   72.7420   60.4280 H   0  0  0  0  0  0  0  0  0  0  0  0
   38.9150   74.1160   58.8320 N   0  0  0  0  0  0  0  0  0  0  0  0
   39.0990   75.4200   58.5160 C   0  0  0  0  0  0  0  0  0  0  0  0
  1  6  1  0  0  0  0
  2  1  2  0  0  0  0
  2  3  1  0  0  0  0
  3  4  2  0  0  0  0
  4  5  1  0  0  0  0
  5 12  1  0  0  0  0
  6  5  2  0  0  0  0
  7 10  1  0  0  0  0
  7  1  1  0  0  0  0
  8  2  1  0  0  0  0
  9  3  1  0  0  0  0
 11  7  1  0  0  0  0
 12 13  1  0  0  0  0
 12 23  1  0  0  0  0
 13 15  2  0  0  0  0
 14 13  1  0  0  0  0
 15 16  1  0  0  0  0
 16 17  1  0  0  0  0
 17 19  2  0  0  0  0
 17 18  1  0  0  0  0
 20 21  1  0  0  0  0
 20 19  1  0  0  0  0
 22 20  2  0  0  0  0
 23 22  1  0  0  0  0
 23 16  2  0  0  0  0
M  END
>  <minimizedAffinity>
-5.17987251

$$$$

 OpenBabel03212520463D

 23 25  0  0  0  0  0  0  0  0999 V2000
   38.0790   75.0150   53.9270 C   0  0  0  0  0  0  0  0  0  0  0  0
   37.1130   75.9720   53.5810 C   0  0  0  0  0  0  0  0  0  0  0  0
   36.4670   76.6920   54.6120 C   0  0  0  0  0  0  0  0  0  0  0  0
   36.8350   76.4020   55.8790 N   0  0  0  0  0  0  0  0  0  0  0  0
   37.7650   75.4780   56.1810 C   0  0  0  0  0  0  0  0  0  0  0  0
   38.3810   74.7930   55.2160 N   0  0  0  0  0  0  0  0  0  0  0  0
   38.6280   74.3850   52.7840 N   0  0  0  0  0  0  0  0  0  0  0  0
   36.7980   76.2250   52.5740 H   0  0  0  0  0  0  0  0  0  0  0  0
   35.7220   77.4330   54.3810 H   0  0  0  0  0  0  0  0  0  0  0  0
   39.6130   74.3820   52.4310 H   0  0  0  0  0  0  0  0  0  0  0  0
   38.0540   73.8030   52.1100 H   0  0  0  0  0  0  0  0  0  0  0  0
   38.0830   75.2450   57.5500 N   0  0  0  0  0  0  0  0  0  0  0  0
   37.5960   74.2110   58.2710 C   0  0  0  0  0  0  0  0  0  0  0  0
   36.9180   73.4220   57.9660 H   0  0  0  0  0  0  0  0  0  0  0  0
   38.1260   74.3330   59.5150 N   0  0  0  0  0  0  0  0  0  0  0  0
   38.9180   75.4140   59.5490 C   0  0  0  0  0  0  0  0  0  0  0  0
   39.6670   75.9310   60.6070 C   0  0  0  0  0  0  0  0  0  0  0  0
   39.6970   75.4830   61.5970 H   0  0  0  0  0  0  0  0  0  0  0  0
   40.3670   77.0450   60.3160 N   0  0  0  0  0  0  0  0  0  0  0  0
   40.3600   77.6350   59.1030 C   0  0  0  0  0  0  0  0  0  0  0  0
   40.9460   78.5290   58.9380 H   0  0  0  0  0  0  0  0  0  0  0  0
   39.6280   77.1290   58.0710 N   0  0  0  0  0  0  0  0  0  0  0  0
   38.9040   76.0090   58.3070 C   0  0  0  0  0  0  0  0  0  0  0  0
  1  6  1  0  0  0  0
  2  1  2  0  0  0  0
  2  3  1  0  0  0  0
  3  4  2  0  0  0  0
  4  5  1  0  0  0  0
  5 12  1  0  0  0  0
  6  5  2  0  0  0  0
  7  1  1  0  0  0  0
  8  2  1  0  0  0  0
  9  3  1  0  0  0  0
 10  7  1  0  0  0  0
 11  7  1  0  0  0  0
 12 13  1  0  0  0  0
 12 23  1  0  0  0  0
 13 15  2  0  0  0  0
 14 13  1  0  0  0  0
 15 16  1  0  0  0  0
 16 17  1  0  0  0  0
 17 18  1  0  0  0  0
 19 17  2  0  0  0  0
 20 19  1  0  0  0  0
 21 20  1  0  0  0  0
 22 23  1  0  0  0  0
 22 20  2  0  0  0  0
 23 16  2  0  0  0  0
M  END
>  <minimizedAffinity>
-5.06199265

$$$$

 OpenBabel03212520463D

 23 25  0  0  0  0  0  0  0  0999 V2000
   37.2470   75.4440   56.1870 C   0  0  0  0  0  0  0  0  0  0  0  0
   37.5570   76.8040   56.0350 C   0  0  0  0  0  0  0  0  0  0  0  0
   38.3280   77.4430   57.0320 C   0  0  0  0  0  0  0  0  0  0  0  0
   38.7190   76.6840   58.0790 N   0  0  0  0  0  0  0  0  0  0  0  0
   38.4070   75.3810   58.1980 C   0  0  0  0  0  0  0  0  0  0  0  0
   37.6790   74.7670   57.2640 N   0  0  0  0  0  0  0  0  0  0  0  0
   36.4720   74.9570   55.1080 N   0  0  0  0  0  0  0  0  0  0  0  0
   37.2570   77.4370   55.2060 H   0  0  0  0  0  0  0  0  0  0  0  0
   38.5830   78.4850   56.9460 H   0  0  0  0  0  0  0  0  0  0  0  0
   36.6960   74.2150   54.4050 H   0  0  0  0  0  0  0  0  0  0  0  0
   35.5040   75.3210   54.8780 H   0  0  0  0  0  0  0  0  0  0  0  0
   38.8670   74.6660   59.3420 N   0  0  0  0  0  0  0  0  0  0  0  0
   38.1000   74.3980   60.4210 C   0  0  0  0  0  0  0  0  0  0  0  0
   37.0650   74.6580   60.6090 H   0  0  0  0  0  0  0  0  0  0  0  0
   38.8890   73.7070   61.2850 N   0  0  0  0  0  0  0  0  0  0  0  0
   40.1060   73.5590   60.7420 C   0  0  0  0  0  0  0  0  0  0  0  0
   41.2350   72.9220   61.2590 C   0  0  0  0  0  0  0  0  0  0  0  0
   41.2590   72.4380   62.2320 H   0  0  0  0  0  0  0  0  0  0  0  0
   42.3180   72.9460   60.4570 N   0  0  0  0  0  0  0  0  0  0  0  0
   42.3340   73.5350   59.2430 C   0  0  0  0  0  0  0  0  0  0  0  0
   43.2380   73.5170   58.6500 H   0  0  0  0  0  0  0  0  0  0  0  0
   41.2300   74.1560   58.7400 N   0  0  0  0  0  0  0  0  0  0  0  0
   40.1120   74.1630   59.5040 C   0  0  0  0  0  0  0  0  0  0  0  0
  1  6  1  0  0  0  0
  2  1  2  0  0  0  0
  2  3  1  0  0  0  0
  3  4  2  0  0  0  0
  4  5  1  0  0  0  0
  5 12  1  0  0  0  0
  6  5  2  0  0  0  0
  7  1  1  0  0  0  0
  8  2  1  0  0  0  0
  9  3  1  0  0  0  0
 10  7  1  0  0  0  0
 11  7  1  0  0  0  0
 12 23  1  0  0  0  0
 12 13  1  0  0  0  0
 13 14  1  0  0  0  0
 13 15  2  0  0  0  0
 16 17  1  0  0  0  0
 16 15  1  0  0  0  0
 17 18  1  0  0  0  0
 19 17  2  0  0  0  0
 20 19  1  0  0  0  0
 21 20  1  0  0  0  0
 22 20  2  0  0  0  0
 22 23  1  0  0  0  0
 23 16  2  0  0  0  0
M  END
>  <minimizedAffinity>
-4.99719334

$$$$

 OpenBabel03212520463D

 23 25  0  0  0  0  0  0  0  0999 V2000
   39.5970   75.1610   61.0930 C   0  0  0  0  0  0  0  0  0  0  0  0
   40.2070   76.0510   60.1950 C   0  0  0  0  0  0  0  0  0  0  0  0
   41.3800   75.6440   59.5210 C   0  0  0  0  0  0  0  0  0  0  0  0
   41.8390   74.4030   59.7950 N   0  0  0  0  0  0  0  0  0  0  0  0
   41.2330   73.5700   60.6610 C   0  0  0  0  0  0  0  0  0  0  0  0
   40.1250   73.9440   61.3020 N   0  0  0  0  0  0  0  0  0  0  0  0
   38.4370   75.7190   61.6810 N   0  0  0  0  0  0  0  0  0  0  0  0
   39.8610   77.0520   59.9560 H   0  0  0  0  0  0  0  0  0  0  0  0
   41.8730   76.3020   58.8270 H   0  0  0  0  0  0  0  0  0  0  0  0
   37.4410   75.4060   61.6210 H   0  0  0  0  0  0  0  0  0  0  0  0
   38.4560   76.5830   62.2940 H   0  0  0  0  0  0  0  0  0  0  0  0
   41.7960   72.2800   60.8820 N   0  0  0  0  0  0  0  0  0  0  0  0
   42.5650   71.9650   61.9470 C   0  0  0  0  0  0  0  0  0  0  0  0
   42.8780   72.5900   62.7750 H   0  0  0  0  0  0  0  0  0  0  0  0
   42.9020   70.6580   61.8000 N   0  0  0  0  0  0  0  0  0  0  0  0
   42.3500   70.1890   60.6720 C   0  0  0  0  0  0  0  0  0  0  0  0
   42.4210   68.9110   60.1150 C   0  0  0  0  0  0  0  0  0  0  0  0
   42.9720   68.0890   60.5650 H   0  0  0  0  0  0  0  0  0  0  0  0
   41.7470   68.7580   58.9580 N   0  0  0  0  0  0  0  0  0  0  0  0
   41.0500   69.7470   58.3630 C   0  0  0  0  0  0  0  0  0  0  0  0
   40.5310   69.5550   57.4340 H   0  0  0  0  0  0  0  0  0  0  0  0
   40.9810   70.9950   58.9090 N   0  0  0  0  0  0  0  0  0  0  0  0
   41.6410   71.2070   60.0730 C   0  0  0  0  0  0  0  0  0  0  0  0
  1  6  1  0  0  0  0
  1  7  1  0  0  0  0
  2  1  2  0  0  0  0
  3  4  2  0  0  0  0
  3  2  1  0  0  0  0
  4  5  1  0  0  0  0
  5 12  1  0  0  0  0
  5  6  2  0  0  0  0
  7 11  1  0  0  0  0
  8  2  1  0  0  0  0
  9  3  1  0  0  0  0
 10  7  1  0  0  0  0
 12 13  1  0  0  0  0
 13 14  1  0  0  0  0
 15 13  2  0  0  0  0
 16 15  1  0  0  0  0
 17 18  1  0  0  0  0
 17 16  1  0  0  0  0
 19 17  2  0  0  0  0
 20 22  2  0  0  0  0
 20 19  1  0  0  0  0
 21 20  1  0  0  0  0
 22 23  1  0  0  0  0
 23 16  2  0  0  0  0
 23 12  1  0  0  0  0
M  END
>  <minimizedAffinity>
-4.8513093

$$$$

 OpenBabel03212520463D

 23 25  0  0  0  0  0  0  0  0999 V2000
   40.1160   73.8060   59.9040 C   0  0  0  0  0  0  0  0  0  0  0  0
   39.7880   74.5460   61.0500 C   0  0  0  0  0  0  0  0  0  0  0  0
   39.4750   75.9170   60.9100 C   0  0  0  0  0  0  0  0  0  0  0  0
   39.5140   76.4250   59.6590 N   0  0  0  0  0  0  0  0  0  0  0  0
   39.8310   75.6910   58.5780 C   0  0  0  0  0  0  0  0  0  0  0  0
   40.1290   74.3970   58.6980 N   0  0  0  0  0  0  0  0  0  0  0  0
   40.4030   72.4550   60.2140 N   0  0  0  0  0  0  0  0  0  0  0  0
   39.7500   74.1650   62.0660 H   0  0  0  0  0  0  0  0  0  0  0  0
   39.2200   76.5130   61.7690 H   0  0  0  0  0  0  0  0  0  0  0  0
   39.9130   71.5820   59.9120 H   0  0  0  0  0  0  0  0  0  0  0  0
   41.2090   72.1610   60.8350 H   0  0  0  0  0  0  0  0  0  0  0  0
   39.8440   76.3210   57.2990 N   0  0  0  0  0  0  0  0  0  0  0  0
   40.9670   76.7420   56.6790 C   0  0  0  0  0  0  0  0  0  0  0  0
   41.9970   76.6880   57.0120 H   0  0  0  0  0  0  0  0  0  0  0  0
   40.5690   77.2800   55.4970 N   0  0  0  0  0  0  0  0  0  0  0  0
   39.2350   77.1860   55.4020 C   0  0  0  0  0  0  0  0  0  0  0  0
   38.3880   77.6020   54.3730 C   0  0  0  0  0  0  0  0  0  0  0  0
   38.7390   78.0840   53.4640 H   0  0  0  0  0  0  0  0  0  0  0  0
   37.0790   77.3610   54.5830 N   0  0  0  0  0  0  0  0  0  0  0  0
   36.5990   76.7660   55.6930 C   0  0  0  0  0  0  0  0  0  0  0  0
   35.5350   76.6030   55.7970 H   0  0  0  0  0  0  0  0  0  0  0  0
   37.4270   76.3600   56.6970 N   0  0  0  0  0  0  0  0  0  0  0  0
   38.7550   76.5780   56.5400 C   0  0  0  0  0  0  0  0  0  0  0  0
  1  7  1  0  0  0  0
  1  2  1  0  0  0  0
  2  8  1  0  0  0  0
  3  2  2  0  0  0  0
  3  9  1  0  0  0  0
  4  3  1  0  0  0  0
  5  6  1  0  0  0  0
  5  4  2  0  0  0  0
  6  1  2  0  0  0  0
  7 11  1  0  0  0  0
 10  7  1  0  0  0  0
 12  5  1  0  0  0  0
 13 14  1  0  0  0  0
 13 12  1  0  0  0  0
 15 13  2  0  0  0  0
 16 15  1  0  0  0  0
 16 23  1  0  0  0  0
 17 19  1  0  0  0  0
 17 16  2  0  0  0  0
 18 17  1  0  0  0  0
 19 20  2  0  0  0  0
 20 21  1  0  0  0  0
 20 22  1  0  0  0  0
 23 22  2  0  0  0  0
 23 12  1  0  0  0  0
M  END
>  <minimizedAffinity>
-4.7521925

$$$$

 OpenBabel03212520463D

 23 25  0  0  0  0  0  0  0  0999 V2000
   37.7300   77.0210   56.1820 C   0  0  0  0  0  0  0  0  0  0  0  0
   38.7750   77.4980   55.3760 C   0  0  0  0  0  0  0  0  0  0  0  0
   40.1030   77.3930   55.8480 C   0  0  0  0  0  0  0  0  0  0  0  0
   40.2730   76.8300   57.0640 N   0  0  0  0  0  0  0  0  0  0  0  0
   39.2510   76.3820   57.8150 C   0  0  0  0  0  0  0  0  0  0  0  0
   37.9940   76.4750   57.3800 N   0  0  0  0  0  0  0  0  0  0  0  0
   36.4670   77.2000   55.5670 N   0  0  0  0  0  0  0  0  0  0  0  0
   38.6670   77.9540   54.3960 H   0  0  0  0  0  0  0  0  0  0  0  0
   40.9270   77.7490   55.2550 H   0  0  0  0  0  0  0  0  0  0  0  0
   35.7640   76.4870   55.2660 H   0  0  0  0  0  0  0  0  0  0  0  0
   36.0680   78.1520   55.3270 H   0  0  0  0  0  0  0  0  0  0  0  0
   39.5350   75.8030   59.0860 N   0  0  0  0  0  0  0  0  0  0  0  0
   39.4060   76.4610   60.2590 C   0  0  0  0  0  0  0  0  0  0  0  0
   39.0870   77.4800   60.4420 H   0  0  0  0  0  0  0  0  0  0  0  0
   39.7650   75.5810   61.2290 N   0  0  0  0  0  0  0  0  0  0  0  0
   40.1030   74.4150   60.6590 C   0  0  0  0  0  0  0  0  0  0  0  0
   40.5350   73.2290   61.2550 C   0  0  0  0  0  0  0  0  0  0  0  0
   40.6540   73.1050   62.3280 H   0  0  0  0  0  0  0  0  0  0  0  0
   40.7990   72.2260   60.3960 N   0  0  0  0  0  0  0  0  0  0  0  0
   40.6650   72.3340   59.0580 C   0  0  0  0  0  0  0  0  0  0  0  0
   40.8950   71.4880   58.4260 H   0  0  0  0  0  0  0  0  0  0  0  0
   40.2440   73.4940   58.4780 N   0  0  0  0  0  0  0  0  0  0  0  0
   39.9630   74.5370   59.2940 C   0  0  0  0  0  0  0  0  0  0  0  0
  1  6  1  0  0  0  0
  2  3  1  0  0  0  0
  2  1  2  0  0  0  0
  3  4  2  0  0  0  0
  4  5  1  0  0  0  0
  5 12  1  0  0  0  0
  6  5  2  0  0  0  0
  7  1  1  0  0  0  0
  8  2  1  0  0  0  0
  9  3  1  0  0  0  0
 10  7  1  0  0  0  0
 11  7  1  0  0  0  0
 12 23  1  0  0  0  0
 12 13  1  0  0  0  0
 13 14  1  0  0  0  0
 13 15  2  0  0  0  0
 16 15  1  0  0  0  0
 16 17  1  0  0  0  0
 17 18  1  0  0  0  0
 19 17  2  0  0  0  0
 20 19  1  0  0  0  0
 21 20  1  0  0  0  0
 22 20  2  0  0  0  0
 22 23  1  0  0  0  0
 23 16  2  0  0  0  0
M  END
>  <minimizedAffinity>
-4.743783

$$$$

 OpenBabel03212520463D

 23 25  0  0  0  0  0  0  0  0999 V2000
   42.0980   73.3240   60.2530 C   0  0  0  0  0  0  0  0  0  0  0  0
   41.4060   72.7520   61.3310 C   0  0  0  0  0  0  0  0  0  0  0  0
   40.0920   73.1910   61.6080 C   0  0  0  0  0  0  0  0  0  0  0  0
   39.5860   74.1470   60.7980 N   0  0  0  0  0  0  0  0  0  0  0  0
   40.2730   74.6770   59.7710 C   0  0  0  0  0  0  0  0  0  0  0  0
   41.5150   74.2700   59.5000 N   0  0  0  0  0  0  0  0  0  0  0  0
   43.3960   72.7770   60.1110 N   0  0  0  0  0  0  0  0  0  0  0  0
   41.7860   71.9840   61.9980 H   0  0  0  0  0  0  0  0  0  0  0  0
   39.5340   72.7730   62.4280 H   0  0  0  0  0  0  0  0  0  0  0  0
   43.8100   72.2350   59.3170 H   0  0  0  0  0  0  0  0  0  0  0  0
   44.1470   72.8650   60.8530 H   0  0  0  0  0  0  0  0  0  0  0  0
   39.6520   75.6820   58.9740 N   0  0  0  0  0  0  0  0  0  0  0  0
   39.8850   77.0050   59.1140 C   0  0  0  0  0  0  0  0  0  0  0  0
   40.5400   77.5160   59.8090 H   0  0  0  0  0  0  0  0  0  0  0  0
   39.1150   77.6270   58.1840 N   0  0  0  0  0  0  0  0  0  0  0  0
   38.4310   76.7030   57.4940 C   0  0  0  0  0  0  0  0  0  0  0  0
   37.5220   76.8700   56.4490 C   0  0  0  0  0  0  0  0  0  0  0  0
   37.2440   77.8400   56.0430 H   0  0  0  0  0  0  0  0  0  0  0  0
   36.9990   75.7270   55.9630 N   0  0  0  0  0  0  0  0  0  0  0  0
   37.3140   74.5030   56.4330 C   0  0  0  0  0  0  0  0  0  0  0  0
   36.8570   73.6260   55.9960 H   0  0  0  0  0  0  0  0  0  0  0  0
   38.2020   74.3410   57.4550 N   0  0  0  0  0  0  0  0  0  0  0  0
   38.7590   75.4570   57.9830 C   0  0  0  0  0  0  0  0  0  0  0  0
  1  2  1  0  0  0  0
  2  3  2  0  0  0  0
  2  8  1  0  0  0  0
  3  9  1  0  0  0  0
  4  3  1  0  0  0  0
  5  4  2  0  0  0  0
  6  5  1  0  0  0  0
  6  1  2  0  0  0  0
  7  1  1  0  0  0  0
  7 11  1  0  0  0  0
 10  7  1  0  0  0  0
 12 13  1  0  0  0  0
 12  5  1  0  0  0  0
 13 14  1  0  0  0  0
 15 13  2  0  0  0  0
 16 23  1  0  0  0  0
 16 15  1  0  0  0  0
 17 16  2  0  0  0  0
 18 17  1  0  0  0  0
 19 20  2  0  0  0  0
 19 17  1  0  0  0  0
 20 22  1  0  0  0  0
 21 20  1  0  0  0  0
 22 23  2  0  0  0  0
 23 12  1  0  0  0  0
M  END
>  <minimizedAffinity>
-4.71523714

$$$$
