
 OpenBabel03212520313D

 44 48  0  0  0  0  0  0  0  0999 V2000
   42.8480   82.1250   62.5570 C   0  0  0  0  0  0  0  0  0  0  0  0
   43.4360   81.0980   61.8460 C   0  0  0  0  0  0  0  0  0  0  0  0
   44.8000   80.8900   61.9120 C   0  0  0  0  0  0  0  0  0  0  0  0
   45.6480   81.6800   62.6800 C   0  0  0  0  0  0  0  0  0  0  0  0
   45.0850   82.7070   63.3980 C   0  0  0  0  0  0  0  0  0  0  0  0
   43.7140   82.9210   63.3340 C   0  0  0  0  0  0  0  0  0  0  0  0
   45.2570   80.0870   61.3540 H   0  0  0  0  0  0  0  0  0  0  0  0
   46.7120   81.4860   62.7080 H   0  0  0  0  0  0  0  0  0  0  0  0
   45.6970   83.3450   64.0070 H   0  0  0  0  0  0  0  0  0  0  0  0
   43.2560   83.7330   63.8980 H   0  0  0  0  0  0  0  0  0  0  0  0
   41.5640   78.1580   60.6250 C   0  0  0  0  0  0  0  0  0  0  0  0
   41.1390   78.5860   59.3630 C   0  0  0  0  0  0  0  0  0  0  0  0
   41.5150   79.8760   58.9750 C   0  0  0  0  0  0  0  0  0  0  0  0
   42.2580   80.6260   59.8320 N   0  0  0  0  0  0  0  0  0  0  0  0
   42.6470   80.1970   61.0210 C   0  0  0  0  0  0  0  0  0  0  0  0
   42.2950   78.9570   61.4120 N   0  0  0  0  0  0  0  0  0  0  0  0
   41.3040   77.1750   60.9750 H   0  0  0  0  0  0  0  0  0  0  0  0
   41.2190   80.2570   58.0200 H   0  0  0  0  0  0  0  0  0  0  0  0
   40.3670   77.7410   58.5320 N   0  0  0  0  0  0  0  0  0  0  0  0
   39.1540   77.4670   59.0260 C   0  0  0  0  0  0  0  0  0  0  0  0
   38.3060   76.6410   58.2950 C   0  0  0  0  0  0  0  0  0  0  0  0
   38.7410   76.1330   57.0840 C   0  0  0  0  0  0  0  0  0  0  0  0
   38.0880   75.3790   56.3220 O   0  0  0  0  0  0  0  0  0  0  0  0
   39.9980   76.4610   56.6470 N   0  0  0  0  0  0  0  0  0  0  0  0
   40.8240   77.2700   57.3670 C   0  0  0  0  0  0  0  0  0  0  0  0
   41.9640   77.5720   56.9760 O   0  0  0  0  0  0  0  0  0  0  0  0
   38.7680   77.8400   59.9670 H   0  0  0  0  0  0  0  0  0  0  0  0
   37.3130   76.3680   58.6180 H   0  0  0  0  0  0  0  0  0  0  0  0
   40.4280   76.1280   55.7380 H   0  0  0  0  0  0  0  0  0  0  0  0
   41.1470   82.4230   62.4890 S   0  0  0  0  0  0  0  0  0  0  0  0
   40.6610   82.9610   63.8090 O   0  0  0  0  0  0  0  0  0  0  0  0
   40.4610   81.0680   62.3640 O   0  0  0  0  0  0  0  0  0  0  0  0
   38.6420   83.9620   61.4410 H   0  0  0  0  0  0  0  0  0  0  0  0
   39.4930   84.1510   60.8730 N   0  0  0  0  0  0  0  0  0  0  0  0
   40.6260   83.5100   61.2570 C   0  0  0  0  0  0  0  0  0  0  0  0
   41.5810   83.9190   60.3690 N   0  0  0  0  0  0  0  0  0  0  0  0
   41.0600   84.7620   59.4920 C   0  0  0  0  0  0  0  0  0  0  0  0
   41.4650   85.5000   58.3950 C   0  0  0  0  0  0  0  0  0  0  0  0
   42.5110   85.4230   58.0920 H   0  0  0  0  0  0  0  0  0  0  0  0
   40.6350   86.3080   57.6840 N   0  0  0  0  0  0  0  0  0  0  0  0
   39.3440   86.4270   58.0270 C   0  0  0  0  0  0  0  0  0  0  0  0
   38.5680   87.0150   57.5720 H   0  0  0  0  0  0  0  0  0  0  0  0
   38.8940   85.7170   59.1030 N   0  0  0  0  0  0  0  0  0  0  0  0
   39.7250   84.9230   59.8000 C   0  0  0  0  0  0  0  0  0  0  0  0
  1  6  1  0  0  0  0
  2  3  1  0  0  0  0
  2  1  2  0  0  0  0
  3  4  2  0  0  0  0
  4  8  1  0  0  0  0
  4  5  1  0  0  0  0
  5  9  1  0  0  0  0
  6  5  2  0  0  0  0
  6 10  1  0  0  0  0
  7  3  1  0  0  0  0
 11 17  1  0  0  0  0
 11 16  1  0  0  0  0
 12 11  2  0  0  0  0
 13 12  1  0  0  0  0
 13 14  2  0  0  0  0
 14 15  1  0  0  0  0
 15 16  2  0  0  0  0
 15  2  1  0  0  0  0
 18 13  1  0  0  0  0
 19 20  1  0  0  0  0
 19 12  1  0  0  0  0
 20 27  1  0  0  0  0
 21 28  1  0  0  0  0
 21 20  2  0  0  0  0
 22 21  1  0  0  0  0
 23 22  2  0  0  0  0
 24 22  1  0  0  0  0
 24 25  1  0  0  0  0
 25 19  1  0  0  0  0
 26 25  2  0  0  0  0
 29 24  1  0  0  0  0
 30  1  1  0  0  0  0
 30 31  2  0  0  0  0
 32 30  2  0  0  0  0
 34 35  1  0  0  0  0
 34 33  1  0  0  0  0
 35 30  1  0  0  0  0
 36 35  2  0  0  0  0
 37 44  1  0  0  0  0
 37 36  1  0  0  0  0
 38 37  2  0  0  0  0
 39 38  1  0  0  0  0
 40 41  2  0  0  0  0
 40 38  1  0  0  0  0
 41 43  1  0  0  0  0
 42 41  1  0  0  0  0
 43 44  2  0  0  0  0
 44 34  1  0  0  0  0
M  END
>  <minimizedAffinity>
-7.22300577

>  <minimizedRMSD>
2.50843978

$$$$
