
 OpenBabel03212520323D

 44 48  0  0  0  0  0  0  0  0999 V2000
   42.6140   83.8840   62.1540 C   0  0  0  0  0  0  0  0  0  0  0  0
   42.1660   82.6480   62.5710 C   0  0  0  0  0  0  0  0  0  0  0  0
   41.2130   82.5470   63.5670 C   0  0  0  0  0  0  0  0  0  0  0  0
   40.6570   83.6560   64.1950 C   0  0  0  0  0  0  0  0  0  0  0  0
   41.0880   84.8970   63.7940 C   0  0  0  0  0  0  0  0  0  0  0  0
   42.0470   85.0040   62.7950 C   0  0  0  0  0  0  0  0  0  0  0  0
   40.8640   81.5790   63.8920 H   0  0  0  0  0  0  0  0  0  0  0  0
   39.9120   83.5380   64.9710 H   0  0  0  0  0  0  0  0  0  0  0  0
   40.6890   85.7840   64.2480 H   0  0  0  0  0  0  0  0  0  0  0  0
   42.3960   85.9830   62.4680 H   0  0  0  0  0  0  0  0  0  0  0  0
   42.5570   79.6810   60.4090 C   0  0  0  0  0  0  0  0  0  0  0  0
   43.7130   79.0900   60.9300 C   0  0  0  0  0  0  0  0  0  0  0  0
   44.3180   79.7350   62.0130 C   0  0  0  0  0  0  0  0  0  0  0  0
   43.7570   80.8800   62.4870 N   0  0  0  0  0  0  0  0  0  0  0  0
   42.6630   81.4190   61.9760 C   0  0  0  0  0  0  0  0  0  0  0  0
   42.0670   80.8110   60.9320 N   0  0  0  0  0  0  0  0  0  0  0  0
   42.0510   79.2270   59.5750 H   0  0  0  0  0  0  0  0  0  0  0  0
   45.2040   79.3290   62.4530 H   0  0  0  0  0  0  0  0  0  0  0  0
   44.2310   77.8960   60.3750 N   0  0  0  0  0  0  0  0  0  0  0  0
   45.0010   78.0950   59.2990 C   0  0  0  0  0  0  0  0  0  0  0  0
   45.5630   76.9900   58.6670 C   0  0  0  0  0  0  0  0  0  0  0  0
   45.3120   75.7260   59.1710 C   0  0  0  0  0  0  0  0  0  0  0  0
   45.7500   74.6460   58.7060 O   0  0  0  0  0  0  0  0  0  0  0  0
   44.5130   75.6070   60.2770 N   0  0  0  0  0  0  0  0  0  0  0  0
   43.9640   76.6910   60.8920 C   0  0  0  0  0  0  0  0  0  0  0  0
   43.2390   76.5900   61.8960 O   0  0  0  0  0  0  0  0  0  0  0  0
   45.2270   79.0620   58.8690 H   0  0  0  0  0  0  0  0  0  0  0  0
   46.1960   77.0580   57.7950 H   0  0  0  0  0  0  0  0  0  0  0  0
   44.2570   74.6900   60.7430 H   0  0  0  0  0  0  0  0  0  0  0  0
   43.8140   84.0490   60.9200 S   0  0  0  0  0  0  0  0  0  0  0  0
   44.0530   85.5050   60.6190 O   0  0  0  0  0  0  0  0  0  0  0  0
   43.2110   83.4970   59.6340 O   0  0  0  0  0  0  0  0  0  0  0  0
   46.0340   83.8680   63.1070 H   0  0  0  0  0  0  0  0  0  0  0  0
   46.2540   83.2970   62.2650 N   0  0  0  0  0  0  0  0  0  0  0  0
   45.3420   83.3280   61.2610 C   0  0  0  0  0  0  0  0  0  0  0  0
   45.8550   82.5120   60.2920 N   0  0  0  0  0  0  0  0  0  0  0  0
   47.0150   82.0100   60.6850 C   0  0  0  0  0  0  0  0  0  0  0  0
   47.9950   81.1620   60.2010 C   0  0  0  0  0  0  0  0  0  0  0  0
   47.8490   80.7340   59.2070 H   0  0  0  0  0  0  0  0  0  0  0  0
   49.1180   80.8390   60.8950 N   0  0  0  0  0  0  0  0  0  0  0  0
   49.3330   81.3460   62.1180 C   0  0  0  0  0  0  0  0  0  0  0  0
   50.1580   81.1910   62.7860 H   0  0  0  0  0  0  0  0  0  0  0  0
   48.3940   82.1890   62.6390 N   0  0  0  0  0  0  0  0  0  0  0  0
   47.2850   82.5020   61.9440 C   0  0  0  0  0  0  0  0  0  0  0  0
  1  2  2  0  0  0  0
  1  6  1  0  0  0  0
  2  3  1  0  0  0  0
  3  7  1  0  0  0  0
  3  4  2  0  0  0  0
  4  8  1  0  0  0  0
  5  4  1  0  0  0  0
  5  9  1  0  0  0  0
  6  5  2  0  0  0  0
 10  6  1  0  0  0  0
 11 12  2  0  0  0  0
 11 16  1  0  0  0  0
 12 13  1  0  0  0  0
 13 18  1  0  0  0  0
 13 14  2  0  0  0  0
 15 14  1  0  0  0  0
 15  2  1  0  0  0  0
 16 15  2  0  0  0  0
 17 11  1  0  0  0  0
 19 25  1  0  0  0  0
 19 12  1  0  0  0  0
 20 19  1  0  0  0  0
 21 22  1  0  0  0  0
 21 20  2  0  0  0  0
 22 24  1  0  0  0  0
 23 22  2  0  0  0  0
 24 29  1  0  0  0  0
 24 25  1  0  0  0  0
 25 26  2  0  0  0  0
 27 20  1  0  0  0  0
 28 21  1  0  0  0  0
 30 35  1  0  0  0  0
 30  1  1  0  0  0  0
 31 30  2  0  0  0  0
 32 30  2  0  0  0  0
 34 33  1  0  0  0  0
 35 34  1  0  0  0  0
 36 37  1  0  0  0  0
 36 35  2  0  0  0  0
 37 44  1  0  0  0  0
 38 37  2  0  0  0  0
 38 40  1  0  0  0  0
 39 38  1  0  0  0  0
 40 41  2  0  0  0  0
 41 43  1  0  0  0  0
 41 42  1  0  0  0  0
 44 34  1  0  0  0  0
 44 43  2  0  0  0  0
M  END
>  <minimizedAffinity>
-4.60297489

>  <minimizedRMSD>
7.4129281

$$$$
