
 OpenBabel03212520593D

 40 43  0  0  1  0  0  0  0  0999 V2000
   39.7970   77.3860   59.1580 C   0  0  0  0  0  0  0  0  0  0  0  0
   40.5020   76.2630   58.8810 C   0  0  0  0  0  0  0  0  0  0  0  0
   39.9680   75.5500   57.7960 C   0  0  0  0  0  0  0  0  0  0  0  0
   38.8800   75.9330   57.1040 N   0  0  0  0  0  0  0  0  0  0  0  0
   38.2420   77.0850   57.4680 C   0  0  0  0  0  0  0  0  0  0  0  0
   38.7080   77.8160   58.5060 N   0  0  0  0  0  0  0  0  0  0  0  0
   41.3700   75.9080   59.3920 H   0  0  0  0  0  0  0  0  0  0  0  0
   40.4250   74.6200   57.4490 H   0  0  0  0  0  0  0  0  0  0  0  0
   40.9690   80.3290   61.7320 C   0  0  0  0  0  0  0  0  0  0  0  0
   40.9310   79.0950   62.3360 C   0  0  0  0  0  0  0  0  0  0  0  0
   40.5580   78.0370   61.5920 C   0  0  0  0  0  0  0  0  0  0  0  0
   40.2300   78.2290   60.2540 C   0  0  0  0  0  0  0  0  0  0  0  0
   40.4590   80.0380   60.0120 S   0  0  0  0  0  0  0  0  0  0  0  0
   41.1890   78.9470   63.3850 H   0  0  0  0  0  0  0  0  0  0  0  0
   40.4640   76.9970   61.8710 H   0  0  0  0  0  0  0  0  0  0  0  0
   43.0370   83.1270   62.8930 C   0  0  0  0  0  0  0  0  0  0  0  0
   42.1330   83.8850   63.6840 C   0  0  0  0  0  0  0  0  0  0  0  0
   40.8130   83.4320   63.8110 C   0  0  0  0  0  0  0  0  0  0  0  0
   40.4590   82.2900   63.1710 N   0  0  0  0  0  0  0  0  0  0  0  0
   41.3570   81.5880   62.4190 C   0  0  0  0  0  0  0  0  0  0  0  0
   42.6160   82.0130   62.2940 N   0  0  0  0  0  0  0  0  0  0  0  0
   44.0440   83.5170   62.8260 H   0  0  0  0  0  0  0  0  0  0  0  0
   42.4330   84.7880   64.1830 H   0  0  0  0  0  0  0  0  0  0  0  0
   40.0980   83.9670   64.3940 H   0  0  0  0  0  0  0  0  0  0  0  0
   37.0750   77.4800   56.7030 C   0  0  0  0  0  0  0  0  0  0  0  0
   35.9700   77.0950   57.1090 O   0  0  0  0  0  0  0  0  0  0  0  0
   37.1800   78.3190   55.4490 C   0  0  1  0  0  0  0  0  0  0  0  0
   37.3650   79.7880   55.7420 C   0  0  0  0  0  0  0  0  0  0  0  0
   38.4240   78.9840   55.1300 C   0  0  2  0  0  0  0  0  0  0  0  0
   36.3120   78.1710   54.7490 H   0  0  0  0  0  0  0  0  0  0  0  0
   36.6860   80.4660   55.2040 H   0  0  0  0  0  0  0  0  0  0  0  0
   37.4330   80.0910   56.8310 H   0  0  0  0  0  0  0  0  0  0  0  0
   39.2840   78.7130   55.8460 H   0  0  0  0  0  0  0  0  0  0  0  0
   38.9400   79.3360   53.7910 C   0  0  0  0  0  2  0  0  0  0  0  0
   38.3080   78.5670   52.7540 N   0  0  0  0  0  4  0  0  0  0  0  0
   37.6150   77.8700   53.0920 H   0  0  0  0  0  0  0  0  0  0  0  0
   37.4690   79.4640   51.9100 C   0  0  0  0  0  2  0  0  0  0  0  0
   36.8950   78.7830   51.2590 H   0  0  0  0  0  0  0  0  0  0  0  0
   39.2530   77.9500   51.8550 C   0  0  0  0  0  2  0  0  0  0  0  0
   38.9590   78.1040   50.7910 H   0  0  0  0  0  0  0  0  0  0  0  0
  1 12  1  0  0  0  0
  2  1  1  0  0  0  0
  2  7  1  0  0  0  0
  3  2  2  0  0  0  0
  4  5  2  0  0  0  0
  4  3  1  0  0  0  0
  5  6  1  0  0  0  0
  6  1  2  0  0  0  0
  8  3  1  0  0  0  0
  9 10  2  0  0  0  0
  9 20  1  0  0  0  0
 10 14  1  0  0  0  0
 11 15  1  0  0  0  0
 11 10  1  0  0  0  0
 12 11  2  0  0  0  0
 13 12  1  0  0  0  0
 13  9  1  0  0  0  0
 16 17  1  0  0  0  0
 17 18  2  0  0  0  0
 17 23  1  0  0  0  0
 18 24  1  0  0  0  0
 19 18  1  0  0  0  0
 20 19  2  0  0  0  0
 21 20  1  0  0  0  0
 21 16  2  0  0  0  0
 22 16  1  0  0  0  0
 25 26  2  0  0  0  0
 25  5  1  0  0  0  0
 27 30  1  6  0  0  0
 27 28  1  0  0  0  0
 27 25  1  0  0  0  0
 28 32  1  0  0  0  0
 29 27  1  0  0  0  0
 29 28  1  0  0  0  0
 29 33  1  1  0  0  0
 31 28  1  0  0  0  0
 34 29  1  0  0  0  0
 35 36  1  0  0  0  0
 35 34  1  0  0  0  0
 37 35  1  0  0  0  0
 38 37  1  0  0  0  0
 39 35  1  0  0  0  0
 40 39  1  0  0  0  0
M  END
>  <minimizedAffinity>
-5.96497107

>  <minimizedRMSD>
0.548689008

$$$$
