
 OpenBabel03212520593D

 40 43  0  0  1  0  0  0  0  0999 V2000
   39.7100   77.3470   59.2210 C   0  0  0  0  0  0  0  0  0  0  0  0
   40.3390   76.1680   58.9940 C   0  0  0  0  0  0  0  0  0  0  0  0
   39.7760   75.4600   57.9200 C   0  0  0  0  0  0  0  0  0  0  0  0
   38.7310   75.8960   57.1940 N   0  0  0  0  0  0  0  0  0  0  0  0
   38.1710   77.1020   57.5080 C   0  0  0  0  0  0  0  0  0  0  0  0
   38.6680   77.8310   58.5330 N   0  0  0  0  0  0  0  0  0  0  0  0
   41.1690   75.7700   59.5340 H   0  0  0  0  0  0  0  0  0  0  0  0
   40.1720   74.4900   57.6120 H   0  0  0  0  0  0  0  0  0  0  0  0
   40.9600   80.2970   61.7500 C   0  0  0  0  0  0  0  0  0  0  0  0
   40.9630   79.0600   62.3510 C   0  0  0  0  0  0  0  0  0  0  0  0
   40.5710   78.0000   61.6210 C   0  0  0  0  0  0  0  0  0  0  0  0
   40.1820   78.1920   60.2990 C   0  0  0  0  0  0  0  0  0  0  0  0
   40.3780   80.0040   60.0540 S   0  0  0  0  0  0  0  0  0  0  0  0
   41.2700   78.9130   63.3880 H   0  0  0  0  0  0  0  0  0  0  0  0
   40.5020   76.9580   61.9010 H   0  0  0  0  0  0  0  0  0  0  0  0
   43.0540   83.0970   62.8570 C   0  0  0  0  0  0  0  0  0  0  0  0
   42.1670   83.8600   63.6620 C   0  0  0  0  0  0  0  0  0  0  0  0
   40.8480   83.4100   63.8160 C   0  0  0  0  0  0  0  0  0  0  0  0
   40.4800   82.2650   63.1890 N   0  0  0  0  0  0  0  0  0  0  0  0
   41.3630   81.5580   62.4240 C   0  0  0  0  0  0  0  0  0  0  0  0
   42.6200   81.9810   62.2720 N   0  0  0  0  0  0  0  0  0  0  0  0
   44.0600   83.4850   62.7690 H   0  0  0  0  0  0  0  0  0  0  0  0
   42.4780   84.7650   64.1510 H   0  0  0  0  0  0  0  0  0  0  0  0
   40.1450   83.9490   64.4100 H   0  0  0  0  0  0  0  0  0  0  0  0
   37.0500   77.5540   56.7060 C   0  0  0  0  0  0  0  0  0  0  0  0
   35.9210   77.1610   57.0330 O   0  0  0  0  0  0  0  0  0  0  0  0
   37.2300   78.4570   55.5080 C   0  0  1  0  0  0  0  0  0  0  0  0
   37.2490   79.9200   55.8760 C   0  0  0  0  0  0  0  0  0  0  0  0
   38.4390   79.2370   55.3680 C   0  0  2  0  0  0  0  0  0  0  0  0
   36.4680   78.2720   54.7010 H   0  0  0  0  0  0  0  0  0  0  0  0
   36.5820   80.5660   55.2850 H   0  0  0  0  0  0  0  0  0  0  0  0
   37.1600   80.1760   56.9760 H   0  0  0  0  0  0  0  0  0  0  0  0
   39.2290   79.0040   56.1740 H   0  0  0  0  0  0  0  0  0  0  0  0
   39.0790   79.6940   54.1170 C   0  0  0  0  0  2  0  0  0  0  0  0
   40.4940   79.4430   54.1160 N   0  0  0  0  0  4  0  0  0  0  0  0
   40.8030   78.7030   53.4540 H   0  0  0  0  0  0  0  0  0  0  0  0
   41.2130   80.6440   53.6080 C   0  0  0  0  0  2  0  0  0  0  0  0
   42.2570   80.3150   53.4770 H   0  0  0  0  0  0  0  0  0  0  0  0
   41.0220   79.1980   55.4360 C   0  0  0  0  0  2  0  0  0  0  0  0
   41.9540   79.7830   55.6140 H   0  0  0  0  0  0  0  0  0  0  0  0
  1 12  1  0  0  0  0
  2  1  1  0  0  0  0
  2  7  1  0  0  0  0
  3  2  2  0  0  0  0
  4  5  2  0  0  0  0
  4  3  1  0  0  0  0
  5  6  1  0  0  0  0
  6  1  2  0  0  0  0
  8  3  1  0  0  0  0
  9 10  2  0  0  0  0
  9 20  1  0  0  0  0
 10 14  1  0  0  0  0
 11 15  1  0  0  0  0
 11 10  1  0  0  0  0
 12 11  2  0  0  0  0
 13 12  1  0  0  0  0
 13  9  1  0  0  0  0
 16 17  1  0  0  0  0
 17 18  2  0  0  0  0
 17 23  1  0  0  0  0
 18 24  1  0  0  0  0
 19 18  1  0  0  0  0
 20 19  2  0  0  0  0
 21 20  1  0  0  0  0
 21 16  2  0  0  0  0
 22 16  1  0  0  0  0
 25 26  2  0  0  0  0
 25  5  1  0  0  0  0
 27 30  1  6  0  0  0
 27 28  1  0  0  0  0
 27 25  1  0  0  0  0
 28 32  1  0  0  0  0
 29 27  1  0  0  0  0
 29 28  1  0  0  0  0
 29 33  1  1  0  0  0
 31 28  1  0  0  0  0
 34 29  1  0  0  0  0
 35 34  1  0  0  0  0
 35 39  1  0  0  0  0
 36 35  1  0  0  0  0
 37 35  1  0  0  0  0
 38 37  1  0  0  0  0
 39 40  1  0  0  0  0
M  END
>  <minimizedAffinity>
-5.73345184

>  <minimizedRMSD>
0.500258565

$$$$
