
 OpenBabel03212520583D

 40 43  0  0  1  0  0  0  0  0999 V2000
   39.7430   77.3490   59.2310 C   0  0  0  0  0  0  0  0  0  0  0  0
   40.3730   76.1700   59.0120 C   0  0  0  0  0  0  0  0  0  0  0  0
   39.8160   75.4580   57.9370 C   0  0  0  0  0  0  0  0  0  0  0  0
   38.7750   75.8900   57.2040 N   0  0  0  0  0  0  0  0  0  0  0  0
   38.2130   77.0970   57.5110 C   0  0  0  0  0  0  0  0  0  0  0  0
   38.7040   77.8300   58.5360 N   0  0  0  0  0  0  0  0  0  0  0  0
   41.2010   75.7740   59.5570 H   0  0  0  0  0  0  0  0  0  0  0  0
   40.2150   74.4870   57.6350 H   0  0  0  0  0  0  0  0  0  0  0  0
   40.9760   80.3090   61.7570 C   0  0  0  0  0  0  0  0  0  0  0  0
   40.9820   79.0740   62.3610 C   0  0  0  0  0  0  0  0  0  0  0  0
   40.5950   78.0110   61.6320 C   0  0  0  0  0  0  0  0  0  0  0  0
   40.2080   78.1990   60.3090 C   0  0  0  0  0  0  0  0  0  0  0  0
   40.3990   80.0110   60.0600 S   0  0  0  0  0  0  0  0  0  0  0  0
   41.2860   78.9300   63.3980 H   0  0  0  0  0  0  0  0  0  0  0  0
   40.5290   76.9700   61.9140 H   0  0  0  0  0  0  0  0  0  0  0  0
   43.0610   83.1110   62.8780 C   0  0  0  0  0  0  0  0  0  0  0  0
   42.1640   83.8810   63.6650 C   0  0  0  0  0  0  0  0  0  0  0  0
   40.8420   83.4350   63.8020 C   0  0  0  0  0  0  0  0  0  0  0  0
   40.4800   82.2880   63.1770 N   0  0  0  0  0  0  0  0  0  0  0  0
   41.3720   81.5740   62.4280 C   0  0  0  0  0  0  0  0  0  0  0  0
   42.6320   81.9920   62.2930 N   0  0  0  0  0  0  0  0  0  0  0  0
   44.0690   83.4960   62.8020 H   0  0  0  0  0  0  0  0  0  0  0  0
   42.4700   84.7880   64.1520 H   0  0  0  0  0  0  0  0  0  0  0  0
   40.1320   83.9800   64.3830 H   0  0  0  0  0  0  0  0  0  0  0  0
   37.0950   77.5450   56.7030 C   0  0  0  0  0  0  0  0  0  0  0  0
   35.9670   77.1380   57.0130 O   0  0  0  0  0  0  0  0  0  0  0  0
   37.2780   78.4630   55.5150 C   0  0  1  0  0  0  0  0  0  0  0  0
   37.2900   79.9220   55.9000 C   0  0  0  0  0  0  0  0  0  0  0  0
   38.4850   79.2490   55.3910 C   0  0  2  0  0  0  0  0  0  0  0  0
   36.5210   78.2840   54.7020 H   0  0  0  0  0  0  0  0  0  0  0  0
   36.6240   80.5710   55.3120 H   0  0  0  0  0  0  0  0  0  0  0  0
   37.1940   80.1650   57.0020 H   0  0  0  0  0  0  0  0  0  0  0  0
   39.2710   79.0090   56.1970 H   0  0  0  0  0  0  0  0  0  0  0  0
   39.1300   79.7210   54.1480 C   0  0  0  0  0  2  0  0  0  0  0  0
   40.5420   79.9280   54.3230 N   0  0  0  0  0  4  0  0  0  0  0  0
   41.0970   79.0560   54.4340 H   0  0  0  0  0  0  0  0  0  0  0  0
   41.1160   80.5140   53.0790 C   0  0  0  0  0  2  0  0  0  0  0  0
   42.2090   80.4800   53.2290 H   0  0  0  0  0  0  0  0  0  0  0  0
   40.8460   80.8650   55.3760 C   0  0  0  0  0  2  0  0  0  0  0  0
   41.6080   81.6100   55.0470 H   0  0  0  0  0  0  0  0  0  0  0  0
  1 12  1  0  0  0  0
  2  1  1  0  0  0  0
  2  7  1  0  0  0  0
  3  2  2  0  0  0  0
  4  5  2  0  0  0  0
  4  3  1  0  0  0  0
  5  6  1  0  0  0  0
  6  1  2  0  0  0  0
  8  3  1  0  0  0  0
  9 10  2  0  0  0  0
  9 20  1  0  0  0  0
 10 14  1  0  0  0  0
 11 15  1  0  0  0  0
 11 10  1  0  0  0  0
 12 11  2  0  0  0  0
 13 12  1  0  0  0  0
 13  9  1  0  0  0  0
 16 17  1  0  0  0  0
 17 18  2  0  0  0  0
 17 23  1  0  0  0  0
 18 24  1  0  0  0  0
 19 18  1  0  0  0  0
 20 19  2  0  0  0  0
 21 20  1  0  0  0  0
 21 16  2  0  0  0  0
 22 16  1  0  0  0  0
 25 26  2  0  0  0  0
 25  5  1  0  0  0  0
 27 30  1  6  0  0  0
 27 28  1  0  0  0  0
 27 25  1  0  0  0  0
 28 32  1  0  0  0  0
 29 27  1  0  0  0  0
 29 28  1  0  0  0  0
 29 33  1  1  0  0  0
 31 28  1  0  0  0  0
 34 35  1  0  0  0  0
 34 29  1  0  0  0  0
 35 36  1  0  0  0  0
 35 39  1  0  0  0  0
 37 38  1  0  0  0  0
 37 35  1  0  0  0  0
 40 39  1  0  0  0  0
M  END
>  <minimizedAffinity>
-5.8319912

>  <minimizedRMSD>
0.189794242

$$$$
