
 OpenBabel03212520593D

 40 43  0  0  1  0  0  0  0  0999 V2000
   39.6770   77.1700   59.1620 C   0  0  0  0  0  0  0  0  0  0  0  0
   40.3100   75.9930   58.9440 C   0  0  0  0  0  0  0  0  0  0  0  0
   39.7490   75.2730   57.8770 C   0  0  0  0  0  0  0  0  0  0  0  0
   38.7010   75.6990   57.1490 N   0  0  0  0  0  0  0  0  0  0  0  0
   38.1350   76.9050   57.4550 C   0  0  0  0  0  0  0  0  0  0  0  0
   38.6310   77.6440   58.4730 N   0  0  0  0  0  0  0  0  0  0  0  0
   41.1440   75.6030   59.4850 H   0  0  0  0  0  0  0  0  0  0  0  0
   40.1490   74.3020   57.5760 H   0  0  0  0  0  0  0  0  0  0  0  0
   40.9550   80.1410   61.6530 C   0  0  0  0  0  0  0  0  0  0  0  0
   40.9010   78.9200   62.2840 C   0  0  0  0  0  0  0  0  0  0  0  0
   40.4930   77.8550   61.5690 C   0  0  0  0  0  0  0  0  0  0  0  0
   40.1470   78.0270   60.2330 C   0  0  0  0  0  0  0  0  0  0  0  0
   40.4100   79.8250   59.9490 S   0  0  0  0  0  0  0  0  0  0  0  0
   41.1740   78.7890   63.3320 H   0  0  0  0  0  0  0  0  0  0  0  0
   40.3820   76.8240   61.8720 H   0  0  0  0  0  0  0  0  0  0  0  0
   43.1020   82.9150   62.7250 C   0  0  0  0  0  0  0  0  0  0  0  0
   42.2270   83.7110   63.5110 C   0  0  0  0  0  0  0  0  0  0  0  0
   40.8990   83.2910   63.6650 C   0  0  0  0  0  0  0  0  0  0  0  0
   40.5090   82.1440   63.0550 N   0  0  0  0  0  0  0  0  0  0  0  0
   41.3810   81.4050   62.3070 C   0  0  0  0  0  0  0  0  0  0  0  0
   42.6480   81.7980   62.1560 N   0  0  0  0  0  0  0  0  0  0  0  0
   44.1170   83.2790   62.6360 H   0  0  0  0  0  0  0  0  0  0  0  0
   42.5550   84.6170   63.9850 H   0  0  0  0  0  0  0  0  0  0  0  0
   40.2040   83.8550   64.2450 H   0  0  0  0  0  0  0  0  0  0  0  0
   37.0110   77.3440   56.6520 C   0  0  0  0  0  0  0  0  0  0  0  0
   35.8760   77.1830   57.1230 O   0  0  0  0  0  0  0  0  0  0  0  0
   37.1910   77.9660   55.2860 C   0  0  1  0  0  0  0  0  0  0  0  0
   37.4570   79.4500   55.3500 C   0  0  0  0  0  0  0  0  0  0  0  0
   38.4780   78.5020   54.9020 C   0  0  2  0  0  0  0  0  0  0  0  0
   36.3300   77.7580   54.5920 H   0  0  0  0  0  0  0  0  0  0  0  0
   36.8310   80.0720   54.6920 H   0  0  0  0  0  0  0  0  0  0  0  0
   37.5210   79.9190   56.3790 H   0  0  0  0  0  0  0  0  0  0  0  0
   39.3060   78.3000   55.6770 H   0  0  0  0  0  0  0  0  0  0  0  0
   39.0420   78.6070   53.5410 C   0  0  0  0  0  2  0  0  0  0  0  0
   39.1440   79.9750   53.1070 N   0  0  0  0  0  4  0  0  0  0  0  0
   38.8340   80.6760   53.8110 H   0  0  0  0  0  0  0  0  0  0  0  0
   40.5780   80.3300   52.9170 C   0  0  0  0  0  2  0  0  0  0  0  0
   40.5790   81.4220   52.7560 H   0  0  0  0  0  0  0  0  0  0  0  0
   38.5060   80.2110   51.8360 C   0  0  0  0  0  2  0  0  0  0  0  0
   39.1630   80.8050   51.1580 H   0  0  0  0  0  0  0  0  0  0  0  0
  1 12  1  0  0  0  0
  2  1  1  0  0  0  0
  2  7  1  0  0  0  0
  3  2  2  0  0  0  0
  4  5  2  0  0  0  0
  4  3  1  0  0  0  0
  5  6  1  0  0  0  0
  6  1  2  0  0  0  0
  8  3  1  0  0  0  0
  9 10  2  0  0  0  0
  9 20  1  0  0  0  0
 10 14  1  0  0  0  0
 11 15  1  0  0  0  0
 11 10  1  0  0  0  0
 12 11  2  0  0  0  0
 13 12  1  0  0  0  0
 13  9  1  0  0  0  0
 16 17  1  0  0  0  0
 17 18  2  0  0  0  0
 17 23  1  0  0  0  0
 18 24  1  0  0  0  0
 19 18  1  0  0  0  0
 20 19  2  0  0  0  0
 21 20  1  0  0  0  0
 21 16  2  0  0  0  0
 22 16  1  0  0  0  0
 25 26  2  0  0  0  0
 25  5  1  0  0  0  0
 27 30  1  6  0  0  0
 27 28  1  0  0  0  0
 27 25  1  0  0  0  0
 28 32  1  0  0  0  0
 29 27  1  0  0  0  0
 29 28  1  0  0  0  0
 29 33  1  1  0  0  0
 31 28  1  0  0  0  0
 34 29  1  0  0  0  0
 35 34  1  0  0  0  0
 35 36  1  0  0  0  0
 37 35  1  0  0  0  0
 38 37  1  0  0  0  0
 39 35  1  0  0  0  0
 40 39  1  0  0  0  0
M  END
>  <minimizedAffinity>
-5.83651543

>  <minimizedRMSD>
0.647373915

$$$$
