
 OpenBabel03212520593D

 40 43  0  0  1  0  0  0  0  0999 V2000
   39.7430   77.3520   59.2330 C   0  0  0  0  0  0  0  0  0  0  0  0
   40.3740   76.1740   59.0140 C   0  0  0  0  0  0  0  0  0  0  0  0
   39.8180   75.4610   57.9390 C   0  0  0  0  0  0  0  0  0  0  0  0
   38.7760   75.8930   57.2060 N   0  0  0  0  0  0  0  0  0  0  0  0
   38.2130   77.1000   57.5130 C   0  0  0  0  0  0  0  0  0  0  0  0
   38.7040   77.8330   58.5380 N   0  0  0  0  0  0  0  0  0  0  0  0
   41.2030   75.7780   59.5590 H   0  0  0  0  0  0  0  0  0  0  0  0
   40.2160   74.4900   57.6370 H   0  0  0  0  0  0  0  0  0  0  0  0
   40.9760   80.3130   61.7590 C   0  0  0  0  0  0  0  0  0  0  0  0
   40.9810   79.0780   62.3630 C   0  0  0  0  0  0  0  0  0  0  0  0
   40.5950   78.0140   61.6340 C   0  0  0  0  0  0  0  0  0  0  0  0
   40.2090   78.2020   60.3110 C   0  0  0  0  0  0  0  0  0  0  0  0
   40.3990   80.0140   60.0620 S   0  0  0  0  0  0  0  0  0  0  0  0
   41.2850   78.9340   63.4010 H   0  0  0  0  0  0  0  0  0  0  0  0
   40.5280   76.9730   61.9160 H   0  0  0  0  0  0  0  0  0  0  0  0
   43.0600   83.1150   62.8800 C   0  0  0  0  0  0  0  0  0  0  0  0
   42.1640   83.8850   63.6670 C   0  0  0  0  0  0  0  0  0  0  0  0
   40.8420   83.4380   63.8050 C   0  0  0  0  0  0  0  0  0  0  0  0
   40.4800   82.2910   63.1790 N   0  0  0  0  0  0  0  0  0  0  0  0
   41.3720   81.5770   62.4310 C   0  0  0  0  0  0  0  0  0  0  0  0
   42.6320   81.9960   62.2950 N   0  0  0  0  0  0  0  0  0  0  0  0
   44.0690   83.4990   62.8040 H   0  0  0  0  0  0  0  0  0  0  0  0
   42.4700   84.7910   64.1550 H   0  0  0  0  0  0  0  0  0  0  0  0
   40.1320   83.9830   64.3850 H   0  0  0  0  0  0  0  0  0  0  0  0
   37.0950   77.5480   56.7050 C   0  0  0  0  0  0  0  0  0  0  0  0
   35.9670   77.1410   57.0170 O   0  0  0  0  0  0  0  0  0  0  0  0
   37.2780   78.4630   55.5160 C   0  0  1  0  0  0  0  0  0  0  0  0
   37.2890   79.9230   55.8990 C   0  0  0  0  0  0  0  0  0  0  0  0
   38.4850   79.2490   55.3910 C   0  0  2  0  0  0  0  0  0  0  0  0
   36.5200   78.2830   54.7040 H   0  0  0  0  0  0  0  0  0  0  0  0
   36.6230   80.5720   55.3110 H   0  0  0  0  0  0  0  0  0  0  0  0
   37.1940   80.1670   57.0010 H   0  0  0  0  0  0  0  0  0  0  0  0
   39.2710   79.0110   56.1980 H   0  0  0  0  0  0  0  0  0  0  0  0
   39.1290   79.7200   54.1470 C   0  0  0  0  0  2  0  0  0  0  0  0
   40.5410   79.9280   54.3210 N   0  0  0  0  0  4  0  0  0  0  0  0
   41.0970   79.0560   54.4320 H   0  0  0  0  0  0  0  0  0  0  0  0
   41.1150   80.5130   53.0770 C   0  0  0  0  0  2  0  0  0  0  0  0
   42.2080   80.4800   53.2280 H   0  0  0  0  0  0  0  0  0  0  0  0
   40.8460   80.8650   55.3750 C   0  0  0  0  0  2  0  0  0  0  0  0
   41.6080   81.6100   55.0460 H   0  0  0  0  0  0  0  0  0  0  0  0
  1 12  1  0  0  0  0
  2  1  1  0  0  0  0
  2  7  1  0  0  0  0
  3  2  2  0  0  0  0
  4  5  2  0  0  0  0
  4  3  1  0  0  0  0
  5  6  1  0  0  0  0
  6  1  2  0  0  0  0
  8  3  1  0  0  0  0
  9 10  2  0  0  0  0
  9 20  1  0  0  0  0
 10 14  1  0  0  0  0
 11 15  1  0  0  0  0
 11 10  1  0  0  0  0
 12 11  2  0  0  0  0
 13 12  1  0  0  0  0
 13  9  1  0  0  0  0
 16 17  1  0  0  0  0
 17 18  2  0  0  0  0
 17 23  1  0  0  0  0
 18 24  1  0  0  0  0
 19 18  1  0  0  0  0
 20 19  2  0  0  0  0
 21 20  1  0  0  0  0
 21 16  2  0  0  0  0
 22 16  1  0  0  0  0
 25 26  2  0  0  0  0
 25  5  1  0  0  0  0
 27 30  1  6  0  0  0
 27 28  1  0  0  0  0
 27 25  1  0  0  0  0
 28 32  1  0  0  0  0
 29 27  1  0  0  0  0
 29 28  1  0  0  0  0
 29 33  1  1  0  0  0
 31 28  1  0  0  0  0
 34 35  1  0  0  0  0
 34 29  1  0  0  0  0
 35 36  1  0  0  0  0
 35 39  1  0  0  0  0
 37 38  1  0  0  0  0
 37 35  1  0  0  0  0
 40 39  1  0  0  0  0
M  END
>  <minimizedAffinity>
-5.829247

>  <minimizedRMSD>
0.278856426

$$$$
