
 OpenBabel03212520343D

 32 34  0  0  0  0  0  0  0  0999 V2000
   40.9060   83.3320   58.9320 C   0  0  0  0  0  0  0  0  0  0  0  0
   40.0530   84.4220   58.8180 C   0  0  0  0  0  0  0  0  0  0  0  0
   39.3470   84.9720   59.8550 C   0  0  0  0  0  0  0  0  0  0  0  0
   39.4780   84.4230   61.1110 C   0  0  0  0  0  0  0  0  0  0  0  0
   40.3230   83.3320   61.2580 C   0  0  0  0  0  0  0  0  0  0  0  0
   40.5350   82.6900   62.4750 C   0  0  0  0  0  0  0  0  0  0  0  0
   41.3730   81.6130   62.5990 C   0  0  0  0  0  0  0  0  0  0  0  0
   42.0550   81.1090   61.5070 C   0  0  0  0  0  0  0  0  0  0  0  0
   41.8720   81.7180   60.2830 C   0  0  0  0  0  0  0  0  0  0  0  0
   41.0210   82.7960   60.2040 C   0  0  0  0  0  0  0  0  0  0  0  0
   39.8870   84.9250   57.8550 H   0  0  0  0  0  0  0  0  0  0  0  0
   38.6910   85.8220   59.7360 H   0  0  0  0  0  0  0  0  0  0  0  0
   38.9750   84.7670   62.0060 H   0  0  0  0  0  0  0  0  0  0  0  0
   40.0170   83.0560   63.3520 H   0  0  0  0  0  0  0  0  0  0  0  0
   41.5420   81.1100   63.5420 H   0  0  0  0  0  0  0  0  0  0  0  0
   42.7220   80.2600   61.5800 H   0  0  0  0  0  0  0  0  0  0  0  0
   42.4100   81.3230   59.4330 H   0  0  0  0  0  0  0  0  0  0  0  0
   42.7710   83.3160   57.1390 C   0  0  0  0  0  0  0  0  0  0  0  0
   41.5540   82.9240   57.6880 C   0  0  0  0  0  0  0  0  0  0  0  0
   40.7710   81.9830   56.9680 C   0  0  0  0  0  0  0  0  0  0  0  0
   41.2660   81.5280   55.7810 N   0  0  0  0  0  0  0  0  0  0  0  0
   42.4610   81.9440   55.2880 C   0  0  0  0  0  0  0  0  0  0  0  0
   43.1840   82.8230   55.9740 N   0  0  0  0  0  0  0  0  0  0  0  0
   43.2870   84.0180   57.7540 H   0  0  0  0  0  0  0  0  0  0  0  0
   39.8190   81.6120   57.2980 H   0  0  0  0  0  0  0  0  0  0  0  0
   42.9700   81.4270   53.9920 C   0  0  0  0  0  2  0  0  0  0  0  0
   42.0490   81.6900   52.9010 N   0  0  0  0  0  4  0  0  0  0  0  0
   41.0750   81.4390   53.1550 H   0  0  0  0  0  0  0  0  0  0  0  0
   42.1430   83.0820   52.4560 C   0  0  0  0  0  2  0  0  0  0  0  0
   43.0950   83.5600   52.7520 H   0  0  0  0  0  0  0  0  0  0  0  0
   42.4560   80.8530   51.7870 C   0  0  0  0  0  2  0  0  0  0  0  0
   43.5590   80.7410   51.7880 H   0  0  0  0  0  0  0  0  0  0  0  0
  1 10  1  0  0  0  0
  2  1  2  0  0  0  0
  2  3  1  0  0  0  0
  3  4  2  0  0  0  0
  4  5  1  0  0  0  0
  4 13  1  0  0  0  0
  5  6  1  0  0  0  0
  6  7  2  0  0  0  0
  6 14  1  0  0  0  0
  7 15  1  0  0  0  0
  8 16  1  0  0  0  0
  8  7  1  0  0  0  0
  9  8  2  0  0  0  0
 10  9  1  0  0  0  0
 10  5  2  0  0  0  0
 11  2  1  0  0  0  0
 12  3  1  0  0  0  0
 17  9  1  0  0  0  0
 18 19  1  0  0  0  0
 18 24  1  0  0  0  0
 19  1  1  0  0  0  0
 20 25  1  0  0  0  0
 20 19  2  0  0  0  0
 21 20  1  0  0  0  0
 22 21  2  0  0  0  0
 22 23  1  0  0  0  0
 23 18  2  0  0  0  0
 26 22  1  0  0  0  0
 27 28  1  0  0  0  0
 27 26  1  0  0  0  0
 29 30  1  0  0  0  0
 29 27  1  0  0  0  0
 31 32  1  0  0  0  0
 31 27  1  0  0  0  0
M  END
>  <minimizedAffinity>
-3.90383005

>  <minimizedRMSD>
7.31193924

$$$$
