
 OpenBabel03212520113D

 26 27  0  0  0  0  0  0  0  0999 V2000
   41.7780   81.8420   60.1240 C   0  0  0  0  0  0  0  0  0  0  0  0
   41.1330   82.5280   59.0880 C   0  0  0  0  0  0  0  0  0  0  0  0
   40.1520   83.4880   59.4300 C   0  0  0  0  0  0  0  0  0  0  0  0
   39.9090   83.6730   60.7580 N   0  0  0  0  0  0  0  0  0  0  0  0
   40.5520   82.9940   61.7270 C   0  0  0  0  0  0  0  0  0  0  0  0
   41.4780   82.0880   61.4110 N   0  0  0  0  0  0  0  0  0  0  0  0
   42.5160   81.1240   59.8020 H   0  0  0  0  0  0  0  0  0  0  0  0
   39.6010   84.0660   58.7000 H   0  0  0  0  0  0  0  0  0  0  0  0
   39.6280   80.2070   57.8060 Cl  0  0  0  0  0  0  0  0  0  0  0  0
   40.7000   81.3440   57.0110 C   0  0  0  0  0  0  0  0  0  0  0  0
   41.3470   82.3750   57.6780 C   0  0  0  0  0  0  0  0  0  0  0  0
   42.1530   83.1770   56.9040 C   0  0  0  0  0  0  0  0  0  0  0  0
   42.3800   83.0590   55.5560 C   0  0  0  0  0  0  0  0  0  0  0  0
   41.7200   82.0220   54.9300 C   0  0  0  0  0  0  0  0  0  0  0  0
   41.9190   81.7520   53.1940 Cl  0  0  0  0  0  0  0  0  0  0  0  0
   40.8910   81.1780   55.6600 C   0  0  0  0  0  0  0  0  0  0  0  0
   42.6580   83.9840   57.4310 H   0  0  0  0  0  0  0  0  0  0  0  0
   43.0320   83.7350   55.0180 H   0  0  0  0  0  0  0  0  0  0  0  0
   40.4000   80.3800   55.1040 H   0  0  0  0  0  0  0  0  0  0  0  0
   40.1440   83.3410   63.1140 C   0  0  0  0  0  2  0  0  0  0  0  0
   40.6990   84.6090   63.5470 N   0  0  0  0  0  4  0  0  0  0  0  0
   40.3480   85.4040   62.9580 H   0  0  0  0  0  0  0  0  0  0  0  0
   40.4400   84.8550   64.9520 C   0  0  0  0  0  2  0  0  0  0  0  0
   41.3560   85.1000   65.5220 H   0  0  0  0  0  0  0  0  0  0  0  0
   42.1390   84.5580   63.3730 C   0  0  0  0  0  2  0  0  0  0  0  0
   42.3630   84.8900   62.3340 H   0  0  0  0  0  0  0  0  0  0  0  0
  1  6  1  0  0  0  0
  2  3  1  0  0  0  0
  2  1  2  0  0  0  0
  3  4  2  0  0  0  0
  4  5  1  0  0  0  0
  5 20  1  0  0  0  0
  6  5  2  0  0  0  0
  7  1  1  0  0  0  0
  8  3  1  0  0  0  0
 10 11  1  0  0  0  0
 10  9  1  0  0  0  0
 11  2  1  0  0  0  0
 12 17  1  0  0  0  0
 12 11  2  0  0  0  0
 13 12  1  0  0  0  0
 14 13  2  0  0  0  0
 14 16  1  0  0  0  0
 15 14  1  0  0  0  0
 16 10  2  0  0  0  0
 18 13  1  0  0  0  0
 19 16  1  0  0  0  0
 20 21  1  0  0  0  0
 21 23  1  0  0  0  0
 22 21  1  0  0  0  0
 23 24  1  0  0  0  0
 25 21  1  0  0  0  0
 26 25  1  0  0  0  0
M  END
>  <minimizedAffinity>
-4.1783042

>  <minimizedRMSD>
1.61090529

$$$$
