
 OpenBabel03212520593D

 40 43  0  0  1  0  0  0  0  0999 V2000
   39.6500   77.1520   59.1770 C   0  0  0  0  0  0  0  0  0  0  0  0
   40.2620   75.9630   58.9600 C   0  0  0  0  0  0  0  0  0  0  0  0
   39.6790   75.2460   57.9020 C   0  0  0  0  0  0  0  0  0  0  0  0
   38.6320   75.6840   57.1810 N   0  0  0  0  0  0  0  0  0  0  0  0
   38.0890   76.9010   57.4840 C   0  0  0  0  0  0  0  0  0  0  0  0
   38.6050   77.6380   58.4930 N   0  0  0  0  0  0  0  0  0  0  0  0
   41.0940   75.5620   59.4950 H   0  0  0  0  0  0  0  0  0  0  0  0
   40.0610   74.2670   57.6030 H   0  0  0  0  0  0  0  0  0  0  0  0
   40.9670   80.1210   61.6480 C   0  0  0  0  0  0  0  0  0  0  0  0
   40.9540   78.8950   62.2700 C   0  0  0  0  0  0  0  0  0  0  0  0
   40.5380   77.8290   61.5600 C   0  0  0  0  0  0  0  0  0  0  0  0
   40.1430   78.0070   60.2380 C   0  0  0  0  0  0  0  0  0  0  0  0
   40.3680   79.8100   59.9610 S   0  0  0  0  0  0  0  0  0  0  0  0
   41.2650   78.7590   63.3070 H   0  0  0  0  0  0  0  0  0  0  0  0
   40.4540   76.7940   61.8570 H   0  0  0  0  0  0  0  0  0  0  0  0
   43.1210   82.8940   62.7110 C   0  0  0  0  0  0  0  0  0  0  0  0
   42.2470   83.6940   63.4940 C   0  0  0  0  0  0  0  0  0  0  0  0
   40.9180   83.2780   63.6490 C   0  0  0  0  0  0  0  0  0  0  0  0
   40.5260   82.1300   63.0430 N   0  0  0  0  0  0  0  0  0  0  0  0
   41.3960   81.3860   62.2980 C   0  0  0  0  0  0  0  0  0  0  0  0
   42.6640   81.7760   62.1460 N   0  0  0  0  0  0  0  0  0  0  0  0
   44.1360   83.2550   62.6210 H   0  0  0  0  0  0  0  0  0  0  0  0
   42.5770   84.6010   63.9660 H   0  0  0  0  0  0  0  0  0  0  0  0
   40.2240   83.8460   64.2270 H   0  0  0  0  0  0  0  0  0  0  0  0
   36.9640   77.3540   56.6890 C   0  0  0  0  0  0  0  0  0  0  0  0
   35.8270   77.1250   57.1260 O   0  0  0  0  0  0  0  0  0  0  0  0
   37.1470   78.0690   55.3700 C   0  0  1  0  0  0  0  0  0  0  0  0
   37.3910   79.5490   55.5360 C   0  0  0  0  0  0  0  0  0  0  0  0
   38.4300   78.6470   55.0360 C   0  0  2  0  0  0  0  0  0  0  0  0
   36.2950   77.8960   54.6560 H   0  0  0  0  0  0  0  0  0  0  0  0
   36.7620   80.2050   54.9160 H   0  0  0  0  0  0  0  0  0  0  0  0
   37.4400   79.9480   56.5950 H   0  0  0  0  0  0  0  0  0  0  0  0
   39.2540   78.4050   55.8030 H   0  0  0  0  0  0  0  0  0  0  0  0
   39.0030   78.8520   53.6890 C   0  0  0  0  0  2  0  0  0  0  0  0
   40.4360   78.9630   53.7290 N   0  0  0  0  0  4  0  0  0  0  0  0
   40.9100   78.2550   54.3250 H   0  0  0  0  0  0  0  0  0  0  0  0
   40.9960   78.6690   52.3810 C   0  0  0  0  0  2  0  0  0  0  0  0
   42.0870   78.6070   52.5360 H   0  0  0  0  0  0  0  0  0  0  0  0
   40.8880   80.2930   54.0620 C   0  0  0  0  0  2  0  0  0  0  0  0
   41.6980   80.6280   53.3750 H   0  0  0  0  0  0  0  0  0  0  0  0
  1 12  1  0  0  0  0
  2  1  1  0  0  0  0
  2  7  1  0  0  0  0
  3  2  2  0  0  0  0
  4  5  2  0  0  0  0
  4  3  1  0  0  0  0
  5  6  1  0  0  0  0
  6  1  2  0  0  0  0
  8  3  1  0  0  0  0
  9 10  2  0  0  0  0
  9 20  1  0  0  0  0
 10 14  1  0  0  0  0
 11 15  1  0  0  0  0
 11 10  1  0  0  0  0
 12 11  2  0  0  0  0
 13 12  1  0  0  0  0
 13  9  1  0  0  0  0
 16 17  1  0  0  0  0
 17 18  2  0  0  0  0
 17 23  1  0  0  0  0
 18 24  1  0  0  0  0
 19 18  1  0  0  0  0
 20 19  2  0  0  0  0
 21 20  1  0  0  0  0
 21 16  2  0  0  0  0
 22 16  1  0  0  0  0
 25 26  2  0  0  0  0
 25  5  1  0  0  0  0
 27 30  1  6  0  0  0
 27 28  1  0  0  0  0
 27 25  1  0  0  0  0
 28 32  1  0  0  0  0
 29 27  1  0  0  0  0
 29 28  1  0  0  0  0
 29 33  1  1  0  0  0
 31 28  1  0  0  0  0
 34 35  1  0  0  0  0
 34 29  1  0  0  0  0
 35 39  1  0  0  0  0
 35 36  1  0  0  0  0
 37 38  1  0  0  0  0
 37 35  1  0  0  0  0
 40 39  1  0  0  0  0
M  END
>  <minimizedAffinity>
-5.64382792

>  <minimizedRMSD>
0.779269099

$$$$
