
 OpenBabel03212521013D

 40 43  0  0  1  0  0  0  0  0999 V2000
   39.1220   76.3490   58.7020 C   0  0  0  0  0  0  0  0  0  0  0  0
   39.7410   77.5360   58.9120 C   0  0  0  0  0  0  0  0  0  0  0  0
   39.3780   78.5030   57.9600 C   0  0  0  0  0  0  0  0  0  0  0  0
   38.5150   78.2830   56.9530 N   0  0  0  0  0  0  0  0  0  0  0  0
   37.9460   77.0470   56.8330 C   0  0  0  0  0  0  0  0  0  0  0  0
   38.2560   76.0720   57.7180 N   0  0  0  0  0  0  0  0  0  0  0  0
   40.4320   77.7700   59.6900 H   0  0  0  0  0  0  0  0  0  0  0  0
   39.7920   79.5130   57.9940 H   0  0  0  0  0  0  0  0  0  0  0  0
   40.5620   73.2090   60.8770 C   0  0  0  0  0  0  0  0  0  0  0  0
   39.3090   73.5960   61.2900 C   0  0  0  0  0  0  0  0  0  0  0  0
   38.7210   74.6250   60.6500 C   0  0  0  0  0  0  0  0  0  0  0  0
   39.3960   75.2500   59.6070 C   0  0  0  0  0  0  0  0  0  0  0  0
   40.9840   74.3280   59.5090 S   0  0  0  0  0  0  0  0  0  0  0  0
   38.7820   73.1040   62.1080 H   0  0  0  0  0  0  0  0  0  0  0  0
   37.7540   75.0780   60.8170 H   0  0  0  0  0  0  0  0  0  0  0  0
   41.6690   70.7100   63.3230 C   0  0  0  0  0  0  0  0  0  0  0  0
   42.7490   70.0700   62.6590 C   0  0  0  0  0  0  0  0  0  0  0  0
   43.0880   70.4980   61.3680 C   0  0  0  0  0  0  0  0  0  0  0  0
   42.3690   71.5050   60.8120 N   0  0  0  0  0  0  0  0  0  0  0  0
   41.3380   72.0960   61.4830 C   0  0  0  0  0  0  0  0  0  0  0  0
   41.0080   71.6940   62.7130 N   0  0  0  0  0  0  0  0  0  0  0  0
   41.4450   70.3460   64.3170 H   0  0  0  0  0  0  0  0  0  0  0  0
   43.3060   69.2740   63.1170 H   0  0  0  0  0  0  0  0  0  0  0  0
   43.8910   70.0480   60.8290 H   0  0  0  0  0  0  0  0  0  0  0  0
   37.0140   76.8360   55.7420 C   0  0  0  0  0  0  0  0  0  0  0  0
   36.0660   77.6270   55.6420 O   0  0  0  0  0  0  0  0  0  0  0  0
   37.1660   75.6950   54.7620 C   0  0  1  0  0  0  0  0  0  0  0  0
   37.4920   76.1640   53.3650 C   0  0  0  0  0  0  0  0  0  0  0  0
   38.4580   75.4180   54.1740 C   0  0  2  0  0  0  0  0  0  0  0  0
   36.2720   75.0120   54.7420 H   0  0  0  0  0  0  0  0  0  0  0  0
   36.8650   75.7400   52.5660 H   0  0  0  0  0  0  0  0  0  0  0  0
   37.6130   77.2790   53.2110 H   0  0  0  0  0  0  0  0  0  0  0  0
   39.3060   76.0640   54.6090 H   0  0  0  0  0  0  0  0  0  0  0  0
   38.9730   74.1170   53.7000 C   0  0  0  0  0  2  0  0  0  0  0  0
   39.1300   73.1780   54.7780 N   0  0  0  0  0  4  0  0  0  0  0  0
   38.2400   72.8610   55.2110 H   0  0  0  0  0  0  0  0  0  0  0  0
   39.6970   71.9060   54.2510 C   0  0  0  0  0  2  0  0  0  0  0  0
   39.6260   71.1950   55.0920 H   0  0  0  0  0  0  0  0  0  0  0  0
   40.0540   73.6330   55.7870 C   0  0  0  0  0  2  0  0  0  0  0  0
   40.7720   72.8290   56.0700 H   0  0  0  0  0  0  0  0  0  0  0  0
  1  2  1  0  0  0  0
  1 12  1  0  0  0  0
  2  7  1  0  0  0  0
  3  8  1  0  0  0  0
  3  2  2  0  0  0  0
  4  3  1  0  0  0  0
  5  4  2  0  0  0  0
  5  6  1  0  0  0  0
  6  1  2  0  0  0  0
  9 10  2  0  0  0  0
  9 20  1  0  0  0  0
 10 14  1  0  0  0  0
 11 15  1  0  0  0  0
 11 10  1  0  0  0  0
 12 11  2  0  0  0  0
 13 12  1  0  0  0  0
 13  9  1  0  0  0  0
 16 22  1  0  0  0  0
 17 23  1  0  0  0  0
 17 16  2  0  0  0  0
 18 17  1  0  0  0  0
 19 18  2  0  0  0  0
 19 20  1  0  0  0  0
 20 21  2  0  0  0  0
 21 16  1  0  0  0  0
 24 18  1  0  0  0  0
 25  5  1  0  0  0  0
 26 25  2  0  0  0  0
 27 30  1  1  0  0  0
 27 25  1  0  0  0  0
 28 29  1  0  0  0  0
 28 27  1  0  0  0  0
 29 33  1  1  0  0  0
 29 27  1  0  0  0  0
 31 28  1  0  0  0  0
 32 28  1  0  0  0  0
 34 29  1  0  0  0  0
 34 35  1  0  0  0  0
 35 36  1  0  0  0  0
 35 39  1  0  0  0  0
 37 35  1  0  0  0  0
 37 38  1  0  0  0  0
 39 40  1  0  0  0  0
M  END
>  <minimizedAffinity>
-6.43225384

$$$$

 OpenBabel03212521013D

 40 43  0  0  1  0  0  0  0  0999 V2000
   42.2970   73.6980   60.3620 C   0  0  0  0  0  0  0  0  0  0  0  0
   43.4170   73.8800   59.6220 C   0  0  0  0  0  0  0  0  0  0  0  0
   43.4000   75.0930   58.9150 C   0  0  0  0  0  0  0  0  0  0  0  0
   42.3890   75.9790   58.9620 N   0  0  0  0  0  0  0  0  0  0  0  0
   41.3040   75.6970   59.7420 C   0  0  0  0  0  0  0  0  0  0  0  0
   41.2610   74.5430   60.4470 N   0  0  0  0  0  0  0  0  0  0  0  0
   44.2490   73.2160   59.5440 H   0  0  0  0  0  0  0  0  0  0  0  0
   44.2330   75.3850   58.2720 H   0  0  0  0  0  0  0  0  0  0  0  0
   41.9800   69.9340   61.9070 C   0  0  0  0  0  0  0  0  0  0  0  0
   41.9500   70.9010   62.8840 C   0  0  0  0  0  0  0  0  0  0  0  0
   42.0470   72.1880   62.5030 C   0  0  0  0  0  0  0  0  0  0  0  0
   42.1710   72.4890   61.1510 C   0  0  0  0  0  0  0  0  0  0  0  0
   42.1520   70.8380   60.3410 S   0  0  0  0  0  0  0  0  0  0  0  0
   41.8530   70.6620   63.9440 H   0  0  0  0  0  0  0  0  0  0  0  0
   42.0440   73.0860   63.1040 H   0  0  0  0  0  0  0  0  0  0  0  0
   42.3890   66.3170   61.4540 C   0  0  0  0  0  0  0  0  0  0  0  0
   41.7230   65.7760   62.5860 C   0  0  0  0  0  0  0  0  0  0  0  0
   41.1400   66.6600   63.5040 C   0  0  0  0  0  0  0  0  0  0  0  0
   41.2380   67.9920   63.2700 N   0  0  0  0  0  0  0  0  0  0  0  0
   41.8870   68.4740   62.1690 C   0  0  0  0  0  0  0  0  0  0  0  0
   42.4450   67.6390   61.2900 N   0  0  0  0  0  0  0  0  0  0  0  0
   42.8230   65.5960   60.7740 H   0  0  0  0  0  0  0  0  0  0  0  0
   41.6560   64.7170   62.7540 H   0  0  0  0  0  0  0  0  0  0  0  0
   40.6300   66.3010   64.3700 H   0  0  0  0  0  0  0  0  0  0  0  0
   40.2300   76.6700   59.7820 C   0  0  0  0  0  0  0  0  0  0  0  0
   40.1880   77.4330   60.7570 O   0  0  0  0  0  0  0  0  0  0  0  0
   39.1850   76.7610   58.6930 C   0  0  1  0  0  0  0  0  0  0  0  0
   39.3450   77.9880   57.8300 C   0  0  0  0  0  0  0  0  0  0  0  0
   39.5770   76.6420   57.3060 C   0  0  2  0  0  0  0  0  0  0  0  0
   38.1340   76.7020   59.0890 H   0  0  0  0  0  0  0  0  0  0  0  0
   38.4320   78.5830   57.6800 H   0  0  0  0  0  0  0  0  0  0  0  0
   40.2180   78.6720   58.0620 H   0  0  0  0  0  0  0  0  0  0  0  0
   40.6890   76.3750   57.1670 H   0  0  0  0  0  0  0  0  0  0  0  0
   38.7660   76.1340   56.1800 C   0  0  0  0  0  2  0  0  0  0  0  0
   37.3590   76.1650   56.4770 N   0  0  0  0  0  4  0  0  0  0  0  0
   37.1120   76.6570   57.3580 H   0  0  0  0  0  0  0  0  0  0  0  0
   36.6520   76.9790   55.4500 C   0  0  0  0  0  2  0  0  0  0  0  0
   35.6260   77.0950   55.8380 H   0  0  0  0  0  0  0  0  0  0  0  0
   36.7480   74.8590   56.4330 C   0  0  0  0  0  2  0  0  0  0  0  0
   35.7940   74.8780   55.8570 H   0  0  0  0  0  0  0  0  0  0  0  0
  1  6  1  0  0  0  0
  1 12  1  0  0  0  0
  2  1  2  0  0  0  0
  3  4  2  0  0  0  0
  3  2  1  0  0  0  0
  4  5  1  0  0  0  0
  5 25  1  0  0  0  0
  5  6  2  0  0  0  0
  7  2  1  0  0  0  0
  8  3  1  0  0  0  0
  9 20  1  0  0  0  0
  9 10  2  0  0  0  0
 10 14  1  0  0  0  0
 11 10  1  0  0  0  0
 11 15  1  0  0  0  0
 12 11  2  0  0  0  0
 13 12  1  0  0  0  0
 13  9  1  0  0  0  0
 16 17  1  0  0  0  0
 17 23  1  0  0  0  0
 17 18  2  0  0  0  0
 18 24  1  0  0  0  0
 19 18  1  0  0  0  0
 20 19  2  0  0  0  0
 21 16  2  0  0  0  0
 21 20  1  0  0  0  0
 22 16  1  0  0  0  0
 25 26  2  0  0  0  0
 27 30  1  1  0  0  0
 27 25  1  0  0  0  0
 28 32  1  0  0  0  0
 28 27  1  0  0  0  0
 29 33  1  6  0  0  0
 29 28  1  0  0  0  0
 29 27  1  0  0  0  0
 31 28  1  0  0  0  0
 34 35  1  0  0  0  0
 34 29  1  0  0  0  0
 35 36  1  0  0  0  0
 37 38  1  0  0  0  0
 37 35  1  0  0  0  0
 39 35  1  0  0  0  0
 40 39  1  0  0  0  0
M  END
>  <minimizedAffinity>
-6.11677122

$$$$

 OpenBabel03212521013D

 40 43  0  0  1  0  0  0  0  0999 V2000
   41.1070   72.8150   60.8900 C   0  0  0  0  0  0  0  0  0  0  0  0
   41.5700   72.8780   62.1610 C   0  0  0  0  0  0  0  0  0  0  0  0
   42.2360   71.7030   62.5470 C   0  0  0  0  0  0  0  0  0  0  0  0
   42.3990   70.6330   61.7500 N   0  0  0  0  0  0  0  0  0  0  0  0
   41.8920   70.6750   60.4820 C   0  0  0  0  0  0  0  0  0  0  0  0
   41.2390   71.7780   60.0520 N   0  0  0  0  0  0  0  0  0  0  0  0
   41.4720   73.6970   62.8400 H   0  0  0  0  0  0  0  0  0  0  0  0
   42.6680   71.5990   63.5450 H   0  0  0  0  0  0  0  0  0  0  0  0
   39.1750   75.6640   58.6960 C   0  0  0  0  0  0  0  0  0  0  0  0
   39.2530   75.9970   60.0270 C   0  0  0  0  0  0  0  0  0  0  0  0
   39.8690   75.1380   60.8600 C   0  0  0  0  0  0  0  0  0  0  0  0
   40.3980   73.9580   60.3490 C   0  0  0  0  0  0  0  0  0  0  0  0
   40.0030   74.0530   58.5550 S   0  0  0  0  0  0  0  0  0  0  0  0
   38.8380   76.9240   60.4260 H   0  0  0  0  0  0  0  0  0  0  0  0
   40.0350   75.2110   61.9260 H   0  0  0  0  0  0  0  0  0  0  0  0
   38.4160   78.5730   56.5940 C   0  0  0  0  0  0  0  0  0  0  0  0
   37.3520   78.1080   55.7780 C   0  0  0  0  0  0  0  0  0  0  0  0
   36.9020   76.7910   55.9500 C   0  0  0  0  0  0  0  0  0  0  0  0
   37.5050   76.0220   56.8900 N   0  0  0  0  0  0  0  0  0  0  0  0
   38.5260   76.5050   57.6570 C   0  0  0  0  0  0  0  0  0  0  0  0
   38.9600   77.7580   57.4990 N   0  0  0  0  0  0  0  0  0  0  0  0
   38.7270   79.5950   56.4240 H   0  0  0  0  0  0  0  0  0  0  0  0
   36.8870   78.7330   55.0380 H   0  0  0  0  0  0  0  0  0  0  0  0
   36.1060   76.3970   55.3600 H   0  0  0  0  0  0  0  0  0  0  0  0
   42.0860   69.5110   59.6390 C   0  0  0  0  0  0  0  0  0  0  0  0
   42.6990   69.6740   58.5750 O   0  0  0  0  0  0  0  0  0  0  0  0
   41.5590   68.1460   60.0170 C   0  0  1  0  0  0  0  0  0  0  0  0
   42.3380   67.0210   59.3810 C   0  0  0  0  0  0  0  0  0  0  0  0
   42.3670   67.2600   60.8250 C   0  0  2  0  0  0  0  0  0  0  0  0
   40.4610   68.0240   59.8030 H   0  0  0  0  0  0  0  0  0  0  0  0
   41.7340   66.2550   58.8730 H   0  0  0  0  0  0  0  0  0  0  0  0
   43.2230   67.3080   58.7350 H   0  0  0  0  0  0  0  0  0  0  0  0
   43.3400   67.7470   61.2030 H   0  0  0  0  0  0  0  0  0  0  0  0
   41.9010   66.2140   61.7590 C   0  0  0  0  0  2  0  0  0  0  0  0
   40.6980   66.6030   62.4430 N   0  0  0  0  0  4  0  0  0  0  0  0
   39.9830   67.0570   61.8390 H   0  0  0  0  0  0  0  0  0  0  0  0
   39.9830   65.3880   62.9230 C   0  0  0  0  0  2  0  0  0  0  0  0
   39.0050   65.7570   63.2760 H   0  0  0  0  0  0  0  0  0  0  0  0
   40.9530   67.4000   63.6180 C   0  0  0  0  0  2  0  0  0  0  0  0
   40.3570   67.0400   64.4870 H   0  0  0  0  0  0  0  0  0  0  0  0
  1  2  1  0  0  0  0
  2  3  2  0  0  0  0
  2  7  1  0  0  0  0
  3  8  1  0  0  0  0
  4  3  1  0  0  0  0
  5  4  2  0  0  0  0
  6  5  1  0  0  0  0
  6  1  2  0  0  0  0
  9 10  2  0  0  0  0
 10 14  1  0  0  0  0
 10 11  1  0  0  0  0
 11 15  1  0  0  0  0
 12 11  2  0  0  0  0
 12  1  1  0  0  0  0
 13  9  1  0  0  0  0
 13 12  1  0  0  0  0
 16 21  1  0  0  0  0
 17 18  1  0  0  0  0
 17 16  2  0  0  0  0
 18 19  2  0  0  0  0
 19 20  1  0  0  0  0
 20  9  1  0  0  0  0
 21 20  2  0  0  0  0
 22 16  1  0  0  0  0
 23 17  1  0  0  0  0
 24 18  1  0  0  0  0
 25 27  1  0  0  0  0
 25  5  1  0  0  0  0
 26 25  2  0  0  0  0
 27 30  1  1  0  0  0
 27 29  1  0  0  0  0
 28 27  1  0  0  0  0
 28 29  1  0  0  0  0
 29 33  1  1  0  0  0
 29 34  1  0  0  0  0
 31 28  1  0  0  0  0
 32 28  1  0  0  0  0
 34 35  1  0  0  0  0
 35 37  1  0  0  0  0
 35 39  1  0  0  0  0
 36 35  1  0  0  0  0
 37 38  1  0  0  0  0
 39 40  1  0  0  0  0
M  END
>  <minimizedAffinity>
-6.07518148

$$$$

 OpenBabel03212521013D

 40 43  0  0  1  0  0  0  0  0999 V2000
   42.1160   73.6500   60.3610 C   0  0  0  0  0  0  0  0  0  0  0  0
   43.3100   74.0390   59.8520 C   0  0  0  0  0  0  0  0  0  0  0  0
   43.2110   75.2240   59.1040 C   0  0  0  0  0  0  0  0  0  0  0  0
   42.0660   75.9010   58.9120 N   0  0  0  0  0  0  0  0  0  0  0  0
   40.9160   75.4200   59.4720 C   0  0  0  0  0  0  0  0  0  0  0  0
   40.9460   74.2820   60.2030 N   0  0  0  0  0  0  0  0  0  0  0  0
   44.2490   73.5460   59.9700 H   0  0  0  0  0  0  0  0  0  0  0  0
   44.0890   75.6670   58.6280 H   0  0  0  0  0  0  0  0  0  0  0  0
   41.9230   69.8880   61.9340 C   0  0  0  0  0  0  0  0  0  0  0  0
   42.0020   70.8560   62.9080 C   0  0  0  0  0  0  0  0  0  0  0  0
   42.0710   72.1420   62.5190 C   0  0  0  0  0  0  0  0  0  0  0  0
   42.0600   72.4420   61.1600 C   0  0  0  0  0  0  0  0  0  0  0  0
   41.9430   70.7910   60.3580 S   0  0  0  0  0  0  0  0  0  0  0  0
   42.0110   70.6170   63.9730 H   0  0  0  0  0  0  0  0  0  0  0  0
   42.1380   73.0400   63.1160 H   0  0  0  0  0  0  0  0  0  0  0  0
   41.2090   66.7390   63.6740 C   0  0  0  0  0  0  0  0  0  0  0  0
   41.6940   65.7570   62.7690 C   0  0  0  0  0  0  0  0  0  0  0  0
   42.2610   66.1840   61.5610 C   0  0  0  0  0  0  0  0  0  0  0  0
   42.3200   67.5150   61.3100 N   0  0  0  0  0  0  0  0  0  0  0  0
   41.8430   68.4290   62.2050 C   0  0  0  0  0  0  0  0  0  0  0  0
   41.3020   68.0310   63.3590 N   0  0  0  0  0  0  0  0  0  0  0  0
   40.7810   66.3610   64.5930 H   0  0  0  0  0  0  0  0  0  0  0  0
   41.6380   64.7070   62.9860 H   0  0  0  0  0  0  0  0  0  0  0  0
   42.6380   65.4850   60.8490 H   0  0  0  0  0  0  0  0  0  0  0  0
   39.6950   76.1710   59.2560 C   0  0  0  0  0  0  0  0  0  0  0  0
   39.6990   77.3690   59.5720 O   0  0  0  0  0  0  0  0  0  0  0  0
   38.4500   75.5350   58.6810 C   0  0  1  0  0  0  0  0  0  0  0  0
   38.1340   76.0240   57.2890 C   0  0  0  0  0  0  0  0  0  0  0  0
   38.5530   74.6450   57.5460 C   0  0  2  0  0  0  0  0  0  0  0  0
   37.5500   75.6540   59.3460 H   0  0  0  0  0  0  0  0  0  0  0  0
   37.0970   76.3560   57.1280 H   0  0  0  0  0  0  0  0  0  0  0  0
   38.8540   76.7660   56.8270 H   0  0  0  0  0  0  0  0  0  0  0  0
   39.6410   74.4190   57.2410 H   0  0  0  0  0  0  0  0  0  0  0  0
   37.6610   73.5210   57.1970 C   0  0  0  0  0  2  0  0  0  0  0  0
   38.3990   72.3610   56.7750 N   0  0  0  0  0  4  0  0  0  0  0  0
   37.8380   71.6520   56.2630 H   0  0  0  0  0  0  0  0  0  0  0  0
   39.4120   72.7590   55.7580 C   0  0  0  0  0  2  0  0  0  0  0  0
   39.8090   71.8070   55.3660 H   0  0  0  0  0  0  0  0  0  0  0  0
   39.1400   71.7470   57.8490 C   0  0  0  0  0  2  0  0  0  0  0  0
   40.1850   71.5140   57.5380 H   0  0  0  0  0  0  0  0  0  0  0  0
  1 12  1  0  0  0  0
  2  7  1  0  0  0  0
  2  1  2  0  0  0  0
  3  2  1  0  0  0  0
  4  3  2  0  0  0  0
  4  5  1  0  0  0  0
  5  6  2  0  0  0  0
  6  1  1  0  0  0  0
  8  3  1  0  0  0  0
  9 20  1  0  0  0  0
  9 10  2  0  0  0  0
 10 14  1  0  0  0  0
 11 10  1  0  0  0  0
 11 15  1  0  0  0  0
 12 11  2  0  0  0  0
 13 12  1  0  0  0  0
 13  9  1  0  0  0  0
 16 22  1  0  0  0  0
 17 23  1  0  0  0  0
 17 16  2  0  0  0  0
 18 17  1  0  0  0  0
 19 18  2  0  0  0  0
 19 20  1  0  0  0  0
 20 21  2  0  0  0  0
 21 16  1  0  0  0  0
 24 18  1  0  0  0  0
 25  5  1  0  0  0  0
 25 26  2  0  0  0  0
 27 25  1  0  0  0  0
 27 30  1  1  0  0  0
 28 29  1  0  0  0  0
 28 27  1  0  0  0  0
 29 33  1  6  0  0  0
 29 27  1  0  0  0  0
 31 28  1  0  0  0  0
 32 28  1  0  0  0  0
 34 29  1  0  0  0  0
 35 34  1  0  0  0  0
 35 39  1  0  0  0  0
 36 35  1  0  0  0  0
 37 35  1  0  0  0  0
 38 37  1  0  0  0  0
 40 39  1  0  0  0  0
M  END
>  <minimizedAffinity>
-6.05770302

$$$$

 OpenBabel03212521013D

 40 43  0  0  1  0  0  0  0  0999 V2000
   42.0010   74.4820   59.5220 C   0  0  0  0  0  0  0  0  0  0  0  0
   43.2350   74.9840   59.2800 C   0  0  0  0  0  0  0  0  0  0  0  0
   44.2460   74.2560   59.9310 C   0  0  0  0  0  0  0  0  0  0  0  0
   44.0200   73.1820   60.7080 N   0  0  0  0  0  0  0  0  0  0  0  0
   42.7330   72.7590   60.8860 C   0  0  0  0  0  0  0  0  0  0  0  0
   41.7160   73.4180   60.2860 N   0  0  0  0  0  0  0  0  0  0  0  0
   43.4770   75.8290   58.6750 H   0  0  0  0  0  0  0  0  0  0  0  0
   45.2970   74.5360   59.8340 H   0  0  0  0  0  0  0  0  0  0  0  0
   39.0100   75.9570   57.1690 C   0  0  0  0  0  0  0  0  0  0  0  0
   38.9030   76.3810   58.4730 C   0  0  0  0  0  0  0  0  0  0  0  0
   39.8310   75.9630   59.3530 C   0  0  0  0  0  0  0  0  0  0  0  0
   40.8540   75.1270   58.9150 C   0  0  0  0  0  0  0  0  0  0  0  0
   40.4900   74.9050   57.1270 S   0  0  0  0  0  0  0  0  0  0  0  0
   38.1000   77.0360   58.8130 H   0  0  0  0  0  0  0  0  0  0  0  0
   39.9270   76.1770   60.4080 H   0  0  0  0  0  0  0  0  0  0  0  0
   37.1930   75.8330   53.9850 C   0  0  0  0  0  0  0  0  0  0  0  0
   36.3610   76.9820   54.0470 C   0  0  0  0  0  0  0  0  0  0  0  0
   36.4250   77.7930   55.1890 C   0  0  0  0  0  0  0  0  0  0  0  0
   37.2790   77.4430   56.1820 N   0  0  0  0  0  0  0  0  0  0  0  0
   38.0640   76.3300   56.0850 C   0  0  0  0  0  0  0  0  0  0  0  0
   38.0090   75.5530   55.0010 N   0  0  0  0  0  0  0  0  0  0  0  0
   37.1090   75.2400   53.0850 H   0  0  0  0  0  0  0  0  0  0  0  0
   35.6910   77.2430   53.2500 H   0  0  0  0  0  0  0  0  0  0  0  0
   35.8190   78.6660   55.2820 H   0  0  0  0  0  0  0  0  0  0  0  0
   42.5160   71.5950   61.7230 C   0  0  0  0  0  0  0  0  0  0  0  0
   42.4690   71.7740   62.9480 O   0  0  0  0  0  0  0  0  0  0  0  0
   42.3630   70.2060   61.1460 C   0  0  1  0  0  0  0  0  0  0  0  0
   43.6270   69.3880   61.2480 C   0  0  0  0  0  0  0  0  0  0  0  0
   42.4270   69.0530   62.0170 C   0  0  2  0  0  0  0  0  0  0  0  0
   41.9900   70.2100   60.0850 H   0  0  0  0  0  0  0  0  0  0  0  0
   43.9470   68.8940   60.3180 H   0  0  0  0  0  0  0  0  0  0  0  0
   44.5160   69.8730   61.7550 H   0  0  0  0  0  0  0  0  0  0  0  0
   42.4920   69.3270   63.1340 H   0  0  0  0  0  0  0  0  0  0  0  0
   41.7680   67.7440   61.8310 C   0  0  0  0  0  2  0  0  0  0  0  0
   40.7790   67.4930   62.8440 N   0  0  0  0  0  4  0  0  0  0  0  0
   39.7950   67.5580   62.5150 H   0  0  0  0  0  0  0  0  0  0  0  0
   40.8720   66.0740   63.2890 C   0  0  0  0  0  2  0  0  0  0  0  0
   39.9850   65.9190   63.9270 H   0  0  0  0  0  0  0  0  0  0  0  0
   40.9750   68.2910   64.0290 C   0  0  0  0  0  2  0  0  0  0  0  0
   40.8910   67.6710   64.9520 H   0  0  0  0  0  0  0  0  0  0  0  0
  1  6  1  0  0  0  0
  2  1  2  0  0  0  0
  2  3  1  0  0  0  0
  3  4  2  0  0  0  0
  4  5  1  0  0  0  0
  5 25  1  0  0  0  0
  6  5  2  0  0  0  0
  7  2  1  0  0  0  0
  8  3  1  0  0  0  0
  9 10  2  0  0  0  0
 10 14  1  0  0  0  0
 10 11  1  0  0  0  0
 11 15  1  0  0  0  0
 12 11  2  0  0  0  0
 12  1  1  0  0  0  0
 13  9  1  0  0  0  0
 13 12  1  0  0  0  0
 16 17  2  0  0  0  0
 16 21  1  0  0  0  0
 17 18  1  0  0  0  0
 18 24  1  0  0  0  0
 18 19  2  0  0  0  0
 20 19  1  0  0  0  0
 20  9  1  0  0  0  0
 21 20  2  0  0  0  0
 22 16  1  0  0  0  0
 23 17  1  0  0  0  0
 25 26  2  0  0  0  0
 27 30  1  6  0  0  0
 27 28  1  0  0  0  0
 27 25  1  0  0  0  0
 27 29  1  0  0  0  0
 28 32  1  0  0  0  0
 28 29  1  0  0  0  0
 29 33  1  1  0  0  0
 31 28  1  0  0  0  0
 34 29  1  0  0  0  0
 34 35  1  0  0  0  0
 35 37  1  0  0  0  0
 35 39  1  0  0  0  0
 36 35  1  0  0  0  0
 37 38  1  0  0  0  0
 39 40  1  0  0  0  0
M  END
>  <minimizedAffinity>
-6.02968931

$$$$

 OpenBabel03212521013D

 40 43  0  0  1  0  0  0  0  0999 V2000
   41.9900   74.5110   59.7920 C   0  0  0  0  0  0  0  0  0  0  0  0
   43.2680   74.7930   59.4420 C   0  0  0  0  0  0  0  0  0  0  0  0
   44.1950   73.9460   60.0730 C   0  0  0  0  0  0  0  0  0  0  0  0
   43.8580   72.9650   60.9290 N   0  0  0  0  0  0  0  0  0  0  0  0
   42.5360   72.7660   61.2130 C   0  0  0  0  0  0  0  0  0  0  0  0
   41.5960   73.5490   60.6380 N   0  0  0  0  0  0  0  0  0  0  0  0
   43.5970   75.5550   58.7710 H   0  0  0  0  0  0  0  0  0  0  0  0
   45.2670   74.0470   59.8930 H   0  0  0  0  0  0  0  0  0  0  0  0
   39.1000   76.3180   57.5460 C   0  0  0  0  0  0  0  0  0  0  0  0
   39.1730   76.8390   58.8170 C   0  0  0  0  0  0  0  0  0  0  0  0
   40.0890   76.3270   59.6590 C   0  0  0  0  0  0  0  0  0  0  0  0
   40.9200   75.3020   59.2180 C   0  0  0  0  0  0  0  0  0  0  0  0
   40.3770   75.0280   57.4830 S   0  0  0  0  0  0  0  0  0  0  0  0
   38.5210   77.6440   59.1600 H   0  0  0  0  0  0  0  0  0  0  0  0
   40.3060   76.5920   60.6850 H   0  0  0  0  0  0  0  0  0  0  0  0
   37.1230   78.5700   55.4310 C   0  0  0  0  0  0  0  0  0  0  0  0
   36.3740   77.6730   54.6240 C   0  0  0  0  0  0  0  0  0  0  0  0
   36.5560   76.2960   54.8080 C   0  0  0  0  0  0  0  0  0  0  0  0
   37.4410   75.8820   55.7490 N   0  0  0  0  0  0  0  0  0  0  0  0
   38.1430   76.7750   56.5060 C   0  0  0  0  0  0  0  0  0  0  0  0
   37.9750   78.0890   56.3370 N   0  0  0  0  0  0  0  0  0  0  0  0
   36.9470   79.6220   55.2520 H   0  0  0  0  0  0  0  0  0  0  0  0
   35.6780   78.0210   53.8830 H   0  0  0  0  0  0  0  0  0  0  0  0
   36.0170   75.5830   54.2250 H   0  0  0  0  0  0  0  0  0  0  0  0
   42.1980   71.6970   62.1330 C   0  0  0  0  0  0  0  0  0  0  0  0
   41.3500   71.9420   63.0030 O   0  0  0  0  0  0  0  0  0  0  0  0
   42.8500   70.3350   62.0600 C   0  0  1  0  0  0  0  0  0  0  0  0
   42.7600   69.5740   63.3600 C   0  0  0  0  0  0  0  0  0  0  0  0
   42.0390   69.1420   62.1620 C   0  0  2  0  0  0  0  0  0  0  0  0
   43.9190   70.3790   61.7120 H   0  0  0  0  0  0  0  0  0  0  0  0
   43.7060   69.1470   63.7250 H   0  0  0  0  0  0  0  0  0  0  0  0
   42.2070   70.0740   64.2130 H   0  0  0  0  0  0  0  0  0  0  0  0
   40.9080   69.3590   62.1880 H   0  0  0  0  0  0  0  0  0  0  0  0
   42.3100   67.8150   61.5720 C   0  0  0  0  0  2  0  0  0  0  0  0
   42.4150   67.8770   60.1390 N   0  0  0  0  0  4  0  0  0  0  0  0
   42.2500   68.8190   59.7320 H   0  0  0  0  0  0  0  0  0  0  0  0
   43.8190   67.5950   59.7300 C   0  0  0  0  0  2  0  0  0  0  0  0
   43.8520   67.8280   58.6520 H   0  0  0  0  0  0  0  0  0  0  0  0
   41.6050   66.8860   59.4740 C   0  0  0  0  0  2  0  0  0  0  0  0
   42.1810   66.3630   58.6750 H   0  0  0  0  0  0  0  0  0  0  0  0
  1  6  1  0  0  0  0
  2  1  2  0  0  0  0
  2  3  1  0  0  0  0
  3  4  2  0  0  0  0
  4  5  1  0  0  0  0
  5 25  1  0  0  0  0
  6  5  2  0  0  0  0
  7  2  1  0  0  0  0
  8  3  1  0  0  0  0
  9 10  2  0  0  0  0
 10 14  1  0  0  0  0
 10 11  1  0  0  0  0
 11 15  1  0  0  0  0
 12 11  2  0  0  0  0
 12  1  1  0  0  0  0
 13  9  1  0  0  0  0
 13 12  1  0  0  0  0
 16 21  1  0  0  0  0
 17 18  1  0  0  0  0
 17 16  2  0  0  0  0
 18 19  2  0  0  0  0
 19 20  1  0  0  0  0
 20  9  1  0  0  0  0
 21 20  2  0  0  0  0
 22 16  1  0  0  0  0
 23 17  1  0  0  0  0
 24 18  1  0  0  0  0
 25 26  2  0  0  0  0
 27 30  1  6  0  0  0
 27 25  1  0  0  0  0
 27 29  1  0  0  0  0
 27 28  1  0  0  0  0
 28 31  1  0  0  0  0
 28 32  1  0  0  0  0
 29 33  1  1  0  0  0
 29 28  1  0  0  0  0
 34 29  1  0  0  0  0
 35 34  1  0  0  0  0
 36 35  1  0  0  0  0
 37 35  1  0  0  0  0
 38 37  1  0  0  0  0
 39 35  1  0  0  0  0
 40 39  1  0  0  0  0
M  END
>  <minimizedAffinity>
-5.99777317

$$$$

 OpenBabel03212521013D

 40 43  0  0  1  0  0  0  0  0999 V2000
   40.7520   73.8200   60.6160 C   0  0  0  0  0  0  0  0  0  0  0  0
   39.5540   73.7640   61.2460 C   0  0  0  0  0  0  0  0  0  0  0  0
   38.8020   74.9370   61.0710 C   0  0  0  0  0  0  0  0  0  0  0  0
   39.2180   76.0010   60.3610 N   0  0  0  0  0  0  0  0  0  0  0  0
   40.4470   75.9520   59.7640 C   0  0  0  0  0  0  0  0  0  0  0  0
   41.2190   74.8500   59.8970 N   0  0  0  0  0  0  0  0  0  0  0  0
   39.1690   72.9520   61.8220 H   0  0  0  0  0  0  0  0  0  0  0  0
   37.8110   75.0470   61.5180 H   0  0  0  0  0  0  0  0  0  0  0  0
   42.9110   70.4810   61.5390 C   0  0  0  0  0  0  0  0  0  0  0  0
   43.2680   71.0120   60.3220 C   0  0  0  0  0  0  0  0  0  0  0  0
   42.6280   72.1180   59.9010 C   0  0  0  0  0  0  0  0  0  0  0  0
   41.6400   72.6780   60.7040 C   0  0  0  0  0  0  0  0  0  0  0  0
   41.5990   71.5690   62.1700 S   0  0  0  0  0  0  0  0  0  0  0  0
   44.0440   70.5700   59.6940 H   0  0  0  0  0  0  0  0  0  0  0  0
   42.7570   72.6840   58.9890 H   0  0  0  0  0  0  0  0  0  0  0  0
   43.8860   67.9910   64.0500 C   0  0  0  0  0  0  0  0  0  0  0  0
   44.6470   67.0590   63.2960 C   0  0  0  0  0  0  0  0  0  0  0  0
   44.8170   67.2890   61.9230 C   0  0  0  0  0  0  0  0  0  0  0  0
   44.2470   68.3920   61.3780 N   0  0  0  0  0  0  0  0  0  0  0  0
   43.5220   69.2660   62.1370 C   0  0  0  0  0  0  0  0  0  0  0  0
   43.3550   69.0540   63.4440 N   0  0  0  0  0  0  0  0  0  0  0  0
   43.7830   67.7710   65.1040 H   0  0  0  0  0  0  0  0  0  0  0  0
   45.0910   66.1910   63.7460 H   0  0  0  0  0  0  0  0  0  0  0  0
   45.3800   66.6170   61.3160 H   0  0  0  0  0  0  0  0  0  0  0  0
   40.8710   77.1080   58.9980 C   0  0  0  0  0  0  0  0  0  0  0  0
   41.6610   77.8930   59.5410 O   0  0  0  0  0  0  0  0  0  0  0  0
   40.3720   77.3720   57.5960 C   0  0  1  0  0  0  0  0  0  0  0  0
   41.1560   76.6230   56.5460 C   0  0  0  0  0  0  0  0  0  0  0  0
   39.7570   76.3050   56.8380 C   0  0  2  0  0  0  0  0  0  0  0  0
   40.3350   78.4670   57.3420 H   0  0  0  0  0  0  0  0  0  0  0  0
   41.5090   77.2290   55.6990 H   0  0  0  0  0  0  0  0  0  0  0  0
   41.9860   75.9440   56.9100 H   0  0  0  0  0  0  0  0  0  0  0  0
   39.6100   75.3380   57.4460 H   0  0  0  0  0  0  0  0  0  0  0  0
   38.7330   76.4250   55.7790 C   0  0  0  0  0  2  0  0  0  0  0  0
   37.4150   76.1290   56.2720 N   0  0  0  0  0  4  0  0  0  0  0  0
   36.9180   76.9400   56.6920 H   0  0  0  0  0  0  0  0  0  0  0  0
   36.5280   75.7680   55.1320 C   0  0  0  0  0  2  0  0  0  0  0  0
   35.5140   75.7260   55.5660 H   0  0  0  0  0  0  0  0  0  0  0  0
   37.3910   74.9970   57.1650 C   0  0  0  0  0  2  0  0  0  0  0  0
   36.5620   74.2980   56.9080 H   0  0  0  0  0  0  0  0  0  0  0  0
  1 12  1  0  0  0  0
  1  2  1  0  0  0  0
  2  7  1  0  0  0  0
  3  2  2  0  0  0  0
  3  8  1  0  0  0  0
  4  3  1  0  0  0  0
  5  6  1  0  0  0  0
  5  4  2  0  0  0  0
  6  1  2  0  0  0  0
  9 20  1  0  0  0  0
  9 13  1  0  0  0  0
 10  9  2  0  0  0  0
 11 10  1  0  0  0  0
 11 12  2  0  0  0  0
 12 13  1  0  0  0  0
 14 10  1  0  0  0  0
 15 11  1  0  0  0  0
 16 22  1  0  0  0  0
 17 23  1  0  0  0  0
 17 16  2  0  0  0  0
 18 17  1  0  0  0  0
 19 18  2  0  0  0  0
 19 20  1  0  0  0  0
 20 21  2  0  0  0  0
 21 16  1  0  0  0  0
 24 18  1  0  0  0  0
 25 26  2  0  0  0  0
 25  5  1  0  0  0  0
 27 30  1  6  0  0  0
 27 25  1  0  0  0  0
 28 29  1  0  0  0  0
 28 32  1  0  0  0  0
 28 27  1  0  0  0  0
 29 33  1  1  0  0  0
 29 27  1  0  0  0  0
 31 28  1  0  0  0  0
 34 35  1  0  0  0  0
 34 29  1  0  0  0  0
 35 36  1  0  0  0  0
 35 39  1  0  0  0  0
 37 38  1  0  0  0  0
 37 35  1  0  0  0  0
 40 39  1  0  0  0  0
M  END
>  <minimizedAffinity>
-5.71147585

$$$$

 OpenBabel03212521013D

 40 43  0  0  1  0  0  0  0  0999 V2000
   42.6470   72.9070   58.9730 C   0  0  0  0  0  0  0  0  0  0  0  0
   43.8710   73.3660   58.6150 C   0  0  0  0  0  0  0  0  0  0  0  0
   43.8010   74.3480   57.6140 C   0  0  0  0  0  0  0  0  0  0  0  0
   42.6540   74.7870   57.0670 N   0  0  0  0  0  0  0  0  0  0  0  0
   41.4730   74.2550   57.5020 C   0  0  0  0  0  0  0  0  0  0  0  0
   41.4740   73.3050   58.4640 N   0  0  0  0  0  0  0  0  0  0  0  0
   44.8130   73.0580   59.0120 H   0  0  0  0  0  0  0  0  0  0  0  0
   44.7050   74.8180   57.2180 H   0  0  0  0  0  0  0  0  0  0  0  0
   42.1110   69.6010   61.3070 C   0  0  0  0  0  0  0  0  0  0  0  0
   42.6410   70.6550   62.0120 C   0  0  0  0  0  0  0  0  0  0  0  0
   42.8670   71.8080   61.3550 C   0  0  0  0  0  0  0  0  0  0  0  0
   42.5580   71.8890   60.0010 C   0  0  0  0  0  0  0  0  0  0  0  0
   41.8980   70.2170   59.6110 S   0  0  0  0  0  0  0  0  0  0  0  0
   42.8820   70.5890   63.0740 H   0  0  0  0  0  0  0  0  0  0  0  0
   43.2720   72.7410   61.7190 H   0  0  0  0  0  0  0  0  0  0  0  0
   41.5750   65.9800   61.5370 C   0  0  0  0  0  0  0  0  0  0  0  0
   41.2360   65.7940   62.9030 C   0  0  0  0  0  0  0  0  0  0  0  0
   41.1980   66.9160   63.7420 C   0  0  0  0  0  0  0  0  0  0  0  0
   41.4870   68.1290   63.2100 N   0  0  0  0  0  0  0  0  0  0  0  0
   41.8090   68.2680   61.8900 C   0  0  0  0  0  0  0  0  0  0  0  0
   41.8470   67.2040   61.0850 N   0  0  0  0  0  0  0  0  0  0  0  0
   41.5910   65.0850   60.9300 H   0  0  0  0  0  0  0  0  0  0  0  0
   41.0100   64.8240   63.3060 H   0  0  0  0  0  0  0  0  0  0  0  0
   40.9480   66.8270   64.7750 H   0  0  0  0  0  0  0  0  0  0  0  0
   40.2490   74.7500   56.9010 C   0  0  0  0  0  0  0  0  0  0  0  0
   39.6570   73.9990   56.1130 O   0  0  0  0  0  0  0  0  0  0  0  0
   39.7050   76.1280   57.2010 C   0  0  1  0  0  0  0  0  0  0  0  0
   38.6870   76.1250   58.3150 C   0  0  0  0  0  0  0  0  0  0  0  0
   39.9980   76.7580   58.4690 C   0  0  2  0  0  0  0  0  0  0  0  0
   39.2820   76.6400   56.2920 H   0  0  0  0  0  0  0  0  0  0  0  0
   37.7460   76.6520   58.0960 H   0  0  0  0  0  0  0  0  0  0  0  0
   38.4690   75.1310   58.8110 H   0  0  0  0  0  0  0  0  0  0  0  0
   40.7380   76.1590   59.1170 H   0  0  0  0  0  0  0  0  0  0  0  0
   40.0930   78.2050   58.7560 C   0  0  0  0  0  2  0  0  0  0  0  0
   41.2230   78.5110   59.5910 N   0  0  0  0  0  4  0  0  0  0  0  0
   41.6260   79.4580   59.4450 H   0  0  0  0  0  0  0  0  0  0  0  0
   40.7890   78.5680   61.0150 C   0  0  0  0  0  2  0  0  0  0  0  0
   41.6590   78.9710   61.5600 H   0  0  0  0  0  0  0  0  0  0  0  0
   42.2540   77.5040   59.5330 C   0  0  0  0  0  2  0  0  0  0  0  0
   42.6110   77.2330   60.5530 H   0  0  0  0  0  0  0  0  0  0  0  0
  1 12  1  0  0  0  0
  2  1  1  0  0  0  0
  2  7  1  0  0  0  0
  3  2  2  0  0  0  0
  4  5  2  0  0  0  0
  4  3  1  0  0  0  0
  5  6  1  0  0  0  0
  6  1  2  0  0  0  0
  8  3  1  0  0  0  0
  9 20  1  0  0  0  0
  9 10  2  0  0  0  0
 10 14  1  0  0  0  0
 11 15  1  0  0  0  0
 11 10  1  0  0  0  0
 12 11  2  0  0  0  0
 13 12  1  0  0  0  0
 13  9  1  0  0  0  0
 16 17  1  0  0  0  0
 17 23  1  0  0  0  0
 17 18  2  0  0  0  0
 18 24  1  0  0  0  0
 19 18  1  0  0  0  0
 20 19  2  0  0  0  0
 21 16  2  0  0  0  0
 21 20  1  0  0  0  0
 22 16  1  0  0  0  0
 25 27  1  0  0  0  0
 25  5  1  0  0  0  0
 26 25  2  0  0  0  0
 27 30  1  6  0  0  0
 27 28  1  0  0  0  0
 27 29  1  0  0  0  0
 28 29  1  0  0  0  0
 28 32  1  0  0  0  0
 29 34  1  0  0  0  0
 29 33  1  1  0  0  0
 31 28  1  0  0  0  0
 34 35  1  0  0  0  0
 35 37  1  0  0  0  0
 36 35  1  0  0  0  0
 37 38  1  0  0  0  0
 39 35  1  0  0  0  0
 39 40  1  0  0  0  0
M  END
>  <minimizedAffinity>
-5.57217932

$$$$

 OpenBabel03212521013D

 40 43  0  0  1  0  0  0  0  0999 V2000
   40.5930   74.8130   59.6590 C   0  0  0  0  0  0  0  0  0  0  0  0
   40.3060   75.7210   60.6230 C   0  0  0  0  0  0  0  0  0  0  0  0
   39.6800   76.8680   60.1090 C   0  0  0  0  0  0  0  0  0  0  0  0
   39.3940   77.0520   58.8080 N   0  0  0  0  0  0  0  0  0  0  0  0
   39.7270   76.0710   57.9170 C   0  0  0  0  0  0  0  0  0  0  0  0
   40.3340   74.9420   58.3510 N   0  0  0  0  0  0  0  0  0  0  0  0
   40.5070   75.6320   61.6680 H   0  0  0  0  0  0  0  0  0  0  0  0
   39.3840   77.6920   60.7620 H   0  0  0  0  0  0  0  0  0  0  0  0
   41.8590   71.2750   61.2510 C   0  0  0  0  0  0  0  0  0  0  0  0
   42.6640   71.6980   60.2200 C   0  0  0  0  0  0  0  0  0  0  0  0
   42.3520   72.8560   59.6080 C   0  0  0  0  0  0  0  0  0  0  0  0
   41.2410   73.5740   60.0380 C   0  0  0  0  0  0  0  0  0  0  0  0
   40.5730   72.5480   61.4100 S   0  0  0  0  0  0  0  0  0  0  0  0
   43.5350   71.1330   59.8850 H   0  0  0  0  0  0  0  0  0  0  0  0
   42.8480   73.3570   58.7890 H   0  0  0  0  0  0  0  0  0  0  0  0
   42.0650   67.6940   62.0170 C   0  0  0  0  0  0  0  0  0  0  0  0
   42.4220   67.6810   63.3920 C   0  0  0  0  0  0  0  0  0  0  0  0
   42.5950   68.9070   64.0490 C   0  0  0  0  0  0  0  0  0  0  0  0
   42.4140   70.0500   63.3410 N   0  0  0  0  0  0  0  0  0  0  0  0
   42.0710   70.0210   62.0200 C   0  0  0  0  0  0  0  0  0  0  0  0
   41.9040   68.8570   61.3870 N   0  0  0  0  0  0  0  0  0  0  0  0
   41.9430   66.7240   61.5540 H   0  0  0  0  0  0  0  0  0  0  0  0
   42.5600   66.7650   63.9350 H   0  0  0  0  0  0  0  0  0  0  0  0
   42.8630   68.9490   65.0810 H   0  0  0  0  0  0  0  0  0  0  0  0
   39.4030   76.2890   56.5210 C   0  0  0  0  0  0  0  0  0  0  0  0
   39.9930   77.2090   55.9360 O   0  0  0  0  0  0  0  0  0  0  0  0
   38.3800   75.4500   55.7900 C   0  0  1  0  0  0  0  0  0  0  0  0
   37.0010   75.5540   56.3930 C   0  0  0  0  0  0  0  0  0  0  0  0
   37.3050   76.0920   55.0670 C   0  0  2  0  0  0  0  0  0  0  0  0
   38.6820   74.3700   55.7010 H   0  0  0  0  0  0  0  0  0  0  0  0
   36.4990   74.5950   56.5940 H   0  0  0  0  0  0  0  0  0  0  0  0
   36.8770   76.2490   57.2790 H   0  0  0  0  0  0  0  0  0  0  0  0
   37.3990   77.2390   55.0330 H   0  0  0  0  0  0  0  0  0  0  0  0
   36.5890   75.5840   53.8780 C   0  0  0  0  0  2  0  0  0  0  0  0
   36.5990   76.5350   52.8000 N   0  0  0  0  0  4  0  0  0  0  0  0
   35.9830   76.2900   51.9990 H   0  0  0  0  0  0  0  0  0  0  0  0
   36.0130   77.8230   53.2670 C   0  0  0  0  0  2  0  0  0  0  0  0
   35.9000   78.4300   52.3520 H   0  0  0  0  0  0  0  0  0  0  0  0
   37.9290   76.8510   52.3420 C   0  0  0  0  0  2  0  0  0  0  0  0
   38.0670   77.9510   52.2260 H   0  0  0  0  0  0  0  0  0  0  0  0
  1 12  1  0  0  0  0
  1  2  1  0  0  0  0
  2  7  1  0  0  0  0
  3  2  2  0  0  0  0
  3  8  1  0  0  0  0
  4  3  1  0  0  0  0
  5  6  1  0  0  0  0
  5  4  2  0  0  0  0
  6  1  2  0  0  0  0
  9 13  1  0  0  0  0
  9 20  1  0  0  0  0
 10  9  2  0  0  0  0
 11 12  2  0  0  0  0
 11 10  1  0  0  0  0
 12 13  1  0  0  0  0
 14 10  1  0  0  0  0
 15 11  1  0  0  0  0
 16 17  1  0  0  0  0
 17 23  1  0  0  0  0
 17 18  2  0  0  0  0
 18 24  1  0  0  0  0
 19 18  1  0  0  0  0
 20 19  2  0  0  0  0
 21 16  2  0  0  0  0
 21 20  1  0  0  0  0
 22 16  1  0  0  0  0
 25  5  1  0  0  0  0
 26 25  2  0  0  0  0
 27 30  1  6  0  0  0
 27 28  1  0  0  0  0
 27 25  1  0  0  0  0
 28 31  1  0  0  0  0
 28 32  1  0  0  0  0
 29 33  1  1  0  0  0
 29 27  1  0  0  0  0
 29 28  1  0  0  0  0
 34 29  1  0  0  0  0
 35 37  1  0  0  0  0
 35 34  1  0  0  0  0
 36 35  1  0  0  0  0
 38 37  1  0  0  0  0
 39 35  1  0  0  0  0
 40 39  1  0  0  0  0
M  END
>  <minimizedAffinity>
-5.50081062

$$$$
