
 OpenBabel03212520583D

 40 43  0  0  1  0  0  0  0  0999 V2000
   39.6810   77.1770   59.1650 C   0  0  0  0  0  0  0  0  0  0  0  0
   40.3170   76.0020   58.9460 C   0  0  0  0  0  0  0  0  0  0  0  0
   39.7560   75.2820   57.8780 C   0  0  0  0  0  0  0  0  0  0  0  0
   38.7070   75.7050   57.1520 N   0  0  0  0  0  0  0  0  0  0  0  0
   38.1390   76.9100   57.4580 C   0  0  0  0  0  0  0  0  0  0  0  0
   38.6330   77.6490   58.4760 N   0  0  0  0  0  0  0  0  0  0  0  0
   41.1510   75.6130   59.4860 H   0  0  0  0  0  0  0  0  0  0  0  0
   40.1580   74.3120   57.5760 H   0  0  0  0  0  0  0  0  0  0  0  0
   40.9550   80.1480   61.6580 C   0  0  0  0  0  0  0  0  0  0  0  0
   40.9010   78.9270   62.2890 C   0  0  0  0  0  0  0  0  0  0  0  0
   40.4950   77.8620   61.5730 C   0  0  0  0  0  0  0  0  0  0  0  0
   40.1490   78.0340   60.2370 C   0  0  0  0  0  0  0  0  0  0  0  0
   40.4120   79.8320   59.9530 S   0  0  0  0  0  0  0  0  0  0  0  0
   41.1730   78.7960   63.3370 H   0  0  0  0  0  0  0  0  0  0  0  0
   40.3840   76.8310   61.8760 H   0  0  0  0  0  0  0  0  0  0  0  0
   43.1000   82.9240   62.7310 C   0  0  0  0  0  0  0  0  0  0  0  0
   42.2240   83.7180   63.5170 C   0  0  0  0  0  0  0  0  0  0  0  0
   40.8960   83.2970   63.6700 C   0  0  0  0  0  0  0  0  0  0  0  0
   40.5080   82.1500   63.0610 N   0  0  0  0  0  0  0  0  0  0  0  0
   41.3800   81.4120   62.3130 C   0  0  0  0  0  0  0  0  0  0  0  0
   42.6470   81.8060   62.1620 N   0  0  0  0  0  0  0  0  0  0  0  0
   44.1140   83.2890   62.6420 H   0  0  0  0  0  0  0  0  0  0  0  0
   42.5510   84.6240   63.9920 H   0  0  0  0  0  0  0  0  0  0  0  0
   40.2010   83.8610   64.2510 H   0  0  0  0  0  0  0  0  0  0  0  0
   37.0130   77.3480   56.6560 C   0  0  0  0  0  0  0  0  0  0  0  0
   35.8790   77.1850   57.1280 O   0  0  0  0  0  0  0  0  0  0  0  0
   37.1910   77.9700   55.2900 C   0  0  1  0  0  0  0  0  0  0  0  0
   37.4600   79.4530   55.3540 C   0  0  0  0  0  0  0  0  0  0  0  0
   38.4790   78.5040   54.9040 C   0  0  2  0  0  0  0  0  0  0  0  0
   36.3280   77.7640   54.5980 H   0  0  0  0  0  0  0  0  0  0  0  0
   36.8340   80.0760   54.6980 H   0  0  0  0  0  0  0  0  0  0  0  0
   37.5280   79.9210   56.3830 H   0  0  0  0  0  0  0  0  0  0  0  0
   39.3080   78.3000   55.6760 H   0  0  0  0  0  0  0  0  0  0  0  0
   39.0390   78.6080   53.5410 C   0  0  0  0  0  2  0  0  0  0  0  0
   39.1420   79.9760   53.1080 N   0  0  0  0  0  4  0  0  0  0  0  0
   38.8330   80.6770   53.8100 H   0  0  0  0  0  0  0  0  0  0  0  0
   40.5760   80.3300   52.9170 C   0  0  0  0  0  2  0  0  0  0  0  0
   40.5790   81.4220   52.7580 H   0  0  0  0  0  0  0  0  0  0  0  0
   38.5060   80.2120   51.8350 C   0  0  0  0  0  2  0  0  0  0  0  0
   39.1620   80.8060   51.1590 H   0  0  0  0  0  0  0  0  0  0  0  0
  1 12  1  0  0  0  0
  2  1  1  0  0  0  0
  2  7  1  0  0  0  0
  3  2  2  0  0  0  0
  4  5  2  0  0  0  0
  4  3  1  0  0  0  0
  5  6  1  0  0  0  0
  6  1  2  0  0  0  0
  8  3  1  0  0  0  0
  9 10  2  0  0  0  0
  9 20  1  0  0  0  0
 10 14  1  0  0  0  0
 11 15  1  0  0  0  0
 11 10  1  0  0  0  0
 12 11  2  0  0  0  0
 13 12  1  0  0  0  0
 13  9  1  0  0  0  0
 16 17  1  0  0  0  0
 17 18  2  0  0  0  0
 17 23  1  0  0  0  0
 18 24  1  0  0  0  0
 19 18  1  0  0  0  0
 20 19  2  0  0  0  0
 21 20  1  0  0  0  0
 21 16  2  0  0  0  0
 22 16  1  0  0  0  0
 25 26  2  0  0  0  0
 25  5  1  0  0  0  0
 27 30  1  6  0  0  0
 27 28  1  0  0  0  0
 27 25  1  0  0  0  0
 28 32  1  0  0  0  0
 29 27  1  0  0  0  0
 29 28  1  0  0  0  0
 29 33  1  1  0  0  0
 31 28  1  0  0  0  0
 34 29  1  0  0  0  0
 35 34  1  0  0  0  0
 35 36  1  0  0  0  0
 37 35  1  0  0  0  0
 38 37  1  0  0  0  0
 39 35  1  0  0  0  0
 40 39  1  0  0  0  0
M  END
>  <minimizedAffinity>
-5.84230518

>  <minimizedRMSD>
0.655507326

$$$$
