
 OpenBabel03212520583D

 40 43  0  0  1  0  0  0  0  0999 V2000
   39.6800   77.1740   59.1620 C   0  0  0  0  0  0  0  0  0  0  0  0
   40.3150   75.9970   58.9430 C   0  0  0  0  0  0  0  0  0  0  0  0
   39.7550   75.2780   57.8750 C   0  0  0  0  0  0  0  0  0  0  0  0
   38.7060   75.7020   57.1480 N   0  0  0  0  0  0  0  0  0  0  0  0
   38.1380   76.9070   57.4540 C   0  0  0  0  0  0  0  0  0  0  0  0
   38.6330   77.6460   58.4730 N   0  0  0  0  0  0  0  0  0  0  0  0
   41.1490   75.6080   59.4830 H   0  0  0  0  0  0  0  0  0  0  0  0
   40.1560   74.3080   57.5740 H   0  0  0  0  0  0  0  0  0  0  0  0
   40.9550   80.1440   61.6550 C   0  0  0  0  0  0  0  0  0  0  0  0
   40.9000   78.9230   62.2850 C   0  0  0  0  0  0  0  0  0  0  0  0
   40.4930   77.8580   61.5700 C   0  0  0  0  0  0  0  0  0  0  0  0
   40.1480   78.0300   60.2330 C   0  0  0  0  0  0  0  0  0  0  0  0
   40.4120   79.8280   59.9500 S   0  0  0  0  0  0  0  0  0  0  0  0
   41.1720   78.7920   63.3340 H   0  0  0  0  0  0  0  0  0  0  0  0
   40.3820   76.8270   61.8730 H   0  0  0  0  0  0  0  0  0  0  0  0
   43.1010   82.9190   62.7270 C   0  0  0  0  0  0  0  0  0  0  0  0
   42.2260   83.7140   63.5130 C   0  0  0  0  0  0  0  0  0  0  0  0
   40.8970   83.2930   63.6670 C   0  0  0  0  0  0  0  0  0  0  0  0
   40.5090   82.1460   63.0570 N   0  0  0  0  0  0  0  0  0  0  0  0
   41.3800   81.4080   62.3090 C   0  0  0  0  0  0  0  0  0  0  0  0
   42.6470   81.8020   62.1580 N   0  0  0  0  0  0  0  0  0  0  0  0
   44.1150   83.2830   62.6380 H   0  0  0  0  0  0  0  0  0  0  0  0
   42.5530   84.6200   63.9880 H   0  0  0  0  0  0  0  0  0  0  0  0
   40.2020   83.8570   64.2480 H   0  0  0  0  0  0  0  0  0  0  0  0
   37.0130   77.3450   56.6520 C   0  0  0  0  0  0  0  0  0  0  0  0
   35.8790   77.1830   57.1240 O   0  0  0  0  0  0  0  0  0  0  0  0
   37.1920   77.9670   55.2860 C   0  0  1  0  0  0  0  0  0  0  0  0
   37.4570   79.4510   55.3490 C   0  0  0  0  0  0  0  0  0  0  0  0
   38.4780   78.5030   54.9010 C   0  0  2  0  0  0  0  0  0  0  0  0
   36.3310   77.7570   54.5930 H   0  0  0  0  0  0  0  0  0  0  0  0
   36.8300   80.0710   54.6910 H   0  0  0  0  0  0  0  0  0  0  0  0
   37.5210   79.9200   56.3780 H   0  0  0  0  0  0  0  0  0  0  0  0
   39.3070   78.3030   55.6760 H   0  0  0  0  0  0  0  0  0  0  0  0
   39.0410   78.6080   53.5390 C   0  0  0  0  0  2  0  0  0  0  0  0
   39.1440   79.9760   53.1070 N   0  0  0  0  0  4  0  0  0  0  0  0
   38.8350   80.6780   53.8090 H   0  0  0  0  0  0  0  0  0  0  0  0
   40.5780   80.3300   52.9140 C   0  0  0  0  0  2  0  0  0  0  0  0
   40.5800   81.4210   52.7540 H   0  0  0  0  0  0  0  0  0  0  0  0
   38.5060   80.2120   51.8350 C   0  0  0  0  0  2  0  0  0  0  0  0
   39.1630   80.8060   51.1570 H   0  0  0  0  0  0  0  0  0  0  0  0
  1 12  1  0  0  0  0
  2  1  1  0  0  0  0
  2  7  1  0  0  0  0
  3  2  2  0  0  0  0
  4  5  2  0  0  0  0
  4  3  1  0  0  0  0
  5  6  1  0  0  0  0
  6  1  2  0  0  0  0
  8  3  1  0  0  0  0
  9 10  2  0  0  0  0
  9 20  1  0  0  0  0
 10 14  1  0  0  0  0
 11 15  1  0  0  0  0
 11 10  1  0  0  0  0
 12 11  2  0  0  0  0
 13 12  1  0  0  0  0
 13  9  1  0  0  0  0
 16 17  1  0  0  0  0
 17 18  2  0  0  0  0
 17 23  1  0  0  0  0
 18 24  1  0  0  0  0
 19 18  1  0  0  0  0
 20 19  2  0  0  0  0
 21 20  1  0  0  0  0
 21 16  2  0  0  0  0
 22 16  1  0  0  0  0
 25 26  2  0  0  0  0
 25  5  1  0  0  0  0
 27 30  1  6  0  0  0
 27 28  1  0  0  0  0
 27 25  1  0  0  0  0
 28 32  1  0  0  0  0
 29 27  1  0  0  0  0
 29 28  1  0  0  0  0
 29 33  1  1  0  0  0
 31 28  1  0  0  0  0
 34 29  1  0  0  0  0
 35 34  1  0  0  0  0
 35 36  1  0  0  0  0
 37 35  1  0  0  0  0
 38 37  1  0  0  0  0
 39 35  1  0  0  0  0
 40 39  1  0  0  0  0
M  END
>  <minimizedAffinity>
-5.83997536

>  <minimizedRMSD>
0.683185399

$$$$
