
 OpenBabel03212520583D

 40 43  0  0  1  0  0  0  0  0999 V2000
   39.7450   77.3670   59.2270 C   0  0  0  0  0  0  0  0  0  0  0  0
   40.3810   76.1920   59.0010 C   0  0  0  0  0  0  0  0  0  0  0  0
   39.8260   75.4810   57.9240 C   0  0  0  0  0  0  0  0  0  0  0  0
   38.7810   75.9110   57.1960 N   0  0  0  0  0  0  0  0  0  0  0  0
   38.2120   77.1140   57.5090 C   0  0  0  0  0  0  0  0  0  0  0  0
   38.7010   77.8450   58.5360 N   0  0  0  0  0  0  0  0  0  0  0  0
   41.2130   75.7990   59.5420 H   0  0  0  0  0  0  0  0  0  0  0  0
   40.2300   74.5140   57.6170 H   0  0  0  0  0  0  0  0  0  0  0  0
   40.9740   80.3220   61.7600 C   0  0  0  0  0  0  0  0  0  0  0  0
   40.9740   79.0860   62.3630 C   0  0  0  0  0  0  0  0  0  0  0  0
   40.5880   78.0240   61.6320 C   0  0  0  0  0  0  0  0  0  0  0  0
   40.2070   78.2140   60.3070 C   0  0  0  0  0  0  0  0  0  0  0  0
   40.4040   80.0260   60.0600 S   0  0  0  0  0  0  0  0  0  0  0  0
   41.2730   78.9400   63.4020 H   0  0  0  0  0  0  0  0  0  0  0  0
   40.5170   76.9830   61.9130 H   0  0  0  0  0  0  0  0  0  0  0  0
   43.0580   83.1240   62.8820 C   0  0  0  0  0  0  0  0  0  0  0  0
   42.1630   83.8890   63.6760 C   0  0  0  0  0  0  0  0  0  0  0  0
   40.8430   83.4390   63.8180 C   0  0  0  0  0  0  0  0  0  0  0  0
   40.4810   82.2940   63.1900 N   0  0  0  0  0  0  0  0  0  0  0  0
   41.3700   81.5850   62.4350 C   0  0  0  0  0  0  0  0  0  0  0  0
   42.6290   82.0060   62.2950 N   0  0  0  0  0  0  0  0  0  0  0  0
   44.0650   83.5110   62.8020 H   0  0  0  0  0  0  0  0  0  0  0  0
   42.4700   84.7950   64.1660 H   0  0  0  0  0  0  0  0  0  0  0  0
   40.1350   83.9800   64.4040 H   0  0  0  0  0  0  0  0  0  0  0  0
   37.0910   77.5590   56.7050 C   0  0  0  0  0  0  0  0  0  0  0  0
   35.9640   77.1520   57.0220 O   0  0  0  0  0  0  0  0  0  0  0  0
   37.2670   78.4730   55.5140 C   0  0  1  0  0  0  0  0  0  0  0  0
   37.3040   79.9320   55.8970 C   0  0  0  0  0  0  0  0  0  0  0  0
   38.4820   79.2430   55.3700 C   0  0  2  0  0  0  0  0  0  0  0  0
   36.4950   78.3040   54.7130 H   0  0  0  0  0  0  0  0  0  0  0  0
   36.6370   80.5900   55.3200 H   0  0  0  0  0  0  0  0  0  0  0  0
   37.2290   80.1770   57.0010 H   0  0  0  0  0  0  0  0  0  0  0  0
   39.2780   78.9940   56.1650 H   0  0  0  0  0  0  0  0  0  0  0  0
   39.1130   79.7070   54.1170 C   0  0  0  0  0  2  0  0  0  0  0  0
   39.9380   78.6900   53.5240 N   0  0  0  0  0  4  0  0  0  0  0  0
   39.5250   77.7350   53.5340 H   0  0  0  0  0  0  0  0  0  0  0  0
   40.0880   78.9560   52.0660 C   0  0  0  0  0  2  0  0  0  0  0  0
   40.5790   78.0560   51.6640 H   0  0  0  0  0  0  0  0  0  0  0  0
   41.2780   78.6690   54.0600 C   0  0  0  0  0  2  0  0  0  0  0  0
   42.0380   78.6080   53.2470 H   0  0  0  0  0  0  0  0  0  0  0  0
  1 12  1  0  0  0  0
  2  1  1  0  0  0  0
  2  7  1  0  0  0  0
  3  2  2  0  0  0  0
  4  5  2  0  0  0  0
  4  3  1  0  0  0  0
  5  6  1  0  0  0  0
  6  1  2  0  0  0  0
  8  3  1  0  0  0  0
  9 10  2  0  0  0  0
  9 20  1  0  0  0  0
 10 14  1  0  0  0  0
 11 15  1  0  0  0  0
 11 10  1  0  0  0  0
 12 11  2  0  0  0  0
 13 12  1  0  0  0  0
 13  9  1  0  0  0  0
 16 17  1  0  0  0  0
 17 18  2  0  0  0  0
 17 23  1  0  0  0  0
 18 24  1  0  0  0  0
 19 18  1  0  0  0  0
 20 19  2  0  0  0  0
 21 20  1  0  0  0  0
 21 16  2  0  0  0  0
 22 16  1  0  0  0  0
 25 26  2  0  0  0  0
 25  5  1  0  0  0  0
 27 30  1  6  0  0  0
 27 28  1  0  0  0  0
 27 25  1  0  0  0  0
 28 32  1  0  0  0  0
 29 27  1  0  0  0  0
 29 28  1  0  0  0  0
 29 33  1  1  0  0  0
 31 28  1  0  0  0  0
 34 29  1  0  0  0  0
 35 36  1  0  0  0  0
 35 39  1  0  0  0  0
 35 34  1  0  0  0  0
 37 35  1  0  0  0  0
 38 37  1  0  0  0  0
 40 39  1  0  0  0  0
M  END
>  <minimizedAffinity>
-5.73105574

>  <minimizedRMSD>
0.0606858879

$$$$
