
 OpenBabel03212520593D

 40 43  0  0  1  0  0  0  0  0999 V2000
   39.6330   77.1200   59.1680 C   0  0  0  0  0  0  0  0  0  0  0  0
   40.2620   75.9420   58.9430 C   0  0  0  0  0  0  0  0  0  0  0  0
   39.6830   75.2190   57.8880 C   0  0  0  0  0  0  0  0  0  0  0  0
   38.6230   75.6420   57.1760 N   0  0  0  0  0  0  0  0  0  0  0  0
   38.0640   76.8490   57.4860 C   0  0  0  0  0  0  0  0  0  0  0  0
   38.5760   77.5920   58.4940 N   0  0  0  0  0  0  0  0  0  0  0  0
   41.1040   75.5530   59.4720 H   0  0  0  0  0  0  0  0  0  0  0  0
   40.0780   74.2460   57.5840 H   0  0  0  0  0  0  0  0  0  0  0  0
   40.9490   80.0990   61.6290 C   0  0  0  0  0  0  0  0  0  0  0  0
   40.9130   78.8790   62.2620 C   0  0  0  0  0  0  0  0  0  0  0  0
   40.4950   77.8110   61.5570 C   0  0  0  0  0  0  0  0  0  0  0  0
   40.1210   77.9800   60.2280 C   0  0  0  0  0  0  0  0  0  0  0  0
   40.3710   79.7780   59.9360 S   0  0  0  0  0  0  0  0  0  0  0  0
   41.2070   78.7500   63.3050 H   0  0  0  0  0  0  0  0  0  0  0  0
   40.3940   76.7800   61.8630 H   0  0  0  0  0  0  0  0  0  0  0  0
   43.1120   82.8720   62.6720 C   0  0  0  0  0  0  0  0  0  0  0  0
   42.2440   83.6760   63.4570 C   0  0  0  0  0  0  0  0  0  0  0  0
   40.9140   83.2630   63.6190 C   0  0  0  0  0  0  0  0  0  0  0  0
   40.5180   82.1130   63.0200 N   0  0  0  0  0  0  0  0  0  0  0  0
   41.3830   81.3660   62.2730 C   0  0  0  0  0  0  0  0  0  0  0  0
   42.6510   81.7530   62.1130 N   0  0  0  0  0  0  0  0  0  0  0  0
   44.1280   83.2310   62.5760 H   0  0  0  0  0  0  0  0  0  0  0  0
   42.5770   84.5840   63.9240 H   0  0  0  0  0  0  0  0  0  0  0  0
   40.2240   83.8330   64.1990 H   0  0  0  0  0  0  0  0  0  0  0  0
   36.9260   77.2870   56.7010 C   0  0  0  0  0  0  0  0  0  0  0  0
   35.8030   77.1700   57.2100 O   0  0  0  0  0  0  0  0  0  0  0  0
   37.0800   77.8550   55.3090 C   0  0  1  0  0  0  0  0  0  0  0  0
   37.4670   79.3140   55.3120 C   0  0  0  0  0  0  0  0  0  0  0  0
   38.3830   78.2750   54.8420 C   0  0  2  0  0  0  0  0  0  0  0  0
   36.1690   77.6990   54.6680 H   0  0  0  0  0  0  0  0  0  0  0  0
   36.8570   79.9660   54.6690 H   0  0  0  0  0  0  0  0  0  0  0  0
   37.6240   79.8030   56.3220 H   0  0  0  0  0  0  0  0  0  0  0  0
   39.2340   78.0270   55.5780 H   0  0  0  0  0  0  0  0  0  0  0  0
   38.8780   78.2970   53.4490 C   0  0  0  0  0  2  0  0  0  0  0  0
   38.5800   79.5420   52.7950 N   0  0  0  0  0  4  0  0  0  0  0  0
   38.2380   80.2940   53.4290 H   0  0  0  0  0  0  0  0  0  0  0  0
   39.8350   80.1330   52.2520 C   0  0  0  0  0  2  0  0  0  0  0  0
   39.5520   81.1480   51.9260 H   0  0  0  0  0  0  0  0  0  0  0  0
   37.6970   79.3870   51.6650 C   0  0  0  0  0  2  0  0  0  0  0  0
   38.0700   79.9520   50.7800 H   0  0  0  0  0  0  0  0  0  0  0  0
  1 12  1  0  0  0  0
  2  1  1  0  0  0  0
  2  7  1  0  0  0  0
  3  2  2  0  0  0  0
  4  5  2  0  0  0  0
  4  3  1  0  0  0  0
  5  6  1  0  0  0  0
  6  1  2  0  0  0  0
  8  3  1  0  0  0  0
  9 10  2  0  0  0  0
  9 20  1  0  0  0  0
 10 14  1  0  0  0  0
 11 15  1  0  0  0  0
 11 10  1  0  0  0  0
 12 11  2  0  0  0  0
 13 12  1  0  0  0  0
 13  9  1  0  0  0  0
 16 17  1  0  0  0  0
 17 18  2  0  0  0  0
 17 23  1  0  0  0  0
 18 24  1  0  0  0  0
 19 18  1  0  0  0  0
 20 19  2  0  0  0  0
 21 20  1  0  0  0  0
 21 16  2  0  0  0  0
 22 16  1  0  0  0  0
 25 26  2  0  0  0  0
 25  5  1  0  0  0  0
 27 30  1  6  0  0  0
 27 28  1  0  0  0  0
 27 25  1  0  0  0  0
 28 32  1  0  0  0  0
 29 27  1  0  0  0  0
 29 28  1  0  0  0  0
 29 33  1  1  0  0  0
 31 28  1  0  0  0  0
 34 29  1  0  0  0  0
 35 36  1  0  0  0  0
 35 34  1  0  0  0  0
 37 35  1  0  0  0  0
 38 37  1  0  0  0  0
 39 35  1  0  0  0  0
 40 39  1  0  0  0  0
M  END
>  <minimizedAffinity>
-5.82815552

>  <minimizedRMSD>
0.710745037

$$$$
