
 OpenBabel03212520593D

 40 43  0  0  1  0  0  0  0  0999 V2000
   39.6780   77.1730   59.1630 C   0  0  0  0  0  0  0  0  0  0  0  0
   40.3130   75.9960   58.9440 C   0  0  0  0  0  0  0  0  0  0  0  0
   39.7520   75.2770   57.8760 C   0  0  0  0  0  0  0  0  0  0  0  0
   38.7030   75.7010   57.1490 N   0  0  0  0  0  0  0  0  0  0  0  0
   38.1370   76.9060   57.4550 C   0  0  0  0  0  0  0  0  0  0  0  0
   38.6320   77.6460   58.4730 N   0  0  0  0  0  0  0  0  0  0  0  0
   41.1470   75.6070   59.4840 H   0  0  0  0  0  0  0  0  0  0  0  0
   40.1530   74.3060   57.5750 H   0  0  0  0  0  0  0  0  0  0  0  0
   40.9550   80.1430   61.6550 C   0  0  0  0  0  0  0  0  0  0  0  0
   40.9000   78.9230   62.2850 C   0  0  0  0  0  0  0  0  0  0  0  0
   40.4930   77.8580   61.5700 C   0  0  0  0  0  0  0  0  0  0  0  0
   40.1470   78.0290   60.2340 C   0  0  0  0  0  0  0  0  0  0  0  0
   40.4110   79.8270   59.9500 S   0  0  0  0  0  0  0  0  0  0  0  0
   41.1720   78.7910   63.3340 H   0  0  0  0  0  0  0  0  0  0  0  0
   40.3810   76.8260   61.8730 H   0  0  0  0  0  0  0  0  0  0  0  0
   43.1010   82.9180   62.7260 C   0  0  0  0  0  0  0  0  0  0  0  0
   42.2260   83.7130   63.5130 C   0  0  0  0  0  0  0  0  0  0  0  0
   40.8980   83.2930   63.6670 C   0  0  0  0  0  0  0  0  0  0  0  0
   40.5090   82.1460   63.0570 N   0  0  0  0  0  0  0  0  0  0  0  0
   41.3800   81.4070   62.3090 C   0  0  0  0  0  0  0  0  0  0  0  0
   42.6470   81.8010   62.1580 N   0  0  0  0  0  0  0  0  0  0  0  0
   44.1160   83.2820   62.6370 H   0  0  0  0  0  0  0  0  0  0  0  0
   42.5540   84.6190   63.9870 H   0  0  0  0  0  0  0  0  0  0  0  0
   40.2030   83.8570   64.2470 H   0  0  0  0  0  0  0  0  0  0  0  0
   37.0120   77.3460   56.6520 C   0  0  0  0  0  0  0  0  0  0  0  0
   35.8770   77.1840   57.1240 O   0  0  0  0  0  0  0  0  0  0  0  0
   37.1910   77.9670   55.2860 C   0  0  1  0  0  0  0  0  0  0  0  0
   37.4560   79.4510   55.3500 C   0  0  0  0  0  0  0  0  0  0  0  0
   38.4780   78.5040   54.9020 C   0  0  2  0  0  0  0  0  0  0  0  0
   36.3300   77.7580   54.5930 H   0  0  0  0  0  0  0  0  0  0  0  0
   36.8300   80.0720   54.6920 H   0  0  0  0  0  0  0  0  0  0  0  0
   37.5210   79.9200   56.3790 H   0  0  0  0  0  0  0  0  0  0  0  0
   39.3060   78.3030   55.6770 H   0  0  0  0  0  0  0  0  0  0  0  0
   39.0410   78.6090   53.5400 C   0  0  0  0  0  2  0  0  0  0  0  0
   39.1430   79.9760   53.1060 N   0  0  0  0  0  4  0  0  0  0  0  0
   38.8340   80.6770   53.8090 H   0  0  0  0  0  0  0  0  0  0  0  0
   40.5760   80.3310   52.9120 C   0  0  0  0  0  2  0  0  0  0  0  0
   40.5780   81.4220   52.7510 H   0  0  0  0  0  0  0  0  0  0  0  0
   38.5030   80.2110   51.8350 C   0  0  0  0  0  2  0  0  0  0  0  0
   39.1580   80.8040   51.1560 H   0  0  0  0  0  0  0  0  0  0  0  0
  1 12  1  0  0  0  0
  2  1  1  0  0  0  0
  2  7  1  0  0  0  0
  3  2  2  0  0  0  0
  4  5  2  0  0  0  0
  4  3  1  0  0  0  0
  5  6  1  0  0  0  0
  6  1  2  0  0  0  0
  8  3  1  0  0  0  0
  9 10  2  0  0  0  0
  9 20  1  0  0  0  0
 10 14  1  0  0  0  0
 11 15  1  0  0  0  0
 11 10  1  0  0  0  0
 12 11  2  0  0  0  0
 13 12  1  0  0  0  0
 13  9  1  0  0  0  0
 16 17  1  0  0  0  0
 17 18  2  0  0  0  0
 17 23  1  0  0  0  0
 18 24  1  0  0  0  0
 19 18  1  0  0  0  0
 20 19  2  0  0  0  0
 21 20  1  0  0  0  0
 21 16  2  0  0  0  0
 22 16  1  0  0  0  0
 25 26  2  0  0  0  0
 25  5  1  0  0  0  0
 27 30  1  6  0  0  0
 27 28  1  0  0  0  0
 27 25  1  0  0  0  0
 28 32  1  0  0  0  0
 29 27  1  0  0  0  0
 29 28  1  0  0  0  0
 29 33  1  1  0  0  0
 31 28  1  0  0  0  0
 34 29  1  0  0  0  0
 35 34  1  0  0  0  0
 35 36  1  0  0  0  0
 37 35  1  0  0  0  0
 38 37  1  0  0  0  0
 39 35  1  0  0  0  0
 40 39  1  0  0  0  0
M  END
>  <minimizedAffinity>
-5.83929968

>  <minimizedRMSD>
0.662140369

$$$$
