
 OpenBabel03212520583D

 40 43  0  0  1  0  0  0  0  0999 V2000
   39.7910   77.4030   59.1630 C   0  0  0  0  0  0  0  0  0  0  0  0
   40.4890   76.2760   58.8860 C   0  0  0  0  0  0  0  0  0  0  0  0
   39.9500   75.5660   57.8010 C   0  0  0  0  0  0  0  0  0  0  0  0
   38.8630   75.9550   57.1110 N   0  0  0  0  0  0  0  0  0  0  0  0
   38.2330   77.1110   57.4750 C   0  0  0  0  0  0  0  0  0  0  0  0
   38.7040   77.8390   58.5130 N   0  0  0  0  0  0  0  0  0  0  0  0
   41.3560   75.9160   59.3950 H   0  0  0  0  0  0  0  0  0  0  0  0
   40.4010   74.6340   57.4540 H   0  0  0  0  0  0  0  0  0  0  0  0
   40.9730   80.3400   61.7390 C   0  0  0  0  0  0  0  0  0  0  0  0
   40.9470   79.1030   62.3380 C   0  0  0  0  0  0  0  0  0  0  0  0
   40.5720   78.0460   61.5930 C   0  0  0  0  0  0  0  0  0  0  0  0
   40.2300   78.2430   60.2590 C   0  0  0  0  0  0  0  0  0  0  0  0
   40.4480   80.0540   60.0230 S   0  0  0  0  0  0  0  0  0  0  0  0
   41.2160   78.9510   63.3850 H   0  0  0  0  0  0  0  0  0  0  0  0
   40.4860   77.0050   61.8680 H   0  0  0  0  0  0  0  0  0  0  0  0
   43.0410   83.1380   62.9030 C   0  0  0  0  0  0  0  0  0  0  0  0
   42.1380   83.8930   63.6970 C   0  0  0  0  0  0  0  0  0  0  0  0
   40.8180   83.4380   63.8250 C   0  0  0  0  0  0  0  0  0  0  0  0
   40.4640   82.2980   63.1840 N   0  0  0  0  0  0  0  0  0  0  0  0
   41.3610   81.5980   62.4290 C   0  0  0  0  0  0  0  0  0  0  0  0
   42.6200   82.0240   62.3020 N   0  0  0  0  0  0  0  0  0  0  0  0
   44.0470   83.5280   62.8350 H   0  0  0  0  0  0  0  0  0  0  0  0
   42.4380   84.7950   64.1970 H   0  0  0  0  0  0  0  0  0  0  0  0
   40.1040   83.9720   64.4100 H   0  0  0  0  0  0  0  0  0  0  0  0
   37.0670   77.5130   56.7110 C   0  0  0  0  0  0  0  0  0  0  0  0
   35.9640   77.1010   57.0960 O   0  0  0  0  0  0  0  0  0  0  0  0
   37.1720   78.3890   55.4840 C   0  0  1  0  0  0  0  0  0  0  0  0
   37.3560   79.8480   55.8220 C   0  0  0  0  0  0  0  0  0  0  0  0
   38.4150   79.0640   55.1850 C   0  0  2  0  0  0  0  0  0  0  0  0
   36.3040   78.2620   54.7790 H   0  0  0  0  0  0  0  0  0  0  0  0
   36.6770   80.5430   55.3050 H   0  0  0  0  0  0  0  0  0  0  0  0
   37.4240   80.1190   56.9190 H   0  0  0  0  0  0  0  0  0  0  0  0
   39.2760   78.7720   55.8920 H   0  0  0  0  0  0  0  0  0  0  0  0
   38.9310   79.4560   53.8570 C   0  0  0  0  0  2  0  0  0  0  0  0
   38.2270   78.7970   52.7920 N   0  0  0  0  0  4  0  0  0  0  0  0
   37.5010   78.1220   53.1050 H   0  0  0  0  0  0  0  0  0  0  0  0
   37.4230   79.7950   52.0320 C   0  0  0  0  0  2  0  0  0  0  0  0
   36.7920   79.1950   51.3560 H   0  0  0  0  0  0  0  0  0  0  0  0
   39.1090   78.1860   51.8270 C   0  0  0  0  0  2  0  0  0  0  0  0
   38.7970   78.4270   50.7850 H   0  0  0  0  0  0  0  0  0  0  0  0
  1 12  1  0  0  0  0
  2  1  1  0  0  0  0
  2  7  1  0  0  0  0
  3  2  2  0  0  0  0
  4  5  2  0  0  0  0
  4  3  1  0  0  0  0
  5  6  1  0  0  0  0
  6  1  2  0  0  0  0
  8  3  1  0  0  0  0
  9 10  2  0  0  0  0
  9 20  1  0  0  0  0
 10 14  1  0  0  0  0
 11 15  1  0  0  0  0
 11 10  1  0  0  0  0
 12 11  2  0  0  0  0
 13 12  1  0  0  0  0
 13  9  1  0  0  0  0
 16 17  1  0  0  0  0
 17 18  2  0  0  0  0
 17 23  1  0  0  0  0
 18 24  1  0  0  0  0
 19 18  1  0  0  0  0
 20 19  2  0  0  0  0
 21 20  1  0  0  0  0
 21 16  2  0  0  0  0
 22 16  1  0  0  0  0
 25 26  2  0  0  0  0
 25  5  1  0  0  0  0
 27 30  1  6  0  0  0
 27 28  1  0  0  0  0
 27 25  1  0  0  0  0
 28 32  1  0  0  0  0
 29 27  1  0  0  0  0
 29 28  1  0  0  0  0
 29 33  1  1  0  0  0
 31 28  1  0  0  0  0
 34 29  1  0  0  0  0
 35 36  1  0  0  0  0
 35 34  1  0  0  0  0
 37 35  1  0  0  0  0
 38 37  1  0  0  0  0
 39 35  1  0  0  0  0
 40 39  1  0  0  0  0
M  END
>  <minimizedAffinity>
-5.97004271

>  <minimizedRMSD>
0.364312917

$$$$
