
 OpenBabel03212520283D

 32 33  0  0  0  0  0  0  0  0999 V2000
   42.4520   84.6250   61.3110 C   0  0  0  0  0  0  0  0  0  0  0  0
   43.1700   85.1730   62.3800 C   0  0  0  0  0  0  0  0  0  0  0  0
   44.1270   85.9330   61.7010 C   0  0  0  0  0  0  0  0  0  0  0  0
   43.9600   85.8220   60.3540 N   0  0  0  0  0  0  0  0  0  0  0  0
   42.9300   85.0180   60.1410 N   0  0  0  0  0  0  0  0  0  0  0  0
   43.0300   85.0470   63.4290 H   0  0  0  0  0  0  0  0  0  0  0  0
   44.8970   86.5300   62.2160 H   0  0  0  0  0  0  0  0  0  0  0  0
   40.3800   81.5200   61.4410 C   0  0  0  0  0  0  0  0  0  0  0  0
   41.4690   82.3630   61.2660 C   0  0  0  0  0  0  0  0  0  0  0  0
   41.3130   83.7280   61.4910 C   0  0  0  0  0  0  0  0  0  0  0  0
   40.1150   84.2200   61.8740 N   0  0  0  0  0  0  0  0  0  0  0  0
   39.0790   83.3250   62.0270 C   0  0  0  0  0  0  0  0  0  0  0  0
   39.2160   82.0110   61.8150 N   0  0  0  0  0  0  0  0  0  0  0  0
   40.4980   80.4590   61.2680 H   0  0  0  0  0  0  0  0  0  0  0  0
   42.4180   81.9470   60.9600 H   0  0  0  0  0  0  0  0  0  0  0  0
   38.1540   83.7560   62.3300 H   0  0  0  0  0  0  0  0  0  0  0  0
   44.7780   86.4790   59.3660 C   0  0  0  0  0  0  0  0  0  0  0  0
   44.4900   86.1210   58.3750 H   0  0  0  0  0  0  0  0  0  0  0  0
   45.8320   86.1260   59.5430 H   0  0  0  0  0  0  0  0  0  0  0  0
   44.7720   87.8450   59.5090 O   0  0  0  0  0  0  0  0  0  0  0  0
   44.7600   90.1560   58.2990 O   0  0  0  0  0  0  0  0  0  0  0  0
   44.4290   88.6950   58.1240 P   0  0  2  0  0  0  0  0  0  0  0  0
   42.7770   88.5740   57.7920 O   0  0  0  0  0  0  0  0  0  0  0  0
   42.2590   89.2200   58.3360 H   0  0  0  0  0  0  0  0  0  0  0  0
   45.2380   88.0760   56.7720 O   0  0  0  0  0  0  0  0  0  0  0  0
   46.1840   88.9500   56.2540 C   0  0  0  0  0  2  0  0  0  0  0  0
   47.3170   88.8610   57.1750 N   0  0  0  0  0  4  0  0  0  0  0  0
   46.9040   88.9210   58.1330 H   0  0  0  0  0  0  0  0  0  0  0  0
   48.2390   89.9510   57.0190 C   0  0  0  0  0  2  0  0  0  0  0  0
   47.6990   90.8680   57.3360 H   0  0  0  0  0  0  0  0  0  0  0  0
   47.9620   87.5690   57.0640 C   0  0  0  0  0  2  0  0  0  0  0  0
   49.0400   87.6870   56.9130 H   0  0  0  0  0  0  0  0  0  0  0  0
  1 10  1  0  0  0  0
  1  2  1  0  0  0  0
  2  6  1  0  0  0  0
  3  7  1  0  0  0  0
  3  2  2  0  0  0  0
  4  3  1  0  0  0  0
  5  4  1  0  0  0  0
  5  1  2  0  0  0  0
  8 13  1  0  0  0  0
  9  8  2  0  0  0  0
  9 10  1  0  0  0  0
 10 11  2  0  0  0  0
 11 12  1  0  0  0  0
 12 16  1  0  0  0  0
 13 12  2  0  0  0  0
 14  8  1  0  0  0  0
 15  9  1  0  0  0  0
 17 20  1  0  0  0  0
 17 19  1  0  0  0  0
 17  4  1  0  0  0  0
 18 17  1  0  0  0  0
 22 21  2  1  0  0  0
 22 20  1  0  0  0  0
 23 22  1  0  0  0  0
 23 24  1  0  0  0  0
 25 22  1  0  0  0  0
 26 25  1  0  0  0  0
 26 27  1  0  0  0  0
 27 28  1  0  0  0  0
 29 27  1  0  0  0  0
 29 30  1  0  0  0  0
 31 27  1  0  0  0  0
 32 31  1  0  0  0  0
M  END
>  <minimizedAffinity>
-4.28125143

>  <minimizedRMSD>
1.8381927

$$$$
