
 OpenBabel03212520283D

 32 33  0  0  0  0  0  0  0  0999 V2000
   42.4870   84.6130   61.2690 C   0  0  0  0  0  0  0  0  0  0  0  0
   43.1780   85.2150   62.3270 C   0  0  0  0  0  0  0  0  0  0  0  0
   44.1560   85.9360   61.6350 C   0  0  0  0  0  0  0  0  0  0  0  0
   44.0250   85.7550   60.2910 N   0  0  0  0  0  0  0  0  0  0  0  0
   42.9970   84.9430   60.0930 N   0  0  0  0  0  0  0  0  0  0  0  0
   43.0100   85.1440   63.3770 H   0  0  0  0  0  0  0  0  0  0  0  0
   44.9150   86.5570   62.1380 H   0  0  0  0  0  0  0  0  0  0  0  0
   40.3820   81.5330   61.4340 C   0  0  0  0  0  0  0  0  0  0  0  0
   41.4780   82.3620   61.2440 C   0  0  0  0  0  0  0  0  0  0  0  0
   41.3400   83.7300   61.4660 C   0  0  0  0  0  0  0  0  0  0  0  0
   40.1530   84.2370   61.8610 N   0  0  0  0  0  0  0  0  0  0  0  0
   39.1080   83.3540   62.0290 C   0  0  0  0  0  0  0  0  0  0  0  0
   39.2280   82.0380   61.8200 N   0  0  0  0  0  0  0  0  0  0  0  0
   40.4850   80.4700   61.2620 H   0  0  0  0  0  0  0  0  0  0  0  0
   42.4190   81.9340   60.9270 H   0  0  0  0  0  0  0  0  0  0  0  0
   38.1910   83.7970   62.3410 H   0  0  0  0  0  0  0  0  0  0  0  0
   44.8710   86.3570   59.2930 C   0  0  0  0  0  0  0  0  0  0  0  0
   44.5730   85.9890   58.3080 H   0  0  0  0  0  0  0  0  0  0  0  0
   45.9090   85.9680   59.4820 H   0  0  0  0  0  0  0  0  0  0  0  0
   44.9170   87.7260   59.4050 O   0  0  0  0  0  0  0  0  0  0  0  0
   44.8260   90.0190   58.1660 O   0  0  0  0  0  0  0  0  0  0  0  0
   44.4770   88.5580   58.0370 P   0  0  2  0  0  0  0  0  0  0  0  0
   42.8040   88.4410   57.8300 O   0  0  0  0  0  0  0  0  0  0  0  0
   42.3310   89.0980   58.4010 H   0  0  0  0  0  0  0  0  0  0  0  0
   45.1810   87.9150   56.6380 O   0  0  0  0  0  0  0  0  0  0  0  0
   46.2380   88.6770   56.1590 C   0  0  0  0  0  2  0  0  0  0  0  0
   47.2820   88.5450   57.1760 N   0  0  0  0  0  4  0  0  0  0  0  0
   46.7890   88.6190   58.0940 H   0  0  0  0  0  0  0  0  0  0  0  0
   48.2530   89.6000   57.1060 C   0  0  0  0  0  2  0  0  0  0  0  0
   47.7230   90.5360   57.3790 H   0  0  0  0  0  0  0  0  0  0  0  0
   47.8860   87.2300   57.1180 C   0  0  0  0  0  2  0  0  0  0  0  0
   48.9760   87.3070   57.0610 H   0  0  0  0  0  0  0  0  0  0  0  0
  1 10  1  0  0  0  0
  1  2  1  0  0  0  0
  2  6  1  0  0  0  0
  3  7  1  0  0  0  0
  3  2  2  0  0  0  0
  4  3  1  0  0  0  0
  5  4  1  0  0  0  0
  5  1  2  0  0  0  0
  8 13  1  0  0  0  0
  9  8  2  0  0  0  0
  9 10  1  0  0  0  0
 10 11  2  0  0  0  0
 11 12  1  0  0  0  0
 12 16  1  0  0  0  0
 13 12  2  0  0  0  0
 14  8  1  0  0  0  0
 15  9  1  0  0  0  0
 17 20  1  0  0  0  0
 17 19  1  0  0  0  0
 17  4  1  0  0  0  0
 18 17  1  0  0  0  0
 22 21  2  1  0  0  0
 22 20  1  0  0  0  0
 23 22  1  0  0  0  0
 23 24  1  0  0  0  0
 25 22  1  0  0  0  0
 26 25  1  0  0  0  0
 26 27  1  0  0  0  0
 27 28  1  0  0  0  0
 29 27  1  0  0  0  0
 29 30  1  0  0  0  0
 31 27  1  0  0  0  0
 32 31  1  0  0  0  0
M  END
>  <minimizedAffinity>
-4.22751904

>  <minimizedRMSD>
2.01828718

$$$$
