
 OpenBabel03212520283D

 32 33  0  0  0  0  0  0  0  0999 V2000
   42.3520   69.3190   61.7770 C   0  0  0  0  0  0  0  0  0  0  0  0
   43.3210   69.7910   60.8820 C   0  0  0  0  0  0  0  0  0  0  0  0
   43.1070   71.1710   60.9580 C   0  0  0  0  0  0  0  0  0  0  0  0
   42.0980   71.4540   61.8280 N   0  0  0  0  0  0  0  0  0  0  0  0
   41.6540   70.3050   62.3160 N   0  0  0  0  0  0  0  0  0  0  0  0
   44.0290   69.2500   60.2980 H   0  0  0  0  0  0  0  0  0  0  0  0
   43.6940   71.9030   60.3800 H   0  0  0  0  0  0  0  0  0  0  0  0
   40.8180   66.1310   62.9720 C   0  0  0  0  0  0  0  0  0  0  0  0
   40.9930   67.4810   62.7030 C   0  0  0  0  0  0  0  0  0  0  0  0
   42.1580   67.9000   62.0650 C   0  0  0  0  0  0  0  0  0  0  0  0
   43.1010   67.0000   61.7150 N   0  0  0  0  0  0  0  0  0  0  0  0
   42.8600   65.6770   62.0140 C   0  0  0  0  0  0  0  0  0  0  0  0
   41.7450   65.2610   62.6260 N   0  0  0  0  0  0  0  0  0  0  0  0
   39.9140   65.8010   63.4670 H   0  0  0  0  0  0  0  0  0  0  0  0
   40.2240   68.1830   62.9920 H   0  0  0  0  0  0  0  0  0  0  0  0
   43.6300   65.0020   61.7210 H   0  0  0  0  0  0  0  0  0  0  0  0
   41.6260   72.7790   62.1390 C   0  0  0  0  0  0  0  0  0  0  0  0
   42.2460   73.5080   61.6120 H   0  0  0  0  0  0  0  0  0  0  0  0
   41.8120   72.9320   63.2380 H   0  0  0  0  0  0  0  0  0  0  0  0
   40.2750   72.9130   61.9280 O   0  0  0  0  0  0  0  0  0  0  0  0
   41.0780   74.6970   60.2030 O   0  0  0  0  0  0  0  0  0  0  0  0
   39.8510   74.0480   60.7910 P   0  0  2  0  0  0  0  0  0  0  0  0
   38.9280   75.2550   61.5300 O   0  0  0  0  0  0  0  0  0  0  0  0
   39.5090   75.9120   61.9910 H   0  0  0  0  0  0  0  0  0  0  0  0
   38.8920   73.3960   59.5590 O   0  0  0  0  0  0  0  0  0  0  0  0
   38.0780   74.3380   58.9440 C   0  0  0  0  0  2  0  0  0  0  0  0
   37.4780   73.6290   57.8130 N   0  0  0  0  0  4  0  0  0  0  0  0
   36.5700   73.2550   58.1680 H   0  0  0  0  0  0  0  0  0  0  0  0
   38.2760   72.5180   57.3760 C   0  0  0  0  0  2  0  0  0  0  0  0
   38.2640   71.7760   58.2020 H   0  0  0  0  0  0  0  0  0  0  0  0
   37.1740   74.5510   56.7380 C   0  0  0  0  0  2  0  0  0  0  0  0
   37.5930   74.1930   55.7930 H   0  0  0  0  0  0  0  0  0  0  0  0
  1 10  1  0  0  0  0
  1  5  2  0  0  0  0
  2  3  2  0  0  0  0
  2  1  1  0  0  0  0
  3  4  1  0  0  0  0
  4 17  1  0  0  0  0
  4  5  1  0  0  0  0
  6  2  1  0  0  0  0
  7  3  1  0  0  0  0
  8 14  1  0  0  0  0
  9  8  1  0  0  0  0
  9 15  1  0  0  0  0
 10  9  2  0  0  0  0
 11 12  2  0  0  0  0
 11 10  1  0  0  0  0
 12 13  1  0  0  0  0
 13  8  2  0  0  0  0
 16 12  1  0  0  0  0
 17 19  1  0  0  0  0
 18 17  1  0  0  0  0
 20 17  1  0  0  0  0
 22 21  2  6  0  0  0
 22 23  1  0  0  0  0
 22 20  1  0  0  0  0
 23 24  1  0  0  0  0
 25 22  1  0  0  0  0
 26 25  1  0  0  0  0
 27 28  1  0  0  0  0
 27 26  1  0  0  0  0
 29 27  1  0  0  0  0
 29 30  1  0  0  0  0
 31 27  1  0  0  0  0
 32 31  1  0  0  0  0
M  END
>  <minimizedAffinity>
-5.20961761

$$$$

 OpenBabel03212520283D

 32 33  0  0  0  0  0  0  0  0999 V2000
   38.8900   75.2130   59.2400 C   0  0  0  0  0  0  0  0  0  0  0  0
   39.3190   76.1570   60.1800 C   0  0  0  0  0  0  0  0  0  0  0  0
   39.8750   75.3290   61.1590 C   0  0  0  0  0  0  0  0  0  0  0  0
   39.7680   74.0200   60.7990 N   0  0  0  0  0  0  0  0  0  0  0  0
   39.1630   73.9750   59.6220 N   0  0  0  0  0  0  0  0  0  0  0  0
   39.2430   77.2200   60.1600 H   0  0  0  0  0  0  0  0  0  0  0  0
   40.3310   75.7150   62.0860 H   0  0  0  0  0  0  0  0  0  0  0  0
   37.8370   77.1530   56.2280 C   0  0  0  0  0  0  0  0  0  0  0  0
   38.4760   76.8180   57.4130 C   0  0  0  0  0  0  0  0  0  0  0  0
   38.2230   75.5760   57.9920 C   0  0  0  0  0  0  0  0  0  0  0  0
   37.3660   74.7160   57.4030 N   0  0  0  0  0  0  0  0  0  0  0  0
   36.7680   75.1160   56.2290 C   0  0  0  0  0  0  0  0  0  0  0  0
   37.0030   76.3050   55.6610 N   0  0  0  0  0  0  0  0  0  0  0  0
   38.0320   78.1160   55.7740 H   0  0  0  0  0  0  0  0  0  0  0  0
   39.1580   77.5230   57.8660 H   0  0  0  0  0  0  0  0  0  0  0  0
   36.1000   74.4060   55.8000 H   0  0  0  0  0  0  0  0  0  0  0  0
   40.2420   72.9080   61.5830 C   0  0  0  0  0  0  0  0  0  0  0  0
   40.0460   71.9820   61.0370 H   0  0  0  0  0  0  0  0  0  0  0  0
   39.6030   72.8790   62.5080 H   0  0  0  0  0  0  0  0  0  0  0  0
   41.5450   73.0730   61.9880 O   0  0  0  0  0  0  0  0  0  0  0  0
   43.9180   73.2690   60.9240 O   0  0  0  0  0  0  0  0  0  0  0  0
   42.6840   72.4050   60.9800 P   0  0  2  0  0  0  0  0  0  0  0  0
   42.0500   72.3040   59.4170 O   0  0  0  0  0  0  0  0  0  0  0  0
   42.1230   73.1730   58.9480 H   0  0  0  0  0  0  0  0  0  0  0  0
   43.0990   70.8290   61.4340 O   0  0  0  0  0  0  0  0  0  0  0  0
   42.2000   69.8740   60.9780 C   0  0  0  0  0  2  0  0  0  0  0  0
   42.0170   68.9660   62.1110 N   0  0  0  0  0  4  0  0  0  0  0  0
   41.0200   69.0780   62.4020 H   0  0  0  0  0  0  0  0  0  0  0  0
   42.8480   69.3110   63.2310 C   0  0  0  0  0  2  0  0  0  0  0  0
   42.4840   70.2910   63.6040 H   0  0  0  0  0  0  0  0  0  0  0  0
   42.1910   67.5900   61.6940 C   0  0  0  0  0  2  0  0  0  0  0  0
   42.9070   67.0770   62.3430 H   0  0  0  0  0  0  0  0  0  0  0  0
  1  5  2  0  0  0  0
  1  2  1  0  0  0  0
  2  3  2  0  0  0  0
  3  7  1  0  0  0  0
  4  3  1  0  0  0  0
  4 17  1  0  0  0  0
  5  4  1  0  0  0  0
  6  2  1  0  0  0  0
  8  9  1  0  0  0  0
  9 15  1  0  0  0  0
  9 10  2  0  0  0  0
 10  1  1  0  0  0  0
 11 10  1  0  0  0  0
 12 11  2  0  0  0  0
 13  8  2  0  0  0  0
 13 12  1  0  0  0  0
 14  8  1  0  0  0  0
 16 12  1  0  0  0  0
 17 20  1  0  0  0  0
 17 19  1  0  0  0  0
 18 17  1  0  0  0  0
 22 21  2  6  0  0  0
 22 25  1  0  0  0  0
 22 20  1  0  0  0  0
 23 22  1  0  0  0  0
 24 23  1  0  0  0  0
 26 25  1  0  0  0  0
 26 27  1  0  0  0  0
 27 28  1  0  0  0  0
 27 29  1  0  0  0  0
 29 30  1  0  0  0  0
 31 27  1  0  0  0  0
 31 32  1  0  0  0  0
M  END
>  <minimizedAffinity>
-4.90865374

$$$$

 OpenBabel03212520283D

 32 33  0  0  0  0  0  0  0  0999 V2000
   42.2730   69.4460   61.3900 C   0  0  0  0  0  0  0  0  0  0  0  0
   43.0620   70.0490   60.4030 C   0  0  0  0  0  0  0  0  0  0  0  0
   42.7180   71.3930   60.5660 C   0  0  0  0  0  0  0  0  0  0  0  0
   41.8060   71.5380   61.5680 N   0  0  0  0  0  0  0  0  0  0  0  0
   41.5510   70.3330   62.0560 N   0  0  0  0  0  0  0  0  0  0  0  0
   43.7410   69.6060   59.7110 H   0  0  0  0  0  0  0  0  0  0  0  0
   43.1440   72.2030   59.9520 H   0  0  0  0  0  0  0  0  0  0  0  0
   43.4200   66.0050   62.2780 C   0  0  0  0  0  0  0  0  0  0  0  0
   43.4380   67.3730   62.0460 C   0  0  0  0  0  0  0  0  0  0  0  0
   42.2660   68.0060   61.6360 C   0  0  0  0  0  0  0  0  0  0  0  0
   41.1330   67.2930   61.4680 N   0  0  0  0  0  0  0  0  0  0  0  0
   41.1900   65.9390   61.7160 C   0  0  0  0  0  0  0  0  0  0  0  0
   42.3080   65.3190   62.1110 N   0  0  0  0  0  0  0  0  0  0  0  0
   44.3280   65.5100   62.5960 H   0  0  0  0  0  0  0  0  0  0  0  0
   44.3570   67.9240   62.1880 H   0  0  0  0  0  0  0  0  0  0  0  0
   40.2740   65.4160   61.5700 H   0  0  0  0  0  0  0  0  0  0  0  0
   41.2420   72.7930   61.9940 C   0  0  0  0  0  0  0  0  0  0  0  0
   41.7940   73.6080   61.5190 H   0  0  0  0  0  0  0  0  0  0  0  0
   41.4410   72.8700   63.0990 H   0  0  0  0  0  0  0  0  0  0  0  0
   39.8810   72.8400   61.8170 O   0  0  0  0  0  0  0  0  0  0  0  0
   40.1070   75.3140   61.0240 O   0  0  0  0  0  0  0  0  0  0  0  0
   39.3460   74.0330   60.7930 P   0  0  2  0  0  0  0  0  0  0  0  0
   37.7130   74.3380   61.1010 O   0  0  0  0  0  0  0  0  0  0  0  0
   37.6060   74.9390   61.8810 H   0  0  0  0  0  0  0  0  0  0  0  0
   39.4520   73.5800   59.1660 O   0  0  0  0  0  0  0  0  0  0  0  0
   39.7420   74.6430   58.3210 C   0  0  0  0  0  2  0  0  0  0  0  0
   38.5280   75.4580   58.3190 N   0  0  0  0  0  4  0  0  0  0  0  0
   38.1500   75.4000   59.2920 H   0  0  0  0  0  0  0  0  0  0  0  0
   37.5260   74.9500   57.4230 C   0  0  0  0  0  2  0  0  0  0  0  0
   37.2000   73.9730   57.8360 H   0  0  0  0  0  0  0  0  0  0  0  0
   38.8470   76.8480   58.0640 C   0  0  0  0  0  2  0  0  0  0  0  0
   38.2320   77.2430   57.2500 H   0  0  0  0  0  0  0  0  0  0  0  0
  1 10  1  0  0  0  0
  1  5  2  0  0  0  0
  2  3  2  0  0  0  0
  2  1  1  0  0  0  0
  3  4  1  0  0  0  0
  4 17  1  0  0  0  0
  4  5  1  0  0  0  0
  6  2  1  0  0  0  0
  7  3  1  0  0  0  0
  8 14  1  0  0  0  0
  9 15  1  0  0  0  0
  9  8  2  0  0  0  0
 10  9  1  0  0  0  0
 11 10  2  0  0  0  0
 11 12  1  0  0  0  0
 12 13  2  0  0  0  0
 13  8  1  0  0  0  0
 16 12  1  0  0  0  0
 17 19  1  0  0  0  0
 18 17  1  0  0  0  0
 20 17  1  0  0  0  0
 22 21  2  1  0  0  0
 22 23  1  0  0  0  0
 22 20  1  0  0  0  0
 23 24  1  0  0  0  0
 25 22  1  0  0  0  0
 26 25  1  0  0  0  0
 27 26  1  0  0  0  0
 27 28  1  0  0  0  0
 29 30  1  0  0  0  0
 29 27  1  0  0  0  0
 31 27  1  0  0  0  0
 32 31  1  0  0  0  0
M  END
>  <minimizedAffinity>
-4.82612944

$$$$

 OpenBabel03212520283D

 32 33  0  0  0  0  0  0  0  0999 V2000
   39.5940   75.0290   59.0740 C   0  0  0  0  0  0  0  0  0  0  0  0
   39.7440   76.4160   58.9620 C   0  0  0  0  0  0  0  0  0  0  0  0
   38.7390   76.7220   58.0400 C   0  0  0  0  0  0  0  0  0  0  0  0
   38.0740   75.5960   57.6620 N   0  0  0  0  0  0  0  0  0  0  0  0
   38.6140   74.5740   58.3080 N   0  0  0  0  0  0  0  0  0  0  0  0
   40.4370   77.0660   59.4460 H   0  0  0  0  0  0  0  0  0  0  0  0
   38.5380   77.7470   57.6870 H   0  0  0  0  0  0  0  0  0  0  0  0
   40.6800   72.8370   61.8960 C   0  0  0  0  0  0  0  0  0  0  0  0
   39.8760   73.6190   61.0790 C   0  0  0  0  0  0  0  0  0  0  0  0
   40.4300   74.2030   59.9420 C   0  0  0  0  0  0  0  0  0  0  0  0
   41.7320   74.0070   59.6450 N   0  0  0  0  0  0  0  0  0  0  0  0
   42.4700   73.2200   60.5020 C   0  0  0  0  0  0  0  0  0  0  0  0
   41.9500   72.6530   61.5960 N   0  0  0  0  0  0  0  0  0  0  0  0
   40.2540   72.3820   62.7800 H   0  0  0  0  0  0  0  0  0  0  0  0
   38.8370   73.7620   61.3360 H   0  0  0  0  0  0  0  0  0  0  0  0
   43.4910   73.0930   60.2290 H   0  0  0  0  0  0  0  0  0  0  0  0
   36.9810   75.5600   56.7240 C   0  0  0  0  0  0  0  0  0  0  0  0
   36.7970   76.5720   56.3570 H   0  0  0  0  0  0  0  0  0  0  0  0
   36.0700   75.2590   57.3110 H   0  0  0  0  0  0  0  0  0  0  0  0
   37.1680   74.6170   55.7420 O   0  0  0  0  0  0  0  0  0  0  0  0
   37.9410   76.6990   54.3740 O   0  0  0  0  0  0  0  0  0  0  0  0
   37.6790   75.2170   54.2800 P   0  0  2  0  0  0  0  0  0  0  0  0
   36.4670   74.9780   53.1270 O   0  0  0  0  0  0  0  0  0  0  0  0
   35.7740   75.6830   53.1920 H   0  0  0  0  0  0  0  0  0  0  0  0
   39.0560   74.4200   53.7030 O   0  0  0  0  0  0  0  0  0  0  0  0
   39.7810   73.7890   54.7050 C   0  0  0  0  0  2  0  0  0  0  0  0
   39.2190   72.4400   54.7780 N   0  0  0  0  0  4  0  0  0  0  0  0
   38.1970   72.5530   54.5920 H   0  0  0  0  0  0  0  0  0  0  0  0
   39.3720   71.8510   56.0790 C   0  0  0  0  0  2  0  0  0  0  0  0
   38.7430   72.4490   56.7710 H   0  0  0  0  0  0  0  0  0  0  0  0
   39.7580   71.6060   53.7240 C   0  0  0  0  0  2  0  0  0  0  0  0
   40.1500   70.6700   54.1340 H   0  0  0  0  0  0  0  0  0  0  0  0
  1 10  1  0  0  0  0
  2  1  1  0  0  0  0
  2  6  1  0  0  0  0
  3  2  2  0  0  0  0
  4  3  1  0  0  0  0
  4  5  1  0  0  0  0
  5  1  2  0  0  0  0
  7  3  1  0  0  0  0
  8 14  1  0  0  0  0
  9 15  1  0  0  0  0
  9  8  2  0  0  0  0
 10  9  1  0  0  0  0
 11 10  2  0  0  0  0
 11 12  1  0  0  0  0
 12 13  2  0  0  0  0
 13  8  1  0  0  0  0
 16 12  1  0  0  0  0
 17 19  1  0  0  0  0
 17  4  1  0  0  0  0
 18 17  1  0  0  0  0
 20 17  1  0  0  0  0
 22 21  2  1  0  0  0
 22 20  1  0  0  0  0
 23 24  1  0  0  0  0
 23 22  1  0  0  0  0
 25 22  1  0  0  0  0
 25 26  1  0  0  0  0
 26 27  1  0  0  0  0
 27 29  1  0  0  0  0
 28 27  1  0  0  0  0
 29 30  1  0  0  0  0
 31 32  1  0  0  0  0
 31 27  1  0  0  0  0
M  END
>  <minimizedAffinity>
-4.76414347

$$$$

 OpenBabel03212520283D

 32 33  0  0  0  0  0  0  0  0999 V2000
   41.9930   69.4300   62.2060 C   0  0  0  0  0  0  0  0  0  0  0  0
   41.8820   70.2800   63.3120 C   0  0  0  0  0  0  0  0  0  0  0  0
   42.0290   71.5310   62.7060 C   0  0  0  0  0  0  0  0  0  0  0  0
   42.2090   71.3960   61.3630 N   0  0  0  0  0  0  0  0  0  0  0  0
   42.1830   70.1020   61.0820 N   0  0  0  0  0  0  0  0  0  0  0  0
   41.7280   70.0430   64.3400 H   0  0  0  0  0  0  0  0  0  0  0  0
   41.9990   72.4800   63.2670 H   0  0  0  0  0  0  0  0  0  0  0  0
   40.6620   66.0050   62.8720 C   0  0  0  0  0  0  0  0  0  0  0  0
   40.7340   67.3880   62.7800 C   0  0  0  0  0  0  0  0  0  0  0  0
   41.9060   67.9750   62.3070 C   0  0  0  0  0  0  0  0  0  0  0  0
   42.9520   67.2040   61.9440 N   0  0  0  0  0  0  0  0  0  0  0  0
   42.8090   65.8390   62.0630 C   0  0  0  0  0  0  0  0  0  0  0  0
   41.6890   65.2620   62.5150 N   0  0  0  0  0  0  0  0  0  0  0  0
   39.7540   65.5450   63.2390 H   0  0  0  0  0  0  0  0  0  0  0  0
   39.8840   67.9850   63.0760 H   0  0  0  0  0  0  0  0  0  0  0  0
   43.6590   65.2700   61.7660 H   0  0  0  0  0  0  0  0  0  0  0  0
   42.3920   72.4890   60.4420 C   0  0  0  0  0  0  0  0  0  0  0  0
   42.0310   72.1850   59.4560 H   0  0  0  0  0  0  0  0  0  0  0  0
   43.5030   72.6400   60.3460 H   0  0  0  0  0  0  0  0  0  0  0  0
   41.8570   73.6630   60.9140 O   0  0  0  0  0  0  0  0  0  0  0  0
   39.6430   75.0390   61.0040 O   0  0  0  0  0  0  0  0  0  0  0  0
   40.5090   74.1970   60.1020 P   0  0  2  0  0  0  0  0  0  0  0  0
   39.5970   72.8650   59.6040 O   0  0  0  0  0  0  0  0  0  0  0  0
   39.0350   72.5240   60.3450 H   0  0  0  0  0  0  0  0  0  0  0  0
   40.9020   75.0620   58.7020 O   0  0  0  0  0  0  0  0  0  0  0  0
   39.9840   74.8850   57.6750 C   0  0  0  0  0  2  0  0  0  0  0  0
   38.7700   75.5540   58.1420 N   0  0  0  0  0  4  0  0  0  0  0  0
   38.7360   75.3850   59.1720 H   0  0  0  0  0  0  0  0  0  0  0  0
   37.5790   74.9990   57.5610 C   0  0  0  0  0  2  0  0  0  0  0  0
   37.4900   73.9640   57.9540 H   0  0  0  0  0  0  0  0  0  0  0  0
   38.8700   76.9850   57.9430 C   0  0  0  0  0  2  0  0  0  0  0  0
   37.9910   77.3630   57.4110 H   0  0  0  0  0  0  0  0  0  0  0  0
  1 10  1  0  0  0  0
  1  2  1  0  0  0  0
  2  6  1  0  0  0  0
  3  7  1  0  0  0  0
  3  2  2  0  0  0  0
  4  3  1  0  0  0  0
  5  4  1  0  0  0  0
  5  1  2  0  0  0  0
  8 14  1  0  0  0  0
  9  8  1  0  0  0  0
  9 15  1  0  0  0  0
 10  9  2  0  0  0  0
 11 12  2  0  0  0  0
 11 10  1  0  0  0  0
 12 13  1  0  0  0  0
 13  8  2  0  0  0  0
 16 12  1  0  0  0  0
 17 20  1  0  0  0  0
 17  4  1  0  0  0  0
 18 17  1  0  0  0  0
 19 17  1  0  0  0  0
 22 20  1  0  0  0  0
 22 21  2  1  0  0  0
 23 22  1  0  0  0  0
 23 24  1  0  0  0  0
 25 22  1  0  0  0  0
 26 27  1  0  0  0  0
 26 25  1  0  0  0  0
 27 28  1  0  0  0  0
 29 30  1  0  0  0  0
 29 27  1  0  0  0  0
 31 27  1  0  0  0  0
 32 31  1  0  0  0  0
M  END
>  <minimizedAffinity>
-4.70274401

$$$$

 OpenBabel03212520283D

 32 33  0  0  0  0  0  0  0  0999 V2000
   41.5140   73.7910   60.5280 C   0  0  0  0  0  0  0  0  0  0  0  0
   42.4330   74.4430   59.6970 C   0  0  0  0  0  0  0  0  0  0  0  0
   41.6640   75.5150   59.2340 C   0  0  0  0  0  0  0  0  0  0  0  0
   40.4100   75.4700   59.7630 N   0  0  0  0  0  0  0  0  0  0  0  0
   40.3440   74.4080   60.5510 N   0  0  0  0  0  0  0  0  0  0  0  0
   43.4450   74.1920   59.4730 H   0  0  0  0  0  0  0  0  0  0  0  0
   42.0510   76.2750   58.5350 H   0  0  0  0  0  0  0  0  0  0  0  0
   43.0650   70.5260   61.4700 C   0  0  0  0  0  0  0  0  0  0  0  0
   42.7670   71.6780   60.7550 C   0  0  0  0  0  0  0  0  0  0  0  0
   41.8350   72.5750   61.2710 C   0  0  0  0  0  0  0  0  0  0  0  0
   41.2320   72.3220   62.4520 N   0  0  0  0  0  0  0  0  0  0  0  0
   41.5770   71.1590   63.1060 C   0  0  0  0  0  0  0  0  0  0  0  0
   42.4710   70.2890   62.6210 N   0  0  0  0  0  0  0  0  0  0  0  0
   43.7880   69.8280   61.0720 H   0  0  0  0  0  0  0  0  0  0  0  0
   43.2630   71.8600   59.8120 H   0  0  0  0  0  0  0  0  0  0  0  0
   41.0770   70.9990   64.0330 H   0  0  0  0  0  0  0  0  0  0  0  0
   39.3680   76.4270   59.4920 C   0  0  0  0  0  0  0  0  0  0  0  0
   39.6800   77.4050   59.8660 H   0  0  0  0  0  0  0  0  0  0  0  0
   38.4820   76.1130   60.1100 H   0  0  0  0  0  0  0  0  0  0  0  0
   38.9760   76.4130   58.1750 O   0  0  0  0  0  0  0  0  0  0  0  0
   36.8450   75.5820   56.9220 O   0  0  0  0  0  0  0  0  0  0  0  0
   38.0260   75.1220   57.7380 P   0  0  2  0  0  0  0  0  0  0  0  0
   37.4340   74.3720   59.1320 O   0  0  0  0  0  0  0  0  0  0  0  0
   36.6430   74.8550   59.4840 H   0  0  0  0  0  0  0  0  0  0  0  0
   38.8940   73.9430   56.8900 O   0  0  0  0  0  0  0  0  0  0  0  0
   39.9440   74.4660   56.1470 C   0  0  0  0  0  2  0  0  0  0  0  0
   39.3030   75.3360   55.1600 N   0  0  0  0  0  4  0  0  0  0  0  0
   38.4830   75.7590   55.6500 H   0  0  0  0  0  0  0  0  0  0  0  0
   38.8140   74.6080   54.0220 C   0  0  0  0  0  2  0  0  0  0  0  0
   37.9910   73.9600   54.3920 H   0  0  0  0  0  0  0  0  0  0  0  0
   40.1870   76.4200   54.7870 C   0  0  0  0  0  2  0  0  0  0  0  0
   40.2810   76.4850   53.6980 H   0  0  0  0  0  0  0  0  0  0  0  0
  1  5  2  0  0  0  0
  1 10  1  0  0  0  0
  2  1  1  0  0  0  0
  3  2  2  0  0  0  0
  3  4  1  0  0  0  0
  4  5  1  0  0  0  0
  6  2  1  0  0  0  0
  7  3  1  0  0  0  0
  8 13  1  0  0  0  0
  9 10  1  0  0  0  0
  9  8  2  0  0  0  0
 10 11  2  0  0  0  0
 11 12  1  0  0  0  0
 12 16  1  0  0  0  0
 13 12  2  0  0  0  0
 14  8  1  0  0  0  0
 15  9  1  0  0  0  0
 17  4  1  0  0  0  0
 17 18  1  0  0  0  0
 17 19  1  0  0  0  0
 20 17  1  0  0  0  0
 22 21  2  6  0  0  0
 22 20  1  0  0  0  0
 22 23  1  0  0  0  0
 23 24  1  0  0  0  0
 25 22  1  0  0  0  0
 26 25  1  0  0  0  0
 27 28  1  0  0  0  0
 27 26  1  0  0  0  0
 29 30  1  0  0  0  0
 29 27  1  0  0  0  0
 31 27  1  0  0  0  0
 32 31  1  0  0  0  0
M  END
>  <minimizedAffinity>
-4.67435503

$$$$

 OpenBabel03212520283D

 32 33  0  0  0  0  0  0  0  0999 V2000
   40.3870   73.6360   61.1060 C   0  0  0  0  0  0  0  0  0  0  0  0
   38.9930   73.6800   61.2320 C   0  0  0  0  0  0  0  0  0  0  0  0
   38.7140   74.9370   60.6880 C   0  0  0  0  0  0  0  0  0  0  0  0
   39.8600   75.5520   60.2850 N   0  0  0  0  0  0  0  0  0  0  0  0
   40.8690   74.7360   60.5510 N   0  0  0  0  0  0  0  0  0  0  0  0
   38.3230   72.9560   61.6350 H   0  0  0  0  0  0  0  0  0  0  0  0
   37.6930   75.3460   60.6090 H   0  0  0  0  0  0  0  0  0  0  0  0
   42.9490   70.9180   61.1310 C   0  0  0  0  0  0  0  0  0  0  0  0
   42.1920   72.0020   60.7080 C   0  0  0  0  0  0  0  0  0  0  0  0
   41.1910   72.4960   61.5410 C   0  0  0  0  0  0  0  0  0  0  0  0
   40.9650   71.9250   62.7430 N   0  0  0  0  0  0  0  0  0  0  0  0
   41.7560   70.8530   63.0970 C   0  0  0  0  0  0  0  0  0  0  0  0
   42.7210   70.3690   62.3060 N   0  0  0  0  0  0  0  0  0  0  0  0
   43.7270   70.5320   60.4870 H   0  0  0  0  0  0  0  0  0  0  0  0
   42.3900   72.4430   59.7410 H   0  0  0  0  0  0  0  0  0  0  0  0
   41.5430   70.4340   64.0520 H   0  0  0  0  0  0  0  0  0  0  0  0
   39.9260   76.8590   59.6810 C   0  0  0  0  0  0  0  0  0  0  0  0
   40.9330   77.2600   59.8170 H   0  0  0  0  0  0  0  0  0  0  0  0
   39.2330   77.5170   60.2740 H   0  0  0  0  0  0  0  0  0  0  0  0
   39.4780   76.8550   58.3820 O   0  0  0  0  0  0  0  0  0  0  0  0
   42.0080   76.5100   57.8500 O   0  0  0  0  0  0  0  0  0  0  0  0
   40.6280   76.4820   57.2430 P   0  0  2  0  0  0  0  0  0  0  0  0
   40.5810   77.6350   56.0090 O   0  0  0  0  0  0  0  0  0  0  0  0
   41.0800   78.4510   56.2680 H   0  0  0  0  0  0  0  0  0  0  0  0
   40.3470   74.9830   56.5120 O   0  0  0  0  0  0  0  0  0  0  0  0
   39.1460   74.9310   55.8170 C   0  0  0  0  0  2  0  0  0  0  0  0
   38.1230   74.7840   56.8540 N   0  0  0  0  0  4  0  0  0  0  0  0
   38.4350   75.3940   57.6420 H   0  0  0  0  0  0  0  0  0  0  0  0
   38.0280   73.4370   57.3450 C   0  0  0  0  0  2  0  0  0  0  0  0
   38.9840   73.2250   57.8700 H   0  0  0  0  0  0  0  0  0  0  0  0
   36.8510   75.2960   56.3890 C   0  0  0  0  0  2  0  0  0  0  0  0
   36.0590   74.5550   56.5370 H   0  0  0  0  0  0  0  0  0  0  0  0
  1  2  1  0  0  0  0
  1 10  1  0  0  0  0
  2  6  1  0  0  0  0
  3  2  2  0  0  0  0
  4  5  1  0  0  0  0
  4  3  1  0  0  0  0
  5  1  2  0  0  0  0
  7  3  1  0  0  0  0
  8 13  1  0  0  0  0
  9  8  2  0  0  0  0
  9 10  1  0  0  0  0
 10 11  2  0  0  0  0
 11 12  1  0  0  0  0
 12 16  1  0  0  0  0
 13 12  2  0  0  0  0
 14  8  1  0  0  0  0
 15  9  1  0  0  0  0
 17 18  1  0  0  0  0
 17 19  1  0  0  0  0
 17  4  1  0  0  0  0
 20 17  1  0  0  0  0
 22 21  2  1  0  0  0
 22 20  1  0  0  0  0
 23 24  1  0  0  0  0
 23 22  1  0  0  0  0
 25 22  1  0  0  0  0
 26 25  1  0  0  0  0
 26 27  1  0  0  0  0
 27 29  1  0  0  0  0
 27 28  1  0  0  0  0
 29 30  1  0  0  0  0
 31 32  1  0  0  0  0
 31 27  1  0  0  0  0
M  END
>  <minimizedAffinity>
-4.65215397

$$$$

 OpenBabel03212520283D

 32 33  0  0  0  0  0  0  0  0999 V2000
   42.0120   70.6980   61.7860 C   0  0  0  0  0  0  0  0  0  0  0  0
   41.8520   71.5670   62.8710 C   0  0  0  0  0  0  0  0  0  0  0  0
   41.4970   72.7510   62.2180 C   0  0  0  0  0  0  0  0  0  0  0  0
   41.4590   72.5620   60.8690 N   0  0  0  0  0  0  0  0  0  0  0  0
   41.7770   71.2990   60.6310 N   0  0  0  0  0  0  0  0  0  0  0  0
   41.9700   71.3820   63.9140 H   0  0  0  0  0  0  0  0  0  0  0  0
   41.2830   73.6920   62.7510 H   0  0  0  0  0  0  0  0  0  0  0  0
   43.5980   67.5860   63.1110 C   0  0  0  0  0  0  0  0  0  0  0  0
   43.2430   68.9210   62.9760 C   0  0  0  0  0  0  0  0  0  0  0  0
   42.3920   69.2950   61.9380 C   0  0  0  0  0  0  0  0  0  0  0  0
   41.9230   68.3670   61.0780 N   0  0  0  0  0  0  0  0  0  0  0  0
   42.3170   67.0610   61.2730 C   0  0  0  0  0  0  0  0  0  0  0  0
   43.1330   66.6890   62.2660 N   0  0  0  0  0  0  0  0  0  0  0  0
   44.2580   67.2920   63.9150 H   0  0  0  0  0  0  0  0  0  0  0  0
   43.6310   69.6470   63.6760 H   0  0  0  0  0  0  0  0  0  0  0  0
   41.9230   66.3630   60.5710 H   0  0  0  0  0  0  0  0  0  0  0  0
   41.1270   73.5790   59.9050 C   0  0  0  0  0  0  0  0  0  0  0  0
   41.9380   73.6550   59.1770 H   0  0  0  0  0  0  0  0  0  0  0  0
   41.1060   74.5540   60.4660 H   0  0  0  0  0  0  0  0  0  0  0  0
   39.8800   73.3930   59.3580 O   0  0  0  0  0  0  0  0  0  0  0  0
   38.3280   74.2280   61.2810 O   0  0  0  0  0  0  0  0  0  0  0  0
   38.7270   74.4830   59.8490 P   0  0  2  0  0  0  0  0  0  0  0  0
   37.3490   74.3050   58.8870 O   0  0  0  0  0  0  0  0  0  0  0  0
   36.7920   73.5490   59.2040 H   0  0  0  0  0  0  0  0  0  0  0  0
   39.2380   76.0860   59.6660 O   0  0  0  0  0  0  0  0  0  0  0  0
   38.9280   76.6190   58.4220 C   0  0  0  0  0  2  0  0  0  0  0  0
   39.7700   75.8800   57.4810 N   0  0  0  0  0  4  0  0  0  0  0  0
   39.8490   74.9150   57.8740 H   0  0  0  0  0  0  0  0  0  0  0  0
   41.0940   76.4290   57.3810 C   0  0  0  0  0  2  0  0  0  0  0  0
   41.5780   76.2670   58.3680 H   0  0  0  0  0  0  0  0  0  0  0  0
   39.1170   75.7680   56.1940 C   0  0  0  0  0  2  0  0  0  0  0  0
   39.7850   76.1000   55.3920 H   0  0  0  0  0  0  0  0  0  0  0  0
  1 10  1  0  0  0  0
  1  2  1  0  0  0  0
  2  6  1  0  0  0  0
  3  7  1  0  0  0  0
  3  2  2  0  0  0  0
  4  3  1  0  0  0  0
  5  4  1  0  0  0  0
  5  1  2  0  0  0  0
  8 14  1  0  0  0  0
  9  8  1  0  0  0  0
  9 15  1  0  0  0  0
 10  9  2  0  0  0  0
 11 12  2  0  0  0  0
 11 10  1  0  0  0  0
 12 13  1  0  0  0  0
 13  8  2  0  0  0  0
 16 12  1  0  0  0  0
 17 19  1  0  0  0  0
 17  4  1  0  0  0  0
 18 17  1  0  0  0  0
 20 22  1  0  0  0  0
 20 17  1  0  0  0  0
 22 21  2  1  0  0  0
 23 24  1  0  0  0  0
 23 22  1  0  0  0  0
 25 22  1  0  0  0  0
 26 25  1  0  0  0  0
 27 28  1  0  0  0  0
 27 26  1  0  0  0  0
 29 27  1  0  0  0  0
 29 30  1  0  0  0  0
 31 27  1  0  0  0  0
 32 31  1  0  0  0  0
M  END
>  <minimizedAffinity>
-4.64861774

$$$$

 OpenBabel03212520283D

 32 33  0  0  0  0  0  0  0  0999 V2000
   39.8040   74.2590   59.7910 C   0  0  0  0  0  0  0  0  0  0  0  0
   39.2600   73.7170   60.9620 C   0  0  0  0  0  0  0  0  0  0  0  0
   40.4030   73.1880   61.5690 C   0  0  0  0  0  0  0  0  0  0  0  0
   41.5040   73.4140   60.8010 N   0  0  0  0  0  0  0  0  0  0  0  0
   41.1120   74.0710   59.7200 N   0  0  0  0  0  0  0  0  0  0  0  0
   38.2500   73.7070   61.3010 H   0  0  0  0  0  0  0  0  0  0  0  0
   40.3810   72.6640   62.5390 H   0  0  0  0  0  0  0  0  0  0  0  0
   37.2790   74.9010   57.1150 C   0  0  0  0  0  0  0  0  0  0  0  0
   38.0360   74.2380   58.0710 C   0  0  0  0  0  0  0  0  0  0  0  0
   39.0010   74.9470   58.7830 C   0  0  0  0  0  0  0  0  0  0  0  0
   39.1910   76.2610   58.5430 N   0  0  0  0  0  0  0  0  0  0  0  0
   38.4030   76.8540   57.5810 C   0  0  0  0  0  0  0  0  0  0  0  0
   37.4730   76.1850   56.8900 N   0  0  0  0  0  0  0  0  0  0  0  0
   36.5280   74.3550   56.5600 H   0  0  0  0  0  0  0  0  0  0  0  0
   37.8660   73.1850   58.2460 H   0  0  0  0  0  0  0  0  0  0  0  0
   38.5880   77.8910   57.4240 H   0  0  0  0  0  0  0  0  0  0  0  0
   42.8420   72.9990   61.1370 C   0  0  0  0  0  0  0  0  0  0  0  0
   42.8680   72.7080   62.1900 H   0  0  0  0  0  0  0  0  0  0  0  0
   43.4910   73.9130   61.0380 H   0  0  0  0  0  0  0  0  0  0  0  0
   43.3290   72.0530   60.2670 O   0  0  0  0  0  0  0  0  0  0  0  0
   44.3870   69.6750   60.4290 O   0  0  0  0  0  0  0  0  0  0  0  0
   43.1600   70.4800   60.7720 P   0  0  2  0  0  0  0  0  0  0  0  0
   41.8420   69.7810   59.9790 O   0  0  0  0  0  0  0  0  0  0  0  0
   42.0960   69.4780   59.0710 H   0  0  0  0  0  0  0  0  0  0  0  0
   42.8380   70.3690   62.4300 O   0  0  0  0  0  0  0  0  0  0  0  0
   43.2770   69.1770   62.9930 C   0  0  0  0  0  2  0  0  0  0  0  0
   42.3740   68.1590   62.4560 N   0  0  0  0  0  4  0  0  0  0  0  0
   42.1520   68.4660   61.4830 H   0  0  0  0  0  0  0  0  0  0  0  0
   41.1400   68.0780   63.1880 C   0  0  0  0  0  2  0  0  0  0  0  0
   40.6070   69.0360   63.0140 H   0  0  0  0  0  0  0  0  0  0  0  0
   43.0480   66.8800   62.3620 C   0  0  0  0  0  2  0  0  0  0  0  0
   42.4580   66.0960   62.8470 H   0  0  0  0  0  0  0  0  0  0  0  0
  1  2  1  0  0  0  0
  2  6  1  0  0  0  0
  2  3  2  0  0  0  0
  3  7  1  0  0  0  0
  4 17  1  0  0  0  0
  4  3  1  0  0  0  0
  5  1  2  0  0  0  0
  5  4  1  0  0  0  0
  8  9  1  0  0  0  0
  9 15  1  0  0  0  0
  9 10  2  0  0  0  0
 10  1  1  0  0  0  0
 11 10  1  0  0  0  0
 12 11  2  0  0  0  0
 13  8  2  0  0  0  0
 13 12  1  0  0  0  0
 14  8  1  0  0  0  0
 16 12  1  0  0  0  0
 17 18  1  0  0  0  0
 19 17  1  0  0  0  0
 20 22  1  0  0  0  0
 20 17  1  0  0  0  0
 22 21  2  6  0  0  0
 22 25  1  0  0  0  0
 23 22  1  0  0  0  0
 24 23  1  0  0  0  0
 25 26  1  0  0  0  0
 27 26  1  0  0  0  0
 27 29  1  0  0  0  0
 28 27  1  0  0  0  0
 30 29  1  0  0  0  0
 31 27  1  0  0  0  0
 31 32  1  0  0  0  0
M  END
>  <minimizedAffinity>
-4.64001799

$$$$
