
 OpenBabel03212520593D

 45 50  0  0  1  0  0  0  0  0999 V2000
   39.7860   77.4500   59.1740 C   0  0  0  0  0  0  0  0  0  0  0  0
   40.4730   76.3140   58.8880 C   0  0  0  0  0  0  0  0  0  0  0  0
   39.9270   75.6150   57.8080 C   0  0  0  0  0  0  0  0  0  0  0  0
   38.8420   76.0120   57.1170 N   0  0  0  0  0  0  0  0  0  0  0  0
   38.2220   77.1720   57.4840 C   0  0  0  0  0  0  0  0  0  0  0  0
   38.7040   77.8920   58.5230 N   0  0  0  0  0  0  0  0  0  0  0  0
   41.3470   75.9510   59.4100 H   0  0  0  0  0  0  0  0  0  0  0  0
   40.3810   74.6770   57.4660 H   0  0  0  0  0  0  0  0  0  0  0  0
   40.9770   80.3730   61.7590 C   0  0  0  0  0  0  0  0  0  0  0  0
   40.9640   79.1320   62.3490 C   0  0  0  0  0  0  0  0  0  0  0  0
   40.5870   78.0810   61.5940 C   0  0  0  0  0  0  0  0  0  0  0  0
   40.2320   78.2880   60.2720 C   0  0  0  0  0  0  0  0  0  0  0  0
   40.4370   80.1000   60.0450 S   0  0  0  0  0  0  0  0  0  0  0  0
   41.2450   78.9780   63.3910 H   0  0  0  0  0  0  0  0  0  0  0  0
   40.5100   77.0380   61.8680 H   0  0  0  0  0  0  0  0  0  0  0  0
   43.0350   83.1730   62.9260 C   0  0  0  0  0  0  0  0  0  0  0  0
   42.1390   83.9320   63.7270 C   0  0  0  0  0  0  0  0  0  0  0  0
   40.8170   83.4650   63.8520 C   0  0  0  0  0  0  0  0  0  0  0  0
   40.4690   82.3270   63.2100 N   0  0  0  0  0  0  0  0  0  0  0  0
   41.3650   81.6310   62.4520 C   0  0  0  0  0  0  0  0  0  0  0  0
   42.6210   82.0650   62.3260 N   0  0  0  0  0  0  0  0  0  0  0  0
   44.0520   83.5380   62.8330 H   0  0  0  0  0  0  0  0  0  0  0  0
   42.4390   84.8350   64.2280 H   0  0  0  0  0  0  0  0  0  0  0  0
   40.0830   83.9920   64.4460 H   0  0  0  0  0  0  0  0  0  0  0  0
   37.0630   77.5820   56.7210 C   0  0  0  0  0  0  0  0  0  0  0  0
   35.9550   77.1440   57.0730 O   0  0  0  0  0  0  0  0  0  0  0  0
   37.1640   78.5010   55.5270 C   0  0  1  0  0  0  0  0  0  0  0  0
   37.2720   79.9550   55.9100 C   0  0  0  0  0  0  0  0  0  0  0  0
   38.3940   79.2400   55.2950 C   0  0  2  0  0  0  0  0  0  0  0  0
   36.2720   78.3700   54.8670 H   0  0  0  0  0  0  0  0  0  0  0  0
   37.3840   80.2460   56.9710 H   0  0  0  0  0  0  0  0  0  0  0  0
   36.7210   80.6940   55.2980 H   0  0  0  0  0  0  0  0  0  0  0  0
   39.2540   78.9110   55.9420 H   0  0  0  0  0  0  0  0  0  0  0  0
   38.8690   79.5880   53.9290 C   0  0  0  0  0  0  0  0  0  0  0  0
   37.8270   80.0150   53.1700 N   0  0  0  0  0  0  0  0  0  0  0  0
   38.0990   80.4250   51.8990 C   0  0  0  0  0  3  0  0  0  0  0  0
   39.3370   80.4270   51.3670 N   0  0  0  0  0  0  0  0  0  0  0  0
   40.3700   80.0080   52.1030 C   0  0  0  0  0  0  0  0  0  0  0  0
   41.6910   79.9460   51.6780 C   0  0  0  0  0  3  0  0  0  0  0  0
   42.6950   79.4760   52.5280 C   0  0  0  0  0  0  0  0  0  0  0  0
   43.6820   79.4730   52.0910 H   0  0  0  0  0  0  0  0  0  0  0  0
   42.4050   79.0560   53.8280 C   0  0  0  0  0  0  0  0  0  0  0  0
   43.2440   78.7080   54.4140 H   0  0  0  0  0  0  0  0  0  0  0  0
   41.0950   79.1220   54.2410 C   0  0  0  0  0  3  0  0  0  0  0  0
   40.1320   79.5850   53.3930 C   0  0  0  0  0  0  0  0  0  0  0  0
  1 12  1  0  0  0  0
  2  1  1  0  0  0  0
  2  7  1  0  0  0  0
  3  2  2  0  0  0  0
  4  5  2  0  0  0  0
  4  3  1  0  0  0  0
  5  6  1  0  0  0  0
  6  1  2  0  0  0  0
  8  3  1  0  0  0  0
  9 10  2  0  0  0  0
  9 20  1  0  0  0  0
 10 14  1  0  0  0  0
 11 15  1  0  0  0  0
 11 10  1  0  0  0  0
 12 11  2  0  0  0  0
 13 12  1  0  0  0  0
 13  9  1  0  0  0  0
 16 17  1  0  0  0  0
 17 18  2  0  0  0  0
 17 23  1  0  0  0  0
 18 24  1  0  0  0  0
 19 18  1  0  0  0  0
 20 19  2  0  0  0  0
 21 20  1  0  0  0  0
 21 16  2  0  0  0  0
 22 16  1  0  0  0  0
 25 26  2  0  0  0  0
 25  5  1  0  0  0  0
 27 30  1  6  0  0  0
 27 28  1  0  0  0  0
 27 25  1  0  0  0  0
 28 31  1  0  0  0  0
 29 27  1  0  0  0  0
 29 28  1  0  0  0  0
 29 33  1  1  0  0  0
 32 28  1  0  0  0  0
 34 29  1  0  0  0  0
 35 34  2  0  0  0  0
 36 35  1  0  0  0  0
 37 36  2  0  0  0  0
 37 38  1  0  0  0  0
 38 45  1  0  0  0  0
 39 38  2  0  0  0  0
 39 40  1  0  0  0  0
 40 42  2  0  0  0  0
 41 40  1  0  0  0  0
 42 44  1  0  0  0  0
 42 43  1  0  0  0  0
 45 34  1  0  0  0  0
 45 44  2  0  0  0  0
M  END
>  <minimizedAffinity>
-6.67393208

>  <minimizedRMSD>
0.229228884

$$$$
