
 OpenBabel03212520593D

 45 50  0  0  1  0  0  0  0  0999 V2000
   39.7440   77.2620   59.2640 C   0  0  0  0  0  0  0  0  0  0  0  0
   40.3920   76.0910   59.0280 C   0  0  0  0  0  0  0  0  0  0  0  0
   39.8290   75.3710   57.9710 C   0  0  0  0  0  0  0  0  0  0  0  0
   38.7630   75.7780   57.2560 N   0  0  0  0  0  0  0  0  0  0  0  0
   38.1840   76.9730   57.5730 C   0  0  0  0  0  0  0  0  0  0  0  0
   38.6840   77.7160   58.5860 N   0  0  0  0  0  0  0  0  0  0  0  0
   41.2490   75.7180   59.5710 H   0  0  0  0  0  0  0  0  0  0  0  0
   40.2510   74.4040   57.6700 H   0  0  0  0  0  0  0  0  0  0  0  0
   40.9840   80.2450   61.7540 C   0  0  0  0  0  0  0  0  0  0  0  0
   40.9890   79.0180   62.3720 C   0  0  0  0  0  0  0  0  0  0  0  0
   40.5980   77.9500   61.6500 C   0  0  0  0  0  0  0  0  0  0  0  0
   40.2120   78.1250   60.3320 C   0  0  0  0  0  0  0  0  0  0  0  0
   40.4060   79.9320   60.0600 S   0  0  0  0  0  0  0  0  0  0  0  0
   41.2940   78.8890   63.4110 H   0  0  0  0  0  0  0  0  0  0  0  0
   40.5310   76.9120   61.9490 H   0  0  0  0  0  0  0  0  0  0  0  0
   43.0620   83.0710   62.8190 C   0  0  0  0  0  0  0  0  0  0  0  0
   42.1790   83.8510   63.6150 C   0  0  0  0  0  0  0  0  0  0  0  0
   40.8580   83.3890   63.7720 C   0  0  0  0  0  0  0  0  0  0  0  0
   40.5000   82.2350   63.1640 N   0  0  0  0  0  0  0  0  0  0  0  0
   41.3840   81.5190   62.4090 C   0  0  0  0  0  0  0  0  0  0  0  0
   42.6380   81.9490   62.2540 N   0  0  0  0  0  0  0  0  0  0  0  0
   44.0780   83.4330   62.7020 H   0  0  0  0  0  0  0  0  0  0  0  0
   42.4870   84.7660   64.0890 H   0  0  0  0  0  0  0  0  0  0  0  0
   40.1340   83.9320   64.3630 H   0  0  0  0  0  0  0  0  0  0  0  0
   37.0450   77.3940   56.7840 C   0  0  0  0  0  0  0  0  0  0  0  0
   35.9210   77.0050   57.1400 O   0  0  0  0  0  0  0  0  0  0  0  0
   37.1860   78.2680   55.5610 C   0  0  1  0  0  0  0  0  0  0  0  0
   37.2980   79.7340   55.8930 C   0  0  0  0  0  0  0  0  0  0  0  0
   38.4290   78.9880   55.3360 C   0  0  2  0  0  0  0  0  0  0  0  0
   36.3120   78.1200   54.8820 H   0  0  0  0  0  0  0  0  0  0  0  0
   37.3830   80.0630   56.9460 H   0  0  0  0  0  0  0  0  0  0  0  0
   36.7700   80.4550   55.2400 H   0  0  0  0  0  0  0  0  0  0  0  0
   39.2680   78.6760   56.0180 H   0  0  0  0  0  0  0  0  0  0  0  0
   38.9440   79.2820   53.9710 C   0  0  0  0  0  0  0  0  0  0  0  0
   38.1120   78.7570   53.0370 N   0  0  0  0  0  0  0  0  0  0  0  0
   38.4110   78.9800   51.7270 C   0  0  0  0  0  3  0  0  0  0  0  0
   39.4820   79.6900   51.3200 N   0  0  0  0  0  0  0  0  0  0  0  0
   40.3100   80.2120   52.2300 C   0  0  0  0  0  0  0  0  0  0  0  0
   41.4530   80.9500   51.9510 C   0  0  0  0  0  3  0  0  0  0  0  0
   42.2590   81.4380   52.9820 C   0  0  0  0  0  0  0  0  0  0  0  0
   43.1190   81.9970   52.6460 H   0  0  0  0  0  0  0  0  0  0  0  0
   41.9440   81.2010   54.3210 C   0  0  0  0  0  0  0  0  0  0  0  0
   42.6240   81.6170   55.0520 H   0  0  0  0  0  0  0  0  0  0  0  0
   40.8100   80.4700   54.5890 C   0  0  0  0  0  3  0  0  0  0  0  0
   40.0370   80.0050   53.5640 C   0  0  0  0  0  0  0  0  0  0  0  0
  1 12  1  0  0  0  0
  2  1  1  0  0  0  0
  2  7  1  0  0  0  0
  3  2  2  0  0  0  0
  4  5  2  0  0  0  0
  4  3  1  0  0  0  0
  5  6  1  0  0  0  0
  6  1  2  0  0  0  0
  8  3  1  0  0  0  0
  9 10  2  0  0  0  0
  9 20  1  0  0  0  0
 10 14  1  0  0  0  0
 11 15  1  0  0  0  0
 11 10  1  0  0  0  0
 12 11  2  0  0  0  0
 13 12  1  0  0  0  0
 13  9  1  0  0  0  0
 16 17  1  0  0  0  0
 17 18  2  0  0  0  0
 17 23  1  0  0  0  0
 18 24  1  0  0  0  0
 19 18  1  0  0  0  0
 20 19  2  0  0  0  0
 21 20  1  0  0  0  0
 21 16  2  0  0  0  0
 22 16  1  0  0  0  0
 25 26  2  0  0  0  0
 25  5  1  0  0  0  0
 27 30  1  6  0  0  0
 27 28  1  0  0  0  0
 27 25  1  0  0  0  0
 28 31  1  0  0  0  0
 29 27  1  0  0  0  0
 29 28  1  0  0  0  0
 29 33  1  1  0  0  0
 32 28  1  0  0  0  0
 34 29  1  0  0  0  0
 35 34  2  0  0  0  0
 36 35  1  0  0  0  0
 37 36  2  0  0  0  0
 37 38  1  0  0  0  0
 38 45  1  0  0  0  0
 39 38  2  0  0  0  0
 39 40  1  0  0  0  0
 40 42  2  0  0  0  0
 41 40  1  0  0  0  0
 42 44  1  0  0  0  0
 42 43  1  0  0  0  0
 45 34  1  0  0  0  0
 45 44  2  0  0  0  0
M  END
>  <minimizedAffinity>
-6.71990108

>  <minimizedRMSD>
0.239991516

$$$$
