
 OpenBabel03212520593D

 45 50  0  0  1  0  0  0  0  0999 V2000
   39.7410   77.3280   59.2620 C   0  0  0  0  0  0  0  0  0  0  0  0
   40.3580   76.1350   59.0500 C   0  0  0  0  0  0  0  0  0  0  0  0
   39.7960   75.4250   57.9860 C   0  0  0  0  0  0  0  0  0  0  0  0
   38.7610   75.8600   57.2430 N   0  0  0  0  0  0  0  0  0  0  0  0
   38.2120   77.0750   57.5380 C   0  0  0  0  0  0  0  0  0  0  0  0
   38.7110   77.8090   58.5570 N   0  0  0  0  0  0  0  0  0  0  0  0
   41.1890   75.7400   59.6150 H   0  0  0  0  0  0  0  0  0  0  0  0
   40.1950   74.4430   57.7010 H   0  0  0  0  0  0  0  0  0  0  0  0
   40.9810   80.2960   61.7710 C   0  0  0  0  0  0  0  0  0  0  0  0
   40.9960   79.0640   62.3780 C   0  0  0  0  0  0  0  0  0  0  0  0
   40.6060   78.0000   61.6490 C   0  0  0  0  0  0  0  0  0  0  0  0
   40.2110   78.1840   60.3350 C   0  0  0  0  0  0  0  0  0  0  0  0
   40.3940   79.9950   60.0770 S   0  0  0  0  0  0  0  0  0  0  0  0
   41.3080   78.9270   63.4130 H   0  0  0  0  0  0  0  0  0  0  0  0
   40.5460   76.9590   61.9400 H   0  0  0  0  0  0  0  0  0  0  0  0
   43.0570   83.1120   62.8650 C   0  0  0  0  0  0  0  0  0  0  0  0
   42.1690   83.8930   63.6550 C   0  0  0  0  0  0  0  0  0  0  0  0
   40.8450   83.4330   63.7980 C   0  0  0  0  0  0  0  0  0  0  0  0
   40.4890   82.2830   63.1820 N   0  0  0  0  0  0  0  0  0  0  0  0
   41.3790   81.5670   62.4340 C   0  0  0  0  0  0  0  0  0  0  0  0
   42.6350   81.9940   62.2920 N   0  0  0  0  0  0  0  0  0  0  0  0
   44.0750   83.4720   62.7590 H   0  0  0  0  0  0  0  0  0  0  0  0
   42.4750   84.8040   64.1350 H   0  0  0  0  0  0  0  0  0  0  0  0
   40.1180   83.9760   64.3840 H   0  0  0  0  0  0  0  0  0  0  0  0
   37.1050   77.5250   56.7200 C   0  0  0  0  0  0  0  0  0  0  0  0
   35.9700   77.1120   57.0080 O   0  0  0  0  0  0  0  0  0  0  0  0
   37.2920   78.4560   55.5460 C   0  0  1  0  0  0  0  0  0  0  0  0
   37.2730   79.9110   55.9390 C   0  0  0  0  0  0  0  0  0  0  0  0
   38.4980   79.2650   55.4600 C   0  0  2  0  0  0  0  0  0  0  0  0
   36.4930   78.2790   54.7860 H   0  0  0  0  0  0  0  0  0  0  0  0
   37.2420   80.2010   57.0050 H   0  0  0  0  0  0  0  0  0  0  0  0
   36.7560   80.6220   55.2660 H   0  0  0  0  0  0  0  0  0  0  0  0
   39.2930   78.9800   56.2030 H   0  0  0  0  0  0  0  0  0  0  0  0
   39.1090   79.6480   54.1590 C   0  0  0  0  0  0  0  0  0  0  0  0
   38.2100   79.4780   53.1550 N   0  0  0  0  0  0  0  0  0  0  0  0
   38.5950   79.8340   51.8980 C   0  0  0  0  0  3  0  0  0  0  0  0
   39.8090   80.3400   51.6060 N   0  0  0  0  0  0  0  0  0  0  0  0
   40.7020   80.5100   52.5850 C   0  0  0  0  0  0  0  0  0  0  0  0
   41.9900   81.0080   52.4240 C   0  0  0  0  0  3  0  0  0  0  0  0
   42.8500   81.1320   53.5170 C   0  0  0  0  0  0  0  0  0  0  0  0
   43.8230   81.5290   53.2720 H   0  0  0  0  0  0  0  0  0  0  0  0
   42.4480   80.7620   54.8020 C   0  0  0  0  0  0  0  0  0  0  0  0
   43.1800   80.8930   55.5860 H   0  0  0  0  0  0  0  0  0  0  0  0
   41.1710   80.2720   54.9520 C   0  0  0  0  0  3  0  0  0  0  0  0
   40.3480   80.1610   53.8690 C   0  0  0  0  0  0  0  0  0  0  0  0
  1 12  1  0  0  0  0
  2  1  1  0  0  0  0
  2  7  1  0  0  0  0
  3  2  2  0  0  0  0
  4  5  2  0  0  0  0
  4  3  1  0  0  0  0
  5  6  1  0  0  0  0
  6  1  2  0  0  0  0
  8  3  1  0  0  0  0
  9 10  2  0  0  0  0
  9 20  1  0  0  0  0
 10 14  1  0  0  0  0
 11 15  1  0  0  0  0
 11 10  1  0  0  0  0
 12 11  2  0  0  0  0
 13 12  1  0  0  0  0
 13  9  1  0  0  0  0
 16 17  1  0  0  0  0
 17 18  2  0  0  0  0
 17 23  1  0  0  0  0
 18 24  1  0  0  0  0
 19 18  1  0  0  0  0
 20 19  2  0  0  0  0
 21 20  1  0  0  0  0
 21 16  2  0  0  0  0
 22 16  1  0  0  0  0
 25 26  2  0  0  0  0
 25  5  1  0  0  0  0
 27 30  1  6  0  0  0
 27 28  1  0  0  0  0
 27 25  1  0  0  0  0
 28 31  1  0  0  0  0
 29 27  1  0  0  0  0
 29 28  1  0  0  0  0
 29 33  1  1  0  0  0
 32 28  1  0  0  0  0
 34 29  1  0  0  0  0
 35 34  2  0  0  0  0
 36 35  1  0  0  0  0
 37 36  2  0  0  0  0
 37 38  1  0  0  0  0
 38 45  1  0  0  0  0
 39 38  2  0  0  0  0
 39 40  1  0  0  0  0
 40 42  2  0  0  0  0
 41 40  1  0  0  0  0
 42 44  1  0  0  0  0
 42 43  1  0  0  0  0
 45 34  1  0  0  0  0
 45 44  2  0  0  0  0
M  END
>  <minimizedAffinity>
-6.62419462

>  <minimizedRMSD>
0.230619982

$$$$
