
 OpenBabel03212520593D

 45 50  0  0  1  0  0  0  0  0999 V2000
   39.7540   77.3330   59.2290 C   0  0  0  0  0  0  0  0  0  0  0  0
   40.3750   76.1420   59.0220 C   0  0  0  0  0  0  0  0  0  0  0  0
   39.8300   75.4340   57.9480 C   0  0  0  0  0  0  0  0  0  0  0  0
   38.8050   75.8700   57.1920 N   0  0  0  0  0  0  0  0  0  0  0  0
   38.2490   77.0820   57.4830 C   0  0  0  0  0  0  0  0  0  0  0  0
   38.7330   77.8150   58.5120 N   0  0  0  0  0  0  0  0  0  0  0  0
   41.2000   75.7470   59.5980 H   0  0  0  0  0  0  0  0  0  0  0  0
   40.2350   74.4540   57.6660 H   0  0  0  0  0  0  0  0  0  0  0  0
   40.9710   80.2930   61.7590 C   0  0  0  0  0  0  0  0  0  0  0  0
   40.9470   79.0640   62.3720 C   0  0  0  0  0  0  0  0  0  0  0  0
   40.5610   78.0020   61.6370 C   0  0  0  0  0  0  0  0  0  0  0  0
   40.2070   78.1870   60.3110 C   0  0  0  0  0  0  0  0  0  0  0  0
   40.4280   79.9930   60.0500 S   0  0  0  0  0  0  0  0  0  0  0  0
   41.2260   78.9270   63.4170 H   0  0  0  0  0  0  0  0  0  0  0  0
   40.4750   76.9650   61.9310 H   0  0  0  0  0  0  0  0  0  0  0  0
   43.0520   83.1000   62.8660 C   0  0  0  0  0  0  0  0  0  0  0  0
   42.1650   83.8790   63.6590 C   0  0  0  0  0  0  0  0  0  0  0  0
   40.8400   83.4220   63.7990 C   0  0  0  0  0  0  0  0  0  0  0  0
   40.4820   82.2750   63.1780 N   0  0  0  0  0  0  0  0  0  0  0  0
   41.3710   81.5600   62.4280 C   0  0  0  0  0  0  0  0  0  0  0  0
   42.6280   81.9850   62.2880 N   0  0  0  0  0  0  0  0  0  0  0  0
   44.0710   83.4570   62.7630 H   0  0  0  0  0  0  0  0  0  0  0  0
   42.4720   84.7880   64.1430 H   0  0  0  0  0  0  0  0  0  0  0  0
   40.1130   83.9640   64.3860 H   0  0  0  0  0  0  0  0  0  0  0  0
   37.1540   77.5330   56.6510 C   0  0  0  0  0  0  0  0  0  0  0  0
   36.0190   77.0960   56.9040 O   0  0  0  0  0  0  0  0  0  0  0  0
   37.3520   78.4930   55.5020 C   0  0  1  0  0  0  0  0  0  0  0  0
   37.3410   79.9370   55.9320 C   0  0  0  0  0  0  0  0  0  0  0  0
   38.5630   79.2960   55.4410 C   0  0  2  0  0  0  0  0  0  0  0  0
   36.5540   78.3420   54.7350 H   0  0  0  0  0  0  0  0  0  0  0  0
   37.3090   80.2000   57.0060 H   0  0  0  0  0  0  0  0  0  0  0  0
   36.8310   80.6690   55.2770 H   0  0  0  0  0  0  0  0  0  0  0  0
   39.3540   78.9860   56.1790 H   0  0  0  0  0  0  0  0  0  0  0  0
   39.1810   79.7080   54.1520 C   0  0  0  0  0  0  0  0  0  0  0  0
   40.5090   79.9280   54.3230 N   0  0  0  0  0  0  0  0  0  0  0  0
   41.2390   80.2660   53.2240 C   0  0  0  0  0  3  0  0  0  0  0  0
   40.7130   80.3900   51.9900 N   0  0  0  0  0  0  0  0  0  0  0  0
   39.4070   80.1770   51.8090 C   0  0  0  0  0  0  0  0  0  0  0  0
   38.7330   80.2830   50.5990 C   0  0  0  0  0  3  0  0  0  0  0  0
   37.3570   80.0510   50.5230 C   0  0  0  0  0  0  0  0  0  0  0  0
   36.9430   80.1620   49.5330 H   0  0  0  0  0  0  0  0  0  0  0  0
   36.6180   79.7080   51.6550 C   0  0  0  0  0  0  0  0  0  0  0  0
   35.5600   79.5480   51.5020 H   0  0  0  0  0  0  0  0  0  0  0  0
   37.2930   79.6050   52.8500 C   0  0  0  0  0  3  0  0  0  0  0  0
   38.6370   79.8340   52.8980 C   0  0  0  0  0  0  0  0  0  0  0  0
  1 12  1  0  0  0  0
  2  1  1  0  0  0  0
  2  7  1  0  0  0  0
  3  2  2  0  0  0  0
  4  5  2  0  0  0  0
  4  3  1  0  0  0  0
  5  6  1  0  0  0  0
  6  1  2  0  0  0  0
  8  3  1  0  0  0  0
  9 10  2  0  0  0  0
  9 20  1  0  0  0  0
 10 14  1  0  0  0  0
 11 15  1  0  0  0  0
 11 10  1  0  0  0  0
 12 11  2  0  0  0  0
 13 12  1  0  0  0  0
 13  9  1  0  0  0  0
 16 17  1  0  0  0  0
 17 18  2  0  0  0  0
 17 23  1  0  0  0  0
 18 24  1  0  0  0  0
 19 18  1  0  0  0  0
 20 19  2  0  0  0  0
 21 20  1  0  0  0  0
 21 16  2  0  0  0  0
 22 16  1  0  0  0  0
 25 26  2  0  0  0  0
 25  5  1  0  0  0  0
 27 30  1  6  0  0  0
 27 28  1  0  0  0  0
 27 25  1  0  0  0  0
 28 31  1  0  0  0  0
 29 27  1  0  0  0  0
 29 28  1  0  0  0  0
 29 33  1  1  0  0  0
 32 28  1  0  0  0  0
 34 35  1  0  0  0  0
 34 29  1  0  0  0  0
 36 35  2  0  0  0  0
 37 36  1  0  0  0  0
 38 37  2  0  0  0  0
 38 45  1  0  0  0  0
 39 38  1  0  0  0  0
 40 39  2  0  0  0  0
 40 42  1  0  0  0  0
 41 40  1  0  0  0  0
 42 44  2  0  0  0  0
 43 42  1  0  0  0  0
 44 45  1  0  0  0  0
 45 34  2  0  0  0  0
M  END
>  <minimizedAffinity>
-7.02532148

>  <minimizedRMSD>
0.244469672

$$$$
