
 OpenBabel03212521003D

 45 50  0  0  1  0  0  0  0  0999 V2000
   39.6620   77.1560   59.4360 C   0  0  0  0  0  0  0  0  0  0  0  0
   40.1230   75.8780   59.3830 C   0  0  0  0  0  0  0  0  0  0  0  0
   39.5530   75.1470   58.3370 C   0  0  0  0  0  0  0  0  0  0  0  0
   38.6480   75.6380   57.4700 N   0  0  0  0  0  0  0  0  0  0  0  0
   38.2500   76.9370   57.6090 C   0  0  0  0  0  0  0  0  0  0  0  0
   38.7650   77.6960   58.6030 N   0  0  0  0  0  0  0  0  0  0  0  0
   40.8460   75.4350   60.0520 H   0  0  0  0  0  0  0  0  0  0  0  0
   39.8340   74.0990   58.1740 H   0  0  0  0  0  0  0  0  0  0  0  0
   40.9750   80.1970   61.8160 C   0  0  0  0  0  0  0  0  0  0  0  0
   40.9950   78.9850   62.4640 C   0  0  0  0  0  0  0  0  0  0  0  0
   40.5820   77.9000   61.7790 C   0  0  0  0  0  0  0  0  0  0  0  0
   40.1600   78.0440   60.4690 C   0  0  0  0  0  0  0  0  0  0  0  0
   40.3500   79.8440   60.1460 S   0  0  0  0  0  0  0  0  0  0  0  0
   41.3280   78.8810   63.4970 H   0  0  0  0  0  0  0  0  0  0  0  0
   40.5220   76.8710   62.1060 H   0  0  0  0  0  0  0  0  0  0  0  0
   43.0950   83.0280   62.7780 C   0  0  0  0  0  0  0  0  0  0  0  0
   42.2270   83.8450   63.5540 C   0  0  0  0  0  0  0  0  0  0  0  0
   40.9020   83.4040   63.7330 C   0  0  0  0  0  0  0  0  0  0  0  0
   40.5250   82.2360   63.1650 N   0  0  0  0  0  0  0  0  0  0  0  0
   41.3950   81.4860   62.4280 C   0  0  0  0  0  0  0  0  0  0  0  0
   42.6530   81.8950   62.2510 N   0  0  0  0  0  0  0  0  0  0  0  0
   44.1150   83.3740   62.6430 H   0  0  0  0  0  0  0  0  0  0  0  0
   42.5500   84.7700   63.9960 H   0  0  0  0  0  0  0  0  0  0  0  0
   40.1890   83.9740   64.3120 H   0  0  0  0  0  0  0  0  0  0  0  0
   37.2820   77.4450   56.6600 C   0  0  0  0  0  0  0  0  0  0  0  0
   36.1340   76.9730   56.6970 O   0  0  0  0  0  0  0  0  0  0  0  0
   37.6270   78.5060   55.6420 C   0  0  1  0  0  0  0  0  0  0  0  0
   37.3070   79.9010   56.1140 C   0  0  0  0  0  0  0  0  0  0  0  0
   38.6910   79.4550   55.9300 C   0  0  2  0  0  0  0  0  0  0  0  0
   37.0770   78.3150   54.6890 H   0  0  0  0  0  0  0  0  0  0  0  0
   36.9700   80.0760   57.1520 H   0  0  0  0  0  0  0  0  0  0  0  0
   36.8830   80.6120   55.3790 H   0  0  0  0  0  0  0  0  0  0  0  0
   39.3060   79.1910   56.8350 H   0  0  0  0  0  0  0  0  0  0  0  0
   39.5500   80.0360   54.8630 C   0  0  0  0  0  0  0  0  0  0  0  0
   40.4430   80.9020   55.4080 N   0  0  0  0  0  0  0  0  0  0  0  0
   41.3440   81.4870   54.5700 C   0  0  0  0  0  3  0  0  0  0  0  0
   41.3910   81.2500   53.2450 N   0  0  0  0  0  0  0  0  0  0  0  0
   40.5150   80.4020   52.6970 C   0  0  0  0  0  0  0  0  0  0  0  0
   40.4420   80.0770   51.3480 C   0  0  0  0  0  3  0  0  0  0  0  0
   39.4760   79.1860   50.8780 C   0  0  0  0  0  0  0  0  0  0  0  0
   39.5150   79.0100   49.8140 H   0  0  0  0  0  0  0  0  0  0  0  0
   38.5550   78.5920   51.7440 C   0  0  0  0  0  0  0  0  0  0  0  0
   37.8440   77.9160   51.2920 H   0  0  0  0  0  0  0  0  0  0  0  0
   38.6360   78.9190   53.0780 C   0  0  0  0  0  3  0  0  0  0  0  0
   39.5890   79.7920   53.5130 C   0  0  0  0  0  0  0  0  0  0  0  0
  1 12  1  0  0  0  0
  2  1  1  0  0  0  0
  2  7  1  0  0  0  0
  3  2  2  0  0  0  0
  4  5  2  0  0  0  0
  4  3  1  0  0  0  0
  5  6  1  0  0  0  0
  6  1  2  0  0  0  0
  8  3  1  0  0  0  0
  9 20  1  0  0  0  0
  9 10  2  0  0  0  0
 10 14  1  0  0  0  0
 11 15  1  0  0  0  0
 11 10  1  0  0  0  0
 12 11  2  0  0  0  0
 13 12  1  0  0  0  0
 13  9  1  0  0  0  0
 16 17  1  0  0  0  0
 17 18  2  0  0  0  0
 17 23  1  0  0  0  0
 18 24  1  0  0  0  0
 19 18  1  0  0  0  0
 20 19  2  0  0  0  0
 21 20  1  0  0  0  0
 21 16  2  0  0  0  0
 22 16  1  0  0  0  0
 25 26  2  0  0  0  0
 25  5  1  0  0  0  0
 27 30  1  6  0  0  0
 27 29  1  0  0  0  0
 27 28  1  0  0  0  0
 27 25  1  0  0  0  0
 28 31  1  0  0  0  0
 29 28  1  0  0  0  0
 29 33  1  1  0  0  0
 32 28  1  0  0  0  0
 34 35  1  0  0  0  0
 34 29  1  0  0  0  0
 36 35  2  0  0  0  0
 37 36  1  0  0  0  0
 38 37  2  0  0  0  0
 38 45  1  0  0  0  0
 39 38  1  0  0  0  0
 40 39  2  0  0  0  0
 40 42  1  0  0  0  0
 41 40  1  0  0  0  0
 42 44  2  0  0  0  0
 43 42  1  0  0  0  0
 44 45  1  0  0  0  0
 45 34  2  0  0  0  0
M  END
>  <minimizedAffinity>
-6.90472841

>  <minimizedRMSD>
0.966268241

$$$$
