
 OpenBabel03212520593D

 45 50  0  0  1  0  0  0  0  0999 V2000
   39.7200   77.2120   59.3150 C   0  0  0  0  0  0  0  0  0  0  0  0
   40.3400   76.0210   59.1100 C   0  0  0  0  0  0  0  0  0  0  0  0
   39.7680   75.2940   58.0630 C   0  0  0  0  0  0  0  0  0  0  0  0
   38.7210   75.7140   57.3280 N   0  0  0  0  0  0  0  0  0  0  0  0
   38.1690   76.9300   57.6150 C   0  0  0  0  0  0  0  0  0  0  0  0
   38.6790   77.6800   58.6180 N   0  0  0  0  0  0  0  0  0  0  0  0
   41.1810   75.6370   59.6690 H   0  0  0  0  0  0  0  0  0  0  0  0
   40.1680   74.3110   57.7850 H   0  0  0  0  0  0  0  0  0  0  0  0
   40.9870   80.2170   61.7660 C   0  0  0  0  0  0  0  0  0  0  0  0
   41.0010   78.9950   62.3940 C   0  0  0  0  0  0  0  0  0  0  0  0
   40.6030   77.9210   61.6850 C   0  0  0  0  0  0  0  0  0  0  0  0
   40.2000   78.0850   60.3710 C   0  0  0  0  0  0  0  0  0  0  0  0
   40.3880   79.8900   60.0810 S   0  0  0  0  0  0  0  0  0  0  0  0
   41.3180   78.8750   63.4300 H   0  0  0  0  0  0  0  0  0  0  0  0
   40.5410   76.8860   61.9940 H   0  0  0  0  0  0  0  0  0  0  0  0
   43.0780   83.0480   62.7920 C   0  0  0  0  0  0  0  0  0  0  0  0
   42.2000   83.8400   63.5830 C   0  0  0  0  0  0  0  0  0  0  0  0
   40.8790   83.3830   63.7500 C   0  0  0  0  0  0  0  0  0  0  0  0
   40.5140   82.2240   63.1560 N   0  0  0  0  0  0  0  0  0  0  0  0
   41.3930   81.4980   62.4060 C   0  0  0  0  0  0  0  0  0  0  0  0
   42.6480   81.9220   62.2410 N   0  0  0  0  0  0  0  0  0  0  0  0
   44.0940   83.4060   62.6680 H   0  0  0  0  0  0  0  0  0  0  0  0
   42.5130   84.7590   64.0460 H   0  0  0  0  0  0  0  0  0  0  0  0
   40.1590   83.9350   64.3380 H   0  0  0  0  0  0  0  0  0  0  0  0
   37.0500   77.3640   56.8070 C   0  0  0  0  0  0  0  0  0  0  0  0
   35.9140   76.9920   57.1460 O   0  0  0  0  0  0  0  0  0  0  0  0
   37.2230   78.2310   55.5830 C   0  0  1  0  0  0  0  0  0  0  0  0
   37.3060   79.7000   55.9080 C   0  0  0  0  0  0  0  0  0  0  0  0
   38.4650   78.9650   55.3960 C   0  0  2  0  0  0  0  0  0  0  0  0
   36.3750   78.0680   54.8750 H   0  0  0  0  0  0  0  0  0  0  0  0
   37.3500   80.0370   56.9610 H   0  0  0  0  0  0  0  0  0  0  0  0
   36.7930   80.4100   55.2320 H   0  0  0  0  0  0  0  0  0  0  0  0
   39.2830   78.6670   56.1090 H   0  0  0  0  0  0  0  0  0  0  0  0
   39.0230   79.2550   54.0480 C   0  0  0  0  0  0  0  0  0  0  0  0
   38.2810   78.6390   53.0940 N   0  0  0  0  0  0  0  0  0  0  0  0
   38.6270   78.8450   51.7930 C   0  0  0  0  0  3  0  0  0  0  0  0
   39.6600   79.6220   51.4130 N   0  0  0  0  0  0  0  0  0  0  0  0
   40.4000   80.2340   52.3420 C   0  0  0  0  0  0  0  0  0  0  0  0
   41.4970   81.0490   52.0930 C   0  0  0  0  0  3  0  0  0  0  0  0
   42.2110   81.6290   53.1440 C   0  0  0  0  0  0  0  0  0  0  0  0
   43.0420   82.2410   52.8300 H   0  0  0  0  0  0  0  0  0  0  0  0
   41.8480   81.4100   54.4740 C   0  0  0  0  0  0  0  0  0  0  0  0
   42.4580   81.8990   55.2200 H   0  0  0  0  0  0  0  0  0  0  0  0
   40.7600   80.6010   54.7120 C   0  0  0  0  0  3  0  0  0  0  0  0
   40.0780   80.0470   53.6680 C   0  0  0  0  0  0  0  0  0  0  0  0
  1 12  1  0  0  0  0
  2  1  1  0  0  0  0
  2  7  1  0  0  0  0
  3  2  2  0  0  0  0
  4  5  2  0  0  0  0
  4  3  1  0  0  0  0
  5  6  1  0  0  0  0
  6  1  2  0  0  0  0
  8  3  1  0  0  0  0
  9 10  2  0  0  0  0
  9 20  1  0  0  0  0
 10 14  1  0  0  0  0
 11 15  1  0  0  0  0
 11 10  1  0  0  0  0
 12 11  2  0  0  0  0
 13 12  1  0  0  0  0
 13  9  1  0  0  0  0
 16 17  1  0  0  0  0
 17 18  2  0  0  0  0
 17 23  1  0  0  0  0
 18 24  1  0  0  0  0
 19 18  1  0  0  0  0
 20 19  2  0  0  0  0
 21 20  1  0  0  0  0
 21 16  2  0  0  0  0
 22 16  1  0  0  0  0
 25 26  2  0  0  0  0
 25  5  1  0  0  0  0
 27 30  1  6  0  0  0
 27 28  1  0  0  0  0
 27 25  1  0  0  0  0
 28 31  1  0  0  0  0
 29 27  1  0  0  0  0
 29 28  1  0  0  0  0
 29 33  1  1  0  0  0
 32 28  1  0  0  0  0
 34 29  1  0  0  0  0
 35 34  2  0  0  0  0
 36 35  1  0  0  0  0
 37 36  2  0  0  0  0
 37 38  1  0  0  0  0
 38 45  1  0  0  0  0
 39 38  2  0  0  0  0
 39 40  1  0  0  0  0
 40 42  2  0  0  0  0
 41 40  1  0  0  0  0
 42 44  1  0  0  0  0
 42 43  1  0  0  0  0
 45 34  1  0  0  0  0
 45 44  2  0  0  0  0
M  END
>  <minimizedAffinity>
-6.70922565

>  <minimizedRMSD>
0.715229809

$$$$
