
 OpenBabel03212521013D

 45 50  0  0  1  0  0  0  0  0999 V2000
   41.9410   74.5520   59.5290 C   0  0  0  0  0  0  0  0  0  0  0  0
   43.1800   75.0480   59.2720 C   0  0  0  0  0  0  0  0  0  0  0  0
   44.1860   74.3530   59.9480 C   0  0  0  0  0  0  0  0  0  0  0  0
   43.9680   73.3060   60.7670 N   0  0  0  0  0  0  0  0  0  0  0  0
   42.6840   72.8840   60.9580 C   0  0  0  0  0  0  0  0  0  0  0  0
   41.6670   73.5170   60.3300 N   0  0  0  0  0  0  0  0  0  0  0  0
   43.4090   75.8840   58.6260 H   0  0  0  0  0  0  0  0  0  0  0  0
   45.2370   74.6450   59.8340 H   0  0  0  0  0  0  0  0  0  0  0  0
   39.1910   76.4650   57.2010 C   0  0  0  0  0  0  0  0  0  0  0  0
   38.6390   75.9740   58.3590 C   0  0  0  0  0  0  0  0  0  0  0  0
   39.4500   75.3200   59.2140 C   0  0  0  0  0  0  0  0  0  0  0  0
   40.7890   75.1680   58.8980 C   0  0  0  0  0  0  0  0  0  0  0  0
   40.9490   76.0060   57.2700 S   0  0  0  0  0  0  0  0  0  0  0  0
   37.5830   76.0980   58.6000 H   0  0  0  0  0  0  0  0  0  0  0  0
   39.2120   74.8640   60.1660 H   0  0  0  0  0  0  0  0  0  0  0  0
   36.3690   77.7970   55.2780 C   0  0  0  0  0  0  0  0  0  0  0  0
   36.9960   78.5370   54.2380 C   0  0  0  0  0  0  0  0  0  0  0  0
   38.4030   78.5720   54.2160 C   0  0  0  0  0  0  0  0  0  0  0  0
   39.0820   77.9040   55.1770 N   0  0  0  0  0  0  0  0  0  0  0  0
   38.4360   77.2060   56.1560 C   0  0  0  0  0  0  0  0  0  0  0  0
   37.1020   77.1680   56.1850 N   0  0  0  0  0  0  0  0  0  0  0  0
   35.2850   77.7750   55.2890 H   0  0  0  0  0  0  0  0  0  0  0  0
   36.4350   79.0610   53.4850 H   0  0  0  0  0  0  0  0  0  0  0  0
   38.9450   79.1140   53.4550 H   0  0  0  0  0  0  0  0  0  0  0  0
   42.4760   71.7510   61.8350 C   0  0  0  0  0  0  0  0  0  0  0  0
   42.3730   71.9750   63.0520 O   0  0  0  0  0  0  0  0  0  0  0  0
   42.3920   70.3340   61.3210 C   0  0  1  0  0  0  0  0  0  0  0  0
   43.6480   69.8870   60.6170 C   0  0  0  0  0  0  0  0  0  0  0  0
   43.2460   69.3100   61.9030 C   0  0  2  0  0  0  0  0  0  0  0  0
   41.5310   70.2330   60.6160 H   0  0  0  0  0  0  0  0  0  0  0  0
   44.5470   70.5310   60.6150 H   0  0  0  0  0  0  0  0  0  0  0  0
   43.5390   69.2680   59.7070 H   0  0  0  0  0  0  0  0  0  0  0  0
   43.7770   69.6370   62.8400 H   0  0  0  0  0  0  0  0  0  0  0  0
   42.8250   67.8870   62.0080 C   0  0  0  0  0  0  0  0  0  0  0  0
   43.7250   67.0890   61.3790 N   0  0  0  0  0  0  0  0  0  0  0  0
   43.5160   65.7440   61.4250 C   0  0  0  0  0  3  0  0  0  0  0  0
   42.4710   65.1750   62.0570 N   0  0  0  0  0  0  0  0  0  0  0  0
   41.5780   65.9500   62.6790 C   0  0  0  0  0  0  0  0  0  0  0  0
   40.4510   65.4980   63.3560 C   0  0  0  0  0  3  0  0  0  0  0  0
   39.5710   66.4000   63.9600 C   0  0  0  0  0  0  0  0  0  0  0  0
   38.7330   65.9350   64.4560 H   0  0  0  0  0  0  0  0  0  0  0  0
   39.7930   67.7760   63.9050 C   0  0  0  0  0  0  0  0  0  0  0  0
   39.0600   68.3970   64.4010 H   0  0  0  0  0  0  0  0  0  0  0  0
   40.9110   68.2140   63.2340 C   0  0  0  0  0  3  0  0  0  0  0  0
   41.7570   67.3140   62.6530 C   0  0  0  0  0  0  0  0  0  0  0  0
  1  6  1  0  0  0  0
  2  1  2  0  0  0  0
  2  3  1  0  0  0  0
  3  4  2  0  0  0  0
  4  5  1  0  0  0  0
  5 25  1  0  0  0  0
  6  5  2  0  0  0  0
  7  2  1  0  0  0  0
  8  3  1  0  0  0  0
  9 13  1  0  0  0  0
  9 10  2  0  0  0  0
 10 14  1  0  0  0  0
 10 11  1  0  0  0  0
 11 15  1  0  0  0  0
 12 11  2  0  0  0  0
 12  1  1  0  0  0  0
 13 12  1  0  0  0  0
 16 22  1  0  0  0  0
 16 21  1  0  0  0  0
 17 16  2  0  0  0  0
 18 17  1  0  0  0  0
 18 19  2  0  0  0  0
 19 20  1  0  0  0  0
 20 21  2  0  0  0  0
 20  9  1  0  0  0  0
 23 17  1  0  0  0  0
 24 18  1  0  0  0  0
 25 26  2  0  0  0  0
 27 30  1  6  0  0  0
 27 25  1  0  0  0  0
 27 29  1  0  0  0  0
 28 27  1  0  0  0  0
 28 29  1  0  0  0  0
 29 34  1  0  0  0  0
 29 33  1  1  0  0  0
 31 28  1  0  0  0  0
 32 28  1  0  0  0  0
 34 45  1  0  0  0  0
 35 36  1  0  0  0  0
 35 34  2  0  0  0  0
 36 37  2  0  0  0  0
 37 38  1  0  0  0  0
 38 39  1  0  0  0  0
 39 40  2  0  0  0  0
 40 41  1  0  0  0  0
 42 40  1  0  0  0  0
 42 43  1  0  0  0  0
 44 42  2  0  0  0  0
 45 38  2  0  0  0  0
 45 44  1  0  0  0  0
M  END
>  <minimizedAffinity>
-8.33008671

$$$$

 OpenBabel03212521013D

 45 50  0  0  1  0  0  0  0  0999 V2000
   42.0920   74.6830   59.5150 C   0  0  0  0  0  0  0  0  0  0  0  0
   43.3460   75.1290   59.2380 C   0  0  0  0  0  0  0  0  0  0  0  0
   44.3360   74.3580   59.8520 C   0  0  0  0  0  0  0  0  0  0  0  0
   44.0910   73.2880   60.6340 N   0  0  0  0  0  0  0  0  0  0  0  0
   42.7940   72.9220   60.8500 C   0  0  0  0  0  0  0  0  0  0  0  0
   41.7910   73.6290   60.2820 N   0  0  0  0  0  0  0  0  0  0  0  0
   43.5960   75.9790   58.6200 H   0  0  0  0  0  0  0  0  0  0  0  0
   45.3960   74.6030   59.7160 H   0  0  0  0  0  0  0  0  0  0  0  0
   39.2770   76.5940   57.2650 C   0  0  0  0  0  0  0  0  0  0  0  0
   38.9040   76.4900   58.5840 C   0  0  0  0  0  0  0  0  0  0  0  0
   39.7550   75.8770   59.4300 C   0  0  0  0  0  0  0  0  0  0  0  0
   40.9540   75.3800   58.9470 C   0  0  0  0  0  0  0  0  0  0  0  0
   40.9080   75.7990   57.1580 S   0  0  0  0  0  0  0  0  0  0  0  0
   37.9580   76.8830   58.9550 H   0  0  0  0  0  0  0  0  0  0  0  0
   39.6480   75.6950   60.4910 H   0  0  0  0  0  0  0  0  0  0  0  0
   38.4010   78.5720   54.3050 C   0  0  0  0  0  0  0  0  0  0  0  0
   36.9840   78.4680   54.2440 C   0  0  0  0  0  0  0  0  0  0  0  0
   36.3410   77.7030   55.2350 C   0  0  0  0  0  0  0  0  0  0  0  0
   37.0960   77.1110   56.1880 N   0  0  0  0  0  0  0  0  0  0  0  0
   38.4550   77.2390   56.2060 C   0  0  0  0  0  0  0  0  0  0  0  0
   39.0750   77.9620   55.2710 N   0  0  0  0  0  0  0  0  0  0  0  0
   38.8900   79.1620   53.5390 H   0  0  0  0  0  0  0  0  0  0  0  0
   36.4040   78.9480   53.4760 H   0  0  0  0  0  0  0  0  0  0  0  0
   35.2670   77.5820   55.2500 H   0  0  0  0  0  0  0  0  0  0  0  0
   42.5570   71.7640   61.6860 C   0  0  0  0  0  0  0  0  0  0  0  0
   42.6530   71.9110   62.9150 O   0  0  0  0  0  0  0  0  0  0  0  0
   42.2110   70.4100   61.1140 C   0  0  1  0  0  0  0  0  0  0  0  0
   43.0390   70.0500   59.9080 C   0  0  0  0  0  0  0  0  0  0  0  0
   43.1890   69.3360   61.1780 C   0  0  2  0  0  0  0  0  0  0  0  0
   41.1310   70.3790   60.8310 H   0  0  0  0  0  0  0  0  0  0  0  0
   43.8790   70.6980   59.5930 H   0  0  0  0  0  0  0  0  0  0  0  0
   42.5350   69.5320   59.0700 H   0  0  0  0  0  0  0  0  0  0  0  0
   44.0760   69.5630   61.8330 H   0  0  0  0  0  0  0  0  0  0  0  0
   42.7960   67.9070   61.3060 C   0  0  0  0  0  0  0  0  0  0  0  0
   41.6990   67.7960   62.0980 N   0  0  0  0  0  0  0  0  0  0  0  0
   41.1740   66.5520   62.2780 C   0  0  0  0  0  3  0  0  0  0  0  0
   41.6850   65.4400   61.7140 N   0  0  0  0  0  0  0  0  0  0  0  0
   42.7650   65.5360   60.9330 C   0  0  0  0  0  0  0  0  0  0  0  0
   43.4010   64.4740   60.3020 C   0  0  0  0  0  3  0  0  0  0  0  0
   44.5360   64.6850   59.5160 C   0  0  0  0  0  0  0  0  0  0  0  0
   44.9440   63.7880   59.0760 H   0  0  0  0  0  0  0  0  0  0  0  0
   45.0680   65.9630   59.3400 C   0  0  0  0  0  0  0  0  0  0  0  0
   45.9470   66.0320   58.7160 H   0  0  0  0  0  0  0  0  0  0  0  0
   44.4320   67.0090   59.9680 C   0  0  0  0  0  3  0  0  0  0  0  0
   43.3230   66.7780   60.7290 C   0  0  0  0  0  0  0  0  0  0  0  0
  1  6  1  0  0  0  0
  2  1  2  0  0  0  0
  2  3  1  0  0  0  0
  3  4  2  0  0  0  0
  4  5  1  0  0  0  0
  5 25  1  0  0  0  0
  6  5  2  0  0  0  0
  7  2  1  0  0  0  0
  8  3  1  0  0  0  0
  9 10  2  0  0  0  0
 10 14  1  0  0  0  0
 10 11  1  0  0  0  0
 11 15  1  0  0  0  0
 12 11  2  0  0  0  0
 12  1  1  0  0  0  0
 13  9  1  0  0  0  0
 13 12  1  0  0  0  0
 16 21  1  0  0  0  0
 17 16  2  0  0  0  0
 17 18  1  0  0  0  0
 18 24  1  0  0  0  0
 18 19  2  0  0  0  0
 19 20  1  0  0  0  0
 20  9  1  0  0  0  0
 21 20  2  0  0  0  0
 22 16  1  0  0  0  0
 23 17  1  0  0  0  0
 25 26  2  0  0  0  0
 27 30  1  6  0  0  0
 27 29  1  0  0  0  0
 27 25  1  0  0  0  0
 28 27  1  0  0  0  0
 28 29  1  0  0  0  0
 29 34  1  0  0  0  0
 29 33  1  1  0  0  0
 31 28  1  0  0  0  0
 32 28  1  0  0  0  0
 34 35  1  0  0  0  0
 35 36  2  0  0  0  0
 37 36  1  0  0  0  0
 38 37  2  0  0  0  0
 39 38  1  0  0  0  0
 40 39  2  0  0  0  0
 41 40  1  0  0  0  0
 42 40  1  0  0  0  0
 42 44  2  0  0  0  0
 43 42  1  0  0  0  0
 44 45  1  0  0  0  0
 45 38  1  0  0  0  0
 45 34  2  0  0  0  0
M  END
>  <minimizedAffinity>
-7.39548922

$$$$

 OpenBabel03212521013D

 45 50  0  0  1  0  0  0  0  0999 V2000
   39.1520   76.4230   58.6020 C   0  0  0  0  0  0  0  0  0  0  0  0
   39.8280   77.5840   58.8090 C   0  0  0  0  0  0  0  0  0  0  0  0
   39.4930   78.5720   57.8800 C   0  0  0  0  0  0  0  0  0  0  0  0
   38.6010   78.4080   56.8840 N   0  0  0  0  0  0  0  0  0  0  0  0
   37.9750   77.2010   56.7610 C   0  0  0  0  0  0  0  0  0  0  0  0
   38.2580   76.2050   57.6310 N   0  0  0  0  0  0  0  0  0  0  0  0
   40.5520   77.7670   59.5900 H   0  0  0  0  0  0  0  0  0  0  0  0
   39.9620   79.5620   57.9270 H   0  0  0  0  0  0  0  0  0  0  0  0
   40.5210   73.2650   60.7910 C   0  0  0  0  0  0  0  0  0  0  0  0
   39.2150   73.5720   61.0840 C   0  0  0  0  0  0  0  0  0  0  0  0
   38.6480   74.6000   60.4230 C   0  0  0  0  0  0  0  0  0  0  0  0
   39.3910   75.3000   59.4880 C   0  0  0  0  0  0  0  0  0  0  0  0
   41.0270   74.4620   59.5190 S   0  0  0  0  0  0  0  0  0  0  0  0
   38.6370   73.0170   61.8230 H   0  0  0  0  0  0  0  0  0  0  0  0
   37.6440   74.9950   60.5090 H   0  0  0  0  0  0  0  0  0  0  0  0
   41.5760   70.7840   63.2740 C   0  0  0  0  0  0  0  0  0  0  0  0
   42.6940   70.1540   62.6610 C   0  0  0  0  0  0  0  0  0  0  0  0
   43.0720   70.5970   61.3790 C   0  0  0  0  0  0  0  0  0  0  0  0
   42.3590   71.5900   60.8010 N   0  0  0  0  0  0  0  0  0  0  0  0
   41.2920   72.1650   61.4300 C   0  0  0  0  0  0  0  0  0  0  0  0
   40.9260   71.7520   62.6440 N   0  0  0  0  0  0  0  0  0  0  0  0
   41.2900   70.4380   64.2620 H   0  0  0  0  0  0  0  0  0  0  0  0
   43.2460   69.3660   63.1410 H   0  0  0  0  0  0  0  0  0  0  0  0
   43.9120   70.1640   60.8550 H   0  0  0  0  0  0  0  0  0  0  0  0
   37.0150   77.0520   55.6890 C   0  0  0  0  0  0  0  0  0  0  0  0
   35.9640   77.7100   55.7590 O   0  0  0  0  0  0  0  0  0  0  0  0
   37.2480   76.1280   54.5160 C   0  0  1  0  0  0  0  0  0  0  0  0
   37.8550   76.8280   53.3270 C   0  0  0  0  0  0  0  0  0  0  0  0
   38.6090   75.8340   54.0970 C   0  0  2  0  0  0  0  0  0  0  0  0
   36.2840   75.6580   54.2020 H   0  0  0  0  0  0  0  0  0  0  0  0
   38.1850   77.8800   53.4070 H   0  0  0  0  0  0  0  0  0  0  0  0
   37.4920   76.5470   52.3200 H   0  0  0  0  0  0  0  0  0  0  0  0
   39.3960   76.1850   54.8210 H   0  0  0  0  0  0  0  0  0  0  0  0
   38.9930   74.5290   53.4960 C   0  0  0  0  0  0  0  0  0  0  0  0
   39.0130   74.6280   52.1420 N   0  0  0  0  0  0  0  0  0  0  0  0
   39.3970   73.5290   51.4350 C   0  0  0  0  0  3  0  0  0  0  0  0
   39.7540   72.3630   52.0080 N   0  0  0  0  0  0  0  0  0  0  0  0
   39.7370   72.2530   53.3400 C   0  0  0  0  0  0  0  0  0  0  0  0
   40.0680   71.1100   54.0580 C   0  0  0  0  0  3  0  0  0  0  0  0
   40.0020   71.0990   55.4540 C   0  0  0  0  0  0  0  0  0  0  0  0
   40.2810   70.1580   55.9030 H   0  0  0  0  0  0  0  0  0  0  0  0
   39.6040   72.2290   56.1690 C   0  0  0  0  0  0  0  0  0  0  0  0
   39.5830   72.1290   57.2450 H   0  0  0  0  0  0  0  0  0  0  0  0
   39.2800   73.3560   55.4490 C   0  0  0  0  0  3  0  0  0  0  0  0
   39.3540   73.3430   54.0870 C   0  0  0  0  0  0  0  0  0  0  0  0
  1  2  1  0  0  0  0
  1 12  1  0  0  0  0
  2  7  1  0  0  0  0
  3  8  1  0  0  0  0
  3  2  2  0  0  0  0
  4  3  1  0  0  0  0
  5  4  2  0  0  0  0
  5  6  1  0  0  0  0
  6  1  2  0  0  0  0
  9 10  2  0  0  0  0
  9 20  1  0  0  0  0
 10 14  1  0  0  0  0
 11 15  1  0  0  0  0
 11 10  1  0  0  0  0
 12 13  1  0  0  0  0
 12 11  2  0  0  0  0
 13  9  1  0  0  0  0
 16 22  1  0  0  0  0
 17 23  1  0  0  0  0
 17 16  1  0  0  0  0
 18 17  2  0  0  0  0
 19 18  1  0  0  0  0
 19 20  2  0  0  0  0
 20 21  1  0  0  0  0
 21 16  2  0  0  0  0
 24 18  1  0  0  0  0
 25 26  2  0  0  0  0
 25  5  1  0  0  0  0
 27 30  1  6  0  0  0
 27 25  1  0  0  0  0
 28 31  1  0  0  0  0
 28 29  1  0  0  0  0
 28 27  1  0  0  0  0
 29 27  1  0  0  0  0
 29 33  1  1  0  0  0
 32 28  1  0  0  0  0
 34 45  1  0  0  0  0
 34 29  1  0  0  0  0
 35 34  2  0  0  0  0
 36 37  2  0  0  0  0
 36 35  1  0  0  0  0
 37 38  1  0  0  0  0
 38 39  2  0  0  0  0
 38 45  1  0  0  0  0
 39 40  1  0  0  0  0
 40 41  1  0  0  0  0
 40 42  2  0  0  0  0
 42 43  1  0  0  0  0
 44 42  1  0  0  0  0
 45 44  2  0  0  0  0
M  END
>  <minimizedAffinity>
-7.38759708

$$$$

 OpenBabel03212521013D

 45 50  0  0  1  0  0  0  0  0999 V2000
   42.3070   73.7520   60.2660 C   0  0  0  0  0  0  0  0  0  0  0  0
   43.3750   73.8410   59.4300 C   0  0  0  0  0  0  0  0  0  0  0  0
   43.4000   75.0440   58.7200 C   0  0  0  0  0  0  0  0  0  0  0  0
   42.4760   76.0160   58.8390 N   0  0  0  0  0  0  0  0  0  0  0  0
   41.4400   75.8290   59.7080 C   0  0  0  0  0  0  0  0  0  0  0  0
   41.3620   74.6850   60.4240 N   0  0  0  0  0  0  0  0  0  0  0  0
   44.1430   73.0920   59.2970 H   0  0  0  0  0  0  0  0  0  0  0  0
   44.2070   75.2520   58.0070 H   0  0  0  0  0  0  0  0  0  0  0  0
   41.9040   70.0280   61.8820 C   0  0  0  0  0  0  0  0  0  0  0  0
   41.8410   71.0160   62.8340 C   0  0  0  0  0  0  0  0  0  0  0  0
   41.9620   72.2940   62.4220 C   0  0  0  0  0  0  0  0  0  0  0  0
   42.1420   72.5600   61.0760 C   0  0  0  0  0  0  0  0  0  0  0  0
   42.1450   70.8930   60.3010 S   0  0  0  0  0  0  0  0  0  0  0  0
   41.7000   70.7980   63.8930 H   0  0  0  0  0  0  0  0  0  0  0  0
   41.9410   73.2030   63.0080 H   0  0  0  0  0  0  0  0  0  0  0  0
   41.4650   66.9060   63.7530 C   0  0  0  0  0  0  0  0  0  0  0  0
   41.5950   65.9010   62.7560 C   0  0  0  0  0  0  0  0  0  0  0  0
   41.8310   66.3180   61.4320 C   0  0  0  0  0  0  0  0  0  0  0  0
   41.9220   67.6440   61.1780 N   0  0  0  0  0  0  0  0  0  0  0  0
   41.7900   68.5730   62.1690 C   0  0  0  0  0  0  0  0  0  0  0  0
   41.5670   68.1880   63.4270 N   0  0  0  0  0  0  0  0  0  0  0  0
   41.2840   66.5780   64.7700 H   0  0  0  0  0  0  0  0  0  0  0  0
   41.5190   64.8520   62.9820 H   0  0  0  0  0  0  0  0  0  0  0  0
   41.9400   65.6080   60.6250 H   0  0  0  0  0  0  0  0  0  0  0  0
   40.4640   76.8920   59.8250 C   0  0  0  0  0  0  0  0  0  0  0  0
   40.6290   77.7300   60.7260 O   0  0  0  0  0  0  0  0  0  0  0  0
   39.2720   77.0010   58.9050 C   0  0  1  0  0  0  0  0  0  0  0  0
   39.2460   78.2890   58.1230 C   0  0  0  0  0  0  0  0  0  0  0  0
   39.4760   77.0000   57.4650 C   0  0  2  0  0  0  0  0  0  0  0  0
   38.3260   76.9190   59.4930 H   0  0  0  0  0  0  0  0  0  0  0  0
   40.1010   78.9880   58.1710 H   0  0  0  0  0  0  0  0  0  0  0  0
   38.2680   78.7870   57.9770 H   0  0  0  0  0  0  0  0  0  0  0  0
   40.5220   76.7250   57.1520 H   0  0  0  0  0  0  0  0  0  0  0  0
   38.4790   76.4330   56.5190 C   0  0  0  0  0  0  0  0  0  0  0  0
   37.6910   75.5310   57.1590 N   0  0  0  0  0  0  0  0  0  0  0  0
   36.6860   74.9530   56.4460 C   0  0  0  0  0  3  0  0  0  0  0  0
   36.4380   75.2290   55.1500 N   0  0  0  0  0  0  0  0  0  0  0  0
   37.2070   76.1140   54.5090 C   0  0  0  0  0  0  0  0  0  0  0  0
   37.0730   76.4820   53.1750 C   0  0  0  0  0  3  0  0  0  0  0  0
   37.9430   77.4100   52.5980 C   0  0  0  0  0  0  0  0  0  0  0  0
   37.7430   77.6180   51.5580 H   0  0  0  0  0  0  0  0  0  0  0  0
   38.9720   77.9950   53.3380 C   0  0  0  0  0  0  0  0  0  0  0  0
   39.5960   78.7020   52.8090 H   0  0  0  0  0  0  0  0  0  0  0  0
   39.0970   77.6260   54.6570 C   0  0  0  0  0  3  0  0  0  0  0  0
   38.2330   76.7190   55.1990 C   0  0  0  0  0  0  0  0  0  0  0  0
  1  6  1  0  0  0  0
  1 12  1  0  0  0  0
  2  1  2  0  0  0  0
  3  4  2  0  0  0  0
  3  2  1  0  0  0  0
  4  5  1  0  0  0  0
  5 25  1  0  0  0  0
  5  6  2  0  0  0  0
  7  2  1  0  0  0  0
  8  3  1  0  0  0  0
  9 20  1  0  0  0  0
  9 10  2  0  0  0  0
 10 14  1  0  0  0  0
 11 10  1  0  0  0  0
 11 15  1  0  0  0  0
 12 11  2  0  0  0  0
 13 12  1  0  0  0  0
 13  9  1  0  0  0  0
 16 22  1  0  0  0  0
 17 23  1  0  0  0  0
 17 16  2  0  0  0  0
 18 17  1  0  0  0  0
 19 18  2  0  0  0  0
 19 20  1  0  0  0  0
 20 21  2  0  0  0  0
 21 16  1  0  0  0  0
 24 18  1  0  0  0  0
 25 26  2  0  0  0  0
 27 30  1  1  0  0  0
 27 25  1  0  0  0  0
 28 31  1  0  0  0  0
 28 27  1  0  0  0  0
 29 33  1  6  0  0  0
 29 28  1  0  0  0  0
 29 27  1  0  0  0  0
 32 28  1  0  0  0  0
 34 35  1  0  0  0  0
 34 29  1  0  0  0  0
 36 35  2  0  0  0  0
 37 36  1  0  0  0  0
 38 37  2  0  0  0  0
 38 45  1  0  0  0  0
 39 38  1  0  0  0  0
 40 39  2  0  0  0  0
 40 42  1  0  0  0  0
 41 40  1  0  0  0  0
 42 44  2  0  0  0  0
 43 42  1  0  0  0  0
 44 45  1  0  0  0  0
 45 34  2  0  0  0  0
M  END
>  <minimizedAffinity>
-7.32613611

$$$$

 OpenBabel03212521013D

 45 50  0  0  1  0  0  0  0  0999 V2000
   41.9730   74.6210   59.5540 C   0  0  0  0  0  0  0  0  0  0  0  0
   43.2420   74.9090   59.1620 C   0  0  0  0  0  0  0  0  0  0  0  0
   44.1950   74.1230   59.8150 C   0  0  0  0  0  0  0  0  0  0  0  0
   43.9040   73.1810   60.7330 N   0  0  0  0  0  0  0  0  0  0  0  0
   42.5950   72.9680   61.0570 C   0  0  0  0  0  0  0  0  0  0  0  0
   41.6260   73.6980   60.4580 N   0  0  0  0  0  0  0  0  0  0  0  0
   43.5290   75.6520   58.4320 H   0  0  0  0  0  0  0  0  0  0  0  0
   45.2620   74.2470   59.5970 H   0  0  0  0  0  0  0  0  0  0  0  0
   39.2610   76.6110   57.2450 C   0  0  0  0  0  0  0  0  0  0  0  0
   38.8670   76.5350   58.5600 C   0  0  0  0  0  0  0  0  0  0  0  0
   39.6830   75.9000   59.4240 C   0  0  0  0  0  0  0  0  0  0  0  0
   40.8690   75.3540   58.9630 C   0  0  0  0  0  0  0  0  0  0  0  0
   40.8630   75.7550   57.1690 S   0  0  0  0  0  0  0  0  0  0  0  0
   37.9310   76.9670   58.9140 H   0  0  0  0  0  0  0  0  0  0  0  0
   39.5550   75.7340   60.4850 H   0  0  0  0  0  0  0  0  0  0  0  0
   36.3920   77.7190   55.2500 C   0  0  0  0  0  0  0  0  0  0  0  0
   36.9890   78.4590   54.1930 C   0  0  0  0  0  0  0  0  0  0  0  0
   38.3920   78.5710   54.1840 C   0  0  0  0  0  0  0  0  0  0  0  0
   39.0960   77.9750   55.1730 N   0  0  0  0  0  0  0  0  0  0  0  0
   38.4780   77.2740   56.1680 C   0  0  0  0  0  0  0  0  0  0  0  0
   37.1480   77.1610   56.1860 N   0  0  0  0  0  0  0  0  0  0  0  0
   35.3110   77.6360   55.2510 H   0  0  0  0  0  0  0  0  0  0  0  0
   36.4090   78.9240   53.4170 H   0  0  0  0  0  0  0  0  0  0  0  0
   38.9120   79.1180   53.4100 H   0  0  0  0  0  0  0  0  0  0  0  0
   42.3060   71.9450   62.0390 C   0  0  0  0  0  0  0  0  0  0  0  0
   41.4510   72.1990   62.9030 O   0  0  0  0  0  0  0  0  0  0  0  0
   43.0090   70.6080   62.0460 C   0  0  1  0  0  0  0  0  0  0  0  0
   42.0850   69.4580   62.3530 C   0  0  0  0  0  0  0  0  0  0  0  0
   42.6840   69.6240   61.0260 C   0  0  2  0  0  0  0  0  0  0  0  0
   43.8350   70.6150   62.7980 H   0  0  0  0  0  0  0  0  0  0  0  0
   40.9940   69.6250   62.4350 H   0  0  0  0  0  0  0  0  0  0  0  0
   42.4650   68.6480   63.0040 H   0  0  0  0  0  0  0  0  0  0  0  0
   42.0530   70.0280   60.1860 H   0  0  0  0  0  0  0  0  0  0  0  0
   43.6850   68.6530   60.5100 C   0  0  0  0  0  0  0  0  0  0  0  0
   44.8680   69.2800   60.2830 N   0  0  0  0  0  0  0  0  0  0  0  0
   45.9130   68.5200   59.8550 C   0  0  0  0  0  3  0  0  0  0  0  0
   45.8310   67.1910   59.6470 N   0  0  0  0  0  0  0  0  0  0  0  0
   44.6720   66.5620   59.8660 C   0  0  0  0  0  0  0  0  0  0  0  0
   44.4450   65.2040   59.6810 C   0  0  0  0  0  3  0  0  0  0  0  0
   43.1860   64.6500   59.9260 C   0  0  0  0  0  0  0  0  0  0  0  0
   43.1270   63.5870   59.7490 H   0  0  0  0  0  0  0  0  0  0  0  0
   42.1200   65.4380   60.3630 C   0  0  0  0  0  0  0  0  0  0  0  0
   41.1840   64.9250   60.5270 H   0  0  0  0  0  0  0  0  0  0  0  0
   42.3550   66.7820   60.5440 C   0  0  0  0  0  3  0  0  0  0  0  0
   43.5940   67.2990   60.2990 C   0  0  0  0  0  0  0  0  0  0  0  0
  1  6  1  0  0  0  0
  2  1  2  0  0  0  0
  2  3  1  0  0  0  0
  3  4  2  0  0  0  0
  4  5  1  0  0  0  0
  5 25  1  0  0  0  0
  6  5  2  0  0  0  0
  7  2  1  0  0  0  0
  8  3  1  0  0  0  0
  9 10  2  0  0  0  0
 10 14  1  0  0  0  0
 10 11  1  0  0  0  0
 11 15  1  0  0  0  0
 12 11  2  0  0  0  0
 12  1  1  0  0  0  0
 13  9  1  0  0  0  0
 13 12  1  0  0  0  0
 16 22  1  0  0  0  0
 16 21  1  0  0  0  0
 17 16  2  0  0  0  0
 18 17  1  0  0  0  0
 18 19  2  0  0  0  0
 19 20  1  0  0  0  0
 20 21  2  0  0  0  0
 20  9  1  0  0  0  0
 23 17  1  0  0  0  0
 24 18  1  0  0  0  0
 25 27  1  0  0  0  0
 25 26  2  0  0  0  0
 27 28  1  0  0  0  0
 27 30  1  1  0  0  0
 28 31  1  0  0  0  0
 28 32  1  0  0  0  0
 29 33  1  6  0  0  0
 29 27  1  0  0  0  0
 29 28  1  0  0  0  0
 34 29  1  0  0  0  0
 35 34  2  0  0  0  0
 36 35  1  0  0  0  0
 37 36  2  0  0  0  0
 37 38  1  0  0  0  0
 38 45  1  0  0  0  0
 39 38  2  0  0  0  0
 39 40  1  0  0  0  0
 40 42  2  0  0  0  0
 41 40  1  0  0  0  0
 42 43  1  0  0  0  0
 42 44  1  0  0  0  0
 45 34  1  0  0  0  0
 45 44  2  0  0  0  0
M  END
>  <minimizedAffinity>
-7.16004038

$$$$

 OpenBabel03212521013D

 45 50  0  0  1  0  0  0  0  0999 V2000
   43.5550   71.7460   56.9810 C   0  0  0  0  0  0  0  0  0  0  0  0
   44.6530   71.5060   56.2180 C   0  0  0  0  0  0  0  0  0  0  0  0
   44.7390   70.1730   55.8060 C   0  0  0  0  0  0  0  0  0  0  0  0
   43.8400   69.2210   56.1220 N   0  0  0  0  0  0  0  0  0  0  0  0
   42.7690   69.5660   56.8950 C   0  0  0  0  0  0  0  0  0  0  0  0
   42.6310   70.8410   57.3240 N   0  0  0  0  0  0  0  0  0  0  0  0
   45.4030   72.2310   55.9370 H   0  0  0  0  0  0  0  0  0  0  0  0
   45.5760   69.8360   55.1830 H   0  0  0  0  0  0  0  0  0  0  0  0
   42.3290   75.1980   58.7750 C   0  0  0  0  0  0  0  0  0  0  0  0
   43.4230   75.3930   57.9680 C   0  0  0  0  0  0  0  0  0  0  0  0
   43.9230   74.3240   57.3180 C   0  0  0  0  0  0  0  0  0  0  0  0
   43.3250   73.0860   57.4850 C   0  0  0  0  0  0  0  0  0  0  0  0
   41.9420   73.4260   58.6480 S   0  0  0  0  0  0  0  0  0  0  0  0
   43.8880   76.3710   57.8420 H   0  0  0  0  0  0  0  0  0  0  0  0
   44.7680   74.2690   56.6440 H   0  0  0  0  0  0  0  0  0  0  0  0
   39.8680   76.8900   60.9010 C   0  0  0  0  0  0  0  0  0  0  0  0
   40.3730   78.2150   61.0030 C   0  0  0  0  0  0  0  0  0  0  0  0
   41.5750   78.5110   60.3330 C   0  0  0  0  0  0  0  0  0  0  0  0
   42.1840   77.5280   59.6300 N   0  0  0  0  0  0  0  0  0  0  0  0
   41.6600   76.2690   59.5610 C   0  0  0  0  0  0  0  0  0  0  0  0
   40.5210   75.9790   60.1930 N   0  0  0  0  0  0  0  0  0  0  0  0
   38.9420   76.6690   61.4190 H   0  0  0  0  0  0  0  0  0  0  0  0
   39.8710   78.9800   61.5680 H   0  0  0  0  0  0  0  0  0  0  0  0
   42.0160   79.4970   60.3680 H   0  0  0  0  0  0  0  0  0  0  0  0
   41.8120   68.5270   57.2130 C   0  0  0  0  0  0  0  0  0  0  0  0
   41.2450   67.9550   56.2680 O   0  0  0  0  0  0  0  0  0  0  0  0
   41.4850   68.1370   58.6350 C   0  0  1  0  0  0  0  0  0  0  0  0
   42.2900   66.9600   59.1230 C   0  0  0  0  0  0  0  0  0  0  0  0
   42.4900   68.3030   59.6720 C   0  0  2  0  0  0  0  0  0  0  0  0
   40.3990   67.8900   58.7240 H   0  0  0  0  0  0  0  0  0  0  0  0
   43.1050   66.5450   58.5020 H   0  0  0  0  0  0  0  0  0  0  0  0
   41.7770   66.2060   59.7510 H   0  0  0  0  0  0  0  0  0  0  0  0
   43.3880   68.9000   59.3470 H   0  0  0  0  0  0  0  0  0  0  0  0
   42.1350   68.6170   61.0830 C   0  0  0  0  0  0  0  0  0  0  0  0
   42.6860   69.8030   61.4480 N   0  0  0  0  0  0  0  0  0  0  0  0
   42.4150   70.2650   62.7000 C   0  0  0  0  0  3  0  0  0  0  0  0
   41.6350   69.6100   63.5820 N   0  0  0  0  0  0  0  0  0  0  0  0
   41.0880   68.4420   63.2350 C   0  0  0  0  0  0  0  0  0  0  0  0
   40.2780   67.6580   64.0470 C   0  0  0  0  0  3  0  0  0  0  0  0
   39.7680   66.4410   63.5870 C   0  0  0  0  0  0  0  0  0  0  0  0
   39.1520   65.9190   64.3040 H   0  0  0  0  0  0  0  0  0  0  0  0
   40.0540   65.9750   62.3030 C   0  0  0  0  0  0  0  0  0  0  0  0
   39.6170   65.0240   62.0340 H   0  0  0  0  0  0  0  0  0  0  0  0
   40.8560   66.7580   61.5060 C   0  0  0  0  0  3  0  0  0  0  0  0
   41.3410   67.9430   61.9770 C   0  0  0  0  0  0  0  0  0  0  0  0
  1  6  1  0  0  0  0
  1 12  1  0  0  0  0
  2  1  2  0  0  0  0
  3  4  2  0  0  0  0
  3  2  1  0  0  0  0
  4  5  1  0  0  0  0
  5 25  1  0  0  0  0
  5  6  2  0  0  0  0
  7  2  1  0  0  0  0
  8  3  1  0  0  0  0
  9 20  1  0  0  0  0
 10  9  2  0  0  0  0
 11 12  2  0  0  0  0
 11 10  1  0  0  0  0
 12 13  1  0  0  0  0
 13  9  1  0  0  0  0
 14 10  1  0  0  0  0
 15 11  1  0  0  0  0
 16 17  1  0  0  0  0
 16 22  1  0  0  0  0
 17 23  1  0  0  0  0
 18 24  1  0  0  0  0
 18 17  2  0  0  0  0
 19 18  1  0  0  0  0
 20 19  2  0  0  0  0
 20 21  1  0  0  0  0
 21 16  2  0  0  0  0
 25 27  1  0  0  0  0
 26 25  2  0  0  0  0
 27 30  1  1  0  0  0
 27 28  1  0  0  0  0
 27 29  1  0  0  0  0
 28 29  1  0  0  0  0
 28 32  1  0  0  0  0
 29 33  1  6  0  0  0
 29 34  1  0  0  0  0
 31 28  1  0  0  0  0
 34 35  2  0  0  0  0
 34 45  1  0  0  0  0
 35 36  1  0  0  0  0
 36 37  2  0  0  0  0
 38 37  1  0  0  0  0
 38 39  1  0  0  0  0
 40 39  2  0  0  0  0
 40 41  1  0  0  0  0
 42 40  1  0  0  0  0
 43 42  1  0  0  0  0
 44 45  1  0  0  0  0
 44 42  2  0  0  0  0
 45 38  2  0  0  0  0
M  END
>  <minimizedAffinity>
-7.05247641

$$$$

 OpenBabel03212521013D

 45 50  0  0  1  0  0  0  0  0999 V2000
   40.2260   71.9370   55.5080 C   0  0  0  0  0  0  0  0  0  0  0  0
   40.1640   71.2820   54.3190 C   0  0  0  0  0  0  0  0  0  0  0  0
   39.6610   72.0840   53.2920 C   0  0  0  0  0  0  0  0  0  0  0  0
   39.2760   73.3660   53.4470 N   0  0  0  0  0  0  0  0  0  0  0  0
   39.3790   73.9320   54.6850 C   0  0  0  0  0  0  0  0  0  0  0  0
   39.8590   73.2050   55.7190 N   0  0  0  0  0  0  0  0  0  0  0  0
   40.4590   70.2580   54.1410 H   0  0  0  0  0  0  0  0  0  0  0  0
   39.5550   71.6860   52.2750 H   0  0  0  0  0  0  0  0  0  0  0  0
   41.4410   70.5950   59.1640 C   0  0  0  0  0  0  0  0  0  0  0  0
   41.6610   69.6690   58.1720 C   0  0  0  0  0  0  0  0  0  0  0  0
   41.3000   69.9980   56.9160 C   0  0  0  0  0  0  0  0  0  0  0  0
   40.7300   71.2360   56.6740 C   0  0  0  0  0  0  0  0  0  0  0  0
   40.6860   72.0250   58.3340 S   0  0  0  0  0  0  0  0  0  0  0  0
   42.1090   68.6960   58.3720 H   0  0  0  0  0  0  0  0  0  0  0  0
   41.3880   69.4160   56.0080 H   0  0  0  0  0  0  0  0  0  0  0  0
   42.4310   68.9120   62.2670 C   0  0  0  0  0  0  0  0  0  0  0  0
   42.3890   69.9520   63.2360 C   0  0  0  0  0  0  0  0  0  0  0  0
   42.0190   71.2380   62.8000 C   0  0  0  0  0  0  0  0  0  0  0  0
   41.7240   71.4190   61.4920 N   0  0  0  0  0  0  0  0  0  0  0  0
   41.7780   70.3890   60.5980 C   0  0  0  0  0  0  0  0  0  0  0  0
   42.1280   69.1660   61.0010 N   0  0  0  0  0  0  0  0  0  0  0  0
   42.7170   67.9240   62.6090 H   0  0  0  0  0  0  0  0  0  0  0  0
   42.6270   69.7840   64.2710 H   0  0  0  0  0  0  0  0  0  0  0  0
   41.9650   72.0740   63.4830 H   0  0  0  0  0  0  0  0  0  0  0  0
   38.9680   75.3130   54.8250 C   0  0  0  0  0  0  0  0  0  0  0  0
   38.7250   75.9510   53.7870 O   0  0  0  0  0  0  0  0  0  0  0  0
   38.8370   75.9860   56.1700 C   0  0  1  0  0  0  0  0  0  0  0  0
   37.4120   76.3230   56.5250 C   0  0  0  0  0  0  0  0  0  0  0  0
   38.1580   75.2940   57.2540 C   0  0  2  0  0  0  0  0  0  0  0  0
   39.4430   76.9250   56.1890 H   0  0  0  0  0  0  0  0  0  0  0  0
   36.5800   75.9800   55.8820 H   0  0  0  0  0  0  0  0  0  0  0  0
   37.2180   77.2890   57.0300 H   0  0  0  0  0  0  0  0  0  0  0  0
   37.9450   74.2090   57.0400 H   0  0  0  0  0  0  0  0  0  0  0  0
   38.5340   75.4840   58.6800 C   0  0  0  0  0  0  0  0  0  0  0  0
   38.1020   74.4300   59.4190 N   0  0  0  0  0  0  0  0  0  0  0  0
   38.4110   74.4200   60.7450 C   0  0  0  0  0  3  0  0  0  0  0  0
   39.1160   75.3950   61.3520 N   0  0  0  0  0  0  0  0  0  0  0  0
   39.5460   76.4390   60.6360 C   0  0  0  0  0  0  0  0  0  0  0  0
   40.2690   77.5160   61.1340 C   0  0  0  0  0  3  0  0  0  0  0  0
   40.6570   78.5650   60.2970 C   0  0  0  0  0  0  0  0  0  0  0  0
   41.2130   79.3450   60.7930 H   0  0  0  0  0  0  0  0  0  0  0  0
   40.3330   78.5660   58.9400 C   0  0  0  0  0  0  0  0  0  0  0  0
   40.6750   79.4180   58.3690 H   0  0  0  0  0  0  0  0  0  0  0  0
   39.6180   77.4950   58.4550 C   0  0  0  0  0  3  0  0  0  0  0  0
   39.2520   76.4810   59.2920 C   0  0  0  0  0  0  0  0  0  0  0  0
  1  6  1  0  0  0  0
  1 12  1  0  0  0  0
  2  1  2  0  0  0  0
  3  4  2  0  0  0  0
  3  2  1  0  0  0  0
  4  5  1  0  0  0  0
  5 25  1  0  0  0  0
  5  6  2  0  0  0  0
  7  2  1  0  0  0  0
  8  3  1  0  0  0  0
  9 20  1  0  0  0  0
 10 14  1  0  0  0  0
 10  9  2  0  0  0  0
 11 10  1  0  0  0  0
 12 11  2  0  0  0  0
 12 13  1  0  0  0  0
 13  9  1  0  0  0  0
 15 11  1  0  0  0  0
 16 22  1  0  0  0  0
 16 17  1  0  0  0  0
 17 23  1  0  0  0  0
 18 17  2  0  0  0  0
 18 24  1  0  0  0  0
 19 18  1  0  0  0  0
 20 21  1  0  0  0  0
 20 19  2  0  0  0  0
 21 16  2  0  0  0  0
 25 27  1  0  0  0  0
 26 25  2  0  0  0  0
 27 30  1  1  0  0  0
 27 28  1  0  0  0  0
 27 29  1  0  0  0  0
 28 32  1  0  0  0  0
 28 29  1  0  0  0  0
 29 33  1  6  0  0  0
 29 34  1  0  0  0  0
 31 28  1  0  0  0  0
 34 45  2  0  0  0  0
 34 35  1  0  0  0  0
 35 36  2  0  0  0  0
 36 37  1  0  0  0  0
 38 39  1  0  0  0  0
 38 37  2  0  0  0  0
 40 41  1  0  0  0  0
 40 39  2  0  0  0  0
 42 40  1  0  0  0  0
 43 42  1  0  0  0  0
 44 42  2  0  0  0  0
 44 45  1  0  0  0  0
 45 38  1  0  0  0  0
M  END
>  <minimizedAffinity>
-7.00628233

$$$$

 OpenBabel03212521013D

 45 50  0  0  1  0  0  0  0  0999 V2000
   40.3620   71.3430   55.3410 C   0  0  0  0  0  0  0  0  0  0  0  0
   40.4520   70.2480   54.5420 C   0  0  0  0  0  0  0  0  0  0  0  0
   41.0760   69.1720   55.1790 C   0  0  0  0  0  0  0  0  0  0  0  0
   41.5420   69.2010   56.4420 N   0  0  0  0  0  0  0  0  0  0  0  0
   41.4020   70.3530   57.1620 C   0  0  0  0  0  0  0  0  0  0  0  0
   40.8050   71.4290   56.6000 N   0  0  0  0  0  0  0  0  0  0  0  0
   40.0960   70.1710   53.5250 H   0  0  0  0  0  0  0  0  0  0  0  0
   41.2170   68.2200   54.6520 H   0  0  0  0  0  0  0  0  0  0  0  0
   38.4580   74.8770   54.6130 C   0  0  0  0  0  0  0  0  0  0  0  0
   38.8860   74.2710   53.4570 C   0  0  0  0  0  0  0  0  0  0  0  0
   39.5300   73.0930   53.5670 C   0  0  0  0  0  0  0  0  0  0  0  0
   39.7360   72.5450   54.8220 C   0  0  0  0  0  0  0  0  0  0  0  0
   38.9670   73.7670   55.9600 S   0  0  0  0  0  0  0  0  0  0  0  0
   38.7210   74.7090   52.4730 H   0  0  0  0  0  0  0  0  0  0  0  0
   39.9410   72.4650   52.7880 H   0  0  0  0  0  0  0  0  0  0  0  0
   36.2790   77.6530   53.6220 C   0  0  0  0  0  0  0  0  0  0  0  0
   36.3970   78.5700   54.7020 C   0  0  0  0  0  0  0  0  0  0  0  0
   37.2340   78.2120   55.7760 C   0  0  0  0  0  0  0  0  0  0  0  0
   37.8790   77.0240   55.7250 N   0  0  0  0  0  0  0  0  0  0  0  0
   37.7350   76.1760   54.6660 C   0  0  0  0  0  0  0  0  0  0  0  0
   36.9430   76.5060   53.6430 N   0  0  0  0  0  0  0  0  0  0  0  0
   35.6330   77.9350   52.7980 H   0  0  0  0  0  0  0  0  0  0  0  0
   35.8740   79.5100   54.7200 H   0  0  0  0  0  0  0  0  0  0  0  0
   37.3710   78.8610   56.6290 H   0  0  0  0  0  0  0  0  0  0  0  0
   41.9020   70.3580   58.5200 C   0  0  0  0  0  0  0  0  0  0  0  0
   42.7610   69.5140   58.8220 O   0  0  0  0  0  0  0  0  0  0  0  0
   41.4100   71.3360   59.5600 C   0  0  1  0  0  0  0  0  0  0  0  0
   42.5270   71.9740   60.3440 C   0  0  0  0  0  0  0  0  0  0  0  0
   41.7090   72.7510   59.4100 C   0  0  2  0  0  0  0  0  0  0  0  0
   40.7200   70.8220   60.2730 H   0  0  0  0  0  0  0  0  0  0  0  0
   43.5810   71.7960   60.0600 H   0  0  0  0  0  0  0  0  0  0  0  0
   42.3760   72.1290   61.4300 H   0  0  0  0  0  0  0  0  0  0  0  0
   42.1360   73.0230   58.4040 H   0  0  0  0  0  0  0  0  0  0  0  0
   40.7910   73.8160   59.8960 C   0  0  0  0  0  0  0  0  0  0  0  0
   39.6710   73.2580   60.4240 N   0  0  0  0  0  0  0  0  0  0  0  0
   38.7440   74.0960   60.9640 C   0  0  0  0  0  3  0  0  0  0  0  0
   38.8830   75.4360   61.0000 N   0  0  0  0  0  0  0  0  0  0  0  0
   39.9800   75.9970   60.4830 C   0  0  0  0  0  0  0  0  0  0  0  0
   40.2460   77.3600   60.4420 C   0  0  0  0  0  3  0  0  0  0  0  0
   41.4220   77.8420   59.8620 C   0  0  0  0  0  0  0  0  0  0  0  0
   41.5210   78.9160   59.8880 H   0  0  0  0  0  0  0  0  0  0  0  0
   42.3650   76.9750   59.3090 C   0  0  0  0  0  0  0  0  0  0  0  0
   43.2450   77.4360   58.8830 H   0  0  0  0  0  0  0  0  0  0  0  0
   42.0940   75.6270   59.3550 C   0  0  0  0  0  3  0  0  0  0  0  0
   40.9390   75.1800   59.9280 C   0  0  0  0  0  0  0  0  0  0  0  0
  1  6  1  0  0  0  0
  2  3  1  0  0  0  0
  2  1  2  0  0  0  0
  3  4  2  0  0  0  0
  4  5  1  0  0  0  0
  5 25  1  0  0  0  0
  6  5  2  0  0  0  0
  7  2  1  0  0  0  0
  8  3  1  0  0  0  0
  9 20  1  0  0  0  0
  9 13  1  0  0  0  0
 10 11  1  0  0  0  0
 10  9  2  0  0  0  0
 11 12  2  0  0  0  0
 12  1  1  0  0  0  0
 12 13  1  0  0  0  0
 14 10  1  0  0  0  0
 15 11  1  0  0  0  0
 16 21  2  0  0  0  0
 16 17  1  0  0  0  0
 17 23  1  0  0  0  0
 17 18  2  0  0  0  0
 18 24  1  0  0  0  0
 19 18  1  0  0  0  0
 20 19  2  0  0  0  0
 21 20  1  0  0  0  0
 22 16  1  0  0  0  0
 25 26  2  0  0  0  0
 25 27  1  0  0  0  0
 27 30  1  1  0  0  0
 27 28  1  0  0  0  0
 28 32  1  0  0  0  0
 29 33  1  6  0  0  0
 29 27  1  0  0  0  0
 29 34  1  0  0  0  0
 29 28  1  0  0  0  0
 31 28  1  0  0  0  0
 34 45  2  0  0  0  0
 34 35  1  0  0  0  0
 35 36  2  0  0  0  0
 36 37  1  0  0  0  0
 38 37  2  0  0  0  0
 39 38  1  0  0  0  0
 40 41  1  0  0  0  0
 40 39  2  0  0  0  0
 42 44  2  0  0  0  0
 42 40  1  0  0  0  0
 43 42  1  0  0  0  0
 44 45  1  0  0  0  0
 45 38  1  0  0  0  0
M  END
>  <minimizedAffinity>
-6.95041132

$$$$

 OpenBabel03212521013D

 45 50  0  0  1  0  0  0  0  0999 V2000
   41.5200   72.8100   58.8590 C   0  0  0  0  0  0  0  0  0  0  0  0
   42.6730   72.6440   58.1590 C   0  0  0  0  0  0  0  0  0  0  0  0
   43.7300   72.2110   58.9640 C   0  0  0  0  0  0  0  0  0  0  0  0
   43.6330   71.9780   60.2870 N   0  0  0  0  0  0  0  0  0  0  0  0
   42.4280   72.1750   60.8960 C   0  0  0  0  0  0  0  0  0  0  0  0
   41.3660   72.5950   60.1700 N   0  0  0  0  0  0  0  0  0  0  0  0
   42.8050   72.8160   57.1000 H   0  0  0  0  0  0  0  0  0  0  0  0
   44.7230   72.0350   58.5310 H   0  0  0  0  0  0  0  0  0  0  0  0
   38.6230   74.6120   56.6220 C   0  0  0  0  0  0  0  0  0  0  0  0
   38.1480   73.5170   57.3030 C   0  0  0  0  0  0  0  0  0  0  0  0
   39.0130   72.8360   58.0790 C   0  0  0  0  0  0  0  0  0  0  0  0
   40.3290   73.2570   58.1610 C   0  0  0  0  0  0  0  0  0  0  0  0
   40.3820   74.7320   57.0660 S   0  0  0  0  0  0  0  0  0  0  0  0
   37.1100   73.1920   57.2320 H   0  0  0  0  0  0  0  0  0  0  0  0
   38.8380   71.9570   58.6860 H   0  0  0  0  0  0  0  0  0  0  0  0
   36.9960   75.8580   53.5830 C   0  0  0  0  0  0  0  0  0  0  0  0
   36.3190   77.0280   54.0250 C   0  0  0  0  0  0  0  0  0  0  0  0
   36.4300   77.3740   55.3850 C   0  0  0  0  0  0  0  0  0  0  0  0
   37.1690   76.5830   56.1960 N   0  0  0  0  0  0  0  0  0  0  0  0
   37.8020   75.4690   55.7260 C   0  0  0  0  0  0  0  0  0  0  0  0
   37.7030   75.1320   54.4380 N   0  0  0  0  0  0  0  0  0  0  0  0
   36.9060   75.5970   52.5350 H   0  0  0  0  0  0  0  0  0  0  0  0
   35.7360   77.6420   53.3610 H   0  0  0  0  0  0  0  0  0  0  0  0
   35.9420   78.2500   55.7890 H   0  0  0  0  0  0  0  0  0  0  0  0
   42.3450   71.9110   62.3170 C   0  0  0  0  0  0  0  0  0  0  0  0
   41.9820   72.8400   63.0570 O   0  0  0  0  0  0  0  0  0  0  0  0
   42.6900   70.5660   62.9120 C   0  0  1  0  0  0  0  0  0  0  0  0
   41.4750   69.7420   63.2480 C   0  0  0  0  0  0  0  0  0  0  0  0
   42.3850   69.3550   62.1670 C   0  0  2  0  0  0  0  0  0  0  0  0
   43.2990   70.7030   63.8390 H   0  0  0  0  0  0  0  0  0  0  0  0
   40.4660   70.0880   62.9560 H   0  0  0  0  0  0  0  0  0  0  0  0
   41.4920   69.1520   64.1850 H   0  0  0  0  0  0  0  0  0  0  0  0
   42.0780   69.5400   61.1000 H   0  0  0  0  0  0  0  0  0  0  0  0
   43.2190   68.1270   62.2670 C   0  0  0  0  0  0  0  0  0  0  0  0
   44.1200   68.2580   63.2740 N   0  0  0  0  0  0  0  0  0  0  0  0
   44.9320   67.1970   63.5360 C   0  0  0  0  0  3  0  0  0  0  0  0
   44.8840   66.0370   62.8530 N   0  0  0  0  0  0  0  0  0  0  0  0
   44.0020   65.8960   61.8590 C   0  0  0  0  0  0  0  0  0  0  0  0
   43.8530   64.7640   61.0670 C   0  0  0  0  0  3  0  0  0  0  0  0
   42.9060   64.7280   60.0410 C   0  0  0  0  0  0  0  0  0  0  0  0
   42.8800   63.7980   59.4930 H   0  0  0  0  0  0  0  0  0  0  0  0
   42.0800   65.8220   59.7790 C   0  0  0  0  0  0  0  0  0  0  0  0
   41.3770   65.7050   58.9670 H   0  0  0  0  0  0  0  0  0  0  0  0
   42.2330   66.9380   60.5680 C   0  0  0  0  0  3  0  0  0  0  0  0
   43.1650   66.9490   61.5660 C   0  0  0  0  0  0  0  0  0  0  0  0
  1  6  1  0  0  0  0
  2  1  2  0  0  0  0
  2  3  1  0  0  0  0
  3  4  2  0  0  0  0
  4  5  1  0  0  0  0
  5 25  1  0  0  0  0
  6  5  2  0  0  0  0
  7  2  1  0  0  0  0
  8  3  1  0  0  0  0
  9 13  1  0  0  0  0
  9 10  2  0  0  0  0
 10 11  1  0  0  0  0
 11 12  2  0  0  0  0
 11 15  1  0  0  0  0
 12  1  1  0  0  0  0
 13 12  1  0  0  0  0
 14 10  1  0  0  0  0
 16 17  2  0  0  0  0
 16 21  1  0  0  0  0
 17 18  1  0  0  0  0
 18 24  1  0  0  0  0
 18 19  2  0  0  0  0
 20 19  1  0  0  0  0
 20  9  1  0  0  0  0
 21 20  2  0  0  0  0
 22 16  1  0  0  0  0
 23 17  1  0  0  0  0
 25 27  1  0  0  0  0
 25 26  2  0  0  0  0
 27 28  1  0  0  0  0
 27 30  1  1  0  0  0
 28 32  1  0  0  0  0
 29 33  1  6  0  0  0
 29 34  1  0  0  0  0
 29 27  1  0  0  0  0
 29 28  1  0  0  0  0
 31 28  1  0  0  0  0
 34 35  1  0  0  0  0
 35 36  2  0  0  0  0
 37 36  1  0  0  0  0
 38 37  2  0  0  0  0
 39 38  1  0  0  0  0
 40 39  2  0  0  0  0
 41 40  1  0  0  0  0
 42 40  1  0  0  0  0
 42 44  2  0  0  0  0
 43 42  1  0  0  0  0
 44 45  1  0  0  0  0
 45 38  1  0  0  0  0
 45 34  2  0  0  0  0
M  END
>  <minimizedAffinity>
-6.92011213

$$$$
