
 OpenBabel03212520593D

 45 50  0  0  1  0  0  0  0  0999 V2000
   39.7210   77.2120   59.3160 C   0  0  0  0  0  0  0  0  0  0  0  0
   40.3410   76.0200   59.1100 C   0  0  0  0  0  0  0  0  0  0  0  0
   39.7690   75.2930   58.0630 C   0  0  0  0  0  0  0  0  0  0  0  0
   38.7210   75.7140   57.3280 N   0  0  0  0  0  0  0  0  0  0  0  0
   38.1700   76.9290   57.6150 C   0  0  0  0  0  0  0  0  0  0  0  0
   38.6790   77.6790   58.6190 N   0  0  0  0  0  0  0  0  0  0  0  0
   41.1820   75.6370   59.6690 H   0  0  0  0  0  0  0  0  0  0  0  0
   40.1690   74.3110   57.7850 H   0  0  0  0  0  0  0  0  0  0  0  0
   40.9870   80.2170   61.7660 C   0  0  0  0  0  0  0  0  0  0  0  0
   41.0000   78.9950   62.3950 C   0  0  0  0  0  0  0  0  0  0  0  0
   40.6020   77.9210   61.6860 C   0  0  0  0  0  0  0  0  0  0  0  0
   40.2000   78.0850   60.3710 C   0  0  0  0  0  0  0  0  0  0  0  0
   40.3890   79.8900   60.0810 S   0  0  0  0  0  0  0  0  0  0  0  0
   41.3170   78.8750   63.4310 H   0  0  0  0  0  0  0  0  0  0  0  0
   40.5390   76.8860   61.9950 H   0  0  0  0  0  0  0  0  0  0  0  0
   43.0780   83.0480   62.7920 C   0  0  0  0  0  0  0  0  0  0  0  0
   42.2010   83.8400   63.5820 C   0  0  0  0  0  0  0  0  0  0  0  0
   40.8790   83.3830   63.7500 C   0  0  0  0  0  0  0  0  0  0  0  0
   40.5150   82.2240   63.1560 N   0  0  0  0  0  0  0  0  0  0  0  0
   41.3940   81.4970   62.4060 C   0  0  0  0  0  0  0  0  0  0  0  0
   42.6480   81.9220   62.2410 N   0  0  0  0  0  0  0  0  0  0  0  0
   44.0940   83.4060   62.6670 H   0  0  0  0  0  0  0  0  0  0  0  0
   42.5130   84.7590   64.0450 H   0  0  0  0  0  0  0  0  0  0  0  0
   40.1600   83.9350   64.3380 H   0  0  0  0  0  0  0  0  0  0  0  0
   37.0500   77.3630   56.8070 C   0  0  0  0  0  0  0  0  0  0  0  0
   35.9150   76.9910   57.1460 O   0  0  0  0  0  0  0  0  0  0  0  0
   37.2240   78.2310   55.5830 C   0  0  1  0  0  0  0  0  0  0  0  0
   37.3060   79.6990   55.9080 C   0  0  0  0  0  0  0  0  0  0  0  0
   38.4650   78.9640   55.3960 C   0  0  2  0  0  0  0  0  0  0  0  0
   36.3750   78.0670   54.8750 H   0  0  0  0  0  0  0  0  0  0  0  0
   37.3510   80.0360   56.9610 H   0  0  0  0  0  0  0  0  0  0  0  0
   36.7930   80.4100   55.2320 H   0  0  0  0  0  0  0  0  0  0  0  0
   39.2840   78.6660   56.1090 H   0  0  0  0  0  0  0  0  0  0  0  0
   39.0240   79.2550   54.0480 C   0  0  0  0  0  0  0  0  0  0  0  0
   38.2810   78.6380   53.0940 N   0  0  0  0  0  0  0  0  0  0  0  0
   38.6270   78.8440   51.7930 C   0  0  0  0  0  3  0  0  0  0  0  0
   39.6600   79.6210   51.4130 N   0  0  0  0  0  0  0  0  0  0  0  0
   40.4000   80.2340   52.3420 C   0  0  0  0  0  0  0  0  0  0  0  0
   41.4970   81.0490   52.0930 C   0  0  0  0  0  3  0  0  0  0  0  0
   42.2110   81.6290   53.1430 C   0  0  0  0  0  0  0  0  0  0  0  0
   43.0410   82.2420   52.8300 H   0  0  0  0  0  0  0  0  0  0  0  0
   41.8480   81.4100   54.4740 C   0  0  0  0  0  0  0  0  0  0  0  0
   42.4580   81.8990   55.2200 H   0  0  0  0  0  0  0  0  0  0  0  0
   40.7600   80.6010   54.7120 C   0  0  0  0  0  3  0  0  0  0  0  0
   40.0780   80.0470   53.6680 C   0  0  0  0  0  0  0  0  0  0  0  0
  1 12  1  0  0  0  0
  2  1  1  0  0  0  0
  2  7  1  0  0  0  0
  3  2  2  0  0  0  0
  4  5  2  0  0  0  0
  4  3  1  0  0  0  0
  5  6  1  0  0  0  0
  6  1  2  0  0  0  0
  8  3  1  0  0  0  0
  9 10  2  0  0  0  0
  9 20  1  0  0  0  0
 10 14  1  0  0  0  0
 11 15  1  0  0  0  0
 11 10  1  0  0  0  0
 12 11  2  0  0  0  0
 13 12  1  0  0  0  0
 13  9  1  0  0  0  0
 16 17  1  0  0  0  0
 17 18  2  0  0  0  0
 17 23  1  0  0  0  0
 18 24  1  0  0  0  0
 19 18  1  0  0  0  0
 20 19  2  0  0  0  0
 21 20  1  0  0  0  0
 21 16  2  0  0  0  0
 22 16  1  0  0  0  0
 25 26  2  0  0  0  0
 25  5  1  0  0  0  0
 27 30  1  6  0  0  0
 27 28  1  0  0  0  0
 27 25  1  0  0  0  0
 28 31  1  0  0  0  0
 29 27  1  0  0  0  0
 29 28  1  0  0  0  0
 29 33  1  1  0  0  0
 32 28  1  0  0  0  0
 34 29  1  0  0  0  0
 35 34  2  0  0  0  0
 36 35  1  0  0  0  0
 37 36  2  0  0  0  0
 37 38  1  0  0  0  0
 38 45  1  0  0  0  0
 39 38  2  0  0  0  0
 39 40  1  0  0  0  0
 40 42  2  0  0  0  0
 41 40  1  0  0  0  0
 42 44  1  0  0  0  0
 42 43  1  0  0  0  0
 45 34  1  0  0  0  0
 45 44  2  0  0  0  0
M  END
>  <minimizedAffinity>
-6.7092762

>  <minimizedRMSD>
0.475934029

$$$$
