
 OpenBabel03212520593D

 45 50  0  0  1  0  0  0  0  0999 V2000
   39.6990   77.2270   59.3590 C   0  0  0  0  0  0  0  0  0  0  0  0
   40.2380   75.9870   59.2240 C   0  0  0  0  0  0  0  0  0  0  0  0
   39.6650   75.2650   58.1740 C   0  0  0  0  0  0  0  0  0  0  0  0
   38.6870   75.7330   57.3740 N   0  0  0  0  0  0  0  0  0  0  0  0
   38.2130   76.9940   57.5930 C   0  0  0  0  0  0  0  0  0  0  0  0
   38.7280   77.7420   58.5950 N   0  0  0  0  0  0  0  0  0  0  0  0
   41.0210   75.5640   59.8360 H   0  0  0  0  0  0  0  0  0  0  0  0
   40.0040   74.2460   57.9490 H   0  0  0  0  0  0  0  0  0  0  0  0
   40.9850   80.2360   61.7940 C   0  0  0  0  0  0  0  0  0  0  0  0
   41.0220   79.0120   62.4180 C   0  0  0  0  0  0  0  0  0  0  0  0
   40.6200   77.9360   61.7130 C   0  0  0  0  0  0  0  0  0  0  0  0
   40.1910   78.1000   60.4070 C   0  0  0  0  0  0  0  0  0  0  0  0
   40.3570   79.9080   60.1200 S   0  0  0  0  0  0  0  0  0  0  0  0
   41.3610   78.8920   63.4470 H   0  0  0  0  0  0  0  0  0  0  0  0
   40.5730   76.8990   62.0200 H   0  0  0  0  0  0  0  0  0  0  0  0
   43.0790   83.0650   62.8180 C   0  0  0  0  0  0  0  0  0  0  0  0
   42.2000   83.8630   63.6000 C   0  0  0  0  0  0  0  0  0  0  0  0
   40.8760   83.4120   63.7620 C   0  0  0  0  0  0  0  0  0  0  0  0
   40.5110   82.2510   63.1710 N   0  0  0  0  0  0  0  0  0  0  0  0
   41.3920   81.5180   62.4300 C   0  0  0  0  0  0  0  0  0  0  0  0
   42.6490   81.9370   62.2700 N   0  0  0  0  0  0  0  0  0  0  0  0
   44.0970   83.4180   62.6980 H   0  0  0  0  0  0  0  0  0  0  0  0
   42.5130   84.7830   64.0600 H   0  0  0  0  0  0  0  0  0  0  0  0
   40.1550   83.9680   64.3430 H   0  0  0  0  0  0  0  0  0  0  0  0
   37.1680   77.4780   56.7160 C   0  0  0  0  0  0  0  0  0  0  0  0
   36.0300   77.0030   56.8580 O   0  0  0  0  0  0  0  0  0  0  0  0
   37.4230   78.5160   55.6490 C   0  0  1  0  0  0  0  0  0  0  0  0
   37.2430   79.9270   56.1450 C   0  0  0  0  0  0  0  0  0  0  0  0
   38.5630   79.4090   55.7780 C   0  0  2  0  0  0  0  0  0  0  0  0
   36.7370   78.3500   54.7830 H   0  0  0  0  0  0  0  0  0  0  0  0
   37.0610   80.1230   57.2190 H   0  0  0  0  0  0  0  0  0  0  0  0
   36.7570   80.6570   55.4690 H   0  0  0  0  0  0  0  0  0  0  0  0
   39.2830   79.1170   56.5920 H   0  0  0  0  0  0  0  0  0  0  0  0
   39.2950   79.9420   54.5970 C   0  0  0  0  0  0  0  0  0  0  0  0
   40.4510   80.5320   54.9950 N   0  0  0  0  0  0  0  0  0  0  0  0
   41.2710   81.0300   54.0280 C   0  0  0  0  0  3  0  0  0  0  0  0
   40.9920   80.9650   52.7110 N   0  0  0  0  0  0  0  0  0  0  0  0
   39.8570   80.3880   52.3080 C   0  0  0  0  0  0  0  0  0  0  0  0
   39.4400   80.2650   50.9870 C   0  0  0  0  0  3  0  0  0  0  0  0
   38.2230   79.6540   50.6750 C   0  0  0  0  0  0  0  0  0  0  0  0
   38.0040   79.6160   49.6200 H   0  0  0  0  0  0  0  0  0  0  0  0
   37.3890   79.1490   51.6740 C   0  0  0  0  0  0  0  0  0  0  0  0
   36.4680   78.6930   51.3410 H   0  0  0  0  0  0  0  0  0  0  0  0
   37.8100   79.2740   52.9780 C   0  0  0  0  0  3  0  0  0  0  0  0
   39.0030   79.8730   53.2580 C   0  0  0  0  0  0  0  0  0  0  0  0
  1 12  1  0  0  0  0
  2  1  1  0  0  0  0
  2  7  1  0  0  0  0
  3  2  2  0  0  0  0
  4  5  2  0  0  0  0
  4  3  1  0  0  0  0
  5  6  1  0  0  0  0
  6  1  2  0  0  0  0
  8  3  1  0  0  0  0
  9 10  2  0  0  0  0
  9 20  1  0  0  0  0
 10 14  1  0  0  0  0
 11 15  1  0  0  0  0
 11 10  1  0  0  0  0
 12 11  2  0  0  0  0
 13 12  1  0  0  0  0
 13  9  1  0  0  0  0
 16 17  1  0  0  0  0
 17 18  2  0  0  0  0
 17 23  1  0  0  0  0
 18 24  1  0  0  0  0
 19 18  1  0  0  0  0
 20 19  2  0  0  0  0
 21 20  1  0  0  0  0
 21 16  2  0  0  0  0
 22 16  1  0  0  0  0
 25 26  2  0  0  0  0
 25  5  1  0  0  0  0
 27 30  1  6  0  0  0
 27 29  1  0  0  0  0
 27 28  1  0  0  0  0
 27 25  1  0  0  0  0
 28 31  1  0  0  0  0
 29 28  1  0  0  0  0
 29 33  1  1  0  0  0
 32 28  1  0  0  0  0
 34 35  1  0  0  0  0
 34 29  1  0  0  0  0
 36 35  2  0  0  0  0
 37 36  1  0  0  0  0
 38 37  2  0  0  0  0
 38 45  1  0  0  0  0
 39 38  1  0  0  0  0
 40 39  2  0  0  0  0
 40 42  1  0  0  0  0
 41 40  1  0  0  0  0
 42 44  2  0  0  0  0
 43 42  1  0  0  0  0
 44 45  1  0  0  0  0
 45 34  2  0  0  0  0
M  END
>  <minimizedAffinity>
-6.93491316

>  <minimizedRMSD>
0.631516576

$$$$
