
 OpenBabel03212520593D

 45 50  0  0  1  0  0  0  0  0999 V2000
   39.8100   77.4100   59.1790 C   0  0  0  0  0  0  0  0  0  0  0  0
   40.5070   76.2800   58.8890 C   0  0  0  0  0  0  0  0  0  0  0  0
   39.9600   75.5760   57.8130 C   0  0  0  0  0  0  0  0  0  0  0  0
   38.8660   75.9610   57.1290 N   0  0  0  0  0  0  0  0  0  0  0  0
   38.2370   77.1150   57.5010 C   0  0  0  0  0  0  0  0  0  0  0  0
   38.7190   77.8400   58.5360 N   0  0  0  0  0  0  0  0  0  0  0  0
   41.3890   75.9270   59.4040 H   0  0  0  0  0  0  0  0  0  0  0  0
   40.4210   74.6420   57.4670 H   0  0  0  0  0  0  0  0  0  0  0  0
   40.9910   80.3440   61.7550 C   0  0  0  0  0  0  0  0  0  0  0  0
   40.9940   79.1040   62.3460 C   0  0  0  0  0  0  0  0  0  0  0  0
   40.6220   78.0500   61.5930 C   0  0  0  0  0  0  0  0  0  0  0  0
   40.2550   78.2520   60.2740 C   0  0  0  0  0  0  0  0  0  0  0  0
   40.4410   80.0660   60.0450 S   0  0  0  0  0  0  0  0  0  0  0  0
   41.2830   78.9530   63.3860 H   0  0  0  0  0  0  0  0  0  0  0  0
   40.5570   77.0050   61.8690 H   0  0  0  0  0  0  0  0  0  0  0  0
   43.0340   83.1570   62.9180 C   0  0  0  0  0  0  0  0  0  0  0  0
   42.1320   83.9160   63.7140 C   0  0  0  0  0  0  0  0  0  0  0  0
   40.8110   83.4440   63.8370 C   0  0  0  0  0  0  0  0  0  0  0  0
   40.4700   82.3010   63.1980 N   0  0  0  0  0  0  0  0  0  0  0  0
   41.3720   81.6060   62.4440 C   0  0  0  0  0  0  0  0  0  0  0  0
   42.6260   82.0460   62.3210 N   0  0  0  0  0  0  0  0  0  0  0  0
   44.0490   83.5260   62.8280 H   0  0  0  0  0  0  0  0  0  0  0  0
   42.4260   84.8210   64.2130 H   0  0  0  0  0  0  0  0  0  0  0  0
   40.0740   83.9700   64.4260 H   0  0  0  0  0  0  0  0  0  0  0  0
   37.0680   77.5130   56.7460 C   0  0  0  0  0  0  0  0  0  0  0  0
   35.9770   77.0110   57.0650 O   0  0  0  0  0  0  0  0  0  0  0  0
   37.1400   78.4940   55.6000 C   0  0  1  0  0  0  0  0  0  0  0  0
   37.2090   79.9280   56.0560 C   0  0  0  0  0  0  0  0  0  0  0  0
   38.3490   79.2770   55.4030 C   0  0  2  0  0  0  0  0  0  0  0  0
   36.2500   78.3710   54.9360 H   0  0  0  0  0  0  0  0  0  0  0  0
   37.3160   80.1680   57.1300 H   0  0  0  0  0  0  0  0  0  0  0  0
   36.6370   80.6820   55.4830 H   0  0  0  0  0  0  0  0  0  0  0  0
   39.2190   78.9390   56.0320 H   0  0  0  0  0  0  0  0  0  0  0  0
   38.8100   79.7060   54.0560 C   0  0  0  0  0  0  0  0  0  0  0  0
   37.7420   80.0220   53.2780 N   0  0  0  0  0  0  0  0  0  0  0  0
   37.9920   80.4860   52.0220 C   0  0  0  0  0  3  0  0  0  0  0  0
   39.2330   80.6450   51.5220 N   0  0  0  0  0  0  0  0  0  0  0  0
   40.2910   80.3380   52.2770 C   0  0  0  0  0  0  0  0  0  0  0  0
   41.6200   80.4410   51.8830 C   0  0  0  0  0  3  0  0  0  0  0  0
   42.6530   80.0770   52.7510 C   0  0  0  0  0  0  0  0  0  0  0  0
   43.6420   80.2000   52.3370 H   0  0  0  0  0  0  0  0  0  0  0  0
   42.3860   79.6010   54.0350 C   0  0  0  0  0  0  0  0  0  0  0  0
   43.2460   79.3420   54.6360 H   0  0  0  0  0  0  0  0  0  0  0  0
   41.0680   79.5030   54.4160 C   0  0  0  0  0  3  0  0  0  0  0  0
   40.0760   79.8650   53.5520 C   0  0  0  0  0  0  0  0  0  0  0  0
  1 12  1  0  0  0  0
  2  1  1  0  0  0  0
  2  7  1  0  0  0  0
  3  2  2  0  0  0  0
  4  5  2  0  0  0  0
  4  3  1  0  0  0  0
  5  6  1  0  0  0  0
  6  1  2  0  0  0  0
  8  3  1  0  0  0  0
  9 10  2  0  0  0  0
  9 20  1  0  0  0  0
 10 14  1  0  0  0  0
 11 15  1  0  0  0  0
 11 10  1  0  0  0  0
 12 11  2  0  0  0  0
 13 12  1  0  0  0  0
 13  9  1  0  0  0  0
 16 17  1  0  0  0  0
 17 18  2  0  0  0  0
 17 23  1  0  0  0  0
 18 24  1  0  0  0  0
 19 18  1  0  0  0  0
 20 19  2  0  0  0  0
 21 20  1  0  0  0  0
 21 16  2  0  0  0  0
 22 16  1  0  0  0  0
 25 26  2  0  0  0  0
 25  5  1  0  0  0  0
 27 30  1  6  0  0  0
 27 28  1  0  0  0  0
 27 25  1  0  0  0  0
 28 31  1  0  0  0  0
 29 27  1  0  0  0  0
 29 33  1  1  0  0  0
 29 28  1  0  0  0  0
 32 28  1  0  0  0  0
 34 29  1  0  0  0  0
 35 34  2  0  0  0  0
 36 35  1  0  0  0  0
 37 36  2  0  0  0  0
 37 38  1  0  0  0  0
 38 45  1  0  0  0  0
 39 38  2  0  0  0  0
 39 40  1  0  0  0  0
 40 42  2  0  0  0  0
 41 40  1  0  0  0  0
 42 44  1  0  0  0  0
 42 43  1  0  0  0  0
 45 34  1  0  0  0  0
 45 44  2  0  0  0  0
M  END
>  <minimizedAffinity>
-6.73285294

>  <minimizedRMSD>
0.268050522

$$$$
