
 OpenBabel03212520593D

 45 50  0  0  1  0  0  0  0  0999 V2000
   39.6870   77.1370   59.1440 C   0  0  0  0  0  0  0  0  0  0  0  0
   40.3410   75.9690   58.9110 C   0  0  0  0  0  0  0  0  0  0  0  0
   39.7880   75.2480   57.8500 C   0  0  0  0  0  0  0  0  0  0  0  0
   38.7260   75.6530   57.1270 N   0  0  0  0  0  0  0  0  0  0  0  0
   38.1390   76.8440   57.4420 C   0  0  0  0  0  0  0  0  0  0  0  0
   38.6290   77.5880   58.4610 N   0  0  0  0  0  0  0  0  0  0  0  0
   41.1960   75.5990   59.4590 H   0  0  0  0  0  0  0  0  0  0  0  0
   40.2160   74.2840   57.5490 H   0  0  0  0  0  0  0  0  0  0  0  0
   40.9450   80.1130   61.6340 C   0  0  0  0  0  0  0  0  0  0  0  0
   40.8650   78.9000   62.2750 C   0  0  0  0  0  0  0  0  0  0  0  0
   40.4600   77.8360   61.5540 C   0  0  0  0  0  0  0  0  0  0  0  0
   40.1430   78.0000   60.2170 C   0  0  0  0  0  0  0  0  0  0  0  0
   40.4320   79.7910   59.9200 S   0  0  0  0  0  0  0  0  0  0  0  0
   41.1160   78.7790   63.3280 H   0  0  0  0  0  0  0  0  0  0  0  0
   40.3320   76.8090   61.8700 H   0  0  0  0  0  0  0  0  0  0  0  0
   43.0840   82.8970   62.6900 C   0  0  0  0  0  0  0  0  0  0  0  0
   42.2160   83.7020   63.4780 C   0  0  0  0  0  0  0  0  0  0  0  0
   40.8850   83.2710   63.6330 C   0  0  0  0  0  0  0  0  0  0  0  0
   40.5020   82.1220   63.0300 N   0  0  0  0  0  0  0  0  0  0  0  0
   41.3720   81.3820   62.2830 C   0  0  0  0  0  0  0  0  0  0  0  0
   42.6360   81.7820   62.1300 N   0  0  0  0  0  0  0  0  0  0  0  0
   44.1080   83.2340   62.5750 H   0  0  0  0  0  0  0  0  0  0  0  0
   42.5440   84.6120   63.9480 H   0  0  0  0  0  0  0  0  0  0  0  0
   40.1720   83.8340   64.2180 H   0  0  0  0  0  0  0  0  0  0  0  0
   37.0040   77.2620   56.6470 C   0  0  0  0  0  0  0  0  0  0  0  0
   35.8780   77.1920   57.1670 O   0  0  0  0  0  0  0  0  0  0  0  0
   37.1480   77.7600   55.2290 C   0  0  1  0  0  0  0  0  0  0  0  0
   37.2560   79.2610   55.1400 C   0  0  0  0  0  0  0  0  0  0  0  0
   38.3910   78.3920   54.8160 C   0  0  2  0  0  0  0  0  0  0  0  0
   36.2760   77.4260   54.6150 H   0  0  0  0  0  0  0  0  0  0  0  0
   37.3370   79.8700   56.0590 H   0  0  0  0  0  0  0  0  0  0  0  0
   36.7300   79.7700   54.3090 H   0  0  0  0  0  0  0  0  0  0  0  0
   39.2280   78.2850   55.5610 H   0  0  0  0  0  0  0  0  0  0  0  0
   38.9110   78.2950   53.4260 C   0  0  0  0  0  0  0  0  0  0  0  0
   40.0120   77.5010   53.3950 N   0  0  0  0  0  0  0  0  0  0  0  0
   40.5860   77.2640   52.1830 C   0  0  0  0  0  3  0  0  0  0  0  0
   40.1180   77.7740   51.0270 N   0  0  0  0  0  0  0  0  0  0  0  0
   39.0360   78.5580   51.0430 C   0  0  0  0  0  0  0  0  0  0  0  0
   38.4580   79.1580   49.9310 C   0  0  0  0  0  3  0  0  0  0  0  0
   37.3320   79.9740   50.0630 C   0  0  0  0  0  0  0  0  0  0  0  0
   36.9700   80.3840   49.1330 H   0  0  0  0  0  0  0  0  0  0  0  0
   36.7520   80.2120   51.3110 C   0  0  0  0  0  0  0  0  0  0  0  0
   35.8850   80.8550   51.3180 H   0  0  0  0  0  0  0  0  0  0  0  0
   37.3310   79.6130   52.4070 C   0  0  0  0  0  3  0  0  0  0  0  0
   38.4300   78.8190   52.2510 C   0  0  0  0  0  0  0  0  0  0  0  0
  1 12  1  0  0  0  0
  2  1  1  0  0  0  0
  2  7  1  0  0  0  0
  3  2  2  0  0  0  0
  4  5  2  0  0  0  0
  4  3  1  0  0  0  0
  5  6  1  0  0  0  0
  6  1  2  0  0  0  0
  8  3  1  0  0  0  0
  9 10  2  0  0  0  0
  9 20  1  0  0  0  0
 10 14  1  0  0  0  0
 11 15  1  0  0  0  0
 11 10  1  0  0  0  0
 12 11  2  0  0  0  0
 13 12  1  0  0  0  0
 13  9  1  0  0  0  0
 16 17  1  0  0  0  0
 17 18  2  0  0  0  0
 17 23  1  0  0  0  0
 18 24  1  0  0  0  0
 19 18  1  0  0  0  0
 20 19  2  0  0  0  0
 21 20  1  0  0  0  0
 21 16  2  0  0  0  0
 22 16  1  0  0  0  0
 25 26  2  0  0  0  0
 25  5  1  0  0  0  0
 27 30  1  6  0  0  0
 27 25  1  0  0  0  0
 28 27  1  0  0  0  0
 28 31  1  0  0  0  0
 29 28  1  0  0  0  0
 29 27  1  0  0  0  0
 29 33  1  1  0  0  0
 32 28  1  0  0  0  0
 34 29  1  0  0  0  0
 35 34  1  0  0  0  0
 36 35  2  0  0  0  0
 37 38  2  0  0  0  0
 37 36  1  0  0  0  0
 38 45  1  0  0  0  0
 39 40  2  0  0  0  0
 39 38  1  0  0  0  0
 40 42  1  0  0  0  0
 41 40  1  0  0  0  0
 42 43  1  0  0  0  0
 42 44  2  0  0  0  0
 45 44  1  0  0  0  0
 45 34  2  0  0  0  0
M  END
>  <minimizedAffinity>
-6.98915386

>  <minimizedRMSD>
0.997470379

$$$$
