
 OpenBabel03212520593D

 45 50  0  0  1  0  0  0  0  0999 V2000
   39.7100   77.2600   59.0830 C   0  0  0  0  0  0  0  0  0  0  0  0
   40.3800   76.1130   58.7960 C   0  0  0  0  0  0  0  0  0  0  0  0
   39.8120   75.4160   57.7260 C   0  0  0  0  0  0  0  0  0  0  0  0
   38.7230   75.8220   57.0460 N   0  0  0  0  0  0  0  0  0  0  0  0
   38.1220   76.9910   57.4140 C   0  0  0  0  0  0  0  0  0  0  0  0
   38.6260   77.7110   58.4430 N   0  0  0  0  0  0  0  0  0  0  0  0
   41.2550   75.7430   59.3090 H   0  0  0  0  0  0  0  0  0  0  0  0
   40.2500   74.4700   57.3840 H   0  0  0  0  0  0  0  0  0  0  0  0
   40.9730   80.1810   61.6350 C   0  0  0  0  0  0  0  0  0  0  0  0
   40.9440   78.9450   62.2350 C   0  0  0  0  0  0  0  0  0  0  0  0
   40.5430   77.8960   61.4910 C   0  0  0  0  0  0  0  0  0  0  0  0
   40.1790   78.0980   60.1710 C   0  0  0  0  0  0  0  0  0  0  0  0
   40.4130   79.9050   59.9280 S   0  0  0  0  0  0  0  0  0  0  0  0
   41.2310   78.7950   63.2760 H   0  0  0  0  0  0  0  0  0  0  0  0
   40.4510   76.8550   61.7740 H   0  0  0  0  0  0  0  0  0  0  0  0
   43.0920   82.9470   62.7740 C   0  0  0  0  0  0  0  0  0  0  0  0
   42.2120   83.7350   63.5660 C   0  0  0  0  0  0  0  0  0  0  0  0
   40.8800   83.2990   63.6950 C   0  0  0  0  0  0  0  0  0  0  0  0
   40.5070   82.1610   63.0650 N   0  0  0  0  0  0  0  0  0  0  0  0
   41.3890   81.4370   62.3150 C   0  0  0  0  0  0  0  0  0  0  0  0
   42.6540   81.8420   62.1860 N   0  0  0  0  0  0  0  0  0  0  0  0
   44.1170   83.2880   62.6800 H   0  0  0  0  0  0  0  0  0  0  0  0
   42.5310   84.6360   64.0580 H   0  0  0  0  0  0  0  0  0  0  0  0
   40.1580   83.8490   64.2810 H   0  0  0  0  0  0  0  0  0  0  0  0
   36.9590   77.4110   56.6630 C   0  0  0  0  0  0  0  0  0  0  0  0
   35.8400   77.1410   57.1320 O   0  0  0  0  0  0  0  0  0  0  0  0
   37.0660   78.1460   55.3480 C   0  0  1  0  0  0  0  0  0  0  0  0
   37.4500   79.5930   55.5110 C   0  0  0  0  0  0  0  0  0  0  0  0
   38.3640   78.6250   54.9000 C   0  0  2  0  0  0  0  0  0  0  0  0
   36.0940   78.0920   54.7990 H   0  0  0  0  0  0  0  0  0  0  0  0
   37.7290   79.9890   56.5060 H   0  0  0  0  0  0  0  0  0  0  0  0
   36.9570   80.3370   54.8560 H   0  0  0  0  0  0  0  0  0  0  0  0
   39.2290   78.2330   55.5040 H   0  0  0  0  0  0  0  0  0  0  0  0
   38.7260   78.7150   53.4600 C   0  0  0  0  0  0  0  0  0  0  0  0
   38.6050   79.9970   53.0300 N   0  0  0  0  0  0  0  0  0  0  0  0
   38.9510   80.2640   51.7400 C   0  0  0  0  0  3  0  0  0  0  0  0
   39.4010   79.3280   50.8810 N   0  0  0  0  0  0  0  0  0  0  0  0
   39.5230   78.0630   51.2920 C   0  0  0  0  0  0  0  0  0  0  0  0
   39.9590   77.0010   50.5110 C   0  0  0  0  0  3  0  0  0  0  0  0
   40.0360   75.7090   51.0390 C   0  0  0  0  0  0  0  0  0  0  0  0
   40.3880   74.9650   50.3400 H   0  0  0  0  0  0  0  0  0  0  0  0
   39.6770   75.4450   52.3610 C   0  0  0  0  0  0  0  0  0  0  0  0
   39.7670   74.4180   52.6830 H   0  0  0  0  0  0  0  0  0  0  0  0
   39.2470   76.5040   53.1280 C   0  0  0  0  0  3  0  0  0  0  0  0
   39.1820   77.7560   52.5900 C   0  0  0  0  0  0  0  0  0  0  0  0
  1 12  1  0  0  0  0
  2  1  1  0  0  0  0
  2  7  1  0  0  0  0
  3  2  2  0  0  0  0
  4  5  2  0  0  0  0
  4  3  1  0  0  0  0
  5  6  1  0  0  0  0
  6  1  2  0  0  0  0
  8  3  1  0  0  0  0
  9 10  2  0  0  0  0
  9 20  1  0  0  0  0
 10 14  1  0  0  0  0
 11 15  1  0  0  0  0
 11 10  1  0  0  0  0
 12 11  2  0  0  0  0
 13 12  1  0  0  0  0
 13  9  1  0  0  0  0
 16 17  1  0  0  0  0
 17 18  2  0  0  0  0
 17 23  1  0  0  0  0
 18 24  1  0  0  0  0
 19 18  1  0  0  0  0
 20 19  2  0  0  0  0
 21 20  1  0  0  0  0
 21 16  2  0  0  0  0
 22 16  1  0  0  0  0
 25 26  2  0  0  0  0
 25  5  1  0  0  0  0
 27 30  1  6  0  0  0
 27 28  1  0  0  0  0
 27 25  1  0  0  0  0
 28 31  1  0  0  0  0
 29 27  1  0  0  0  0
 29 33  1  1  0  0  0
 29 28  1  0  0  0  0
 32 28  1  0  0  0  0
 34 29  1  0  0  0  0
 35 34  1  0  0  0  0
 36 35  2  0  0  0  0
 37 38  2  0  0  0  0
 37 36  1  0  0  0  0
 38 45  1  0  0  0  0
 39 40  2  0  0  0  0
 39 38  1  0  0  0  0
 40 42  1  0  0  0  0
 41 40  1  0  0  0  0
 42 43  1  0  0  0  0
 42 44  2  0  0  0  0
 45 44  1  0  0  0  0
 45 34  2  0  0  0  0
M  END
>  <minimizedAffinity>
-7.02368832

>  <minimizedRMSD>
0.86237216

$$$$
