
 OpenBabel03212521003D

 45 50  0  0  1  0  0  0  0  0999 V2000
   39.6850   77.1350   59.1440 C   0  0  0  0  0  0  0  0  0  0  0  0
   40.3380   75.9670   58.9120 C   0  0  0  0  0  0  0  0  0  0  0  0
   39.7840   75.2460   57.8500 C   0  0  0  0  0  0  0  0  0  0  0  0
   38.7220   75.6510   57.1280 N   0  0  0  0  0  0  0  0  0  0  0  0
   38.1370   76.8440   57.4420 C   0  0  0  0  0  0  0  0  0  0  0  0
   38.6280   77.5870   58.4600 N   0  0  0  0  0  0  0  0  0  0  0  0
   41.1920   75.5960   59.4590 H   0  0  0  0  0  0  0  0  0  0  0  0
   40.2120   74.2810   57.5500 H   0  0  0  0  0  0  0  0  0  0  0  0
   40.9450   80.1120   61.6330 C   0  0  0  0  0  0  0  0  0  0  0  0
   40.8670   78.8980   62.2730 C   0  0  0  0  0  0  0  0  0  0  0  0
   40.4620   77.8340   61.5530 C   0  0  0  0  0  0  0  0  0  0  0  0
   40.1430   77.9990   60.2160 C   0  0  0  0  0  0  0  0  0  0  0  0
   40.4290   79.7900   59.9200 S   0  0  0  0  0  0  0  0  0  0  0  0
   41.1200   78.7770   63.3270 H   0  0  0  0  0  0  0  0  0  0  0  0
   40.3350   76.8060   61.8680 H   0  0  0  0  0  0  0  0  0  0  0  0
   43.0840   82.8950   62.6890 C   0  0  0  0  0  0  0  0  0  0  0  0
   42.2170   83.7010   63.4760 C   0  0  0  0  0  0  0  0  0  0  0  0
   40.8850   83.2700   63.6310 C   0  0  0  0  0  0  0  0  0  0  0  0
   40.5020   82.1210   63.0290 N   0  0  0  0  0  0  0  0  0  0  0  0
   41.3720   81.3800   62.2820 C   0  0  0  0  0  0  0  0  0  0  0  0
   42.6360   81.7800   62.1290 N   0  0  0  0  0  0  0  0  0  0  0  0
   44.1080   83.2330   62.5740 H   0  0  0  0  0  0  0  0  0  0  0  0
   42.5440   84.6110   63.9460 H   0  0  0  0  0  0  0  0  0  0  0  0
   40.1720   83.8330   64.2160 H   0  0  0  0  0  0  0  0  0  0  0  0
   37.0020   77.2620   56.6470 C   0  0  0  0  0  0  0  0  0  0  0  0
   35.8760   77.1930   57.1660 O   0  0  0  0  0  0  0  0  0  0  0  0
   37.1480   77.7620   55.2290 C   0  0  1  0  0  0  0  0  0  0  0  0
   37.2570   79.2620   55.1410 C   0  0  0  0  0  0  0  0  0  0  0  0
   38.3910   78.3920   54.8170 C   0  0  2  0  0  0  0  0  0  0  0  0
   36.2750   77.4290   54.6150 H   0  0  0  0  0  0  0  0  0  0  0  0
   37.3390   79.8710   56.0610 H   0  0  0  0  0  0  0  0  0  0  0  0
   36.7320   79.7720   54.3110 H   0  0  0  0  0  0  0  0  0  0  0  0
   39.2280   78.2830   55.5620 H   0  0  0  0  0  0  0  0  0  0  0  0
   38.9110   78.2960   53.4260 C   0  0  0  0  0  0  0  0  0  0  0  0
   40.0120   77.5030   53.3960 N   0  0  0  0  0  0  0  0  0  0  0  0
   40.5850   77.2660   52.1830 C   0  0  0  0  0  3  0  0  0  0  0  0
   40.1180   77.7760   51.0270 N   0  0  0  0  0  0  0  0  0  0  0  0
   39.0360   78.5580   51.0440 C   0  0  0  0  0  0  0  0  0  0  0  0
   38.4570   79.1580   49.9330 C   0  0  0  0  0  3  0  0  0  0  0  0
   37.3310   79.9740   50.0650 C   0  0  0  0  0  0  0  0  0  0  0  0
   36.9700   80.3840   49.1350 H   0  0  0  0  0  0  0  0  0  0  0  0
   36.7520   80.2110   51.3130 C   0  0  0  0  0  0  0  0  0  0  0  0
   35.8830   80.8550   51.3190 H   0  0  0  0  0  0  0  0  0  0  0  0
   37.3300   79.6130   52.4080 C   0  0  0  0  0  3  0  0  0  0  0  0
   38.4300   78.8190   52.2530 C   0  0  0  0  0  0  0  0  0  0  0  0
  1 12  1  0  0  0  0
  2  1  1  0  0  0  0
  2  7  1  0  0  0  0
  3  2  2  0  0  0  0
  4  5  2  0  0  0  0
  4  3  1  0  0  0  0
  5  6  1  0  0  0  0
  6  1  2  0  0  0  0
  8  3  1  0  0  0  0
  9 10  2  0  0  0  0
  9 20  1  0  0  0  0
 10 14  1  0  0  0  0
 11 15  1  0  0  0  0
 11 10  1  0  0  0  0
 12 11  2  0  0  0  0
 13 12  1  0  0  0  0
 13  9  1  0  0  0  0
 16 17  1  0  0  0  0
 17 18  2  0  0  0  0
 17 23  1  0  0  0  0
 18 24  1  0  0  0  0
 19 18  1  0  0  0  0
 20 19  2  0  0  0  0
 21 20  1  0  0  0  0
 21 16  2  0  0  0  0
 22 16  1  0  0  0  0
 25 26  2  0  0  0  0
 25  5  1  0  0  0  0
 27 30  1  6  0  0  0
 27 25  1  0  0  0  0
 28 27  1  0  0  0  0
 28 31  1  0  0  0  0
 29 28  1  0  0  0  0
 29 27  1  0  0  0  0
 29 33  1  1  0  0  0
 32 28  1  0  0  0  0
 34 29  1  0  0  0  0
 35 34  1  0  0  0  0
 36 35  2  0  0  0  0
 37 38  2  0  0  0  0
 37 36  1  0  0  0  0
 38 45  1  0  0  0  0
 39 40  2  0  0  0  0
 39 38  1  0  0  0  0
 40 42  1  0  0  0  0
 41 40  1  0  0  0  0
 42 43  1  0  0  0  0
 42 44  2  0  0  0  0
 45 44  1  0  0  0  0
 45 34  2  0  0  0  0
M  END
>  <minimizedAffinity>
-6.98662949

>  <minimizedRMSD>
1.09930646

$$$$
