
 OpenBabel03212520593D

 45 50  0  0  1  0  0  0  0  0999 V2000
   39.7090   77.2590   59.0840 C   0  0  0  0  0  0  0  0  0  0  0  0
   40.3790   76.1130   58.7970 C   0  0  0  0  0  0  0  0  0  0  0  0
   39.8120   75.4150   57.7280 C   0  0  0  0  0  0  0  0  0  0  0  0
   38.7230   75.8200   57.0470 N   0  0  0  0  0  0  0  0  0  0  0  0
   38.1220   76.9890   57.4150 C   0  0  0  0  0  0  0  0  0  0  0  0
   38.6240   77.7100   58.4430 N   0  0  0  0  0  0  0  0  0  0  0  0
   41.2550   75.7430   59.3100 H   0  0  0  0  0  0  0  0  0  0  0  0
   40.2500   74.4690   57.3860 H   0  0  0  0  0  0  0  0  0  0  0  0
   40.9720   80.1810   61.6360 C   0  0  0  0  0  0  0  0  0  0  0  0
   40.9400   78.9450   62.2370 C   0  0  0  0  0  0  0  0  0  0  0  0
   40.5380   77.8960   61.4930 C   0  0  0  0  0  0  0  0  0  0  0  0
   40.1770   78.0970   60.1720 C   0  0  0  0  0  0  0  0  0  0  0  0
   40.4140   79.9040   59.9280 S   0  0  0  0  0  0  0  0  0  0  0  0
   41.2250   78.7950   63.2780 H   0  0  0  0  0  0  0  0  0  0  0  0
   40.4440   76.8560   61.7770 H   0  0  0  0  0  0  0  0  0  0  0  0
   43.0920   82.9460   62.7730 C   0  0  0  0  0  0  0  0  0  0  0  0
   42.2130   83.7350   63.5650 C   0  0  0  0  0  0  0  0  0  0  0  0
   40.8800   83.2980   63.6950 C   0  0  0  0  0  0  0  0  0  0  0  0
   40.5070   82.1610   63.0660 N   0  0  0  0  0  0  0  0  0  0  0  0
   41.3880   81.4370   62.3150 C   0  0  0  0  0  0  0  0  0  0  0  0
   42.6530   81.8420   62.1850 N   0  0  0  0  0  0  0  0  0  0  0  0
   44.1170   83.2880   62.6770 H   0  0  0  0  0  0  0  0  0  0  0  0
   42.5330   84.6360   64.0570 H   0  0  0  0  0  0  0  0  0  0  0  0
   40.1590   83.8480   64.2830 H   0  0  0  0  0  0  0  0  0  0  0  0
   36.9580   77.4090   56.6630 C   0  0  0  0  0  0  0  0  0  0  0  0
   35.8400   77.1380   57.1320 O   0  0  0  0  0  0  0  0  0  0  0  0
   37.0650   78.1430   55.3480 C   0  0  1  0  0  0  0  0  0  0  0  0
   37.4480   79.5910   55.5110 C   0  0  0  0  0  0  0  0  0  0  0  0
   38.3630   78.6230   54.9010 C   0  0  2  0  0  0  0  0  0  0  0  0
   36.0940   78.0880   54.7990 H   0  0  0  0  0  0  0  0  0  0  0  0
   37.7260   79.9870   56.5060 H   0  0  0  0  0  0  0  0  0  0  0  0
   36.9550   80.3340   54.8550 H   0  0  0  0  0  0  0  0  0  0  0  0
   39.2280   78.2320   55.5050 H   0  0  0  0  0  0  0  0  0  0  0  0
   38.7260   78.7130   53.4610 C   0  0  0  0  0  0  0  0  0  0  0  0
   38.6060   79.9950   53.0310 N   0  0  0  0  0  0  0  0  0  0  0  0
   38.9530   80.2620   51.7410 C   0  0  0  0  0  3  0  0  0  0  0  0
   39.4030   79.3260   50.8820 N   0  0  0  0  0  0  0  0  0  0  0  0
   39.5240   78.0610   51.2930 C   0  0  0  0  0  0  0  0  0  0  0  0
   39.9600   76.9980   50.5130 C   0  0  0  0  0  3  0  0  0  0  0  0
   40.0360   75.7060   51.0400 C   0  0  0  0  0  0  0  0  0  0  0  0
   40.3890   74.9630   50.3420 H   0  0  0  0  0  0  0  0  0  0  0  0
   39.6770   75.4430   52.3630 C   0  0  0  0  0  0  0  0  0  0  0  0
   39.7660   74.4160   52.6850 H   0  0  0  0  0  0  0  0  0  0  0  0
   39.2470   76.5020   53.1290 C   0  0  0  0  0  3  0  0  0  0  0  0
   39.1820   77.7550   52.5910 C   0  0  0  0  0  0  0  0  0  0  0  0
  1 12  1  0  0  0  0
  2  1  1  0  0  0  0
  2  7  1  0  0  0  0
  3  2  2  0  0  0  0
  4  5  2  0  0  0  0
  4  3  1  0  0  0  0
  5  6  1  0  0  0  0
  6  1  2  0  0  0  0
  8  3  1  0  0  0  0
  9 10  2  0  0  0  0
  9 20  1  0  0  0  0
 10 14  1  0  0  0  0
 11 15  1  0  0  0  0
 11 10  1  0  0  0  0
 12 11  2  0  0  0  0
 13 12  1  0  0  0  0
 13  9  1  0  0  0  0
 16 17  1  0  0  0  0
 17 18  2  0  0  0  0
 17 23  1  0  0  0  0
 18 24  1  0  0  0  0
 19 18  1  0  0  0  0
 20 19  2  0  0  0  0
 21 20  1  0  0  0  0
 21 16  2  0  0  0  0
 22 16  1  0  0  0  0
 25 26  2  0  0  0  0
 25  5  1  0  0  0  0
 27 30  1  6  0  0  0
 27 28  1  0  0  0  0
 27 25  1  0  0  0  0
 28 31  1  0  0  0  0
 29 27  1  0  0  0  0
 29 33  1  1  0  0  0
 29 28  1  0  0  0  0
 32 28  1  0  0  0  0
 34 29  1  0  0  0  0
 35 34  1  0  0  0  0
 36 35  2  0  0  0  0
 37 38  2  0  0  0  0
 37 36  1  0  0  0  0
 38 45  1  0  0  0  0
 39 40  2  0  0  0  0
 39 38  1  0  0  0  0
 40 42  1  0  0  0  0
 41 40  1  0  0  0  0
 42 43  1  0  0  0  0
 42 44  2  0  0  0  0
 45 44  1  0  0  0  0
 45 34  2  0  0  0  0
M  END
>  <minimizedAffinity>
-7.02627516

>  <minimizedRMSD>
1.03834152

$$$$
