
 OpenBabel03212520133D

 34 37  0  0  0  0  0  0  0  0999 V2000
   43.1760   83.7200   58.6290 Cl  0  0  0  0  0  0  0  0  0  0  0  0
   41.8650   82.5930   58.2540 C   0  0  0  0  0  0  0  0  0  0  0  0
   40.9660   82.1530   59.2030 C   0  0  0  0  0  0  0  0  0  0  0  0
   39.9990   81.2710   58.7470 C   0  0  0  0  0  0  0  0  0  0  0  0
   39.8730   80.8130   57.4480 C   0  0  0  0  0  0  0  0  0  0  0  0
   40.7860   81.2760   56.5440 C   0  0  0  0  0  0  0  0  0  0  0  0
   40.7290   80.7640   54.8630 Cl  0  0  0  0  0  0  0  0  0  0  0  0
   41.7640   82.1520   56.9530 C   0  0  0  0  0  0  0  0  0  0  0  0
   39.2820   80.9200   59.4950 H   0  0  0  0  0  0  0  0  0  0  0  0
   39.0830   80.1230   57.1820 H   0  0  0  0  0  0  0  0  0  0  0  0
   42.7250   82.6230   55.9450 C   0  0  0  0  0  0  0  0  0  0  0  0
   42.3400   83.7290   55.2790 N   0  0  0  0  0  0  0  0  0  0  0  0
   43.1740   84.2270   54.3290 C   0  0  0  0  0  3  0  0  0  0  0  0
   44.3740   83.6540   54.0290 N   0  0  0  0  0  0  0  0  0  0  0  0
   44.7690   82.5380   54.6970 C   0  0  0  0  0  0  0  0  0  0  0  0
   45.9720   81.9070   54.4430 C   0  0  0  0  0  3  0  0  0  0  0  0
   46.3350   80.7760   55.1450 C   0  0  0  0  0  0  0  0  0  0  0  0
   47.2840   80.3130   54.9140 H   0  0  0  0  0  0  0  0  0  0  0  0
   45.4740   80.2860   56.1040 C   0  0  0  0  0  0  0  0  0  0  0  0
   45.7700   79.3850   56.6580 H   0  0  0  0  0  0  0  0  0  0  0  0
   44.2500   80.8730   56.4080 C   0  0  0  0  0  3  0  0  0  0  0  0
   43.9350   82.0000   55.6790 C   0  0  0  0  0  0  0  0  0  0  0  0
   41.9290   82.1030   61.5490 C   0  0  0  0  0  0  0  0  0  0  0  0
   41.0810   82.6170   60.5510 C   0  0  0  0  0  0  0  0  0  0  0  0
   40.2530   83.6880   60.8800 C   0  0  0  0  0  0  0  0  0  0  0  0
   40.3330   84.1580   62.1560 N   0  0  0  0  0  0  0  0  0  0  0  0
   41.1460   83.6570   63.0900 C   0  0  0  0  0  0  0  0  0  0  0  0
   41.9410   82.6310   62.7820 N   0  0  0  0  0  0  0  0  0  0  0  0
   42.5510   81.2730   61.2430 H   0  0  0  0  0  0  0  0  0  0  0  0
   39.5620   84.1590   60.1870 H   0  0  0  0  0  0  0  0  0  0  0  0
   41.0870   84.3110   64.4280 C   0  0  0  0  0  0  0  0  0  0  0  0
   40.7470   85.6500   64.3310 F   0  0  0  0  0  0  0  0  0  0  0  0
   40.1190   83.6960   65.2040 F   0  0  0  0  0  0  0  0  0  0  0  0
   42.3160   84.2770   65.0590 F   0  0  0  0  0  0  0  0  0  0  0  0
  2  1  1  0  0  0  0
  2  3  1  0  0  0  0
  3 24  1  0  0  0  0
  4  3  2  0  0  0  0
  4  9  1  0  0  0  0
  5  4  1  0  0  0  0
  6  8  1  0  0  0  0
  6  5  2  0  0  0  0
  7  6  1  0  0  0  0
  8  2  2  0  0  0  0
 10  5  1  0  0  0  0
 11  8  1  0  0  0  0
 12 11  2  0  0  0  0
 13 12  1  0  0  0  0
 14 13  2  0  0  0  0
 14 15  1  0  0  0  0
 15 22  1  0  0  0  0
 16 15  2  0  0  0  0
 16 17  1  0  0  0  0
 17 19  2  0  0  0  0
 18 17  1  0  0  0  0
 19 21  1  0  0  0  0
 19 20  1  0  0  0  0
 22 11  1  0  0  0  0
 22 21  2  0  0  0  0
 23 28  1  0  0  0  0
 24 25  1  0  0  0  0
 24 23  2  0  0  0  0
 25 26  2  0  0  0  0
 26 27  1  0  0  0  0
 27 31  1  0  0  0  0
 28 27  2  0  0  0  0
 29 23  1  0  0  0  0
 30 25  1  0  0  0  0
 31 34  1  0  0  0  0
 31 33  1  0  0  0  0
 32 31  1  0  0  0  0
M  END
>  <minimizedAffinity>
-5.25605345

>  <minimizedRMSD>
1.3238554

$$$$
