
 OpenBabel03212520183D

 38 41  0  0  0  0  0  0  0  0999 V2000
   43.0230   83.9840   58.6140 Cl  0  0  0  0  0  0  0  0  0  0  0  0
   41.8370   82.7670   58.2430 C   0  0  0  0  0  0  0  0  0  0  0  0
   40.9930   82.2130   59.1920 C   0  0  0  0  0  0  0  0  0  0  0  0
   40.1110   81.2550   58.7350 C   0  0  0  0  0  0  0  0  0  0  0  0
   39.9880   80.7990   57.4420 C   0  0  0  0  0  0  0  0  0  0  0  0
   40.8430   81.3750   56.5300 C   0  0  0  0  0  0  0  0  0  0  0  0
   40.7850   80.8770   54.8420 Cl  0  0  0  0  0  0  0  0  0  0  0  0
   41.7620   82.3570   56.9420 C   0  0  0  0  0  0  0  0  0  0  0  0
   39.4560   80.8340   59.4960 H   0  0  0  0  0  0  0  0  0  0  0  0
   39.2660   80.0410   57.1730 H   0  0  0  0  0  0  0  0  0  0  0  0
   41.9600   82.1780   61.5410 C   0  0  0  0  0  0  0  0  0  0  0  0
   41.0950   82.6630   60.5400 C   0  0  0  0  0  0  0  0  0  0  0  0
   40.2370   83.7000   60.8920 C   0  0  0  0  0  0  0  0  0  0  0  0
   40.3050   84.1620   62.1760 N   0  0  0  0  0  0  0  0  0  0  0  0
   41.1350   83.6830   63.1010 C   0  0  0  0  0  0  0  0  0  0  0  0
   41.9800   82.6700   62.7790 N   0  0  0  0  0  0  0  0  0  0  0  0
   42.5930   81.3720   61.1930 H   0  0  0  0  0  0  0  0  0  0  0  0
   39.5150   84.1740   60.2230 H   0  0  0  0  0  0  0  0  0  0  0  0
   41.0620   84.3230   64.4360 C   0  0  0  0  0  0  0  0  0  0  0  0
   40.7260   85.6520   64.3590 F   0  0  0  0  0  0  0  0  0  0  0  0
   40.1140   83.6610   65.2180 F   0  0  0  0  0  0  0  0  0  0  0  0
   42.3080   84.2850   65.0870 F   0  0  0  0  0  0  0  0  0  0  0  0
   42.5900   82.8900   55.9690 O   0  0  0  0  0  0  0  0  0  0  0  0
   42.3140   84.0770   55.2530 C   0  0  0  0  0  0  0  0  0  0  0  0
   42.1900   84.9550   55.8900 H   0  0  0  0  0  0  0  0  0  0  0  0
   41.3290   83.9230   54.7660 H   0  0  0  0  0  0  0  0  0  0  0  0
   43.3240   84.2250   54.1880 C   0  0  0  0  0  0  0  0  0  0  0  0
   44.4780   84.8960   54.5050 N   0  0  0  0  0  0  0  0  0  0  0  0
   45.4440   85.1480   53.6090 C   0  0  0  0  0  3  0  0  0  0  0  0
   45.3610   84.7570   52.3080 N   0  0  0  0  0  0  0  0  0  0  0  0
   44.2530   84.0900   51.9260 C   0  0  0  0  0  0  0  0  0  0  0  0
   44.0810   83.6400   50.6340 C   0  0  0  0  0  3  0  0  0  0  0  0
   42.9460   82.9410   50.2470 C   0  0  0  0  0  0  0  0  0  0  0  0
   42.7860   82.5730   49.2230 H   0  0  0  0  0  0  0  0  0  0  0  0
   41.9620   82.6920   51.2030 C   0  0  0  0  0  0  0  0  0  0  0  0
   41.0740   82.1420   50.9030 H   0  0  0  0  0  0  0  0  0  0  0  0
   42.1750   83.1610   52.4790 C   0  0  0  0  0  3  0  0  0  0  0  0
   43.2800   83.8460   52.8660 C   0  0  0  0  0  0  0  0  0  0  0  0
  2  1  1  0  0  0  0
  2  3  1  0  0  0  0
  3 12  1  0  0  0  0
  4  3  2  0  0  0  0
  4  9  1  0  0  0  0
  5  4  1  0  0  0  0
  6  8  1  0  0  0  0
  6  5  2  0  0  0  0
  7  6  1  0  0  0  0
  8  2  2  0  0  0  0
 10  5  1  0  0  0  0
 11 16  1  0  0  0  0
 12 13  1  0  0  0  0
 12 11  2  0  0  0  0
 13 14  2  0  0  0  0
 14 15  1  0  0  0  0
 15 19  1  0  0  0  0
 16 15  2  0  0  0  0
 17 11  1  0  0  0  0
 18 13  1  0  0  0  0
 19 22  1  0  0  0  0
 19 21  1  0  0  0  0
 20 19  1  0  0  0  0
 23  8  1  0  0  0  0
 24 25  1  0  0  0  0
 24 23  1  0  0  0  0
 26 24  1  0  0  0  0
 27 28  1  0  0  0  0
 27 24  1  0  0  0  0
 29 28  2  0  0  0  0
 30 29  1  0  0  0  0
 31 30  2  0  0  0  0
 31 38  1  0  0  0  0
 32 31  1  0  0  0  0
 33 32  2  0  0  0  0
 33 35  1  0  0  0  0
 34 33  1  0  0  0  0
 35 37  2  0  0  0  0
 36 35  1  0  0  0  0
 37 38  1  0  0  0  0
 38 27  2  0  0  0  0
M  END
>  <minimizedAffinity>
-5.30331373

>  <minimizedRMSD>
0.915201068

$$$$
