
 OpenBabel03212520183D

 38 41  0  0  0  0  0  0  0  0999 V2000
   43.0230   83.9850   58.6170 Cl  0  0  0  0  0  0  0  0  0  0  0  0
   41.8370   82.7680   58.2450 C   0  0  0  0  0  0  0  0  0  0  0  0
   40.9930   82.2140   59.1950 C   0  0  0  0  0  0  0  0  0  0  0  0
   40.1110   81.2550   58.7370 C   0  0  0  0  0  0  0  0  0  0  0  0
   39.9880   80.8000   57.4440 C   0  0  0  0  0  0  0  0  0  0  0  0
   40.8440   81.3760   56.5320 C   0  0  0  0  0  0  0  0  0  0  0  0
   40.7860   80.8790   54.8440 Cl  0  0  0  0  0  0  0  0  0  0  0  0
   41.7620   82.3580   56.9450 C   0  0  0  0  0  0  0  0  0  0  0  0
   39.4550   80.8340   59.4980 H   0  0  0  0  0  0  0  0  0  0  0  0
   39.2670   80.0420   57.1750 H   0  0  0  0  0  0  0  0  0  0  0  0
   41.9560   82.1760   61.5440 C   0  0  0  0  0  0  0  0  0  0  0  0
   41.0940   82.6630   60.5420 C   0  0  0  0  0  0  0  0  0  0  0  0
   40.2380   83.7020   60.8930 C   0  0  0  0  0  0  0  0  0  0  0  0
   40.3060   84.1640   62.1770 N   0  0  0  0  0  0  0  0  0  0  0  0
   41.1330   83.6830   63.1030 C   0  0  0  0  0  0  0  0  0  0  0  0
   41.9760   82.6680   62.7830 N   0  0  0  0  0  0  0  0  0  0  0  0
   42.5880   81.3680   61.1980 H   0  0  0  0  0  0  0  0  0  0  0  0
   39.5180   84.1780   60.2230 H   0  0  0  0  0  0  0  0  0  0  0  0
   41.0600   84.3230   64.4390 C   0  0  0  0  0  0  0  0  0  0  0  0
   40.7220   85.6520   64.3610 F   0  0  0  0  0  0  0  0  0  0  0  0
   40.1130   83.6610   65.2210 F   0  0  0  0  0  0  0  0  0  0  0  0
   42.3060   84.2880   65.0880 F   0  0  0  0  0  0  0  0  0  0  0  0
   42.5910   82.8910   55.9720 O   0  0  0  0  0  0  0  0  0  0  0  0
   42.3140   84.0770   55.2550 C   0  0  0  0  0  0  0  0  0  0  0  0
   42.1890   84.9560   55.8910 H   0  0  0  0  0  0  0  0  0  0  0  0
   41.3290   83.9220   54.7680 H   0  0  0  0  0  0  0  0  0  0  0  0
   43.3250   84.2250   54.1900 C   0  0  0  0  0  0  0  0  0  0  0  0
   44.4780   84.8960   54.5080 N   0  0  0  0  0  0  0  0  0  0  0  0
   45.4440   85.1480   53.6110 C   0  0  0  0  0  3  0  0  0  0  0  0
   45.3610   84.7570   52.3110 N   0  0  0  0  0  0  0  0  0  0  0  0
   44.2530   84.0890   51.9280 C   0  0  0  0  0  0  0  0  0  0  0  0
   44.0810   83.6400   50.6350 C   0  0  0  0  0  3  0  0  0  0  0  0
   42.9460   82.9410   50.2490 C   0  0  0  0  0  0  0  0  0  0  0  0
   42.7860   82.5740   49.2250 H   0  0  0  0  0  0  0  0  0  0  0  0
   41.9610   82.6930   51.2050 C   0  0  0  0  0  0  0  0  0  0  0  0
   41.0740   82.1420   50.9040 H   0  0  0  0  0  0  0  0  0  0  0  0
   42.1750   83.1610   52.4810 C   0  0  0  0  0  3  0  0  0  0  0  0
   43.2790   83.8460   52.8680 C   0  0  0  0  0  0  0  0  0  0  0  0
  2  1  1  0  0  0  0
  2  3  1  0  0  0  0
  3 12  1  0  0  0  0
  4  3  2  0  0  0  0
  4  9  1  0  0  0  0
  5  4  1  0  0  0  0
  6  8  1  0  0  0  0
  6  5  2  0  0  0  0
  7  6  1  0  0  0  0
  8  2  2  0  0  0  0
 10  5  1  0  0  0  0
 11 16  1  0  0  0  0
 12 13  1  0  0  0  0
 12 11  2  0  0  0  0
 13 14  2  0  0  0  0
 14 15  1  0  0  0  0
 15 19  1  0  0  0  0
 16 15  2  0  0  0  0
 17 11  1  0  0  0  0
 18 13  1  0  0  0  0
 19 22  1  0  0  0  0
 19 21  1  0  0  0  0
 20 19  1  0  0  0  0
 23  8  1  0  0  0  0
 24 25  1  0  0  0  0
 24 23  1  0  0  0  0
 26 24  1  0  0  0  0
 27 28  1  0  0  0  0
 27 24  1  0  0  0  0
 29 28  2  0  0  0  0
 30 29  1  0  0  0  0
 31 30  2  0  0  0  0
 31 38  1  0  0  0  0
 32 31  1  0  0  0  0
 33 32  2  0  0  0  0
 33 35  1  0  0  0  0
 34 33  1  0  0  0  0
 35 37  2  0  0  0  0
 36 35  1  0  0  0  0
 37 38  1  0  0  0  0
 38 27  2  0  0  0  0
M  END
>  <minimizedAffinity>
-5.30479622

>  <minimizedRMSD>
0.704819024

$$$$
