
 OpenBabel03212520183D

 38 41  0  0  0  0  0  0  0  0999 V2000
   42.9960   83.8510   58.6030 Cl  0  0  0  0  0  0  0  0  0  0  0  0
   41.7820   82.6530   58.2570 C   0  0  0  0  0  0  0  0  0  0  0  0
   40.9330   82.1330   59.2200 C   0  0  0  0  0  0  0  0  0  0  0  0
   40.0280   81.1860   58.7830 C   0  0  0  0  0  0  0  0  0  0  0  0
   39.8880   80.7120   57.4980 C   0  0  0  0  0  0  0  0  0  0  0  0
   40.7500   81.2550   56.5720 C   0  0  0  0  0  0  0  0  0  0  0  0
   40.6730   80.7320   54.8930 Cl  0  0  0  0  0  0  0  0  0  0  0  0
   41.6920   82.2240   56.9640 C   0  0  0  0  0  0  0  0  0  0  0  0
   39.3680   80.7910   59.5540 H   0  0  0  0  0  0  0  0  0  0  0  0
   39.1490   79.9660   57.2450 H   0  0  0  0  0  0  0  0  0  0  0  0
   41.9230   82.1260   61.5590 C   0  0  0  0  0  0  0  0  0  0  0  0
   41.0510   82.6010   60.5590 C   0  0  0  0  0  0  0  0  0  0  0  0
   40.2020   83.6480   60.9050 C   0  0  0  0  0  0  0  0  0  0  0  0
   40.2860   84.1290   62.1810 N   0  0  0  0  0  0  0  0  0  0  0  0
   41.1230   83.6590   63.1050 C   0  0  0  0  0  0  0  0  0  0  0  0
   41.9590   82.6360   62.7890 N   0  0  0  0  0  0  0  0  0  0  0  0
   42.5480   81.3120   61.2160 H   0  0  0  0  0  0  0  0  0  0  0  0
   39.4760   84.1170   60.2370 H   0  0  0  0  0  0  0  0  0  0  0  0
   41.0680   84.3190   64.4310 C   0  0  0  0  0  0  0  0  0  0  0  0
   40.7450   85.6500   64.3370 F   0  0  0  0  0  0  0  0  0  0  0  0
   40.1190   83.6780   65.2300 F   0  0  0  0  0  0  0  0  0  0  0  0
   42.3180   84.2780   65.0720 F   0  0  0  0  0  0  0  0  0  0  0  0
   42.5250   82.7240   55.9780 O   0  0  0  0  0  0  0  0  0  0  0  0
   42.3110   83.9450   55.2990 C   0  0  0  0  0  0  0  0  0  0  0  0
   42.6990   84.8170   55.8310 H   0  0  0  0  0  0  0  0  0  0  0  0
   41.2120   84.0890   55.2580 H   0  0  0  0  0  0  0  0  0  0  0  0
   42.7990   83.8000   53.9140 C   0  0  0  0  0  0  0  0  0  0  0  0
   41.9480   83.2210   53.0060 N   0  0  0  0  0  0  0  0  0  0  0  0
   42.2980   82.9800   51.7330 C   0  0  0  0  0  3  0  0  0  0  0  0
   43.5260   83.2900   51.2360 N   0  0  0  0  0  0  0  0  0  0  0  0
   44.4120   83.8650   52.0740 C   0  0  0  0  0  0  0  0  0  0  0  0
   45.6780   84.2290   51.6600 C   0  0  0  0  0  3  0  0  0  0  0  0
   46.5820   84.8330   52.5220 C   0  0  0  0  0  0  0  0  0  0  0  0
   47.5970   85.1320   52.2160 H   0  0  0  0  0  0  0  0  0  0  0  0
   46.1880   85.0740   53.8370 C   0  0  0  0  0  0  0  0  0  0  0  0
   46.8940   85.5510   54.5120 H   0  0  0  0  0  0  0  0  0  0  0  0
   44.9180   84.6930   54.2050 C   0  0  0  0  0  3  0  0  0  0  0  0
   44.0270   84.1000   53.3720 C   0  0  0  0  0  0  0  0  0  0  0  0
  2  1  1  0  0  0  0
  2  3  1  0  0  0  0
  3 12  1  0  0  0  0
  4  3  2  0  0  0  0
  4  9  1  0  0  0  0
  5  4  1  0  0  0  0
  6  8  1  0  0  0  0
  6  5  2  0  0  0  0
  7  6  1  0  0  0  0
  8  2  2  0  0  0  0
 10  5  1  0  0  0  0
 11 16  1  0  0  0  0
 12 13  1  0  0  0  0
 12 11  2  0  0  0  0
 13 14  2  0  0  0  0
 14 15  1  0  0  0  0
 15 19  1  0  0  0  0
 16 15  2  0  0  0  0
 17 11  1  0  0  0  0
 18 13  1  0  0  0  0
 19 22  1  0  0  0  0
 19 21  1  0  0  0  0
 20 19  1  0  0  0  0
 23  8  1  0  0  0  0
 24 25  1  0  0  0  0
 24 23  1  0  0  0  0
 26 24  1  0  0  0  0
 27 24  1  0  0  0  0
 28 27  2  0  0  0  0
 29 28  1  0  0  0  0
 30 29  2  0  0  0  0
 30 31  1  0  0  0  0
 31 38  1  0  0  0  0
 32 31  2  0  0  0  0
 32 33  1  0  0  0  0
 33 35  2  0  0  0  0
 34 33  1  0  0  0  0
 35 37  1  0  0  0  0
 35 36  1  0  0  0  0
 38 27  1  0  0  0  0
 38 37  2  0  0  0  0
M  END
>  <minimizedAffinity>
-5.24255562

>  <minimizedRMSD>
1.41570985

$$$$
