
 OpenBabel03212520143D

 34 37  0  0  0  0  0  0  0  0999 V2000
   41.7680   71.0140   62.1030 Cl  0  0  0  0  0  0  0  0  0  0  0  0
   41.9140   70.5120   60.4130 C   0  0  0  0  0  0  0  0  0  0  0  0
   41.5670   71.3330   59.3600 C   0  0  0  0  0  0  0  0  0  0  0  0
   41.7400   70.7890   58.0960 C   0  0  0  0  0  0  0  0  0  0  0  0
   42.2210   69.5200   57.8230 C   0  0  0  0  0  0  0  0  0  0  0  0
   42.5510   68.7460   58.8980 C   0  0  0  0  0  0  0  0  0  0  0  0
   43.1720   67.1160   58.6760 Cl  0  0  0  0  0  0  0  0  0  0  0  0
   42.3950   69.2450   60.1700 C   0  0  0  0  0  0  0  0  0  0  0  0
   41.4680   71.4350   57.2570 H   0  0  0  0  0  0  0  0  0  0  0  0
   42.3240   69.1800   56.8010 H   0  0  0  0  0  0  0  0  0  0  0  0
   42.7620   68.3740   61.2950 C   0  0  0  0  0  0  0  0  0  0  0  0
   44.0180   68.5520   61.7520 N   0  0  0  0  0  0  0  0  0  0  0  0
   44.4350   67.7830   62.7930 C   0  0  0  0  0  3  0  0  0  0  0  0
   43.6370   66.8500   63.3850 N   0  0  0  0  0  0  0  0  0  0  0  0
   42.3700   66.6650   62.9290 C   0  0  0  0  0  0  0  0  0  0  0  0
   41.5100   65.7360   63.4840 C   0  0  0  0  0  3  0  0  0  0  0  0
   40.2300   65.5810   62.9900 C   0  0  0  0  0  0  0  0  0  0  0  0
   39.5900   64.8430   63.4520 H   0  0  0  0  0  0  0  0  0  0  0  0
   39.8260   66.3710   61.9340 C   0  0  0  0  0  0  0  0  0  0  0  0
   38.8060   66.2400   61.5470 H   0  0  0  0  0  0  0  0  0  0  0  0
   40.6410   67.3220   61.3310 C   0  0  0  0  0  3  0  0  0  0  0  0
   41.9090   67.4380   61.8610 C   0  0  0  0  0  0  0  0  0  0  0  0
   39.7510   72.9930   59.9750 C   0  0  0  0  0  0  0  0  0  0  0  0
   41.0690   72.6460   59.6240 C   0  0  0  0  0  0  0  0  0  0  0  0
   42.0090   73.6690   59.5130 C   0  0  0  0  0  0  0  0  0  0  0  0
   41.5710   74.9360   59.7560 N   0  0  0  0  0  0  0  0  0  0  0  0
   40.3150   75.2440   60.0890 C   0  0  0  0  0  0  0  0  0  0  0  0
   39.4090   74.2700   60.1970 N   0  0  0  0  0  0  0  0  0  0  0  0
   39.0600   72.1630   60.0480 H   0  0  0  0  0  0  0  0  0  0  0  0
   43.0490   73.5120   59.2480 H   0  0  0  0  0  0  0  0  0  0  0  0
   40.0340   76.6900   60.3170 C   0  0  0  0  0  0  0  0  0  0  0  0
   41.1930   77.4490   60.2860 F   0  0  0  0  0  0  0  0  0  0  0  0
   39.2050   77.1650   59.3140 F   0  0  0  0  0  0  0  0  0  0  0  0
   39.4730   76.9050   61.5610 F   0  0  0  0  0  0  0  0  0  0  0  0
  2  1  1  0  0  0  0
  3 24  1  0  0  0  0
  3  2  2  0  0  0  0
  4  3  1  0  0  0  0
  5  4  2  0  0  0  0
  5  6  1  0  0  0  0
  6  8  2  0  0  0  0
  7  6  1  0  0  0  0
  8  2  1  0  0  0  0
  8 11  1  0  0  0  0
  9  4  1  0  0  0  0
 10  5  1  0  0  0  0
 11 12  2  0  0  0  0
 11 22  1  0  0  0  0
 12 13  1  0  0  0  0
 13 14  2  0  0  0  0
 15 14  1  0  0  0  0
 15 16  1  0  0  0  0
 17 18  1  0  0  0  0
 17 16  2  0  0  0  0
 19 17  1  0  0  0  0
 20 19  1  0  0  0  0
 21 22  1  0  0  0  0
 21 19  2  0  0  0  0
 22 15  2  0  0  0  0
 23 29  1  0  0  0  0
 23 28  1  0  0  0  0
 24 23  2  0  0  0  0
 25 24  1  0  0  0  0
 25 26  2  0  0  0  0
 26 27  1  0  0  0  0
 27 28  2  0  0  0  0
 27 31  1  0  0  0  0
 30 25  1  0  0  0  0
 31 34  1  0  0  0  0
 32 31  1  0  0  0  0
 33 31  1  0  0  0  0
M  END
>  <minimizedAffinity>
-6.48956299

$$$$

 OpenBabel03212520143D

 34 37  0  0  0  0  0  0  0  0999 V2000
   42.0610   71.1590   58.5450 Cl  0  0  0  0  0  0  0  0  0  0  0  0
   41.8810   71.3390   60.2960 C   0  0  0  0  0  0  0  0  0  0  0  0
   41.1030   72.3250   60.8670 C   0  0  0  0  0  0  0  0  0  0  0  0
   41.0680   72.3300   62.2530 C   0  0  0  0  0  0  0  0  0  0  0  0
   41.7370   71.4460   63.0800 C   0  0  0  0  0  0  0  0  0  0  0  0
   42.4940   70.4880   62.4680 C   0  0  0  0  0  0  0  0  0  0  0  0
   43.3910   69.3080   63.4150 Cl  0  0  0  0  0  0  0  0  0  0  0  0
   42.5580   70.4450   61.0950 C   0  0  0  0  0  0  0  0  0  0  0  0
   40.4530   73.1090   62.7120 H   0  0  0  0  0  0  0  0  0  0  0  0
   41.6500   71.5260   64.1560 H   0  0  0  0  0  0  0  0  0  0  0  0
   43.3860   69.3980   60.4820 C   0  0  0  0  0  0  0  0  0  0  0  0
   44.6040   69.8130   60.0800 N   0  0  0  0  0  0  0  0  0  0  0  0
   45.4310   68.9030   59.5010 C   0  0  0  0  0  3  0  0  0  0  0  0
   45.0770   67.5990   59.3150 N   0  0  0  0  0  0  0  0  0  0  0  0
   43.8500   67.1740   59.7170 C   0  0  0  0  0  0  0  0  0  0  0  0
   43.4280   65.8670   59.5580 C   0  0  0  0  0  3  0  0  0  0  0  0
   42.1740   65.4780   59.9810 C   0  0  0  0  0  0  0  0  0  0  0  0
   41.8830   64.4470   59.8370 H   0  0  0  0  0  0  0  0  0  0  0  0
   41.3490   66.4170   60.5660 C   0  0  0  0  0  0  0  0  0  0  0  0
   40.3520   66.0980   60.8990 H   0  0  0  0  0  0  0  0  0  0  0  0
   41.7130   67.7450   60.7550 C   0  0  0  0  0  3  0  0  0  0  0  0
   42.9750   68.0830   60.3150 C   0  0  0  0  0  0  0  0  0  0  0  0
   39.1570   73.0460   59.4090 C   0  0  0  0  0  0  0  0  0  0  0  0
   40.4050   73.2470   60.0270 C   0  0  0  0  0  0  0  0  0  0  0  0
   41.0540   74.4620   59.8160 C   0  0  0  0  0  0  0  0  0  0  0  0
   40.4200   75.3680   59.0200 N   0  0  0  0  0  0  0  0  0  0  0  0
   39.2340   75.1580   58.4430 C   0  0  0  0  0  0  0  0  0  0  0  0
   38.6070   73.9960   58.6400 N   0  0  0  0  0  0  0  0  0  0  0  0
   38.6950   72.0880   59.6050 H   0  0  0  0  0  0  0  0  0  0  0  0
   42.0170   74.7200   60.2440 H   0  0  0  0  0  0  0  0  0  0  0  0
   38.7050   76.2730   57.6080 C   0  0  0  0  0  0  0  0  0  0  0  0
   38.7110   77.4770   58.2950 F   0  0  0  0  0  0  0  0  0  0  0  0
   39.5040   76.4350   56.4880 F   0  0  0  0  0  0  0  0  0  0  0  0
   37.3910   76.0520   57.2440 F   0  0  0  0  0  0  0  0  0  0  0  0
  1  2  1  0  0  0  0
  2  3  2  0  0  0  0
  2  8  1  0  0  0  0
  3  4  1  0  0  0  0
  4  9  1  0  0  0  0
  4  5  2  0  0  0  0
  5 10  1  0  0  0  0
  6  5  1  0  0  0  0
  6  7  1  0  0  0  0
  8  6  2  0  0  0  0
 11  8  1  0  0  0  0
 12 11  2  0  0  0  0
 13 12  1  0  0  0  0
 14 13  2  0  0  0  0
 14 15  1  0  0  0  0
 15 22  1  0  0  0  0
 16 15  2  0  0  0  0
 16 17  1  0  0  0  0
 17 19  2  0  0  0  0
 18 17  1  0  0  0  0
 19 21  1  0  0  0  0
 19 20  1  0  0  0  0
 22 11  1  0  0  0  0
 22 21  2  0  0  0  0
 23 29  1  0  0  0  0
 23 24  1  0  0  0  0
 24  3  1  0  0  0  0
 25 24  2  0  0  0  0
 25 30  1  0  0  0  0
 26 25  1  0  0  0  0
 27 28  1  0  0  0  0
 27 26  2  0  0  0  0
 28 23  2  0  0  0  0
 31 32  1  0  0  0  0
 31 27  1  0  0  0  0
 33 31  1  0  0  0  0
 34 31  1  0  0  0  0
M  END
>  <minimizedAffinity>
-6.47050905

$$$$

 OpenBabel03212520143D

 34 37  0  0  0  0  0  0  0  0999 V2000
   40.2450   72.4490   57.6050 Cl  0  0  0  0  0  0  0  0  0  0  0  0
   41.4010   71.7600   58.7540 C   0  0  0  0  0  0  0  0  0  0  0  0
   42.1950   70.6730   58.4500 C   0  0  0  0  0  0  0  0  0  0  0  0
   43.0470   70.2550   59.4600 C   0  0  0  0  0  0  0  0  0  0  0  0
   43.1570   70.8320   60.7140 C   0  0  0  0  0  0  0  0  0  0  0  0
   42.3520   71.9050   60.9660 C   0  0  0  0  0  0  0  0  0  0  0  0
   42.4010   72.7210   62.5230 Cl  0  0  0  0  0  0  0  0  0  0  0  0
   41.4900   72.3540   59.9930 C   0  0  0  0  0  0  0  0  0  0  0  0
   43.6790   69.3940   59.2260 H   0  0  0  0  0  0  0  0  0  0  0  0
   43.8540   70.4370   61.4420 H   0  0  0  0  0  0  0  0  0  0  0  0
   40.6420   73.5110   60.3110 C   0  0  0  0  0  0  0  0  0  0  0  0
   39.4620   73.1980   60.8830 N   0  0  0  0  0  0  0  0  0  0  0  0
   38.6190   74.2140   61.2080 C   0  0  0  0  0  3  0  0  0  0  0  0
   38.9210   75.5230   60.9790 N   0  0  0  0  0  0  0  0  0  0  0  0
   40.1090   75.8460   60.4020 C   0  0  0  0  0  0  0  0  0  0  0  0
   40.4770   77.1530   60.1420 C   0  0  0  0  0  3  0  0  0  0  0  0
   41.6940   77.4360   59.5540 C   0  0  0  0  0  0  0  0  0  0  0  0
   41.9430   78.4710   59.3680 H   0  0  0  0  0  0  0  0  0  0  0  0
   42.5350   76.3910   59.2330 C   0  0  0  0  0  0  0  0  0  0  0  0
   43.5010   76.6260   58.7650 H   0  0  0  0  0  0  0  0  0  0  0  0
   42.2250   75.0560   59.4680 C   0  0  0  0  0  3  0  0  0  0  0  0
   40.9990   74.8270   60.0550 C   0  0  0  0  0  0  0  0  0  0  0  0
   42.6020   70.5700   55.9490 C   0  0  0  0  0  0  0  0  0  0  0  0
   42.0940   70.0650   57.1610 C   0  0  0  0  0  0  0  0  0  0  0  0
   41.4170   68.8480   57.1320 C   0  0  0  0  0  0  0  0  0  0  0  0
   41.3000   68.2370   55.9200 N   0  0  0  0  0  0  0  0  0  0  0  0
   41.7900   68.7330   54.7810 C   0  0  0  0  0  0  0  0  0  0  0  0
   42.4390   69.8980   54.8000 N   0  0  0  0  0  0  0  0  0  0  0  0
   43.1190   71.5160   56.0260 H   0  0  0  0  0  0  0  0  0  0  0  0
   40.9870   68.3700   58.0060 H   0  0  0  0  0  0  0  0  0  0  0  0
   41.5590   67.9130   53.5570 C   0  0  0  0  0  0  0  0  0  0  0  0
   41.9780   68.5710   52.4120 F   0  0  0  0  0  0  0  0  0  0  0  0
   42.2830   66.7360   53.6430 F   0  0  0  0  0  0  0  0  0  0  0  0
   40.2150   67.6510   53.3730 F   0  0  0  0  0  0  0  0  0  0  0  0
  1  2  1  0  0  0  0
  2  8  1  0  0  0  0
  3  2  2  0  0  0  0
  3  4  1  0  0  0  0
  4  5  2  0  0  0  0
  5  6  1  0  0  0  0
  5 10  1  0  0  0  0
  6  7  1  0  0  0  0
  8 11  1  0  0  0  0
  8  6  2  0  0  0  0
  9  4  1  0  0  0  0
 11 12  1  0  0  0  0
 12 13  2  0  0  0  0
 14 13  1  0  0  0  0
 15 14  2  0  0  0  0
 16 15  1  0  0  0  0
 17 16  2  0  0  0  0
 18 17  1  0  0  0  0
 19 21  2  0  0  0  0
 19 17  1  0  0  0  0
 20 19  1  0  0  0  0
 21 22  1  0  0  0  0
 22 11  2  0  0  0  0
 22 15  1  0  0  0  0
 23 29  1  0  0  0  0
 23 24  1  0  0  0  0
 24  3  1  0  0  0  0
 25 24  2  0  0  0  0
 25 30  1  0  0  0  0
 26 25  1  0  0  0  0
 27 28  1  0  0  0  0
 27 26  2  0  0  0  0
 28 23  2  0  0  0  0
 31 33  1  0  0  0  0
 31 27  1  0  0  0  0
 32 31  1  0  0  0  0
 34 31  1  0  0  0  0
M  END
>  <minimizedAffinity>
-6.45830202

$$$$

 OpenBabel03212520143D

 34 37  0  0  0  0  0  0  0  0999 V2000
   39.9400   72.4420   60.5610 Cl  0  0  0  0  0  0  0  0  0  0  0  0
   41.5840   72.5760   59.9210 C   0  0  0  0  0  0  0  0  0  0  0  0
   42.5240   71.5770   60.0670 C   0  0  0  0  0  0  0  0  0  0  0  0
   43.7650   71.8390   59.5080 C   0  0  0  0  0  0  0  0  0  0  0  0
   44.1200   72.9950   58.8350 C   0  0  0  0  0  0  0  0  0  0  0  0
   43.1560   73.9540   58.7170 C   0  0  0  0  0  0  0  0  0  0  0  0
   43.4880   75.4670   57.8830 Cl  0  0  0  0  0  0  0  0  0  0  0  0
   41.9100   73.7380   59.2560 C   0  0  0  0  0  0  0  0  0  0  0  0
   44.5150   71.0500   59.6190 H   0  0  0  0  0  0  0  0  0  0  0  0
   45.1170   73.1110   58.4300 H   0  0  0  0  0  0  0  0  0  0  0  0
   40.9050   74.7990   59.1040 C   0  0  0  0  0  0  0  0  0  0  0  0
   40.9350   75.7380   60.0720 N   0  0  0  0  0  0  0  0  0  0  0  0
   40.0350   76.7550   60.0040 C   0  0  0  0  0  3  0  0  0  0  0  0
   39.1150   76.8590   59.0030 N   0  0  0  0  0  0  0  0  0  0  0  0
   39.0800   75.9160   58.0250 C   0  0  0  0  0  0  0  0  0  0  0  0
   38.1730   75.9620   56.9820 C   0  0  0  0  0  3  0  0  0  0  0  0
   38.1710   74.9830   56.0100 C   0  0  0  0  0  0  0  0  0  0  0  0
   37.4450   75.0550   55.2120 H   0  0  0  0  0  0  0  0  0  0  0  0
   39.0920   73.9590   56.0960 C   0  0  0  0  0  0  0  0  0  0  0  0
   39.0830   73.1840   55.3180 H   0  0  0  0  0  0  0  0  0  0  0  0
   40.0300   73.8550   57.1180 C   0  0  0  0  0  3  0  0  0  0  0  0
   39.9890   74.8570   58.0640 C   0  0  0  0  0  0  0  0  0  0  0  0
   42.0910   70.2010   62.1520 C   0  0  0  0  0  0  0  0  0  0  0  0
   42.1740   70.3760   60.7590 C   0  0  0  0  0  0  0  0  0  0  0  0
   41.8950   69.2830   59.9410 C   0  0  0  0  0  0  0  0  0  0  0  0
   41.5590   68.1190   60.5640 N   0  0  0  0  0  0  0  0  0  0  0  0
   41.4840   67.9730   61.8900 C   0  0  0  0  0  0  0  0  0  0  0  0
   41.7510   69.0160   62.6790 N   0  0  0  0  0  0  0  0  0  0  0  0
   42.3170   71.0790   62.7420 H   0  0  0  0  0  0  0  0  0  0  0  0
   41.9300   69.3090   58.8570 H   0  0  0  0  0  0  0  0  0  0  0  0
   41.0980   66.6190   62.3790 C   0  0  0  0  0  0  0  0  0  0  0  0
   41.3210   65.6440   61.4200 F   0  0  0  0  0  0  0  0  0  0  0  0
   41.8610   66.2890   63.4860 F   0  0  0  0  0  0  0  0  0  0  0  0
   39.7500   66.5560   62.6760 F   0  0  0  0  0  0  0  0  0  0  0  0
  2  3  1  0  0  0  0
  2  1  1  0  0  0  0
  3 24  1  0  0  0  0
  4  9  1  0  0  0  0
  4  3  2  0  0  0  0
  5  4  1  0  0  0  0
  6  5  2  0  0  0  0
  6  8  1  0  0  0  0
  7  6  1  0  0  0  0
  8  2  2  0  0  0  0
 10  5  1  0  0  0  0
 11  8  1  0  0  0  0
 11 12  1  0  0  0  0
 13 12  2  0  0  0  0
 14 13  1  0  0  0  0
 15 22  1  0  0  0  0
 15 14  2  0  0  0  0
 16 15  1  0  0  0  0
 17 19  1  0  0  0  0
 17 16  2  0  0  0  0
 18 17  1  0  0  0  0
 19 21  2  0  0  0  0
 20 19  1  0  0  0  0
 21 22  1  0  0  0  0
 22 11  2  0  0  0  0
 23 28  1  0  0  0  0
 23 29  1  0  0  0  0
 24 23  2  0  0  0  0
 25 26  2  0  0  0  0
 25 24  1  0  0  0  0
 26 27  1  0  0  0  0
 27 31  1  0  0  0  0
 27 28  2  0  0  0  0
 30 25  1  0  0  0  0
 31 34  1  0  0  0  0
 31 33  1  0  0  0  0
 32 31  1  0  0  0  0
M  END
>  <minimizedAffinity>
-6.27537203

$$$$

 OpenBabel03212520143D

 34 37  0  0  0  0  0  0  0  0999 V2000
   41.8050   72.0800   61.6290 Cl  0  0  0  0  0  0  0  0  0  0  0  0
   41.3640   71.5970   59.9850 C   0  0  0  0  0  0  0  0  0  0  0  0
   41.7880   70.4120   59.4180 C   0  0  0  0  0  0  0  0  0  0  0  0
   41.3560   70.1830   58.1210 C   0  0  0  0  0  0  0  0  0  0  0  0
   40.5550   71.0300   57.3750 C   0  0  0  0  0  0  0  0  0  0  0  0
   40.1610   72.1890   57.9800 C   0  0  0  0  0  0  0  0  0  0  0  0
   39.1420   73.3450   57.1320 Cl  0  0  0  0  0  0  0  0  0  0  0  0
   40.5660   72.4580   59.2660 C   0  0  0  0  0  0  0  0  0  0  0  0
   41.6880   69.2450   57.6660 H   0  0  0  0  0  0  0  0  0  0  0  0
   40.2650   70.7660   56.3660 H   0  0  0  0  0  0  0  0  0  0  0  0
   40.1190   73.7190   59.8740 C   0  0  0  0  0  0  0  0  0  0  0  0
   38.9800   73.6200   60.5880 N   0  0  0  0  0  0  0  0  0  0  0  0
   38.4980   74.7440   61.1830 C   0  0  0  0  0  3  0  0  0  0  0  0
   39.1200   75.9530   61.0840 N   0  0  0  0  0  0  0  0  0  0  0  0
   40.2680   76.0600   60.3660 C   0  0  0  0  0  0  0  0  0  0  0  0
   40.9480   77.2560   60.2250 C   0  0  0  0  0  3  0  0  0  0  0  0
   42.1120   77.3190   59.4850 C   0  0  0  0  0  0  0  0  0  0  0  0
   42.6120   78.2740   59.4000 H   0  0  0  0  0  0  0  0  0  0  0  0
   42.5840   76.1680   58.8900 C   0  0  0  0  0  0  0  0  0  0  0  0
   43.5100   76.2280   58.3030 H   0  0  0  0  0  0  0  0  0  0  0  0
   41.9480   74.9350   58.9920 C   0  0  0  0  0  3  0  0  0  0  0  0
   40.7900   74.9250   59.7410 C   0  0  0  0  0  0  0  0  0  0  0  0
   42.2240   68.7370   61.2720 C   0  0  0  0  0  0  0  0  0  0  0  0
   42.6160   69.5250   60.1740 C   0  0  0  0  0  0  0  0  0  0  0  0
   43.9440   69.4570   59.7570 C   0  0  0  0  0  0  0  0  0  0  0  0
   44.7650   68.6220   60.4530 N   0  0  0  0  0  0  0  0  0  0  0  0
   44.3730   67.8810   61.4930 C   0  0  0  0  0  0  0  0  0  0  0  0
   43.1030   67.9420   61.8980 N   0  0  0  0  0  0  0  0  0  0  0  0
   41.1840   68.8270   61.5550 H   0  0  0  0  0  0  0  0  0  0  0  0
   44.3500   70.0210   58.9240 H   0  0  0  0  0  0  0  0  0  0  0  0
   45.4220   67.0300   62.1230 C   0  0  0  0  0  0  0  0  0  0  0  0
   45.1520   65.6800   61.9640 F   0  0  0  0  0  0  0  0  0  0  0  0
   46.6440   67.2780   61.5210 F   0  0  0  0  0  0  0  0  0  0  0  0
   45.4930   67.2430   63.4860 F   0  0  0  0  0  0  0  0  0  0  0  0
  2  1  1  0  0  0  0
  3  2  1  0  0  0  0
  3 24  1  0  0  0  0
  4  3  2  0  0  0  0
  5  6  2  0  0  0  0
  5  4  1  0  0  0  0
  6  8  1  0  0  0  0
  7  6  1  0  0  0  0
  8 11  1  0  0  0  0
  8  2  2  0  0  0  0
  9  4  1  0  0  0  0
 10  5  1  0  0  0  0
 11 12  1  0  0  0  0
 12 13  2  0  0  0  0
 14 13  1  0  0  0  0
 15 14  2  0  0  0  0
 16 15  1  0  0  0  0
 17 16  2  0  0  0  0
 18 17  1  0  0  0  0
 19 21  2  0  0  0  0
 19 17  1  0  0  0  0
 20 19  1  0  0  0  0
 21 22  1  0  0  0  0
 22 11  2  0  0  0  0
 22 15  1  0  0  0  0
 23 29  1  0  0  0  0
 23 28  1  0  0  0  0
 24 23  2  0  0  0  0
 25 24  1  0  0  0  0
 25 26  2  0  0  0  0
 26 27  1  0  0  0  0
 27 28  2  0  0  0  0
 27 31  1  0  0  0  0
 30 25  1  0  0  0  0
 31 34  1  0  0  0  0
 32 31  1  0  0  0  0
 33 31  1  0  0  0  0
M  END
>  <minimizedAffinity>
-6.24912357

$$$$

 OpenBabel03212520143D

 34 37  0  0  0  0  0  0  0  0999 V2000
   39.7080   72.2500   59.5990 Cl  0  0  0  0  0  0  0  0  0  0  0  0
   41.3060   73.0000   59.7310 C   0  0  0  0  0  0  0  0  0  0  0  0
   42.3380   72.4330   60.4490 C   0  0  0  0  0  0  0  0  0  0  0  0
   43.5260   73.1470   60.4540 C   0  0  0  0  0  0  0  0  0  0  0  0
   43.7450   74.3520   59.8100 C   0  0  0  0  0  0  0  0  0  0  0  0
   42.6940   74.8730   59.1110 C   0  0  0  0  0  0  0  0  0  0  0  0
   42.8520   76.4000   58.2520 Cl  0  0  0  0  0  0  0  0  0  0  0  0
   41.4960   74.1990   59.0800 C   0  0  0  0  0  0  0  0  0  0  0  0
   44.3480   72.7020   61.0210 H   0  0  0  0  0  0  0  0  0  0  0  0
   44.7100   74.8390   59.8680 H   0  0  0  0  0  0  0  0  0  0  0  0
   40.3930   74.7990   58.3170 C   0  0  0  0  0  0  0  0  0  0  0  0
   39.6880   75.7280   58.9930 N   0  0  0  0  0  0  0  0  0  0  0  0
   38.6490   76.3310   58.3550 C   0  0  0  0  0  3  0  0  0  0  0  0
   38.3000   76.0330   57.0720 N   0  0  0  0  0  0  0  0  0  0  0  0
   39.0070   75.0970   56.3850 C   0  0  0  0  0  0  0  0  0  0  0  0
   38.7050   74.7480   55.0810 C   0  0  0  0  0  3  0  0  0  0  0  0
   39.4490   73.7920   54.4210 C   0  0  0  0  0  0  0  0  0  0  0  0
   39.1800   73.5480   53.4030 H   0  0  0  0  0  0  0  0  0  0  0  0
   40.5000   73.1920   55.0840 C   0  0  0  0  0  0  0  0  0  0  0  0
   41.0860   72.4320   54.5510 H   0  0  0  0  0  0  0  0  0  0  0  0
   40.8540   73.4980   56.3940 C   0  0  0  0  0  3  0  0  0  0  0  0
   40.0800   74.4580   57.0090 C   0  0  0  0  0  0  0  0  0  0  0  0
   41.7610   71.0090   62.4670 C   0  0  0  0  0  0  0  0  0  0  0  0
   42.1280   71.1880   61.1210 C   0  0  0  0  0  0  0  0  0  0  0  0
   42.3170   70.0530   60.3350 C   0  0  0  0  0  0  0  0  0  0  0  0
   42.1280   68.8480   60.9400 N   0  0  0  0  0  0  0  0  0  0  0  0
   41.7780   68.6980   62.2210 C   0  0  0  0  0  0  0  0  0  0  0  0
   41.5960   69.7810   62.9790 N   0  0  0  0  0  0  0  0  0  0  0  0
   41.6260   71.9200   63.0330 H   0  0  0  0  0  0  0  0  0  0  0  0
   42.6010   70.0780   59.2880 H   0  0  0  0  0  0  0  0  0  0  0  0
   41.6180   67.2950   62.6960 C   0  0  0  0  0  0  0  0  0  0  0  0
   40.4890   67.1450   63.4860 F   0  0  0  0  0  0  0  0  0  0  0  0
   41.4740   66.4490   61.6090 F   0  0  0  0  0  0  0  0  0  0  0  0
   42.6850   66.9050   63.4830 F   0  0  0  0  0  0  0  0  0  0  0  0
  1  2  1  0  0  0  0
  2  3  1  0  0  0  0
  3  4  2  0  0  0  0
  3 24  1  0  0  0  0
  4  9  1  0  0  0  0
  5 10  1  0  0  0  0
  5  4  1  0  0  0  0
  6  5  2  0  0  0  0
  7  6  1  0  0  0  0
  8  6  1  0  0  0  0
  8  2  2  0  0  0  0
 11 12  1  0  0  0  0
 11  8  1  0  0  0  0
 13 12  2  0  0  0  0
 14 13  1  0  0  0  0
 15 22  1  0  0  0  0
 15 14  2  0  0  0  0
 16 15  1  0  0  0  0
 17 16  2  0  0  0  0
 17 19  1  0  0  0  0
 18 17  1  0  0  0  0
 19 21  2  0  0  0  0
 20 19  1  0  0  0  0
 21 22  1  0  0  0  0
 22 11  2  0  0  0  0
 23 28  1  0  0  0  0
 23 29  1  0  0  0  0
 24 23  2  0  0  0  0
 25 26  2  0  0  0  0
 25 24  1  0  0  0  0
 26 27  1  0  0  0  0
 27 31  1  0  0  0  0
 27 28  2  0  0  0  0
 30 25  1  0  0  0  0
 31 34  1  0  0  0  0
 31 32  1  0  0  0  0
 33 31  1  0  0  0  0
M  END
>  <minimizedAffinity>
-6.2464571

$$$$

 OpenBabel03212520143D

 34 37  0  0  0  0  0  0  0  0999 V2000
   39.8610   71.8910   58.9540 Cl  0  0  0  0  0  0  0  0  0  0  0  0
   41.4080   72.5680   59.4820 C   0  0  0  0  0  0  0  0  0  0  0  0
   42.3680   71.8170   60.1280 C   0  0  0  0  0  0  0  0  0  0  0  0
   43.5250   72.4960   60.4760 C   0  0  0  0  0  0  0  0  0  0  0  0
   43.7800   73.8350   60.2300 C   0  0  0  0  0  0  0  0  0  0  0  0
   42.8000   74.5360   59.5880 C   0  0  0  0  0  0  0  0  0  0  0  0
   43.0070   76.2440   59.2220 Cl  0  0  0  0  0  0  0  0  0  0  0  0
   41.6350   73.9020   59.2250 C   0  0  0  0  0  0  0  0  0  0  0  0
   44.2900   71.9060   60.9870 H   0  0  0  0  0  0  0  0  0  0  0  0
   44.7150   74.2820   60.5390 H   0  0  0  0  0  0  0  0  0  0  0  0
   40.6090   74.6980   58.5380 C   0  0  0  0  0  0  0  0  0  0  0  0
   39.7010   75.2660   59.3570 N   0  0  0  0  0  0  0  0  0  0  0  0
   38.7170   76.0190   58.7980 C   0  0  0  0  0  3  0  0  0  0  0  0
   38.6170   76.2190   57.4530 N   0  0  0  0  0  0  0  0  0  0  0  0
   39.5290   75.6500   56.6210 C   0  0  0  0  0  0  0  0  0  0  0  0
   39.4850   75.8120   55.2490 C   0  0  0  0  0  3  0  0  0  0  0  0
   40.4310   75.2150   54.4410 C   0  0  0  0  0  0  0  0  0  0  0  0
   40.3610   75.3670   53.3730 H   0  0  0  0  0  0  0  0  0  0  0  0
   41.4220   74.4550   55.0270 C   0  0  0  0  0  0  0  0  0  0  0  0
   42.1700   73.9840   54.3760 H   0  0  0  0  0  0  0  0  0  0  0  0
   41.5220   74.2530   56.4000 C   0  0  0  0  0  3  0  0  0  0  0  0
   40.5530   74.8690   57.1620 C   0  0  0  0  0  0  0  0  0  0  0  0
   42.0290   69.3990   59.4390 C   0  0  0  0  0  0  0  0  0  0  0  0
   42.1220   70.4330   60.3890 C   0  0  0  0  0  0  0  0  0  0  0  0
   41.9600   70.1050   61.7340 C   0  0  0  0  0  0  0  0  0  0  0  0
   41.7230   68.7950   62.0230 N   0  0  0  0  0  0  0  0  0  0  0  0
   41.6390   67.8280   61.1060 C   0  0  0  0  0  0  0  0  0  0  0  0
   41.7930   68.1350   59.8170 N   0  0  0  0  0  0  0  0  0  0  0  0
   42.1630   69.7060   58.4110 H   0  0  0  0  0  0  0  0  0  0  0  0
   42.0120   70.8230   62.5460 H   0  0  0  0  0  0  0  0  0  0  0  0
   41.3750   66.4560   61.6240 C   0  0  0  0  0  0  0  0  0  0  0  0
   41.6760   65.4840   60.6830 F   0  0  0  0  0  0  0  0  0  0  0  0
   42.1700   66.2160   62.7320 F   0  0  0  0  0  0  0  0  0  0  0  0
   40.0390   66.2820   61.9320 F   0  0  0  0  0  0  0  0  0  0  0  0
  1  2  1  0  0  0  0
  2  3  1  0  0  0  0
  3 24  1  0  0  0  0
  3  4  2  0  0  0  0
  4  9  1  0  0  0  0
  5  4  1  0  0  0  0
  5 10  1  0  0  0  0
  6  5  2  0  0  0  0
  7  6  1  0  0  0  0
  8  2  2  0  0  0  0
  8  6  1  0  0  0  0
 11  8  1  0  0  0  0
 11 12  1  0  0  0  0
 13 12  2  0  0  0  0
 14 13  1  0  0  0  0
 15 22  1  0  0  0  0
 15 14  2  0  0  0  0
 16 15  1  0  0  0  0
 17 19  1  0  0  0  0
 17 16  2  0  0  0  0
 18 17  1  0  0  0  0
 19 21  2  0  0  0  0
 20 19  1  0  0  0  0
 21 22  1  0  0  0  0
 22 11  2  0  0  0  0
 23 28  2  0  0  0  0
 23 24  1  0  0  0  0
 24 25  2  0  0  0  0
 25 26  1  0  0  0  0
 25 30  1  0  0  0  0
 27 31  1  0  0  0  0
 27 26  2  0  0  0  0
 28 27  1  0  0  0  0
 29 23  1  0  0  0  0
 31 34  1  0  0  0  0
 31 33  1  0  0  0  0
 32 31  1  0  0  0  0
M  END
>  <minimizedAffinity>
-6.20918989

$$$$

 OpenBabel03212520143D

 34 37  0  0  0  0  0  0  0  0999 V2000
   42.3800   71.2160   62.0060 Cl  0  0  0  0  0  0  0  0  0  0  0  0
   41.7720   70.5170   60.4990 C   0  0  0  0  0  0  0  0  0  0  0  0
   41.2010   71.2800   59.5010 C   0  0  0  0  0  0  0  0  0  0  0  0
   40.7740   70.5790   58.3830 C   0  0  0  0  0  0  0  0  0  0  0  0
   40.8760   69.2110   58.2010 C   0  0  0  0  0  0  0  0  0  0  0  0
   41.4490   68.4990   59.2160 C   0  0  0  0  0  0  0  0  0  0  0  0
   41.6320   66.7540   59.1000 Cl  0  0  0  0  0  0  0  0  0  0  0  0
   41.8860   69.1530   60.3440 C   0  0  0  0  0  0  0  0  0  0  0  0
   40.3210   71.1780   57.5890 H   0  0  0  0  0  0  0  0  0  0  0  0
   40.5150   68.7490   57.2920 H   0  0  0  0  0  0  0  0  0  0  0  0
   42.4940   68.3450   61.4100 C   0  0  0  0  0  0  0  0  0  0  0  0
   41.6460   67.9960   62.3980 N   0  0  0  0  0  0  0  0  0  0  0  0
   42.1330   67.2470   63.4240 C   0  0  0  0  0  3  0  0  0  0  0  0
   43.4330   66.8410   63.4870 N   0  0  0  0  0  0  0  0  0  0  0  0
   44.2930   67.1900   62.4940 C   0  0  0  0  0  0  0  0  0  0  0  0
   45.6230   66.8120   62.4970 C   0  0  0  0  0  3  0  0  0  0  0  0
   46.4620   67.1880   61.4680 C   0  0  0  0  0  0  0  0  0  0  0  0
   47.4950   66.8720   61.5090 H   0  0  0  0  0  0  0  0  0  0  0  0
   45.9490   67.9470   60.4370 C   0  0  0  0  0  0  0  0  0  0  0  0
   46.6240   68.2430   59.6230 H   0  0  0  0  0  0  0  0  0  0  0  0
   44.6230   68.3600   60.3740 C   0  0  0  0  0  3  0  0  0  0  0  0
   43.8260   67.9590   61.4260 C   0  0  0  0  0  0  0  0  0  0  0  0
   42.0840   73.6560   59.4220 C   0  0  0  0  0  0  0  0  0  0  0  0
   41.0880   72.6940   59.6730 C   0  0  0  0  0  0  0  0  0  0  0  0
   39.8510   73.1360   60.1400 C   0  0  0  0  0  0  0  0  0  0  0  0
   39.7050   74.4790   60.3170 N   0  0  0  0  0  0  0  0  0  0  0  0
   40.6640   75.3760   60.0720 C   0  0  0  0  0  0  0  0  0  0  0  0
   41.8500   74.9600   59.6250 N   0  0  0  0  0  0  0  0  0  0  0  0
   43.0240   73.2610   59.0610 H   0  0  0  0  0  0  0  0  0  0  0  0
   39.0160   72.4810   60.3650 H   0  0  0  0  0  0  0  0  0  0  0  0
   40.3080   76.8010   60.3280 C   0  0  0  0  0  0  0  0  0  0  0  0
   41.4200   77.6260   60.2760 F   0  0  0  0  0  0  0  0  0  0  0  0
   39.4240   77.2400   59.3560 F   0  0  0  0  0  0  0  0  0  0  0  0
   39.7720   76.9670   61.5900 F   0  0  0  0  0  0  0  0  0  0  0  0
  2  1  1  0  0  0  0
  3 24  1  0  0  0  0
  3  2  2  0  0  0  0
  4  3  1  0  0  0  0
  5  4  2  0  0  0  0
  5  6  1  0  0  0  0
  6  8  2  0  0  0  0
  7  6  1  0  0  0  0
  8  2  1  0  0  0  0
  8 11  1  0  0  0  0
  9  4  1  0  0  0  0
 10  5  1  0  0  0  0
 11 22  2  0  0  0  0
 11 12  1  0  0  0  0
 12 13  2  0  0  0  0
 13 14  1  0  0  0  0
 15 16  1  0  0  0  0
 15 14  2  0  0  0  0
 17 18  1  0  0  0  0
 17 16  2  0  0  0  0
 19 17  1  0  0  0  0
 20 19  1  0  0  0  0
 21 19  2  0  0  0  0
 21 22  1  0  0  0  0
 22 15  1  0  0  0  0
 23 28  2  0  0  0  0
 23 24  1  0  0  0  0
 24 25  2  0  0  0  0
 25 26  1  0  0  0  0
 25 30  1  0  0  0  0
 27 26  2  0  0  0  0
 27 31  1  0  0  0  0
 28 27  1  0  0  0  0
 29 23  1  0  0  0  0
 31 34  1  0  0  0  0
 32 31  1  0  0  0  0
 33 31  1  0  0  0  0
M  END
>  <minimizedAffinity>
-6.18322229

$$$$

 OpenBabel03212520143D

 34 37  0  0  0  0  0  0  0  0999 V2000
   39.6780   72.2340   59.4470 Cl  0  0  0  0  0  0  0  0  0  0  0  0
   40.7830   72.1160   58.0700 C   0  0  0  0  0  0  0  0  0  0  0  0
   41.6500   71.0560   57.9000 C   0  0  0  0  0  0  0  0  0  0  0  0
   42.4490   71.1140   56.7690 C   0  0  0  0  0  0  0  0  0  0  0  0
   42.4410   72.1270   55.8260 C   0  0  0  0  0  0  0  0  0  0  0  0
   41.5660   73.1530   56.0380 C   0  0  0  0  0  0  0  0  0  0  0  0
   41.4650   74.4990   54.9100 Cl  0  0  0  0  0  0  0  0  0  0  0  0
   40.7540   73.1380   57.1470 C   0  0  0  0  0  0  0  0  0  0  0  0
   43.1380   70.2770   56.6280 H   0  0  0  0  0  0  0  0  0  0  0  0
   43.1030   72.0880   54.9710 H   0  0  0  0  0  0  0  0  0  0  0  0
   39.8290   74.2640   57.3340 C   0  0  0  0  0  0  0  0  0  0  0  0
   38.6420   74.1210   56.7100 N   0  0  0  0  0  0  0  0  0  0  0  0
   37.7300   75.1220   56.8340 C   0  0  0  0  0  3  0  0  0  0  0  0
   37.9700   76.2520   57.5580 N   0  0  0  0  0  0  0  0  0  0  0  0
   39.1640   76.4030   58.1880 C   0  0  0  0  0  0  0  0  0  0  0  0
   39.4720   77.5230   58.9380 C   0  0  0  0  0  3  0  0  0  0  0  0
   40.6980   77.6350   59.5620 C   0  0  0  0  0  0  0  0  0  0  0  0
   40.8990   78.5280   60.1380 H   0  0  0  0  0  0  0  0  0  0  0  0
   41.6100   76.6090   59.4250 C   0  0  0  0  0  0  0  0  0  0  0  0
   42.5830   76.7080   59.9240 H   0  0  0  0  0  0  0  0  0  0  0  0
   41.3630   75.4570   58.6860 C   0  0  0  0  0  3  0  0  0  0  0  0
   40.1250   75.3940   58.0820 C   0  0  0  0  0  0  0  0  0  0  0  0
   42.2740   70.0330   60.1350 C   0  0  0  0  0  0  0  0  0  0  0  0
   41.6710   70.0010   58.8640 C   0  0  0  0  0  0  0  0  0  0  0  0
   41.0220   68.8310   58.4750 C   0  0  0  0  0  0  0  0  0  0  0  0
   41.0210   67.8020   59.3670 N   0  0  0  0  0  0  0  0  0  0  0  0
   41.5990   67.8530   60.5700 C   0  0  0  0  0  0  0  0  0  0  0  0
   42.2230   68.9690   60.9490 N   0  0  0  0  0  0  0  0  0  0  0  0
   42.7640   70.9630   60.3890 H   0  0  0  0  0  0  0  0  0  0  0  0
   40.5260   68.7000   57.5180 H   0  0  0  0  0  0  0  0  0  0  0  0
   41.4880   66.6210   61.4020 C   0  0  0  0  0  0  0  0  0  0  0  0
   40.2270   66.4900   61.9600 F   0  0  0  0  0  0  0  0  0  0  0  0
   41.7050   65.5050   60.6110 F   0  0  0  0  0  0  0  0  0  0  0  0
   42.3710   66.6480   62.4640 F   0  0  0  0  0  0  0  0  0  0  0  0
  2  1  1  0  0  0  0
  3  2  1  0  0  0  0
  3 24  1  0  0  0  0
  4  3  2  0  0  0  0
  5  6  2  0  0  0  0
  5  4  1  0  0  0  0
  6  8  1  0  0  0  0
  7  6  1  0  0  0  0
  8 11  1  0  0  0  0
  8  2  2  0  0  0  0
  9  4  1  0  0  0  0
 10  5  1  0  0  0  0
 11 22  1  0  0  0  0
 12 13  1  0  0  0  0
 12 11  2  0  0  0  0
 13 14  2  0  0  0  0
 14 15  1  0  0  0  0
 15 16  1  0  0  0  0
 16 17  2  0  0  0  0
 17 18  1  0  0  0  0
 19 17  1  0  0  0  0
 19 20  1  0  0  0  0
 21 19  2  0  0  0  0
 22 15  2  0  0  0  0
 22 21  1  0  0  0  0
 23 29  1  0  0  0  0
 23 28  1  0  0  0  0
 24 23  2  0  0  0  0
 25 24  1  0  0  0  0
 25 26  2  0  0  0  0
 26 27  1  0  0  0  0
 27 28  2  0  0  0  0
 27 31  1  0  0  0  0
 30 25  1  0  0  0  0
 31 32  1  0  0  0  0
 31 34  1  0  0  0  0
 33 31  1  0  0  0  0
M  END
>  <minimizedAffinity>
-6.06080484

$$$$
