
 OpenBabel03212520133D

 34 37  0  0  0  0  0  0  0  0999 V2000
   42.9000   82.0040   58.7430 Cl  0  0  0  0  0  0  0  0  0  0  0  0
   41.7770   82.3530   60.0650 C   0  0  0  0  0  0  0  0  0  0  0  0
   40.5570   81.7220   60.1920 C   0  0  0  0  0  0  0  0  0  0  0  0
   39.7950   82.1100   61.2840 C   0  0  0  0  0  0  0  0  0  0  0  0
   40.1580   83.0560   62.2270 C   0  0  0  0  0  0  0  0  0  0  0  0
   41.3750   83.6520   62.0580 C   0  0  0  0  0  0  0  0  0  0  0  0
   41.9450   84.8700   63.1920 Cl  0  0  0  0  0  0  0  0  0  0  0  0
   42.1640   83.2990   60.9890 C   0  0  0  0  0  0  0  0  0  0  0  0
   38.8270   81.6130   61.3900 H   0  0  0  0  0  0  0  0  0  0  0  0
   39.4960   83.2940   63.0490 H   0  0  0  0  0  0  0  0  0  0  0  0
   43.4650   83.9680   60.8490 C   0  0  0  0  0  0  0  0  0  0  0  0
   44.4590   83.4130   61.5700 N   0  0  0  0  0  0  0  0  0  0  0  0
   45.6940   83.9750   61.4940 C   0  0  0  0  0  3  0  0  0  0  0  0
   45.9610   85.0670   60.7230 N   0  0  0  0  0  0  0  0  0  0  0  0
   44.9630   85.6320   59.9930 C   0  0  0  0  0  0  0  0  0  0  0  0
   45.1650   86.7390   59.1900 C   0  0  0  0  0  3  0  0  0  0  0  0
   44.1230   87.2800   58.4670 C   0  0  0  0  0  0  0  0  0  0  0  0
   44.3230   88.1470   57.8510 H   0  0  0  0  0  0  0  0  0  0  0  0
   42.8770   86.6960   58.5570 C   0  0  0  0  0  0  0  0  0  0  0  0
   42.0530   87.1330   57.9760 H   0  0  0  0  0  0  0  0  0  0  0  0
   42.6070   85.5820   59.3440 C   0  0  0  0  0  3  0  0  0  0  0  0
   43.6810   85.0790   60.0480 C   0  0  0  0  0  0  0  0  0  0  0  0
   39.7040   80.9850   57.9200 C   0  0  0  0  0  0  0  0  0  0  0  0
   40.1660   80.7430   59.2270 C   0  0  0  0  0  0  0  0  0  0  0  0
   40.2610   79.4200   59.6550 C   0  0  0  0  0  0  0  0  0  0  0  0
   39.8970   78.4580   58.7630 N   0  0  0  0  0  0  0  0  0  0  0  0
   39.4610   78.7080   57.5260 C   0  0  0  0  0  0  0  0  0  0  0  0
   39.3670   79.9730   57.1100 N   0  0  0  0  0  0  0  0  0  0  0  0
   39.6490   82.0280   57.6370 H   0  0  0  0  0  0  0  0  0  0  0  0
   40.6040   79.1230   60.6410 H   0  0  0  0  0  0  0  0  0  0  0  0
   39.1110   77.5170   56.7010 C   0  0  0  0  0  0  0  0  0  0  0  0
   40.1350   76.5840   56.6860 F   0  0  0  0  0  0  0  0  0  0  0  0
   37.9950   76.8940   57.2340 F   0  0  0  0  0  0  0  0  0  0  0  0
   38.8960   77.8640   55.3810 F   0  0  0  0  0  0  0  0  0  0  0  0
  1  2  1  0  0  0  0
  2  3  2  0  0  0  0
  2  8  1  0  0  0  0
  3  4  1  0  0  0  0
  4  9  1  0  0  0  0
  4  5  2  0  0  0  0
  5 10  1  0  0  0  0
  6  5  1  0  0  0  0
  6  7  1  0  0  0  0
  8  6  2  0  0  0  0
 11  8  1  0  0  0  0
 11 12  1  0  0  0  0
 13 12  2  0  0  0  0
 14 13  1  0  0  0  0
 15 22  1  0  0  0  0
 15 14  2  0  0  0  0
 16 15  1  0  0  0  0
 17 19  1  0  0  0  0
 17 16  2  0  0  0  0
 18 17  1  0  0  0  0
 19 21  2  0  0  0  0
 20 19  1  0  0  0  0
 21 22  1  0  0  0  0
 22 11  2  0  0  0  0
 23 24  1  0  0  0  0
 24 25  2  0  0  0  0
 24  3  1  0  0  0  0
 25 30  1  0  0  0  0
 26 25  1  0  0  0  0
 27 26  2  0  0  0  0
 28 27  1  0  0  0  0
 28 23  2  0  0  0  0
 29 23  1  0  0  0  0
 31 33  1  0  0  0  0
 31 27  1  0  0  0  0
 32 31  1  0  0  0  0
 34 31  1  0  0  0  0
M  END
>  <minimizedAffinity>
-5.56511545

>  <minimizedRMSD>
6.68147182

$$$$
