
 OpenBabel03212520133D

 34 37  0  0  0  0  0  0  0  0999 V2000
   43.1760   83.7200   58.6290 Cl  0  0  0  0  0  0  0  0  0  0  0  0
   41.8650   82.5930   58.2530 C   0  0  0  0  0  0  0  0  0  0  0  0
   40.9660   82.1530   59.2030 C   0  0  0  0  0  0  0  0  0  0  0  0
   39.9980   81.2710   58.7470 C   0  0  0  0  0  0  0  0  0  0  0  0
   39.8730   80.8120   57.4470 C   0  0  0  0  0  0  0  0  0  0  0  0
   40.7860   81.2760   56.5440 C   0  0  0  0  0  0  0  0  0  0  0  0
   40.7290   80.7640   54.8620 Cl  0  0  0  0  0  0  0  0  0  0  0  0
   41.7640   82.1520   56.9520 C   0  0  0  0  0  0  0  0  0  0  0  0
   39.2820   80.9200   59.4950 H   0  0  0  0  0  0  0  0  0  0  0  0
   39.0830   80.1220   57.1810 H   0  0  0  0  0  0  0  0  0  0  0  0
   42.7250   82.6230   55.9450 C   0  0  0  0  0  0  0  0  0  0  0  0
   42.3400   83.7290   55.2780 N   0  0  0  0  0  0  0  0  0  0  0  0
   43.1760   84.2270   54.3290 C   0  0  0  0  0  3  0  0  0  0  0  0
   44.3750   83.6530   54.0290 N   0  0  0  0  0  0  0  0  0  0  0  0
   44.7700   82.5360   54.6970 C   0  0  0  0  0  0  0  0  0  0  0  0
   45.9720   81.9040   54.4420 C   0  0  0  0  0  3  0  0  0  0  0  0
   46.3340   80.7730   55.1440 C   0  0  0  0  0  0  0  0  0  0  0  0
   47.2830   80.3090   54.9140 H   0  0  0  0  0  0  0  0  0  0  0  0
   45.4720   80.2830   56.1040 C   0  0  0  0  0  0  0  0  0  0  0  0
   45.7670   79.3820   56.6570 H   0  0  0  0  0  0  0  0  0  0  0  0
   44.2480   80.8710   56.4080 C   0  0  0  0  0  3  0  0  0  0  0  0
   43.9350   81.9990   55.6790 C   0  0  0  0  0  0  0  0  0  0  0  0
   41.9280   82.1030   61.5490 C   0  0  0  0  0  0  0  0  0  0  0  0
   41.0810   82.6170   60.5500 C   0  0  0  0  0  0  0  0  0  0  0  0
   40.2530   83.6880   60.8790 C   0  0  0  0  0  0  0  0  0  0  0  0
   40.3330   84.1580   62.1550 N   0  0  0  0  0  0  0  0  0  0  0  0
   41.1460   83.6570   63.0890 C   0  0  0  0  0  0  0  0  0  0  0  0
   41.9410   82.6300   62.7810 N   0  0  0  0  0  0  0  0  0  0  0  0
   42.5500   81.2720   61.2430 H   0  0  0  0  0  0  0  0  0  0  0  0
   39.5630   84.1590   60.1870 H   0  0  0  0  0  0  0  0  0  0  0  0
   41.0880   84.3100   64.4270 C   0  0  0  0  0  0  0  0  0  0  0  0
   40.7480   85.6500   64.3300 F   0  0  0  0  0  0  0  0  0  0  0  0
   40.1190   83.6950   65.2030 F   0  0  0  0  0  0  0  0  0  0  0  0
   42.3160   84.2770   65.0580 F   0  0  0  0  0  0  0  0  0  0  0  0
  2  1  1  0  0  0  0
  2  3  1  0  0  0  0
  3 24  1  0  0  0  0
  4  3  2  0  0  0  0
  4  9  1  0  0  0  0
  5  4  1  0  0  0  0
  6  8  1  0  0  0  0
  6  5  2  0  0  0  0
  7  6  1  0  0  0  0
  8  2  2  0  0  0  0
 10  5  1  0  0  0  0
 11  8  1  0  0  0  0
 12 11  2  0  0  0  0
 13 12  1  0  0  0  0
 14 13  2  0  0  0  0
 14 15  1  0  0  0  0
 15 22  1  0  0  0  0
 16 15  2  0  0  0  0
 16 17  1  0  0  0  0
 17 19  2  0  0  0  0
 18 17  1  0  0  0  0
 19 21  1  0  0  0  0
 19 20  1  0  0  0  0
 22 11  1  0  0  0  0
 22 21  2  0  0  0  0
 23 28  1  0  0  0  0
 24 25  1  0  0  0  0
 24 23  2  0  0  0  0
 25 26  2  0  0  0  0
 26 27  1  0  0  0  0
 27 31  1  0  0  0  0
 28 27  2  0  0  0  0
 29 23  1  0  0  0  0
 30 25  1  0  0  0  0
 31 34  1  0  0  0  0
 31 33  1  0  0  0  0
 32 31  1  0  0  0  0
M  END
>  <minimizedAffinity>
-5.25612068

>  <minimizedRMSD>
1.92158878

$$$$
