
 OpenBabel03212520183D

 38 41  0  0  0  0  0  0  0  0999 V2000
   43.0220   83.9820   58.6140 Cl  0  0  0  0  0  0  0  0  0  0  0  0
   41.8360   82.7660   58.2430 C   0  0  0  0  0  0  0  0  0  0  0  0
   40.9920   82.2120   59.1930 C   0  0  0  0  0  0  0  0  0  0  0  0
   40.1100   81.2540   58.7370 C   0  0  0  0  0  0  0  0  0  0  0  0
   39.9860   80.7980   57.4440 C   0  0  0  0  0  0  0  0  0  0  0  0
   40.8420   81.3730   56.5310 C   0  0  0  0  0  0  0  0  0  0  0  0
   40.7830   80.8750   54.8440 Cl  0  0  0  0  0  0  0  0  0  0  0  0
   41.7600   82.3550   56.9430 C   0  0  0  0  0  0  0  0  0  0  0  0
   39.4550   80.8330   59.4980 H   0  0  0  0  0  0  0  0  0  0  0  0
   39.2650   80.0400   57.1750 H   0  0  0  0  0  0  0  0  0  0  0  0
   41.9580   82.1760   61.5420 C   0  0  0  0  0  0  0  0  0  0  0  0
   41.0940   82.6620   60.5410 C   0  0  0  0  0  0  0  0  0  0  0  0
   40.2370   83.6990   60.8920 C   0  0  0  0  0  0  0  0  0  0  0  0
   40.3050   84.1620   62.1760 N   0  0  0  0  0  0  0  0  0  0  0  0
   41.1340   83.6830   63.1020 C   0  0  0  0  0  0  0  0  0  0  0  0
   41.9780   82.6690   62.7800 N   0  0  0  0  0  0  0  0  0  0  0  0
   42.5910   81.3700   61.1950 H   0  0  0  0  0  0  0  0  0  0  0  0
   39.5150   84.1740   60.2230 H   0  0  0  0  0  0  0  0  0  0  0  0
   41.0620   84.3230   64.4370 C   0  0  0  0  0  0  0  0  0  0  0  0
   40.7260   85.6520   64.3590 F   0  0  0  0  0  0  0  0  0  0  0  0
   40.1140   83.6610   65.2190 F   0  0  0  0  0  0  0  0  0  0  0  0
   42.3080   84.2860   65.0870 F   0  0  0  0  0  0  0  0  0  0  0  0
   42.5880   82.8880   55.9700 O   0  0  0  0  0  0  0  0  0  0  0  0
   42.3130   84.0760   55.2540 C   0  0  0  0  0  0  0  0  0  0  0  0
   42.1890   84.9530   55.8930 H   0  0  0  0  0  0  0  0  0  0  0  0
   41.3280   83.9230   54.7680 H   0  0  0  0  0  0  0  0  0  0  0  0
   43.3240   84.2240   54.1900 C   0  0  0  0  0  0  0  0  0  0  0  0
   44.4770   84.8960   54.5080 N   0  0  0  0  0  0  0  0  0  0  0  0
   45.4420   85.1480   53.6110 C   0  0  0  0  0  3  0  0  0  0  0  0
   45.3590   84.7570   52.3100 N   0  0  0  0  0  0  0  0  0  0  0  0
   44.2520   84.0900   51.9280 C   0  0  0  0  0  0  0  0  0  0  0  0
   44.0800   83.6410   50.6350 C   0  0  0  0  0  3  0  0  0  0  0  0
   42.9450   82.9410   50.2490 C   0  0  0  0  0  0  0  0  0  0  0  0
   42.7860   82.5730   49.2240 H   0  0  0  0  0  0  0  0  0  0  0  0
   41.9610   82.6920   51.2040 C   0  0  0  0  0  0  0  0  0  0  0  0
   41.0750   82.1400   50.9040 H   0  0  0  0  0  0  0  0  0  0  0  0
   42.1740   83.1600   52.4800 C   0  0  0  0  0  3  0  0  0  0  0  0
   43.2800   83.8460   52.8680 C   0  0  0  0  0  0  0  0  0  0  0  0
  2  1  1  0  0  0  0
  2  3  1  0  0  0  0
  3 12  1  0  0  0  0
  4  3  2  0  0  0  0
  4  9  1  0  0  0  0
  5  4  1  0  0  0  0
  6  8  1  0  0  0  0
  6  5  2  0  0  0  0
  7  6  1  0  0  0  0
  8  2  2  0  0  0  0
 10  5  1  0  0  0  0
 11 16  1  0  0  0  0
 12 13  1  0  0  0  0
 12 11  2  0  0  0  0
 13 14  2  0  0  0  0
 14 15  1  0  0  0  0
 15 19  1  0  0  0  0
 16 15  2  0  0  0  0
 17 11  1  0  0  0  0
 18 13  1  0  0  0  0
 19 22  1  0  0  0  0
 19 21  1  0  0  0  0
 20 19  1  0  0  0  0
 23  8  1  0  0  0  0
 24 25  1  0  0  0  0
 24 23  1  0  0  0  0
 26 24  1  0  0  0  0
 27 28  1  0  0  0  0
 27 24  1  0  0  0  0
 29 28  2  0  0  0  0
 30 29  1  0  0  0  0
 31 30  2  0  0  0  0
 31 38  1  0  0  0  0
 32 31  1  0  0  0  0
 33 32  2  0  0  0  0
 33 35  1  0  0  0  0
 34 33  1  0  0  0  0
 35 37  2  0  0  0  0
 36 35  1  0  0  0  0
 37 38  1  0  0  0  0
 38 27  2  0  0  0  0
M  END
>  <minimizedAffinity>
-5.30587578

>  <minimizedRMSD>
1.2464534

$$$$
