
 OpenBabel03212520183D

 38 41  0  0  0  0  0  0  0  0999 V2000
   43.0740   83.8970   58.5970 Cl  0  0  0  0  0  0  0  0  0  0  0  0
   41.8470   82.7240   58.2170 C   0  0  0  0  0  0  0  0  0  0  0  0
   40.9760   82.2020   59.1610 C   0  0  0  0  0  0  0  0  0  0  0  0
   40.0630   81.2760   58.6980 C   0  0  0  0  0  0  0  0  0  0  0  0
   39.9330   80.8240   57.4050 C   0  0  0  0  0  0  0  0  0  0  0  0
   40.8160   81.3660   56.4990 C   0  0  0  0  0  0  0  0  0  0  0  0
   40.7520   80.8700   54.8110 Cl  0  0  0  0  0  0  0  0  0  0  0  0
   41.7670   82.3150   56.9170 C   0  0  0  0  0  0  0  0  0  0  0  0
   39.3870   80.8800   59.4550 H   0  0  0  0  0  0  0  0  0  0  0  0
   39.1860   80.0920   57.1310 H   0  0  0  0  0  0  0  0  0  0  0  0
   41.9340   82.1450   61.5130 C   0  0  0  0  0  0  0  0  0  0  0  0
   41.0840   82.6490   60.5090 C   0  0  0  0  0  0  0  0  0  0  0  0
   40.2490   83.7060   60.8580 C   0  0  0  0  0  0  0  0  0  0  0  0
   40.3240   84.1660   62.1420 N   0  0  0  0  0  0  0  0  0  0  0  0
   41.1390   83.6690   63.0700 C   0  0  0  0  0  0  0  0  0  0  0  0
   41.9620   82.6370   62.7510 N   0  0  0  0  0  0  0  0  0  0  0  0
   42.5500   81.3240   61.1670 H   0  0  0  0  0  0  0  0  0  0  0  0
   39.5400   84.1970   60.1870 H   0  0  0  0  0  0  0  0  0  0  0  0
   41.0770   84.3100   64.4060 C   0  0  0  0  0  0  0  0  0  0  0  0
   40.7470   85.6410   64.3290 F   0  0  0  0  0  0  0  0  0  0  0  0
   40.1300   83.6540   65.1930 F   0  0  0  0  0  0  0  0  0  0  0  0
   42.3260   84.2680   65.0490 F   0  0  0  0  0  0  0  0  0  0  0  0
   42.6210   82.8160   55.9500 O   0  0  0  0  0  0  0  0  0  0  0  0
   42.4280   84.0450   55.2780 C   0  0  0  0  0  0  0  0  0  0  0  0
   42.3740   84.9070   55.9470 H   0  0  0  0  0  0  0  0  0  0  0  0
   41.4320   83.9820   54.7960 H   0  0  0  0  0  0  0  0  0  0  0  0
   43.4400   84.1570   54.2100 C   0  0  0  0  0  0  0  0  0  0  0  0
   43.0720   83.7540   52.9520 N   0  0  0  0  0  0  0  0  0  0  0  0
   43.9190   83.7490   51.9120 C   0  0  0  0  0  3  0  0  0  0  0  0
   45.2170   84.1450   52.0180 N   0  0  0  0  0  0  0  0  0  0  0  0
   45.6480   84.5560   53.2290 C   0  0  0  0  0  0  0  0  0  0  0  0
   46.9420   84.9880   53.4350 C   0  0  0  0  0  3  0  0  0  0  0  0
   47.3770   85.4240   54.6790 C   0  0  0  0  0  0  0  0  0  0  0  0
   48.4030   85.7730   54.8680 H   0  0  0  0  0  0  0  0  0  0  0  0
   46.4710   85.4200   55.7380 C   0  0  0  0  0  0  0  0  0  0  0  0
   46.8090   85.7650   56.7120 H   0  0  0  0  0  0  0  0  0  0  0  0
   45.1920   84.9790   55.4860 C   0  0  0  0  0  3  0  0  0  0  0  0
   44.7560   84.5500   54.2750 C   0  0  0  0  0  0  0  0  0  0  0  0
  2  1  1  0  0  0  0
  2  3  1  0  0  0  0
  3 12  1  0  0  0  0
  4  3  2  0  0  0  0
  4  9  1  0  0  0  0
  5  4  1  0  0  0  0
  6  8  1  0  0  0  0
  6  5  2  0  0  0  0
  7  6  1  0  0  0  0
  8  2  2  0  0  0  0
 10  5  1  0  0  0  0
 11 16  1  0  0  0  0
 12 13  1  0  0  0  0
 12 11  2  0  0  0  0
 13 14  2  0  0  0  0
 14 15  1  0  0  0  0
 15 19  1  0  0  0  0
 16 15  2  0  0  0  0
 17 11  1  0  0  0  0
 18 13  1  0  0  0  0
 19 22  1  0  0  0  0
 19 21  1  0  0  0  0
 20 19  1  0  0  0  0
 23  8  1  0  0  0  0
 24 25  1  0  0  0  0
 24 23  1  0  0  0  0
 26 24  1  0  0  0  0
 27 38  1  0  0  0  0
 27 24  1  0  0  0  0
 28 27  2  0  0  0  0
 29 30  2  0  0  0  0
 29 28  1  0  0  0  0
 30 31  1  0  0  0  0
 31 32  2  0  0  0  0
 31 38  1  0  0  0  0
 32 33  1  0  0  0  0
 33 34  1  0  0  0  0
 33 35  2  0  0  0  0
 35 36  1  0  0  0  0
 37 35  1  0  0  0  0
 38 37  2  0  0  0  0
M  END
>  <minimizedAffinity>
-5.06126308

>  <minimizedRMSD>
0.536531031

$$$$
