
 OpenBabel03212520133D

 34 37  0  0  0  0  0  0  0  0999 V2000
   45.1420   81.3450   60.9510 Cl  0  0  0  0  0  0  0  0  0  0  0  0
   43.6240   80.5330   61.3590 C   0  0  0  0  0  0  0  0  0  0  0  0
   43.5670   79.2110   61.7460 C   0  0  0  0  0  0  0  0  0  0  0  0
   42.3010   78.7250   62.0300 C   0  0  0  0  0  0  0  0  0  0  0  0
   41.1230   79.4490   61.9560 C   0  0  0  0  0  0  0  0  0  0  0  0
   41.2310   80.7530   61.5690 C   0  0  0  0  0  0  0  0  0  0  0  0
   39.8040   81.7740   61.4360 Cl  0  0  0  0  0  0  0  0  0  0  0  0
   42.4680   81.2770   61.2760 C   0  0  0  0  0  0  0  0  0  0  0  0
   42.2490   77.6770   62.3380 H   0  0  0  0  0  0  0  0  0  0  0  0
   40.1760   78.9840   62.1980 H   0  0  0  0  0  0  0  0  0  0  0  0
   42.5330   82.6860   60.8630 C   0  0  0  0  0  0  0  0  0  0  0  0
   42.7840   83.5520   61.8660 N   0  0  0  0  0  0  0  0  0  0  0  0
   42.8590   84.8740   61.5640 C   0  0  0  0  0  3  0  0  0  0  0  0
   42.6930   85.3530   60.2980 N   0  0  0  0  0  0  0  0  0  0  0  0
   42.4400   84.4860   59.2820 C   0  0  0  0  0  0  0  0  0  0  0  0
   42.2610   84.9030   57.9770 C   0  0  0  0  0  3  0  0  0  0  0  0
   42.0070   83.9890   56.9760 C   0  0  0  0  0  0  0  0  0  0  0  0
   41.8740   84.3570   55.9680 H   0  0  0  0  0  0  0  0  0  0  0  0
   41.9350   82.6500   57.3010 C   0  0  0  0  0  0  0  0  0  0  0  0
   41.7310   81.9290   56.4980 H   0  0  0  0  0  0  0  0  0  0  0  0
   42.1040   82.1650   58.5940 C   0  0  0  0  0  3  0  0  0  0  0  0
   42.3560   83.1200   59.5570 C   0  0  0  0  0  0  0  0  0  0  0  0
   45.2990   77.5930   60.8410 C   0  0  0  0  0  0  0  0  0  0  0  0
   44.7740   78.4480   61.8280 C   0  0  0  0  0  0  0  0  0  0  0  0
   45.4790   78.5840   63.0220 C   0  0  0  0  0  0  0  0  0  0  0  0
   46.6350   77.8720   63.1380 N   0  0  0  0  0  0  0  0  0  0  0  0
   47.1170   77.0660   62.1890 C   0  0  0  0  0  0  0  0  0  0  0  0
   46.4460   76.9300   61.0430 N   0  0  0  0  0  0  0  0  0  0  0  0
   44.7140   77.5220   59.9350 H   0  0  0  0  0  0  0  0  0  0  0  0
   45.1640   79.2160   63.8460 H   0  0  0  0  0  0  0  0  0  0  0  0
   48.3990   76.3740   62.5070 C   0  0  0  0  0  0  0  0  0  0  0  0
   49.1070   77.0350   63.4970 F   0  0  0  0  0  0  0  0  0  0  0  0
   48.1330   75.0970   62.9730 F   0  0  0  0  0  0  0  0  0  0  0  0
   49.2340   76.3310   61.4080 F   0  0  0  0  0  0  0  0  0  0  0  0
  1  2  1  0  0  0  0
  2  3  1  0  0  0  0
  3 24  1  0  0  0  0
  3  4  2  0  0  0  0
  4  9  1  0  0  0  0
  5  4  1  0  0  0  0
  5 10  1  0  0  0  0
  6  5  2  0  0  0  0
  7  6  1  0  0  0  0
  8  2  2  0  0  0  0
  8  6  1  0  0  0  0
 11  8  1  0  0  0  0
 11 12  1  0  0  0  0
 13 12  2  0  0  0  0
 14 13  1  0  0  0  0
 15 22  1  0  0  0  0
 15 14  2  0  0  0  0
 16 15  1  0  0  0  0
 17 19  1  0  0  0  0
 17 16  2  0  0  0  0
 18 17  1  0  0  0  0
 19 21  2  0  0  0  0
 20 19  1  0  0  0  0
 21 22  1  0  0  0  0
 22 11  2  0  0  0  0
 23 28  2  0  0  0  0
 23 24  1  0  0  0  0
 24 25  2  0  0  0  0
 25 26  1  0  0  0  0
 25 30  1  0  0  0  0
 27 31  1  0  0  0  0
 27 26  2  0  0  0  0
 28 27  1  0  0  0  0
 29 23  1  0  0  0  0
 31 33  1  0  0  0  0
 31 32  1  0  0  0  0
 34 31  1  0  0  0  0
M  END
>  <minimizedAffinity>
-4.51577377

>  <minimizedRMSD>
6.97231817

$$$$
