
 OpenBabel03212520133D

 34 37  0  0  0  0  0  0  0  0999 V2000
   43.1630   83.6860   58.6330 Cl  0  0  0  0  0  0  0  0  0  0  0  0
   41.8490   82.5660   58.2470 C   0  0  0  0  0  0  0  0  0  0  0  0
   40.9440   82.1260   59.1910 C   0  0  0  0  0  0  0  0  0  0  0  0
   39.9750   81.2510   58.7270 C   0  0  0  0  0  0  0  0  0  0  0  0
   39.8530   80.7980   57.4250 C   0  0  0  0  0  0  0  0  0  0  0  0
   40.7710   81.2620   56.5270 C   0  0  0  0  0  0  0  0  0  0  0  0
   40.7190   80.7580   54.8430 Cl  0  0  0  0  0  0  0  0  0  0  0  0
   41.7510   82.1320   56.9430 C   0  0  0  0  0  0  0  0  0  0  0  0
   39.2540   80.8990   59.4700 H   0  0  0  0  0  0  0  0  0  0  0  0
   39.0610   80.1130   57.1530 H   0  0  0  0  0  0  0  0  0  0  0  0
   42.7180   82.6030   55.9420 C   0  0  0  0  0  0  0  0  0  0  0  0
   42.3380   83.7140   55.2780 N   0  0  0  0  0  0  0  0  0  0  0  0
   43.1780   84.2120   54.3340 C   0  0  0  0  0  3  0  0  0  0  0  0
   44.3780   83.6380   54.0370 N   0  0  0  0  0  0  0  0  0  0  0  0
   44.7670   82.5190   54.7030 C   0  0  0  0  0  0  0  0  0  0  0  0
   45.9710   81.8860   54.4520 C   0  0  0  0  0  3  0  0  0  0  0  0
   46.3260   80.7510   55.1510 C   0  0  0  0  0  0  0  0  0  0  0  0
   47.2770   80.2870   54.9240 H   0  0  0  0  0  0  0  0  0  0  0  0
   45.4600   80.2590   56.1060 C   0  0  0  0  0  0  0  0  0  0  0  0
   45.7510   79.3560   56.6570 H   0  0  0  0  0  0  0  0  0  0  0  0
   44.2360   80.8480   56.4050 C   0  0  0  0  0  3  0  0  0  0  0  0
   43.9270   81.9790   55.6790 C   0  0  0  0  0  0  0  0  0  0  0  0
   41.8360   82.0110   61.5620 C   0  0  0  0  0  0  0  0  0  0  0  0
   41.0550   82.5830   60.5410 C   0  0  0  0  0  0  0  0  0  0  0  0
   40.2990   83.7130   60.8470 C   0  0  0  0  0  0  0  0  0  0  0  0
   40.3780   84.1780   62.1250 N   0  0  0  0  0  0  0  0  0  0  0  0
   41.1270   83.6210   63.0800 C   0  0  0  0  0  0  0  0  0  0  0  0
   41.8530   82.5390   62.7950 N   0  0  0  0  0  0  0  0  0  0  0  0
   42.4040   81.1370   61.2740 H   0  0  0  0  0  0  0  0  0  0  0  0
   39.6640   84.2310   60.1360 H   0  0  0  0  0  0  0  0  0  0  0  0
   41.0800   84.2800   64.4170 C   0  0  0  0  0  0  0  0  0  0  0  0
   40.7430   85.6210   64.3170 F   0  0  0  0  0  0  0  0  0  0  0  0
   40.1140   83.6710   65.2010 F   0  0  0  0  0  0  0  0  0  0  0  0
   42.3120   84.2450   65.0390 F   0  0  0  0  0  0  0  0  0  0  0  0
  2  1  1  0  0  0  0
  2  3  1  0  0  0  0
  3 24  1  0  0  0  0
  4  3  2  0  0  0  0
  4  9  1  0  0  0  0
  5  4  1  0  0  0  0
  6  8  1  0  0  0  0
  6  5  2  0  0  0  0
  7  6  1  0  0  0  0
  8  2  2  0  0  0  0
 10  5  1  0  0  0  0
 11  8  1  0  0  0  0
 12 11  2  0  0  0  0
 13 12  1  0  0  0  0
 14 13  2  0  0  0  0
 14 15  1  0  0  0  0
 15 22  1  0  0  0  0
 16 15  2  0  0  0  0
 16 17  1  0  0  0  0
 17 19  2  0  0  0  0
 18 17  1  0  0  0  0
 19 21  1  0  0  0  0
 19 20  1  0  0  0  0
 22 11  1  0  0  0  0
 22 21  2  0  0  0  0
 23 28  1  0  0  0  0
 24 25  1  0  0  0  0
 24 23  2  0  0  0  0
 25 26  2  0  0  0  0
 26 27  1  0  0  0  0
 27 31  1  0  0  0  0
 28 27  2  0  0  0  0
 29 23  1  0  0  0  0
 30 25  1  0  0  0  0
 31 34  1  0  0  0  0
 31 33  1  0  0  0  0
 32 31  1  0  0  0  0
M  END
>  <minimizedAffinity>
-5.25962448

>  <minimizedRMSD>
1.98938787

$$$$
