
 OpenBabel03212520183D

 38 41  0  0  0  0  0  0  0  0999 V2000
   43.0880   83.9560   58.7500 Cl  0  0  0  0  0  0  0  0  0  0  0  0
   41.8760   82.7780   58.3380 C   0  0  0  0  0  0  0  0  0  0  0  0
   40.9910   82.2450   59.2610 C   0  0  0  0  0  0  0  0  0  0  0  0
   40.0930   81.3160   58.7740 C   0  0  0  0  0  0  0  0  0  0  0  0
   39.9910   80.8720   57.4750 C   0  0  0  0  0  0  0  0  0  0  0  0
   40.8880   81.4260   56.5910 C   0  0  0  0  0  0  0  0  0  0  0  0
   40.8610   80.9400   54.8990 Cl  0  0  0  0  0  0  0  0  0  0  0  0
   41.8250   82.3780   57.0340 C   0  0  0  0  0  0  0  0  0  0  0  0
   39.4050   80.9110   59.5140 H   0  0  0  0  0  0  0  0  0  0  0  0
   39.2550   80.1370   57.1820 H   0  0  0  0  0  0  0  0  0  0  0  0
   41.8620   82.1420   61.6450 C   0  0  0  0  0  0  0  0  0  0  0  0
   41.0690   82.6830   60.6140 C   0  0  0  0  0  0  0  0  0  0  0  0
   40.2650   83.7720   60.9380 C   0  0  0  0  0  0  0  0  0  0  0  0
   40.3130   84.2250   62.2260 N   0  0  0  0  0  0  0  0  0  0  0  0
   41.0750   83.6920   63.1800 C   0  0  0  0  0  0  0  0  0  0  0  0
   41.8660   82.6280   62.8850 N   0  0  0  0  0  0  0  0  0  0  0  0
   42.4560   81.2980   61.3170 H   0  0  0  0  0  0  0  0  0  0  0  0
   39.6010   84.2920   60.2450 H   0  0  0  0  0  0  0  0  0  0  0  0
   40.9920   84.3320   64.5150 C   0  0  0  0  0  0  0  0  0  0  0  0
   40.6320   85.6550   64.4370 F   0  0  0  0  0  0  0  0  0  0  0  0
   40.0560   83.6540   65.2980 F   0  0  0  0  0  0  0  0  0  0  0  0
   42.2380   84.3170   65.1640 F   0  0  0  0  0  0  0  0  0  0  0  0
   42.6950   82.8910   56.0870 O   0  0  0  0  0  0  0  0  0  0  0  0
   42.6580   84.2220   55.6110 C   0  0  0  0  0  0  0  0  0  0  0  0
   42.5220   84.9660   56.3990 H   0  0  0  0  0  0  0  0  0  0  0  0
   41.7530   84.2980   54.9740 H   0  0  0  0  0  0  0  0  0  0  0  0
   43.8360   84.4420   54.7510 C   0  0  0  0  0  0  0  0  0  0  0  0
   43.6050   84.7050   53.4250 N   0  0  0  0  0  0  0  0  0  0  0  0
   44.5930   84.8610   52.5310 C   0  0  0  0  0  3  0  0  0  0  0  0
   45.9090   84.7750   52.8660 N   0  0  0  0  0  0  0  0  0  0  0  0
   46.2090   84.5210   54.1560 C   0  0  0  0  0  0  0  0  0  0  0  0
   47.5140   84.4280   54.5960 C   0  0  0  0  0  3  0  0  0  0  0  0
   47.8190   84.1800   55.9270 C   0  0  0  0  0  0  0  0  0  0  0  0
   48.8510   84.1010   56.3020 H   0  0  0  0  0  0  0  0  0  0  0  0
   46.7710   84.0250   56.8320 C   0  0  0  0  0  0  0  0  0  0  0  0
   47.0090   83.8350   57.8750 H   0  0  0  0  0  0  0  0  0  0  0  0
   45.4870   84.1240   56.3470 C   0  0  0  0  0  3  0  0  0  0  0  0
   45.1770   84.3640   55.0490 C   0  0  0  0  0  0  0  0  0  0  0  0
  2  1  1  0  0  0  0
  2  3  1  0  0  0  0
  3 12  1  0  0  0  0
  4  3  2  0  0  0  0
  4  9  1  0  0  0  0
  5  4  1  0  0  0  0
  6  8  1  0  0  0  0
  6  5  2  0  0  0  0
  7  6  1  0  0  0  0
  8  2  2  0  0  0  0
 10  5  1  0  0  0  0
 11 16  1  0  0  0  0
 12 13  1  0  0  0  0
 12 11  2  0  0  0  0
 13 14  2  0  0  0  0
 14 15  1  0  0  0  0
 15 19  1  0  0  0  0
 16 15  2  0  0  0  0
 17 11  1  0  0  0  0
 18 13  1  0  0  0  0
 19 22  1  0  0  0  0
 19 21  1  0  0  0  0
 20 19  1  0  0  0  0
 23  8  1  0  0  0  0
 24 23  1  0  0  0  0
 24 25  1  0  0  0  0
 26 24  1  0  0  0  0
 27 38  1  0  0  0  0
 27 24  1  0  0  0  0
 28 27  2  0  0  0  0
 29 30  2  0  0  0  0
 29 28  1  0  0  0  0
 30 31  1  0  0  0  0
 31 32  2  0  0  0  0
 31 38  1  0  0  0  0
 32 33  1  0  0  0  0
 33 34  1  0  0  0  0
 33 35  2  0  0  0  0
 35 36  1  0  0  0  0
 37 35  1  0  0  0  0
 38 37  2  0  0  0  0
M  END
>  <minimizedAffinity>
-4.96493483

>  <minimizedRMSD>
0.987438381

$$$$
