
 OpenBabel03212520133D

 34 37  0  0  0  0  0  0  0  0999 V2000
   44.5930   83.0960   59.8880 Cl  0  0  0  0  0  0  0  0  0  0  0  0
   43.1530   82.9460   60.9040 C   0  0  0  0  0  0  0  0  0  0  0  0
   43.1650   82.3020   62.1240 C   0  0  0  0  0  0  0  0  0  0  0  0
   41.9540   82.2710   62.7970 C   0  0  0  0  0  0  0  0  0  0  0  0
   40.7670   82.8230   62.3470 C   0  0  0  0  0  0  0  0  0  0  0  0
   40.8050   83.4510   61.1350 C   0  0  0  0  0  0  0  0  0  0  0  0
   39.3590   84.1900   60.4580 Cl  0  0  0  0  0  0  0  0  0  0  0  0
   41.9850   83.5050   60.4320 C   0  0  0  0  0  0  0  0  0  0  0  0
   41.9570   81.7620   63.7640 H   0  0  0  0  0  0  0  0  0  0  0  0
   39.8660   82.7510   62.9420 H   0  0  0  0  0  0  0  0  0  0  0  0
   41.9770   84.1900   59.1320 C   0  0  0  0  0  0  0  0  0  0  0  0
   42.0250   85.5350   59.2100 N   0  0  0  0  0  0  0  0  0  0  0  0
   42.0200   86.2430   58.0490 C   0  0  0  0  0  0  0  0  0  0  0  0
   41.9700   85.6480   56.8240 N   0  0  0  0  0  0  0  0  0  0  0  0
   41.9200   84.2920   56.7380 C   0  0  0  0  0  0  0  0  0  0  0  0
   41.8670   83.6260   55.5280 C   0  0  0  0  0  0  0  0  0  0  0  0
   41.8180   82.2470   55.4880 C   0  0  0  0  0  0  0  0  0  0  0  0
   41.7770   81.7650   54.5210 H   0  0  0  0  0  0  0  0  0  0  0  0
   41.8240   81.5470   56.6760 C   0  0  0  0  0  0  0  0  0  0  0  0
   41.7840   80.4500   56.6340 H   0  0  0  0  0  0  0  0  0  0  0  0
   41.8760   82.1560   57.9250 C   0  0  0  0  0  0  0  0  0  0  0  0
   41.9230   83.5340   57.9110 C   0  0  0  0  0  0  0  0  0  0  0  0
   44.8020   80.3920   62.4480 C   0  0  0  0  0  0  0  0  0  0  0  0
   44.3820   81.7260   62.6040 C   0  0  0  0  0  0  0  0  0  0  0  0
   45.2180   82.6000   63.2970 C   0  0  0  0  0  0  0  0  0  0  0  0
   46.3870   82.0870   63.7710 N   0  0  0  0  0  0  0  0  0  0  0  0
   46.7680   80.8170   63.6110 C   0  0  0  0  0  0  0  0  0  0  0  0
   45.9730   79.9740   62.9490 N   0  0  0  0  0  0  0  0  0  0  0  0
   44.1190   79.7540   61.9030 H   0  0  0  0  0  0  0  0  0  0  0  0
   44.9910   83.6460   63.4740 H   0  0  0  0  0  0  0  0  0  0  0  0
   48.0860   80.4490   64.2030 C   0  0  0  0  0  0  0  0  0  0  0  0
   49.0380   81.4320   63.9880 F   0  0  0  0  0  0  0  0  0  0  0  0
   47.9530   80.2990   65.5730 F   0  0  0  0  0  0  0  0  0  0  0  0
   48.5930   79.2990   63.6300 F   0  0  0  0  0  0  0  0  0  0  0  0
  1  2  1  0  0  0  0
  2  3  1  0  0  0  0
  3 24  1  0  0  0  0
  3  4  2  0  0  0  0
  4  9  1  0  0  0  0
  5  4  1  0  0  0  0
  5 10  1  0  0  0  0
  6  5  2  0  0  0  0
  7  6  1  0  0  0  0
  8  2  2  0  0  0  0
  8  6  1  0  0  0  0
 11 12  1  0  0  0  0
 11  8  1  0  0  0  0
 13 12  2  0  0  0  0
 14 13  1  0  0  0  0
 15 14  2  0  0  0  0
 15 22  1  0  0  0  0
 16 15  1  0  0  0  0
 17 16  2  0  0  0  0
 17 19  1  0  0  0  0
 18 17  1  0  0  0  0
 19 21  2  0  0  0  0
 20 19  1  0  0  0  0
 22 21  1  0  0  0  0
 22 11  2  0  0  0  0
 23 24  2  0  0  0  0
 23 28  1  0  0  0  0
 24 25  1  0  0  0  0
 25 30  1  0  0  0  0
 25 26  2  0  0  0  0
 27 26  1  0  0  0  0
 27 31  1  0  0  0  0
 28 27  2  0  0  0  0
 29 23  1  0  0  0  0
 31 33  1  0  0  0  0
 32 31  1  0  0  0  0
 34 31  1  0  0  0  0
M  END
>  <minimizedAffinity>
-6.20754719

>  <minimizedRMSD>
5.26337767

$$$$
