
 OpenBabel03212520183D

 38 41  0  0  0  0  0  0  0  0999 V2000
   43.0700   83.9250   58.6640 Cl  0  0  0  0  0  0  0  0  0  0  0  0
   41.8560   82.7410   58.2790 C   0  0  0  0  0  0  0  0  0  0  0  0
   40.9860   82.2120   59.2190 C   0  0  0  0  0  0  0  0  0  0  0  0
   40.0840   81.2770   58.7520 C   0  0  0  0  0  0  0  0  0  0  0  0
   39.9640   80.8220   57.4580 C   0  0  0  0  0  0  0  0  0  0  0  0
   40.8470   81.3730   56.5560 C   0  0  0  0  0  0  0  0  0  0  0  0
   40.7960   80.8740   54.8680 Cl  0  0  0  0  0  0  0  0  0  0  0  0
   41.7860   82.3300   56.9790 C   0  0  0  0  0  0  0  0  0  0  0  0
   39.4070   80.8750   59.5050 H   0  0  0  0  0  0  0  0  0  0  0  0
   39.2260   80.0840   57.1810 H   0  0  0  0  0  0  0  0  0  0  0  0
   41.9200   82.1530   61.5800 C   0  0  0  0  0  0  0  0  0  0  0  0
   41.0820   82.6600   60.5670 C   0  0  0  0  0  0  0  0  0  0  0  0
   40.2490   83.7220   60.9060 C   0  0  0  0  0  0  0  0  0  0  0  0
   40.3130   84.1840   62.1900 N   0  0  0  0  0  0  0  0  0  0  0  0
   41.1170   83.6840   63.1270 C   0  0  0  0  0  0  0  0  0  0  0  0
   41.9380   82.6470   62.8180 N   0  0  0  0  0  0  0  0  0  0  0  0
   42.5350   81.3290   61.2420 H   0  0  0  0  0  0  0  0  0  0  0  0
   39.5490   84.2150   60.2270 H   0  0  0  0  0  0  0  0  0  0  0  0
   41.0450   84.3280   64.4600 C   0  0  0  0  0  0  0  0  0  0  0  0
   40.7020   85.6550   64.3800 F   0  0  0  0  0  0  0  0  0  0  0  0
   40.1030   83.6640   65.2470 F   0  0  0  0  0  0  0  0  0  0  0  0
   42.2930   84.3000   65.1070 F   0  0  0  0  0  0  0  0  0  0  0  0
   42.6410   82.8390   56.0150 O   0  0  0  0  0  0  0  0  0  0  0  0
   42.4230   84.0490   55.3180 C   0  0  0  0  0  0  0  0  0  0  0  0
   42.6900   84.9400   55.8900 H   0  0  0  0  0  0  0  0  0  0  0  0
   41.3280   84.1200   55.1550 H   0  0  0  0  0  0  0  0  0  0  0  0
   43.0690   83.9480   53.9950 C   0  0  0  0  0  0  0  0  0  0  0  0
   42.3360   83.3900   52.9790 N   0  0  0  0  0  0  0  0  0  0  0  0
   42.8330   83.1870   51.7490 C   0  0  0  0  0  3  0  0  0  0  0  0
   44.1080   83.5210   51.4070 N   0  0  0  0  0  0  0  0  0  0  0  0
   44.8850   84.0770   52.3580 C   0  0  0  0  0  0  0  0  0  0  0  0
   46.1860   84.4620   52.1040 C   0  0  0  0  0  3  0  0  0  0  0  0
   46.9780   85.0470   53.0820 C   0  0  0  0  0  0  0  0  0  0  0  0
   48.0170   85.3610   52.9040 H   0  0  0  0  0  0  0  0  0  0  0  0
   46.4310   85.2470   54.3490 C   0  0  0  0  0  0  0  0  0  0  0  0
   47.0500   85.7080   55.1150 H   0  0  0  0  0  0  0  0  0  0  0  0
   45.1320   84.8470   54.5560 C   0  0  0  0  0  3  0  0  0  0  0  0
   44.3490   84.2720   53.6090 C   0  0  0  0  0  0  0  0  0  0  0  0
  2  1  1  0  0  0  0
  2  3  1  0  0  0  0
  3 12  1  0  0  0  0
  4  3  2  0  0  0  0
  4  9  1  0  0  0  0
  5  4  1  0  0  0  0
  6  8  1  0  0  0  0
  6  5  2  0  0  0  0
  7  6  1  0  0  0  0
  8  2  2  0  0  0  0
 10  5  1  0  0  0  0
 11 16  1  0  0  0  0
 12 13  1  0  0  0  0
 12 11  2  0  0  0  0
 13 14  2  0  0  0  0
 14 15  1  0  0  0  0
 15 19  1  0  0  0  0
 16 15  2  0  0  0  0
 17 11  1  0  0  0  0
 18 13  1  0  0  0  0
 19 22  1  0  0  0  0
 19 21  1  0  0  0  0
 20 19  1  0  0  0  0
 23  8  1  0  0  0  0
 24 25  1  0  0  0  0
 24 23  1  0  0  0  0
 26 24  1  0  0  0  0
 27 24  1  0  0  0  0
 28 27  2  0  0  0  0
 29 28  1  0  0  0  0
 30 29  2  0  0  0  0
 30 31  1  0  0  0  0
 31 38  1  0  0  0  0
 32 31  2  0  0  0  0
 32 33  1  0  0  0  0
 33 35  2  0  0  0  0
 34 33  1  0  0  0  0
 35 37  1  0  0  0  0
 35 36  1  0  0  0  0
 38 27  1  0  0  0  0
 38 37  2  0  0  0  0
M  END
>  <minimizedAffinity>
-5.11373568

>  <minimizedRMSD>
1.3533988

$$$$
