
 OpenBabel03212520563D

 34 36  0  0  0  0  0  0  0  0999 V2000
   39.7480   77.3370   59.1980 C   0  0  0  0  0  0  0  0  0  0  0  0
   40.3850   76.1530   58.9590 C   0  0  0  0  0  0  0  0  0  0  0  0
   39.8550   75.4360   57.8830 C   0  0  0  0  0  0  0  0  0  0  0  0
   38.8190   75.8600   57.1480 N   0  0  0  0  0  0  0  0  0  0  0  0
   38.2520   77.0410   57.4560 C   0  0  0  0  0  0  0  0  0  0  0  0
   38.7110   77.7960   58.4890 N   0  0  0  0  0  0  0  0  0  0  0  0
   41.2190   75.7580   59.5120 H   0  0  0  0  0  0  0  0  0  0  0  0
   40.2600   74.4830   57.5820 H   0  0  0  0  0  0  0  0  0  0  0  0
   37.1250   77.5080   56.6510 C   0  0  0  0  0  0  0  0  0  0  0  0
   36.0120   76.9930   56.8470 O   0  0  0  0  0  0  0  0  0  0  0  0
   39.8980   78.0540   55.9630 N   0  0  0  0  0  0  0  0  0  0  0  0
   38.8420   78.5970   55.5460 C   0  0  0  0  0  0  0  0  0  0  0  0
   37.4340   78.5090   55.7250 N   0  0  0  0  0  0  0  0  0  0  0  0
   39.4870   79.5280   54.6600 N   0  0  0  0  0  0  0  0  0  0  0  0
   40.0670   79.4860   53.7970 H   0  0  0  0  0  0  0  0  0  0  0  0
   39.9610   77.3020   56.6380 H   0  0  0  0  0  0  0  0  0  0  0  0
   36.8270   79.1500   55.1880 H   0  0  0  0  0  0  0  0  0  0  0  0
   39.4590   80.5780   54.7780 H   0  0  0  0  0  0  0  0  0  0  0  0
   40.9570   80.2840   61.7370 C   0  0  0  0  0  0  0  0  0  0  0  0
   40.9250   79.0470   62.3550 C   0  0  0  0  0  0  0  0  0  0  0  0
   40.5380   77.9940   61.6060 C   0  0  0  0  0  0  0  0  0  0  0  0
   40.1910   78.1700   60.2750 C   0  0  0  0  0  0  0  0  0  0  0  0
   40.4230   79.9870   60.0240 S   0  0  0  0  0  0  0  0  0  0  0  0
   41.1980   78.9150   63.3950 H   0  0  0  0  0  0  0  0  0  0  0  0
   40.4500   76.9580   61.9030 H   0  0  0  0  0  0  0  0  0  0  0  0
   42.9900   83.1170   62.8600 C   0  0  0  0  0  0  0  0  0  0  0  0
   42.0980   83.8750   63.6470 C   0  0  0  0  0  0  0  0  0  0  0  0
   40.8070   83.4060   63.7840 C   0  0  0  0  0  0  0  0  0  0  0  0
   40.4750   82.2570   63.1600 N   0  0  0  0  0  0  0  0  0  0  0  0
   41.3580   81.5520   62.4100 C   0  0  0  0  0  0  0  0  0  0  0  0
   42.5800   81.9880   62.2750 N   0  0  0  0  0  0  0  0  0  0  0  0
   44.0190   83.4020   62.6940 H   0  0  0  0  0  0  0  0  0  0  0  0
   42.4530   84.7800   64.1060 H   0  0  0  0  0  0  0  0  0  0  0  0
   40.0940   83.9630   64.3810 H   0  0  0  0  0  0  0  0  0  0  0  0
  1 22  1  0  0  0  0
  2  1  1  0  0  0  0
  2  7  1  0  0  0  0
  3  2  2  0  0  0  0
  4  5  2  0  0  0  0
  4  3  1  0  0  0  0
  5  6  1  0  0  0  0
  6  1  2  0  0  0  0
  8  3  1  0  0  0  0
  9 10  2  0  0  0  0
  9  5  1  0  0  0  0
 11 16  1  0  0  0  0
 12 13  1  0  0  0  0
 12 11  2  0  0  0  0
 13  9  1  0  0  0  0
 14 18  1  0  0  0  0
 14 12  1  0  0  0  0
 15 14  1  0  0  0  0
 17 13  1  0  0  0  0
 19 20  2  0  0  0  0
 19 30  1  0  0  0  0
 20 24  1  0  0  0  0
 21 25  1  0  0  0  0
 21 20  1  0  0  0  0
 22 21  2  0  0  0  0
 23 22  1  0  0  0  0
 23 19  1  0  0  0  0
 26 27  1  0  0  0  0
 27 28  2  0  0  0  0
 27 33  1  0  0  0  0
 28 34  1  0  0  0  0
 29 28  1  0  0  0  0
 30 29  2  0  0  0  0
 31 30  1  0  0  0  0
 31 26  2  0  0  0  0
 32 26  1  0  0  0  0
M  END
>  <minimizedAffinity>
-5.83694458

>  <minimizedRMSD>
0.733678102

$$$$
