
 OpenBabel03212520563D

 34 36  0  0  0  0  0  0  0  0999 V2000
   39.6960   77.2830   59.0790 C   0  0  0  0  0  0  0  0  0  0  0  0
   40.3770   76.1350   58.7930 C   0  0  0  0  0  0  0  0  0  0  0  0
   39.8500   75.4230   57.7120 C   0  0  0  0  0  0  0  0  0  0  0  0
   38.7790   75.8200   57.0140 N   0  0  0  0  0  0  0  0  0  0  0  0
   38.1690   76.9670   57.3670 C   0  0  0  0  0  0  0  0  0  0  0  0
   38.6220   77.7150   58.4080 N   0  0  0  0  0  0  0  0  0  0  0  0
   41.2410   75.7630   59.3150 H   0  0  0  0  0  0  0  0  0  0  0  0
   40.2880   74.4970   57.3760 H   0  0  0  0  0  0  0  0  0  0  0  0
   37.0020   77.4040   56.6030 C   0  0  0  0  0  0  0  0  0  0  0  0
   35.8760   77.1920   57.0810 O   0  0  0  0  0  0  0  0  0  0  0  0
   37.3790   80.2860   56.4950 N   0  0  0  0  0  0  0  0  0  0  0  0
   37.4350   79.4300   55.5730 C   0  0  0  0  0  0  0  0  0  0  0  0
   37.2930   78.0290   55.3860 N   0  0  0  0  0  0  0  0  0  0  0  0
   37.7340   80.3600   54.5180 N   0  0  0  0  0  0  0  0  0  0  0  0
   38.5110   81.0060   54.2650 H   0  0  0  0  0  0  0  0  0  0  0  0
   37.1860   80.1040   57.4730 H   0  0  0  0  0  0  0  0  0  0  0  0
   37.4120   77.6430   54.4350 H   0  0  0  0  0  0  0  0  0  0  0  0
   37.0960   80.5580   53.6990 H   0  0  0  0  0  0  0  0  0  0  0  0
   40.9230   80.2020   61.6410 C   0  0  0  0  0  0  0  0  0  0  0  0
   40.8190   78.9730   62.2670 C   0  0  0  0  0  0  0  0  0  0  0  0
   40.4200   77.9300   61.5100 C   0  0  0  0  0  0  0  0  0  0  0  0
   40.1300   78.1080   60.1660 C   0  0  0  0  0  0  0  0  0  0  0  0
   40.4430   79.9120   59.9110 S   0  0  0  0  0  0  0  0  0  0  0  0
   41.0470   78.8390   63.3170 H   0  0  0  0  0  0  0  0  0  0  0  0
   40.2790   76.9010   61.8120 H   0  0  0  0  0  0  0  0  0  0  0  0
   43.0070   82.9990   62.7660 C   0  0  0  0  0  0  0  0  0  0  0  0
   42.1320   83.7620   63.5680 C   0  0  0  0  0  0  0  0  0  0  0  0
   40.8370   83.3100   63.7150 C   0  0  0  0  0  0  0  0  0  0  0  0
   40.4830   82.1700   63.0850 N   0  0  0  0  0  0  0  0  0  0  0  0
   41.3480   81.4590   62.3200 C   0  0  0  0  0  0  0  0  0  0  0  0
   42.5750   81.8800   62.1760 N   0  0  0  0  0  0  0  0  0  0  0  0
   44.0370   83.2710   62.5920 H   0  0  0  0  0  0  0  0  0  0  0  0
   42.5050   84.6590   64.0300 H   0  0  0  0  0  0  0  0  0  0  0  0
   40.1380   83.8710   64.3230 H   0  0  0  0  0  0  0  0  0  0  0  0
  1 22  1  0  0  0  0
  2  1  1  0  0  0  0
  2  7  1  0  0  0  0
  3  2  2  0  0  0  0
  4  5  2  0  0  0  0
  4  3  1  0  0  0  0
  5  6  1  0  0  0  0
  6  1  2  0  0  0  0
  8  3  1  0  0  0  0
  9 10  2  0  0  0  0
  9  5  1  0  0  0  0
 11 16  1  0  0  0  0
 12 11  2  0  0  0  0
 13 12  1  0  0  0  0
 13  9  1  0  0  0  0
 14 12  1  0  0  0  0
 15 14  1  0  0  0  0
 17 13  1  0  0  0  0
 18 14  1  0  0  0  0
 19 20  2  0  0  0  0
 19 30  1  0  0  0  0
 20 24  1  0  0  0  0
 21 25  1  0  0  0  0
 21 20  1  0  0  0  0
 22 21  2  0  0  0  0
 23 22  1  0  0  0  0
 23 19  1  0  0  0  0
 26 27  1  0  0  0  0
 27 28  2  0  0  0  0
 27 33  1  0  0  0  0
 28 34  1  0  0  0  0
 29 28  1  0  0  0  0
 30 29  2  0  0  0  0
 31 30  1  0  0  0  0
 31 26  2  0  0  0  0
 32 26  1  0  0  0  0
M  END
>  <minimizedAffinity>
-6.6351285

>  <minimizedRMSD>
0.349140316

$$$$
