
 OpenBabel03212520563D

 34 36  0  0  0  0  0  0  0  0999 V2000
   39.5740   76.9910   59.1980 C   0  0  0  0  0  0  0  0  0  0  0  0
   40.0400   75.7090   59.1440 C   0  0  0  0  0  0  0  0  0  0  0  0
   39.5160   74.9640   58.0840 C   0  0  0  0  0  0  0  0  0  0  0  0
   38.6390   75.4510   57.1970 N   0  0  0  0  0  0  0  0  0  0  0  0
   38.2340   76.7280   57.3280 C   0  0  0  0  0  0  0  0  0  0  0  0
   38.6990   77.5160   58.3340 N   0  0  0  0  0  0  0  0  0  0  0  0
   40.7420   75.2590   59.8240 H   0  0  0  0  0  0  0  0  0  0  0  0
   39.7960   73.9360   57.9200 H   0  0  0  0  0  0  0  0  0  0  0  0
   37.2810   77.2640   56.3580 C   0  0  0  0  0  0  0  0  0  0  0  0
   36.0730   77.0430   56.5410 O   0  0  0  0  0  0  0  0  0  0  0  0
   35.9850   77.3130   53.7540 N   0  0  0  0  0  0  0  0  0  0  0  0
   37.0490   77.8650   54.1360 C   0  0  0  0  0  0  0  0  0  0  0  0
   37.8510   77.9840   55.3030 N   0  0  0  0  0  0  0  0  0  0  0  0
   37.3590   78.4870   52.8770 N   0  0  0  0  0  0  0  0  0  0  0  0
   36.9430   79.2150   52.2600 H   0  0  0  0  0  0  0  0  0  0  0  0
   35.3740   76.7320   54.3160 H   0  0  0  0  0  0  0  0  0  0  0  0
   38.7140   78.5500   55.2550 H   0  0  0  0  0  0  0  0  0  0  0  0
   38.2070   78.2530   52.2900 H   0  0  0  0  0  0  0  0  0  0  0  0
   40.8490   80.0220   61.6010 C   0  0  0  0  0  0  0  0  0  0  0  0
   40.7650   78.8210   62.2820 C   0  0  0  0  0  0  0  0  0  0  0  0
   40.3520   77.7450   61.5810 C   0  0  0  0  0  0  0  0  0  0  0  0
   40.0300   77.8630   60.2380 C   0  0  0  0  0  0  0  0  0  0  0  0
   40.3300   79.6550   59.8980 S   0  0  0  0  0  0  0  0  0  0  0  0
   41.0180   78.7330   63.3310 H   0  0  0  0  0  0  0  0  0  0  0  0
   40.2240   76.7290   61.9300 H   0  0  0  0  0  0  0  0  0  0  0  0
   42.9680   82.8300   62.6270 C   0  0  0  0  0  0  0  0  0  0  0  0
   42.0870   83.6660   63.3440 C   0  0  0  0  0  0  0  0  0  0  0  0
   40.7740   83.2580   63.4680 C   0  0  0  0  0  0  0  0  0  0  0  0
   40.4120   82.0900   62.8990 N   0  0  0  0  0  0  0  0  0  0  0  0
   41.2840   81.3090   62.2150 C   0  0  0  0  0  0  0  0  0  0  0  0
   42.5270   81.6870   62.0930 N   0  0  0  0  0  0  0  0  0  0  0  0
   44.0120   83.0630   62.4760 H   0  0  0  0  0  0  0  0  0  0  0  0
   42.4680   84.5800   63.7630 H   0  0  0  0  0  0  0  0  0  0  0  0
   40.0700   83.8760   64.0120 H   0  0  0  0  0  0  0  0  0  0  0  0
  1 22  1  0  0  0  0
  2  1  1  0  0  0  0
  2  7  1  0  0  0  0
  3  2  2  0  0  0  0
  4  5  2  0  0  0  0
  4  3  1  0  0  0  0
  5  6  1  0  0  0  0
  6  1  2  0  0  0  0
  8  3  1  0  0  0  0
  9 10  2  0  0  0  0
  9  5  1  0  0  0  0
 11 12  2  0  0  0  0
 11 16  1  0  0  0  0
 12 13  1  0  0  0  0
 13  9  1  0  0  0  0
 14 12  1  0  0  0  0
 15 14  1  0  0  0  0
 17 13  1  0  0  0  0
 18 14  1  0  0  0  0
 19 30  1  0  0  0  0
 19 20  2  0  0  0  0
 20 24  1  0  0  0  0
 21 25  1  0  0  0  0
 21 20  1  0  0  0  0
 22 21  2  0  0  0  0
 23 22  1  0  0  0  0
 23 19  1  0  0  0  0
 26 27  1  0  0  0  0
 27 28  2  0  0  0  0
 27 33  1  0  0  0  0
 28 34  1  0  0  0  0
 29 28  1  0  0  0  0
 30 29  2  0  0  0  0
 31 30  1  0  0  0  0
 31 26  2  0  0  0  0
 32 26  1  0  0  0  0
M  END
>  <minimizedAffinity>
-6.32808304

>  <minimizedRMSD>
0.535209298

$$$$
