
 OpenBabel03212520563D

 34 36  0  0  0  0  0  0  0  0999 V2000
   39.7100   77.3330   59.4180 C   0  0  0  0  0  0  0  0  0  0  0  0
   40.0650   76.0150   59.4180 C   0  0  0  0  0  0  0  0  0  0  0  0
   39.5330   75.2890   58.3490 C   0  0  0  0  0  0  0  0  0  0  0  0
   38.7500   75.8260   57.4050 N   0  0  0  0  0  0  0  0  0  0  0  0
   38.4510   77.1350   57.4840 C   0  0  0  0  0  0  0  0  0  0  0  0
   38.9300   77.9080   58.4960 N   0  0  0  0  0  0  0  0  0  0  0  0
   40.6890   75.5250   60.1460 H   0  0  0  0  0  0  0  0  0  0  0  0
   39.7310   74.2360   58.2230 H   0  0  0  0  0  0  0  0  0  0  0  0
   37.6000   77.7240   56.4520 C   0  0  0  0  0  0  0  0  0  0  0  0
   36.7250   78.5310   56.8050 O   0  0  0  0  0  0  0  0  0  0  0  0
   37.1030   79.5030   54.2060 N   0  0  0  0  0  0  0  0  0  0  0  0
   37.5550   78.3280   54.2210 C   0  0  0  0  0  0  0  0  0  0  0  0
   37.8730   77.3010   55.1480 N   0  0  0  0  0  0  0  0  0  0  0  0
   37.7200   78.2100   52.7960 N   0  0  0  0  0  0  0  0  0  0  0  0
   38.2940   78.6580   52.0530 H   0  0  0  0  0  0  0  0  0  0  0  0
   36.8250   80.0500   55.0120 H   0  0  0  0  0  0  0  0  0  0  0  0
   38.2470   76.4080   54.7870 H   0  0  0  0  0  0  0  0  0  0  0  0
   37.1860   77.5290   52.1890 H   0  0  0  0  0  0  0  0  0  0  0  0
   40.9750   80.3410   61.8560 C   0  0  0  0  0  0  0  0  0  0  0  0
   40.9990   79.1130   62.4920 C   0  0  0  0  0  0  0  0  0  0  0  0
   40.5990   78.0420   61.7760 C   0  0  0  0  0  0  0  0  0  0  0  0
   40.1860   78.1910   60.4610 C   0  0  0  0  0  0  0  0  0  0  0  0
   40.3680   80.0080   60.1740 S   0  0  0  0  0  0  0  0  0  0  0  0
   41.3230   79.0010   63.5190 H   0  0  0  0  0  0  0  0  0  0  0  0
   40.5470   77.0090   62.0910 H   0  0  0  0  0  0  0  0  0  0  0  0
   43.0170   83.2030   62.8880 C   0  0  0  0  0  0  0  0  0  0  0  0
   42.1300   83.9820   63.6610 C   0  0  0  0  0  0  0  0  0  0  0  0
   40.8400   83.5180   63.8190 C   0  0  0  0  0  0  0  0  0  0  0  0
   40.5040   82.3520   63.2280 N   0  0  0  0  0  0  0  0  0  0  0  0
   41.3810   81.6260   62.4910 C   0  0  0  0  0  0  0  0  0  0  0  0
   42.6030   82.0590   62.3370 N   0  0  0  0  0  0  0  0  0  0  0  0
   44.0450   83.4830   62.7080 H   0  0  0  0  0  0  0  0  0  0  0  0
   42.4890   84.8990   64.0920 H   0  0  0  0  0  0  0  0  0  0  0  0
   40.1310   84.0900   64.4050 H   0  0  0  0  0  0  0  0  0  0  0  0
  1 22  1  0  0  0  0
  2  1  1  0  0  0  0
  2  7  1  0  0  0  0
  3  2  2  0  0  0  0
  4  5  2  0  0  0  0
  4  3  1  0  0  0  0
  5  6  1  0  0  0  0
  6  1  2  0  0  0  0
  8  3  1  0  0  0  0
  9 10  2  0  0  0  0
  9  5  1  0  0  0  0
 11 12  2  0  0  0  0
 11 16  1  0  0  0  0
 12 13  1  0  0  0  0
 13  9  1  0  0  0  0
 14 12  1  0  0  0  0
 15 14  1  0  0  0  0
 17 13  1  0  0  0  0
 18 14  1  0  0  0  0
 19 30  1  0  0  0  0
 19 20  2  0  0  0  0
 20 24  1  0  0  0  0
 21 25  1  0  0  0  0
 21 20  1  0  0  0  0
 22 21  2  0  0  0  0
 23 22  1  0  0  0  0
 23 19  1  0  0  0  0
 26 27  1  0  0  0  0
 27 28  2  0  0  0  0
 27 33  1  0  0  0  0
 28 34  1  0  0  0  0
 29 28  1  0  0  0  0
 30 29  2  0  0  0  0
 31 30  1  0  0  0  0
 31 26  2  0  0  0  0
 32 26  1  0  0  0  0
M  END
>  <minimizedAffinity>
-5.97325325

>  <minimizedRMSD>
0.719604373

$$$$
