
 OpenBabel03212520563D

 34 36  0  0  0  0  0  0  0  0999 V2000
   39.8120   77.0780   59.1000 C   0  0  0  0  0  0  0  0  0  0  0  0
   40.4180   75.8550   59.0630 C   0  0  0  0  0  0  0  0  0  0  0  0
   40.0150   75.0610   57.9870 C   0  0  0  0  0  0  0  0  0  0  0  0
   39.1210   75.4510   57.0700 N   0  0  0  0  0  0  0  0  0  0  0  0
   38.5740   76.6750   57.1850 C   0  0  0  0  0  0  0  0  0  0  0  0
   38.9140   77.5070   58.2060 N   0  0  0  0  0  0  0  0  0  0  0  0
   41.1410   75.4840   59.7680 H   0  0  0  0  0  0  0  0  0  0  0  0
   40.4130   74.0700   57.8330 H   0  0  0  0  0  0  0  0  0  0  0  0
   37.6010   77.1050   56.1830 C   0  0  0  0  0  0  0  0  0  0  0  0
   36.4030   76.8430   56.3790 O   0  0  0  0  0  0  0  0  0  0  0  0
   36.0160   77.4840   53.7740 N   0  0  0  0  0  0  0  0  0  0  0  0
   37.1940   77.8470   54.0300 C   0  0  0  0  0  0  0  0  0  0  0  0
   38.1430   77.7820   55.0850 N   0  0  0  0  0  0  0  0  0  0  0  0
   37.4390   78.4780   52.7620 N   0  0  0  0  0  0  0  0  0  0  0  0
   37.0700   79.2910   52.2270 H   0  0  0  0  0  0  0  0  0  0  0  0
   35.3950   76.9770   54.3930 H   0  0  0  0  0  0  0  0  0  0  0  0
   39.0700   78.2120   54.9420 H   0  0  0  0  0  0  0  0  0  0  0  0
   38.1600   78.1480   52.0620 H   0  0  0  0  0  0  0  0  0  0  0  0
   40.7090   80.2180   61.5350 C   0  0  0  0  0  0  0  0  0  0  0  0
   40.6530   79.0230   62.2290 C   0  0  0  0  0  0  0  0  0  0  0  0
   40.3620   77.9130   61.5190 C   0  0  0  0  0  0  0  0  0  0  0  0
   40.1330   77.9920   60.1540 C   0  0  0  0  0  0  0  0  0  0  0  0
   40.3410   79.7950   59.8050 S   0  0  0  0  0  0  0  0  0  0  0  0
   40.8320   78.9660   63.2950 H   0  0  0  0  0  0  0  0  0  0  0  0
   40.2740   76.8960   61.8760 H   0  0  0  0  0  0  0  0  0  0  0  0
   42.5850   83.0800   62.8440 C   0  0  0  0  0  0  0  0  0  0  0  0
   41.5780   83.9580   63.2970 C   0  0  0  0  0  0  0  0  0  0  0  0
   40.2650   83.5590   63.1480 C   0  0  0  0  0  0  0  0  0  0  0  0
   40.0220   82.3600   62.5810 N   0  0  0  0  0  0  0  0  0  0  0  0
   41.0140   81.5380   62.1550 C   0  0  0  0  0  0  0  0  0  0  0  0
   42.2590   81.9080   62.2920 N   0  0  0  0  0  0  0  0  0  0  0  0
   43.6400   83.3030   62.9170 H   0  0  0  0  0  0  0  0  0  0  0  0
   41.8690   84.8950   63.7370 H   0  0  0  0  0  0  0  0  0  0  0  0
   39.4660   84.2080   63.4850 H   0  0  0  0  0  0  0  0  0  0  0  0
  1 22  1  0  0  0  0
  2  1  1  0  0  0  0
  2  7  1  0  0  0  0
  3  2  2  0  0  0  0
  4  5  2  0  0  0  0
  4  3  1  0  0  0  0
  5  6  1  0  0  0  0
  6  1  2  0  0  0  0
  8  3  1  0  0  0  0
  9 10  2  0  0  0  0
  9  5  1  0  0  0  0
 11 12  2  0  0  0  0
 11 16  1  0  0  0  0
 12 13  1  0  0  0  0
 13  9  1  0  0  0  0
 14 12  1  0  0  0  0
 15 14  1  0  0  0  0
 17 13  1  0  0  0  0
 18 14  1  0  0  0  0
 19 30  1  0  0  0  0
 19 20  2  0  0  0  0
 20 24  1  0  0  0  0
 21 25  1  0  0  0  0
 21 20  1  0  0  0  0
 22 21  2  0  0  0  0
 23 22  1  0  0  0  0
 23 19  1  0  0  0  0
 26 32  1  0  0  0  0
 26 27  1  0  0  0  0
 27 33  1  0  0  0  0
 28 27  2  0  0  0  0
 28 34  1  0  0  0  0
 29 28  1  0  0  0  0
 30 31  1  0  0  0  0
 30 29  2  0  0  0  0
 31 26  2  0  0  0  0
M  END
>  <minimizedAffinity>
-6.05525875

>  <minimizedRMSD>
0.606634617

$$$$
