
 OpenBabel03212520563D

 34 36  0  0  0  0  0  0  0  0999 V2000
   39.5950   76.9530   59.3160 C   0  0  0  0  0  0  0  0  0  0  0  0
   40.1180   75.6970   59.1970 C   0  0  0  0  0  0  0  0  0  0  0  0
   39.5410   74.9420   58.1730 C   0  0  0  0  0  0  0  0  0  0  0  0
   38.5660   75.3960   57.3750 N   0  0  0  0  0  0  0  0  0  0  0  0
   38.1110   76.6490   57.5640 C   0  0  0  0  0  0  0  0  0  0  0  0
   38.6220   77.4450   58.5410 N   0  0  0  0  0  0  0  0  0  0  0  0
   40.8980   75.2740   59.8060 H   0  0  0  0  0  0  0  0  0  0  0  0
   39.8570   73.9320   57.9660 H   0  0  0  0  0  0  0  0  0  0  0  0
   37.0510   77.1490   56.6910 C   0  0  0  0  0  0  0  0  0  0  0  0
   35.8800   77.0910   57.0990 O   0  0  0  0  0  0  0  0  0  0  0  0
   37.8880   75.3230   54.5860 N   0  0  0  0  0  0  0  0  0  0  0  0
   37.8420   76.5810   54.5920 C   0  0  0  0  0  0  0  0  0  0  0  0
   37.4860   77.6490   55.4590 N   0  0  0  0  0  0  0  0  0  0  0  0
   38.3280   76.7580   53.2500 N   0  0  0  0  0  0  0  0  0  0  0  0
   38.0120   76.5310   52.2850 H   0  0  0  0  0  0  0  0  0  0  0  0
   37.6280   74.7090   55.3490 H   0  0  0  0  0  0  0  0  0  0  0  0
   37.5790   78.6180   55.1150 H   0  0  0  0  0  0  0  0  0  0  0  0
   39.2430   77.2300   53.0070 H   0  0  0  0  0  0  0  0  0  0  0  0
   40.9810   79.9980   61.6380 C   0  0  0  0  0  0  0  0  0  0  0  0
   40.9150   78.8040   62.3340 C   0  0  0  0  0  0  0  0  0  0  0  0
   40.4680   77.7240   61.6600 C   0  0  0  0  0  0  0  0  0  0  0  0
   40.0960   77.8320   60.3290 C   0  0  0  0  0  0  0  0  0  0  0  0
   40.3950   79.6180   59.9590 S   0  0  0  0  0  0  0  0  0  0  0  0
   41.2060   78.7250   63.3740 H   0  0  0  0  0  0  0  0  0  0  0  0
   40.3460   76.7130   62.0240 H   0  0  0  0  0  0  0  0  0  0  0  0
   43.1600   82.7950   62.5630 C   0  0  0  0  0  0  0  0  0  0  0  0
   42.3090   83.6500   63.2960 C   0  0  0  0  0  0  0  0  0  0  0  0
   40.9970   83.2580   63.4650 C   0  0  0  0  0  0  0  0  0  0  0  0
   40.6050   82.0870   62.9220 N   0  0  0  0  0  0  0  0  0  0  0  0
   41.4480   81.2870   62.2220 C   0  0  0  0  0  0  0  0  0  0  0  0
   42.6910   81.6510   62.0580 N   0  0  0  0  0  0  0  0  0  0  0  0
   44.2010   83.0150   62.3780 H   0  0  0  0  0  0  0  0  0  0  0  0
   42.7120   84.5650   63.6910 H   0  0  0  0  0  0  0  0  0  0  0  0
   40.3160   83.8900   64.0220 H   0  0  0  0  0  0  0  0  0  0  0  0
  1 22  1  0  0  0  0
  2  1  1  0  0  0  0
  2  7  1  0  0  0  0
  3  2  2  0  0  0  0
  4  5  2  0  0  0  0
  4  3  1  0  0  0  0
  5  6  1  0  0  0  0
  6  1  2  0  0  0  0
  8  3  1  0  0  0  0
  9 10  2  0  0  0  0
  9  5  1  0  0  0  0
 11 12  2  0  0  0  0
 11 16  1  0  0  0  0
 12 13  1  0  0  0  0
 13  9  1  0  0  0  0
 14 12  1  0  0  0  0
 15 14  1  0  0  0  0
 17 13  1  0  0  0  0
 18 14  1  0  0  0  0
 19 30  1  0  0  0  0
 19 20  2  0  0  0  0
 20 24  1  0  0  0  0
 21 25  1  0  0  0  0
 21 20  1  0  0  0  0
 22 21  2  0  0  0  0
 23 22  1  0  0  0  0
 23 19  1  0  0  0  0
 26 27  1  0  0  0  0
 27 28  2  0  0  0  0
 27 33  1  0  0  0  0
 28 34  1  0  0  0  0
 29 28  1  0  0  0  0
 30 29  2  0  0  0  0
 31 30  1  0  0  0  0
 31 26  2  0  0  0  0
 32 26  1  0  0  0  0
M  END
>  <minimizedAffinity>
-6.21782017

>  <minimizedRMSD>
0.335581481

$$$$
