
 OpenBabel03212520563D

 34 36  0  0  0  0  0  0  0  0999 V2000
   39.7040   76.8070   59.8090 C   0  0  0  0  0  0  0  0  0  0  0  0
   40.0740   75.5130   60.0330 C   0  0  0  0  0  0  0  0  0  0  0  0
   39.6160   74.6200   59.0610 C   0  0  0  0  0  0  0  0  0  0  0  0
   38.8830   74.9880   58.0030 N   0  0  0  0  0  0  0  0  0  0  0  0
   38.5630   76.2880   57.8620 C   0  0  0  0  0  0  0  0  0  0  0  0
   38.9720   77.2170   58.7680 N   0  0  0  0  0  0  0  0  0  0  0  0
   40.6600   75.1540   60.8620 H   0  0  0  0  0  0  0  0  0  0  0  0
   39.8340   73.5650   59.1110 H   0  0  0  0  0  0  0  0  0  0  0  0
   37.7670   76.6930   56.7050 C   0  0  0  0  0  0  0  0  0  0  0  0
   36.5680   76.9580   56.8840 O   0  0  0  0  0  0  0  0  0  0  0  0
   36.3970   77.4700   54.2600 N   0  0  0  0  0  0  0  0  0  0  0  0
   37.5970   77.1400   54.4430 C   0  0  0  0  0  0  0  0  0  0  0  0
   38.4640   76.7380   55.4930 N   0  0  0  0  0  0  0  0  0  0  0  0
   38.0060   77.2860   53.0710 N   0  0  0  0  0  0  0  0  0  0  0  0
   38.0910   78.0540   52.3740 H   0  0  0  0  0  0  0  0  0  0  0  0
   35.6740   77.5220   54.9680 H   0  0  0  0  0  0  0  0  0  0  0  0
   39.4520   76.5330   55.2700 H   0  0  0  0  0  0  0  0  0  0  0  0
   38.3370   76.4870   52.4600 H   0  0  0  0  0  0  0  0  0  0  0  0
   40.8110   80.1750   61.8150 C   0  0  0  0  0  0  0  0  0  0  0  0
   40.7680   79.0680   62.6440 C   0  0  0  0  0  0  0  0  0  0  0  0
   40.4120   77.8940   62.0830 C   0  0  0  0  0  0  0  0  0  0  0  0
   40.1060   77.8250   60.7330 C   0  0  0  0  0  0  0  0  0  0  0  0
   40.3350   79.5700   60.1680 S   0  0  0  0  0  0  0  0  0  0  0  0
   41.0070   79.1270   63.6980 H   0  0  0  0  0  0  0  0  0  0  0  0
   40.3210   76.9270   62.5590 H   0  0  0  0  0  0  0  0  0  0  0  0
   42.8240   83.1160   62.6680 C   0  0  0  0  0  0  0  0  0  0  0  0
   41.8660   84.0630   63.0860 C   0  0  0  0  0  0  0  0  0  0  0  0
   40.5390   83.6840   63.0710 C   0  0  0  0  0  0  0  0  0  0  0  0
   40.2370   82.4350   62.6580 N   0  0  0  0  0  0  0  0  0  0  0  0
   41.1820   81.5470   62.2620 C   0  0  0  0  0  0  0  0  0  0  0  0
   42.4390   81.8980   62.2730 N   0  0  0  0  0  0  0  0  0  0  0  0
   43.8850   83.3190   62.6450 H   0  0  0  0  0  0  0  0  0  0  0  0
   42.2030   85.0360   63.3980 H   0  0  0  0  0  0  0  0  0  0  0  0
   39.7770   84.3860   63.3850 H   0  0  0  0  0  0  0  0  0  0  0  0
  1  2  1  0  0  0  0
  1 22  1  0  0  0  0
  2  7  1  0  0  0  0
  3  8  1  0  0  0  0
  3  2  2  0  0  0  0
  4  3  1  0  0  0  0
  5  4  2  0  0  0  0
  5  6  1  0  0  0  0
  6  1  2  0  0  0  0
  9 10  2  0  0  0  0
  9  5  1  0  0  0  0
 11 12  2  0  0  0  0
 11 16  1  0  0  0  0
 12 13  1  0  0  0  0
 13  9  1  0  0  0  0
 14 12  1  0  0  0  0
 15 14  1  0  0  0  0
 17 13  1  0  0  0  0
 18 14  1  0  0  0  0
 19 30  1  0  0  0  0
 19 20  2  0  0  0  0
 20 24  1  0  0  0  0
 21 25  1  0  0  0  0
 21 20  1  0  0  0  0
 22 21  2  0  0  0  0
 23 22  1  0  0  0  0
 23 19  1  0  0  0  0
 26 27  1  0  0  0  0
 27 33  1  0  0  0  0
 28 27  2  0  0  0  0
 28 34  1  0  0  0  0
 29 28  1  0  0  0  0
 30 31  1  0  0  0  0
 30 29  2  0  0  0  0
 31 26  2  0  0  0  0
 32 26  1  0  0  0  0
M  END
>  <minimizedAffinity>
-5.88366556

>  <minimizedRMSD>
0.908912539

$$$$
