
 OpenBabel03212520563D

 34 36  0  0  0  0  0  0  0  0999 V2000
   40.2180   78.3490   58.6730 C   0  0  0  0  0  0  0  0  0  0  0  0
   41.2460   77.7370   58.0150 C   0  0  0  0  0  0  0  0  0  0  0  0
   40.8570   77.0960   56.8360 C   0  0  0  0  0  0  0  0  0  0  0  0
   39.5970   77.0780   56.3820 N   0  0  0  0  0  0  0  0  0  0  0  0
   38.6470   77.7090   57.0960 C   0  0  0  0  0  0  0  0  0  0  0  0
   38.9470   78.3540   58.2550 N   0  0  0  0  0  0  0  0  0  0  0  0
   42.2760   77.7140   58.3270 H   0  0  0  0  0  0  0  0  0  0  0  0
   41.5660   76.5720   56.2150 H   0  0  0  0  0  0  0  0  0  0  0  0
   37.2720   77.6950   56.6000 C   0  0  0  0  0  0  0  0  0  0  0  0
   36.4250   77.0540   57.2420 O   0  0  0  0  0  0  0  0  0  0  0  0
   37.8210   80.5500   56.5360 N   0  0  0  0  0  0  0  0  0  0  0  0
   37.3940   79.7910   55.6290 C   0  0  0  0  0  0  0  0  0  0  0  0
   37.0600   78.4250   55.4260 N   0  0  0  0  0  0  0  0  0  0  0  0
   37.2870   80.8070   54.6170 N   0  0  0  0  0  0  0  0  0  0  0  0
   37.9300   81.4350   54.0920 H   0  0  0  0  0  0  0  0  0  0  0  0
   38.0570   80.2810   57.4850 H   0  0  0  0  0  0  0  0  0  0  0  0
   36.7190   78.1320   54.4960 H   0  0  0  0  0  0  0  0  0  0  0  0
   36.3760   81.1190   54.1790 H   0  0  0  0  0  0  0  0  0  0  0  0
   41.0020   80.9530   61.7050 C   0  0  0  0  0  0  0  0  0  0  0  0
   40.8590   79.6550   62.1600 C   0  0  0  0  0  0  0  0  0  0  0  0
   40.5960   78.7060   61.2380 C   0  0  0  0  0  0  0  0  0  0  0  0
   40.4790   79.0410   59.8980 C   0  0  0  0  0  0  0  0  0  0  0  0
   40.7630   80.8680   59.9040 S   0  0  0  0  0  0  0  0  0  0  0  0
   40.9520   79.3970   63.2080 H   0  0  0  0  0  0  0  0  0  0  0  0
   40.4520   77.6450   61.3940 H   0  0  0  0  0  0  0  0  0  0  0  0
   42.8000   83.7000   63.3330 C   0  0  0  0  0  0  0  0  0  0  0  0
   41.8310   84.2710   64.1850 C   0  0  0  0  0  0  0  0  0  0  0  0
   40.5710   83.7080   64.1920 C   0  0  0  0  0  0  0  0  0  0  0  0
   40.3390   82.6500   63.3870 N   0  0  0  0  0  0  0  0  0  0  0  0
   41.2930   82.1240   62.5790 C   0  0  0  0  0  0  0  0  0  0  0  0
   42.4870   82.6510   62.5670 N   0  0  0  0  0  0  0  0  0  0  0  0
   43.8120   84.0700   63.2590 H   0  0  0  0  0  0  0  0  0  0  0  0
   42.1090   85.1150   64.7910 H   0  0  0  0  0  0  0  0  0  0  0  0
   39.8020   84.1210   64.8340 H   0  0  0  0  0  0  0  0  0  0  0  0
  1 22  1  0  0  0  0
  2  7  1  0  0  0  0
  2  1  2  0  0  0  0
  3  2  1  0  0  0  0
  4  3  2  0  0  0  0
  4  5  1  0  0  0  0
  5  6  2  0  0  0  0
  6  1  1  0  0  0  0
  8  3  1  0  0  0  0
  9  5  1  0  0  0  0
  9 10  2  0  0  0  0
 11 16  1  0  0  0  0
 12 11  2  0  0  0  0
 13 12  1  0  0  0  0
 13  9  1  0  0  0  0
 14 12  1  0  0  0  0
 15 14  1  0  0  0  0
 17 13  1  0  0  0  0
 18 14  1  0  0  0  0
 19 20  2  0  0  0  0
 19 30  1  0  0  0  0
 20 24  1  0  0  0  0
 21 25  1  0  0  0  0
 21 20  1  0  0  0  0
 22 23  1  0  0  0  0
 22 21  2  0  0  0  0
 23 19  1  0  0  0  0
 26 27  1  0  0  0  0
 27 28  2  0  0  0  0
 27 33  1  0  0  0  0
 28 34  1  0  0  0  0
 29 28  1  0  0  0  0
 30 29  2  0  0  0  0
 31 30  1  0  0  0  0
 31 26  2  0  0  0  0
 32 26  1  0  0  0  0
M  END
>  <minimizedAffinity>
-6.57312536

>  <minimizedRMSD>
1.2391963

$$$$
