
 OpenBabel03212520563D

 34 36  0  0  0  0  0  0  0  0999 V2000
   39.8710   77.6280   59.1870 C   0  0  0  0  0  0  0  0  0  0  0  0
   40.6000   76.5260   58.8430 C   0  0  0  0  0  0  0  0  0  0  0  0
   40.0850   75.8310   57.7460 C   0  0  0  0  0  0  0  0  0  0  0  0
   38.9820   76.2010   57.0840 N   0  0  0  0  0  0  0  0  0  0  0  0
   38.3250   77.3020   57.4940 C   0  0  0  0  0  0  0  0  0  0  0  0
   38.7640   78.0320   58.5540 N   0  0  0  0  0  0  0  0  0  0  0  0
   41.4920   76.1770   59.3330 H   0  0  0  0  0  0  0  0  0  0  0  0
   40.5610   74.9410   57.3650 H   0  0  0  0  0  0  0  0  0  0  0  0
   37.1230   77.7110   56.7690 C   0  0  0  0  0  0  0  0  0  0  0  0
   36.1680   76.9190   56.7270 O   0  0  0  0  0  0  0  0  0  0  0  0
   39.6750   78.7870   55.8790 N   0  0  0  0  0  0  0  0  0  0  0  0
   38.5250   79.2960   55.8350 C   0  0  0  0  0  0  0  0  0  0  0  0
   37.1850   78.9830   56.1900 N   0  0  0  0  0  0  0  0  0  0  0  0
   38.9290   80.5310   55.2180 N   0  0  0  0  0  0  0  0  0  0  0  0
   39.3390   80.8350   54.3100 H   0  0  0  0  0  0  0  0  0  0  0  0
   39.9150   77.8750   56.2500 H   0  0  0  0  0  0  0  0  0  0  0  0
   36.4460   79.6770   55.9960 H   0  0  0  0  0  0  0  0  0  0  0  0
   38.8520   81.4800   55.6780 H   0  0  0  0  0  0  0  0  0  0  0  0
   41.0010   80.5050   61.8390 C   0  0  0  0  0  0  0  0  0  0  0  0
   40.9850   79.2470   62.4140 C   0  0  0  0  0  0  0  0  0  0  0  0
   40.6240   78.2150   61.6240 C   0  0  0  0  0  0  0  0  0  0  0  0
   40.2880   78.4310   60.2970 C   0  0  0  0  0  0  0  0  0  0  0  0
   40.4910   80.2590   60.1110 S   0  0  0  0  0  0  0  0  0  0  0  0
   41.2490   79.0830   63.4510 H   0  0  0  0  0  0  0  0  0  0  0  0
   40.5510   77.1670   61.8850 H   0  0  0  0  0  0  0  0  0  0  0  0
   42.9690   83.3400   63.0710 C   0  0  0  0  0  0  0  0  0  0  0  0
   42.0590   84.0460   63.8860 C   0  0  0  0  0  0  0  0  0  0  0  0
   40.7800   83.5430   64.0040 C   0  0  0  0  0  0  0  0  0  0  0  0
   40.4750   82.4110   63.3360 N   0  0  0  0  0  0  0  0  0  0  0  0
   41.3730   81.7550   62.5600 C   0  0  0  0  0  0  0  0  0  0  0  0
   42.5850   82.2250   62.4430 N   0  0  0  0  0  0  0  0  0  0  0  0
   43.9910   83.6550   62.9160 H   0  0  0  0  0  0  0  0  0  0  0  0
   42.3940   84.9410   64.3790 H   0  0  0  0  0  0  0  0  0  0  0  0
   40.0550   84.0600   64.6210 H   0  0  0  0  0  0  0  0  0  0  0  0
  1 22  1  0  0  0  0
  2  1  1  0  0  0  0
  2  7  1  0  0  0  0
  3  2  2  0  0  0  0
  4  5  2  0  0  0  0
  4  3  1  0  0  0  0
  5  6  1  0  0  0  0
  6  1  2  0  0  0  0
  8  3  1  0  0  0  0
  9  5  1  0  0  0  0
 10  9  2  0  0  0  0
 11 16  1  0  0  0  0
 12 11  2  0  0  0  0
 12 13  1  0  0  0  0
 13  9  1  0  0  0  0
 14 18  1  0  0  0  0
 14 12  1  0  0  0  0
 15 14  1  0  0  0  0
 17 13  1  0  0  0  0
 19 20  2  0  0  0  0
 19 30  1  0  0  0  0
 20 24  1  0  0  0  0
 21 25  1  0  0  0  0
 21 20  1  0  0  0  0
 22 21  2  0  0  0  0
 23 22  1  0  0  0  0
 23 19  1  0  0  0  0
 26 27  1  0  0  0  0
 27 28  2  0  0  0  0
 27 33  1  0  0  0  0
 28 34  1  0  0  0  0
 29 28  1  0  0  0  0
 30 29  2  0  0  0  0
 31 30  1  0  0  0  0
 31 26  2  0  0  0  0
 32 26  1  0  0  0  0
M  END
>  <minimizedAffinity>
-6.00969696

>  <minimizedRMSD>
1.26440012

$$$$
