
 OpenBabel03212520563D

 34 36  0  0  0  0  0  0  0  0999 V2000
   39.7750   77.6800   59.2930 C   0  0  0  0  0  0  0  0  0  0  0  0
   40.0250   76.3380   59.2950 C   0  0  0  0  0  0  0  0  0  0  0  0
   39.5190   75.6700   58.1770 C   0  0  0  0  0  0  0  0  0  0  0  0
   38.8490   76.2770   57.1890 N   0  0  0  0  0  0  0  0  0  0  0  0
   38.6480   77.6060   57.2710 C   0  0  0  0  0  0  0  0  0  0  0  0
   39.1100   78.3250   58.3280 N   0  0  0  0  0  0  0  0  0  0  0  0
   40.5550   75.7920   60.0560 H   0  0  0  0  0  0  0  0  0  0  0  0
   39.6430   74.6060   58.0470 H   0  0  0  0  0  0  0  0  0  0  0  0
   37.9220   78.2720   56.1920 C   0  0  0  0  0  0  0  0  0  0  0  0
   36.8080   78.7570   56.4480 O   0  0  0  0  0  0  0  0  0  0  0  0
   37.0250   80.0620   54.0830 N   0  0  0  0  0  0  0  0  0  0  0  0
   37.9730   79.2350   54.0890 C   0  0  0  0  0  0  0  0  0  0  0  0
   38.5810   78.2900   54.9580 N   0  0  0  0  0  0  0  0  0  0  0  0
   38.4140   79.4960   52.7450 N   0  0  0  0  0  0  0  0  0  0  0  0
   38.8220   80.2930   52.2140 H   0  0  0  0  0  0  0  0  0  0  0  0
   36.3870   80.2520   54.8470 H   0  0  0  0  0  0  0  0  0  0  0  0
   39.3910   77.7500   54.6140 H   0  0  0  0  0  0  0  0  0  0  0  0
   38.3810   78.7880   51.9600 H   0  0  0  0  0  0  0  0  0  0  0  0
   40.9960   80.5640   61.8960 C   0  0  0  0  0  0  0  0  0  0  0  0
   41.0390   79.3030   62.4620 C   0  0  0  0  0  0  0  0  0  0  0  0
   40.6550   78.2680   61.6870 C   0  0  0  0  0  0  0  0  0  0  0  0
   40.2380   78.4840   60.3830 C   0  0  0  0  0  0  0  0  0  0  0  0
   40.3920   80.3170   60.1990 S   0  0  0  0  0  0  0  0  0  0  0  0
   41.3660   79.1380   63.4820 H   0  0  0  0  0  0  0  0  0  0  0  0
   40.6190   77.2180   61.9440 H   0  0  0  0  0  0  0  0  0  0  0  0
   43.0020   83.3810   63.1090 C   0  0  0  0  0  0  0  0  0  0  0  0
   42.0960   84.1150   63.9040 C   0  0  0  0  0  0  0  0  0  0  0  0
   40.8060   83.6370   64.0150 C   0  0  0  0  0  0  0  0  0  0  0  0
   40.4880   82.5010   63.3600 N   0  0  0  0  0  0  0  0  0  0  0  0
   41.3820   81.8180   62.6030 C   0  0  0  0  0  0  0  0  0  0  0  0
   42.6040   82.2640   62.4930 N   0  0  0  0  0  0  0  0  0  0  0  0
   44.0310   83.6750   62.9620 H   0  0  0  0  0  0  0  0  0  0  0  0
   42.4420   85.0110   64.3880 H   0  0  0  0  0  0  0  0  0  0  0  0
   40.0840   84.1750   64.6170 H   0  0  0  0  0  0  0  0  0  0  0  0
  1  2  1  0  0  0  0
  1 22  1  0  0  0  0
  2  7  1  0  0  0  0
  3  2  2  0  0  0  0
  4  5  2  0  0  0  0
  4  3  1  0  0  0  0
  5  6  1  0  0  0  0
  6  1  2  0  0  0  0
  8  3  1  0  0  0  0
  9 10  2  0  0  0  0
  9  5  1  0  0  0  0
 11 12  2  0  0  0  0
 11 16  1  0  0  0  0
 12 13  1  0  0  0  0
 13  9  1  0  0  0  0
 14 12  1  0  0  0  0
 15 14  1  0  0  0  0
 17 13  1  0  0  0  0
 18 14  1  0  0  0  0
 19 20  2  0  0  0  0
 19 30  1  0  0  0  0
 20 24  1  0  0  0  0
 21 25  1  0  0  0  0
 21 20  1  0  0  0  0
 22 21  2  0  0  0  0
 23 22  1  0  0  0  0
 23 19  1  0  0  0  0
 26 27  1  0  0  0  0
 27 28  2  0  0  0  0
 27 33  1  0  0  0  0
 28 34  1  0  0  0  0
 29 28  1  0  0  0  0
 30 29  2  0  0  0  0
 31 30  1  0  0  0  0
 31 26  2  0  0  0  0
 32 26  1  0  0  0  0
M  END
>  <minimizedAffinity>
-5.99186277

>  <minimizedRMSD>
1.06886911

$$$$
