
 OpenBabel03212520563D

 34 36  0  0  0  0  0  0  0  0999 V2000
   39.8350   77.4890   59.1870 C   0  0  0  0  0  0  0  0  0  0  0  0
   40.4970   76.3220   58.9350 C   0  0  0  0  0  0  0  0  0  0  0  0
   39.9940   75.6150   57.8400 C   0  0  0  0  0  0  0  0  0  0  0  0
   38.9600   76.0330   57.0980 N   0  0  0  0  0  0  0  0  0  0  0  0
   38.3670   77.1970   57.4210 C   0  0  0  0  0  0  0  0  0  0  0  0
   38.7990   77.9420   58.4730 N   0  0  0  0  0  0  0  0  0  0  0  0
   41.3320   75.9320   59.4920 H   0  0  0  0  0  0  0  0  0  0  0  0
   40.4210   74.6760   57.5260 H   0  0  0  0  0  0  0  0  0  0  0  0
   37.2410   77.6580   56.6100 C   0  0  0  0  0  0  0  0  0  0  0  0
   36.3000   76.8730   56.4150 O   0  0  0  0  0  0  0  0  0  0  0  0
   39.7450   78.5790   55.4510 N   0  0  0  0  0  0  0  0  0  0  0  0
   38.6580   79.1920   55.6130 C   0  0  0  0  0  0  0  0  0  0  0  0
   37.3540   78.9680   56.1310 N   0  0  0  0  0  0  0  0  0  0  0  0
   39.0980   80.4370   55.0450 N   0  0  0  0  0  0  0  0  0  0  0  0
   39.4110   80.7860   54.1160 H   0  0  0  0  0  0  0  0  0  0  0  0
   39.9380   77.6180   55.7090 H   0  0  0  0  0  0  0  0  0  0  0  0
   36.6710   79.7420   56.1020 H   0  0  0  0  0  0  0  0  0  0  0  0
   39.1830   81.3410   55.5860 H   0  0  0  0  0  0  0  0  0  0  0  0
   40.9680   80.4100   61.7900 C   0  0  0  0  0  0  0  0  0  0  0  0
   40.9320   79.1640   62.3910 C   0  0  0  0  0  0  0  0  0  0  0  0
   40.5680   78.1200   61.6200 C   0  0  0  0  0  0  0  0  0  0  0  0
   40.2490   78.3110   60.2840 C   0  0  0  0  0  0  0  0  0  0  0  0
   40.4740   80.1320   60.0620 S   0  0  0  0  0  0  0  0  0  0  0  0
   41.1820   79.0200   63.4350 H   0  0  0  0  0  0  0  0  0  0  0  0
   40.4800   77.0790   61.9020 H   0  0  0  0  0  0  0  0  0  0  0  0
   42.9560   83.2450   62.9880 C   0  0  0  0  0  0  0  0  0  0  0  0
   42.0440   83.9820   63.7720 C   0  0  0  0  0  0  0  0  0  0  0  0
   40.7550   83.4990   63.8820 C   0  0  0  0  0  0  0  0  0  0  0  0
   40.4450   82.3560   63.2350 N   0  0  0  0  0  0  0  0  0  0  0  0
   41.3460   81.6710   62.4880 C   0  0  0  0  0  0  0  0  0  0  0  0
   42.5660   82.1210   62.3800 N   0  0  0  0  0  0  0  0  0  0  0  0
   43.9840   83.5430   62.8430 H   0  0  0  0  0  0  0  0  0  0  0  0
   42.3830   84.8840   64.2500 H   0  0  0  0  0  0  0  0  0  0  0  0
   40.0280   84.0390   64.4760 H   0  0  0  0  0  0  0  0  0  0  0  0
  1 22  1  0  0  0  0
  2  1  1  0  0  0  0
  2  7  1  0  0  0  0
  3  2  2  0  0  0  0
  4  5  2  0  0  0  0
  4  3  1  0  0  0  0
  5  6  1  0  0  0  0
  6  1  2  0  0  0  0
  8  3  1  0  0  0  0
  9  5  1  0  0  0  0
 10  9  2  0  0  0  0
 11 12  2  0  0  0  0
 11 16  1  0  0  0  0
 12 13  1  0  0  0  0
 13  9  1  0  0  0  0
 14 18  1  0  0  0  0
 14 12  1  0  0  0  0
 15 14  1  0  0  0  0
 17 13  1  0  0  0  0
 19 20  2  0  0  0  0
 19 30  1  0  0  0  0
 20 24  1  0  0  0  0
 21 25  1  0  0  0  0
 21 20  1  0  0  0  0
 22 21  2  0  0  0  0
 23 22  1  0  0  0  0
 23 19  1  0  0  0  0
 26 27  1  0  0  0  0
 27 28  2  0  0  0  0
 27 33  1  0  0  0  0
 28 34  1  0  0  0  0
 29 28  1  0  0  0  0
 30 29  2  0  0  0  0
 31 30  1  0  0  0  0
 31 26  2  0  0  0  0
 32 26  1  0  0  0  0
M  END
>  <minimizedAffinity>
-6.03273773

>  <minimizedRMSD>
1.29516339

$$$$
