
 OpenBabel03212520563D

 34 36  0  0  0  0  0  0  0  0999 V2000
   39.7890   77.3250   59.2060 C   0  0  0  0  0  0  0  0  0  0  0  0
   40.4080   76.1240   59.0070 C   0  0  0  0  0  0  0  0  0  0  0  0
   39.9000   75.4020   57.9240 C   0  0  0  0  0  0  0  0  0  0  0  0
   38.9020   75.8370   57.1450 N   0  0  0  0  0  0  0  0  0  0  0  0
   38.3500   77.0340   57.4150 C   0  0  0  0  0  0  0  0  0  0  0  0
   38.7890   77.7950   58.4530 N   0  0  0  0  0  0  0  0  0  0  0  0
   41.2130   75.7190   59.5960 H   0  0  0  0  0  0  0  0  0  0  0  0
   40.2950   74.4360   57.6510 H   0  0  0  0  0  0  0  0  0  0  0  0
   37.2630   77.5130   56.5630 C   0  0  0  0  0  0  0  0  0  0  0  0
   36.0970   77.3410   56.9510 O   0  0  0  0  0  0  0  0  0  0  0  0
   37.1240   80.4050   56.2940 N   0  0  0  0  0  0  0  0  0  0  0  0
   37.5140   79.5360   55.4720 C   0  0  0  0  0  0  0  0  0  0  0  0
   37.6700   78.1280   55.3750 N   0  0  0  0  0  0  0  0  0  0  0  0
   37.8430   80.4600   54.4190 N   0  0  0  0  0  0  0  0  0  0  0  0
   38.5230   81.2320   54.2620 H   0  0  0  0  0  0  0  0  0  0  0  0
   36.7770   80.2340   57.2310 H   0  0  0  0  0  0  0  0  0  0  0  0
   38.0420   77.7300   54.4970 H   0  0  0  0  0  0  0  0  0  0  0  0
   37.3530   80.4930   53.4830 H   0  0  0  0  0  0  0  0  0  0  0  0
   40.9580   80.2870   61.7450 C   0  0  0  0  0  0  0  0  0  0  0  0
   40.9020   79.0560   62.3750 C   0  0  0  0  0  0  0  0  0  0  0  0
   40.5250   77.9990   61.6260 C   0  0  0  0  0  0  0  0  0  0  0  0
   40.2120   78.1650   60.2850 C   0  0  0  0  0  0  0  0  0  0  0  0
   40.4650   79.9770   60.0230 S   0  0  0  0  0  0  0  0  0  0  0  0
   41.1470   78.9320   63.4220 H   0  0  0  0  0  0  0  0  0  0  0  0
   40.4210   76.9670   61.9310 H   0  0  0  0  0  0  0  0  0  0  0  0
   42.9780   83.1300   62.8680 C   0  0  0  0  0  0  0  0  0  0  0  0
   42.0800   83.8870   63.6500 C   0  0  0  0  0  0  0  0  0  0  0  0
   40.7900   83.4150   63.7830 C   0  0  0  0  0  0  0  0  0  0  0  0
   40.4650   82.2630   63.1610 N   0  0  0  0  0  0  0  0  0  0  0  0
   41.3520   81.5580   62.4160 C   0  0  0  0  0  0  0  0  0  0  0  0
   42.5740   81.9980   62.2850 N   0  0  0  0  0  0  0  0  0  0  0  0
   44.0070   83.4180   62.7060 H   0  0  0  0  0  0  0  0  0  0  0  0
   42.4310   84.7950   64.1070 H   0  0  0  0  0  0  0  0  0  0  0  0
   40.0730   83.9710   64.3750 H   0  0  0  0  0  0  0  0  0  0  0  0
  1 22  1  0  0  0  0
  2  1  1  0  0  0  0
  2  7  1  0  0  0  0
  3  2  2  0  0  0  0
  4  5  2  0  0  0  0
  4  3  1  0  0  0  0
  5  6  1  0  0  0  0
  6  1  2  0  0  0  0
  8  3  1  0  0  0  0
  9 10  2  0  0  0  0
  9  5  1  0  0  0  0
 11 16  1  0  0  0  0
 12 11  2  0  0  0  0
 13 12  1  0  0  0  0
 13  9  1  0  0  0  0
 14 12  1  0  0  0  0
 15 14  1  0  0  0  0
 17 13  1  0  0  0  0
 18 14  1  0  0  0  0
 19 20  2  0  0  0  0
 19 30  1  0  0  0  0
 20 24  1  0  0  0  0
 21 25  1  0  0  0  0
 21 20  1  0  0  0  0
 22 21  2  0  0  0  0
 23 22  1  0  0  0  0
 23 19  1  0  0  0  0
 26 27  1  0  0  0  0
 27 28  2  0  0  0  0
 27 33  1  0  0  0  0
 28 34  1  0  0  0  0
 29 28  1  0  0  0  0
 30 29  2  0  0  0  0
 31 30  1  0  0  0  0
 31 26  2  0  0  0  0
 32 26  1  0  0  0  0
M  END
>  <minimizedAffinity>
-6.63354921

>  <minimizedRMSD>
0.320394039

$$$$
