
 OpenBabel03212520563D

 34 36  0  0  0  0  0  0  0  0999 V2000
   39.7310   77.4400   58.9560 C   0  0  0  0  0  0  0  0  0  0  0  0
   40.4980   76.3760   58.5770 C   0  0  0  0  0  0  0  0  0  0  0  0
   39.9840   75.6750   57.4830 C   0  0  0  0  0  0  0  0  0  0  0  0
   38.8480   76.0070   56.8560 N   0  0  0  0  0  0  0  0  0  0  0  0
   38.1570   77.0720   57.2990 C   0  0  0  0  0  0  0  0  0  0  0  0
   38.5920   77.8050   58.3590 N   0  0  0  0  0  0  0  0  0  0  0  0
   41.4170   76.0590   59.0380 H   0  0  0  0  0  0  0  0  0  0  0  0
   40.4860   74.8120   57.0760 H   0  0  0  0  0  0  0  0  0  0  0  0
   36.9190   77.4390   56.6130 C   0  0  0  0  0  0  0  0  0  0  0  0
   35.8410   77.1560   57.1600 O   0  0  0  0  0  0  0  0  0  0  0  0
   37.7550   80.2240   56.5340 N   0  0  0  0  0  0  0  0  0  0  0  0
   37.5010   79.4310   55.5900 C   0  0  0  0  0  0  0  0  0  0  0  0
   37.0930   78.0860   55.3850 N   0  0  0  0  0  0  0  0  0  0  0  0
   37.7640   80.3650   54.5290 N   0  0  0  0  0  0  0  0  0  0  0  0
   38.5810   80.8930   54.1600 H   0  0  0  0  0  0  0  0  0  0  0  0
   37.7080   80.0140   57.5240 H   0  0  0  0  0  0  0  0  0  0  0  0
   36.9740   77.7470   54.4160 H   0  0  0  0  0  0  0  0  0  0  0  0
   37.0340   80.7150   53.8500 H   0  0  0  0  0  0  0  0  0  0  0  0
   40.8830   80.3150   61.6020 C   0  0  0  0  0  0  0  0  0  0  0  0
   40.8060   79.0670   62.1930 C   0  0  0  0  0  0  0  0  0  0  0  0
   40.4330   78.0370   61.4070 C   0  0  0  0  0  0  0  0  0  0  0  0
   40.1430   78.2440   60.0670 C   0  0  0  0  0  0  0  0  0  0  0  0
   40.4160   80.0610   59.8630 S   0  0  0  0  0  0  0  0  0  0  0  0
   41.0330   78.9100   63.2400 H   0  0  0  0  0  0  0  0  0  0  0  0
   40.3150   76.9960   61.6800 H   0  0  0  0  0  0  0  0  0  0  0  0
   42.9180   83.0860   62.8720 C   0  0  0  0  0  0  0  0  0  0  0  0
   42.0040   83.8480   63.6300 C   0  0  0  0  0  0  0  0  0  0  0  0
   40.6990   83.4040   63.6980 C   0  0  0  0  0  0  0  0  0  0  0  0
   40.3740   82.2730   63.0370 N   0  0  0  0  0  0  0  0  0  0  0  0
   41.2770   81.5620   62.3160 C   0  0  0  0  0  0  0  0  0  0  0  0
   42.5130   81.9760   62.2470 N   0  0  0  0  0  0  0  0  0  0  0  0
   43.9590   83.3520   62.7600 H   0  0  0  0  0  0  0  0  0  0  0  0
   42.3560   84.7370   64.1220 H   0  0  0  0  0  0  0  0  0  0  0  0
   39.9700   83.9640   64.2710 H   0  0  0  0  0  0  0  0  0  0  0  0
  1 22  1  0  0  0  0
  2  1  1  0  0  0  0
  2  7  1  0  0  0  0
  3  2  2  0  0  0  0
  4  5  2  0  0  0  0
  4  3  1  0  0  0  0
  5  6  1  0  0  0  0
  6  1  2  0  0  0  0
  8  3  1  0  0  0  0
  9 10  2  0  0  0  0
  9  5  1  0  0  0  0
 11 16  1  0  0  0  0
 12 11  2  0  0  0  0
 13 12  1  0  0  0  0
 13  9  1  0  0  0  0
 14 12  1  0  0  0  0
 15 14  1  0  0  0  0
 17 13  1  0  0  0  0
 18 14  1  0  0  0  0
 19 20  2  0  0  0  0
 19 30  1  0  0  0  0
 20 24  1  0  0  0  0
 21 25  1  0  0  0  0
 21 20  1  0  0  0  0
 22 21  2  0  0  0  0
 23 22  1  0  0  0  0
 23 19  1  0  0  0  0
 26 27  1  0  0  0  0
 27 28  2  0  0  0  0
 27 33  1  0  0  0  0
 28 34  1  0  0  0  0
 29 28  1  0  0  0  0
 30 29  2  0  0  0  0
 31 30  1  0  0  0  0
 31 26  2  0  0  0  0
 32 26  1  0  0  0  0
M  END
>  <minimizedAffinity>
-6.53423119

>  <minimizedRMSD>
0.482000113

$$$$
