
 OpenBabel03212520563D

 34 36  0  0  0  0  0  0  0  0999 V2000
   39.5960   77.0830   58.9730 C   0  0  0  0  0  0  0  0  0  0  0  0
   40.3370   75.9880   58.6330 C   0  0  0  0  0  0  0  0  0  0  0  0
   39.8030   75.2550   57.5700 C   0  0  0  0  0  0  0  0  0  0  0  0
   38.6720   75.5860   56.9350 N   0  0  0  0  0  0  0  0  0  0  0  0
   38.0060   76.6840   57.3380 C   0  0  0  0  0  0  0  0  0  0  0  0
   38.4620   77.4490   58.3650 N   0  0  0  0  0  0  0  0  0  0  0  0
   41.2520   75.6690   59.1030 H   0  0  0  0  0  0  0  0  0  0  0  0
   40.2840   74.3650   57.1970 H   0  0  0  0  0  0  0  0  0  0  0  0
   36.7730   77.0500   56.6420 C   0  0  0  0  0  0  0  0  0  0  0  0
   35.7390   77.1850   57.3160 O   0  0  0  0  0  0  0  0  0  0  0  0
   39.0140   78.5450   55.5460 N   0  0  0  0  0  0  0  0  0  0  0  0
   38.0620   77.9710   54.9570 C   0  0  0  0  0  0  0  0  0  0  0  0
   36.9000   77.2120   55.2590 N   0  0  0  0  0  0  0  0  0  0  0  0
   38.4780   78.3150   53.6240 N   0  0  0  0  0  0  0  0  0  0  0  0
   39.2820   78.1080   52.9960 H   0  0  0  0  0  0  0  0  0  0  0  0
   39.1650   78.5840   56.5480 H   0  0  0  0  0  0  0  0  0  0  0  0
   36.3090   76.8790   54.4790 H   0  0  0  0  0  0  0  0  0  0  0  0
   37.9280   78.9380   52.9710 H   0  0  0  0  0  0  0  0  0  0  0  0
   40.8350   80.0340   61.4920 C   0  0  0  0  0  0  0  0  0  0  0  0
   40.7130   78.8170   62.1390 C   0  0  0  0  0  0  0  0  0  0  0  0
   40.3080   77.7660   61.3980 C   0  0  0  0  0  0  0  0  0  0  0  0
   40.0310   77.9220   60.0480 C   0  0  0  0  0  0  0  0  0  0  0  0
   40.3660   79.7180   59.7640 S   0  0  0  0  0  0  0  0  0  0  0  0
   40.9310   78.6990   63.1930 H   0  0  0  0  0  0  0  0  0  0  0  0
   40.1540   76.7430   61.7160 H   0  0  0  0  0  0  0  0  0  0  0  0
   42.9540   82.7960   62.6350 C   0  0  0  0  0  0  0  0  0  0  0  0
   42.0680   83.6140   63.3660 C   0  0  0  0  0  0  0  0  0  0  0  0
   40.7510   83.2100   63.4590 C   0  0  0  0  0  0  0  0  0  0  0  0
   40.3910   82.0630   62.8480 N   0  0  0  0  0  0  0  0  0  0  0  0
   41.2680   81.2980   62.1520 C   0  0  0  0  0  0  0  0  0  0  0  0
   42.5150   81.6730   62.0590 N   0  0  0  0  0  0  0  0  0  0  0  0
   44.0020   83.0280   62.5060 H   0  0  0  0  0  0  0  0  0  0  0  0
   42.4470   84.5130   63.8180 H   0  0  0  0  0  0  0  0  0  0  0  0
   40.0420   83.8150   64.0120 H   0  0  0  0  0  0  0  0  0  0  0  0
  1 22  1  0  0  0  0
  2  1  1  0  0  0  0
  2  7  1  0  0  0  0
  3  2  2  0  0  0  0
  4  5  2  0  0  0  0
  4  3  1  0  0  0  0
  5  6  1  0  0  0  0
  6  1  2  0  0  0  0
  8  3  1  0  0  0  0
  9 10  2  0  0  0  0
  9  5  1  0  0  0  0
 11 16  1  0  0  0  0
 12 13  1  0  0  0  0
 12 11  2  0  0  0  0
 13  9  1  0  0  0  0
 14 12  1  0  0  0  0
 15 14  1  0  0  0  0
 17 13  1  0  0  0  0
 18 14  1  0  0  0  0
 19 20  2  0  0  0  0
 19 30  1  0  0  0  0
 20 24  1  0  0  0  0
 21 25  1  0  0  0  0
 21 20  1  0  0  0  0
 22 21  2  0  0  0  0
 23 22  1  0  0  0  0
 23 19  1  0  0  0  0
 26 27  1  0  0  0  0
 27 28  2  0  0  0  0
 27 33  1  0  0  0  0
 28 34  1  0  0  0  0
 29 28  1  0  0  0  0
 30 29  2  0  0  0  0
 31 30  1  0  0  0  0
 31 26  2  0  0  0  0
 32 26  1  0  0  0  0
M  END
>  <minimizedAffinity>
-5.99229717

>  <minimizedRMSD>
0.4780747

$$$$
