
 OpenBabel03212520563D

 34 36  0  0  0  0  0  0  0  0999 V2000
   39.7130   77.3170   59.1260 C   0  0  0  0  0  0  0  0  0  0  0  0
   40.3460   76.1360   58.8640 C   0  0  0  0  0  0  0  0  0  0  0  0
   39.8000   75.4330   57.7870 C   0  0  0  0  0  0  0  0  0  0  0  0
   38.7540   75.8660   57.0720 N   0  0  0  0  0  0  0  0  0  0  0  0
   38.1920   77.0430   57.4020 C   0  0  0  0  0  0  0  0  0  0  0  0
   38.6670   77.7860   58.4380 N   0  0  0  0  0  0  0  0  0  0  0  0
   41.1880   75.7340   59.4000 H   0  0  0  0  0  0  0  0  0  0  0  0
   40.2000   74.4830   57.4680 H   0  0  0  0  0  0  0  0  0  0  0  0
   37.0530   77.5210   56.6200 C   0  0  0  0  0  0  0  0  0  0  0  0
   35.9290   77.0640   56.8830 O   0  0  0  0  0  0  0  0  0  0  0  0
   36.4840   76.9570   53.8230 N   0  0  0  0  0  0  0  0  0  0  0  0
   37.0020   77.9750   54.3520 C   0  0  0  0  0  0  0  0  0  0  0  0
   37.3660   78.4640   55.6350 N   0  0  0  0  0  0  0  0  0  0  0  0
   37.1910   78.7040   53.1270 N   0  0  0  0  0  0  0  0  0  0  0  0
   36.5920   79.1210   52.3850 H   0  0  0  0  0  0  0  0  0  0  0  0
   36.1660   76.1250   54.3060 H   0  0  0  0  0  0  0  0  0  0  0  0
   37.7950   79.4000   55.7040 H   0  0  0  0  0  0  0  0  0  0  0  0
   38.1350   78.9690   52.7320 H   0  0  0  0  0  0  0  0  0  0  0  0
   40.9620   80.2320   61.6820 C   0  0  0  0  0  0  0  0  0  0  0  0
   40.9360   78.9880   62.2870 C   0  0  0  0  0  0  0  0  0  0  0  0
   40.5370   77.9450   61.5300 C   0  0  0  0  0  0  0  0  0  0  0  0
   40.1720   78.1370   60.2070 C   0  0  0  0  0  0  0  0  0  0  0  0
   40.4050   79.9560   59.9730 S   0  0  0  0  0  0  0  0  0  0  0  0
   41.2230   78.8440   63.3210 H   0  0  0  0  0  0  0  0  0  0  0  0
   40.4510   76.9060   61.8170 H   0  0  0  0  0  0  0  0  0  0  0  0
   43.0180   83.0460   62.8150 C   0  0  0  0  0  0  0  0  0  0  0  0
   42.1350   83.7990   63.6180 C   0  0  0  0  0  0  0  0  0  0  0  0
   40.8440   83.3340   63.7620 C   0  0  0  0  0  0  0  0  0  0  0  0
   40.5020   82.1930   63.1300 N   0  0  0  0  0  0  0  0  0  0  0  0
   41.3740   81.4920   62.3640 C   0  0  0  0  0  0  0  0  0  0  0  0
   42.5970   81.9240   62.2230 N   0  0  0  0  0  0  0  0  0  0  0  0
   44.0460   83.3280   62.6430 H   0  0  0  0  0  0  0  0  0  0  0  0
   42.4990   84.6980   64.0830 H   0  0  0  0  0  0  0  0  0  0  0  0
   40.1390   83.8880   64.3720 H   0  0  0  0  0  0  0  0  0  0  0  0
  1 22  1  0  0  0  0
  2  1  1  0  0  0  0
  2  7  1  0  0  0  0
  3  2  2  0  0  0  0
  4  5  2  0  0  0  0
  4  3  1  0  0  0  0
  5  6  1  0  0  0  0
  6  1  2  0  0  0  0
  8  3  1  0  0  0  0
  9 10  2  0  0  0  0
  9  5  1  0  0  0  0
 11 16  1  0  0  0  0
 11 12  2  0  0  0  0
 12 13  1  0  0  0  0
 13 17  1  0  0  0  0
 13  9  1  0  0  0  0
 14 12  1  0  0  0  0
 15 14  1  0  0  0  0
 18 14  1  0  0  0  0
 19 20  2  0  0  0  0
 19 30  1  0  0  0  0
 20 24  1  0  0  0  0
 21 25  1  0  0  0  0
 21 20  1  0  0  0  0
 22 21  2  0  0  0  0
 23 22  1  0  0  0  0
 23 19  1  0  0  0  0
 26 27  1  0  0  0  0
 27 28  2  0  0  0  0
 27 33  1  0  0  0  0
 28 34  1  0  0  0  0
 29 28  1  0  0  0  0
 30 29  2  0  0  0  0
 31 30  1  0  0  0  0
 31 26  2  0  0  0  0
 32 26  1  0  0  0  0
M  END
>  <minimizedAffinity>
-6.2925725

>  <minimizedRMSD>
0.61711359

$$$$
