
 OpenBabel03212520563D

 34 36  0  0  0  0  0  0  0  0999 V2000
   39.7460   77.3640   59.2270 C   0  0  0  0  0  0  0  0  0  0  0  0
   40.3570   76.1650   58.9990 C   0  0  0  0  0  0  0  0  0  0  0  0
   39.8140   75.4520   57.9270 C   0  0  0  0  0  0  0  0  0  0  0  0
   38.7900   75.8940   57.1850 N   0  0  0  0  0  0  0  0  0  0  0  0
   38.2490   77.0890   57.4830 C   0  0  0  0  0  0  0  0  0  0  0  0
   38.7220   77.8420   58.5120 N   0  0  0  0  0  0  0  0  0  0  0  0
   41.1810   75.7550   59.5580 H   0  0  0  0  0  0  0  0  0  0  0  0
   40.1980   74.4880   57.6330 H   0  0  0  0  0  0  0  0  0  0  0  0
   37.1350   77.5760   56.6710 C   0  0  0  0  0  0  0  0  0  0  0  0
   36.0820   76.9180   56.6670 O   0  0  0  0  0  0  0  0  0  0  0  0
   39.2910   77.6900   54.7220 N   0  0  0  0  0  0  0  0  0  0  0  0
   38.4780   78.5820   55.0790 C   0  0  0  0  0  0  0  0  0  0  0  0
   37.3870   78.7600   55.9700 N   0  0  0  0  0  0  0  0  0  0  0  0
   38.9900   79.6100   54.2120 N   0  0  0  0  0  0  0  0  0  0  0  0
   39.0670   79.7800   53.1880 H   0  0  0  0  0  0  0  0  0  0  0  0
   39.3320   76.7400   55.0700 H   0  0  0  0  0  0  0  0  0  0  0  0
   36.9240   79.6820   56.0070 H   0  0  0  0  0  0  0  0  0  0  0  0
   39.4420   80.5040   54.5510 H   0  0  0  0  0  0  0  0  0  0  0  0
   40.9740   80.3090   61.7600 C   0  0  0  0  0  0  0  0  0  0  0  0
   40.9830   79.0660   62.3660 C   0  0  0  0  0  0  0  0  0  0  0  0
   40.5930   78.0140   61.6180 C   0  0  0  0  0  0  0  0  0  0  0  0
   40.2050   78.1950   60.2990 C   0  0  0  0  0  0  0  0  0  0  0  0
   40.3970   80.0180   60.0600 S   0  0  0  0  0  0  0  0  0  0  0  0
   41.2870   78.9280   63.3960 H   0  0  0  0  0  0  0  0  0  0  0  0
   40.5320   76.9730   61.9070 H   0  0  0  0  0  0  0  0  0  0  0  0
   43.0020   83.1440   62.8900 C   0  0  0  0  0  0  0  0  0  0  0  0
   42.1050   83.9020   63.6720 C   0  0  0  0  0  0  0  0  0  0  0  0
   40.8140   83.4330   63.8040 C   0  0  0  0  0  0  0  0  0  0  0  0
   40.4860   82.2830   63.1790 N   0  0  0  0  0  0  0  0  0  0  0  0
   41.3720   81.5770   62.4330 C   0  0  0  0  0  0  0  0  0  0  0  0
   42.5950   82.0140   62.3040 N   0  0  0  0  0  0  0  0  0  0  0  0
   44.0310   83.4290   62.7280 H   0  0  0  0  0  0  0  0  0  0  0  0
   42.4580   84.8080   64.1320 H   0  0  0  0  0  0  0  0  0  0  0  0
   40.0980   83.9890   64.3970 H   0  0  0  0  0  0  0  0  0  0  0  0
  1 22  1  0  0  0  0
  2  1  1  0  0  0  0
  2  7  1  0  0  0  0
  3  2  2  0  0  0  0
  4  5  2  0  0  0  0
  4  3  1  0  0  0  0
  5  6  1  0  0  0  0
  6  1  2  0  0  0  0
  8  3  1  0  0  0  0
  9  5  1  0  0  0  0
 10  9  2  0  0  0  0
 11 16  1  0  0  0  0
 11 12  2  0  0  0  0
 12 13  1  0  0  0  0
 13 17  1  0  0  0  0
 13  9  1  0  0  0  0
 14 18  1  0  0  0  0
 14 12  1  0  0  0  0
 15 14  1  0  0  0  0
 19 20  2  0  0  0  0
 19 30  1  0  0  0  0
 20 24  1  0  0  0  0
 21 25  1  0  0  0  0
 21 20  1  0  0  0  0
 22 21  2  0  0  0  0
 23 22  1  0  0  0  0
 23 19  1  0  0  0  0
 26 27  1  0  0  0  0
 27 28  2  0  0  0  0
 27 33  1  0  0  0  0
 28 34  1  0  0  0  0
 29 28  1  0  0  0  0
 30 29  2  0  0  0  0
 31 30  1  0  0  0  0
 31 26  2  0  0  0  0
 32 26  1  0  0  0  0
M  END
>  <minimizedAffinity>
-5.85684776

>  <minimizedRMSD>
1.03806734

$$$$
