
 OpenBabel03212520563D

 34 36  0  0  0  0  0  0  0  0999 V2000
   39.8030   77.2750   59.2790 C   0  0  0  0  0  0  0  0  0  0  0  0
   40.3780   76.0460   59.1300 C   0  0  0  0  0  0  0  0  0  0  0  0
   39.8690   75.3130   58.0550 C   0  0  0  0  0  0  0  0  0  0  0  0
   38.9090   75.7630   57.2380 N   0  0  0  0  0  0  0  0  0  0  0  0
   38.3990   76.9890   57.4600 C   0  0  0  0  0  0  0  0  0  0  0  0
   38.8410   77.7620   58.4870 N   0  0  0  0  0  0  0  0  0  0  0  0
   41.1510   75.6270   59.7510 H   0  0  0  0  0  0  0  0  0  0  0  0
   40.2320   74.3240   57.8200 H   0  0  0  0  0  0  0  0  0  0  0  0
   37.3530   77.4850   56.5660 C   0  0  0  0  0  0  0  0  0  0  0  0
   36.2130   77.6430   57.0300 O   0  0  0  0  0  0  0  0  0  0  0  0
   37.1250   80.1570   55.4420 N   0  0  0  0  0  0  0  0  0  0  0  0
   37.5620   79.0980   54.9210 C   0  0  0  0  0  0  0  0  0  0  0  0
   37.7660   77.7320   55.2530 N   0  0  0  0  0  0  0  0  0  0  0  0
   37.8830   79.6760   53.6450 N   0  0  0  0  0  0  0  0  0  0  0  0
   38.5400   80.3910   53.2720 H   0  0  0  0  0  0  0  0  0  0  0  0
   36.7620   80.2600   56.3820 H   0  0  0  0  0  0  0  0  0  0  0  0
   38.1710   77.1040   54.5390 H   0  0  0  0  0  0  0  0  0  0  0  0
   37.4140   79.4100   52.7350 H   0  0  0  0  0  0  0  0  0  0  0  0
   40.9740   80.2720   61.7760 C   0  0  0  0  0  0  0  0  0  0  0  0
   40.9400   79.0460   62.4160 C   0  0  0  0  0  0  0  0  0  0  0  0
   40.5650   77.9790   61.6820 C   0  0  0  0  0  0  0  0  0  0  0  0
   40.2310   78.1290   60.3450 C   0  0  0  0  0  0  0  0  0  0  0  0
   40.4600   79.9420   60.0630 S   0  0  0  0  0  0  0  0  0  0  0  0
   41.2020   78.9330   63.4610 H   0  0  0  0  0  0  0  0  0  0  0  0
   40.4770   76.9480   61.9970 H   0  0  0  0  0  0  0  0  0  0  0  0
   42.9830   83.1380   62.8610 C   0  0  0  0  0  0  0  0  0  0  0  0
   42.0820   83.9010   63.6330 C   0  0  0  0  0  0  0  0  0  0  0  0
   40.7940   83.4250   63.7740 C   0  0  0  0  0  0  0  0  0  0  0  0
   40.4730   82.2630   63.1670 N   0  0  0  0  0  0  0  0  0  0  0  0
   41.3630   81.5530   62.4300 C   0  0  0  0  0  0  0  0  0  0  0  0
   42.5830   81.9960   62.2930 N   0  0  0  0  0  0  0  0  0  0  0  0
   44.0100   83.4280   62.6940 H   0  0  0  0  0  0  0  0  0  0  0  0
   42.4290   84.8160   64.0790 H   0  0  0  0  0  0  0  0  0  0  0  0
   40.0760   83.9850   64.3600 H   0  0  0  0  0  0  0  0  0  0  0  0
  1 22  1  0  0  0  0
  2  1  1  0  0  0  0
  2  7  1  0  0  0  0
  3  2  2  0  0  0  0
  4  5  2  0  0  0  0
  4  3  1  0  0  0  0
  5  6  1  0  0  0  0
  6  1  2  0  0  0  0
  8  3  1  0  0  0  0
  9 10  2  0  0  0  0
  9  5  1  0  0  0  0
 11 16  1  0  0  0  0
 12 13  1  0  0  0  0
 12 11  2  0  0  0  0
 13  9  1  0  0  0  0
 14 12  1  0  0  0  0
 15 14  1  0  0  0  0
 17 13  1  0  0  0  0
 18 14  1  0  0  0  0
 19 20  2  0  0  0  0
 19 30  1  0  0  0  0
 20 24  1  0  0  0  0
 21 25  1  0  0  0  0
 21 20  1  0  0  0  0
 22 21  2  0  0  0  0
 23 22  1  0  0  0  0
 23 19  1  0  0  0  0
 26 27  1  0  0  0  0
 27 28  2  0  0  0  0
 27 33  1  0  0  0  0
 28 34  1  0  0  0  0
 29 28  1  0  0  0  0
 30 29  2  0  0  0  0
 31 30  1  0  0  0  0
 31 26  2  0  0  0  0
 32 26  1  0  0  0  0
M  END
>  <minimizedAffinity>
-6.10494566

>  <minimizedRMSD>
0.269895643

$$$$
