
 OpenBabel03212520583D

 43 47  0  0  1  0  0  0  0  0999 V2000
   39.7960   77.4100   59.1770 C   0  0  0  0  0  0  0  0  0  0  0  0
   40.4940   76.2820   58.8940 C   0  0  0  0  0  0  0  0  0  0  0  0
   39.9510   75.5730   57.8110 C   0  0  0  0  0  0  0  0  0  0  0  0
   38.8590   75.9610   57.1230 N   0  0  0  0  0  0  0  0  0  0  0  0
   38.2310   77.1160   57.4950 C   0  0  0  0  0  0  0  0  0  0  0  0
   38.7090   77.8410   58.5300 N   0  0  0  0  0  0  0  0  0  0  0  0
   41.3730   75.9240   59.4080 H   0  0  0  0  0  0  0  0  0  0  0  0
   40.4070   74.6410   57.4660 H   0  0  0  0  0  0  0  0  0  0  0  0
   40.9790   80.3470   61.7480 C   0  0  0  0  0  0  0  0  0  0  0  0
   40.9620   79.1090   62.3520 C   0  0  0  0  0  0  0  0  0  0  0  0
   40.5840   78.0550   61.5930 C   0  0  0  0  0  0  0  0  0  0  0  0
   40.2380   78.2500   60.2720 C   0  0  0  0  0  0  0  0  0  0  0  0
   40.4490   80.0620   60.0350 S   0  0  0  0  0  0  0  0  0  0  0  0
   41.2360   78.9590   63.3930 H   0  0  0  0  0  0  0  0  0  0  0  0
   40.5050   77.0140   61.8760 H   0  0  0  0  0  0  0  0  0  0  0  0
   43.0450   83.1470   62.9120 C   0  0  0  0  0  0  0  0  0  0  0  0
   42.1420   83.9010   63.7080 C   0  0  0  0  0  0  0  0  0  0  0  0
   40.8180   83.4410   63.8360 C   0  0  0  0  0  0  0  0  0  0  0  0
   40.4690   82.3030   63.1960 N   0  0  0  0  0  0  0  0  0  0  0  0
   41.3670   81.6060   62.4410 C   0  0  0  0  0  0  0  0  0  0  0  0
   42.6230   82.0310   62.3110 N   0  0  0  0  0  0  0  0  0  0  0  0
   44.0620   83.4650   62.7900 H   0  0  0  0  0  0  0  0  0  0  0  0
   42.4680   84.8100   64.2030 H   0  0  0  0  0  0  0  0  0  0  0  0
   40.0990   83.9840   64.4310 H   0  0  0  0  0  0  0  0  0  0  0  0
   37.0630   77.5180   56.7340 C   0  0  0  0  0  0  0  0  0  0  0  0
   35.9640   77.0730   57.1030 O   0  0  0  0  0  0  0  0  0  0  0  0
   37.1540   78.4280   55.5370 C   0  0  1  0  0  0  0  0  0  0  0  0
   37.3090   79.8810   55.9180 C   0  0  0  0  0  0  0  0  0  0  0  0
   38.3840   79.1370   55.2620 C   0  0  2  0  0  0  0  0  0  0  0  0
   36.2410   78.2750   54.8920 H   0  0  0  0  0  0  0  0  0  0  0  0
   37.4440   80.1430   56.9790 H   0  0  0  0  0  0  0  0  0  0  0  0
   36.7460   80.6130   55.3390 H   0  0  0  0  0  0  0  0  0  0  0  0
   39.2840   78.7950   55.8470 H   0  0  0  0  0  0  0  0  0  0  0  0
   38.7670   79.5680   53.9350 N   0  0  0  0  0  0  0  0  0  0  0  0
   37.6970   79.7570   53.1080 C   0  0  0  0  0  3  0  0  0  0  0  0
   37.8620   80.1680   51.8010 C   0  0  0  0  0  3  0  0  0  0  0  0
   39.1540   80.3810   51.3670 C   0  0  0  0  0  0  0  0  0  0  0  0
   39.3360   80.8050   50.0210 N   0  0  0  0  0  0  0  0  0  0  0  0
   40.1950   80.1900   52.1960 N   0  0  0  0  0  0  0  0  0  0  0  0
   40.0070   79.7850   53.4780 C   0  0  0  0  0  0  0  0  0  0  0  0
   40.9140   79.5870   54.3050 O   0  0  0  0  0  0  0  0  0  0  0  0
   38.8950   81.7290   49.8200 H   0  0  0  0  0  0  0  0  0  0  0  0
   39.8360   80.3420   49.2140 H   0  0  0  0  0  0  0  0  0  0  0  0
  1 12  1  0  0  0  0
  2  1  1  0  0  0  0
  2  7  1  0  0  0  0
  3  2  2  0  0  0  0
  4  5  2  0  0  0  0
  4  3  1  0  0  0  0
  5  6  1  0  0  0  0
  6  1  2  0  0  0  0
  8  3  1  0  0  0  0
  9 10  2  0  0  0  0
  9 20  1  0  0  0  0
 10 14  1  0  0  0  0
 11 15  1  0  0  0  0
 11 10  1  0  0  0  0
 12 11  2  0  0  0  0
 13 12  1  0  0  0  0
 13  9  1  0  0  0  0
 16 17  1  0  0  0  0
 17 18  2  0  0  0  0
 17 23  1  0  0  0  0
 18 24  1  0  0  0  0
 19 18  1  0  0  0  0
 20 19  2  0  0  0  0
 21 20  1  0  0  0  0
 21 16  2  0  0  0  0
 22 16  1  0  0  0  0
 25 26  2  0  0  0  0
 25  5  1  0  0  0  0
 27 30  1  6  0  0  0
 27 28  1  0  0  0  0
 27 25  1  0  0  0  0
 28 31  1  0  0  0  0
 29 27  1  0  0  0  0
 29 33  1  1  0  0  0
 29 28  1  0  0  0  0
 32 28  1  0  0  0  0
 34 29  1  0  0  0  0
 35 34  1  0  0  0  0
 36 35  2  0  0  0  0
 37 36  1  0  0  0  0
 37 39  2  0  0  0  0
 38 37  1  0  0  0  0
 39 40  1  0  0  0  0
 40 34  1  0  0  0  0
 40 41  2  0  0  0  0
 42 38  1  0  0  0  0
 43 38  1  0  0  0  0
M  END
>  <minimizedAffinity>
-6.63486052

>  <minimizedRMSD>
0.230536282

$$$$
