
 OpenBabel03212520593D

 43 47  0  0  1  0  0  0  0  0999 V2000
   39.6210   77.0810   59.1830 C   0  0  0  0  0  0  0  0  0  0  0  0
   40.2560   75.9040   58.9540 C   0  0  0  0  0  0  0  0  0  0  0  0
   39.6720   75.1760   57.9050 C   0  0  0  0  0  0  0  0  0  0  0  0
   38.6020   75.5920   57.1990 N   0  0  0  0  0  0  0  0  0  0  0  0
   38.0400   76.7960   57.5150 C   0  0  0  0  0  0  0  0  0  0  0  0
   38.5600   77.5410   58.5150 N   0  0  0  0  0  0  0  0  0  0  0  0
   41.1140   75.5220   59.4850 H   0  0  0  0  0  0  0  0  0  0  0  0
   40.0750   74.2050   57.6050 H   0  0  0  0  0  0  0  0  0  0  0  0
   40.9430   80.0710   61.6220 C   0  0  0  0  0  0  0  0  0  0  0  0
   40.9090   78.8550   62.2690 C   0  0  0  0  0  0  0  0  0  0  0  0
   40.4850   77.7870   61.5560 C   0  0  0  0  0  0  0  0  0  0  0  0
   40.1120   77.9460   60.2380 C   0  0  0  0  0  0  0  0  0  0  0  0
   40.3630   79.7430   59.9330 S   0  0  0  0  0  0  0  0  0  0  0  0
   41.2030   78.7340   63.3080 H   0  0  0  0  0  0  0  0  0  0  0  0
   40.3860   76.7580   61.8770 H   0  0  0  0  0  0  0  0  0  0  0  0
   43.1110   82.8470   62.6510 C   0  0  0  0  0  0  0  0  0  0  0  0
   42.2440   83.6580   63.4300 C   0  0  0  0  0  0  0  0  0  0  0  0
   40.9090   83.2450   63.5940 C   0  0  0  0  0  0  0  0  0  0  0  0
   40.5140   82.0950   63.0020 N   0  0  0  0  0  0  0  0  0  0  0  0
   41.3800   81.3430   62.2620 C   0  0  0  0  0  0  0  0  0  0  0  0
   42.6460   81.7230   62.0980 N   0  0  0  0  0  0  0  0  0  0  0  0
   44.1350   83.1280   62.5040 H   0  0  0  0  0  0  0  0  0  0  0  0
   42.6050   84.5740   63.8870 H   0  0  0  0  0  0  0  0  0  0  0  0
   40.2150   83.8320   64.1780 H   0  0  0  0  0  0  0  0  0  0  0  0
   36.8950   77.2270   56.7350 C   0  0  0  0  0  0  0  0  0  0  0  0
   35.7760   77.1190   57.2620 O   0  0  0  0  0  0  0  0  0  0  0  0
   37.0300   77.7740   55.3380 C   0  0  1  0  0  0  0  0  0  0  0  0
   37.3950   79.2390   55.3170 C   0  0  0  0  0  0  0  0  0  0  0  0
   38.3220   78.2070   54.8550 C   0  0  2  0  0  0  0  0  0  0  0  0
   36.0680   77.5890   54.7800 H   0  0  0  0  0  0  0  0  0  0  0  0
   37.6260   79.7450   56.2680 H   0  0  0  0  0  0  0  0  0  0  0  0
   36.8970   79.8680   54.5800 H   0  0  0  0  0  0  0  0  0  0  0  0
   39.2040   77.9050   55.4880 H   0  0  0  0  0  0  0  0  0  0  0  0
   38.6770   78.2220   53.4520 N   0  0  0  0  0  0  0  0  0  0  0  0
   38.3690   79.4030   52.8390 C   0  0  0  0  0  3  0  0  0  0  0  0
   38.6320   79.6080   51.5000 C   0  0  0  0  0  3  0  0  0  0  0  0
   39.2190   78.5680   50.8080 C   0  0  0  0  0  0  0  0  0  0  0  0
   39.4960   78.7670   49.4270 N   0  0  0  0  0  0  0  0  0  0  0  0
   39.5140   77.4120   51.4310 N   0  0  0  0  0  0  0  0  0  0  0  0
   39.2460   77.2350   52.7490 C   0  0  0  0  0  0  0  0  0  0  0  0
   39.4880   76.2010   53.3950 O   0  0  0  0  0  0  0  0  0  0  0  0
   40.1730   79.5420   49.2530 H   0  0  0  0  0  0  0  0  0  0  0  0
   39.1310   78.2670   48.5730 H   0  0  0  0  0  0  0  0  0  0  0  0
  1 12  1  0  0  0  0
  2  1  1  0  0  0  0
  2  7  1  0  0  0  0
  3  2  2  0  0  0  0
  4  5  2  0  0  0  0
  4  3  1  0  0  0  0
  5  6  1  0  0  0  0
  6  1  2  0  0  0  0
  8  3  1  0  0  0  0
  9 20  1  0  0  0  0
  9 10  2  0  0  0  0
 10 14  1  0  0  0  0
 11 15  1  0  0  0  0
 11 10  1  0  0  0  0
 12 11  2  0  0  0  0
 13 12  1  0  0  0  0
 13  9  1  0  0  0  0
 16 17  1  0  0  0  0
 17 18  2  0  0  0  0
 17 23  1  0  0  0  0
 18 24  1  0  0  0  0
 19 18  1  0  0  0  0
 20 19  2  0  0  0  0
 21 20  1  0  0  0  0
 21 16  2  0  0  0  0
 22 16  1  0  0  0  0
 25 26  2  0  0  0  0
 25  5  1  0  0  0  0
 27 30  1  6  0  0  0
 27 25  1  0  0  0  0
 28 27  1  0  0  0  0
 28 31  1  0  0  0  0
 29 28  1  0  0  0  0
 29 27  1  0  0  0  0
 29 33  1  1  0  0  0
 32 28  1  0  0  0  0
 34 29  1  0  0  0  0
 35 34  1  0  0  0  0
 36 35  2  0  0  0  0
 37 39  2  0  0  0  0
 37 36  1  0  0  0  0
 38 37  1  0  0  0  0
 39 40  1  0  0  0  0
 40 41  2  0  0  0  0
 40 34  1  0  0  0  0
 42 38  1  0  0  0  0
 43 38  1  0  0  0  0
M  END
>  <minimizedAffinity>
-6.50650167

>  <minimizedRMSD>
1.20048487

$$$$
