
 OpenBabel03212520593D

 43 47  0  0  1  0  0  0  0  0999 V2000
   39.6210   77.0800   59.1810 C   0  0  0  0  0  0  0  0  0  0  0  0
   40.2550   75.9030   58.9530 C   0  0  0  0  0  0  0  0  0  0  0  0
   39.6700   75.1750   57.9040 C   0  0  0  0  0  0  0  0  0  0  0  0
   38.6010   75.5910   57.1980 N   0  0  0  0  0  0  0  0  0  0  0  0
   38.0390   76.7960   57.5140 C   0  0  0  0  0  0  0  0  0  0  0  0
   38.5600   77.5410   58.5140 N   0  0  0  0  0  0  0  0  0  0  0  0
   41.1120   75.5210   59.4840 H   0  0  0  0  0  0  0  0  0  0  0  0
   40.0730   74.2040   57.6040 H   0  0  0  0  0  0  0  0  0  0  0  0
   40.9430   80.0700   61.6200 C   0  0  0  0  0  0  0  0  0  0  0  0
   40.9110   78.8540   62.2670 C   0  0  0  0  0  0  0  0  0  0  0  0
   40.4870   77.7850   61.5530 C   0  0  0  0  0  0  0  0  0  0  0  0
   40.1130   77.9450   60.2360 C   0  0  0  0  0  0  0  0  0  0  0  0
   40.3610   79.7420   59.9320 S   0  0  0  0  0  0  0  0  0  0  0  0
   41.2070   78.7320   63.3050 H   0  0  0  0  0  0  0  0  0  0  0  0
   40.3900   76.7570   61.8740 H   0  0  0  0  0  0  0  0  0  0  0  0
   43.1110   82.8450   62.6520 C   0  0  0  0  0  0  0  0  0  0  0  0
   42.2430   83.6560   63.4290 C   0  0  0  0  0  0  0  0  0  0  0  0
   40.9070   83.2440   63.5920 C   0  0  0  0  0  0  0  0  0  0  0  0
   40.5140   82.0950   63.0000 N   0  0  0  0  0  0  0  0  0  0  0  0
   41.3800   81.3410   62.2600 C   0  0  0  0  0  0  0  0  0  0  0  0
   42.6460   81.7210   62.0990 N   0  0  0  0  0  0  0  0  0  0  0  0
   44.1360   83.1260   62.5060 H   0  0  0  0  0  0  0  0  0  0  0  0
   42.6040   84.5730   63.8860 H   0  0  0  0  0  0  0  0  0  0  0  0
   40.2130   83.8320   64.1740 H   0  0  0  0  0  0  0  0  0  0  0  0
   36.8940   77.2270   56.7340 C   0  0  0  0  0  0  0  0  0  0  0  0
   35.7750   77.1200   57.2620 O   0  0  0  0  0  0  0  0  0  0  0  0
   37.0290   77.7740   55.3370 C   0  0  1  0  0  0  0  0  0  0  0  0
   37.3940   79.2390   55.3170 C   0  0  0  0  0  0  0  0  0  0  0  0
   38.3220   78.2080   54.8550 C   0  0  2  0  0  0  0  0  0  0  0  0
   36.0670   77.5890   54.7790 H   0  0  0  0  0  0  0  0  0  0  0  0
   37.6250   79.7450   56.2670 H   0  0  0  0  0  0  0  0  0  0  0  0
   36.8960   79.8680   54.5790 H   0  0  0  0  0  0  0  0  0  0  0  0
   39.2040   77.9060   55.4870 H   0  0  0  0  0  0  0  0  0  0  0  0
   38.6760   78.2220   53.4520 N   0  0  0  0  0  0  0  0  0  0  0  0
   38.3680   79.4030   52.8390 C   0  0  0  0  0  3  0  0  0  0  0  0
   38.6320   79.6080   51.4990 C   0  0  0  0  0  3  0  0  0  0  0  0
   39.2190   78.5690   50.8080 C   0  0  0  0  0  0  0  0  0  0  0  0
   39.4950   78.7680   49.4260 N   0  0  0  0  0  0  0  0  0  0  0  0
   39.5150   77.4130   51.4290 N   0  0  0  0  0  0  0  0  0  0  0  0
   39.2460   77.2350   52.7490 C   0  0  0  0  0  0  0  0  0  0  0  0
   39.4870   76.2010   53.3950 O   0  0  0  0  0  0  0  0  0  0  0  0
   40.1730   79.5410   49.2520 H   0  0  0  0  0  0  0  0  0  0  0  0
   39.1300   78.2670   48.5720 H   0  0  0  0  0  0  0  0  0  0  0  0
  1 12  1  0  0  0  0
  2  1  1  0  0  0  0
  2  7  1  0  0  0  0
  3  2  2  0  0  0  0
  4  5  2  0  0  0  0
  4  3  1  0  0  0  0
  5  6  1  0  0  0  0
  6  1  2  0  0  0  0
  8  3  1  0  0  0  0
  9 20  1  0  0  0  0
  9 10  2  0  0  0  0
 10 14  1  0  0  0  0
 11 15  1  0  0  0  0
 11 10  1  0  0  0  0
 12 11  2  0  0  0  0
 13 12  1  0  0  0  0
 13  9  1  0  0  0  0
 16 17  1  0  0  0  0
 17 18  2  0  0  0  0
 17 23  1  0  0  0  0
 18 24  1  0  0  0  0
 19 18  1  0  0  0  0
 20 19  2  0  0  0  0
 21 20  1  0  0  0  0
 21 16  2  0  0  0  0
 22 16  1  0  0  0  0
 25 26  2  0  0  0  0
 25  5  1  0  0  0  0
 27 30  1  6  0  0  0
 27 25  1  0  0  0  0
 28 27  1  0  0  0  0
 28 31  1  0  0  0  0
 29 28  1  0  0  0  0
 29 27  1  0  0  0  0
 29 33  1  1  0  0  0
 32 28  1  0  0  0  0
 34 29  1  0  0  0  0
 35 34  1  0  0  0  0
 36 35  2  0  0  0  0
 37 39  2  0  0  0  0
 37 36  1  0  0  0  0
 38 37  1  0  0  0  0
 39 40  1  0  0  0  0
 40 41  2  0  0  0  0
 40 34  1  0  0  0  0
 42 38  1  0  0  0  0
 43 38  1  0  0  0  0
M  END
>  <minimizedAffinity>
-6.50438929

>  <minimizedRMSD>
1.24447179

$$$$
