
 OpenBabel03212520583D

 43 47  0  0  1  0  0  0  0  0999 V2000
   39.7290   77.2740   59.2590 C   0  0  0  0  0  0  0  0  0  0  0  0
   40.3860   76.1150   59.0040 C   0  0  0  0  0  0  0  0  0  0  0  0
   39.8090   75.3940   57.9470 C   0  0  0  0  0  0  0  0  0  0  0  0
   38.7250   75.8000   57.2570 N   0  0  0  0  0  0  0  0  0  0  0  0
   38.1410   76.9860   57.5980 C   0  0  0  0  0  0  0  0  0  0  0  0
   38.6530   77.7240   58.6080 N   0  0  0  0  0  0  0  0  0  0  0  0
   41.2560   75.7420   59.5220 H   0  0  0  0  0  0  0  0  0  0  0  0
   40.2290   74.4370   57.6270 H   0  0  0  0  0  0  0  0  0  0  0  0
   40.9890   80.2500   61.7470 C   0  0  0  0  0  0  0  0  0  0  0  0
   41.0190   79.0170   62.3620 C   0  0  0  0  0  0  0  0  0  0  0  0
   40.6220   77.9520   61.6290 C   0  0  0  0  0  0  0  0  0  0  0  0
   40.2110   78.1310   60.3250 C   0  0  0  0  0  0  0  0  0  0  0  0
   40.3820   79.9430   60.0640 S   0  0  0  0  0  0  0  0  0  0  0  0
   41.3440   78.8810   63.3900 H   0  0  0  0  0  0  0  0  0  0  0  0
   40.5720   76.9120   61.9240 H   0  0  0  0  0  0  0  0  0  0  0  0
   43.0790   83.0650   62.8310 C   0  0  0  0  0  0  0  0  0  0  0  0
   42.1890   83.8370   63.6240 C   0  0  0  0  0  0  0  0  0  0  0  0
   40.8660   83.3840   63.7780 C   0  0  0  0  0  0  0  0  0  0  0  0
   40.5040   82.2350   63.1650 N   0  0  0  0  0  0  0  0  0  0  0  0
   41.3900   81.5210   62.4110 C   0  0  0  0  0  0  0  0  0  0  0  0
   42.6450   81.9390   62.2570 N   0  0  0  0  0  0  0  0  0  0  0  0
   44.0950   83.3770   62.6900 H   0  0  0  0  0  0  0  0  0  0  0  0
   42.5240   84.7540   64.0980 H   0  0  0  0  0  0  0  0  0  0  0  0
   40.1560   83.9410   64.3720 H   0  0  0  0  0  0  0  0  0  0  0  0
   36.9800   77.4070   56.8350 C   0  0  0  0  0  0  0  0  0  0  0  0
   35.8670   77.0470   57.2500 O   0  0  0  0  0  0  0  0  0  0  0  0
   37.0960   78.2360   55.5830 C   0  0  1  0  0  0  0  0  0  0  0  0
   37.4610   79.6740   55.8660 C   0  0  0  0  0  0  0  0  0  0  0  0
   38.3820   78.7640   55.1840 C   0  0  2  0  0  0  0  0  0  0  0  0
   36.1260   78.1700   55.0120 H   0  0  0  0  0  0  0  0  0  0  0  0
   37.7070   79.9690   56.8980 H   0  0  0  0  0  0  0  0  0  0  0  0
   36.9530   80.4430   55.2850 H   0  0  0  0  0  0  0  0  0  0  0  0
   39.2730   78.3380   55.7260 H   0  0  0  0  0  0  0  0  0  0  0  0
   38.7160   79.0750   53.8110 N   0  0  0  0  0  0  0  0  0  0  0  0
   39.8640   79.8070   53.6970 C   0  0  0  0  0  3  0  0  0  0  0  0
   40.3450   80.2000   52.4640 C   0  0  0  0  0  3  0  0  0  0  0  0
   39.6180   79.8220   51.3550 C   0  0  0  0  0  0  0  0  0  0  0  0
   40.1040   80.2220   50.0780 N   0  0  0  0  0  0  0  0  0  0  0  0
   38.4900   79.1010   51.4890 N   0  0  0  0  0  0  0  0  0  0  0  0
   38.0360   78.7260   52.7110 C   0  0  0  0  0  0  0  0  0  0  0  0
   37.0070   78.0620   52.9200 O   0  0  0  0  0  0  0  0  0  0  0  0
   41.0430   79.8250   49.8560 H   0  0  0  0  0  0  0  0  0  0  0  0
   39.6740   80.8410   49.3410 H   0  0  0  0  0  0  0  0  0  0  0  0
  1 12  1  0  0  0  0
  2  1  1  0  0  0  0
  2  7  1  0  0  0  0
  3  2  2  0  0  0  0
  4  5  2  0  0  0  0
  4  3  1  0  0  0  0
  5  6  1  0  0  0  0
  6  1  2  0  0  0  0
  8  3  1  0  0  0  0
  9 10  2  0  0  0  0
  9 20  1  0  0  0  0
 10 14  1  0  0  0  0
 11 15  1  0  0  0  0
 11 10  1  0  0  0  0
 12 11  2  0  0  0  0
 13 12  1  0  0  0  0
 13  9  1  0  0  0  0
 16 17  1  0  0  0  0
 17 18  2  0  0  0  0
 17 23  1  0  0  0  0
 18 24  1  0  0  0  0
 19 18  1  0  0  0  0
 20 19  2  0  0  0  0
 21 20  1  0  0  0  0
 21 16  2  0  0  0  0
 22 16  1  0  0  0  0
 25 26  2  0  0  0  0
 25  5  1  0  0  0  0
 27 30  1  6  0  0  0
 27 28  1  0  0  0  0
 27 25  1  0  0  0  0
 28 31  1  0  0  0  0
 29 27  1  0  0  0  0
 29 33  1  1  0  0  0
 29 28  1  0  0  0  0
 32 28  1  0  0  0  0
 34 29  1  0  0  0  0
 35 34  1  0  0  0  0
 36 35  2  0  0  0  0
 37 39  2  0  0  0  0
 37 36  1  0  0  0  0
 38 37  1  0  0  0  0
 39 40  1  0  0  0  0
 40 41  2  0  0  0  0
 40 34  1  0  0  0  0
 42 38  1  0  0  0  0
 43 38  1  0  0  0  0
M  END
>  <minimizedAffinity>
-6.6322608

>  <minimizedRMSD>
0.519654751

$$$$
