
 OpenBabel03212520593D

 43 47  0  0  1  0  0  0  0  0999 V2000
   39.7540   77.3340   59.2350 C   0  0  0  0  0  0  0  0  0  0  0  0
   40.4010   76.1660   59.0000 C   0  0  0  0  0  0  0  0  0  0  0  0
   39.8430   75.4500   57.9290 C   0  0  0  0  0  0  0  0  0  0  0  0
   38.7850   75.8690   57.2090 N   0  0  0  0  0  0  0  0  0  0  0  0
   38.2080   77.0640   57.5320 C   0  0  0  0  0  0  0  0  0  0  0  0
   38.7020   77.7980   58.5540 N   0  0  0  0  0  0  0  0  0  0  0  0
   41.2510   75.7820   59.5430 H   0  0  0  0  0  0  0  0  0  0  0  0
   40.2590   74.4860   57.6230 H   0  0  0  0  0  0  0  0  0  0  0  0
   40.9800   80.3000   61.7530 C   0  0  0  0  0  0  0  0  0  0  0  0
   40.9870   79.0660   62.3670 C   0  0  0  0  0  0  0  0  0  0  0  0
   40.5980   78.0040   61.6250 C   0  0  0  0  0  0  0  0  0  0  0  0
   40.2180   78.1860   60.3130 C   0  0  0  0  0  0  0  0  0  0  0  0
   40.4080   79.9980   60.0560 S   0  0  0  0  0  0  0  0  0  0  0  0
   41.2870   78.9260   63.4020 H   0  0  0  0  0  0  0  0  0  0  0  0
   40.5340   76.9640   61.9180 H   0  0  0  0  0  0  0  0  0  0  0  0
   43.0610   83.1080   62.8680 C   0  0  0  0  0  0  0  0  0  0  0  0
   42.1640   83.8760   63.6580 C   0  0  0  0  0  0  0  0  0  0  0  0
   40.8400   83.4230   63.7990 C   0  0  0  0  0  0  0  0  0  0  0  0
   40.4830   82.2770   63.1770 N   0  0  0  0  0  0  0  0  0  0  0  0
   41.3750   81.5670   62.4270 C   0  0  0  0  0  0  0  0  0  0  0  0
   42.6320   81.9860   62.2840 N   0  0  0  0  0  0  0  0  0  0  0  0
   44.0780   83.4220   62.7370 H   0  0  0  0  0  0  0  0  0  0  0  0
   42.4960   84.7910   64.1390 H   0  0  0  0  0  0  0  0  0  0  0  0
   40.1250   83.9760   64.3900 H   0  0  0  0  0  0  0  0  0  0  0  0
   37.0750   77.4990   56.7360 C   0  0  0  0  0  0  0  0  0  0  0  0
   35.9570   77.0630   57.0550 O   0  0  0  0  0  0  0  0  0  0  0  0
   37.2240   78.4300   55.5620 C   0  0  1  0  0  0  0  0  0  0  0  0
   37.3040   79.8810   55.9730 C   0  0  0  0  0  0  0  0  0  0  0  0
   38.4470   79.1820   55.3880 C   0  0  2  0  0  0  0  0  0  0  0  0
   36.3670   78.2590   54.8500 H   0  0  0  0  0  0  0  0  0  0  0  0
   37.3520   80.1300   57.0450 H   0  0  0  0  0  0  0  0  0  0  0  0
   36.7610   80.6040   55.3650 H   0  0  0  0  0  0  0  0  0  0  0  0
   39.3130   78.8580   56.0330 H   0  0  0  0  0  0  0  0  0  0  0  0
   38.9120   79.6450   54.0990 N   0  0  0  0  0  0  0  0  0  0  0  0
   37.9800   79.4980   53.1130 C   0  0  0  0  0  3  0  0  0  0  0  0
   38.2390   79.8850   51.8130 C   0  0  0  0  0  3  0  0  0  0  0  0
   39.4820   80.4260   51.5550 C   0  0  0  0  0  0  0  0  0  0  0  0
   39.7610   80.8280   50.2200 N   0  0  0  0  0  0  0  0  0  0  0  0
   40.3880   80.5630   52.5400 N   0  0  0  0  0  0  0  0  0  0  0  0
   40.1080   80.1760   53.8110 C   0  0  0  0  0  0  0  0  0  0  0  0
   40.8880   80.2690   54.7740 O   0  0  0  0  0  0  0  0  0  0  0  0
   39.1300   81.5860   49.8800 H   0  0  0  0  0  0  0  0  0  0  0  0
   40.4890   80.4870   49.5360 H   0  0  0  0  0  0  0  0  0  0  0  0
  1 12  1  0  0  0  0
  2  1  1  0  0  0  0
  2  7  1  0  0  0  0
  3  2  2  0  0  0  0
  4  5  2  0  0  0  0
  4  3  1  0  0  0  0
  5  6  1  0  0  0  0
  6  1  2  0  0  0  0
  8  3  1  0  0  0  0
  9 10  2  0  0  0  0
  9 20  1  0  0  0  0
 10 14  1  0  0  0  0
 11 15  1  0  0  0  0
 11 10  1  0  0  0  0
 12 11  2  0  0  0  0
 13 12  1  0  0  0  0
 13  9  1  0  0  0  0
 16 17  1  0  0  0  0
 17 18  2  0  0  0  0
 17 23  1  0  0  0  0
 18 24  1  0  0  0  0
 19 18  1  0  0  0  0
 20 19  2  0  0  0  0
 21 20  1  0  0  0  0
 21 16  2  0  0  0  0
 22 16  1  0  0  0  0
 25 26  2  0  0  0  0
 25  5  1  0  0  0  0
 27 30  1  6  0  0  0
 27 28  1  0  0  0  0
 27 25  1  0  0  0  0
 28 31  1  0  0  0  0
 29 27  1  0  0  0  0
 29 28  1  0  0  0  0
 29 33  1  1  0  0  0
 32 28  1  0  0  0  0
 34 29  1  0  0  0  0
 35 34  1  0  0  0  0
 36 35  2  0  0  0  0
 37 36  1  0  0  0  0
 37 39  2  0  0  0  0
 38 37  1  0  0  0  0
 39 40  1  0  0  0  0
 40 34  1  0  0  0  0
 40 41  2  0  0  0  0
 42 38  1  0  0  0  0
 43 38  1  0  0  0  0
M  END
>  <minimizedAffinity>
-6.6352849

>  <minimizedRMSD>
0.131174192

$$$$
