
 OpenBabel03212520583D

 43 47  0  0  1  0  0  0  0  0999 V2000
   39.6460   77.1470   59.1560 C   0  0  0  0  0  0  0  0  0  0  0  0
   40.2890   75.9790   58.9050 C   0  0  0  0  0  0  0  0  0  0  0  0
   39.7040   75.2610   57.8500 C   0  0  0  0  0  0  0  0  0  0  0  0
   38.6260   75.6780   57.1570 N   0  0  0  0  0  0  0  0  0  0  0  0
   38.0560   76.8720   57.4950 C   0  0  0  0  0  0  0  0  0  0  0  0
   38.5760   77.6080   58.5020 N   0  0  0  0  0  0  0  0  0  0  0  0
   41.1540   75.5970   59.4250 H   0  0  0  0  0  0  0  0  0  0  0  0
   40.1140   74.2980   57.5330 H   0  0  0  0  0  0  0  0  0  0  0  0
   40.9600   80.1130   61.6290 C   0  0  0  0  0  0  0  0  0  0  0  0
   40.9380   78.8880   62.2590 C   0  0  0  0  0  0  0  0  0  0  0  0
   40.5180   77.8260   61.5330 C   0  0  0  0  0  0  0  0  0  0  0  0
   40.1370   78.0010   60.2200 C   0  0  0  0  0  0  0  0  0  0  0  0
   40.3730   79.8030   59.9390 S   0  0  0  0  0  0  0  0  0  0  0  0
   41.2390   78.7540   63.2950 H   0  0  0  0  0  0  0  0  0  0  0  0
   40.4290   76.7930   61.8410 H   0  0  0  0  0  0  0  0  0  0  0  0
   43.1170   82.8820   62.6960 C   0  0  0  0  0  0  0  0  0  0  0  0
   42.2450   83.6820   63.4800 C   0  0  0  0  0  0  0  0  0  0  0  0
   40.9100   83.2650   63.6350 C   0  0  0  0  0  0  0  0  0  0  0  0
   40.5210   82.1200   63.0290 N   0  0  0  0  0  0  0  0  0  0  0  0
   41.3910   81.3780   62.2840 C   0  0  0  0  0  0  0  0  0  0  0  0
   42.6570   81.7640   62.1290 N   0  0  0  0  0  0  0  0  0  0  0  0
   44.1410   83.1680   62.5540 H   0  0  0  0  0  0  0  0  0  0  0  0
   42.6020   84.5950   63.9470 H   0  0  0  0  0  0  0  0  0  0  0  0
   40.2130   83.8430   64.2220 H   0  0  0  0  0  0  0  0  0  0  0  0
   36.9010   77.3040   56.7290 C   0  0  0  0  0  0  0  0  0  0  0  0
   35.7840   77.1410   57.2450 O   0  0  0  0  0  0  0  0  0  0  0  0
   37.0260   77.9170   55.3580 C   0  0  1  0  0  0  0  0  0  0  0  0
   37.4250   79.3730   55.4040 C   0  0  0  0  0  0  0  0  0  0  0  0
   38.3200   78.3440   54.8750 C   0  0  2  0  0  0  0  0  0  0  0  0
   36.0500   77.7830   54.8090 H   0  0  0  0  0  0  0  0  0  0  0  0
   37.6850   79.8250   56.3740 H   0  0  0  0  0  0  0  0  0  0  0  0
   36.9300   80.0500   54.7080 H   0  0  0  0  0  0  0  0  0  0  0  0
   39.2050   77.9910   55.4750 H   0  0  0  0  0  0  0  0  0  0  0  0
   38.6510   78.4210   53.4680 N   0  0  0  0  0  0  0  0  0  0  0  0
   38.3070   79.6180   52.9060 C   0  0  0  0  0  3  0  0  0  0  0  0
   38.5440   79.8800   51.5720 C   0  0  0  0  0  3  0  0  0  0  0  0
   39.1420   78.8820   50.8320 C   0  0  0  0  0  0  0  0  0  0  0  0
   39.3910   79.1400   49.4550 N   0  0  0  0  0  0  0  0  0  0  0  0
   39.4730   77.7090   51.4030 N   0  0  0  0  0  0  0  0  0  0  0  0
   39.2300   77.4760   52.7170 C   0  0  0  0  0  0  0  0  0  0  0  0
   39.5040   76.4220   53.3190 O   0  0  0  0  0  0  0  0  0  0  0  0
   40.0480   79.9350   49.3010 H   0  0  0  0  0  0  0  0  0  0  0  0
   39.0230   78.6650   48.5870 H   0  0  0  0  0  0  0  0  0  0  0  0
  1 12  1  0  0  0  0
  2  1  1  0  0  0  0
  2  7  1  0  0  0  0
  3  2  2  0  0  0  0
  4  5  2  0  0  0  0
  4  3  1  0  0  0  0
  5  6  1  0  0  0  0
  6  1  2  0  0  0  0
  8  3  1  0  0  0  0
  9 10  2  0  0  0  0
  9 20  1  0  0  0  0
 10 14  1  0  0  0  0
 11 15  1  0  0  0  0
 11 10  1  0  0  0  0
 12 11  2  0  0  0  0
 13 12  1  0  0  0  0
 13  9  1  0  0  0  0
 16 17  1  0  0  0  0
 17 18  2  0  0  0  0
 17 23  1  0  0  0  0
 18 24  1  0  0  0  0
 19 18  1  0  0  0  0
 20 19  2  0  0  0  0
 21 20  1  0  0  0  0
 21 16  2  0  0  0  0
 22 16  1  0  0  0  0
 25 26  2  0  0  0  0
 25  5  1  0  0  0  0
 27 30  1  6  0  0  0
 27 28  1  0  0  0  0
 27 25  1  0  0  0  0
 28 31  1  0  0  0  0
 29 27  1  0  0  0  0
 29 28  1  0  0  0  0
 29 33  1  1  0  0  0
 32 28  1  0  0  0  0
 34 29  1  0  0  0  0
 35 34  1  0  0  0  0
 36 35  2  0  0  0  0
 37 39  2  0  0  0  0
 37 36  1  0  0  0  0
 38 37  1  0  0  0  0
 39 40  1  0  0  0  0
 40 41  2  0  0  0  0
 40 34  1  0  0  0  0
 42 38  1  0  0  0  0
 43 38  1  0  0  0  0
M  END
>  <minimizedAffinity>
-6.50781536

>  <minimizedRMSD>
1.02786195

$$$$
