
 OpenBabel03212520583D

 43 47  0  0  1  0  0  0  0  0999 V2000
   39.7300   77.2750   59.2580 C   0  0  0  0  0  0  0  0  0  0  0  0
   40.3850   76.1150   59.0030 C   0  0  0  0  0  0  0  0  0  0  0  0
   39.8070   75.3940   57.9460 C   0  0  0  0  0  0  0  0  0  0  0  0
   38.7230   75.8010   57.2560 N   0  0  0  0  0  0  0  0  0  0  0  0
   38.1400   76.9890   57.5980 C   0  0  0  0  0  0  0  0  0  0  0  0
   38.6540   77.7260   58.6070 N   0  0  0  0  0  0  0  0  0  0  0  0
   41.2540   75.7410   59.5200 H   0  0  0  0  0  0  0  0  0  0  0  0
   40.2260   74.4370   57.6250 H   0  0  0  0  0  0  0  0  0  0  0  0
   40.9900   80.2510   61.7470 C   0  0  0  0  0  0  0  0  0  0  0  0
   41.0250   79.0170   62.3590 C   0  0  0  0  0  0  0  0  0  0  0  0
   40.6280   77.9510   61.6260 C   0  0  0  0  0  0  0  0  0  0  0  0
   40.2120   78.1310   60.3240 C   0  0  0  0  0  0  0  0  0  0  0  0
   40.3780   79.9440   60.0650 S   0  0  0  0  0  0  0  0  0  0  0  0
   41.3530   78.8790   63.3860 H   0  0  0  0  0  0  0  0  0  0  0  0
   40.5820   76.9110   61.9200 H   0  0  0  0  0  0  0  0  0  0  0  0
   43.0790   83.0650   62.8340 C   0  0  0  0  0  0  0  0  0  0  0  0
   42.1880   83.8370   63.6250 C   0  0  0  0  0  0  0  0  0  0  0  0
   40.8640   83.3850   63.7770 C   0  0  0  0  0  0  0  0  0  0  0  0
   40.5030   82.2360   63.1630 N   0  0  0  0  0  0  0  0  0  0  0  0
   41.3900   81.5210   62.4110 C   0  0  0  0  0  0  0  0  0  0  0  0
   42.6460   81.9390   62.2590 N   0  0  0  0  0  0  0  0  0  0  0  0
   44.0950   83.3770   62.6940 H   0  0  0  0  0  0  0  0  0  0  0  0
   42.5220   84.7540   64.0990 H   0  0  0  0  0  0  0  0  0  0  0  0
   40.1530   83.9410   64.3700 H   0  0  0  0  0  0  0  0  0  0  0  0
   36.9800   77.4100   56.8350 C   0  0  0  0  0  0  0  0  0  0  0  0
   35.8660   77.0520   57.2510 O   0  0  0  0  0  0  0  0  0  0  0  0
   37.0960   78.2390   55.5820 C   0  0  1  0  0  0  0  0  0  0  0  0
   37.4610   79.6770   55.8650 C   0  0  0  0  0  0  0  0  0  0  0  0
   38.3820   78.7670   55.1840 C   0  0  2  0  0  0  0  0  0  0  0  0
   36.1260   78.1720   55.0110 H   0  0  0  0  0  0  0  0  0  0  0  0
   37.7060   79.9720   56.8970 H   0  0  0  0  0  0  0  0  0  0  0  0
   36.9530   80.4450   55.2830 H   0  0  0  0  0  0  0  0  0  0  0  0
   39.2720   78.3410   55.7270 H   0  0  0  0  0  0  0  0  0  0  0  0
   38.7170   79.0770   53.8110 N   0  0  0  0  0  0  0  0  0  0  0  0
   39.8640   79.8080   53.6960 C   0  0  0  0  0  3  0  0  0  0  0  0
   40.3470   80.2000   52.4630 C   0  0  0  0  0  3  0  0  0  0  0  0
   39.6190   79.8220   51.3530 C   0  0  0  0  0  0  0  0  0  0  0  0
   40.1060   80.2210   50.0780 N   0  0  0  0  0  0  0  0  0  0  0  0
   38.4910   79.1020   51.4880 N   0  0  0  0  0  0  0  0  0  0  0  0
   38.0370   78.7280   52.7110 C   0  0  0  0  0  0  0  0  0  0  0  0
   37.0060   78.0630   52.9190 O   0  0  0  0  0  0  0  0  0  0  0  0
   41.0440   79.8220   49.8560 H   0  0  0  0  0  0  0  0  0  0  0  0
   39.6760   80.8410   49.3400 H   0  0  0  0  0  0  0  0  0  0  0  0
  1 12  1  0  0  0  0
  2  1  1  0  0  0  0
  2  7  1  0  0  0  0
  3  2  2  0  0  0  0
  4  5  2  0  0  0  0
  4  3  1  0  0  0  0
  5  6  1  0  0  0  0
  6  1  2  0  0  0  0
  8  3  1  0  0  0  0
  9 10  2  0  0  0  0
  9 20  1  0  0  0  0
 10 14  1  0  0  0  0
 11 15  1  0  0  0  0
 11 10  1  0  0  0  0
 12 11  2  0  0  0  0
 13 12  1  0  0  0  0
 13  9  1  0  0  0  0
 16 17  1  0  0  0  0
 17 18  2  0  0  0  0
 17 23  1  0  0  0  0
 18 24  1  0  0  0  0
 19 18  1  0  0  0  0
 20 19  2  0  0  0  0
 21 20  1  0  0  0  0
 21 16  2  0  0  0  0
 22 16  1  0  0  0  0
 25 26  2  0  0  0  0
 25  5  1  0  0  0  0
 27 30  1  6  0  0  0
 27 28  1  0  0  0  0
 27 25  1  0  0  0  0
 28 31  1  0  0  0  0
 29 27  1  0  0  0  0
 29 33  1  1  0  0  0
 29 28  1  0  0  0  0
 32 28  1  0  0  0  0
 34 29  1  0  0  0  0
 35 34  1  0  0  0  0
 36 35  2  0  0  0  0
 37 39  2  0  0  0  0
 37 36  1  0  0  0  0
 38 37  1  0  0  0  0
 39 40  1  0  0  0  0
 40 41  2  0  0  0  0
 40 34  1  0  0  0  0
 42 38  1  0  0  0  0
 43 38  1  0  0  0  0
M  END
>  <minimizedAffinity>
-6.63190794

>  <minimizedRMSD>
0.513518512

$$$$
