
 OpenBabel03212520593D

 43 47  0  0  1  0  0  0  0  0999 V2000
   39.7640   77.3550   59.2250 C   0  0  0  0  0  0  0  0  0  0  0  0
   40.4240   76.1960   58.9780 C   0  0  0  0  0  0  0  0  0  0  0  0
   39.8700   75.4820   57.9040 C   0  0  0  0  0  0  0  0  0  0  0  0
   38.8030   75.8940   57.1920 N   0  0  0  0  0  0  0  0  0  0  0  0
   38.2130   77.0800   57.5280 C   0  0  0  0  0  0  0  0  0  0  0  0
   38.7030   77.8110   58.5530 N   0  0  0  0  0  0  0  0  0  0  0  0
   41.2810   75.8180   59.5140 H   0  0  0  0  0  0  0  0  0  0  0  0
   40.2960   74.5260   57.5880 H   0  0  0  0  0  0  0  0  0  0  0  0
   40.9800   80.3120   61.7570 C   0  0  0  0  0  0  0  0  0  0  0  0
   40.9790   79.0780   62.3700 C   0  0  0  0  0  0  0  0  0  0  0  0
   40.5920   78.0180   61.6230 C   0  0  0  0  0  0  0  0  0  0  0  0
   40.2220   78.2040   60.3080 C   0  0  0  0  0  0  0  0  0  0  0  0
   40.4210   80.0150   60.0560 S   0  0  0  0  0  0  0  0  0  0  0  0
   41.2710   78.9350   63.4060 H   0  0  0  0  0  0  0  0  0  0  0  0
   40.5220   76.9780   61.9140 H   0  0  0  0  0  0  0  0  0  0  0  0
   43.0600   83.1180   62.8840 C   0  0  0  0  0  0  0  0  0  0  0  0
   42.1630   83.8820   63.6760 C   0  0  0  0  0  0  0  0  0  0  0  0
   40.8380   83.4280   63.8150 C   0  0  0  0  0  0  0  0  0  0  0  0
   40.4820   82.2840   63.1880 N   0  0  0  0  0  0  0  0  0  0  0  0
   41.3750   81.5770   62.4360 C   0  0  0  0  0  0  0  0  0  0  0  0
   42.6310   81.9970   62.2950 N   0  0  0  0  0  0  0  0  0  0  0  0
   44.0770   83.4320   62.7540 H   0  0  0  0  0  0  0  0  0  0  0  0
   42.4930   84.7950   64.1610 H   0  0  0  0  0  0  0  0  0  0  0  0
   40.1230   83.9780   64.4080 H   0  0  0  0  0  0  0  0  0  0  0  0
   37.0710   77.5070   56.7410 C   0  0  0  0  0  0  0  0  0  0  0  0
   35.9620   77.0450   57.0530 O   0  0  0  0  0  0  0  0  0  0  0  0
   37.2010   78.4610   55.5820 C   0  0  1  0  0  0  0  0  0  0  0  0
   37.3520   79.8980   56.0230 C   0  0  0  0  0  0  0  0  0  0  0  0
   38.4420   79.1730   55.3710 C   0  0  2  0  0  0  0  0  0  0  0  0
   36.3080   78.3370   54.9060 H   0  0  0  0  0  0  0  0  0  0  0  0
   37.4560   80.1180   57.0960 H   0  0  0  0  0  0  0  0  0  0  0  0
   36.8090   80.6540   55.4560 H   0  0  0  0  0  0  0  0  0  0  0  0
   39.3230   78.8050   55.9680 H   0  0  0  0  0  0  0  0  0  0  0  0
   38.8660   79.6520   54.0730 N   0  0  0  0  0  0  0  0  0  0  0  0
   40.2070   79.9040   54.0110 C   0  0  0  0  0  3  0  0  0  0  0  0
   40.8000   80.3670   52.8540 C   0  0  0  0  0  3  0  0  0  0  0  0
   39.9780   80.5660   51.7640 C   0  0  0  0  0  0  0  0  0  0  0  0
   40.5770   81.0440   50.5640 N   0  0  0  0  0  0  0  0  0  0  0  0
   38.6600   80.3130   51.8440 N   0  0  0  0  0  0  0  0  0  0  0  0
   38.1010   79.8560   52.9930 C   0  0  0  0  0  0  0  0  0  0  0  0
   36.8940   79.5990   53.1500 O   0  0  0  0  0  0  0  0  0  0  0  0
   41.2870   80.3880   50.1730 H   0  0  0  0  0  0  0  0  0  0  0  0
   40.4190   81.9370   50.0240 H   0  0  0  0  0  0  0  0  0  0  0  0
  1 12  1  0  0  0  0
  2  1  1  0  0  0  0
  2  7  1  0  0  0  0
  3  2  2  0  0  0  0
  4  5  2  0  0  0  0
  4  3  1  0  0  0  0
  5  6  1  0  0  0  0
  6  1  2  0  0  0  0
  8  3  1  0  0  0  0
  9 10  2  0  0  0  0
  9 20  1  0  0  0  0
 10 14  1  0  0  0  0
 11 15  1  0  0  0  0
 11 10  1  0  0  0  0
 12 11  2  0  0  0  0
 13 12  1  0  0  0  0
 13  9  1  0  0  0  0
 16 17  1  0  0  0  0
 17 18  2  0  0  0  0
 17 23  1  0  0  0  0
 18 24  1  0  0  0  0
 19 18  1  0  0  0  0
 20 19  2  0  0  0  0
 21 20  1  0  0  0  0
 21 16  2  0  0  0  0
 22 16  1  0  0  0  0
 25 26  2  0  0  0  0
 25  5  1  0  0  0  0
 27 30  1  6  0  0  0
 27 28  1  0  0  0  0
 27 25  1  0  0  0  0
 28 31  1  0  0  0  0
 29 27  1  0  0  0  0
 29 33  1  1  0  0  0
 29 28  1  0  0  0  0
 32 28  1  0  0  0  0
 34 29  1  0  0  0  0
 35 34  1  0  0  0  0
 36 35  2  0  0  0  0
 37 39  2  0  0  0  0
 37 36  1  0  0  0  0
 38 37  1  0  0  0  0
 39 40  1  0  0  0  0
 40 41  2  0  0  0  0
 40 34  1  0  0  0  0
 42 38  1  0  0  0  0
 43 38  1  0  0  0  0
M  END
>  <minimizedAffinity>
-6.70401335

>  <minimizedRMSD>
0.173277035

$$$$
