
 OpenBabel03212520593D

 43 47  0  0  1  0  0  0  0  0999 V2000
   39.7440   77.2790   59.2290 C   0  0  0  0  0  0  0  0  0  0  0  0
   40.4110   76.1260   58.9730 C   0  0  0  0  0  0  0  0  0  0  0  0
   39.8470   75.4060   57.9090 C   0  0  0  0  0  0  0  0  0  0  0  0
   38.7640   75.8060   57.2130 N   0  0  0  0  0  0  0  0  0  0  0  0
   38.1680   76.9870   57.5570 C   0  0  0  0  0  0  0  0  0  0  0  0
   38.6690   77.7240   58.5730 N   0  0  0  0  0  0  0  0  0  0  0  0
   41.2810   75.7570   59.4940 H   0  0  0  0  0  0  0  0  0  0  0  0
   40.2770   74.4530   57.5860 H   0  0  0  0  0  0  0  0  0  0  0  0
   40.9830   80.2510   61.7330 C   0  0  0  0  0  0  0  0  0  0  0  0
   40.9880   79.0190   62.3520 C   0  0  0  0  0  0  0  0  0  0  0  0
   40.5940   77.9560   61.6150 C   0  0  0  0  0  0  0  0  0  0  0  0
   40.2120   78.1340   60.3030 C   0  0  0  0  0  0  0  0  0  0  0  0
   40.4070   79.9440   60.0390 S   0  0  0  0  0  0  0  0  0  0  0  0
   41.2890   78.8830   63.3870 H   0  0  0  0  0  0  0  0  0  0  0  0
   40.5280   76.9170   61.9120 H   0  0  0  0  0  0  0  0  0  0  0  0
   43.0710   83.0610   62.8290 C   0  0  0  0  0  0  0  0  0  0  0  0
   42.1800   83.8310   63.6220 C   0  0  0  0  0  0  0  0  0  0  0  0
   40.8570   83.3790   63.7730 C   0  0  0  0  0  0  0  0  0  0  0  0
   40.4950   82.2320   63.1550 N   0  0  0  0  0  0  0  0  0  0  0  0
   41.3830   81.5190   62.4020 C   0  0  0  0  0  0  0  0  0  0  0  0
   42.6380   81.9380   62.2500 N   0  0  0  0  0  0  0  0  0  0  0  0
   44.0880   83.3740   62.6900 H   0  0  0  0  0  0  0  0  0  0  0  0
   42.5150   84.7470   64.0990 H   0  0  0  0  0  0  0  0  0  0  0  0
   40.1460   83.9340   64.3670 H   0  0  0  0  0  0  0  0  0  0  0  0
   37.0100   77.4020   56.7880 C   0  0  0  0  0  0  0  0  0  0  0  0
   35.9010   76.9890   57.1650 O   0  0  0  0  0  0  0  0  0  0  0  0
   37.1220   78.2860   55.5740 C   0  0  1  0  0  0  0  0  0  0  0  0
   37.2730   79.7470   55.9280 C   0  0  0  0  0  0  0  0  0  0  0  0
   38.3570   78.9880   55.3050 C   0  0  2  0  0  0  0  0  0  0  0  0
   36.2200   78.1200   54.9180 H   0  0  0  0  0  0  0  0  0  0  0  0
   37.3900   80.0310   56.9850 H   0  0  0  0  0  0  0  0  0  0  0  0
   36.7200   80.4670   55.3250 H   0  0  0  0  0  0  0  0  0  0  0  0
   39.2470   78.6580   55.9120 H   0  0  0  0  0  0  0  0  0  0  0  0
   38.7630   79.3910   53.9760 N   0  0  0  0  0  0  0  0  0  0  0  0
   38.0050   78.8220   52.9940 C   0  0  0  0  0  3  0  0  0  0  0  0
   38.2390   79.0860   51.6590 C   0  0  0  0  0  3  0  0  0  0  0  0
   39.2740   79.9490   51.3620 C   0  0  0  0  0  0  0  0  0  0  0  0
   39.5270   80.2300   49.9910 N   0  0  0  0  0  0  0  0  0  0  0  0
   40.0100   80.5000   52.3440 N   0  0  0  0  0  0  0  0  0  0  0  0
   39.7600   80.2250   53.6490 C   0  0  0  0  0  0  0  0  0  0  0  0
   40.3920   80.6910   54.6140 O   0  0  0  0  0  0  0  0  0  0  0  0
   38.7240   80.6950   49.5140 H   0  0  0  0  0  0  0  0  0  0  0  0
   40.3780   80.0440   49.3940 H   0  0  0  0  0  0  0  0  0  0  0  0
  1 12  1  0  0  0  0
  2  1  1  0  0  0  0
  2  7  1  0  0  0  0
  3  2  2  0  0  0  0
  4  5  2  0  0  0  0
  4  3  1  0  0  0  0
  5  6  1  0  0  0  0
  6  1  2  0  0  0  0
  8  3  1  0  0  0  0
  9 10  2  0  0  0  0
  9 20  1  0  0  0  0
 10 14  1  0  0  0  0
 11 15  1  0  0  0  0
 11 10  1  0  0  0  0
 12 11  2  0  0  0  0
 13 12  1  0  0  0  0
 13  9  1  0  0  0  0
 16 17  1  0  0  0  0
 17 18  2  0  0  0  0
 17 23  1  0  0  0  0
 18 24  1  0  0  0  0
 19 18  1  0  0  0  0
 20 19  2  0  0  0  0
 21 20  1  0  0  0  0
 21 16  2  0  0  0  0
 22 16  1  0  0  0  0
 25 26  2  0  0  0  0
 25  5  1  0  0  0  0
 27 30  1  6  0  0  0
 27 28  1  0  0  0  0
 27 25  1  0  0  0  0
 28 31  1  0  0  0  0
 29 27  1  0  0  0  0
 29 33  1  1  0  0  0
 29 28  1  0  0  0  0
 32 28  1  0  0  0  0
 34 29  1  0  0  0  0
 35 34  1  0  0  0  0
 36 35  2  0  0  0  0
 37 36  1  0  0  0  0
 37 39  2  0  0  0  0
 38 37  1  0  0  0  0
 39 40  1  0  0  0  0
 40 34  1  0  0  0  0
 40 41  2  0  0  0  0
 42 38  1  0  0  0  0
 43 38  1  0  0  0  0
M  END
>  <minimizedAffinity>
-6.70876694

>  <minimizedRMSD>
0.277176261

$$$$
