
 OpenBabel03212520593D

 43 47  0  0  1  0  0  0  0  0999 V2000
   39.8030   77.4060   59.1620 C   0  0  0  0  0  0  0  0  0  0  0  0
   40.5310   76.3080   58.8410 C   0  0  0  0  0  0  0  0  0  0  0  0
   39.9810   75.5960   57.7630 C   0  0  0  0  0  0  0  0  0  0  0  0
   38.8570   75.9570   57.1140 N   0  0  0  0  0  0  0  0  0  0  0  0
   38.2010   77.0840   57.5210 C   0  0  0  0  0  0  0  0  0  0  0  0
   38.6850   77.8090   58.5540 N   0  0  0  0  0  0  0  0  0  0  0  0
   41.4360   75.9720   59.3250 H   0  0  0  0  0  0  0  0  0  0  0  0
   40.4590   74.6860   57.3910 H   0  0  0  0  0  0  0  0  0  0  0  0
   40.9870   80.3400   61.7370 C   0  0  0  0  0  0  0  0  0  0  0  0
   40.9840   79.0990   62.3360 C   0  0  0  0  0  0  0  0  0  0  0  0
   40.6070   78.0460   61.5740 C   0  0  0  0  0  0  0  0  0  0  0  0
   40.2490   78.2450   60.2580 C   0  0  0  0  0  0  0  0  0  0  0  0
   40.4440   80.0590   60.0270 S   0  0  0  0  0  0  0  0  0  0  0  0
   41.2670   78.9470   63.3740 H   0  0  0  0  0  0  0  0  0  0  0  0
   40.5390   77.0030   61.8540 H   0  0  0  0  0  0  0  0  0  0  0  0
   43.0460   83.1410   62.9100 C   0  0  0  0  0  0  0  0  0  0  0  0
   42.1390   83.8930   63.7040 C   0  0  0  0  0  0  0  0  0  0  0  0
   40.8160   83.4320   63.8280 C   0  0  0  0  0  0  0  0  0  0  0  0
   40.4690   82.2940   63.1860 N   0  0  0  0  0  0  0  0  0  0  0  0
   41.3710   81.5990   62.4320 C   0  0  0  0  0  0  0  0  0  0  0  0
   42.6270   82.0260   62.3060 N   0  0  0  0  0  0  0  0  0  0  0  0
   44.0620   83.4610   62.7920 H   0  0  0  0  0  0  0  0  0  0  0  0
   42.4620   84.8020   64.2020 H   0  0  0  0  0  0  0  0  0  0  0  0
   40.0940   83.9730   64.4210 H   0  0  0  0  0  0  0  0  0  0  0  0
   36.9980   77.4570   56.8010 C   0  0  0  0  0  0  0  0  0  0  0  0
   35.9230   76.9890   57.2100 O   0  0  0  0  0  0  0  0  0  0  0  0
   37.0270   78.3630   55.5980 C   0  0  1  0  0  0  0  0  0  0  0  0
   37.3180   79.8010   55.9560 C   0  0  0  0  0  0  0  0  0  0  0  0
   38.2670   78.9880   55.1950 C   0  0  2  0  0  0  0  0  0  0  0  0
   36.0450   78.2740   55.0510 H   0  0  0  0  0  0  0  0  0  0  0  0
   37.5790   80.0490   56.9970 H   0  0  0  0  0  0  0  0  0  0  0  0
   36.7490   80.5710   55.4360 H   0  0  0  0  0  0  0  0  0  0  0  0
   39.1970   78.5840   55.6860 H   0  0  0  0  0  0  0  0  0  0  0  0
   38.5400   79.3970   53.8340 N   0  0  0  0  0  0  0  0  0  0  0  0
   37.4260   79.3870   53.0440 C   0  0  0  0  0  3  0  0  0  0  0  0
   37.4860   79.7470   51.7130 C   0  0  0  0  0  3  0  0  0  0  0  0
   38.7190   80.1170   51.2160 C   0  0  0  0  0  0  0  0  0  0  0  0
   38.7930   80.4900   49.8460 N   0  0  0  0  0  0  0  0  0  0  0  0
   39.8040   80.1200   52.0110 N   0  0  0  0  0  0  0  0  0  0  0  0
   39.7200   79.7620   53.3170 C   0  0  0  0  0  0  0  0  0  0  0  0
   40.6730   79.7390   54.1150 O   0  0  0  0  0  0  0  0  0  0  0  0
   38.2180   81.3300   49.6190 H   0  0  0  0  0  0  0  0  0  0  0  0
   39.3270   80.0600   49.0430 H   0  0  0  0  0  0  0  0  0  0  0  0
  1 12  1  0  0  0  0
  2  1  1  0  0  0  0
  2  7  1  0  0  0  0
  3  2  2  0  0  0  0
  4  5  2  0  0  0  0
  4  3  1  0  0  0  0
  5  6  1  0  0  0  0
  6  1  2  0  0  0  0
  8  3  1  0  0  0  0
  9 10  2  0  0  0  0
  9 20  1  0  0  0  0
 10 14  1  0  0  0  0
 11 15  1  0  0  0  0
 11 10  1  0  0  0  0
 12 11  2  0  0  0  0
 13 12  1  0  0  0  0
 13  9  1  0  0  0  0
 16 17  1  0  0  0  0
 17 18  2  0  0  0  0
 17 23  1  0  0  0  0
 18 24  1  0  0  0  0
 19 18  1  0  0  0  0
 20 19  2  0  0  0  0
 21 20  1  0  0  0  0
 21 16  2  0  0  0  0
 22 16  1  0  0  0  0
 25 26  2  0  0  0  0
 25  5  1  0  0  0  0
 27 30  1  6  0  0  0
 27 28  1  0  0  0  0
 27 25  1  0  0  0  0
 28 31  1  0  0  0  0
 29 27  1  0  0  0  0
 29 33  1  1  0  0  0
 29 28  1  0  0  0  0
 32 28  1  0  0  0  0
 34 29  1  0  0  0  0
 35 34  1  0  0  0  0
 36 35  2  0  0  0  0
 37 36  1  0  0  0  0
 37 39  2  0  0  0  0
 38 37  1  0  0  0  0
 39 40  1  0  0  0  0
 40 34  1  0  0  0  0
 40 41  2  0  0  0  0
 42 38  1  0  0  0  0
 43 38  1  0  0  0  0
M  END
>  <minimizedAffinity>
-6.67488337

>  <minimizedRMSD>
0.623822689

$$$$
