
 OpenBabel03212520583D

 43 47  0  0  1  0  0  0  0  0999 V2000
   39.6910   76.8670   59.4080 C   0  0  0  0  0  0  0  0  0  0  0  0
   40.3100   75.6620   59.3350 C   0  0  0  0  0  0  0  0  0  0  0  0
   39.7980   74.8590   58.3040 C   0  0  0  0  0  0  0  0  0  0  0  0
   38.8030   75.2340   57.4750 N   0  0  0  0  0  0  0  0  0  0  0  0
   38.2500   76.4720   57.6390 C   0  0  0  0  0  0  0  0  0  0  0  0
   38.7030   77.2900   58.6150 N   0  0  0  0  0  0  0  0  0  0  0  0
   41.1080   75.3100   59.9690 H   0  0  0  0  0  0  0  0  0  0  0  0
   40.1980   73.8580   58.1220 H   0  0  0  0  0  0  0  0  0  0  0  0
   40.8830   80.0270   61.6950 C   0  0  0  0  0  0  0  0  0  0  0  0
   40.7570   78.8730   62.4370 C   0  0  0  0  0  0  0  0  0  0  0  0
   40.3650   77.7560   61.7810 C   0  0  0  0  0  0  0  0  0  0  0  0
   40.1130   77.8090   60.4270 C   0  0  0  0  0  0  0  0  0  0  0  0
   40.4430   79.5660   59.9950 S   0  0  0  0  0  0  0  0  0  0  0  0
   40.9570   78.8350   63.5040 H   0  0  0  0  0  0  0  0  0  0  0  0
   40.2090   76.7620   62.1780 H   0  0  0  0  0  0  0  0  0  0  0  0
   43.0160   82.8740   62.5940 C   0  0  0  0  0  0  0  0  0  0  0  0
   42.1280   83.7290   63.2990 C   0  0  0  0  0  0  0  0  0  0  0  0
   40.7910   83.3200   63.4580 C   0  0  0  0  0  0  0  0  0  0  0  0
   40.4150   82.1330   62.9330 N   0  0  0  0  0  0  0  0  0  0  0  0
   41.3000   81.3390   62.2620 C   0  0  0  0  0  0  0  0  0  0  0  0
   42.5680   81.7150   62.1040 N   0  0  0  0  0  0  0  0  0  0  0  0
   44.0430   83.1510   62.4520 H   0  0  0  0  0  0  0  0  0  0  0  0
   42.4750   84.6740   63.7040 H   0  0  0  0  0  0  0  0  0  0  0  0
   40.0820   83.9400   63.9870 H   0  0  0  0  0  0  0  0  0  0  0  0
   37.1870   76.8570   56.7290 C   0  0  0  0  0  0  0  0  0  0  0  0
   36.1310   77.2710   57.2330 O   0  0  0  0  0  0  0  0  0  0  0  0
   37.3310   76.7580   55.2330 C   0  0  1  0  0  0  0  0  0  0  0  0
   37.0210   78.0580   54.5290 C   0  0  0  0  0  0  0  0  0  0  0  0
   38.3730   77.4990   54.5580 C   0  0  2  0  0  0  0  0  0  0  0  0
   36.6670   75.9270   54.8580 H   0  0  0  0  0  0  0  0  0  0  0  0
   36.8290   78.9580   55.1320 H   0  0  0  0  0  0  0  0  0  0  0  0
   36.4480   78.0010   53.6040 H   0  0  0  0  0  0  0  0  0  0  0  0
   39.1630   77.9450   55.2250 H   0  0  0  0  0  0  0  0  0  0  0  0
   38.9420   77.0870   53.2930 N   0  0  0  0  0  0  0  0  0  0  0  0
   38.9560   75.7310   53.1330 C   0  0  0  0  0  3  0  0  0  0  0  0
   39.4600   75.1470   51.9880 C   0  0  0  0  0  3  0  0  0  0  0  0
   39.9500   75.9930   51.0140 C   0  0  0  0  0  0  0  0  0  0  0  0
   40.4730   75.4020   49.8300 N   0  0  0  0  0  0  0  0  0  0  0  0
   39.9280   77.3260   51.1910 N   0  0  0  0  0  0  0  0  0  0  0  0
   39.4260   77.8770   52.3250 C   0  0  0  0  0  0  0  0  0  0  0  0
   39.3690   79.0960   52.5640 O   0  0  0  0  0  0  0  0  0  0  0  0
   39.7600   74.8600   49.2950 H   0  0  0  0  0  0  0  0  0  0  0  0
   41.4440   75.4280   49.4190 H   0  0  0  0  0  0  0  0  0  0  0  0
  1 12  1  0  0  0  0
  2  1  1  0  0  0  0
  2  7  1  0  0  0  0
  3  2  2  0  0  0  0
  4  5  2  0  0  0  0
  4  3  1  0  0  0  0
  5  6  1  0  0  0  0
  6  1  2  0  0  0  0
  8  3  1  0  0  0  0
  9 20  1  0  0  0  0
  9 10  2  0  0  0  0
 10 14  1  0  0  0  0
 11 15  1  0  0  0  0
 11 10  1  0  0  0  0
 12 11  2  0  0  0  0
 13 12  1  0  0  0  0
 13  9  1  0  0  0  0
 16 17  1  0  0  0  0
 17 18  2  0  0  0  0
 17 23  1  0  0  0  0
 18 24  1  0  0  0  0
 19 18  1  0  0  0  0
 20 19  2  0  0  0  0
 21 20  1  0  0  0  0
 21 16  2  0  0  0  0
 22 16  1  0  0  0  0
 25 26  2  0  0  0  0
 25  5  1  0  0  0  0
 27 30  1  6  0  0  0
 27 25  1  0  0  0  0
 28 29  1  0  0  0  0
 28 31  1  0  0  0  0
 28 27  1  0  0  0  0
 29 33  1  1  0  0  0
 29 27  1  0  0  0  0
 32 28  1  0  0  0  0
 34 29  1  0  0  0  0
 35 34  1  0  0  0  0
 36 35  2  0  0  0  0
 37 39  2  0  0  0  0
 37 36  1  0  0  0  0
 38 37  1  0  0  0  0
 39 40  1  0  0  0  0
 40 41  2  0  0  0  0
 40 34  1  0  0  0  0
 42 38  1  0  0  0  0
 43 38  1  0  0  0  0
M  END
>  <minimizedAffinity>
-6.60043955

>  <minimizedRMSD>
2.05927277

$$$$
