
 OpenBabel03212520593D

 43 47  0  0  1  0  0  0  0  0999 V2000
   39.7130   77.2080   59.1440 C   0  0  0  0  0  0  0  0  0  0  0  0
   40.4210   76.0920   58.8360 C   0  0  0  0  0  0  0  0  0  0  0  0
   39.8490   75.3710   57.7750 C   0  0  0  0  0  0  0  0  0  0  0  0
   38.7240   75.7390   57.1300 N   0  0  0  0  0  0  0  0  0  0  0  0
   38.0910   76.8830   57.5240 C   0  0  0  0  0  0  0  0  0  0  0  0
   38.5960   77.6180   58.5390 N   0  0  0  0  0  0  0  0  0  0  0  0
   41.3240   75.7510   59.3160 H   0  0  0  0  0  0  0  0  0  0  0  0
   40.3080   74.4470   57.4150 H   0  0  0  0  0  0  0  0  0  0  0  0
   40.9760   80.1650   61.6530 C   0  0  0  0  0  0  0  0  0  0  0  0
   40.9460   78.9370   62.2780 C   0  0  0  0  0  0  0  0  0  0  0  0
   40.5420   77.8780   61.5400 C   0  0  0  0  0  0  0  0  0  0  0  0
   40.1830   78.0580   60.2210 C   0  0  0  0  0  0  0  0  0  0  0  0
   40.4200   79.8620   59.9520 S   0  0  0  0  0  0  0  0  0  0  0  0
   41.2300   78.8000   63.3180 H   0  0  0  0  0  0  0  0  0  0  0  0
   40.4500   76.8430   61.8410 H   0  0  0  0  0  0  0  0  0  0  0  0
   43.1040   82.9440   62.7570 C   0  0  0  0  0  0  0  0  0  0  0  0
   42.2200   83.7300   63.5420 C   0  0  0  0  0  0  0  0  0  0  0  0
   40.8880   83.3000   63.6850 C   0  0  0  0  0  0  0  0  0  0  0  0
   40.5120   82.1580   63.0670 N   0  0  0  0  0  0  0  0  0  0  0  0
   41.3930   81.4290   62.3210 C   0  0  0  0  0  0  0  0  0  0  0  0
   42.6560   81.8260   62.1780 N   0  0  0  0  0  0  0  0  0  0  0  0
   44.1260   83.2390   62.6250 H   0  0  0  0  0  0  0  0  0  0  0  0
   42.5660   84.6410   64.0190 H   0  0  0  0  0  0  0  0  0  0  0  0
   40.1820   83.8680   64.2730 H   0  0  0  0  0  0  0  0  0  0  0  0
   36.8870   77.2630   56.8090 C   0  0  0  0  0  0  0  0  0  0  0  0
   35.8000   77.0110   57.3530 O   0  0  0  0  0  0  0  0  0  0  0  0
   36.9270   77.9260   55.4560 C   0  0  1  0  0  0  0  0  0  0  0  0
   37.3150   79.3840   55.5320 C   0  0  0  0  0  0  0  0  0  0  0  0
   38.1880   78.3850   54.9160 C   0  0  2  0  0  0  0  0  0  0  0  0
   35.9240   77.8000   54.9590 H   0  0  0  0  0  0  0  0  0  0  0  0
   37.6250   79.8040   56.5020 H   0  0  0  0  0  0  0  0  0  0  0  0
   36.7740   80.0790   54.8900 H   0  0  0  0  0  0  0  0  0  0  0  0
   39.1090   78.0200   55.4520 H   0  0  0  0  0  0  0  0  0  0  0  0
   38.4380   78.5150   53.4970 N   0  0  0  0  0  0  0  0  0  0  0  0
   37.7190   79.5250   52.9230 C   0  0  0  0  0  3  0  0  0  0  0  0
   37.8230   79.8050   51.5750 C   0  0  0  0  0  3  0  0  0  0  0  0
   38.6840   79.0210   50.8340 C   0  0  0  0  0  0  0  0  0  0  0  0
   38.8000   79.2990   49.4440 N   0  0  0  0  0  0  0  0  0  0  0  0
   39.3830   78.0310   51.4190 N   0  0  0  0  0  0  0  0  0  0  0  0
   39.2640   77.7750   52.7460 C   0  0  0  0  0  0  0  0  0  0  0  0
   39.8730   76.8820   53.3610 O   0  0  0  0  0  0  0  0  0  0  0  0
   39.1690   80.2550   49.2480 H   0  0  0  0  0  0  0  0  0  0  0  0
   38.5760   78.7040   48.6020 H   0  0  0  0  0  0  0  0  0  0  0  0
  1 12  1  0  0  0  0
  2  1  1  0  0  0  0
  2  7  1  0  0  0  0
  3  2  2  0  0  0  0
  4  5  2  0  0  0  0
  4  3  1  0  0  0  0
  5  6  1  0  0  0  0
  6  1  2  0  0  0  0
  8  3  1  0  0  0  0
  9 10  2  0  0  0  0
  9 20  1  0  0  0  0
 10 14  1  0  0  0  0
 11 15  1  0  0  0  0
 11 10  1  0  0  0  0
 12 11  2  0  0  0  0
 13 12  1  0  0  0  0
 13  9  1  0  0  0  0
 16 17  1  0  0  0  0
 17 18  2  0  0  0  0
 17 23  1  0  0  0  0
 18 24  1  0  0  0  0
 19 18  1  0  0  0  0
 20 19  2  0  0  0  0
 21 20  1  0  0  0  0
 21 16  2  0  0  0  0
 22 16  1  0  0  0  0
 25 26  2  0  0  0  0
 25  5  1  0  0  0  0
 27 30  1  6  0  0  0
 27 28  1  0  0  0  0
 27 25  1  0  0  0  0
 28 31  1  0  0  0  0
 29 33  1  1  0  0  0
 29 27  1  0  0  0  0
 29 28  1  0  0  0  0
 32 28  1  0  0  0  0
 34 29  1  0  0  0  0
 35 34  1  0  0  0  0
 36 35  2  0  0  0  0
 37 39  2  0  0  0  0
 37 36  1  0  0  0  0
 38 37  1  0  0  0  0
 39 40  1  0  0  0  0
 40 41  2  0  0  0  0
 40 34  1  0  0  0  0
 42 38  1  0  0  0  0
 43 38  1  0  0  0  0
M  END
>  <minimizedAffinity>
-6.54517269

>  <minimizedRMSD>
1.00400257

$$$$
