
 OpenBabel03212520583D

 43 47  0  0  1  0  0  0  0  0999 V2000
   39.6960   77.1330   59.4150 C   0  0  0  0  0  0  0  0  0  0  0  0
   40.2820   75.9180   59.2690 C   0  0  0  0  0  0  0  0  0  0  0  0
   39.7080   75.1680   58.2300 C   0  0  0  0  0  0  0  0  0  0  0  0
   38.6900   75.5990   57.4590 N   0  0  0  0  0  0  0  0  0  0  0  0
   38.1730   76.8410   57.6950 C   0  0  0  0  0  0  0  0  0  0  0  0
   38.6860   77.6090   58.6820 N   0  0  0  0  0  0  0  0  0  0  0  0
   41.0970   75.5230   59.8550 H   0  0  0  0  0  0  0  0  0  0  0  0
   40.0760   74.1670   57.9930 H   0  0  0  0  0  0  0  0  0  0  0  0
   40.9800   80.1880   61.7930 C   0  0  0  0  0  0  0  0  0  0  0  0
   40.9950   78.9790   62.4540 C   0  0  0  0  0  0  0  0  0  0  0  0
   40.5880   77.8910   61.7620 C   0  0  0  0  0  0  0  0  0  0  0  0
   40.1830   78.0240   60.4500 C   0  0  0  0  0  0  0  0  0  0  0  0
   40.3750   79.8230   60.1200 S   0  0  0  0  0  0  0  0  0  0  0  0
   41.3150   78.8790   63.4880 H   0  0  0  0  0  0  0  0  0  0  0  0
   40.5260   76.8640   62.0960 H   0  0  0  0  0  0  0  0  0  0  0  0
   43.0900   83.0340   62.7500 C   0  0  0  0  0  0  0  0  0  0  0  0
   42.2140   83.8310   63.5340 C   0  0  0  0  0  0  0  0  0  0  0  0
   40.8940   83.3850   63.7260 C   0  0  0  0  0  0  0  0  0  0  0  0
   40.5210   82.2170   63.1550 N   0  0  0  0  0  0  0  0  0  0  0  0
   41.3940   81.4790   62.4090 C   0  0  0  0  0  0  0  0  0  0  0  0
   42.6460   81.8910   62.2190 N   0  0  0  0  0  0  0  0  0  0  0  0
   44.1040   83.3400   62.5820 H   0  0  0  0  0  0  0  0  0  0  0  0
   42.5580   84.7620   63.9720 H   0  0  0  0  0  0  0  0  0  0  0  0
   40.1940   83.9600   64.3140 H   0  0  0  0  0  0  0  0  0  0  0  0
   37.0840   77.2860   56.8460 C   0  0  0  0  0  0  0  0  0  0  0  0
   35.9350   76.9530   57.1770 O   0  0  0  0  0  0  0  0  0  0  0  0
   37.3120   78.1090   55.6050 C   0  0  1  0  0  0  0  0  0  0  0  0
   37.3370   79.5930   55.8860 C   0  0  0  0  0  0  0  0  0  0  0  0
   38.5340   78.8690   55.4580 C   0  0  2  0  0  0  0  0  0  0  0  0
   36.5160   77.8550   54.8480 H   0  0  0  0  0  0  0  0  0  0  0  0
   37.2970   79.9400   56.9300 H   0  0  0  0  0  0  0  0  0  0  0  0
   36.8340   80.2460   55.1730 H   0  0  0  0  0  0  0  0  0  0  0  0
   39.3500   78.6250   56.1960 H   0  0  0  0  0  0  0  0  0  0  0  0
   39.0930   79.2230   54.1720 N   0  0  0  0  0  0  0  0  0  0  0  0
   40.2780   78.5930   53.9160 C   0  0  0  0  0  3  0  0  0  0  0  0
   40.9640   78.8050   52.7370 C   0  0  0  0  0  3  0  0  0  0  0  0
   40.4010   79.6790   51.8300 C   0  0  0  0  0  0  0  0  0  0  0  0
   41.0990   79.9040   50.6110 N   0  0  0  0  0  0  0  0  0  0  0  0
   39.2340   80.2880   52.1000 N   0  0  0  0  0  0  0  0  0  0  0  0
   38.5770   80.0650   53.2670 C   0  0  0  0  0  0  0  0  0  0  0  0
   37.4970   80.5880   53.5920 O   0  0  0  0  0  0  0  0  0  0  0  0
   41.2020   79.0420   50.0320 H   0  0  0  0  0  0  0  0  0  0  0  0
   41.5200   80.7860   50.2110 H   0  0  0  0  0  0  0  0  0  0  0  0
  1 12  1  0  0  0  0
  2  1  1  0  0  0  0
  2  7  1  0  0  0  0
  3  2  2  0  0  0  0
  4  5  2  0  0  0  0
  4  3  1  0  0  0  0
  5  6  1  0  0  0  0
  6  1  2  0  0  0  0
  8  3  1  0  0  0  0
  9 20  1  0  0  0  0
  9 10  2  0  0  0  0
 10 14  1  0  0  0  0
 11 15  1  0  0  0  0
 11 10  1  0  0  0  0
 12 11  2  0  0  0  0
 13 12  1  0  0  0  0
 13  9  1  0  0  0  0
 16 17  1  0  0  0  0
 17 18  2  0  0  0  0
 17 23  1  0  0  0  0
 18 24  1  0  0  0  0
 19 18  1  0  0  0  0
 20 19  2  0  0  0  0
 21 20  1  0  0  0  0
 21 16  2  0  0  0  0
 22 16  1  0  0  0  0
 25 26  2  0  0  0  0
 25  5  1  0  0  0  0
 27 30  1  6  0  0  0
 27 28  1  0  0  0  0
 27 25  1  0  0  0  0
 28 31  1  0  0  0  0
 29 27  1  0  0  0  0
 29 28  1  0  0  0  0
 29 33  1  1  0  0  0
 32 28  1  0  0  0  0
 34 29  1  0  0  0  0
 35 34  1  0  0  0  0
 36 35  2  0  0  0  0
 37 39  2  0  0  0  0
 37 36  1  0  0  0  0
 38 37  1  0  0  0  0
 39 40  1  0  0  0  0
 40 41  2  0  0  0  0
 40 34  1  0  0  0  0
 42 38  1  0  0  0  0
 43 38  1  0  0  0  0
M  END
>  <minimizedAffinity>
-6.45705652

>  <minimizedRMSD>
0.383624107

$$$$
