
 OpenBabel03212521013D

 43 47  0  0  1  0  0  0  0  0999 V2000
   42.2780   73.7000   60.4270 C   0  0  0  0  0  0  0  0  0  0  0  0
   43.4300   73.9340   59.7510 C   0  0  0  0  0  0  0  0  0  0  0  0
   43.4090   75.1590   59.0650 C   0  0  0  0  0  0  0  0  0  0  0  0
   42.3660   76.0130   59.0720 N   0  0  0  0  0  0  0  0  0  0  0  0
   41.2520   75.6760   59.7880 C   0  0  0  0  0  0  0  0  0  0  0  0
   41.2160   74.5090   60.4690 N   0  0  0  0  0  0  0  0  0  0  0  0
   44.2940   73.2890   59.7100 H   0  0  0  0  0  0  0  0  0  0  0  0
   44.2690   75.4850   58.4740 H   0  0  0  0  0  0  0  0  0  0  0  0
   41.9420   69.9020   61.8750 C   0  0  0  0  0  0  0  0  0  0  0  0
   41.9440   70.8400   62.8840 C   0  0  0  0  0  0  0  0  0  0  0  0
   42.0510   72.1380   62.5210 C   0  0  0  0  0  0  0  0  0  0  0  0
   42.1510   72.4710   61.1870 C   0  0  0  0  0  0  0  0  0  0  0  0
   42.0940   70.8450   60.3310 S   0  0  0  0  0  0  0  0  0  0  0  0
   41.8650   70.5730   63.9350 H   0  0  0  0  0  0  0  0  0  0  0  0
   42.0710   73.0160   63.1540 H   0  0  0  0  0  0  0  0  0  0  0  0
   41.1800   66.7150   63.5260 C   0  0  0  0  0  0  0  0  0  0  0  0
   41.6300   65.7520   62.5850 C   0  0  0  0  0  0  0  0  0  0  0  0
   42.1920   66.2070   61.3780 C   0  0  0  0  0  0  0  0  0  0  0  0
   42.2780   67.5400   61.1720 N   0  0  0  0  0  0  0  0  0  0  0  0
   41.8340   68.4340   62.1030 C   0  0  0  0  0  0  0  0  0  0  0  0
   41.2990   68.0160   63.2490 N   0  0  0  0  0  0  0  0  0  0  0  0
   40.7460   66.4070   64.4570 H   0  0  0  0  0  0  0  0  0  0  0  0
   41.5400   64.6900   62.7940 H   0  0  0  0  0  0  0  0  0  0  0  0
   42.5470   65.5090   60.6340 H   0  0  0  0  0  0  0  0  0  0  0  0
   40.1460   76.6150   59.7880 C   0  0  0  0  0  0  0  0  0  0  0  0
   40.0550   77.3840   60.7580 O   0  0  0  0  0  0  0  0  0  0  0  0
   39.1310   76.6660   58.6760 C   0  0  1  0  0  0  0  0  0  0  0  0
   39.2360   77.9240   57.8480 C   0  0  0  0  0  0  0  0  0  0  0  0
   39.5680   76.6100   57.2990 C   0  0  2  0  0  0  0  0  0  0  0  0
   38.1000   76.5580   59.1190 H   0  0  0  0  0  0  0  0  0  0  0  0
   40.0660   78.6220   58.0390 H   0  0  0  0  0  0  0  0  0  0  0  0
   38.3050   78.4020   57.5440 H   0  0  0  0  0  0  0  0  0  0  0  0
   40.6430   76.3100   57.1400 H   0  0  0  0  0  0  0  0  0  0  0  0
   38.7330   76.1160   56.2250 N   0  0  0  0  0  0  0  0  0  0  0  0
   37.5310   76.7590   56.1470 C   0  0  0  0  0  3  0  0  0  0  0  0
   36.5990   76.4260   55.1870 C   0  0  0  0  0  3  0  0  0  0  0  0
   36.9330   75.4150   54.3090 C   0  0  0  0  0  0  0  0  0  0  0  0
   35.9800   75.0640   53.3130 N   0  0  0  0  0  0  0  0  0  0  0  0
   38.1220   74.7940   54.4020 N   0  0  0  0  0  0  0  0  0  0  0  0
   39.0230   75.1400   55.3560 C   0  0  0  0  0  0  0  0  0  0  0  0
   40.1400   74.6150   55.5080 O   0  0  0  0  0  0  0  0  0  0  0  0
   35.7650   75.8460   52.6570 H   0  0  0  0  0  0  0  0  0  0  0  0
   35.4680   74.1570   53.1400 H   0  0  0  0  0  0  0  0  0  0  0  0
  1  6  1  0  0  0  0
  1 12  1  0  0  0  0
  2  1  2  0  0  0  0
  3  4  2  0  0  0  0
  3  2  1  0  0  0  0
  4  5  1  0  0  0  0
  5  6  2  0  0  0  0
  7  2  1  0  0  0  0
  8  3  1  0  0  0  0
  9 20  1  0  0  0  0
  9 10  2  0  0  0  0
 10 14  1  0  0  0  0
 11 10  1  0  0  0  0
 11 15  1  0  0  0  0
 12 11  2  0  0  0  0
 13 12  1  0  0  0  0
 13  9  1  0  0  0  0
 16 22  1  0  0  0  0
 17 23  1  0  0  0  0
 17 16  2  0  0  0  0
 18 17  1  0  0  0  0
 19 18  2  0  0  0  0
 19 20  1  0  0  0  0
 20 21  2  0  0  0  0
 21 16  1  0  0  0  0
 24 18  1  0  0  0  0
 25  5  1  0  0  0  0
 25 26  2  0  0  0  0
 27 30  1  1  0  0  0
 27 25  1  0  0  0  0
 28 31  1  0  0  0  0
 28 27  1  0  0  0  0
 29 33  1  6  0  0  0
 29 28  1  0  0  0  0
 29 27  1  0  0  0  0
 32 28  1  0  0  0  0
 34 29  1  0  0  0  0
 35 34  1  0  0  0  0
 36 35  2  0  0  0  0
 37 39  2  0  0  0  0
 37 36  1  0  0  0  0
 38 37  1  0  0  0  0
 39 40  1  0  0  0  0
 40 41  2  0  0  0  0
 40 34  1  0  0  0  0
 42 38  1  0  0  0  0
 43 38  1  0  0  0  0
M  END
>  <minimizedAffinity>
-7.76680851

$$$$

 OpenBabel03212521013D

 43 47  0  0  1  0  0  0  0  0999 V2000
   42.0710   74.4600   59.7370 C   0  0  0  0  0  0  0  0  0  0  0  0
   43.3580   74.5820   59.3300 C   0  0  0  0  0  0  0  0  0  0  0  0
   44.2100   73.6600   59.9580 C   0  0  0  0  0  0  0  0  0  0  0  0
   43.8020   72.7510   60.8660 N   0  0  0  0  0  0  0  0  0  0  0  0
   42.4790   72.7150   61.2050 C   0  0  0  0  0  0  0  0  0  0  0  0
   41.6130   73.5790   60.6310 N   0  0  0  0  0  0  0  0  0  0  0  0
   43.7400   75.2880   58.6080 H   0  0  0  0  0  0  0  0  0  0  0  0
   45.2790   73.6390   59.7300 H   0  0  0  0  0  0  0  0  0  0  0  0
   39.2850   76.4770   57.5450 C   0  0  0  0  0  0  0  0  0  0  0  0
   39.5070   77.0710   58.7680 C   0  0  0  0  0  0  0  0  0  0  0  0
   40.4150   76.4870   59.5840 C   0  0  0  0  0  0  0  0  0  0  0  0
   41.0710   75.3460   59.1730 C   0  0  0  0  0  0  0  0  0  0  0  0
   40.3810   75.0300   57.4980 S   0  0  0  0  0  0  0  0  0  0  0  0
   38.9880   77.9710   59.0880 H   0  0  0  0  0  0  0  0  0  0  0  0
   40.7290   76.7940   60.5720 H   0  0  0  0  0  0  0  0  0  0  0  0
   36.2740   76.7140   55.4610 C   0  0  0  0  0  0  0  0  0  0  0  0
   36.5180   77.8730   54.6780 C   0  0  0  0  0  0  0  0  0  0  0  0
   37.7230   78.5730   54.8750 C   0  0  0  0  0  0  0  0  0  0  0  0
   38.5910   78.1090   55.8020 N   0  0  0  0  0  0  0  0  0  0  0  0
   38.3190   76.9890   56.5350 C   0  0  0  0  0  0  0  0  0  0  0  0
   37.1820   76.3190   56.3580 N   0  0  0  0  0  0  0  0  0  0  0  0
   35.3670   76.1540   55.3400 H   0  0  0  0  0  0  0  0  0  0  0  0
   35.7910   78.2080   53.9450 H   0  0  0  0  0  0  0  0  0  0  0  0
   37.9490   79.4590   54.3010 H   0  0  0  0  0  0  0  0  0  0  0  0
   42.0630   71.7220   62.1770 C   0  0  0  0  0  0  0  0  0  0  0  0
   41.2350   72.0760   63.0320 O   0  0  0  0  0  0  0  0  0  0  0  0
   42.6060   70.3170   62.1780 C   0  0  1  0  0  0  0  0  0  0  0  0
   42.4060   69.6140   63.5000 C   0  0  0  0  0  0  0  0  0  0  0  0
   41.7020   69.1940   62.2890 C   0  0  2  0  0  0  0  0  0  0  0  0
   43.6980   70.3480   61.8990 H   0  0  0  0  0  0  0  0  0  0  0  0
   41.8160   70.1130   64.2850 H   0  0  0  0  0  0  0  0  0  0  0  0
   43.2270   69.0020   63.8710 H   0  0  0  0  0  0  0  0  0  0  0  0
   40.6100   69.4330   62.1490 H   0  0  0  0  0  0  0  0  0  0  0  0
   42.0100   67.8780   61.7720 N   0  0  0  0  0  0  0  0  0  0  0  0
   43.2170   67.8270   61.1360 C   0  0  0  0  0  3  0  0  0  0  0  0
   43.6850   66.6560   60.5750 C   0  0  0  0  0  3  0  0  0  0  0  0
   42.8800   65.5400   60.6850 C   0  0  0  0  0  0  0  0  0  0  0  0
   43.3530   64.3270   60.1120 N   0  0  0  0  0  0  0  0  0  0  0  0
   41.6940   65.6120   61.3160 N   0  0  0  0  0  0  0  0  0  0  0  0
   41.2560   66.7750   61.8590 C   0  0  0  0  0  0  0  0  0  0  0  0
   40.1750   66.9230   62.4550 O   0  0  0  0  0  0  0  0  0  0  0  0
   44.2380   63.9870   60.5450 H   0  0  0  0  0  0  0  0  0  0  0  0
   42.9550   63.7320   59.3350 H   0  0  0  0  0  0  0  0  0  0  0  0
  1  6  1  0  0  0  0
  2  1  2  0  0  0  0
  2  3  1  0  0  0  0
  3  4  2  0  0  0  0
  4  5  1  0  0  0  0
  5 25  1  0  0  0  0
  6  5  2  0  0  0  0
  7  2  1  0  0  0  0
  8  3  1  0  0  0  0
  9 10  2  0  0  0  0
 10 14  1  0  0  0  0
 10 11  1  0  0  0  0
 11 15  1  0  0  0  0
 12 11  2  0  0  0  0
 12  1  1  0  0  0  0
 13  9  1  0  0  0  0
 13 12  1  0  0  0  0
 16 21  1  0  0  0  0
 17 18  1  0  0  0  0
 17 16  2  0  0  0  0
 18 19  2  0  0  0  0
 19 20  1  0  0  0  0
 20  9  1  0  0  0  0
 21 20  2  0  0  0  0
 22 16  1  0  0  0  0
 23 17  1  0  0  0  0
 24 18  1  0  0  0  0
 25 27  1  0  0  0  0
 25 26  2  0  0  0  0
 27 30  1  6  0  0  0
 27 29  1  0  0  0  0
 27 28  1  0  0  0  0
 28 32  1  0  0  0  0
 28 31  1  0  0  0  0
 29 33  1  6  0  0  0
 29 28  1  0  0  0  0
 34 40  1  0  0  0  0
 34 29  1  0  0  0  0
 35 34  1  0  0  0  0
 36 37  1  0  0  0  0
 36 35  2  0  0  0  0
 37 39  2  0  0  0  0
 38 42  1  0  0  0  0
 38 37  1  0  0  0  0
 39 40  1  0  0  0  0
 40 41  2  0  0  0  0
 43 38  1  0  0  0  0
M  END
>  <minimizedAffinity>
-7.05502939

$$$$

 OpenBabel03212521013D

 43 47  0  0  1  0  0  0  0  0999 V2000
   39.1280   76.3760   58.8060 C   0  0  0  0  0  0  0  0  0  0  0  0
   39.6920   77.5800   59.0730 C   0  0  0  0  0  0  0  0  0  0  0  0
   39.3400   78.5580   58.1290 C   0  0  0  0  0  0  0  0  0  0  0  0
   38.5320   78.3350   57.0740 N   0  0  0  0  0  0  0  0  0  0  0  0
   38.0180   77.0810   56.9000 C   0  0  0  0  0  0  0  0  0  0  0  0
   38.3220   76.1000   57.7780 N   0  0  0  0  0  0  0  0  0  0  0  0
   40.3440   77.8160   59.9000 H   0  0  0  0  0  0  0  0  0  0  0  0
   39.7200   79.5800   58.2120 H   0  0  0  0  0  0  0  0  0  0  0  0
   40.5660   73.2160   60.9460 C   0  0  0  0  0  0  0  0  0  0  0  0
   39.3010   73.5810   61.3530 C   0  0  0  0  0  0  0  0  0  0  0  0
   38.7220   74.6210   60.7110 C   0  0  0  0  0  0  0  0  0  0  0  0
   39.3990   75.2650   59.6970 C   0  0  0  0  0  0  0  0  0  0  0  0
   40.9970   74.3600   59.6040 S   0  0  0  0  0  0  0  0  0  0  0  0
   38.7710   73.0710   62.1530 H   0  0  0  0  0  0  0  0  0  0  0  0
   37.7460   75.0570   60.8790 H   0  0  0  0  0  0  0  0  0  0  0  0
   43.0570   70.5440   61.2970 C   0  0  0  0  0  0  0  0  0  0  0  0
   42.7910   70.0280   62.5930 C   0  0  0  0  0  0  0  0  0  0  0  0
   41.7540   70.6090   63.3460 C   0  0  0  0  0  0  0  0  0  0  0  0
   41.0580   71.6310   62.7990 N   0  0  0  0  0  0  0  0  0  0  0  0
   41.3440   72.0980   61.5480 C   0  0  0  0  0  0  0  0  0  0  0  0
   42.3240   71.5570   60.8260 N   0  0  0  0  0  0  0  0  0  0  0  0
   43.8390   70.1270   60.6940 H   0  0  0  0  0  0  0  0  0  0  0  0
   43.3770   69.2060   62.9920 H   0  0  0  0  0  0  0  0  0  0  0  0
   41.5190   70.2490   64.3360 H   0  0  0  0  0  0  0  0  0  0  0  0
   37.1430   76.8670   55.7620 C   0  0  0  0  0  0  0  0  0  0  0  0
   36.1460   77.6000   55.6670 O   0  0  0  0  0  0  0  0  0  0  0  0
   37.4070   75.8000   54.7320 C   0  0  1  0  0  0  0  0  0  0  0  0
   38.0220   76.3480   53.4670 C   0  0  0  0  0  0  0  0  0  0  0  0
   38.7660   75.4690   54.3680 C   0  0  2  0  0  0  0  0  0  0  0  0
   36.4410   75.2610   54.5110 H   0  0  0  0  0  0  0  0  0  0  0  0
   38.3150   77.4090   53.4320 H   0  0  0  0  0  0  0  0  0  0  0  0
   37.6600   75.9480   52.5200 H   0  0  0  0  0  0  0  0  0  0  0  0
   39.5660   75.8850   55.0430 H   0  0  0  0  0  0  0  0  0  0  0  0
   39.1530   74.1730   53.8520 N   0  0  0  0  0  0  0  0  0  0  0  0
   39.2300   74.1450   52.4890 C   0  0  0  0  0  3  0  0  0  0  0  0
   39.5830   72.9960   51.8120 C   0  0  0  0  0  3  0  0  0  0  0  0
   39.8550   71.8760   52.5720 C   0  0  0  0  0  0  0  0  0  0  0  0
   40.2210   70.6860   51.8860 N   0  0  0  0  0  0  0  0  0  0  0  0
   39.7730   71.9250   53.9140 N   0  0  0  0  0  0  0  0  0  0  0  0
   39.4230   73.0670   54.5570 C   0  0  0  0  0  0  0  0  0  0  0  0
   39.3250   73.1930   55.7900 O   0  0  0  0  0  0  0  0  0  0  0  0
   41.1030   70.7830   51.3380 H   0  0  0  0  0  0  0  0  0  0  0  0
   39.7500   69.7420   51.8460 H   0  0  0  0  0  0  0  0  0  0  0  0
  1  2  1  0  0  0  0
  1 12  1  0  0  0  0
  2  7  1  0  0  0  0
  3  8  1  0  0  0  0
  3  2  2  0  0  0  0
  4  3  1  0  0  0  0
  5  4  2  0  0  0  0
  5  6  1  0  0  0  0
  6  1  2  0  0  0  0
  9 10  2  0  0  0  0
  9 20  1  0  0  0  0
 10 14  1  0  0  0  0
 11 15  1  0  0  0  0
 11 10  1  0  0  0  0
 12 11  2  0  0  0  0
 13 12  1  0  0  0  0
 13  9  1  0  0  0  0
 16 17  1  0  0  0  0
 17 23  1  0  0  0  0
 17 18  2  0  0  0  0
 18 24  1  0  0  0  0
 19 18  1  0  0  0  0
 20 19  2  0  0  0  0
 21 16  2  0  0  0  0
 21 20  1  0  0  0  0
 22 16  1  0  0  0  0
 25  5  1  0  0  0  0
 26 25  2  0  0  0  0
 27 30  1  6  0  0  0
 27 25  1  0  0  0  0
 28 29  1  0  0  0  0
 28 27  1  0  0  0  0
 29 27  1  0  0  0  0
 29 33  1  1  0  0  0
 31 28  1  0  0  0  0
 32 28  1  0  0  0  0
 34 29  1  0  0  0  0
 34 40  1  0  0  0  0
 35 34  1  0  0  0  0
 36 35  2  0  0  0  0
 36 37  1  0  0  0  0
 37 39  2  0  0  0  0
 38 37  1  0  0  0  0
 39 40  1  0  0  0  0
 40 41  2  0  0  0  0
 42 38  1  0  0  0  0
 43 38  1  0  0  0  0
M  END
>  <minimizedAffinity>
-7.04049587

$$$$

 OpenBabel03212521013D

 43 47  0  0  1  0  0  0  0  0999 V2000
   40.4800   73.5810   60.9550 C   0  0  0  0  0  0  0  0  0  0  0  0
   39.2100   73.7310   61.4070 C   0  0  0  0  0  0  0  0  0  0  0  0
   38.6190   74.9230   60.9590 C   0  0  0  0  0  0  0  0  0  0  0  0
   39.2360   75.8230   60.1680 N   0  0  0  0  0  0  0  0  0  0  0  0
   40.5190   75.5720   59.7720 C   0  0  0  0  0  0  0  0  0  0  0  0
   41.1390   74.4390   60.1720 N   0  0  0  0  0  0  0  0  0  0  0  0
   38.6670   73.0460   62.0390 H   0  0  0  0  0  0  0  0  0  0  0  0
   37.5950   75.1820   61.2430 H   0  0  0  0  0  0  0  0  0  0  0  0
   42.5510   70.0810   61.2690 C   0  0  0  0  0  0  0  0  0  0  0  0
   42.3800   70.6910   62.4930 C   0  0  0  0  0  0  0  0  0  0  0  0
   41.7050   71.8630   62.5110 C   0  0  0  0  0  0  0  0  0  0  0  0
   41.2210   72.3940   61.3340 C   0  0  0  0  0  0  0  0  0  0  0  0
   41.7400   71.1700   60.0630 S   0  0  0  0  0  0  0  0  0  0  0  0
   42.7620   70.2680   63.4180 H   0  0  0  0  0  0  0  0  0  0  0  0
   41.4670   72.4910   63.3600 H   0  0  0  0  0  0  0  0  0  0  0  0
   43.6640   66.9560   59.7020 C   0  0  0  0  0  0  0  0  0  0  0  0
   44.5480   66.4110   60.6700 C   0  0  0  0  0  0  0  0  0  0  0  0
   44.7620   67.1280   61.8610 C   0  0  0  0  0  0  0  0  0  0  0  0
   44.1140   68.3030   62.0290 N   0  0  0  0  0  0  0  0  0  0  0  0
   43.2700   68.7930   61.0740 C   0  0  0  0  0  0  0  0  0  0  0  0
   43.0610   68.1230   59.9420 N   0  0  0  0  0  0  0  0  0  0  0  0
   43.4760   66.4380   58.7820 H   0  0  0  0  0  0  0  0  0  0  0  0
   45.0470   65.4630   60.4920 H   0  0  0  0  0  0  0  0  0  0  0  0
   45.4270   66.7510   62.6240 H   0  0  0  0  0  0  0  0  0  0  0  0
   41.1590   76.5510   58.9130 C   0  0  0  0  0  0  0  0  0  0  0  0
   42.2960   76.9310   59.2360 O   0  0  0  0  0  0  0  0  0  0  0  0
   40.4900   77.1050   57.6830 C   0  0  1  0  0  0  0  0  0  0  0  0
   40.9910   76.4690   56.4080 C   0  0  0  0  0  0  0  0  0  0  0  0
   39.6260   76.2600   56.8890 C   0  0  2  0  0  0  0  0  0  0  0  0
   40.6360   78.2230   57.6610 H   0  0  0  0  0  0  0  0  0  0  0  0
   41.6910   75.6210   56.4740 H   0  0  0  0  0  0  0  0  0  0  0  0
   41.1540   77.1230   55.5530 H   0  0  0  0  0  0  0  0  0  0  0  0
   39.3290   75.2830   57.3660 H   0  0  0  0  0  0  0  0  0  0  0  0
   38.5530   76.7780   56.0680 N   0  0  0  0  0  0  0  0  0  0  0  0
   38.9730   77.7260   55.1800 C   0  0  0  0  0  3  0  0  0  0  0  0
   38.0940   78.3380   54.3110 C   0  0  0  0  0  3  0  0  0  0  0  0
   36.7710   77.9500   54.3780 C   0  0  0  0  0  0  0  0  0  0  0  0
   35.8550   78.5730   53.4860 N   0  0  0  0  0  0  0  0  0  0  0  0
   36.3760   77.0130   55.2590 N   0  0  0  0  0  0  0  0  0  0  0  0
   37.2610   76.4260   56.1040 C   0  0  0  0  0  0  0  0  0  0  0  0
   36.9770   75.5560   56.9450 O   0  0  0  0  0  0  0  0  0  0  0  0
   36.0730   78.3920   52.4820 H   0  0  0  0  0  0  0  0  0  0  0  0
   35.0090   79.1740   53.6780 H   0  0  0  0  0  0  0  0  0  0  0  0
  1 12  1  0  0  0  0
  1  2  1  0  0  0  0
  2  7  1  0  0  0  0
  3  8  1  0  0  0  0
  3  2  2  0  0  0  0
  4  3  1  0  0  0  0
  5  4  2  0  0  0  0
  5  6  1  0  0  0  0
  6  1  2  0  0  0  0
  9 10  2  0  0  0  0
 10 11  1  0  0  0  0
 10 14  1  0  0  0  0
 11 15  1  0  0  0  0
 12 11  2  0  0  0  0
 13  9  1  0  0  0  0
 13 12  1  0  0  0  0
 16 21  2  0  0  0  0
 16 17  1  0  0  0  0
 17 18  2  0  0  0  0
 18 19  1  0  0  0  0
 18 24  1  0  0  0  0
 20  9  1  0  0  0  0
 20 19  2  0  0  0  0
 21 20  1  0  0  0  0
 22 16  1  0  0  0  0
 23 17  1  0  0  0  0
 25 26  2  0  0  0  0
 25  5  1  0  0  0  0
 27 30  1  6  0  0  0
 27 25  1  0  0  0  0
 28 31  1  0  0  0  0
 28 29  1  0  0  0  0
 28 27  1  0  0  0  0
 29 33  1  1  0  0  0
 29 27  1  0  0  0  0
 32 28  1  0  0  0  0
 34 40  1  0  0  0  0
 34 29  1  0  0  0  0
 35 34  1  0  0  0  0
 36 37  1  0  0  0  0
 36 35  2  0  0  0  0
 37 39  2  0  0  0  0
 38 43  1  0  0  0  0
 38 37  1  0  0  0  0
 39 40  1  0  0  0  0
 40 41  2  0  0  0  0
 42 38  1  0  0  0  0
M  END
>  <minimizedAffinity>
-6.77553272

$$$$

 OpenBabel03212521013D

 43 47  0  0  1  0  0  0  0  0999 V2000
   40.9760   72.3150   59.4430 C   0  0  0  0  0  0  0  0  0  0  0  0
   41.3770   71.8210   60.6400 C   0  0  0  0  0  0  0  0  0  0  0  0
   41.1330   72.7120   61.6970 C   0  0  0  0  0  0  0  0  0  0  0  0
   40.5640   73.9240   61.5480 N   0  0  0  0  0  0  0  0  0  0  0  0
   40.1980   74.3230   60.2940 C   0  0  0  0  0  0  0  0  0  0  0  0
   40.4080   73.5060   59.2380 N   0  0  0  0  0  0  0  0  0  0  0  0
   41.8360   70.8600   60.8180 H   0  0  0  0  0  0  0  0  0  0  0  0
   41.4050   72.4520   62.7230 H   0  0  0  0  0  0  0  0  0  0  0  0
   40.8660   70.3970   55.8450 C   0  0  0  0  0  0  0  0  0  0  0  0
   41.9320   69.9860   56.6160 C   0  0  0  0  0  0  0  0  0  0  0  0
   42.0690   70.5570   57.8350 C   0  0  0  0  0  0  0  0  0  0  0  0
   41.1610   71.5050   58.2540 C   0  0  0  0  0  0  0  0  0  0  0  0
   39.9920   71.6380   56.8410 S   0  0  0  0  0  0  0  0  0  0  0  0
   42.6460   69.2380   56.2810 H   0  0  0  0  0  0  0  0  0  0  0  0
   42.8300   70.3730   58.5820 H   0  0  0  0  0  0  0  0  0  0  0  0
   40.3780   68.0130   53.0980 C   0  0  0  0  0  0  0  0  0  0  0  0
   40.0650   68.8540   51.9980 C   0  0  0  0  0  0  0  0  0  0  0  0
   40.0190   70.2440   52.2090 C   0  0  0  0  0  0  0  0  0  0  0  0
   40.2750   70.7140   53.4500 N   0  0  0  0  0  0  0  0  0  0  0  0
   40.5740   69.8720   54.4830 C   0  0  0  0  0  0  0  0  0  0  0  0
   40.6190   68.5540   54.2960 N   0  0  0  0  0  0  0  0  0  0  0  0
   40.4230   66.9480   52.9770 H   0  0  0  0  0  0  0  0  0  0  0  0
   39.8660   68.4310   51.0180 H   0  0  0  0  0  0  0  0  0  0  0  0
   39.7840   70.9200   51.4000 H   0  0  0  0  0  0  0  0  0  0  0  0
   39.5790   75.6290   60.1600 C   0  0  0  0  0  0  0  0  0  0  0  0
   39.7490   76.4360   61.0880 O   0  0  0  0  0  0  0  0  0  0  0  0
   38.7520   76.0100   58.9600 C   0  0  1  0  0  0  0  0  0  0  0  0
   39.2020   77.3060   58.3280 C   0  0  0  0  0  0  0  0  0  0  0  0
   39.3520   76.0210   57.6440 C   0  0  2  0  0  0  0  0  0  0  0  0
   37.6680   76.0650   59.2670 H   0  0  0  0  0  0  0  0  0  0  0  0
   40.1140   77.7940   58.7030 H   0  0  0  0  0  0  0  0  0  0  0  0
   38.4270   77.9940   57.9920 H   0  0  0  0  0  0  0  0  0  0  0  0
   40.3620   75.5290   57.5660 H   0  0  0  0  0  0  0  0  0  0  0  0
   38.5920   75.8300   56.4280 N   0  0  0  0  0  0  0  0  0  0  0  0
   37.3130   75.4110   56.6610 C   0  0  0  0  0  3  0  0  0  0  0  0
   36.4340   75.1740   55.6240 C   0  0  0  0  0  3  0  0  0  0  0  0
   36.9030   75.3790   54.3420 C   0  0  0  0  0  0  0  0  0  0  0  0
   36.0060   75.1380   53.2650 N   0  0  0  0  0  0  0  0  0  0  0  0
   38.1660   75.7920   54.1340 N   0  0  0  0  0  0  0  0  0  0  0  0
   39.0120   76.0180   55.1710 C   0  0  0  0  0  0  0  0  0  0  0  0
   40.1900   76.4000   55.0620 O   0  0  0  0  0  0  0  0  0  0  0  0
   35.1690   75.7610   53.2820 H   0  0  0  0  0  0  0  0  0  0  0  0
   36.0540   74.4440   52.4710 H   0  0  0  0  0  0  0  0  0  0  0  0
  1  2  1  0  0  0  0
  2  7  1  0  0  0  0
  2  3  2  0  0  0  0
  3  8  1  0  0  0  0
  4  3  1  0  0  0  0
  5  4  2  0  0  0  0
  6  1  2  0  0  0  0
  6  5  1  0  0  0  0
  9 10  2  0  0  0  0
  9 13  1  0  0  0  0
 10 11  1  0  0  0  0
 11 12  2  0  0  0  0
 11 15  1  0  0  0  0
 12  1  1  0  0  0  0
 13 12  1  0  0  0  0
 14 10  1  0  0  0  0
 16 21  1  0  0  0  0
 17 18  1  0  0  0  0
 17 16  2  0  0  0  0
 18 19  2  0  0  0  0
 19 20  1  0  0  0  0
 20  9  1  0  0  0  0
 21 20  2  0  0  0  0
 22 16  1  0  0  0  0
 23 17  1  0  0  0  0
 24 18  1  0  0  0  0
 25  5  1  0  0  0  0
 25 26  2  0  0  0  0
 27 30  1  1  0  0  0
 27 25  1  0  0  0  0
 28 31  1  0  0  0  0
 28 27  1  0  0  0  0
 29 33  1  6  0  0  0
 29 28  1  0  0  0  0
 29 27  1  0  0  0  0
 32 28  1  0  0  0  0
 34 35  1  0  0  0  0
 34 29  1  0  0  0  0
 36 35  2  0  0  0  0
 37 36  1  0  0  0  0
 38 42  1  0  0  0  0
 38 37  1  0  0  0  0
 39 37  2  0  0  0  0
 39 40  1  0  0  0  0
 40 34  1  0  0  0  0
 41 40  2  0  0  0  0
 43 38  1  0  0  0  0
M  END
>  <minimizedAffinity>
-6.69048977

$$$$

 OpenBabel03212521013D

 43 47  0  0  1  0  0  0  0  0999 V2000
   42.1550   69.9940   59.1900 C   0  0  0  0  0  0  0  0  0  0  0  0
   43.1850   69.4250   59.8650 C   0  0  0  0  0  0  0  0  0  0  0  0
   43.3890   70.0110   61.1240 C   0  0  0  0  0  0  0  0  0  0  0  0
   42.6490   71.0250   61.6150 N   0  0  0  0  0  0  0  0  0  0  0  0
   41.6350   71.5230   60.8490 C   0  0  0  0  0  0  0  0  0  0  0  0
   41.3910   70.9980   59.6270 N   0  0  0  0  0  0  0  0  0  0  0  0
   43.8080   68.6140   59.5220 H   0  0  0  0  0  0  0  0  0  0  0  0
   44.1850   69.6570   61.7840 H   0  0  0  0  0  0  0  0  0  0  0  0
   40.9840   69.3030   55.3440 C   0  0  0  0  0  0  0  0  0  0  0  0
   41.4930   68.1690   55.9390 C   0  0  0  0  0  0  0  0  0  0  0  0
   41.9150   68.2800   57.2200 C   0  0  0  0  0  0  0  0  0  0  0  0
   41.8220   69.4920   57.8700 C   0  0  0  0  0  0  0  0  0  0  0  0
   41.0820   70.6040   56.6070 S   0  0  0  0  0  0  0  0  0  0  0  0
   41.5650   67.2160   55.4230 H   0  0  0  0  0  0  0  0  0  0  0  0
   42.3420   67.5160   57.8570 H   0  0  0  0  0  0  0  0  0  0  0  0
   39.7550   70.6690   52.1680 C   0  0  0  0  0  0  0  0  0  0  0  0
   39.5340   69.5060   51.3840 C   0  0  0  0  0  0  0  0  0  0  0  0
   39.8160   68.2510   51.9550 C   0  0  0  0  0  0  0  0  0  0  0  0
   40.2820   68.2110   53.2230 N   0  0  0  0  0  0  0  0  0  0  0  0
   40.4800   69.3530   53.9440 C   0  0  0  0  0  0  0  0  0  0  0  0
   40.2190   70.5470   53.4150 N   0  0  0  0  0  0  0  0  0  0  0  0
   39.5520   71.6430   51.7680 H   0  0  0  0  0  0  0  0  0  0  0  0
   39.1580   69.5860   50.3690 H   0  0  0  0  0  0  0  0  0  0  0  0
   39.6630   67.3400   51.3940 H   0  0  0  0  0  0  0  0  0  0  0  0
   40.8470   72.6090   61.4020 C   0  0  0  0  0  0  0  0  0  0  0  0
   41.2010   73.0640   62.5020 O   0  0  0  0  0  0  0  0  0  0  0  0
   39.6390   73.1700   60.6980 C   0  0  1  0  0  0  0  0  0  0  0  0
   39.2770   74.5570   61.1740 C   0  0  0  0  0  0  0  0  0  0  0  0
   39.7810   74.3120   59.8230 C   0  0  2  0  0  0  0  0  0  0  0  0
   38.7750   72.4580   60.8330 H   0  0  0  0  0  0  0  0  0  0  0  0
   39.9460   75.0690   61.8830 H   0  0  0  0  0  0  0  0  0  0  0  0
   38.2190   74.7790   61.3100 H   0  0  0  0  0  0  0  0  0  0  0  0
   40.8390   74.5860   59.5470 H   0  0  0  0  0  0  0  0  0  0  0  0
   38.8780   74.5830   58.7250 N   0  0  0  0  0  0  0  0  0  0  0  0
   38.3860   73.4460   58.1490 C   0  0  0  0  0  3  0  0  0  0  0  0
   37.5090   73.5010   57.0860 C   0  0  0  0  0  3  0  0  0  0  0  0
   37.1500   74.7530   56.6300 C   0  0  0  0  0  0  0  0  0  0  0  0
   36.2450   74.8220   55.5340 N   0  0  0  0  0  0  0  0  0  0  0  0
   37.6450   75.8610   57.2110 N   0  0  0  0  0  0  0  0  0  0  0  0
   38.5070   75.7810   58.2560 C   0  0  0  0  0  0  0  0  0  0  0  0
   39.0080   76.7540   58.8450 O   0  0  0  0  0  0  0  0  0  0  0  0
   35.3140   74.4040   55.7450 H   0  0  0  0  0  0  0  0  0  0  0  0
   36.3680   75.2220   54.5650 H   0  0  0  0  0  0  0  0  0  0  0  0
  1  6  2  0  0  0  0
  1  2  1  0  0  0  0
  2  3  2  0  0  0  0
  3  4  1  0  0  0  0
  3  8  1  0  0  0  0
  5 25  1  0  0  0  0
  5  4  2  0  0  0  0
  6  5  1  0  0  0  0
  7  2  1  0  0  0  0
  9 10  2  0  0  0  0
  9 13  1  0  0  0  0
 10 11  1  0  0  0  0
 11 15  1  0  0  0  0
 11 12  2  0  0  0  0
 12  1  1  0  0  0  0
 13 12  1  0  0  0  0
 14 10  1  0  0  0  0
 16 21  1  0  0  0  0
 17 18  1  0  0  0  0
 17 16  2  0  0  0  0
 18 19  2  0  0  0  0
 19 20  1  0  0  0  0
 20  9  1  0  0  0  0
 21 20  2  0  0  0  0
 22 16  1  0  0  0  0
 23 17  1  0  0  0  0
 24 18  1  0  0  0  0
 25 26  2  0  0  0  0
 27 30  1  6  0  0  0
 27 28  1  0  0  0  0
 27 25  1  0  0  0  0
 28 32  1  0  0  0  0
 28 31  1  0  0  0  0
 29 33  1  6  0  0  0
 29 27  1  0  0  0  0
 29 28  1  0  0  0  0
 34 29  1  0  0  0  0
 35 34  1  0  0  0  0
 36 35  2  0  0  0  0
 37 36  1  0  0  0  0
 37 39  2  0  0  0  0
 38 42  1  0  0  0  0
 38 37  1  0  0  0  0
 39 40  1  0  0  0  0
 40 34  1  0  0  0  0
 40 41  2  0  0  0  0
 43 38  1  0  0  0  0
M  END
>  <minimizedAffinity>
-6.68796158

$$$$

 OpenBabel03212521013D

 43 47  0  0  1  0  0  0  0  0999 V2000
   41.6830   71.3210   58.9940 C   0  0  0  0  0  0  0  0  0  0  0  0
   42.8550   71.5260   59.6450 C   0  0  0  0  0  0  0  0  0  0  0  0
   42.7930   72.6160   60.5280 C   0  0  0  0  0  0  0  0  0  0  0  0
   41.6960   73.3770   60.7150 N   0  0  0  0  0  0  0  0  0  0  0  0
   40.5680   73.0800   60.0050 C   0  0  0  0  0  0  0  0  0  0  0  0
   40.5680   72.0420   59.1400 N   0  0  0  0  0  0  0  0  0  0  0  0
   43.7610   70.9510   59.5360 H   0  0  0  0  0  0  0  0  0  0  0  0
   43.6630   72.9040   61.1240 H   0  0  0  0  0  0  0  0  0  0  0  0
   41.4260   68.8000   55.7980 C   0  0  0  0  0  0  0  0  0  0  0  0
   41.4610   68.1150   56.9930 C   0  0  0  0  0  0  0  0  0  0  0  0
   41.5470   68.8510   58.1250 C   0  0  0  0  0  0  0  0  0  0  0  0
   41.5930   70.2260   58.0460 C   0  0  0  0  0  0  0  0  0  0  0  0
   41.5120   70.5590   56.2390 S   0  0  0  0  0  0  0  0  0  0  0  0
   41.4240   67.0300   57.0500 H   0  0  0  0  0  0  0  0  0  0  0  0
   41.5860   68.5070   59.1500 H   0  0  0  0  0  0  0  0  0  0  0  0
   40.0820   67.7820   52.5380 C   0  0  0  0  0  0  0  0  0  0  0  0
   41.1060   66.9470   52.0180 C   0  0  0  0  0  0  0  0  0  0  0  0
   42.2620   66.7410   52.7940 C   0  0  0  0  0  0  0  0  0  0  0  0
   42.3430   67.3480   53.9990 N   0  0  0  0  0  0  0  0  0  0  0  0
   41.3360   68.1430   54.4650 C   0  0  0  0  0  0  0  0  0  0  0  0
   40.2370   68.3470   53.7390 N   0  0  0  0  0  0  0  0  0  0  0  0
   39.1870   67.9630   51.9760 H   0  0  0  0  0  0  0  0  0  0  0  0
   40.9980   66.4800   51.0440 H   0  0  0  0  0  0  0  0  0  0  0  0
   43.0650   66.1140   52.4360 H   0  0  0  0  0  0  0  0  0  0  0  0
   39.3970   73.9080   60.2300 C   0  0  0  0  0  0  0  0  0  0  0  0
   39.0870   74.1450   61.4080 O   0  0  0  0  0  0  0  0  0  0  0  0
   38.5700   74.4600   59.0980 C   0  0  1  0  0  0  0  0  0  0  0  0
   38.8220   75.9290   58.8530 C   0  0  0  0  0  0  0  0  0  0  0  0
   39.2170   74.9070   57.8840 C   0  0  2  0  0  0  0  0  0  0  0  0
   37.4810   74.2680   59.3150 H   0  0  0  0  0  0  0  0  0  0  0  0
   39.6230   76.4340   59.4160 H   0  0  0  0  0  0  0  0  0  0  0  0
   37.9580   76.5550   58.6350 H   0  0  0  0  0  0  0  0  0  0  0  0
   40.2980   74.6120   57.7710 H   0  0  0  0  0  0  0  0  0  0  0  0
   38.5540   74.9290   56.5980 N   0  0  0  0  0  0  0  0  0  0  0  0
   37.2950   75.4550   56.6580 C   0  0  0  0  0  3  0  0  0  0  0  0
   36.5050   75.5590   55.5320 C   0  0  0  0  0  3  0  0  0  0  0  0
   37.0410   75.1080   54.3430 C   0  0  0  0  0  0  0  0  0  0  0  0
   36.2350   75.2110   53.1750 N   0  0  0  0  0  0  0  0  0  0  0  0
   38.2830   74.5920   54.3050 N   0  0  0  0  0  0  0  0  0  0  0  0
   39.0410   74.5010   55.4270 C   0  0  0  0  0  0  0  0  0  0  0  0
   40.1940   74.0380   55.4740 O   0  0  0  0  0  0  0  0  0  0  0  0
   35.9900   76.1950   52.9320 H   0  0  0  0  0  0  0  0  0  0  0  0
   35.8570   74.4640   52.5320 H   0  0  0  0  0  0  0  0  0  0  0  0
  1  6  2  0  0  0  0
  1  2  1  0  0  0  0
  2  3  2  0  0  0  0
  3  4  1  0  0  0  0
  3  8  1  0  0  0  0
  5 25  1  0  0  0  0
  5  4  2  0  0  0  0
  6  5  1  0  0  0  0
  7  2  1  0  0  0  0
  9 13  1  0  0  0  0
  9 10  2  0  0  0  0
 10 14  1  0  0  0  0
 10 11  1  0  0  0  0
 11 15  1  0  0  0  0
 12 11  2  0  0  0  0
 12  1  1  0  0  0  0
 13 12  1  0  0  0  0
 16 21  1  0  0  0  0
 17 16  2  0  0  0  0
 17 18  1  0  0  0  0
 18 19  2  0  0  0  0
 19 20  1  0  0  0  0
 20  9  1  0  0  0  0
 21 20  2  0  0  0  0
 22 16  1  0  0  0  0
 23 17  1  0  0  0  0
 24 18  1  0  0  0  0
 25 26  2  0  0  0  0
 27 30  1  6  0  0  0
 27 25  1  0  0  0  0
 28 27  1  0  0  0  0
 28 31  1  0  0  0  0
 29 33  1  6  0  0  0
 29 28  1  0  0  0  0
 29 27  1  0  0  0  0
 32 28  1  0  0  0  0
 34 35  1  0  0  0  0
 34 29  1  0  0  0  0
 36 35  2  0  0  0  0
 37 36  1  0  0  0  0
 38 37  1  0  0  0  0
 39 37  2  0  0  0  0
 39 40  1  0  0  0  0
 40 41  2  0  0  0  0
 40 34  1  0  0  0  0
 42 38  1  0  0  0  0
 43 38  1  0  0  0  0
M  END
>  <minimizedAffinity>
-6.61543512

$$$$

 OpenBabel03212521013D

 43 47  0  0  1  0  0  0  0  0999 V2000
   39.8150   75.3730   59.3390 C   0  0  0  0  0  0  0  0  0  0  0  0
   40.2350   76.6080   59.7110 C   0  0  0  0  0  0  0  0  0  0  0  0
   39.7020   77.6220   58.9000 C   0  0  0  0  0  0  0  0  0  0  0  0
   38.8660   77.4040   57.8660 N   0  0  0  0  0  0  0  0  0  0  0  0
   38.5080   76.1170   57.5780 C   0  0  0  0  0  0  0  0  0  0  0  0
   38.9890   75.0990   58.3250 N   0  0  0  0  0  0  0  0  0  0  0  0
   40.9000   76.8410   60.5280 H   0  0  0  0  0  0  0  0  0  0  0  0
   39.9510   78.6720   59.0790 H   0  0  0  0  0  0  0  0  0  0  0  0
   41.5450   71.9860   60.8120 C   0  0  0  0  0  0  0  0  0  0  0  0
   40.6840   72.5620   61.7200 C   0  0  0  0  0  0  0  0  0  0  0  0
   40.0500   73.6950   61.3390 C   0  0  0  0  0  0  0  0  0  0  0  0
   40.2810   74.2210   60.0860 C   0  0  0  0  0  0  0  0  0  0  0  0
   41.4900   73.0520   59.3430 S   0  0  0  0  0  0  0  0  0  0  0  0
   40.5040   72.1430   62.7070 H   0  0  0  0  0  0  0  0  0  0  0  0
   39.3440   74.2930   61.8990 H   0  0  0  0  0  0  0  0  0  0  0  0
   42.5540   68.8090   62.3460 C   0  0  0  0  0  0  0  0  0  0  0  0
   43.7170   68.4550   61.6110 C   0  0  0  0  0  0  0  0  0  0  0  0
   44.1460   69.3140   60.5830 C   0  0  0  0  0  0  0  0  0  0  0  0
   43.4330   70.4360   60.3430 N   0  0  0  0  0  0  0  0  0  0  0  0
   42.3200   70.7420   61.0730 C   0  0  0  0  0  0  0  0  0  0  0  0
   41.9030   69.9370   62.0480 N   0  0  0  0  0  0  0  0  0  0  0  0
   42.1960   68.1800   63.1370 H   0  0  0  0  0  0  0  0  0  0  0  0
   44.2580   67.5420   61.8390 H   0  0  0  0  0  0  0  0  0  0  0  0
   45.0250   69.0820   59.9990 H   0  0  0  0  0  0  0  0  0  0  0  0
   37.6000   75.9080   56.4650 C   0  0  0  0  0  0  0  0  0  0  0  0
   36.6420   76.6900   56.3590 O   0  0  0  0  0  0  0  0  0  0  0  0
   37.7850   74.7890   55.4740 C   0  0  1  0  0  0  0  0  0  0  0  0
   38.3630   75.2610   54.1610 C   0  0  0  0  0  0  0  0  0  0  0  0
   39.1160   74.3960   55.0680 C   0  0  2  0  0  0  0  0  0  0  0  0
   36.7940   74.2740   55.3170 H   0  0  0  0  0  0  0  0  0  0  0  0
   38.6880   76.3090   54.0670 H   0  0  0  0  0  0  0  0  0  0  0  0
   37.9480   74.8330   53.2490 H   0  0  0  0  0  0  0  0  0  0  0  0
   39.9570   74.8140   55.6910 H   0  0  0  0  0  0  0  0  0  0  0  0
   39.4380   73.0670   54.5950 N   0  0  0  0  0  0  0  0  0  0  0  0
   39.5660   73.0030   53.2370 C   0  0  0  0  0  3  0  0  0  0  0  0
   39.8700   71.8190   52.5990 C   0  0  0  0  0  3  0  0  0  0  0  0
   40.0400   70.7020   53.3920 C   0  0  0  0  0  0  0  0  0  0  0  0
   40.3560   69.4750   52.7450 N   0  0  0  0  0  0  0  0  0  0  0  0
   39.9100   70.7860   54.7280 N   0  0  0  0  0  0  0  0  0  0  0  0
   39.6100   71.9630   55.3330 C   0  0  0  0  0  0  0  0  0  0  0  0
   39.4730   72.1230   56.5580 O   0  0  0  0  0  0  0  0  0  0  0  0
   41.2620   69.5040   52.2310 H   0  0  0  0  0  0  0  0  0  0  0  0
   39.8270   68.5620   52.7050 H   0  0  0  0  0  0  0  0  0  0  0  0
  1  2  1  0  0  0  0
  1 12  1  0  0  0  0
  2  7  1  0  0  0  0
  3  8  1  0  0  0  0
  3  2  2  0  0  0  0
  4  3  1  0  0  0  0
  5  4  2  0  0  0  0
  5  6  1  0  0  0  0
  6  1  2  0  0  0  0
  9 20  1  0  0  0  0
  9 10  2  0  0  0  0
 10 14  1  0  0  0  0
 11 10  1  0  0  0  0
 11 15  1  0  0  0  0
 12 11  2  0  0  0  0
 13 12  1  0  0  0  0
 13  9  1  0  0  0  0
 16 22  1  0  0  0  0
 17 23  1  0  0  0  0
 17 16  2  0  0  0  0
 18 17  1  0  0  0  0
 19 18  2  0  0  0  0
 19 20  1  0  0  0  0
 20 21  2  0  0  0  0
 21 16  1  0  0  0  0
 24 18  1  0  0  0  0
 25  5  1  0  0  0  0
 26 25  2  0  0  0  0
 27 30  1  6  0  0  0
 27 25  1  0  0  0  0
 28 29  1  0  0  0  0
 28 27  1  0  0  0  0
 29 27  1  0  0  0  0
 29 33  1  1  0  0  0
 31 28  1  0  0  0  0
 32 28  1  0  0  0  0
 34 29  1  0  0  0  0
 34 40  1  0  0  0  0
 35 34  1  0  0  0  0
 36 35  2  0  0  0  0
 36 37  1  0  0  0  0
 37 39  2  0  0  0  0
 38 37  1  0  0  0  0
 39 40  1  0  0  0  0
 40 41  2  0  0  0  0
 42 38  1  0  0  0  0
 43 38  1  0  0  0  0
M  END
>  <minimizedAffinity>
-6.49142218

$$$$

 OpenBabel03212521013D

 43 47  0  0  1  0  0  0  0  0999 V2000
   42.1440   74.0560   58.9120 C   0  0  0  0  0  0  0  0  0  0  0  0
   43.0900   74.7090   59.6330 C   0  0  0  0  0  0  0  0  0  0  0  0
   44.1560   73.8730   60.0000 C   0  0  0  0  0  0  0  0  0  0  0  0
   44.2390   72.5670   59.6780 N   0  0  0  0  0  0  0  0  0  0  0  0
   43.2270   72.0090   58.9480 C   0  0  0  0  0  0  0  0  0  0  0  0
   42.1750   72.7670   58.5650 N   0  0  0  0  0  0  0  0  0  0  0  0
   43.0760   75.7490   59.9180 H   0  0  0  0  0  0  0  0  0  0  0  0
   44.9950   74.2590   60.5850 H   0  0  0  0  0  0  0  0  0  0  0  0
   39.2720   76.2180   56.9860 C   0  0  0  0  0  0  0  0  0  0  0  0
   38.8750   75.8480   58.2520 C   0  0  0  0  0  0  0  0  0  0  0  0
   39.7510   75.1240   58.9870 C   0  0  0  0  0  0  0  0  0  0  0  0
   40.9800   74.7910   58.4580 C   0  0  0  0  0  0  0  0  0  0  0  0
   40.9440   75.5420   56.7790 S   0  0  0  0  0  0  0  0  0  0  0  0
   37.9060   76.1120   58.6660 H   0  0  0  0  0  0  0  0  0  0  0  0
   39.6310   74.7400   59.9920 H   0  0  0  0  0  0  0  0  0  0  0  0
   38.3540   78.4980   54.2610 C   0  0  0  0  0  0  0  0  0  0  0  0
   36.9350   78.5050   54.3150 C   0  0  0  0  0  0  0  0  0  0  0  0
   36.2980   77.7180   55.2910 C   0  0  0  0  0  0  0  0  0  0  0  0
   37.0680   76.9910   56.1330 N   0  0  0  0  0  0  0  0  0  0  0  0
   38.4300   77.0120   56.0490 C   0  0  0  0  0  0  0  0  0  0  0  0
   39.0450   77.7530   55.1280 N   0  0  0  0  0  0  0  0  0  0  0  0
   38.8760   79.0850   53.5300 H   0  0  0  0  0  0  0  0  0  0  0  0
   36.3580   79.1050   53.6180 H   0  0  0  0  0  0  0  0  0  0  0  0
   35.2210   77.6930   55.3670 H   0  0  0  0  0  0  0  0  0  0  0  0
   43.3430   70.6040   58.6060 C   0  0  0  0  0  0  0  0  0  0  0  0
   43.7520   70.3290   57.4670 O   0  0  0  0  0  0  0  0  0  0  0  0
   42.9780   69.5060   59.5710 C   0  0  1  0  0  0  0  0  0  0  0  0
   44.1010   69.1690   60.5230 C   0  0  0  0  0  0  0  0  0  0  0  0
   42.8620   69.7960   60.9830 C   0  0  2  0  0  0  0  0  0  0  0  0
   42.6590   68.5980   58.9850 H   0  0  0  0  0  0  0  0  0  0  0  0
   45.0130   69.7860   60.5140 H   0  0  0  0  0  0  0  0  0  0  0  0
   44.2710   68.1150   60.7430 H   0  0  0  0  0  0  0  0  0  0  0  0
   42.8410   70.8890   61.2550 H   0  0  0  0  0  0  0  0  0  0  0  0
   42.0290   69.0270   61.8810 N   0  0  0  0  0  0  0  0  0  0  0  0
   41.5690   67.8700   61.3190 C   0  0  0  0  0  3  0  0  0  0  0  0
   40.7570   67.0030   62.0210 C   0  0  0  0  0  3  0  0  0  0  0  0
   40.4310   67.3540   63.3150 C   0  0  0  0  0  0  0  0  0  0  0  0
   39.5960   66.4670   64.0490 N   0  0  0  0  0  0  0  0  0  0  0  0
   40.8950   68.4980   63.8510 N   0  0  0  0  0  0  0  0  0  0  0  0
   41.6910   69.3350   63.1390 C   0  0  0  0  0  0  0  0  0  0  0  0
   42.1590   70.4070   63.5610 O   0  0  0  0  0  0  0  0  0  0  0  0
   40.0220   65.5260   64.1920 H   0  0  0  0  0  0  0  0  0  0  0  0
   38.6350   66.6100   64.4620 H   0  0  0  0  0  0  0  0  0  0  0  0
  1  2  1  0  0  0  0
  2  7  1  0  0  0  0
  2  3  2  0  0  0  0
  3  8  1  0  0  0  0
  4  3  1  0  0  0  0
  5  4  2  0  0  0  0
  6  1  2  0  0  0  0
  6  5  1  0  0  0  0
  9 10  2  0  0  0  0
 10 14  1  0  0  0  0
 10 11  1  0  0  0  0
 11 15  1  0  0  0  0
 12  1  1  0  0  0  0
 12 11  2  0  0  0  0
 13  9  1  0  0  0  0
 13 12  1  0  0  0  0
 16 17  2  0  0  0  0
 16 21  1  0  0  0  0
 17 18  1  0  0  0  0
 18 24  1  0  0  0  0
 18 19  2  0  0  0  0
 20 19  1  0  0  0  0
 20  9  1  0  0  0  0
 21 20  2  0  0  0  0
 22 16  1  0  0  0  0
 23 17  1  0  0  0  0
 25  5  1  0  0  0  0
 25 27  1  0  0  0  0
 26 25  2  0  0  0  0
 27 30  1  6  0  0  0
 27 28  1  0  0  0  0
 27 29  1  0  0  0  0
 28 32  1  0  0  0  0
 28 29  1  0  0  0  0
 29 33  1  1  0  0  0
 29 34  1  0  0  0  0
 31 28  1  0  0  0  0
 34 40  1  0  0  0  0
 35 34  1  0  0  0  0
 35 36  2  0  0  0  0
 36 37  1  0  0  0  0
 37 39  2  0  0  0  0
 37 38  1  0  0  0  0
 38 42  1  0  0  0  0
 38 43  1  0  0  0  0
 40 41  2  0  0  0  0
 40 39  1  0  0  0  0
M  END
>  <minimizedAffinity>
-6.47556019

$$$$
