
 OpenBabel03212520583D

 43 47  0  0  1  0  0  0  0  0999 V2000
   39.7440   77.2790   59.2290 C   0  0  0  0  0  0  0  0  0  0  0  0
   40.4110   76.1250   58.9730 C   0  0  0  0  0  0  0  0  0  0  0  0
   39.8450   75.4050   57.9090 C   0  0  0  0  0  0  0  0  0  0  0  0
   38.7630   75.8060   57.2140 N   0  0  0  0  0  0  0  0  0  0  0  0
   38.1680   76.9870   57.5570 C   0  0  0  0  0  0  0  0  0  0  0  0
   38.6690   77.7240   58.5730 N   0  0  0  0  0  0  0  0  0  0  0  0
   41.2800   75.7560   59.4940 H   0  0  0  0  0  0  0  0  0  0  0  0
   40.2740   74.4520   57.5870 H   0  0  0  0  0  0  0  0  0  0  0  0
   40.9830   80.2500   61.7330 C   0  0  0  0  0  0  0  0  0  0  0  0
   40.9920   79.0180   62.3510 C   0  0  0  0  0  0  0  0  0  0  0  0
   40.5980   77.9550   61.6140 C   0  0  0  0  0  0  0  0  0  0  0  0
   40.2130   78.1340   60.3020 C   0  0  0  0  0  0  0  0  0  0  0  0
   40.4050   79.9440   60.0400 S   0  0  0  0  0  0  0  0  0  0  0  0
   41.2960   78.8820   63.3850 H   0  0  0  0  0  0  0  0  0  0  0  0
   40.5350   76.9160   61.9100 H   0  0  0  0  0  0  0  0  0  0  0  0
   43.0710   83.0610   62.8300 C   0  0  0  0  0  0  0  0  0  0  0  0
   42.1790   83.8310   63.6220 C   0  0  0  0  0  0  0  0  0  0  0  0
   40.8550   83.3790   63.7720 C   0  0  0  0  0  0  0  0  0  0  0  0
   40.4950   82.2320   63.1540 N   0  0  0  0  0  0  0  0  0  0  0  0
   41.3830   81.5190   62.4010 C   0  0  0  0  0  0  0  0  0  0  0  0
   42.6390   81.9370   62.2510 N   0  0  0  0  0  0  0  0  0  0  0  0
   44.0880   83.3730   62.6930 H   0  0  0  0  0  0  0  0  0  0  0  0
   42.5130   84.7470   64.0990 H   0  0  0  0  0  0  0  0  0  0  0  0
   40.1440   83.9340   64.3650 H   0  0  0  0  0  0  0  0  0  0  0  0
   37.0090   77.4020   56.7890 C   0  0  0  0  0  0  0  0  0  0  0  0
   35.9010   76.9900   57.1660 O   0  0  0  0  0  0  0  0  0  0  0  0
   37.1220   78.2870   55.5750 C   0  0  1  0  0  0  0  0  0  0  0  0
   37.2740   79.7480   55.9290 C   0  0  0  0  0  0  0  0  0  0  0  0
   38.3580   78.9880   55.3060 C   0  0  2  0  0  0  0  0  0  0  0  0
   36.2200   78.1220   54.9190 H   0  0  0  0  0  0  0  0  0  0  0  0
   37.3920   80.0310   56.9860 H   0  0  0  0  0  0  0  0  0  0  0  0
   36.7220   80.4690   55.3270 H   0  0  0  0  0  0  0  0  0  0  0  0
   39.2480   78.6570   55.9120 H   0  0  0  0  0  0  0  0  0  0  0  0
   38.7630   79.3910   53.9760 N   0  0  0  0  0  0  0  0  0  0  0  0
   38.0050   78.8220   52.9950 C   0  0  0  0  0  3  0  0  0  0  0  0
   38.2400   79.0860   51.6610 C   0  0  0  0  0  3  0  0  0  0  0  0
   39.2740   79.9500   51.3620 C   0  0  0  0  0  0  0  0  0  0  0  0
   39.5260   80.2290   49.9910 N   0  0  0  0  0  0  0  0  0  0  0  0
   40.0100   80.5010   52.3440 N   0  0  0  0  0  0  0  0  0  0  0  0
   39.7590   80.2250   53.6500 C   0  0  0  0  0  0  0  0  0  0  0  0
   40.3920   80.6910   54.6130 O   0  0  0  0  0  0  0  0  0  0  0  0
   38.7230   80.6950   49.5140 H   0  0  0  0  0  0  0  0  0  0  0  0
   40.3770   80.0440   49.3950 H   0  0  0  0  0  0  0  0  0  0  0  0
  1 12  1  0  0  0  0
  2  1  1  0  0  0  0
  2  7  1  0  0  0  0
  3  2  2  0  0  0  0
  4  5  2  0  0  0  0
  4  3  1  0  0  0  0
  5  6  1  0  0  0  0
  6  1  2  0  0  0  0
  8  3  1  0  0  0  0
  9 10  2  0  0  0  0
  9 20  1  0  0  0  0
 10 14  1  0  0  0  0
 11 15  1  0  0  0  0
 11 10  1  0  0  0  0
 12 11  2  0  0  0  0
 13 12  1  0  0  0  0
 13  9  1  0  0  0  0
 16 17  1  0  0  0  0
 17 18  2  0  0  0  0
 17 23  1  0  0  0  0
 18 24  1  0  0  0  0
 19 18  1  0  0  0  0
 20 19  2  0  0  0  0
 21 20  1  0  0  0  0
 21 16  2  0  0  0  0
 22 16  1  0  0  0  0
 25 26  2  0  0  0  0
 25  5  1  0  0  0  0
 27 30  1  6  0  0  0
 27 28  1  0  0  0  0
 27 25  1  0  0  0  0
 28 31  1  0  0  0  0
 29 27  1  0  0  0  0
 29 33  1  1  0  0  0
 29 28  1  0  0  0  0
 32 28  1  0  0  0  0
 34 29  1  0  0  0  0
 35 34  1  0  0  0  0
 36 35  2  0  0  0  0
 37 36  1  0  0  0  0
 37 39  2  0  0  0  0
 38 37  1  0  0  0  0
 39 40  1  0  0  0  0
 40 34  1  0  0  0  0
 40 41  2  0  0  0  0
 42 38  1  0  0  0  0
 43 38  1  0  0  0  0
M  END
>  <minimizedAffinity>
-6.7043643

>  <minimizedRMSD>
0.335252285

$$$$
