
 OpenBabel03212520583D

 43 47  0  0  1  0  0  0  0  0999 V2000
   39.7000   77.1310   59.4120 C   0  0  0  0  0  0  0  0  0  0  0  0
   40.2830   75.9150   59.2650 C   0  0  0  0  0  0  0  0  0  0  0  0
   39.7070   75.1660   58.2270 C   0  0  0  0  0  0  0  0  0  0  0  0
   38.6890   75.5980   57.4570 N   0  0  0  0  0  0  0  0  0  0  0  0
   38.1750   76.8420   57.6930 C   0  0  0  0  0  0  0  0  0  0  0  0
   38.6900   77.6090   58.6800 N   0  0  0  0  0  0  0  0  0  0  0  0
   41.0990   75.5190   59.8500 H   0  0  0  0  0  0  0  0  0  0  0  0
   40.0730   74.1640   57.9900 H   0  0  0  0  0  0  0  0  0  0  0  0
   40.9850   80.1850   61.7900 C   0  0  0  0  0  0  0  0  0  0  0  0
   41.0110   78.9740   62.4480 C   0  0  0  0  0  0  0  0  0  0  0  0
   40.6040   77.8860   61.7550 C   0  0  0  0  0  0  0  0  0  0  0  0
   40.1900   78.0210   60.4470 C   0  0  0  0  0  0  0  0  0  0  0  0
   40.3710   79.8220   60.1210 S   0  0  0  0  0  0  0  0  0  0  0  0
   41.3380   78.8720   63.4790 H   0  0  0  0  0  0  0  0  0  0  0  0
   40.5500   76.8570   62.0860 H   0  0  0  0  0  0  0  0  0  0  0  0
   43.0920   83.0300   62.7560 C   0  0  0  0  0  0  0  0  0  0  0  0
   42.2130   83.8280   63.5350 C   0  0  0  0  0  0  0  0  0  0  0  0
   40.8920   83.3830   63.7210 C   0  0  0  0  0  0  0  0  0  0  0  0
   40.5210   82.2150   63.1490 N   0  0  0  0  0  0  0  0  0  0  0  0
   41.3960   81.4760   62.4080 C   0  0  0  0  0  0  0  0  0  0  0  0
   42.6500   81.8870   62.2230 N   0  0  0  0  0  0  0  0  0  0  0  0
   44.1070   83.3360   62.5920 H   0  0  0  0  0  0  0  0  0  0  0  0
   42.5550   84.7600   63.9740 H   0  0  0  0  0  0  0  0  0  0  0  0
   40.1900   83.9590   64.3050 H   0  0  0  0  0  0  0  0  0  0  0  0
   37.0850   77.2880   56.8460 C   0  0  0  0  0  0  0  0  0  0  0  0
   35.9360   76.9580   57.1790 O   0  0  0  0  0  0  0  0  0  0  0  0
   37.3130   78.1100   55.6040 C   0  0  1  0  0  0  0  0  0  0  0  0
   37.3350   79.5940   55.8810 C   0  0  0  0  0  0  0  0  0  0  0  0
   38.5340   78.8710   55.4570 C   0  0  2  0  0  0  0  0  0  0  0  0
   36.5190   77.8520   54.8460 H   0  0  0  0  0  0  0  0  0  0  0  0
   37.2930   79.9430   56.9250 H   0  0  0  0  0  0  0  0  0  0  0  0
   36.8320   80.2440   55.1670 H   0  0  0  0  0  0  0  0  0  0  0  0
   39.3500   78.6300   56.1960 H   0  0  0  0  0  0  0  0  0  0  0  0
   39.0940   79.2240   54.1710 N   0  0  0  0  0  0  0  0  0  0  0  0
   40.2790   78.5950   53.9160 C   0  0  0  0  0  3  0  0  0  0  0  0
   40.9660   78.8040   52.7380 C   0  0  0  0  0  3  0  0  0  0  0  0
   40.4050   79.6780   51.8300 C   0  0  0  0  0  0  0  0  0  0  0  0
   41.1050   79.9030   50.6110 N   0  0  0  0  0  0  0  0  0  0  0  0
   39.2370   80.2880   52.0990 N   0  0  0  0  0  0  0  0  0  0  0  0
   38.5800   80.0660   53.2650 C   0  0  0  0  0  0  0  0  0  0  0  0
   37.4990   80.5880   53.5880 O   0  0  0  0  0  0  0  0  0  0  0  0
   41.2070   79.0390   50.0330 H   0  0  0  0  0  0  0  0  0  0  0  0
   41.5250   80.7830   50.2110 H   0  0  0  0  0  0  0  0  0  0  0  0
  1 12  1  0  0  0  0
  2  1  1  0  0  0  0
  2  7  1  0  0  0  0
  3  2  2  0  0  0  0
  4  5  2  0  0  0  0
  4  3  1  0  0  0  0
  5  6  1  0  0  0  0
  6  1  2  0  0  0  0
  8  3  1  0  0  0  0
  9 20  1  0  0  0  0
  9 10  2  0  0  0  0
 10 14  1  0  0  0  0
 11 15  1  0  0  0  0
 11 10  1  0  0  0  0
 12 11  2  0  0  0  0
 13 12  1  0  0  0  0
 13  9  1  0  0  0  0
 16 17  1  0  0  0  0
 17 18  2  0  0  0  0
 17 23  1  0  0  0  0
 18 24  1  0  0  0  0
 19 18  1  0  0  0  0
 20 19  2  0  0  0  0
 21 20  1  0  0  0  0
 21 16  2  0  0  0  0
 22 16  1  0  0  0  0
 25 26  2  0  0  0  0
 25  5  1  0  0  0  0
 27 30  1  6  0  0  0
 27 28  1  0  0  0  0
 27 25  1  0  0  0  0
 28 31  1  0  0  0  0
 29 27  1  0  0  0  0
 29 28  1  0  0  0  0
 29 33  1  1  0  0  0
 32 28  1  0  0  0  0
 34 29  1  0  0  0  0
 35 34  1  0  0  0  0
 36 35  2  0  0  0  0
 37 39  2  0  0  0  0
 37 36  1  0  0  0  0
 38 37  1  0  0  0  0
 39 40  1  0  0  0  0
 40 41  2  0  0  0  0
 40 34  1  0  0  0  0
 42 38  1  0  0  0  0
 43 38  1  0  0  0  0
M  END
>  <minimizedAffinity>
-6.45860767

>  <minimizedRMSD>
0.417125255

$$$$
