
 OpenBabel03212520583D

 43 47  0  0  1  0  0  0  0  0999 V2000
   39.7450   77.2790   59.2280 C   0  0  0  0  0  0  0  0  0  0  0  0
   40.4120   76.1260   58.9720 C   0  0  0  0  0  0  0  0  0  0  0  0
   39.8470   75.4060   57.9080 C   0  0  0  0  0  0  0  0  0  0  0  0
   38.7640   75.8070   57.2130 N   0  0  0  0  0  0  0  0  0  0  0  0
   38.1690   76.9870   57.5570 C   0  0  0  0  0  0  0  0  0  0  0  0
   38.6690   77.7240   58.5730 N   0  0  0  0  0  0  0  0  0  0  0  0
   41.2810   75.7570   59.4940 H   0  0  0  0  0  0  0  0  0  0  0  0
   40.2760   74.4540   57.5860 H   0  0  0  0  0  0  0  0  0  0  0  0
   40.9830   80.2510   61.7330 C   0  0  0  0  0  0  0  0  0  0  0  0
   40.9910   79.0190   62.3510 C   0  0  0  0  0  0  0  0  0  0  0  0
   40.5970   77.9550   61.6140 C   0  0  0  0  0  0  0  0  0  0  0  0
   40.2130   78.1340   60.3020 C   0  0  0  0  0  0  0  0  0  0  0  0
   40.4060   79.9440   60.0390 S   0  0  0  0  0  0  0  0  0  0  0  0
   41.2940   78.8820   63.3860 H   0  0  0  0  0  0  0  0  0  0  0  0
   40.5330   76.9170   61.9110 H   0  0  0  0  0  0  0  0  0  0  0  0
   43.0710   83.0620   62.8300 C   0  0  0  0  0  0  0  0  0  0  0  0
   42.1790   83.8320   63.6230 C   0  0  0  0  0  0  0  0  0  0  0  0
   40.8550   83.3800   63.7720 C   0  0  0  0  0  0  0  0  0  0  0  0
   40.4950   82.2320   63.1550 N   0  0  0  0  0  0  0  0  0  0  0  0
   41.3830   81.5200   62.4020 C   0  0  0  0  0  0  0  0  0  0  0  0
   42.6390   81.9380   62.2520 N   0  0  0  0  0  0  0  0  0  0  0  0
   44.0880   83.3740   62.6930 H   0  0  0  0  0  0  0  0  0  0  0  0
   42.5130   84.7480   64.1000 H   0  0  0  0  0  0  0  0  0  0  0  0
   40.1440   83.9350   64.3650 H   0  0  0  0  0  0  0  0  0  0  0  0
   37.0100   77.4020   56.7890 C   0  0  0  0  0  0  0  0  0  0  0  0
   35.9010   76.9900   57.1660 O   0  0  0  0  0  0  0  0  0  0  0  0
   37.1220   78.2880   55.5750 C   0  0  1  0  0  0  0  0  0  0  0  0
   37.2750   79.7480   55.9290 C   0  0  0  0  0  0  0  0  0  0  0  0
   38.3580   78.9890   55.3050 C   0  0  2  0  0  0  0  0  0  0  0  0
   36.2190   78.1230   54.9200 H   0  0  0  0  0  0  0  0  0  0  0  0
   37.3930   80.0310   56.9870 H   0  0  0  0  0  0  0  0  0  0  0  0
   36.7220   80.4690   55.3280 H   0  0  0  0  0  0  0  0  0  0  0  0
   39.2480   78.6570   55.9110 H   0  0  0  0  0  0  0  0  0  0  0  0
   38.7630   79.3920   53.9760 N   0  0  0  0  0  0  0  0  0  0  0  0
   38.0040   78.8220   52.9940 C   0  0  0  0  0  3  0  0  0  0  0  0
   38.2390   79.0860   51.6590 C   0  0  0  0  0  3  0  0  0  0  0  0
   39.2740   79.9490   51.3620 C   0  0  0  0  0  0  0  0  0  0  0  0
   39.5260   80.2290   49.9900 N   0  0  0  0  0  0  0  0  0  0  0  0
   40.0090   80.5010   52.3440 N   0  0  0  0  0  0  0  0  0  0  0  0
   39.7590   80.2250   53.6490 C   0  0  0  0  0  0  0  0  0  0  0  0
   40.3920   80.6910   54.6130 O   0  0  0  0  0  0  0  0  0  0  0  0
   38.7230   80.6950   49.5140 H   0  0  0  0  0  0  0  0  0  0  0  0
   40.3770   80.0440   49.3950 H   0  0  0  0  0  0  0  0  0  0  0  0
  1 12  1  0  0  0  0
  2  1  1  0  0  0  0
  2  7  1  0  0  0  0
  3  2  2  0  0  0  0
  4  5  2  0  0  0  0
  4  3  1  0  0  0  0
  5  6  1  0  0  0  0
  6  1  2  0  0  0  0
  8  3  1  0  0  0  0
  9 10  2  0  0  0  0
  9 20  1  0  0  0  0
 10 14  1  0  0  0  0
 11 15  1  0  0  0  0
 11 10  1  0  0  0  0
 12 11  2  0  0  0  0
 13 12  1  0  0  0  0
 13  9  1  0  0  0  0
 16 17  1  0  0  0  0
 17 18  2  0  0  0  0
 17 23  1  0  0  0  0
 18 24  1  0  0  0  0
 19 18  1  0  0  0  0
 20 19  2  0  0  0  0
 21 20  1  0  0  0  0
 21 16  2  0  0  0  0
 22 16  1  0  0  0  0
 25 26  2  0  0  0  0
 25  5  1  0  0  0  0
 27 30  1  6  0  0  0
 27 28  1  0  0  0  0
 27 25  1  0  0  0  0
 28 31  1  0  0  0  0
 29 27  1  0  0  0  0
 29 33  1  1  0  0  0
 29 28  1  0  0  0  0
 32 28  1  0  0  0  0
 34 29  1  0  0  0  0
 35 34  1  0  0  0  0
 36 35  2  0  0  0  0
 37 36  1  0  0  0  0
 37 39  2  0  0  0  0
 38 37  1  0  0  0  0
 39 40  1  0  0  0  0
 40 34  1  0  0  0  0
 40 41  2  0  0  0  0
 42 38  1  0  0  0  0
 43 38  1  0  0  0  0
M  END
>  <minimizedAffinity>
-6.70415878

>  <minimizedRMSD>
0.914418042

$$$$
