
 OpenBabel03212521033D

 22 23  0  0  0  0  0  0  0  0999 V2000
   41.9910   84.1840   61.9070 C   0  0  0  0  0  0  0  0  0  0  0  0
   42.5190   84.4620   63.1500 C   0  0  0  0  0  0  0  0  0  0  0  0
   41.8240   84.2810   64.3160 C   0  0  0  0  0  0  0  0  0  0  0  0
   40.5290   83.7950   64.2440 C   0  0  0  0  0  0  0  0  0  0  0  0
   39.9750   83.5080   63.0030 C   0  0  0  0  0  0  0  0  0  0  0  0
   40.6980   83.7010   61.8510 C   0  0  0  0  0  0  0  0  0  0  0  0
   43.5440   84.8440   63.1680 H   0  0  0  0  0  0  0  0  0  0  0  0
   42.3230   84.5260   65.2230 H   0  0  0  0  0  0  0  0  0  0  0  0
   39.9700   83.6480   65.1570 H   0  0  0  0  0  0  0  0  0  0  0  0
   38.9570   83.1300   63.0050 H   0  0  0  0  0  0  0  0  0  0  0  0
   44.2370   83.6540   59.0560 C   0  0  0  0  0  0  0  0  0  0  0  0
   44.1930   84.8810   58.4060 C   0  0  0  0  0  0  0  0  0  0  0  0
   43.3900   85.8840   58.9500 C   0  0  0  0  0  0  0  0  0  0  0  0
   42.6970   85.6210   60.0770 N   0  0  0  0  0  0  0  0  0  0  0  0
   42.7640   84.3980   60.6970 C   0  0  0  0  0  0  0  0  0  0  0  0
   43.5270   83.4420   60.1800 N   0  0  0  0  0  0  0  0  0  0  0  0
   44.8710   82.8990   58.6070 H   0  0  0  0  0  0  0  0  0  0  0  0
   44.7080   85.1610   57.5180 H   0  0  0  0  0  0  0  0  0  0  0  0
   43.2420   86.8880   58.5750 H   0  0  0  0  0  0  0  0  0  0  0  0
   40.0130   83.3700   60.6300 C   0  0  0  0  0  0  0  0  0  0  0  0
   39.4440   83.8620   59.8650 H   0  0  0  0  0  0  0  0  0  0  0  0
   39.8780   82.2660   60.0530 O   0  0  0  0  0  0  0  0  0  0  0  0
  1  2  1  0  0  0  0
  2  7  1  0  0  0  0
  2  3  2  0  0  0  0
  3  8  1  0  0  0  0
  4  3  1  0  0  0  0
  4  9  1  0  0  0  0
  5 10  1  0  0  0  0
  5  4  2  0  0  0  0
  6  1  2  0  0  0  0
  6  5  1  0  0  0  0
 11 16  1  0  0  0  0
 12 13  1  0  0  0  0
 12 11  2  0  0  0  0
 13 14  2  0  0  0  0
 14 15  1  0  0  0  0
 15  1  1  0  0  0  0
 16 15  2  0  0  0  0
 17 11  1  0  0  0  0
 18 12  1  0  0  0  0
 19 13  1  0  0  0  0
 20  6  1  0  0  0  0
 21 20  1  0  0  0  0
 22 20  2  0  0  0  0
M  END
>  <minimizedAffinity>
-4.28236198

>  <minimizedRMSD>
0.940251946

$$$$
