
 OpenBabel03212521033D

 22 23  0  0  0  0  0  0  0  0999 V2000
   41.9910   84.1850   61.9070 C   0  0  0  0  0  0  0  0  0  0  0  0
   42.5180   84.4630   63.1500 C   0  0  0  0  0  0  0  0  0  0  0  0
   41.8240   84.2820   64.3160 C   0  0  0  0  0  0  0  0  0  0  0  0
   40.5290   83.7960   64.2440 C   0  0  0  0  0  0  0  0  0  0  0  0
   39.9740   83.5090   63.0030 C   0  0  0  0  0  0  0  0  0  0  0  0
   40.6970   83.7010   61.8520 C   0  0  0  0  0  0  0  0  0  0  0  0
   43.5440   84.8450   63.1680 H   0  0  0  0  0  0  0  0  0  0  0  0
   42.3230   84.5280   65.2230 H   0  0  0  0  0  0  0  0  0  0  0  0
   39.9700   83.6490   65.1570 H   0  0  0  0  0  0  0  0  0  0  0  0
   38.9570   83.1310   63.0060 H   0  0  0  0  0  0  0  0  0  0  0  0
   44.2360   83.6550   59.0560 C   0  0  0  0  0  0  0  0  0  0  0  0
   44.1920   84.8820   58.4050 C   0  0  0  0  0  0  0  0  0  0  0  0
   43.3900   85.8850   58.9500 C   0  0  0  0  0  0  0  0  0  0  0  0
   42.6970   85.6230   60.0770 N   0  0  0  0  0  0  0  0  0  0  0  0
   42.7630   84.3990   60.6970 C   0  0  0  0  0  0  0  0  0  0  0  0
   43.5260   83.4430   60.1800 N   0  0  0  0  0  0  0  0  0  0  0  0
   44.8690   82.9000   58.6060 H   0  0  0  0  0  0  0  0  0  0  0  0
   44.7070   85.1620   57.5170 H   0  0  0  0  0  0  0  0  0  0  0  0
   43.2420   86.8890   58.5750 H   0  0  0  0  0  0  0  0  0  0  0  0
   40.0130   83.3700   60.6300 C   0  0  0  0  0  0  0  0  0  0  0  0
   39.4450   83.8630   59.8640 H   0  0  0  0  0  0  0  0  0  0  0  0
   39.8780   82.2660   60.0540 O   0  0  0  0  0  0  0  0  0  0  0  0
  1  2  1  0  0  0  0
  2  7  1  0  0  0  0
  2  3  2  0  0  0  0
  3  8  1  0  0  0  0
  4  3  1  0  0  0  0
  4  9  1  0  0  0  0
  5 10  1  0  0  0  0
  5  4  2  0  0  0  0
  6  1  2  0  0  0  0
  6  5  1  0  0  0  0
 11 16  1  0  0  0  0
 12 13  1  0  0  0  0
 12 11  2  0  0  0  0
 13 14  2  0  0  0  0
 14 15  1  0  0  0  0
 15  1  1  0  0  0  0
 16 15  2  0  0  0  0
 17 11  1  0  0  0  0
 18 12  1  0  0  0  0
 19 13  1  0  0  0  0
 20  6  1  0  0  0  0
 21 20  1  0  0  0  0
 22 20  2  0  0  0  0
M  END
>  <minimizedAffinity>
-4.2823267

>  <minimizedRMSD>
0.938094914

$$$$
