
 OpenBabel03212521033D

 22 23  0  0  0  0  0  0  0  0999 V2000
   41.9240   84.1620   61.9220 C   0  0  0  0  0  0  0  0  0  0  0  0
   42.4870   84.4750   63.1410 C   0  0  0  0  0  0  0  0  0  0  0  0
   41.8270   84.3280   64.3320 C   0  0  0  0  0  0  0  0  0  0  0  0
   40.5300   83.8420   64.3110 C   0  0  0  0  0  0  0  0  0  0  0  0
   39.9400   83.5200   63.0960 C   0  0  0  0  0  0  0  0  0  0  0  0
   40.6290   83.6790   61.9180 C   0  0  0  0  0  0  0  0  0  0  0  0
   43.5130   84.8560   63.1190 H   0  0  0  0  0  0  0  0  0  0  0  0
   42.3520   84.5990   65.2160 H   0  0  0  0  0  0  0  0  0  0  0  0
   39.9980   83.7220   65.2440 H   0  0  0  0  0  0  0  0  0  0  0  0
   38.9230   83.1430   63.1380 H   0  0  0  0  0  0  0  0  0  0  0  0
   44.0770   83.5440   59.0180 C   0  0  0  0  0  0  0  0  0  0  0  0
   44.0240   84.7570   58.3400 C   0  0  0  0  0  0  0  0  0  0  0  0
   43.2470   85.7800   58.8850 C   0  0  0  0  0  0  0  0  0  0  0  0
   42.5870   85.5500   60.0390 N   0  0  0  0  0  0  0  0  0  0  0  0
   42.6610   84.3410   60.6850 C   0  0  0  0  0  0  0  0  0  0  0  0
   43.3990   83.3650   60.1680 N   0  0  0  0  0  0  0  0  0  0  0  0
   44.6890   82.7730   58.5670 H   0  0  0  0  0  0  0  0  0  0  0  0
   44.5140   85.0110   57.4310 H   0  0  0  0  0  0  0  0  0  0  0  0
   43.0970   86.7760   58.4910 H   0  0  0  0  0  0  0  0  0  0  0  0
   39.9090   83.3140   60.7270 C   0  0  0  0  0  0  0  0  0  0  0  0
   39.2510   83.7680   60.0120 H   0  0  0  0  0  0  0  0  0  0  0  0
   39.8510   82.2180   60.1230 O   0  0  0  0  0  0  0  0  0  0  0  0
  1  2  1  0  0  0  0
  2  3  2  0  0  0  0
  3  8  1  0  0  0  0
  4  3  1  0  0  0  0
  4  9  1  0  0  0  0
  5 10  1  0  0  0  0
  5  4  2  0  0  0  0
  6  1  2  0  0  0  0
  6  5  1  0  0  0  0
  7  2  1  0  0  0  0
 11 16  1  0  0  0  0
 12 13  1  0  0  0  0
 12 11  2  0  0  0  0
 13 14  2  0  0  0  0
 14 15  1  0  0  0  0
 15  1  1  0  0  0  0
 16 15  2  0  0  0  0
 17 11  1  0  0  0  0
 18 12  1  0  0  0  0
 19 13  1  0  0  0  0
 20  6  1  0  0  0  0
 21 20  1  0  0  0  0
 22 20  2  0  0  0  0
M  END
>  <minimizedAffinity>
-4.27854395

>  <minimizedRMSD>
0.958216071

$$$$
