
 OpenBabel03212521023D

 22 23  0  0  0  0  0  0  0  0999 V2000
   41.9900   84.1840   61.9060 C   0  0  0  0  0  0  0  0  0  0  0  0
   42.5180   84.4630   63.1500 C   0  0  0  0  0  0  0  0  0  0  0  0
   41.8230   84.2820   64.3160 C   0  0  0  0  0  0  0  0  0  0  0  0
   40.5280   83.7960   64.2440 C   0  0  0  0  0  0  0  0  0  0  0  0
   39.9740   83.5080   63.0030 C   0  0  0  0  0  0  0  0  0  0  0  0
   40.6970   83.7010   61.8510 C   0  0  0  0  0  0  0  0  0  0  0  0
   43.5430   84.8450   63.1670 H   0  0  0  0  0  0  0  0  0  0  0  0
   42.3220   84.5280   65.2220 H   0  0  0  0  0  0  0  0  0  0  0  0
   39.9700   83.6500   65.1570 H   0  0  0  0  0  0  0  0  0  0  0  0
   38.9560   83.1300   63.0050 H   0  0  0  0  0  0  0  0  0  0  0  0
   44.2360   83.6540   59.0550 C   0  0  0  0  0  0  0  0  0  0  0  0
   44.1910   84.8810   58.4040 C   0  0  0  0  0  0  0  0  0  0  0  0
   43.3880   85.8840   58.9490 C   0  0  0  0  0  0  0  0  0  0  0  0
   42.6960   85.6220   60.0760 N   0  0  0  0  0  0  0  0  0  0  0  0
   42.7620   84.3990   60.6960 C   0  0  0  0  0  0  0  0  0  0  0  0
   43.5250   83.4430   60.1800 N   0  0  0  0  0  0  0  0  0  0  0  0
   44.8690   82.8990   58.6060 H   0  0  0  0  0  0  0  0  0  0  0  0
   44.7060   85.1610   57.5160 H   0  0  0  0  0  0  0  0  0  0  0  0
   43.2400   86.8880   58.5730 H   0  0  0  0  0  0  0  0  0  0  0  0
   40.0120   83.3700   60.6300 C   0  0  0  0  0  0  0  0  0  0  0  0
   39.4420   83.8610   59.8650 H   0  0  0  0  0  0  0  0  0  0  0  0
   39.8780   82.2650   60.0530 O   0  0  0  0  0  0  0  0  0  0  0  0
  1  2  1  0  0  0  0
  2  7  1  0  0  0  0
  2  3  2  0  0  0  0
  3  8  1  0  0  0  0
  4  3  1  0  0  0  0
  4  9  1  0  0  0  0
  5 10  1  0  0  0  0
  5  4  2  0  0  0  0
  6  1  2  0  0  0  0
  6  5  1  0  0  0  0
 11 16  1  0  0  0  0
 12 13  1  0  0  0  0
 12 11  2  0  0  0  0
 13 14  2  0  0  0  0
 14 15  1  0  0  0  0
 15  1  1  0  0  0  0
 16 15  2  0  0  0  0
 17 11  1  0  0  0  0
 18 12  1  0  0  0  0
 19 13  1  0  0  0  0
 20  6  1  0  0  0  0
 21 20  1  0  0  0  0
 22 20  2  0  0  0  0
M  END
>  <minimizedAffinity>
-4.28258467

>  <minimizedRMSD>
0.988787174

$$$$
