
 OpenBabel03212521033D

 22 23  0  0  0  0  0  0  0  0999 V2000
   41.8160   84.1960   61.8730 C   0  0  0  0  0  0  0  0  0  0  0  0
   42.6230   84.2860   62.9880 C   0  0  0  0  0  0  0  0  0  0  0  0
   42.1480   84.1730   64.2670 C   0  0  0  0  0  0  0  0  0  0  0  0
   40.7930   83.9590   64.4520 C   0  0  0  0  0  0  0  0  0  0  0  0
   39.9580   83.8660   63.3450 C   0  0  0  0  0  0  0  0  0  0  0  0
   40.4650   83.9830   62.0740 C   0  0  0  0  0  0  0  0  0  0  0  0
   43.6880   84.4550   62.8030 H   0  0  0  0  0  0  0  0  0  0  0  0
   42.8560   84.2580   65.0570 H   0  0  0  0  0  0  0  0  0  0  0  0
   40.4060   83.8690   65.4570 H   0  0  0  0  0  0  0  0  0  0  0  0
   38.9050   83.6970   63.5480 H   0  0  0  0  0  0  0  0  0  0  0  0
   43.2800   83.4080   58.6040 C   0  0  0  0  0  0  0  0  0  0  0  0
   43.3840   84.6610   58.0110 C   0  0  0  0  0  0  0  0  0  0  0  0
   42.9490   85.7700   58.7380 C   0  0  0  0  0  0  0  0  0  0  0  0
   42.4510   85.5790   59.9770 N   0  0  0  0  0  0  0  0  0  0  0  0
   42.3630   84.3280   60.5360 C   0  0  0  0  0  0  0  0  0  0  0  0
   42.7760   83.2720   59.8450 N   0  0  0  0  0  0  0  0  0  0  0  0
   43.6280   82.5710   58.0120 H   0  0  0  0  0  0  0  0  0  0  0  0
   43.7630   84.8890   57.0430 H   0  0  0  0  0  0  0  0  0  0  0  0
   42.9580   86.8060   58.4290 H   0  0  0  0  0  0  0  0  0  0  0  0
   39.5010   83.8710   61.0120 C   0  0  0  0  0  0  0  0  0  0  0  0
   39.0390   83.1060   60.4180 H   0  0  0  0  0  0  0  0  0  0  0  0
   38.8530   84.7600   60.4130 O   0  0  0  0  0  0  0  0  0  0  0  0
  1  6  2  0  0  0  0
  1  2  1  0  0  0  0
  2  3  2  0  0  0  0
  3  4  1  0  0  0  0
  3  8  1  0  0  0  0
  4  9  1  0  0  0  0
  5 10  1  0  0  0  0
  5  4  2  0  0  0  0
  6  5  1  0  0  0  0
  7  2  1  0  0  0  0
 11 16  1  0  0  0  0
 12 11  2  0  0  0  0
 12 13  1  0  0  0  0
 13 14  2  0  0  0  0
 14 15  1  0  0  0  0
 15  1  1  0  0  0  0
 16 15  2  0  0  0  0
 17 11  1  0  0  0  0
 18 12  1  0  0  0  0
 19 13  1  0  0  0  0
 20  6  1  0  0  0  0
 21 20  1  0  0  0  0
 22 20  2  0  0  0  0
M  END
>  <minimizedAffinity>
-4.7594738

>  <minimizedRMSD>
0.919626057

$$$$
