
 OpenBabel03212521023D

 22 23  0  0  0  0  0  0  0  0999 V2000
   41.8160   84.1960   61.8720 C   0  0  0  0  0  0  0  0  0  0  0  0
   42.6230   84.2860   62.9880 C   0  0  0  0  0  0  0  0  0  0  0  0
   42.1480   84.1730   64.2670 C   0  0  0  0  0  0  0  0  0  0  0  0
   40.7930   83.9590   64.4510 C   0  0  0  0  0  0  0  0  0  0  0  0
   39.9580   83.8650   63.3440 C   0  0  0  0  0  0  0  0  0  0  0  0
   40.4660   83.9820   62.0730 C   0  0  0  0  0  0  0  0  0  0  0  0
   43.6880   84.4560   62.8030 H   0  0  0  0  0  0  0  0  0  0  0  0
   42.8550   84.2580   65.0570 H   0  0  0  0  0  0  0  0  0  0  0  0
   40.4060   83.8680   65.4560 H   0  0  0  0  0  0  0  0  0  0  0  0
   38.9060   83.6960   63.5470 H   0  0  0  0  0  0  0  0  0  0  0  0
   43.2820   83.4090   58.6040 C   0  0  0  0  0  0  0  0  0  0  0  0
   43.3850   84.6620   58.0110 C   0  0  0  0  0  0  0  0  0  0  0  0
   42.9500   85.7700   58.7380 C   0  0  0  0  0  0  0  0  0  0  0  0
   42.4510   85.5800   59.9770 N   0  0  0  0  0  0  0  0  0  0  0  0
   42.3640   84.3290   60.5350 C   0  0  0  0  0  0  0  0  0  0  0  0
   42.7770   83.2720   59.8450 N   0  0  0  0  0  0  0  0  0  0  0  0
   43.6290   82.5720   58.0120 H   0  0  0  0  0  0  0  0  0  0  0  0
   43.7650   84.8900   57.0430 H   0  0  0  0  0  0  0  0  0  0  0  0
   42.9590   86.8070   58.4300 H   0  0  0  0  0  0  0  0  0  0  0  0
   39.5020   83.8700   61.0110 C   0  0  0  0  0  0  0  0  0  0  0  0
   39.0410   83.1040   60.4170 H   0  0  0  0  0  0  0  0  0  0  0  0
   38.8530   84.7590   60.4130 O   0  0  0  0  0  0  0  0  0  0  0  0
  1  6  2  0  0  0  0
  1  2  1  0  0  0  0
  2  3  2  0  0  0  0
  3  4  1  0  0  0  0
  3  8  1  0  0  0  0
  4  9  1  0  0  0  0
  5 10  1  0  0  0  0
  5  4  2  0  0  0  0
  6  5  1  0  0  0  0
  7  2  1  0  0  0  0
 11 16  1  0  0  0  0
 12 11  2  0  0  0  0
 12 13  1  0  0  0  0
 13 14  2  0  0  0  0
 14 15  1  0  0  0  0
 15  1  1  0  0  0  0
 16 15  2  0  0  0  0
 17 11  1  0  0  0  0
 18 12  1  0  0  0  0
 19 13  1  0  0  0  0
 20  6  1  0  0  0  0
 21 20  1  0  0  0  0
 22 20  2  0  0  0  0
M  END
>  <minimizedAffinity>
-4.75998259

>  <minimizedRMSD>
0.843371749

$$$$
