
 OpenBabel03212521033D

 22 23  0  0  0  0  0  0  0  0999 V2000
   41.8280   84.1980   61.7610 C   0  0  0  0  0  0  0  0  0  0  0  0
   42.6680   84.2690   62.8530 C   0  0  0  0  0  0  0  0  0  0  0  0
   42.2310   84.1330   64.1440 C   0  0  0  0  0  0  0  0  0  0  0  0
   40.8810   83.9140   64.3640 C   0  0  0  0  0  0  0  0  0  0  0  0
   40.0150   83.8390   63.2800 C   0  0  0  0  0  0  0  0  0  0  0  0
   40.4840   83.9790   61.9970 C   0  0  0  0  0  0  0  0  0  0  0  0
   43.7270   84.4430   62.6410 H   0  0  0  0  0  0  0  0  0  0  0  0
   42.9600   84.2040   64.9140 H   0  0  0  0  0  0  0  0  0  0  0  0
   40.5240   83.8050   65.3780 H   0  0  0  0  0  0  0  0  0  0  0  0
   38.9680   83.6650   63.5100 H   0  0  0  0  0  0  0  0  0  0  0  0
   43.1590   83.4680   58.4220 C   0  0  0  0  0  0  0  0  0  0  0  0
   43.2860   84.7350   57.8650 C   0  0  0  0  0  0  0  0  0  0  0  0
   42.9120   85.8340   58.6400 C   0  0  0  0  0  0  0  0  0  0  0  0
   42.4480   85.6200   59.8880 N   0  0  0  0  0  0  0  0  0  0  0  0
   42.3360   84.3550   60.4110 C   0  0  0  0  0  0  0  0  0  0  0  0
   42.6910   83.3090   59.6750 N   0  0  0  0  0  0  0  0  0  0  0  0
   43.4590   82.6390   57.7930 H   0  0  0  0  0  0  0  0  0  0  0  0
   43.6410   84.9810   56.8920 H   0  0  0  0  0  0  0  0  0  0  0  0
   42.9460   86.8790   58.3630 H   0  0  0  0  0  0  0  0  0  0  0  0
   39.4890   83.8850   60.9620 C   0  0  0  0  0  0  0  0  0  0  0  0
   38.9970   83.1300   60.3810 H   0  0  0  0  0  0  0  0  0  0  0  0
   38.8430   84.7880   60.3790 O   0  0  0  0  0  0  0  0  0  0  0  0
  1  6  2  0  0  0  0
  1  2  1  0  0  0  0
  2  3  2  0  0  0  0
  3  4  1  0  0  0  0
  3  8  1  0  0  0  0
  4  9  1  0  0  0  0
  5 10  1  0  0  0  0
  5  4  2  0  0  0  0
  6  5  1  0  0  0  0
  7  2  1  0  0  0  0
 11 16  1  0  0  0  0
 12 11  2  0  0  0  0
 12 13  1  0  0  0  0
 13 14  2  0  0  0  0
 14 15  1  0  0  0  0
 15  1  1  0  0  0  0
 16 15  2  0  0  0  0
 17 11  1  0  0  0  0
 18 12  1  0  0  0  0
 19 13  1  0  0  0  0
 20  6  1  0  0  0  0
 21 20  1  0  0  0  0
 22 20  2  0  0  0  0
M  END
>  <minimizedAffinity>
-4.74875975

>  <minimizedRMSD>
0.755158961

$$$$
