
 OpenBabel03212521033D

 22 23  0  0  0  0  0  0  0  0999 V2000
   41.8160   84.1960   61.8710 C   0  0  0  0  0  0  0  0  0  0  0  0
   42.6220   84.2860   62.9870 C   0  0  0  0  0  0  0  0  0  0  0  0
   42.1470   84.1730   64.2660 C   0  0  0  0  0  0  0  0  0  0  0  0
   40.7920   83.9580   64.4500 C   0  0  0  0  0  0  0  0  0  0  0  0
   39.9580   83.8640   63.3430 C   0  0  0  0  0  0  0  0  0  0  0  0
   40.4650   83.9820   62.0720 C   0  0  0  0  0  0  0  0  0  0  0  0
   43.6880   84.4560   62.8030 H   0  0  0  0  0  0  0  0  0  0  0  0
   42.8540   84.2580   65.0560 H   0  0  0  0  0  0  0  0  0  0  0  0
   40.4050   83.8670   65.4550 H   0  0  0  0  0  0  0  0  0  0  0  0
   38.9050   83.6950   63.5450 H   0  0  0  0  0  0  0  0  0  0  0  0
   43.2820   83.4100   58.6030 C   0  0  0  0  0  0  0  0  0  0  0  0
   43.3860   84.6630   58.0110 C   0  0  0  0  0  0  0  0  0  0  0  0
   42.9500   85.7720   58.7380 C   0  0  0  0  0  0  0  0  0  0  0  0
   42.4510   85.5800   59.9760 N   0  0  0  0  0  0  0  0  0  0  0  0
   42.3640   84.3290   60.5340 C   0  0  0  0  0  0  0  0  0  0  0  0
   42.7770   83.2730   59.8440 N   0  0  0  0  0  0  0  0  0  0  0  0
   43.6300   82.5730   58.0110 H   0  0  0  0  0  0  0  0  0  0  0  0
   43.7660   84.8920   57.0430 H   0  0  0  0  0  0  0  0  0  0  0  0
   42.9590   86.8080   58.4300 H   0  0  0  0  0  0  0  0  0  0  0  0
   39.5010   83.8700   61.0090 C   0  0  0  0  0  0  0  0  0  0  0  0
   39.0410   83.1060   60.4160 H   0  0  0  0  0  0  0  0  0  0  0  0
   38.8540   84.7600   60.4100 O   0  0  0  0  0  0  0  0  0  0  0  0
  1  6  2  0  0  0  0
  1  2  1  0  0  0  0
  2  3  2  0  0  0  0
  3  4  1  0  0  0  0
  3  8  1  0  0  0  0
  4  9  1  0  0  0  0
  5 10  1  0  0  0  0
  5  4  2  0  0  0  0
  6  5  1  0  0  0  0
  7  2  1  0  0  0  0
 11 16  1  0  0  0  0
 12 11  2  0  0  0  0
 12 13  1  0  0  0  0
 13 14  2  0  0  0  0
 14 15  1  0  0  0  0
 15  1  1  0  0  0  0
 16 15  2  0  0  0  0
 17 11  1  0  0  0  0
 18 12  1  0  0  0  0
 19 13  1  0  0  0  0
 20  6  1  0  0  0  0
 21 20  1  0  0  0  0
 22 20  2  0  0  0  0
M  END
>  <minimizedAffinity>
-4.76317263

>  <minimizedRMSD>
0.80318135

$$$$
