
 OpenBabel03212521033D

 22 23  0  0  0  0  0  0  0  0999 V2000
   41.9060   84.1900   61.7710 C   0  0  0  0  0  0  0  0  0  0  0  0
   42.4830   84.4900   62.9870 C   0  0  0  0  0  0  0  0  0  0  0  0
   41.8510   84.2910   64.1860 C   0  0  0  0  0  0  0  0  0  0  0  0
   40.5710   83.7650   64.1770 C   0  0  0  0  0  0  0  0  0  0  0  0
   39.9660   83.4550   62.9650 C   0  0  0  0  0  0  0  0  0  0  0  0
   40.6270   83.6650   61.7790 C   0  0  0  0  0  0  0  0  0  0  0  0
   43.4960   84.9040   62.9550 H   0  0  0  0  0  0  0  0  0  0  0  0
   42.3850   84.5560   65.0660 H   0  0  0  0  0  0  0  0  0  0  0  0
   40.0610   83.6040   65.1170 H   0  0  0  0  0  0  0  0  0  0  0  0
   38.9630   83.0450   63.0180 H   0  0  0  0  0  0  0  0  0  0  0  0
   44.0560   83.7310   58.8360 C   0  0  0  0  0  0  0  0  0  0  0  0
   43.9110   84.9400   58.1650 C   0  0  0  0  0  0  0  0  0  0  0  0
   43.0740   85.9060   58.7250 C   0  0  0  0  0  0  0  0  0  0  0  0
   42.4460   85.6270   59.8860 N   0  0  0  0  0  0  0  0  0  0  0  0
   42.6120   84.4230   60.5250 C   0  0  0  0  0  0  0  0  0  0  0  0
   43.4070   83.5020   59.9930 N   0  0  0  0  0  0  0  0  0  0  0  0
   44.7130   83.0060   58.3730 H   0  0  0  0  0  0  0  0  0  0  0  0
   44.3700   85.2310   57.2500 H   0  0  0  0  0  0  0  0  0  0  0  0
   42.8510   86.8910   58.3370 H   0  0  0  0  0  0  0  0  0  0  0  0
   39.8950   83.3080   60.5930 C   0  0  0  0  0  0  0  0  0  0  0  0
   39.1940   83.7510   59.9130 H   0  0  0  0  0  0  0  0  0  0  0  0
   39.8800   82.2340   59.9470 O   0  0  0  0  0  0  0  0  0  0  0  0
  1  6  2  0  0  0  0
  1  2  1  0  0  0  0
  2  3  2  0  0  0  0
  3  8  1  0  0  0  0
  4  3  1  0  0  0  0
  4  9  1  0  0  0  0
  5 10  1  0  0  0  0
  5  4  2  0  0  0  0
  6  5  1  0  0  0  0
  7  2  1  0  0  0  0
 11 16  1  0  0  0  0
 12 13  1  0  0  0  0
 12 11  2  0  0  0  0
 13 14  2  0  0  0  0
 14 15  1  0  0  0  0
 15  1  1  0  0  0  0
 16 15  2  0  0  0  0
 17 11  1  0  0  0  0
 18 12  1  0  0  0  0
 19 13  1  0  0  0  0
 20  6  1  0  0  0  0
 21 20  1  0  0  0  0
 22 20  2  0  0  0  0
M  END
>  <minimizedAffinity>
-4.29388094

>  <minimizedRMSD>
0.944693387

$$$$
