
 OpenBabel03212521023D

 22 23  0  0  0  0  0  0  0  0999 V2000
   41.8950   84.1850   61.8120 C   0  0  0  0  0  0  0  0  0  0  0  0
   42.4640   84.5300   63.0200 C   0  0  0  0  0  0  0  0  0  0  0  0
   41.8300   84.3610   64.2220 C   0  0  0  0  0  0  0  0  0  0  0  0
   40.5570   83.8170   64.2260 C   0  0  0  0  0  0  0  0  0  0  0  0
   39.9610   83.4620   63.0220 C   0  0  0  0  0  0  0  0  0  0  0  0
   40.6230   83.6440   61.8320 C   0  0  0  0  0  0  0  0  0  0  0  0
   43.4710   84.9560   62.9780 H   0  0  0  0  0  0  0  0  0  0  0  0
   42.3580   84.6600   65.0960 H   0  0  0  0  0  0  0  0  0  0  0  0
   40.0460   83.6790   65.1680 H   0  0  0  0  0  0  0  0  0  0  0  0
   38.9630   83.0410   63.0840 H   0  0  0  0  0  0  0  0  0  0  0  0
   44.0710   83.6700   58.9050 C   0  0  0  0  0  0  0  0  0  0  0  0
   43.9020   84.8500   58.1900 C   0  0  0  0  0  0  0  0  0  0  0  0
   43.0410   85.8160   58.7110 C   0  0  0  0  0  0  0  0  0  0  0  0
   42.4140   85.5650   59.8780 N   0  0  0  0  0  0  0  0  0  0  0  0
   42.6020   84.3890   60.5620 C   0  0  0  0  0  0  0  0  0  0  0  0
   43.4210   83.4680   60.0670 N   0  0  0  0  0  0  0  0  0  0  0  0
   44.7470   82.9430   58.4720 H   0  0  0  0  0  0  0  0  0  0  0  0
   44.3600   85.1170   57.2670 H   0  0  0  0  0  0  0  0  0  0  0  0
   42.7980   86.7810   58.2870 H   0  0  0  0  0  0  0  0  0  0  0  0
   39.9000   83.2410   60.6560 C   0  0  0  0  0  0  0  0  0  0  0  0
   39.2280   83.6660   59.9360 H   0  0  0  0  0  0  0  0  0  0  0  0
   39.8570   82.1300   60.0760 O   0  0  0  0  0  0  0  0  0  0  0  0
  1  6  2  0  0  0  0
  1  2  1  0  0  0  0
  2  3  2  0  0  0  0
  3  4  1  0  0  0  0
  3  8  1  0  0  0  0
  4  9  1  0  0  0  0
  5 10  1  0  0  0  0
  5  4  2  0  0  0  0
  6  5  1  0  0  0  0
  7  2  1  0  0  0  0
 11 16  1  0  0  0  0
 12 13  1  0  0  0  0
 12 11  2  0  0  0  0
 13 14  2  0  0  0  0
 14 15  1  0  0  0  0
 15  1  1  0  0  0  0
 16 15  2  0  0  0  0
 17 11  1  0  0  0  0
 18 12  1  0  0  0  0
 19 13  1  0  0  0  0
 20  6  1  0  0  0  0
 21 20  1  0  0  0  0
 22 20  2  0  0  0  0
M  END
>  <minimizedAffinity>
-4.29784679

>  <minimizedRMSD>
0.969125211

$$$$
