
 OpenBabel03212520543D

 27 29  0  0  0  0  0  0  0  0999 V2000
   41.9030   69.7510   62.0110 C   0  0  0  0  0  0  0  0  0  0  0  0
   41.9420   70.7300   63.0030 C   0  0  0  0  0  0  0  0  0  0  0  0
   42.1090   72.0150   62.6220 C   0  0  0  0  0  0  0  0  0  0  0  0
   42.2380   72.3220   61.2650 C   0  0  0  0  0  0  0  0  0  0  0  0
   42.1120   70.6600   60.4470 S   0  0  0  0  0  0  0  0  0  0  0  0
   41.8420   70.4880   64.0530 H   0  0  0  0  0  0  0  0  0  0  0  0
   42.1650   72.9030   63.2310 H   0  0  0  0  0  0  0  0  0  0  0  0
   40.6690   66.6380   63.4860 C   0  0  0  0  0  0  0  0  0  0  0  0
   41.3870   65.6380   62.7770 C   0  0  0  0  0  0  0  0  0  0  0  0
   42.2870   66.0490   61.8010 C   0  0  0  0  0  0  0  0  0  0  0  0
   42.4290   67.3770   61.5800 N   0  0  0  0  0  0  0  0  0  0  0  0
   41.7270   68.3050   62.2740 C   0  0  0  0  0  0  0  0  0  0  0  0
   40.8710   67.9350   63.2010 N   0  0  0  0  0  0  0  0  0  0  0  0
   39.9470   66.4180   64.2640 H   0  0  0  0  0  0  0  0  0  0  0  0
   41.2020   64.6150   63.0280 H   0  0  0  0  0  0  0  0  0  0  0  0
   42.8460   65.3060   61.2480 H   0  0  0  0  0  0  0  0  0  0  0  0
   42.4210   73.5050   60.4840 C   0  0  0  0  0  0  0  0  0  0  0  0
   43.6600   73.7950   59.9920 C   0  0  0  0  0  0  0  0  0  0  0  0
   43.6890   74.9850   59.2480 C   0  0  0  0  0  0  0  0  0  0  0  0
   42.6160   75.7690   59.0310 N   0  0  0  0  0  0  0  0  0  0  0  0
   41.4300   75.3990   59.5610 C   0  0  0  0  0  0  0  0  0  0  0  0
   41.3230   74.2560   60.2960 N   0  0  0  0  0  0  0  0  0  0  0  0
   44.5500   73.2160   60.1260 H   0  0  0  0  0  0  0  0  0  0  0  0
   44.6480   75.2960   58.8120 H   0  0  0  0  0  0  0  0  0  0  0  0
   40.2700   76.2470   59.3280 C   0  0  0  0  0  0  0  0  0  0  0  0
   40.0320   76.6290   58.3470 H   0  0  0  0  0  0  0  0  0  0  0  0
   39.5470   76.5210   60.3200 O   0  0  0  0  0  0  0  0  0  0  0  0
  1 12  1  0  0  0  0
  1  2  2  0  0  0  0
  2  6  1  0  0  0  0
  3  2  1  0  0  0  0
  3  7  1  0  0  0  0
  4  3  2  0  0  0  0
  5  4  1  0  0  0  0
  5  1  1  0  0  0  0
  8 14  1  0  0  0  0
  9 15  1  0  0  0  0
  9  8  2  0  0  0  0
 10  9  1  0  0  0  0
 11 10  2  0  0  0  0
 11 12  1  0  0  0  0
 12 13  2  0  0  0  0
 13  8  1  0  0  0  0
 16 10  1  0  0  0  0
 17  4  1  0  0  0  0
 18 23  1  0  0  0  0
 18 17  2  0  0  0  0
 19 18  1  0  0  0  0
 20 19  2  0  0  0  0
 20 21  1  0  0  0  0
 21 22  2  0  0  0  0
 22 17  1  0  0  0  0
 24 19  1  0  0  0  0
 25 21  1  0  0  0  0
 25 27  2  0  0  0  0
 26 25  1  0  0  0  0
M  END
>  <minimizedAffinity>
-5.15647984

$$$$

 OpenBabel03212520543D

 27 29  0  0  0  0  0  0  0  0999 V2000
   42.0710   71.9030   61.1870 C   0  0  0  0  0  0  0  0  0  0  0  0
   41.9190   71.7190   62.5600 C   0  0  0  0  0  0  0  0  0  0  0  0
   41.8560   70.4540   63.0290 C   0  0  0  0  0  0  0  0  0  0  0  0
   41.9420   69.3820   62.1390 C   0  0  0  0  0  0  0  0  0  0  0  0
   42.1300   70.2210   60.4920 S   0  0  0  0  0  0  0  0  0  0  0  0
   41.8530   72.5530   63.2470 H   0  0  0  0  0  0  0  0  0  0  0  0
   41.7420   70.1110   64.0450 H   0  0  0  0  0  0  0  0  0  0  0  0
   41.0670   75.1410   59.8110 C   0  0  0  0  0  0  0  0  0  0  0  0
   42.2860   75.6710   59.3100 C   0  0  0  0  0  0  0  0  0  0  0  0
   43.4380   74.9060   59.4530 C   0  0  0  0  0  0  0  0  0  0  0  0
   43.3340   73.7010   60.0600 N   0  0  0  0  0  0  0  0  0  0  0  0
   42.1540   73.2250   60.5270 C   0  0  0  0  0  0  0  0  0  0  0  0
   41.0550   73.9350   60.4020 N   0  0  0  0  0  0  0  0  0  0  0  0
   40.1180   75.6610   59.7480 H   0  0  0  0  0  0  0  0  0  0  0  0
   42.2610   76.6350   58.8460 H   0  0  0  0  0  0  0  0  0  0  0  0
   44.3780   75.2880   59.0790 H   0  0  0  0  0  0  0  0  0  0  0  0
   41.9200   67.9550   62.2300 C   0  0  0  0  0  0  0  0  0  0  0  0
   40.7480   67.3240   62.5300 C   0  0  0  0  0  0  0  0  0  0  0  0
   40.8770   65.9280   62.5870 C   0  0  0  0  0  0  0  0  0  0  0  0
   42.0290   65.2640   62.3700 N   0  0  0  0  0  0  0  0  0  0  0  0
   43.1380   65.9770   62.0800 C   0  0  0  0  0  0  0  0  0  0  0  0
   43.0910   67.3380   62.0070 N   0  0  0  0  0  0  0  0  0  0  0  0
   39.8020   67.7900   62.7120 H   0  0  0  0  0  0  0  0  0  0  0  0
   39.9810   65.3370   62.8220 H   0  0  0  0  0  0  0  0  0  0  0  0
   44.3840   65.2610   61.8460 C   0  0  0  0  0  0  0  0  0  0  0  0
   44.5770   64.7420   60.9190 H   0  0  0  0  0  0  0  0  0  0  0  0
   45.2360   65.2680   62.7700 O   0  0  0  0  0  0  0  0  0  0  0  0
  1  2  2  0  0  0  0
  2  3  1  0  0  0  0
  2  6  1  0  0  0  0
  3  7  1  0  0  0  0
  4 17  1  0  0  0  0
  4  3  2  0  0  0  0
  5  1  1  0  0  0  0
  5  4  1  0  0  0  0
  8 13  1  0  0  0  0
  9 10  1  0  0  0  0
  9  8  2  0  0  0  0
 10 11  2  0  0  0  0
 11 12  1  0  0  0  0
 12  1  1  0  0  0  0
 13 12  2  0  0  0  0
 14  8  1  0  0  0  0
 15  9  1  0  0  0  0
 16 10  1  0  0  0  0
 17 18  1  0  0  0  0
 18 19  2  0  0  0  0
 18 23  1  0  0  0  0
 19 24  1  0  0  0  0
 20 19  1  0  0  0  0
 21 20  2  0  0  0  0
 22 21  1  0  0  0  0
 22 17  2  0  0  0  0
 25 21  1  0  0  0  0
 25 27  2  0  0  0  0
 26 25  1  0  0  0  0
M  END
>  <minimizedAffinity>
-5.13889265

$$$$

 OpenBabel03212520543D

 27 29  0  0  0  0  0  0  0  0999 V2000
   42.4360   72.1050   60.9300 C   0  0  0  0  0  0  0  0  0  0  0  0
   43.3410   73.0700   60.4930 C   0  0  0  0  0  0  0  0  0  0  0  0
   42.8490   74.1920   59.9240 C   0  0  0  0  0  0  0  0  0  0  0  0
   41.4680   74.3510   59.7920 C   0  0  0  0  0  0  0  0  0  0  0  0
   40.7950   72.7860   60.5320 S   0  0  0  0  0  0  0  0  0  0  0  0
   44.4110   72.9440   60.5980 H   0  0  0  0  0  0  0  0  0  0  0  0
   43.3810   75.0420   59.5280 H   0  0  0  0  0  0  0  0  0  0  0  0
   42.7920   69.4800   63.4540 C   0  0  0  0  0  0  0  0  0  0  0  0
   43.5310   68.4760   62.7730 C   0  0  0  0  0  0  0  0  0  0  0  0
   43.8960   68.7150   61.4540 C   0  0  0  0  0  0  0  0  0  0  0  0
   43.5280   69.8900   60.8920 N   0  0  0  0  0  0  0  0  0  0  0  0
   42.8230   70.8280   61.5710 C   0  0  0  0  0  0  0  0  0  0  0  0
   42.4690   70.6180   62.8190 N   0  0  0  0  0  0  0  0  0  0  0  0
   42.4630   69.3860   64.4830 H   0  0  0  0  0  0  0  0  0  0  0  0
   43.7720   67.5800   63.3080 H   0  0  0  0  0  0  0  0  0  0  0  0
   44.4590   67.9650   60.9140 H   0  0  0  0  0  0  0  0  0  0  0  0
   40.5850   75.3470   59.2700 C   0  0  0  0  0  0  0  0  0  0  0  0
   40.8180   76.6610   59.5550 C   0  0  0  0  0  0  0  0  0  0  0  0
   39.8730   77.5230   58.9790 C   0  0  0  0  0  0  0  0  0  0  0  0
   38.8380   77.1130   58.2200 N   0  0  0  0  0  0  0  0  0  0  0  0
   38.6900   75.7900   57.9930 C   0  0  0  0  0  0  0  0  0  0  0  0
   39.5680   74.8910   58.5200 N   0  0  0  0  0  0  0  0  0  0  0  0
   41.6180   77.0510   60.1490 H   0  0  0  0  0  0  0  0  0  0  0  0
   39.9830   78.6010   59.1570 H   0  0  0  0  0  0  0  0  0  0  0  0
   37.5710   75.3470   57.1740 C   0  0  0  0  0  0  0  0  0  0  0  0
   37.3260   74.3010   57.0630 H   0  0  0  0  0  0  0  0  0  0  0  0
   36.8940   76.2320   56.5930 O   0  0  0  0  0  0  0  0  0  0  0  0
  1 12  1  0  0  0  0
  2  6  1  0  0  0  0
  2  1  2  0  0  0  0
  3  2  1  0  0  0  0
  4  3  2  0  0  0  0
  4  5  1  0  0  0  0
  5  1  1  0  0  0  0
  7  3  1  0  0  0  0
  8 14  1  0  0  0  0
  9 15  1  0  0  0  0
  9  8  2  0  0  0  0
 10  9  1  0  0  0  0
 11 10  2  0  0  0  0
 11 12  1  0  0  0  0
 12 13  2  0  0  0  0
 13  8  1  0  0  0  0
 16 10  1  0  0  0  0
 17 18  1  0  0  0  0
 17  4  1  0  0  0  0
 18 23  1  0  0  0  0
 19 24  1  0  0  0  0
 19 18  2  0  0  0  0
 20 19  1  0  0  0  0
 21 20  2  0  0  0  0
 21 22  1  0  0  0  0
 22 17  2  0  0  0  0
 25 21  1  0  0  0  0
 26 25  1  0  0  0  0
 27 25  2  0  0  0  0
M  END
>  <minimizedAffinity>
-5.13478041

$$$$

 OpenBabel03212520543D

 27 29  0  0  0  0  0  0  0  0999 V2000
   41.2700   72.8920   61.0300 C   0  0  0  0  0  0  0  0  0  0  0  0
   41.6160   72.6770   62.3630 C   0  0  0  0  0  0  0  0  0  0  0  0
   42.0850   71.4590   62.7090 C   0  0  0  0  0  0  0  0  0  0  0  0
   42.2070   70.4630   61.7380 C   0  0  0  0  0  0  0  0  0  0  0  0
   41.6120   71.3100   60.1960 S   0  0  0  0  0  0  0  0  0  0  0  0
   41.5210   73.4510   63.1130 H   0  0  0  0  0  0  0  0  0  0  0  0
   42.4010   71.1020   63.6770 H   0  0  0  0  0  0  0  0  0  0  0  0
   40.6680   75.7020   58.7650 C   0  0  0  0  0  0  0  0  0  0  0  0
   39.7840   76.5300   59.5060 C   0  0  0  0  0  0  0  0  0  0  0  0
   39.4060   76.1110   60.7760 C   0  0  0  0  0  0  0  0  0  0  0  0
   39.9010   74.9370   61.2350 N   0  0  0  0  0  0  0  0  0  0  0  0
   40.7440   74.1710   60.5020 C   0  0  0  0  0  0  0  0  0  0  0  0
   41.1120   74.5520   59.2980 N   0  0  0  0  0  0  0  0  0  0  0  0
   41.0200   75.9430   57.7680 H   0  0  0  0  0  0  0  0  0  0  0  0
   39.4490   77.4400   59.0520 H   0  0  0  0  0  0  0  0  0  0  0  0
   38.7340   76.7240   61.3600 H   0  0  0  0  0  0  0  0  0  0  0  0
   42.6420   69.1020   61.6980 C   0  0  0  0  0  0  0  0  0  0  0  0
   43.9660   68.8300   61.5110 C   0  0  0  0  0  0  0  0  0  0  0  0
   44.2460   67.4550   61.4930 C   0  0  0  0  0  0  0  0  0  0  0  0
   43.3170   66.4920   61.6440 N   0  0  0  0  0  0  0  0  0  0  0  0
   42.0300   66.8600   61.8240 C   0  0  0  0  0  0  0  0  0  0  0  0
   41.6810   68.1770   61.8520 N   0  0  0  0  0  0  0  0  0  0  0  0
   44.7520   69.5460   61.3840 H   0  0  0  0  0  0  0  0  0  0  0  0
   45.2890   67.1430   61.3470 H   0  0  0  0  0  0  0  0  0  0  0  0
   41.0260   65.8190   61.9870 C   0  0  0  0  0  0  0  0  0  0  0  0
   40.3680   65.5300   61.1800 H   0  0  0  0  0  0  0  0  0  0  0  0
   40.9490   65.2610   63.1110 O   0  0  0  0  0  0  0  0  0  0  0  0
  1  2  2  0  0  0  0
  2  3  1  0  0  0  0
  2  6  1  0  0  0  0
  3  7  1  0  0  0  0
  4  3  2  0  0  0  0
  5  1  1  0  0  0  0
  5  4  1  0  0  0  0
  8 13  2  0  0  0  0
  8  9  1  0  0  0  0
  9 10  2  0  0  0  0
 10 11  1  0  0  0  0
 10 16  1  0  0  0  0
 12  1  1  0  0  0  0
 12 11  2  0  0  0  0
 13 12  1  0  0  0  0
 14  8  1  0  0  0  0
 15  9  1  0  0  0  0
 17  4  1  0  0  0  0
 17 22  1  0  0  0  0
 18 17  2  0  0  0  0
 19 18  1  0  0  0  0
 19 20  2  0  0  0  0
 20 21  1  0  0  0  0
 21 22  2  0  0  0  0
 21 25  1  0  0  0  0
 23 18  1  0  0  0  0
 24 19  1  0  0  0  0
 25 27  2  0  0  0  0
 26 25  1  0  0  0  0
M  END
>  <minimizedAffinity>
-5.13182783

$$$$

 OpenBabel03212520543D

 27 29  0  0  0  0  0  0  0  0999 V2000
   41.5710   71.5750   60.9590 C   0  0  0  0  0  0  0  0  0  0  0  0
   41.1190   72.4200   61.9710 C   0  0  0  0  0  0  0  0  0  0  0  0
   40.5080   73.5700   61.6130 C   0  0  0  0  0  0  0  0  0  0  0  0
   40.3490   73.8760   60.2600 C   0  0  0  0  0  0  0  0  0  0  0  0
   41.1250   72.4190   59.4090 S   0  0  0  0  0  0  0  0  0  0  0  0
   41.2440   72.1800   63.0190 H   0  0  0  0  0  0  0  0  0  0  0  0
   40.0960   74.3440   62.2410 H   0  0  0  0  0  0  0  0  0  0  0  0
   42.8530   68.1950   60.3930 C   0  0  0  0  0  0  0  0  0  0  0  0
   43.5180   67.8940   61.6120 C   0  0  0  0  0  0  0  0  0  0  0  0
   43.5170   68.8580   62.6120 C   0  0  0  0  0  0  0  0  0  0  0  0
   42.8830   70.0290   62.3700 N   0  0  0  0  0  0  0  0  0  0  0  0
   42.2570   70.2850   61.1960 C   0  0  0  0  0  0  0  0  0  0  0  0
   42.2490   69.3840   60.2380 N   0  0  0  0  0  0  0  0  0  0  0  0
   42.8000   67.5090   59.5560 H   0  0  0  0  0  0  0  0  0  0  0  0
   43.9900   66.9380   61.7030 H   0  0  0  0  0  0  0  0  0  0  0  0
   44.0170   68.6520   63.5490 H   0  0  0  0  0  0  0  0  0  0  0  0
   39.7810   74.9450   59.4990 C   0  0  0  0  0  0  0  0  0  0  0  0
   40.2090   76.2220   59.7190 C   0  0  0  0  0  0  0  0  0  0  0  0
   39.5640   77.1640   58.9040 C   0  0  0  0  0  0  0  0  0  0  0  0
   38.6200   76.8570   57.9940 N   0  0  0  0  0  0  0  0  0  0  0  0
   38.2610   75.5630   57.8480 C   0  0  0  0  0  0  0  0  0  0  0  0
   38.8430   74.5910   58.6050 N   0  0  0  0  0  0  0  0  0  0  0  0
   40.9520   76.5310   60.4240 H   0  0  0  0  0  0  0  0  0  0  0  0
   39.8470   78.2200   59.0130 H   0  0  0  0  0  0  0  0  0  0  0  0
   37.2400   75.2310   56.8650 C   0  0  0  0  0  0  0  0  0  0  0  0
   37.0350   74.2100   56.5790 H   0  0  0  0  0  0  0  0  0  0  0  0
   36.5980   76.1840   56.3550 O   0  0  0  0  0  0  0  0  0  0  0  0
  1 12  1  0  0  0  0
  1  2  2  0  0  0  0
  2  6  1  0  0  0  0
  3  2  1  0  0  0  0
  3  7  1  0  0  0  0
  4  3  2  0  0  0  0
  5  4  1  0  0  0  0
  5  1  1  0  0  0  0
  8  9  1  0  0  0  0
  9 15  1  0  0  0  0
  9 10  2  0  0  0  0
 10 16  1  0  0  0  0
 11 10  1  0  0  0  0
 12 11  2  0  0  0  0
 13  8  2  0  0  0  0
 13 12  1  0  0  0  0
 14  8  1  0  0  0  0
 17 18  1  0  0  0  0
 17  4  1  0  0  0  0
 18 23  1  0  0  0  0
 19 24  1  0  0  0  0
 19 18  2  0  0  0  0
 20 19  1  0  0  0  0
 21 20  2  0  0  0  0
 21 22  1  0  0  0  0
 22 17  2  0  0  0  0
 25 21  1  0  0  0  0
 26 25  1  0  0  0  0
 27 25  2  0  0  0  0
M  END
>  <minimizedAffinity>
-5.09872723

$$$$

 OpenBabel03212520543D

 27 29  0  0  0  0  0  0  0  0999 V2000
   41.9530   69.4680   62.0710 C   0  0  0  0  0  0  0  0  0  0  0  0
   41.9800   70.5380   62.9630 C   0  0  0  0  0  0  0  0  0  0  0  0
   42.3540   71.7480   62.4940 C   0  0  0  0  0  0  0  0  0  0  0  0
   42.6990   71.8910   61.1480 C   0  0  0  0  0  0  0  0  0  0  0  0
   42.4780   70.1730   60.4760 S   0  0  0  0  0  0  0  0  0  0  0  0
   41.7120   70.4240   64.0060 H   0  0  0  0  0  0  0  0  0  0  0  0
   42.4380   72.6850   63.0210 H   0  0  0  0  0  0  0  0  0  0  0  0
   40.0550   66.6770   63.4840 C   0  0  0  0  0  0  0  0  0  0  0  0
   40.8330   65.5440   63.1260 C   0  0  0  0  0  0  0  0  0  0  0  0
   42.0010   65.7550   62.4020 C   0  0  0  0  0  0  0  0  0  0  0  0
   42.3310   67.0270   62.0790 N   0  0  0  0  0  0  0  0  0  0  0  0
   41.5660   68.0870   62.4370 C   0  0  0  0  0  0  0  0  0  0  0  0
   40.4580   67.9060   63.1210 N   0  0  0  0  0  0  0  0  0  0  0  0
   39.1310   66.6150   64.0470 H   0  0  0  0  0  0  0  0  0  0  0  0
   40.4840   64.5790   63.4300 H   0  0  0  0  0  0  0  0  0  0  0  0
   42.6100   64.9080   62.1180 H   0  0  0  0  0  0  0  0  0  0  0  0
   43.1290   72.9550   60.2960 C   0  0  0  0  0  0  0  0  0  0  0  0
   42.3040   74.0230   60.0920 C   0  0  0  0  0  0  0  0  0  0  0  0
   42.8560   74.9860   59.2350 C   0  0  0  0  0  0  0  0  0  0  0  0
   44.0720   74.8850   58.6650 N   0  0  0  0  0  0  0  0  0  0  0  0
   44.8170   73.7890   58.9260 C   0  0  0  0  0  0  0  0  0  0  0  0
   44.3470   72.8090   59.7490 N   0  0  0  0  0  0  0  0  0  0  0  0
   41.3300   74.1640   60.5140 H   0  0  0  0  0  0  0  0  0  0  0  0
   42.2590   75.8820   59.0150 H   0  0  0  0  0  0  0  0  0  0  0  0
   46.1310   73.6790   58.3100 C   0  0  0  0  0  0  0  0  0  0  0  0
   46.4640   74.3710   57.5510 H   0  0  0  0  0  0  0  0  0  0  0  0
   46.8730   72.7400   58.6960 O   0  0  0  0  0  0  0  0  0  0  0  0
  1 12  1  0  0  0  0
  1  2  2  0  0  0  0
  2  6  1  0  0  0  0
  3  2  1  0  0  0  0
  3  7  1  0  0  0  0
  4  3  2  0  0  0  0
  5  4  1  0  0  0  0
  5  1  1  0  0  0  0
  8 14  1  0  0  0  0
  9 15  1  0  0  0  0
  9  8  1  0  0  0  0
 10  9  2  0  0  0  0
 11 10  1  0  0  0  0
 11 12  2  0  0  0  0
 12 13  1  0  0  0  0
 13  8  2  0  0  0  0
 16 10  1  0  0  0  0
 17  4  1  0  0  0  0
 18 17  1  0  0  0  0
 18 23  1  0  0  0  0
 19 18  2  0  0  0  0
 20 21  2  0  0  0  0
 20 19  1  0  0  0  0
 21 22  1  0  0  0  0
 22 17  2  0  0  0  0
 24 19  1  0  0  0  0
 25 27  2  0  0  0  0
 25 21  1  0  0  0  0
 26 25  1  0  0  0  0
M  END
>  <minimizedAffinity>
-4.99822521

$$$$

 OpenBabel03212520543D

 27 29  0  0  0  0  0  0  0  0999 V2000
   42.1050   69.7670   61.7600 C   0  0  0  0  0  0  0  0  0  0  0  0
   41.9820   70.5830   62.8830 C   0  0  0  0  0  0  0  0  0  0  0  0
   41.7060   71.8910   62.6910 C   0  0  0  0  0  0  0  0  0  0  0  0
   41.5550   72.3830   61.3930 C   0  0  0  0  0  0  0  0  0  0  0  0
   41.8220   70.8750   60.3420 S   0  0  0  0  0  0  0  0  0  0  0  0
   42.0990   70.1980   63.8880 H   0  0  0  0  0  0  0  0  0  0  0  0
   41.5750   72.6720   63.4230 H   0  0  0  0  0  0  0  0  0  0  0  0
   41.9820   66.2530   62.7690 C   0  0  0  0  0  0  0  0  0  0  0  0
   42.9440   65.6400   61.9230 C   0  0  0  0  0  0  0  0  0  0  0  0
   43.6220   66.4450   61.0150 C   0  0  0  0  0  0  0  0  0  0  0  0
   43.3290   67.7660   60.9880 N   0  0  0  0  0  0  0  0  0  0  0  0
   42.4050   68.3190   61.8100 C   0  0  0  0  0  0  0  0  0  0  0  0
   41.7530   67.5730   62.6750 N   0  0  0  0  0  0  0  0  0  0  0  0
   41.4040   65.7100   63.5080 H   0  0  0  0  0  0  0  0  0  0  0  0
   43.1020   64.5860   62.0230 H   0  0  0  0  0  0  0  0  0  0  0  0
   44.3590   66.0010   60.3590 H   0  0  0  0  0  0  0  0  0  0  0  0
   41.2710   73.6480   60.7910 C   0  0  0  0  0  0  0  0  0  0  0  0
   40.1360   74.3170   61.1470 C   0  0  0  0  0  0  0  0  0  0  0  0
   39.9880   75.5410   60.4760 C   0  0  0  0  0  0  0  0  0  0  0  0
   40.8650   76.0190   59.5730 N   0  0  0  0  0  0  0  0  0  0  0  0
   41.9600   75.2840   59.2850 C   0  0  0  0  0  0  0  0  0  0  0  0
   42.1720   74.0840   59.8960 N   0  0  0  0  0  0  0  0  0  0  0  0
   39.4020   73.9930   61.8550 H   0  0  0  0  0  0  0  0  0  0  0  0
   39.1010   76.1480   60.7010 H   0  0  0  0  0  0  0  0  0  0  0  0
   42.9080   75.8000   58.3080 C   0  0  0  0  0  0  0  0  0  0  0  0
   42.7140   76.7040   57.7500 H   0  0  0  0  0  0  0  0  0  0  0  0
   43.9710   75.1520   58.1350 O   0  0  0  0  0  0  0  0  0  0  0  0
  1 12  1  0  0  0  0
  1  2  2  0  0  0  0
  2  6  1  0  0  0  0
  3  2  1  0  0  0  0
  3  7  1  0  0  0  0
  4  3  2  0  0  0  0
  5  4  1  0  0  0  0
  5  1  1  0  0  0  0
  8 14  1  0  0  0  0
  9 15  1  0  0  0  0
  9  8  2  0  0  0  0
 10  9  1  0  0  0  0
 11 10  2  0  0  0  0
 11 12  1  0  0  0  0
 12 13  2  0  0  0  0
 13  8  1  0  0  0  0
 16 10  1  0  0  0  0
 17 18  1  0  0  0  0
 17  4  1  0  0  0  0
 18 23  1  0  0  0  0
 19 24  1  0  0  0  0
 19 18  2  0  0  0  0
 20 19  1  0  0  0  0
 21 20  2  0  0  0  0
 21 22  1  0  0  0  0
 22 17  2  0  0  0  0
 25 21  1  0  0  0  0
 26 25  1  0  0  0  0
 27 25  2  0  0  0  0
M  END
>  <minimizedAffinity>
-4.84974861

$$$$

 OpenBabel03212520543D

 27 29  0  0  0  0  0  0  0  0999 V2000
   38.2960   74.3470   56.9790 C   0  0  0  0  0  0  0  0  0  0  0  0
   38.1430   72.9620   56.9560 C   0  0  0  0  0  0  0  0  0  0  0  0
   38.7890   72.2360   57.8940 C   0  0  0  0  0  0  0  0  0  0  0  0
   39.5810   72.8830   58.8440 C   0  0  0  0  0  0  0  0  0  0  0  0
   39.4050   74.6740   58.3850 S   0  0  0  0  0  0  0  0  0  0  0  0
   37.5270   72.4640   56.2180 H   0  0  0  0  0  0  0  0  0  0  0  0
   38.7950   71.1670   58.0400 H   0  0  0  0  0  0  0  0  0  0  0  0
   36.9760   75.6970   53.8440 C   0  0  0  0  0  0  0  0  0  0  0  0
   36.4710   76.9680   54.2270 C   0  0  0  0  0  0  0  0  0  0  0  0
   36.5910   77.3440   55.5600 C   0  0  0  0  0  0  0  0  0  0  0  0
   37.1820   76.4790   56.4180 N   0  0  0  0  0  0  0  0  0  0  0  0
   37.6530   75.2730   56.0190 C   0  0  0  0  0  0  0  0  0  0  0  0
   37.5480   74.9000   54.7620 N   0  0  0  0  0  0  0  0  0  0  0  0
   36.9290   75.3150   52.8310 H   0  0  0  0  0  0  0  0  0  0  0  0
   36.0200   77.5780   53.4720 H   0  0  0  0  0  0  0  0  0  0  0  0
   36.2140   78.3070   55.8760 H   0  0  0  0  0  0  0  0  0  0  0  0
   40.3920   72.4930   59.9560 C   0  0  0  0  0  0  0  0  0  0  0  0
   40.0960   72.9710   61.1990 C   0  0  0  0  0  0  0  0  0  0  0  0
   40.9750   72.5060   62.1880 C   0  0  0  0  0  0  0  0  0  0  0  0
   42.0070   71.6740   61.9530 N   0  0  0  0  0  0  0  0  0  0  0  0
   42.2210   71.2540   60.6880 C   0  0  0  0  0  0  0  0  0  0  0  0
   41.4090   71.6630   59.6730 N   0  0  0  0  0  0  0  0  0  0  0  0
   39.2940   73.6330   61.4520 H   0  0  0  0  0  0  0  0  0  0  0  0
   40.8120   72.8420   63.2220 H   0  0  0  0  0  0  0  0  0  0  0  0
   43.3370   70.3540   60.4330 C   0  0  0  0  0  0  0  0  0  0  0  0
   43.3130   69.3170   60.7330 H   0  0  0  0  0  0  0  0  0  0  0  0
   44.3410   70.8310   59.8450 O   0  0  0  0  0  0  0  0  0  0  0  0
  1  5  1  0  0  0  0
  2  1  2  0  0  0  0
  2  3  1  0  0  0  0
  3  7  1  0  0  0  0
  3  4  2  0  0  0  0
  4 17  1  0  0  0  0
  5  4  1  0  0  0  0
  6  2  1  0  0  0  0
  8  9  2  0  0  0  0
  8 13  1  0  0  0  0
  9 10  1  0  0  0  0
 10 16  1  0  0  0  0
 10 11  2  0  0  0  0
 12 11  1  0  0  0  0
 12  1  1  0  0  0  0
 13 12  2  0  0  0  0
 14  8  1  0  0  0  0
 15  9  1  0  0  0  0
 17 18  1  0  0  0  0
 18 23  1  0  0  0  0
 18 19  2  0  0  0  0
 19 24  1  0  0  0  0
 20 19  1  0  0  0  0
 21 20  2  0  0  0  0
 22 17  2  0  0  0  0
 22 21  1  0  0  0  0
 25 21  1  0  0  0  0
 25 26  1  0  0  0  0
 27 25  2  0  0  0  0
M  END
>  <minimizedAffinity>
-4.81229305

$$$$

 OpenBabel03212520543D

 27 29  0  0  0  0  0  0  0  0999 V2000
   40.1300   74.2530   59.4350 C   0  0  0  0  0  0  0  0  0  0  0  0
   39.5380   75.4990   59.6360 C   0  0  0  0  0  0  0  0  0  0  0  0
   38.8480   76.0460   58.6120 C   0  0  0  0  0  0  0  0  0  0  0  0
   38.7500   75.3600   57.4000 C   0  0  0  0  0  0  0  0  0  0  0  0
   39.7100   73.8040   57.7220 S   0  0  0  0  0  0  0  0  0  0  0  0
   39.6160   76.0280   60.5770 H   0  0  0  0  0  0  0  0  0  0  0  0
   38.3260   76.9890   58.5710 H   0  0  0  0  0  0  0  0  0  0  0  0
   40.9270   72.1840   62.3460 C   0  0  0  0  0  0  0  0  0  0  0  0
   42.3480   72.1870   62.3650 C   0  0  0  0  0  0  0  0  0  0  0  0
   43.0120   72.9020   61.3760 C   0  0  0  0  0  0  0  0  0  0  0  0
   42.2710   73.5540   60.4500 N   0  0  0  0  0  0  0  0  0  0  0  0
   40.9160   73.5300   60.4610 C   0  0  0  0  0  0  0  0  0  0  0  0
   40.2700   72.8590   61.3890 N   0  0  0  0  0  0  0  0  0  0  0  0
   40.3200   71.6570   63.0740 H   0  0  0  0  0  0  0  0  0  0  0  0
   42.8400   71.6390   63.1410 H   0  0  0  0  0  0  0  0  0  0  0  0
   44.0940   72.9190   61.3690 H   0  0  0  0  0  0  0  0  0  0  0  0
   38.1360   75.5860   56.1280 C   0  0  0  0  0  0  0  0  0  0  0  0
   37.0380   76.3930   56.0500 C   0  0  0  0  0  0  0  0  0  0  0  0
   36.5440   76.5210   54.7430 C   0  0  0  0  0  0  0  0  0  0  0  0
   37.0850   75.9190   53.6670 N   0  0  0  0  0  0  0  0  0  0  0  0
   38.1720   75.1370   53.8440 C   0  0  0  0  0  0  0  0  0  0  0  0
   38.7090   74.9640   55.0850 N   0  0  0  0  0  0  0  0  0  0  0  0
   36.5610   76.8990   56.8640 H   0  0  0  0  0  0  0  0  0  0  0  0
   35.6600   77.1540   54.5870 H   0  0  0  0  0  0  0  0  0  0  0  0
   38.7560   74.4860   52.6810 C   0  0  0  0  0  0  0  0  0  0  0  0
   39.4450   73.6600   52.7770 H   0  0  0  0  0  0  0  0  0  0  0  0
   38.4270   74.9220   51.5490 O   0  0  0  0  0  0  0  0  0  0  0  0
  1  2  2  0  0  0  0
  1 12  1  0  0  0  0
  2  6  1  0  0  0  0
  3  2  1  0  0  0  0
  4  5  1  0  0  0  0
  4  3  2  0  0  0  0
  5  1  1  0  0  0  0
  7  3  1  0  0  0  0
  8  9  1  0  0  0  0
  8 14  1  0  0  0  0
  9 15  1  0  0  0  0
 10  9  2  0  0  0  0
 11 12  2  0  0  0  0
 11 10  1  0  0  0  0
 12 13  1  0  0  0  0
 13  8  2  0  0  0  0
 16 10  1  0  0  0  0
 17  4  1  0  0  0  0
 18 17  1  0  0  0  0
 18 23  1  0  0  0  0
 19 18  2  0  0  0  0
 20 21  2  0  0  0  0
 20 19  1  0  0  0  0
 21 22  1  0  0  0  0
 22 17  2  0  0  0  0
 24 19  1  0  0  0  0
 25 26  1  0  0  0  0
 25 21  1  0  0  0  0
 27 25  2  0  0  0  0
M  END
>  <minimizedAffinity>
-4.79933119

$$$$
