
 OpenBabel03212520523D

 19 20  0  0  0  0  0  0  0  0999 V2000
   42.7630   82.1650   62.4200 C   0  0  0  0  0  0  0  0  0  0  0  0
   41.8780   81.2020   61.8970 C   0  0  0  0  0  0  0  0  0  0  0  0
   40.5830   81.5490   61.6790 C   0  0  0  0  0  0  0  0  0  0  0  0
   40.1650   82.8610   61.9820 C   0  0  0  0  0  0  0  0  0  0  0  0
   41.7070   83.6580   62.6180 S   0  0  0  0  0  0  0  0  0  0  0  0
   42.2220   80.2030   61.6740 H   0  0  0  0  0  0  0  0  0  0  0  0
   39.8010   80.9220   61.2860 H   0  0  0  0  0  0  0  0  0  0  0  0
   46.2410   82.8300   63.2780 C   0  0  0  0  0  0  0  0  0  0  0  0
   46.8390   81.5380   63.2340 C   0  0  0  0  0  0  0  0  0  0  0  0
   46.0120   80.4370   62.9030 C   0  0  0  0  0  0  0  0  0  0  0  0
   44.7030   80.6920   62.6500 N   0  0  0  0  0  0  0  0  0  0  0  0
   44.1830   81.9300   62.7030 C   0  0  0  0  0  0  0  0  0  0  0  0
   44.9280   82.9860   63.0100 N   0  0  0  0  0  0  0  0  0  0  0  0
   46.8650   83.6830   63.5300 H   0  0  0  0  0  0  0  0  0  0  0  0
   47.8850   81.4220   63.4490 H   0  0  0  0  0  0  0  0  0  0  0  0
   46.4430   79.4470   62.8650 H   0  0  0  0  0  0  0  0  0  0  0  0
   38.9730   83.5500   61.8950 C   0  0  0  0  0  0  0  0  0  0  0  0
   38.2390   83.3210   62.6540 H   0  0  0  0  0  0  0  0  0  0  0  0
   38.8130   84.3820   60.9650 O   0  0  0  0  0  0  0  0  0  0  0  0
  1  5  1  0  0  0  0
  1 12  1  0  0  0  0
  2  1  2  0  0  0  0
  3  2  1  0  0  0  0
  3  4  2  0  0  0  0
  4  5  1  0  0  0  0
  6  2  1  0  0  0  0
  7  3  1  0  0  0  0
  8 14  1  0  0  0  0
  9  8  1  0  0  0  0
  9 15  1  0  0  0  0
 10  9  2  0  0  0  0
 11 12  2  0  0  0  0
 11 10  1  0  0  0  0
 12 13  1  0  0  0  0
 13  8  2  0  0  0  0
 16 10  1  0  0  0  0
 17  4  1  0  0  0  0
 17 18  1  0  0  0  0
 19 17  2  0  0  0  0
M  END
>  <minimizedAffinity>
-4.1636982

>  <minimizedRMSD>
5.81078434

$$$$
