
 OpenBabel03212521063D

 30 32  0  0  0  0  0  0  0  0999 V2000
   41.8110   84.2410   61.5740 C   0  0  0  0  0  0  0  0  0  0  0  0
   41.4380   83.9690   62.8840 C   0  0  0  0  0  0  0  0  0  0  0  0
   40.1600   83.5560   63.2030 C   0  0  0  0  0  0  0  0  0  0  0  0
   39.2200   83.4080   62.1830 C   0  0  0  0  0  0  0  0  0  0  0  0
   39.5960   83.6820   60.8710 C   0  0  0  0  0  0  0  0  0  0  0  0
   40.8690   84.0910   60.5720 C   0  0  0  0  0  0  0  0  0  0  0  0
   42.1530   84.0750   63.7100 H   0  0  0  0  0  0  0  0  0  0  0  0
   39.8720   83.3440   64.2250 H   0  0  0  0  0  0  0  0  0  0  0  0
   38.1990   83.0860   62.3780 H   0  0  0  0  0  0  0  0  0  0  0  0
   38.8470   83.5590   60.1020 H   0  0  0  0  0  0  0  0  0  0  0  0
   45.3660   84.1250   60.7360 C   0  0  0  0  0  0  0  0  0  0  0  0
   45.7410   85.4560   60.7760 C   0  0  0  0  0  0  0  0  0  0  0  0
   44.7600   86.4150   61.0970 C   0  0  0  0  0  0  0  0  0  0  0  0
   43.5090   85.9810   61.3460 N   0  0  0  0  0  0  0  0  0  0  0  0
   43.1700   84.6730   61.2990 C   0  0  0  0  0  0  0  0  0  0  0  0
   44.1000   83.7600   60.9950 N   0  0  0  0  0  0  0  0  0  0  0  0
   46.1410   83.3870   60.4850 H   0  0  0  0  0  0  0  0  0  0  0  0
   46.7220   85.8190   60.5830 H   0  0  0  0  0  0  0  0  0  0  0  0
   45.0180   87.4470   61.1350 H   0  0  0  0  0  0  0  0  0  0  0  0
   41.2170   84.3660   59.1840 C   0  0  0  0  0  0  0  0  0  0  0  0
   40.7510   85.6290   58.7870 C   0  0  0  0  0  0  0  0  0  0  0  0
   40.9820   86.0840   57.4900 C   0  0  0  0  0  0  0  0  0  0  0  0
   41.6570   85.2740   56.6540 N   0  0  0  0  0  0  0  0  0  0  0  0
   42.0980   84.0560   57.0580 C   0  0  0  0  0  0  0  0  0  0  0  0
   41.8800   83.6150   58.3010 N   0  0  0  0  0  0  0  0  0  0  0  0
   40.1970   86.3390   59.4130 H   0  0  0  0  0  0  0  0  0  0  0  0
   40.6450   87.0430   57.1410 H   0  0  0  0  0  0  0  0  0  0  0  0
   42.8280   83.1710   56.1660 C   0  0  0  0  0  0  0  0  0  0  0  0
   42.4440   82.3240   55.6230 H   0  0  0  0  0  0  0  0  0  0  0  0
   44.0740   83.3040   55.9120 O   0  0  0  0  0  0  0  0  0  0  0  0
  1  2  1  0  0  0  0
  2  3  2  0  0  0  0
  2  7  1  0  0  0  0
  3  8  1  0  0  0  0
  4  9  1  0  0  0  0
  4  3  1  0  0  0  0
  5  4  2  0  0  0  0
  6  5  1  0  0  0  0
  6  1  2  0  0  0  0
 10  5  1  0  0  0  0
 11 12  2  0  0  0  0
 11 16  1  0  0  0  0
 12 13  1  0  0  0  0
 13 19  1  0  0  0  0
 13 14  2  0  0  0  0
 15 14  1  0  0  0  0
 15  1  1  0  0  0  0
 16 15  2  0  0  0  0
 17 11  1  0  0  0  0
 18 12  1  0  0  0  0
 20  6  1  0  0  0  0
 21 20  1  0  0  0  0
 21 26  1  0  0  0  0
 22 21  2  0  0  0  0
 23 24  2  0  0  0  0
 23 22  1  0  0  0  0
 24 25  1  0  0  0  0
 25 20  2  0  0  0  0
 27 22  1  0  0  0  0
 28 24  1  0  0  0  0
 29 28  1  0  0  0  0
 30 28  2  0  0  0  0
M  END
>  <minimizedAffinity>
-5.08999348

>  <minimizedRMSD>
0.0572297163

$$$$
