
 OpenBabel03212521063D

 30 32  0  0  0  0  0  0  0  0999 V2000
   41.7860   84.1610   61.5500 C   0  0  0  0  0  0  0  0  0  0  0  0
   41.4260   83.9070   62.8680 C   0  0  0  0  0  0  0  0  0  0  0  0
   40.1360   83.5580   63.2130 C   0  0  0  0  0  0  0  0  0  0  0  0
   39.1690   83.4570   62.2120 C   0  0  0  0  0  0  0  0  0  0  0  0
   39.5320   83.7110   60.8930 C   0  0  0  0  0  0  0  0  0  0  0  0
   40.8170   84.0580   60.5680 C   0  0  0  0  0  0  0  0  0  0  0  0
   42.1630   83.9780   63.6790 H   0  0  0  0  0  0  0  0  0  0  0  0
   39.8590   83.3610   64.2410 H   0  0  0  0  0  0  0  0  0  0  0  0
   38.1380   83.1860   62.4290 H   0  0  0  0  0  0  0  0  0  0  0  0
   38.7610   83.6260   60.1400 H   0  0  0  0  0  0  0  0  0  0  0  0
   45.2780   83.8900   60.5130 C   0  0  0  0  0  0  0  0  0  0  0  0
   45.7530   85.1810   60.6670 C   0  0  0  0  0  0  0  0  0  0  0  0
   44.8600   86.1660   61.1360 C   0  0  0  0  0  0  0  0  0  0  0  0
   43.5940   85.7950   61.4070 N   0  0  0  0  0  0  0  0  0  0  0  0
   43.1580   84.5250   61.2470 C   0  0  0  0  0  0  0  0  0  0  0  0
   44.0020   83.5870   60.8020 N   0  0  0  0  0  0  0  0  0  0  0  0
   45.9850   83.1320   60.1460 H   0  0  0  0  0  0  0  0  0  0  0  0
   46.7470   85.4940   60.4590 H   0  0  0  0  0  0  0  0  0  0  0  0
   45.1950   87.1680   61.2650 H   0  0  0  0  0  0  0  0  0  0  0  0
   41.1490   84.3150   59.1720 C   0  0  0  0  0  0  0  0  0  0  0  0
   40.9540   85.6660   58.8470 C   0  0  0  0  0  0  0  0  0  0  0  0
   41.2170   86.1200   57.5560 C   0  0  0  0  0  0  0  0  0  0  0  0
   41.6560   85.2220   56.6550 N   0  0  0  0  0  0  0  0  0  0  0  0
   41.8370   83.9200   56.9900 C   0  0  0  0  0  0  0  0  0  0  0  0
   41.5870   83.4790   58.2270 N   0  0  0  0  0  0  0  0  0  0  0  0
   40.6010   86.4490   59.5290 H   0  0  0  0  0  0  0  0  0  0  0  0
   41.0830   87.1450   57.2610 H   0  0  0  0  0  0  0  0  0  0  0  0
   42.3100   82.9390   56.0260 C   0  0  0  0  0  0  0  0  0  0  0  0
   43.3240   82.6140   55.8670 H   0  0  0  0  0  0  0  0  0  0  0  0
   41.5360   82.3210   55.2180 O   0  0  0  0  0  0  0  0  0  0  0  0
  1  2  1  0  0  0  0
  2  3  2  0  0  0  0
  2  7  1  0  0  0  0
  3  8  1  0  0  0  0
  4  9  1  0  0  0  0
  4  3  1  0  0  0  0
  5  4  2  0  0  0  0
  6  5  1  0  0  0  0
  6  1  2  0  0  0  0
 10  5  1  0  0  0  0
 11 12  2  0  0  0  0
 11 16  1  0  0  0  0
 12 13  1  0  0  0  0
 13 19  1  0  0  0  0
 13 14  2  0  0  0  0
 15 14  1  0  0  0  0
 15  1  1  0  0  0  0
 16 15  2  0  0  0  0
 17 11  1  0  0  0  0
 18 12  1  0  0  0  0
 20  6  1  0  0  0  0
 21 20  1  0  0  0  0
 21 26  1  0  0  0  0
 22 21  2  0  0  0  0
 23 24  2  0  0  0  0
 23 22  1  0  0  0  0
 24 25  1  0  0  0  0
 25 20  2  0  0  0  0
 27 22  1  0  0  0  0
 28 24  1  0  0  0  0
 29 28  1  0  0  0  0
 30 28  2  0  0  0  0
M  END
>  <minimizedAffinity>
-5.24763346

>  <minimizedRMSD>
0.349615037

$$$$
