
 OpenBabel03212521053D

 30 32  0  0  0  0  0  0  0  0999 V2000
   41.8080   84.2380   61.5710 C   0  0  0  0  0  0  0  0  0  0  0  0
   41.4560   83.9750   62.8890 C   0  0  0  0  0  0  0  0  0  0  0  0
   40.1850   83.5560   63.2310 C   0  0  0  0  0  0  0  0  0  0  0  0
   39.2320   83.3920   62.2250 C   0  0  0  0  0  0  0  0  0  0  0  0
   39.5870   83.6560   60.9050 C   0  0  0  0  0  0  0  0  0  0  0  0
   40.8520   84.0710   60.5850 C   0  0  0  0  0  0  0  0  0  0  0  0
   42.1820   84.0940   63.7030 H   0  0  0  0  0  0  0  0  0  0  0  0
   39.9140   83.3520   64.2580 H   0  0  0  0  0  0  0  0  0  0  0  0
   38.2160   83.0640   62.4380 H   0  0  0  0  0  0  0  0  0  0  0  0
   38.8270   83.5210   60.1490 H   0  0  0  0  0  0  0  0  0  0  0  0
   45.3300   84.1470   60.6050 C   0  0  0  0  0  0  0  0  0  0  0  0
   45.7170   85.4730   60.7030 C   0  0  0  0  0  0  0  0  0  0  0  0
   44.7530   86.4180   61.1090 C   0  0  0  0  0  0  0  0  0  0  0  0
   43.5090   85.9780   61.3780 N   0  0  0  0  0  0  0  0  0  0  0  0
   43.1600   84.6760   61.2730 C   0  0  0  0  0  0  0  0  0  0  0  0
   44.0710   83.7750   60.8880 N   0  0  0  0  0  0  0  0  0  0  0  0
   46.0910   83.4200   60.2870 H   0  0  0  0  0  0  0  0  0  0  0  0
   46.6920   85.8400   60.4950 H   0  0  0  0  0  0  0  0  0  0  0  0
   45.0200   87.4450   61.1940 H   0  0  0  0  0  0  0  0  0  0  0  0
   41.1780   84.3360   59.1890 C   0  0  0  0  0  0  0  0  0  0  0  0
   40.8380   85.6500   58.8310 C   0  0  0  0  0  0  0  0  0  0  0  0
   41.0700   86.1040   57.5340 C   0  0  0  0  0  0  0  0  0  0  0  0
   41.6230   85.2430   56.6600 N   0  0  0  0  0  0  0  0  0  0  0  0
   41.9440   83.9770   57.0270 C   0  0  0  0  0  0  0  0  0  0  0  0
   41.7240   83.5360   58.2690 N   0  0  0  0  0  0  0  0  0  0  0  0
   40.3860   86.4010   59.4890 H   0  0  0  0  0  0  0  0  0  0  0  0
   40.8270   87.1000   57.2140 H   0  0  0  0  0  0  0  0  0  0  0  0
   42.5420   83.0360   56.0930 C   0  0  0  0  0  0  0  0  0  0  0  0
   43.5810   82.7670   56.0090 H   0  0  0  0  0  0  0  0  0  0  0  0
   41.8670   82.3900   55.2210 O   0  0  0  0  0  0  0  0  0  0  0  0
  1  2  1  0  0  0  0
  2  3  2  0  0  0  0
  2  7  1  0  0  0  0
  3  8  1  0  0  0  0
  4  9  1  0  0  0  0
  4  3  1  0  0  0  0
  5  4  2  0  0  0  0
  6  5  1  0  0  0  0
  6  1  2  0  0  0  0
 10  5  1  0  0  0  0
 11 12  2  0  0  0  0
 11 16  1  0  0  0  0
 12 13  1  0  0  0  0
 13 19  1  0  0  0  0
 13 14  2  0  0  0  0
 15 14  1  0  0  0  0
 15  1  1  0  0  0  0
 16 15  2  0  0  0  0
 17 11  1  0  0  0  0
 18 12  1  0  0  0  0
 20  6  1  0  0  0  0
 21 20  1  0  0  0  0
 21 26  1  0  0  0  0
 22 21  2  0  0  0  0
 23 24  2  0  0  0  0
 23 22  1  0  0  0  0
 24 25  1  0  0  0  0
 25 20  2  0  0  0  0
 27 22  1  0  0  0  0
 28 24  1  0  0  0  0
 29 28  1  0  0  0  0
 30 28  2  0  0  0  0
M  END
>  <minimizedAffinity>
-5.19938183

>  <minimizedRMSD>
0.210388303

$$$$
