
 OpenBabel03212521063D

 30 32  0  0  0  0  0  0  0  0999 V2000
   41.7860   84.1810   61.5680 C   0  0  0  0  0  0  0  0  0  0  0  0
   41.4180   83.9210   62.8830 C   0  0  0  0  0  0  0  0  0  0  0  0
   40.1280   83.5620   63.2170 C   0  0  0  0  0  0  0  0  0  0  0  0
   39.1700   83.4570   62.2080 C   0  0  0  0  0  0  0  0  0  0  0  0
   39.5410   83.7170   60.8920 C   0  0  0  0  0  0  0  0  0  0  0  0
   40.8260   84.0740   60.5790 C   0  0  0  0  0  0  0  0  0  0  0  0
   42.1480   83.9950   63.6990 H   0  0  0  0  0  0  0  0  0  0  0  0
   39.8440   83.3600   64.2420 H   0  0  0  0  0  0  0  0  0  0  0  0
   38.1390   83.1780   62.4160 H   0  0  0  0  0  0  0  0  0  0  0  0
   38.7770   83.6280   60.1330 H   0  0  0  0  0  0  0  0  0  0  0  0
   45.3060   83.9250   60.6230 C   0  0  0  0  0  0  0  0  0  0  0  0
   45.7530   85.2310   60.7210 C   0  0  0  0  0  0  0  0  0  0  0  0
   44.8330   86.2220   61.1200 C   0  0  0  0  0  0  0  0  0  0  0  0
   43.5680   85.8400   61.3820 N   0  0  0  0  0  0  0  0  0  0  0  0
   43.1590   84.5560   61.2770 C   0  0  0  0  0  0  0  0  0  0  0  0
   44.0300   83.6130   60.8990 N   0  0  0  0  0  0  0  0  0  0  0  0
   46.0340   83.1630   60.3100 H   0  0  0  0  0  0  0  0  0  0  0  0
   46.7460   85.5530   60.5190 H   0  0  0  0  0  0  0  0  0  0  0  0
   45.1470   87.2350   61.2050 H   0  0  0  0  0  0  0  0  0  0  0  0
   41.1670   84.3370   59.1860 C   0  0  0  0  0  0  0  0  0  0  0  0
   40.8500   85.6570   58.8290 C   0  0  0  0  0  0  0  0  0  0  0  0
   41.1000   86.1110   57.5360 C   0  0  0  0  0  0  0  0  0  0  0  0
   41.6480   85.2440   56.6640 N   0  0  0  0  0  0  0  0  0  0  0  0
   41.9470   83.9730   57.0300 C   0  0  0  0  0  0  0  0  0  0  0  0
   41.7090   83.5320   58.2690 N   0  0  0  0  0  0  0  0  0  0  0  0
   40.4040   86.4130   59.4860 H   0  0  0  0  0  0  0  0  0  0  0  0
   40.8750   87.1120   57.2160 H   0  0  0  0  0  0  0  0  0  0  0  0
   42.5380   83.0260   56.0980 C   0  0  0  0  0  0  0  0  0  0  0  0
   43.5760   82.7480   56.0160 H   0  0  0  0  0  0  0  0  0  0  0  0
   41.8580   82.3840   55.2260 O   0  0  0  0  0  0  0  0  0  0  0  0
  1  2  1  0  0  0  0
  2  3  2  0  0  0  0
  2  7  1  0  0  0  0
  3  8  1  0  0  0  0
  4  9  1  0  0  0  0
  4  3  1  0  0  0  0
  5  4  2  0  0  0  0
  6  5  1  0  0  0  0
  6  1  2  0  0  0  0
 10  5  1  0  0  0  0
 11 12  2  0  0  0  0
 11 16  1  0  0  0  0
 12 13  1  0  0  0  0
 13 19  1  0  0  0  0
 13 14  2  0  0  0  0
 15 14  1  0  0  0  0
 15  1  1  0  0  0  0
 16 15  2  0  0  0  0
 17 11  1  0  0  0  0
 18 12  1  0  0  0  0
 20  6  1  0  0  0  0
 21 20  1  0  0  0  0
 21 26  1  0  0  0  0
 22 21  2  0  0  0  0
 23 24  2  0  0  0  0
 23 22  1  0  0  0  0
 24 25  1  0  0  0  0
 25 20  2  0  0  0  0
 27 22  1  0  0  0  0
 28 24  1  0  0  0  0
 29 28  1  0  0  0  0
 30 28  2  0  0  0  0
M  END
>  <minimizedAffinity>
-5.18199539

>  <minimizedRMSD>
0.294794083

$$$$
