
 OpenBabel03212521053D

 30 32  0  0  0  0  0  0  0  0999 V2000
   41.8030   84.2460   61.5630 C   0  0  0  0  0  0  0  0  0  0  0  0
   41.4450   83.9490   62.8720 C   0  0  0  0  0  0  0  0  0  0  0  0
   40.1700   83.5330   63.1990 C   0  0  0  0  0  0  0  0  0  0  0  0
   39.2180   83.4060   62.1870 C   0  0  0  0  0  0  0  0  0  0  0  0
   39.5780   83.7040   60.8760 C   0  0  0  0  0  0  0  0  0  0  0  0
   40.8480   84.1170   60.5710 C   0  0  0  0  0  0  0  0  0  0  0  0
   42.1700   84.0380   63.6910 H   0  0  0  0  0  0  0  0  0  0  0  0
   39.8940   83.3020   64.2200 H   0  0  0  0  0  0  0  0  0  0  0  0
   38.1980   83.0830   62.3890 H   0  0  0  0  0  0  0  0  0  0  0  0
   38.8190   83.5980   60.1150 H   0  0  0  0  0  0  0  0  0  0  0  0
   45.3460   84.1390   60.6770 C   0  0  0  0  0  0  0  0  0  0  0  0
   45.7260   85.4690   60.7410 C   0  0  0  0  0  0  0  0  0  0  0  0
   44.7510   86.4230   61.0960 C   0  0  0  0  0  0  0  0  0  0  0  0
   43.5020   85.9870   61.3510 N   0  0  0  0  0  0  0  0  0  0  0  0
   43.1590   84.6800   61.2800 C   0  0  0  0  0  0  0  0  0  0  0  0
   44.0820   83.7720   60.9440 N   0  0  0  0  0  0  0  0  0  0  0  0
   46.1160   83.4060   60.3980 H   0  0  0  0  0  0  0  0  0  0  0  0
   46.7040   85.8330   60.5430 H   0  0  0  0  0  0  0  0  0  0  0  0
   45.0120   87.4530   61.1540 H   0  0  0  0  0  0  0  0  0  0  0  0
   41.1790   84.4180   59.1830 C   0  0  0  0  0  0  0  0  0  0  0  0
   40.6910   85.6800   58.8090 C   0  0  0  0  0  0  0  0  0  0  0  0
   40.9040   86.1570   57.5180 C   0  0  0  0  0  0  0  0  0  0  0  0
   41.5840   85.3700   56.6640 N   0  0  0  0  0  0  0  0  0  0  0  0
   42.0480   84.1530   57.0460 C   0  0  0  0  0  0  0  0  0  0  0  0
   41.8470   83.6900   58.2840 N   0  0  0  0  0  0  0  0  0  0  0  0
   40.1320   86.3710   59.4510 H   0  0  0  0  0  0  0  0  0  0  0  0
   40.5500   87.1160   57.1860 H   0  0  0  0  0  0  0  0  0  0  0  0
   42.7830   83.2920   56.1340 C   0  0  0  0  0  0  0  0  0  0  0  0
   43.0010   82.2440   56.2540 H   0  0  0  0  0  0  0  0  0  0  0  0
   43.2810   83.7030   55.0310 O   0  0  0  0  0  0  0  0  0  0  0  0
  1  2  1  0  0  0  0
  2  3  2  0  0  0  0
  2  7  1  0  0  0  0
  3  8  1  0  0  0  0
  4  9  1  0  0  0  0
  4  3  1  0  0  0  0
  5  4  2  0  0  0  0
  6  5  1  0  0  0  0
  6  1  2  0  0  0  0
 10  5  1  0  0  0  0
 11 12  2  0  0  0  0
 11 16  1  0  0  0  0
 12 13  1  0  0  0  0
 13 19  1  0  0  0  0
 13 14  2  0  0  0  0
 15 14  1  0  0  0  0
 15  1  1  0  0  0  0
 16 15  2  0  0  0  0
 17 11  1  0  0  0  0
 18 12  1  0  0  0  0
 20  6  1  0  0  0  0
 21 20  1  0  0  0  0
 21 26  1  0  0  0  0
 22 21  2  0  0  0  0
 23 24  2  0  0  0  0
 23 22  1  0  0  0  0
 24 25  1  0  0  0  0
 25 20  2  0  0  0  0
 27 22  1  0  0  0  0
 28 29  1  0  0  0  0
 28 24  1  0  0  0  0
 30 28  2  0  0  0  0
M  END
>  <minimizedAffinity>
-5.1005578

>  <minimizedRMSD>
0.129867449

$$$$
