
 OpenBabel03212521063D

 30 32  0  0  0  0  0  0  0  0999 V2000
   41.8070   84.2380   61.5710 C   0  0  0  0  0  0  0  0  0  0  0  0
   41.4550   83.9750   62.8890 C   0  0  0  0  0  0  0  0  0  0  0  0
   40.1840   83.5560   63.2300 C   0  0  0  0  0  0  0  0  0  0  0  0
   39.2310   83.3930   62.2250 C   0  0  0  0  0  0  0  0  0  0  0  0
   39.5860   83.6570   60.9050 C   0  0  0  0  0  0  0  0  0  0  0  0
   40.8520   84.0720   60.5850 C   0  0  0  0  0  0  0  0  0  0  0  0
   42.1810   84.0930   63.7030 H   0  0  0  0  0  0  0  0  0  0  0  0
   39.9120   83.3520   64.2580 H   0  0  0  0  0  0  0  0  0  0  0  0
   38.2150   83.0660   62.4370 H   0  0  0  0  0  0  0  0  0  0  0  0
   38.8270   83.5220   60.1480 H   0  0  0  0  0  0  0  0  0  0  0  0
   45.3300   84.1470   60.6050 C   0  0  0  0  0  0  0  0  0  0  0  0
   45.7170   85.4720   60.7030 C   0  0  0  0  0  0  0  0  0  0  0  0
   44.7540   86.4180   61.1100 C   0  0  0  0  0  0  0  0  0  0  0  0
   43.5090   85.9780   61.3780 N   0  0  0  0  0  0  0  0  0  0  0  0
   43.1590   84.6760   61.2730 C   0  0  0  0  0  0  0  0  0  0  0  0
   44.0710   83.7750   60.8880 N   0  0  0  0  0  0  0  0  0  0  0  0
   46.0900   83.4200   60.2860 H   0  0  0  0  0  0  0  0  0  0  0  0
   46.6920   85.8390   60.4960 H   0  0  0  0  0  0  0  0  0  0  0  0
   45.0210   87.4440   61.1950 H   0  0  0  0  0  0  0  0  0  0  0  0
   41.1770   84.3370   59.1890 C   0  0  0  0  0  0  0  0  0  0  0  0
   40.8380   85.6510   58.8300 C   0  0  0  0  0  0  0  0  0  0  0  0
   41.0700   86.1050   57.5340 C   0  0  0  0  0  0  0  0  0  0  0  0
   41.6230   85.2440   56.6600 N   0  0  0  0  0  0  0  0  0  0  0  0
   41.9440   83.9780   57.0270 C   0  0  0  0  0  0  0  0  0  0  0  0
   41.7240   83.5370   58.2690 N   0  0  0  0  0  0  0  0  0  0  0  0
   40.3860   86.4020   59.4890 H   0  0  0  0  0  0  0  0  0  0  0  0
   40.8270   87.1020   57.2140 H   0  0  0  0  0  0  0  0  0  0  0  0
   42.5420   83.0370   56.0930 C   0  0  0  0  0  0  0  0  0  0  0  0
   43.5820   82.7710   56.0070 H   0  0  0  0  0  0  0  0  0  0  0  0
   41.8660   82.3890   55.2220 O   0  0  0  0  0  0  0  0  0  0  0  0
  1  2  1  0  0  0  0
  2  3  2  0  0  0  0
  2  7  1  0  0  0  0
  3  8  1  0  0  0  0
  4  9  1  0  0  0  0
  4  3  1  0  0  0  0
  5  4  2  0  0  0  0
  6  5  1  0  0  0  0
  6  1  2  0  0  0  0
 10  5  1  0  0  0  0
 11 12  2  0  0  0  0
 11 16  1  0  0  0  0
 12 13  1  0  0  0  0
 13 19  1  0  0  0  0
 13 14  2  0  0  0  0
 15 14  1  0  0  0  0
 15  1  1  0  0  0  0
 16 15  2  0  0  0  0
 17 11  1  0  0  0  0
 18 12  1  0  0  0  0
 20  6  1  0  0  0  0
 21 20  1  0  0  0  0
 21 26  1  0  0  0  0
 22 21  2  0  0  0  0
 23 24  2  0  0  0  0
 23 22  1  0  0  0  0
 24 25  1  0  0  0  0
 25 20  2  0  0  0  0
 27 22  1  0  0  0  0
 28 24  1  0  0  0  0
 29 28  1  0  0  0  0
 30 28  2  0  0  0  0
M  END
>  <minimizedAffinity>
-5.19957924

>  <minimizedRMSD>
0.251378208

$$$$
