
 OpenBabel03212520043D

 35 38  0  0  0  0  0  0  0  0999 V2000
   40.7650   81.8040   57.1530 C   0  0  0  0  0  0  0  0  0  0  0  0
   41.8790   82.3390   56.4960 C   0  0  0  0  0  0  0  0  0  0  0  0
   42.6830   83.2120   57.1960 C   0  0  0  0  0  0  0  0  0  0  0  0
   42.3830   83.5280   58.4880 N   0  0  0  0  0  0  0  0  0  0  0  0
   41.2940   82.9890   59.0960 C   0  0  0  0  0  0  0  0  0  0  0  0
   40.4770   82.1240   58.4320 N   0  0  0  0  0  0  0  0  0  0  0  0
   40.0490   81.1140   56.7320 H   0  0  0  0  0  0  0  0  0  0  0  0
   41.9330   81.9210   55.5200 H   0  0  0  0  0  0  0  0  0  0  0  0
   39.6940   83.0950   60.9470 C   0  0  0  0  0  0  0  0  0  0  0  0
   40.9990   83.2960   60.4900 C   0  0  0  0  0  0  0  0  0  0  0  0
   42.0010   83.7610   61.3440 C   0  0  0  0  0  0  0  0  0  0  0  0
   41.7400   84.0390   62.6740 C   0  0  0  0  0  0  0  0  0  0  0  0
   42.4210   84.4780   63.7430 N   0  0  0  0  0  0  0  0  0  0  0  0
   41.6170   84.5560   64.8210 C   0  0  0  0  0  0  0  0  0  0  0  0
   40.4180   84.1520   64.3810 N   0  0  0  0  0  0  0  0  0  0  0  0
   40.4590   83.8290   63.0760 C   0  0  0  0  0  0  0  0  0  0  0  0
   39.4200   83.3740   62.2910 C   0  0  0  0  0  0  0  0  0  0  0  0
   38.9220   82.7350   60.2810 H   0  0  0  0  0  0  0  0  0  0  0  0
   43.0200   83.9170   60.9820 H   0  0  0  0  0  0  0  0  0  0  0  0
   43.4370   84.7180   63.7130 H   0  0  0  0  0  0  0  0  0  0  0  0
   41.8630   84.8720   65.8260 H   0  0  0  0  0  0  0  0  0  0  0  0
   38.4380   83.2360   62.6880 H   0  0  0  0  0  0  0  0  0  0  0  0
   42.4240   83.8550   54.2940 Cl  0  0  0  0  0  0  0  0  0  0  0  0
   43.8760   84.1480   55.2480 C   0  0  0  0  0  0  0  0  0  0  0  0
   43.8430   83.8070   56.5740 C   0  0  0  0  0  0  0  0  0  0  0  0
   45.0250   84.0860   57.2590 C   0  0  0  0  0  0  0  0  0  0  0  0
   46.1400   84.6480   56.6840 C   0  0  0  0  0  0  0  0  0  0  0  0
   46.1170   84.9690   55.3460 C   0  0  0  0  0  0  0  0  0  0  0  0
   47.4820   85.6720   54.5330 Cl  0  0  0  0  0  0  0  0  0  0  0  0
   44.9740   84.7140   54.6300 C   0  0  0  0  0  0  0  0  0  0  0  0
   45.0820   83.8460   58.3180 H   0  0  0  0  0  0  0  0  0  0  0  0
   47.0240   84.8380   57.2710 H   0  0  0  0  0  0  0  0  0  0  0  0
   44.8900   85.0340   53.2030 C   0  0  0  0  0  0  0  0  0  0  0  0
   45.1330   84.3970   52.3760 H   0  0  0  0  0  0  0  0  0  0  0  0
   44.4860   86.1890   52.8720 O   0  0  0  0  0  0  0  0  0  0  0  0
  1  6  1  0  0  0  0
  2  1  2  0  0  0  0
  2  3  1  0  0  0  0
  3  4  2  0  0  0  0
  4  5  1  0  0  0  0
  5 10  1  0  0  0  0
  6  5  2  0  0  0  0
  7  1  1  0  0  0  0
  8  2  1  0  0  0  0
  9 17  1  0  0  0  0
 10  9  2  0  0  0  0
 10 11  1  0  0  0  0
 11 12  2  0  0  0  0
 12 16  1  0  0  0  0
 12 13  1  0  0  0  0
 13 14  1  0  0  0  0
 14 21  1  0  0  0  0
 15 14  2  0  0  0  0
 16 15  1  0  0  0  0
 17 22  1  0  0  0  0
 17 16  2  0  0  0  0
 18  9  1  0  0  0  0
 19 11  1  0  0  0  0
 20 13  1  0  0  0  0
 23 24  1  0  0  0  0
 24 25  1  0  0  0  0
 25  3  1  0  0  0  0
 25 26  2  0  0  0  0
 26 31  1  0  0  0  0
 27 26  1  0  0  0  0
 27 32  1  0  0  0  0
 28 27  2  0  0  0  0
 29 28  1  0  0  0  0
 30 24  2  0  0  0  0
 30 28  1  0  0  0  0
 33 30  1  0  0  0  0
 34 33  1  0  0  0  0
 35 33  2  0  0  0  0
M  END
>  <minimizedAffinity>
-5.00322008

>  <minimizedRMSD>
0.186583623

$$$$
