
 OpenBabel03212521063D

 30 32  0  0  0  0  0  0  0  0999 V2000
   41.8110   84.2400   61.5760 C   0  0  0  0  0  0  0  0  0  0  0  0
   41.4360   83.9660   62.8850 C   0  0  0  0  0  0  0  0  0  0  0  0
   40.1570   83.5550   63.2030 C   0  0  0  0  0  0  0  0  0  0  0  0
   39.2180   83.4100   62.1810 C   0  0  0  0  0  0  0  0  0  0  0  0
   39.5960   83.6840   60.8700 C   0  0  0  0  0  0  0  0  0  0  0  0
   40.8690   84.0920   60.5730 C   0  0  0  0  0  0  0  0  0  0  0  0
   42.1510   84.0710   63.7120 H   0  0  0  0  0  0  0  0  0  0  0  0
   39.8680   83.3430   64.2240 H   0  0  0  0  0  0  0  0  0  0  0  0
   38.1960   83.0890   62.3750 H   0  0  0  0  0  0  0  0  0  0  0  0
   38.8460   83.5630   60.1010 H   0  0  0  0  0  0  0  0  0  0  0  0
   45.3670   84.1180   60.7460 C   0  0  0  0  0  0  0  0  0  0  0  0
   45.7430   85.4500   60.7820 C   0  0  0  0  0  0  0  0  0  0  0  0
   44.7610   86.4100   61.0980 C   0  0  0  0  0  0  0  0  0  0  0  0
   43.5100   85.9780   61.3460 N   0  0  0  0  0  0  0  0  0  0  0  0
   43.1710   84.6700   61.3020 C   0  0  0  0  0  0  0  0  0  0  0  0
   44.1000   83.7550   61.0030 N   0  0  0  0  0  0  0  0  0  0  0  0
   46.1420   83.3790   60.4980 H   0  0  0  0  0  0  0  0  0  0  0  0
   46.7240   85.8110   60.5900 H   0  0  0  0  0  0  0  0  0  0  0  0
   45.0200   87.4420   61.1340 H   0  0  0  0  0  0  0  0  0  0  0  0
   41.2180   84.3680   59.1850 C   0  0  0  0  0  0  0  0  0  0  0  0
   40.7480   85.6290   58.7860 C   0  0  0  0  0  0  0  0  0  0  0  0
   40.9790   86.0840   57.4900 C   0  0  0  0  0  0  0  0  0  0  0  0
   41.6600   85.2760   56.6560 N   0  0  0  0  0  0  0  0  0  0  0  0
   42.1060   84.0610   57.0620 C   0  0  0  0  0  0  0  0  0  0  0  0
   41.8870   83.6190   58.3040 N   0  0  0  0  0  0  0  0  0  0  0  0
   40.1890   86.3360   59.4110 H   0  0  0  0  0  0  0  0  0  0  0  0
   40.6390   87.0410   57.1400 H   0  0  0  0  0  0  0  0  0  0  0  0
   42.8410   83.1780   56.1710 C   0  0  0  0  0  0  0  0  0  0  0  0
   42.7450   82.1100   56.0790 H   0  0  0  0  0  0  0  0  0  0  0  0
   43.7340   83.5930   55.3540 O   0  0  0  0  0  0  0  0  0  0  0  0
  1  2  1  0  0  0  0
  2  3  2  0  0  0  0
  2  7  1  0  0  0  0
  3  8  1  0  0  0  0
  4  9  1  0  0  0  0
  4  3  1  0  0  0  0
  5  4  2  0  0  0  0
  6  5  1  0  0  0  0
  6  1  2  0  0  0  0
 10  5  1  0  0  0  0
 11 12  2  0  0  0  0
 11 16  1  0  0  0  0
 12 13  1  0  0  0  0
 13 19  1  0  0  0  0
 13 14  2  0  0  0  0
 15 14  1  0  0  0  0
 15  1  1  0  0  0  0
 16 15  2  0  0  0  0
 17 11  1  0  0  0  0
 18 12  1  0  0  0  0
 20  6  1  0  0  0  0
 21 20  1  0  0  0  0
 21 26  1  0  0  0  0
 22 21  2  0  0  0  0
 23 24  2  0  0  0  0
 23 22  1  0  0  0  0
 24 25  1  0  0  0  0
 25 20  2  0  0  0  0
 27 22  1  0  0  0  0
 28 24  1  0  0  0  0
 29 28  1  0  0  0  0
 30 28  2  0  0  0  0
M  END
>  <minimizedAffinity>
-5.09174299

>  <minimizedRMSD>
0.0665949136

$$$$
