
 OpenBabel03212521053D

 30 32  0  0  0  0  0  0  0  0999 V2000
   41.8150   84.2390   61.5740 C   0  0  0  0  0  0  0  0  0  0  0  0
   41.4410   83.9730   62.8850 C   0  0  0  0  0  0  0  0  0  0  0  0
   40.1630   83.5600   63.2050 C   0  0  0  0  0  0  0  0  0  0  0  0
   39.2250   83.4050   62.1840 C   0  0  0  0  0  0  0  0  0  0  0  0
   39.6020   83.6730   60.8710 C   0  0  0  0  0  0  0  0  0  0  0  0
   40.8740   84.0830   60.5730 C   0  0  0  0  0  0  0  0  0  0  0  0
   42.1550   84.0850   63.7110 H   0  0  0  0  0  0  0  0  0  0  0  0
   39.8740   83.3530   64.2280 H   0  0  0  0  0  0  0  0  0  0  0  0
   38.2040   83.0830   62.3800 H   0  0  0  0  0  0  0  0  0  0  0  0
   38.8530   83.5450   60.1030 H   0  0  0  0  0  0  0  0  0  0  0  0
   45.3690   84.1240   60.7350 C   0  0  0  0  0  0  0  0  0  0  0  0
   45.7440   85.4560   60.7740 C   0  0  0  0  0  0  0  0  0  0  0  0
   44.7620   86.4150   61.0950 C   0  0  0  0  0  0  0  0  0  0  0  0
   43.5120   85.9800   61.3440 N   0  0  0  0  0  0  0  0  0  0  0  0
   43.1740   84.6720   61.2990 C   0  0  0  0  0  0  0  0  0  0  0  0
   44.1040   83.7590   60.9950 N   0  0  0  0  0  0  0  0  0  0  0  0
   46.1450   83.3870   60.4840 H   0  0  0  0  0  0  0  0  0  0  0  0
   46.7240   85.8200   60.5800 H   0  0  0  0  0  0  0  0  0  0  0  0
   45.0200   87.4470   61.1330 H   0  0  0  0  0  0  0  0  0  0  0  0
   41.2230   84.3510   59.1830 C   0  0  0  0  0  0  0  0  0  0  0  0
   40.7700   85.6180   58.7830 C   0  0  0  0  0  0  0  0  0  0  0  0
   41.0030   86.0680   57.4860 C   0  0  0  0  0  0  0  0  0  0  0  0
   41.6700   85.2490   56.6510 N   0  0  0  0  0  0  0  0  0  0  0  0
   42.0990   84.0280   57.0570 C   0  0  0  0  0  0  0  0  0  0  0  0
   41.8780   83.5910   58.3010 N   0  0  0  0  0  0  0  0  0  0  0  0
   40.2230   86.3340   59.4090 H   0  0  0  0  0  0  0  0  0  0  0  0
   40.6760   87.0290   57.1340 H   0  0  0  0  0  0  0  0  0  0  0  0
   42.8200   83.1330   56.1660 C   0  0  0  0  0  0  0  0  0  0  0  0
   43.3850   83.3970   55.2870 H   0  0  0  0  0  0  0  0  0  0  0  0
   42.8670   81.8660   56.3320 O   0  0  0  0  0  0  0  0  0  0  0  0
  1  2  1  0  0  0  0
  2  3  2  0  0  0  0
  2  7  1  0  0  0  0
  3  8  1  0  0  0  0
  4  9  1  0  0  0  0
  4  3  1  0  0  0  0
  5  4  2  0  0  0  0
  6  5  1  0  0  0  0
  6  1  2  0  0  0  0
 10  5  1  0  0  0  0
 11 12  2  0  0  0  0
 11 16  1  0  0  0  0
 12 13  1  0  0  0  0
 13 19  1  0  0  0  0
 13 14  2  0  0  0  0
 15 14  1  0  0  0  0
 15  1  1  0  0  0  0
 16 15  2  0  0  0  0
 17 11  1  0  0  0  0
 18 12  1  0  0  0  0
 20  6  1  0  0  0  0
 21 20  1  0  0  0  0
 21 26  1  0  0  0  0
 22 21  2  0  0  0  0
 23 24  2  0  0  0  0
 23 22  1  0  0  0  0
 24 25  1  0  0  0  0
 25 20  2  0  0  0  0
 27 22  1  0  0  0  0
 28 30  2  0  0  0  0
 28 24  1  0  0  0  0
 29 28  1  0  0  0  0
M  END
>  <minimizedAffinity>
-5.09751272

>  <minimizedRMSD>
0.0841653943

$$$$
