
 OpenBabel03212521063D

 30 32  0  0  0  0  0  0  0  0999 V2000
   41.8160   84.2400   61.5730 C   0  0  0  0  0  0  0  0  0  0  0  0
   41.4420   83.9710   62.8840 C   0  0  0  0  0  0  0  0  0  0  0  0
   40.1640   83.5570   63.2030 C   0  0  0  0  0  0  0  0  0  0  0  0
   39.2260   83.4040   62.1830 C   0  0  0  0  0  0  0  0  0  0  0  0
   39.6020   83.6740   60.8700 C   0  0  0  0  0  0  0  0  0  0  0  0
   40.8750   84.0850   60.5710 C   0  0  0  0  0  0  0  0  0  0  0  0
   42.1570   84.0810   63.7100 H   0  0  0  0  0  0  0  0  0  0  0  0
   39.8760   83.3480   64.2250 H   0  0  0  0  0  0  0  0  0  0  0  0
   38.2050   83.0810   62.3780 H   0  0  0  0  0  0  0  0  0  0  0  0
   38.8540   83.5470   60.1010 H   0  0  0  0  0  0  0  0  0  0  0  0
   45.3700   84.1270   60.7340 C   0  0  0  0  0  0  0  0  0  0  0  0
   45.7450   85.4590   60.7740 C   0  0  0  0  0  0  0  0  0  0  0  0
   44.7620   86.4170   61.0960 C   0  0  0  0  0  0  0  0  0  0  0  0
   43.5120   85.9820   61.3450 N   0  0  0  0  0  0  0  0  0  0  0  0
   43.1740   84.6730   61.2980 C   0  0  0  0  0  0  0  0  0  0  0  0
   44.1040   83.7600   60.9930 N   0  0  0  0  0  0  0  0  0  0  0  0
   46.1460   83.3900   60.4810 H   0  0  0  0  0  0  0  0  0  0  0  0
   46.7240   85.8230   60.5800 H   0  0  0  0  0  0  0  0  0  0  0  0
   45.0190   87.4490   61.1350 H   0  0  0  0  0  0  0  0  0  0  0  0
   41.2230   84.3560   59.1820 C   0  0  0  0  0  0  0  0  0  0  0  0
   40.7640   85.6210   58.7830 C   0  0  0  0  0  0  0  0  0  0  0  0
   40.9960   86.0720   57.4860 C   0  0  0  0  0  0  0  0  0  0  0  0
   41.6670   85.2570   56.6510 N   0  0  0  0  0  0  0  0  0  0  0  0
   42.1020   84.0380   57.0570 C   0  0  0  0  0  0  0  0  0  0  0  0
   41.8820   83.5990   58.3000 N   0  0  0  0  0  0  0  0  0  0  0  0
   40.2140   86.3340   59.4090 H   0  0  0  0  0  0  0  0  0  0  0  0
   40.6640   87.0330   57.1350 H   0  0  0  0  0  0  0  0  0  0  0  0
   42.8270   83.1470   56.1650 C   0  0  0  0  0  0  0  0  0  0  0  0
   42.7120   83.0500   55.0990 H   0  0  0  0  0  0  0  0  0  0  0  0
   43.7300   82.3360   56.5670 O   0  0  0  0  0  0  0  0  0  0  0  0
  1  2  1  0  0  0  0
  2  3  2  0  0  0  0
  2  7  1  0  0  0  0
  3  8  1  0  0  0  0
  4  9  1  0  0  0  0
  4  3  1  0  0  0  0
  5  4  2  0  0  0  0
  6  5  1  0  0  0  0
  6  1  2  0  0  0  0
 10  5  1  0  0  0  0
 11 12  2  0  0  0  0
 11 16  1  0  0  0  0
 12 13  1  0  0  0  0
 13 19  1  0  0  0  0
 13 14  2  0  0  0  0
 15 14  1  0  0  0  0
 15  1  1  0  0  0  0
 16 15  2  0  0  0  0
 17 11  1  0  0  0  0
 18 12  1  0  0  0  0
 20  6  1  0  0  0  0
 21 20  1  0  0  0  0
 21 26  1  0  0  0  0
 22 21  2  0  0  0  0
 23 24  2  0  0  0  0
 23 22  1  0  0  0  0
 24 25  1  0  0  0  0
 25 20  2  0  0  0  0
 27 22  1  0  0  0  0
 28 30  2  0  0  0  0
 28 24  1  0  0  0  0
 29 28  1  0  0  0  0
M  END
>  <minimizedAffinity>
-5.08633232

>  <minimizedRMSD>
0.088081941

$$$$
