
 OpenBabel03212521063D

 30 32  0  0  0  0  0  0  0  0999 V2000
   41.8160   84.2390   61.5750 C   0  0  0  0  0  0  0  0  0  0  0  0
   41.4410   83.9720   62.8860 C   0  0  0  0  0  0  0  0  0  0  0  0
   40.1630   83.5590   63.2050 C   0  0  0  0  0  0  0  0  0  0  0  0
   39.2250   83.4050   62.1840 C   0  0  0  0  0  0  0  0  0  0  0  0
   39.6030   83.6720   60.8710 C   0  0  0  0  0  0  0  0  0  0  0  0
   40.8760   84.0830   60.5730 C   0  0  0  0  0  0  0  0  0  0  0  0
   42.1550   84.0840   63.7120 H   0  0  0  0  0  0  0  0  0  0  0  0
   39.8740   83.3520   64.2270 H   0  0  0  0  0  0  0  0  0  0  0  0
   38.2040   83.0820   62.3790 H   0  0  0  0  0  0  0  0  0  0  0  0
   38.8550   83.5450   60.1020 H   0  0  0  0  0  0  0  0  0  0  0  0
   45.3710   84.1250   60.7400 C   0  0  0  0  0  0  0  0  0  0  0  0
   45.7450   85.4570   60.7770 C   0  0  0  0  0  0  0  0  0  0  0  0
   44.7620   86.4150   61.0950 C   0  0  0  0  0  0  0  0  0  0  0  0
   43.5120   85.9810   61.3440 N   0  0  0  0  0  0  0  0  0  0  0  0
   43.1750   84.6720   61.3000 C   0  0  0  0  0  0  0  0  0  0  0  0
   44.1050   83.7590   60.9990 N   0  0  0  0  0  0  0  0  0  0  0  0
   46.1480   83.3870   60.4910 H   0  0  0  0  0  0  0  0  0  0  0  0
   46.7250   85.8200   60.5840 H   0  0  0  0  0  0  0  0  0  0  0  0
   45.0190   87.4470   61.1320 H   0  0  0  0  0  0  0  0  0  0  0  0
   41.2250   84.3520   59.1830 C   0  0  0  0  0  0  0  0  0  0  0  0
   40.7670   85.6160   58.7830 C   0  0  0  0  0  0  0  0  0  0  0  0
   41.0010   86.0660   57.4850 C   0  0  0  0  0  0  0  0  0  0  0  0
   41.6710   85.2490   56.6510 N   0  0  0  0  0  0  0  0  0  0  0  0
   42.1050   84.0300   57.0590 C   0  0  0  0  0  0  0  0  0  0  0  0
   41.8830   83.5930   58.3030 N   0  0  0  0  0  0  0  0  0  0  0  0
   40.2180   86.3310   59.4070 H   0  0  0  0  0  0  0  0  0  0  0  0
   40.6700   87.0260   57.1330 H   0  0  0  0  0  0  0  0  0  0  0  0
   42.8290   83.1370   56.1690 C   0  0  0  0  0  0  0  0  0  0  0  0
   43.1390   83.3300   55.1560 H   0  0  0  0  0  0  0  0  0  0  0  0
   43.2010   81.9610   56.5070 O   0  0  0  0  0  0  0  0  0  0  0  0
  1  2  1  0  0  0  0
  2  3  2  0  0  0  0
  2  7  1  0  0  0  0
  3  8  1  0  0  0  0
  4  9  1  0  0  0  0
  4  3  1  0  0  0  0
  5  4  2  0  0  0  0
  6  5  1  0  0  0  0
  6  1  2  0  0  0  0
 10  5  1  0  0  0  0
 11 12  2  0  0  0  0
 11 16  1  0  0  0  0
 12 13  1  0  0  0  0
 13 19  1  0  0  0  0
 13 14  2  0  0  0  0
 15 14  1  0  0  0  0
 15  1  1  0  0  0  0
 16 15  2  0  0  0  0
 17 11  1  0  0  0  0
 18 12  1  0  0  0  0
 20  6  1  0  0  0  0
 21 20  1  0  0  0  0
 21 26  1  0  0  0  0
 22 21  2  0  0  0  0
 23 24  2  0  0  0  0
 23 22  1  0  0  0  0
 24 25  1  0  0  0  0
 25 20  2  0  0  0  0
 27 22  1  0  0  0  0
 28 30  2  0  0  0  0
 28 24  1  0  0  0  0
 29 28  1  0  0  0  0
M  END
>  <minimizedAffinity>
-5.09234476

>  <minimizedRMSD>
0.168341249

$$$$
