
 OpenBabel03212521063D

 30 32  0  0  0  0  0  0  0  0999 V2000
   41.8070   84.2380   61.5710 C   0  0  0  0  0  0  0  0  0  0  0  0
   41.4540   83.9760   62.8890 C   0  0  0  0  0  0  0  0  0  0  0  0
   40.1830   83.5570   63.2300 C   0  0  0  0  0  0  0  0  0  0  0  0
   39.2310   83.3930   62.2240 C   0  0  0  0  0  0  0  0  0  0  0  0
   39.5860   83.6570   60.9040 C   0  0  0  0  0  0  0  0  0  0  0  0
   40.8520   84.0720   60.5840 C   0  0  0  0  0  0  0  0  0  0  0  0
   42.1800   84.0950   63.7030 H   0  0  0  0  0  0  0  0  0  0  0  0
   39.9120   83.3540   64.2570 H   0  0  0  0  0  0  0  0  0  0  0  0
   38.2150   83.0660   62.4370 H   0  0  0  0  0  0  0  0  0  0  0  0
   38.8270   83.5220   60.1480 H   0  0  0  0  0  0  0  0  0  0  0  0
   45.3300   84.1470   60.6060 C   0  0  0  0  0  0  0  0  0  0  0  0
   45.7160   85.4730   60.7030 C   0  0  0  0  0  0  0  0  0  0  0  0
   44.7530   86.4190   61.1080 C   0  0  0  0  0  0  0  0  0  0  0  0
   43.5090   85.9790   61.3770 N   0  0  0  0  0  0  0  0  0  0  0  0
   43.1590   84.6760   61.2720 C   0  0  0  0  0  0  0  0  0  0  0  0
   44.0710   83.7760   60.8890 N   0  0  0  0  0  0  0  0  0  0  0  0
   46.0910   83.4200   60.2880 H   0  0  0  0  0  0  0  0  0  0  0  0
   46.6920   85.8400   60.4960 H   0  0  0  0  0  0  0  0  0  0  0  0
   45.0200   87.4450   61.1930 H   0  0  0  0  0  0  0  0  0  0  0  0
   41.1770   84.3370   59.1880 C   0  0  0  0  0  0  0  0  0  0  0  0
   40.8380   85.6500   58.8290 C   0  0  0  0  0  0  0  0  0  0  0  0
   41.0710   86.1040   57.5330 C   0  0  0  0  0  0  0  0  0  0  0  0
   41.6240   85.2420   56.6590 N   0  0  0  0  0  0  0  0  0  0  0  0
   41.9450   83.9760   57.0270 C   0  0  0  0  0  0  0  0  0  0  0  0
   41.7240   83.5360   58.2690 N   0  0  0  0  0  0  0  0  0  0  0  0
   40.3870   86.4020   59.4880 H   0  0  0  0  0  0  0  0  0  0  0  0
   40.8280   87.1000   57.2120 H   0  0  0  0  0  0  0  0  0  0  0  0
   42.5420   83.0350   56.0930 C   0  0  0  0  0  0  0  0  0  0  0  0
   43.5820   82.7670   56.0070 H   0  0  0  0  0  0  0  0  0  0  0  0
   41.8660   82.3880   55.2210 O   0  0  0  0  0  0  0  0  0  0  0  0
  1  2  1  0  0  0  0
  2  3  2  0  0  0  0
  2  7  1  0  0  0  0
  3  8  1  0  0  0  0
  4  9  1  0  0  0  0
  4  3  1  0  0  0  0
  5  4  2  0  0  0  0
  6  5  1  0  0  0  0
  6  1  2  0  0  0  0
 10  5  1  0  0  0  0
 11 12  2  0  0  0  0
 11 16  1  0  0  0  0
 12 13  1  0  0  0  0
 13 19  1  0  0  0  0
 13 14  2  0  0  0  0
 15 14  1  0  0  0  0
 15  1  1  0  0  0  0
 16 15  2  0  0  0  0
 17 11  1  0  0  0  0
 18 12  1  0  0  0  0
 20  6  1  0  0  0  0
 21 20  1  0  0  0  0
 21 26  1  0  0  0  0
 22 21  2  0  0  0  0
 23 24  2  0  0  0  0
 23 22  1  0  0  0  0
 24 25  1  0  0  0  0
 25 20  2  0  0  0  0
 27 22  1  0  0  0  0
 28 24  1  0  0  0  0
 29 28  1  0  0  0  0
 30 28  2  0  0  0  0
M  END
>  <minimizedAffinity>
-5.19946003

>  <minimizedRMSD>
0.357085824

$$$$
