
 OpenBabel03212521053D

 30 32  0  0  0  0  0  0  0  0999 V2000
   41.8110   84.2420   61.5740 C   0  0  0  0  0  0  0  0  0  0  0  0
   41.4380   83.9700   62.8840 C   0  0  0  0  0  0  0  0  0  0  0  0
   40.1600   83.5570   63.2030 C   0  0  0  0  0  0  0  0  0  0  0  0
   39.2200   83.4090   62.1830 C   0  0  0  0  0  0  0  0  0  0  0  0
   39.5960   83.6820   60.8710 C   0  0  0  0  0  0  0  0  0  0  0  0
   40.8690   84.0920   60.5720 C   0  0  0  0  0  0  0  0  0  0  0  0
   42.1530   84.0760   63.7100 H   0  0  0  0  0  0  0  0  0  0  0  0
   39.8720   83.3460   64.2250 H   0  0  0  0  0  0  0  0  0  0  0  0
   38.1990   83.0870   62.3780 H   0  0  0  0  0  0  0  0  0  0  0  0
   38.8470   83.5600   60.1020 H   0  0  0  0  0  0  0  0  0  0  0  0
   45.3660   84.1250   60.7370 C   0  0  0  0  0  0  0  0  0  0  0  0
   45.7410   85.4570   60.7760 C   0  0  0  0  0  0  0  0  0  0  0  0
   44.7590   86.4160   61.0960 C   0  0  0  0  0  0  0  0  0  0  0  0
   43.5090   85.9820   61.3450 N   0  0  0  0  0  0  0  0  0  0  0  0
   43.1700   84.6740   61.2990 C   0  0  0  0  0  0  0  0  0  0  0  0
   44.1000   83.7600   60.9960 N   0  0  0  0  0  0  0  0  0  0  0  0
   46.1410   83.3880   60.4860 H   0  0  0  0  0  0  0  0  0  0  0  0
   46.7220   85.8200   60.5830 H   0  0  0  0  0  0  0  0  0  0  0  0
   45.0180   87.4480   61.1340 H   0  0  0  0  0  0  0  0  0  0  0  0
   41.2170   84.3670   59.1840 C   0  0  0  0  0  0  0  0  0  0  0  0
   40.7510   85.6300   58.7860 C   0  0  0  0  0  0  0  0  0  0  0  0
   40.9820   86.0850   57.4900 C   0  0  0  0  0  0  0  0  0  0  0  0
   41.6570   85.2740   56.6540 N   0  0  0  0  0  0  0  0  0  0  0  0
   42.0990   84.0570   57.0590 C   0  0  0  0  0  0  0  0  0  0  0  0
   41.8800   83.6150   58.3010 N   0  0  0  0  0  0  0  0  0  0  0  0
   40.1970   86.3390   59.4130 H   0  0  0  0  0  0  0  0  0  0  0  0
   40.6450   87.0440   57.1400 H   0  0  0  0  0  0  0  0  0  0  0  0
   42.8290   83.1710   56.1660 C   0  0  0  0  0  0  0  0  0  0  0  0
   42.4450   82.3240   55.6230 H   0  0  0  0  0  0  0  0  0  0  0  0
   44.0750   83.3050   55.9110 O   0  0  0  0  0  0  0  0  0  0  0  0
  1  2  1  0  0  0  0
  2  3  2  0  0  0  0
  2  7  1  0  0  0  0
  3  8  1  0  0  0  0
  4  9  1  0  0  0  0
  4  3  1  0  0  0  0
  5  4  2  0  0  0  0
  6  5  1  0  0  0  0
  6  1  2  0  0  0  0
 10  5  1  0  0  0  0
 11 12  2  0  0  0  0
 11 16  1  0  0  0  0
 12 13  1  0  0  0  0
 13 19  1  0  0  0  0
 13 14  2  0  0  0  0
 15 14  1  0  0  0  0
 15  1  1  0  0  0  0
 16 15  2  0  0  0  0
 17 11  1  0  0  0  0
 18 12  1  0  0  0  0
 20  6  1  0  0  0  0
 21 20  1  0  0  0  0
 21 26  1  0  0  0  0
 22 21  2  0  0  0  0
 23 24  2  0  0  0  0
 23 22  1  0  0  0  0
 24 25  1  0  0  0  0
 25 20  2  0  0  0  0
 27 22  1  0  0  0  0
 28 24  1  0  0  0  0
 29 28  1  0  0  0  0
 30 28  2  0  0  0  0
M  END
>  <minimizedAffinity>
-5.08972692

>  <minimizedRMSD>
0.0832360908

$$$$
