
 OpenBabel03212521083D

 30 32  0  0  0  0  0  0  0  0999 V2000
   41.3590   71.5790   59.9140 C   0  0  0  0  0  0  0  0  0  0  0  0
   41.8840   70.3200   60.1800 C   0  0  0  0  0  0  0  0  0  0  0  0
   42.4550   70.0150   61.3990 C   0  0  0  0  0  0  0  0  0  0  0  0
   42.5040   70.9960   62.3900 C   0  0  0  0  0  0  0  0  0  0  0  0
   41.9780   72.2560   62.1210 C   0  0  0  0  0  0  0  0  0  0  0  0
   41.4160   72.5420   60.9050 C   0  0  0  0  0  0  0  0  0  0  0  0
   41.8600   69.5260   59.4220 H   0  0  0  0  0  0  0  0  0  0  0  0
   42.8620   69.0330   61.6030 H   0  0  0  0  0  0  0  0  0  0  0  0
   42.9420   70.8090   63.3680 H   0  0  0  0  0  0  0  0  0  0  0  0
   42.0310   72.9950   62.9080 H   0  0  0  0  0  0  0  0  0  0  0  0
   41.0470   72.5020   56.3930 C   0  0  0  0  0  0  0  0  0  0  0  0
   39.6940   72.3460   56.1460 C   0  0  0  0  0  0  0  0  0  0  0  0
   38.8690   71.9180   57.2070 C   0  0  0  0  0  0  0  0  0  0  0  0
   39.4460   71.6820   58.4010 N   0  0  0  0  0  0  0  0  0  0  0  0
   40.7720   71.8420   58.6120 C   0  0  0  0  0  0  0  0  0  0  0  0
   41.5580   72.2490   57.6090 N   0  0  0  0  0  0  0  0  0  0  0  0
   41.6780   72.8360   55.5570 H   0  0  0  0  0  0  0  0  0  0  0  0
   39.2190   72.5270   55.2120 H   0  0  0  0  0  0  0  0  0  0  0  0
   37.8250   71.7900   57.0480 H   0  0  0  0  0  0  0  0  0  0  0  0
   40.8780   73.8760   60.6710 C   0  0  0  0  0  0  0  0  0  0  0  0
   39.5780   73.9960   61.1860 C   0  0  0  0  0  0  0  0  0  0  0  0
   38.8850   75.1980   61.0640 C   0  0  0  0  0  0  0  0  0  0  0  0
   39.5070   76.2180   60.4440 N   0  0  0  0  0  0  0  0  0  0  0  0
   40.7640   76.0820   59.9530 C   0  0  0  0  0  0  0  0  0  0  0  0
   41.4340   74.9300   60.0660 N   0  0  0  0  0  0  0  0  0  0  0  0
   39.0140   73.2090   61.7010 H   0  0  0  0  0  0  0  0  0  0  0  0
   37.8890   75.3370   61.4430 H   0  0  0  0  0  0  0  0  0  0  0  0
   41.4470   77.1750   59.2790 C   0  0  0  0  0  0  0  0  0  0  0  0
   41.1140   77.7200   58.4130 H   0  0  0  0  0  0  0  0  0  0  0  0
   42.5770   77.6350   59.6590 O   0  0  0  0  0  0  0  0  0  0  0  0
  1  2  2  0  0  0  0
  1  6  1  0  0  0  0
  2  3  1  0  0  0  0
  3  8  1  0  0  0  0
  3  4  2  0  0  0  0
  4  9  1  0  0  0  0
  5  4  1  0  0  0  0
  5 10  1  0  0  0  0
  6  5  2  0  0  0  0
  7  2  1  0  0  0  0
 11 16  1  0  0  0  0
 12 11  2  0  0  0  0
 12 13  1  0  0  0  0
 13 14  2  0  0  0  0
 14 15  1  0  0  0  0
 15  1  1  0  0  0  0
 16 15  2  0  0  0  0
 17 11  1  0  0  0  0
 18 12  1  0  0  0  0
 19 13  1  0  0  0  0
 20  6  1  0  0  0  0
 20 21  1  0  0  0  0
 21 26  1  0  0  0  0
 22 21  2  0  0  0  0
 22 27  1  0  0  0  0
 23 22  1  0  0  0  0
 24 25  1  0  0  0  0
 24 23  2  0  0  0  0
 25 20  2  0  0  0  0
 28 30  2  0  0  0  0
 28 24  1  0  0  0  0
 29 28  1  0  0  0  0
M  END
>  <minimizedAffinity>
-5.18069792

$$$$

 OpenBabel03212521083D

 30 32  0  0  0  0  0  0  0  0999 V2000
   41.3190   72.0560   61.3810 C   0  0  0  0  0  0  0  0  0  0  0  0
   41.5780   71.7320   62.7070 C   0  0  0  0  0  0  0  0  0  0  0  0
   42.3120   70.6140   63.0510 C   0  0  0  0  0  0  0  0  0  0  0  0
   42.8070   69.7910   62.0400 C   0  0  0  0  0  0  0  0  0  0  0  0
   42.5470   70.1170   60.7120 C   0  0  0  0  0  0  0  0  0  0  0  0
   41.8150   71.2290   60.3890 C   0  0  0  0  0  0  0  0  0  0  0  0
   41.2030   72.3590   63.5260 H   0  0  0  0  0  0  0  0  0  0  0  0
   42.5120   70.3650   64.0850 H   0  0  0  0  0  0  0  0  0  0  0  0
   43.3910   68.8980   62.2540 H   0  0  0  0  0  0  0  0  0  0  0  0
   42.9430   69.4600   59.9510 H   0  0  0  0  0  0  0  0  0  0  0  0
   40.4570   75.4220   60.2530 C   0  0  0  0  0  0  0  0  0  0  0  0
   39.0970   75.4980   60.5010 C   0  0  0  0  0  0  0  0  0  0  0  0
   38.4610   74.3750   61.0670 C   0  0  0  0  0  0  0  0  0  0  0  0
   39.2120   73.2890   61.3340 N   0  0  0  0  0  0  0  0  0  0  0  0
   40.5400   73.2440   61.0800 C   0  0  0  0  0  0  0  0  0  0  0  0
   41.1480   74.3080   60.5430 N   0  0  0  0  0  0  0  0  0  0  0  0
   40.9400   76.3050   59.8110 H   0  0  0  0  0  0  0  0  0  0  0  0
   38.4860   76.3440   60.2990 H   0  0  0  0  0  0  0  0  0  0  0  0
   37.4160   74.4030   61.2700 H   0  0  0  0  0  0  0  0  0  0  0  0
   41.5680   71.5300   58.9840 C   0  0  0  0  0  0  0  0  0  0  0  0
   42.7720   71.6520   58.2730 C   0  0  0  0  0  0  0  0  0  0  0  0
   42.7540   71.9380   56.9100 C   0  0  0  0  0  0  0  0  0  0  0  0
   41.5540   72.0890   56.3190 N   0  0  0  0  0  0  0  0  0  0  0  0
   40.4020   71.9670   57.0240 C   0  0  0  0  0  0  0  0  0  0  0  0
   40.4130   71.6920   58.3320 N   0  0  0  0  0  0  0  0  0  0  0  0
   43.7810   71.5420   58.6890 H   0  0  0  0  0  0  0  0  0  0  0  0
   43.6490   72.0400   56.3240 H   0  0  0  0  0  0  0  0  0  0  0  0
   39.0990   72.1280   56.3990 C   0  0  0  0  0  0  0  0  0  0  0  0
   38.8820   72.5760   55.4440 H   0  0  0  0  0  0  0  0  0  0  0  0
   38.0090   71.7350   56.9380 O   0  0  0  0  0  0  0  0  0  0  0  0
  1  2  1  0  0  0  0
  2  3  2  0  0  0  0
  2  7  1  0  0  0  0
  3  8  1  0  0  0  0
  4  9  1  0  0  0  0
  4  3  1  0  0  0  0
  5  4  2  0  0  0  0
  6  5  1  0  0  0  0
  6  1  2  0  0  0  0
 10  5  1  0  0  0  0
 11 12  2  0  0  0  0
 11 16  1  0  0  0  0
 12 13  1  0  0  0  0
 13 19  1  0  0  0  0
 13 14  2  0  0  0  0
 15 14  1  0  0  0  0
 15  1  1  0  0  0  0
 16 15  2  0  0  0  0
 17 11  1  0  0  0  0
 18 12  1  0  0  0  0
 20  6  1  0  0  0  0
 21 26  1  0  0  0  0
 21 20  2  0  0  0  0
 22 21  1  0  0  0  0
 23 22  2  0  0  0  0
 23 24  1  0  0  0  0
 24 25  2  0  0  0  0
 25 20  1  0  0  0  0
 27 22  1  0  0  0  0
 28 30  2  0  0  0  0
 28 24  1  0  0  0  0
 29 28  1  0  0  0  0
M  END
>  <minimizedAffinity>
-5.1193552

$$$$

 OpenBabel03212521083D

 30 32  0  0  0  0  0  0  0  0999 V2000
   42.1870   72.7770   60.2230 C   0  0  0  0  0  0  0  0  0  0  0  0
   42.9250   71.8550   60.9560 C   0  0  0  0  0  0  0  0  0  0  0  0
   42.4710   71.3570   62.1610 C   0  0  0  0  0  0  0  0  0  0  0  0
   41.2400   71.7890   62.6540 C   0  0  0  0  0  0  0  0  0  0  0  0
   40.5020   72.7120   61.9180 C   0  0  0  0  0  0  0  0  0  0  0  0
   40.9680   73.1970   60.7240 C   0  0  0  0  0  0  0  0  0  0  0  0
   43.8970   71.4950   60.5960 H   0  0  0  0  0  0  0  0  0  0  0  0
   43.0490   70.6390   62.7290 H   0  0  0  0  0  0  0  0  0  0  0  0
   40.8350   71.4290   63.5970 H   0  0  0  0  0  0  0  0  0  0  0  0
   39.5520   73.0280   62.3250 H   0  0  0  0  0  0  0  0  0  0  0  0
   42.8350   73.0840   56.6410 C   0  0  0  0  0  0  0  0  0  0  0  0
   43.6950   74.1670   56.5690 C   0  0  0  0  0  0  0  0  0  0  0  0
   44.0610   74.8060   57.7710 C   0  0  0  0  0  0  0  0  0  0  0  0
   43.5530   74.3270   58.9230 N   0  0  0  0  0  0  0  0  0  0  0  0
   42.7150   73.2660   58.9620 C   0  0  0  0  0  0  0  0  0  0  0  0
   42.3650   72.6570   57.8240 N   0  0  0  0  0  0  0  0  0  0  0  0
   42.5570   72.5960   55.6960 H   0  0  0  0  0  0  0  0  0  0  0  0
   44.1060   74.5610   55.6720 H   0  0  0  0  0  0  0  0  0  0  0  0
   44.7210   75.6410   57.7490 H   0  0  0  0  0  0  0  0  0  0  0  0
   40.1600   74.1620   59.9900 C   0  0  0  0  0  0  0  0  0  0  0  0
   40.4300   75.4730   60.4110 C   0  0  0  0  0  0  0  0  0  0  0  0
   39.7600   76.5470   59.8300 C   0  0  0  0  0  0  0  0  0  0  0  0
   38.8610   76.2760   58.8660 N   0  0  0  0  0  0  0  0  0  0  0  0
   38.6140   75.0010   58.4740 C   0  0  0  0  0  0  0  0  0  0  0  0
   39.2540   73.9660   59.0280 N   0  0  0  0  0  0  0  0  0  0  0  0
   41.1480   75.7660   61.1870 H   0  0  0  0  0  0  0  0  0  0  0  0
   39.9340   77.5680   60.1190 H   0  0  0  0  0  0  0  0  0  0  0  0
   37.6440   74.6930   57.4340 C   0  0  0  0  0  0  0  0  0  0  0  0
   37.4440   73.7330   56.9890 H   0  0  0  0  0  0  0  0  0  0  0  0
   36.8820   75.5720   56.9050 O   0  0  0  0  0  0  0  0  0  0  0  0
  1  6  2  0  0  0  0
  1  2  1  0  0  0  0
  2  3  2  0  0  0  0
  3  4  1  0  0  0  0
  3  8  1  0  0  0  0
  4  9  1  0  0  0  0
  5 10  1  0  0  0  0
  5  4  2  0  0  0  0
  6  5  1  0  0  0  0
  7  2  1  0  0  0  0
 11 16  1  0  0  0  0
 12 11  2  0  0  0  0
 12 13  1  0  0  0  0
 13 14  2  0  0  0  0
 14 15  1  0  0  0  0
 15  1  1  0  0  0  0
 16 15  2  0  0  0  0
 17 11  1  0  0  0  0
 18 12  1  0  0  0  0
 19 13  1  0  0  0  0
 20 21  1  0  0  0  0
 20  6  1  0  0  0  0
 21 26  1  0  0  0  0
 22 27  1  0  0  0  0
 22 21  2  0  0  0  0
 23 22  1  0  0  0  0
 24 23  2  0  0  0  0
 24 25  1  0  0  0  0
 25 20  2  0  0  0  0
 28 24  1  0  0  0  0
 29 28  1  0  0  0  0
 30 28  2  0  0  0  0
M  END
>  <minimizedAffinity>
-5.00077438

$$$$

 OpenBabel03212521083D

 30 32  0  0  0  0  0  0  0  0999 V2000
   40.1050   75.0600   58.1890 C   0  0  0  0  0  0  0  0  0  0  0  0
   39.1620   75.9360   57.6640 C   0  0  0  0  0  0  0  0  0  0  0  0
   39.0020   77.2130   58.1640 C   0  0  0  0  0  0  0  0  0  0  0  0
   39.8090   77.6350   59.2200 C   0  0  0  0  0  0  0  0  0  0  0  0
   40.7530   76.7560   59.7440 C   0  0  0  0  0  0  0  0  0  0  0  0
   40.8980   75.4920   59.2370 C   0  0  0  0  0  0  0  0  0  0  0  0
   38.5120   75.6350   56.8330 H   0  0  0  0  0  0  0  0  0  0  0  0
   38.2660   77.8930   57.7530 H   0  0  0  0  0  0  0  0  0  0  0  0
   39.7250   78.6300   59.6520 H   0  0  0  0  0  0  0  0  0  0  0  0
   41.3630   77.1110   60.5630 H   0  0  0  0  0  0  0  0  0  0  0  0
   39.5980   71.4840   57.6420 C   0  0  0  0  0  0  0  0  0  0  0  0
   40.4380   71.2070   56.5780 C   0  0  0  0  0  0  0  0  0  0  0  0
   41.1960   72.2640   56.0350 C   0  0  0  0  0  0  0  0  0  0  0  0
   41.0580   73.4870   56.5830 N   0  0  0  0  0  0  0  0  0  0  0  0
   40.2280   73.7290   57.6230 C   0  0  0  0  0  0  0  0  0  0  0  0
   39.5080   72.7270   58.1410 N   0  0  0  0  0  0  0  0  0  0  0  0
   39.0130   70.6500   58.0560 H   0  0  0  0  0  0  0  0  0  0  0  0
   40.5610   70.2500   56.1310 H   0  0  0  0  0  0  0  0  0  0  0  0
   41.8510   72.0830   55.2160 H   0  0  0  0  0  0  0  0  0  0  0  0
   41.9000   74.6070   59.8180 C   0  0  0  0  0  0  0  0  0  0  0  0
   43.1780   74.8890   59.3120 C   0  0  0  0  0  0  0  0  0  0  0  0
   44.2790   74.1520   59.7430 C   0  0  0  0  0  0  0  0  0  0  0  0
   44.0650   73.1790   60.6480 N   0  0  0  0  0  0  0  0  0  0  0  0
   42.8210   72.9230   61.1250 C   0  0  0  0  0  0  0  0  0  0  0  0
   41.7610   73.6260   60.7150 N   0  0  0  0  0  0  0  0  0  0  0  0
   43.4240   75.6640   58.5770 H   0  0  0  0  0  0  0  0  0  0  0  0
   45.2770   74.3320   59.3840 H   0  0  0  0  0  0  0  0  0  0  0  0
   42.5760   71.8750   62.1020 C   0  0  0  0  0  0  0  0  0  0  0  0
   43.0090   70.8890   62.1280 H   0  0  0  0  0  0  0  0  0  0  0  0
   41.7770   72.0110   63.0900 O   0  0  0  0  0  0  0  0  0  0  0  0
  1  6  1  0  0  0  0
  2  3  1  0  0  0  0
  2  1  2  0  0  0  0
  3  4  2  0  0  0  0
  4  9  1  0  0  0  0
  4  5  1  0  0  0  0
  5 10  1  0  0  0  0
  6  5  2  0  0  0  0
  6 20  1  0  0  0  0
  7  2  1  0  0  0  0
  8  3  1  0  0  0  0
 11 17  1  0  0  0  0
 11 16  1  0  0  0  0
 12 11  2  0  0  0  0
 13 12  1  0  0  0  0
 13 14  2  0  0  0  0
 14 15  1  0  0  0  0
 15 16  2  0  0  0  0
 15  1  1  0  0  0  0
 18 12  1  0  0  0  0
 19 13  1  0  0  0  0
 20 25  1  0  0  0  0
 21 22  1  0  0  0  0
 21 20  2  0  0  0  0
 22 23  2  0  0  0  0
 23 24  1  0  0  0  0
 24 28  1  0  0  0  0
 25 24  2  0  0  0  0
 26 21  1  0  0  0  0
 27 22  1  0  0  0  0
 28 29  1  0  0  0  0
 28 30  2  0  0  0  0
M  END
>  <minimizedAffinity>
-4.97906733

$$$$

 OpenBabel03212521083D

 30 32  0  0  0  0  0  0  0  0999 V2000
   41.9910   74.6060   59.0000 C   0  0  0  0  0  0  0  0  0  0  0  0
   43.2290   74.4730   59.6160 C   0  0  0  0  0  0  0  0  0  0  0  0
   44.3970   74.3870   58.8860 C   0  0  0  0  0  0  0  0  0  0  0  0
   44.3310   74.4380   57.4930 C   0  0  0  0  0  0  0  0  0  0  0  0
   43.0900   74.5710   56.8780 C   0  0  0  0  0  0  0  0  0  0  0  0
   41.9400   74.6540   57.6190 C   0  0  0  0  0  0  0  0  0  0  0  0
   43.3150   74.4300   60.7100 H   0  0  0  0  0  0  0  0  0  0  0  0
   45.3600   74.2840   59.3680 H   0  0  0  0  0  0  0  0  0  0  0  0
   45.2200   74.3750   56.8680 H   0  0  0  0  0  0  0  0  0  0  0  0
   43.0700   74.6070   55.7980 H   0  0  0  0  0  0  0  0  0  0  0  0
   38.9970   73.6190   60.8480 C   0  0  0  0  0  0  0  0  0  0  0  0
   38.5390   74.8180   61.3660 C   0  0  0  0  0  0  0  0  0  0  0  0
   39.2670   75.9890   61.0780 C   0  0  0  0  0  0  0  0  0  0  0  0
   40.3710   75.8760   60.3140 N   0  0  0  0  0  0  0  0  0  0  0  0
   40.7960   74.6900   59.8210 C   0  0  0  0  0  0  0  0  0  0  0  0
   40.1070   73.5760   60.0930 N   0  0  0  0  0  0  0  0  0  0  0  0
   38.4200   72.7130   61.0810 H   0  0  0  0  0  0  0  0  0  0  0  0
   37.6710   74.9290   61.9710 H   0  0  0  0  0  0  0  0  0  0  0  0
   38.9390   76.9270   61.4610 H   0  0  0  0  0  0  0  0  0  0  0  0
   40.6630   74.7930   56.9300 C   0  0  0  0  0  0  0  0  0  0  0  0
   40.3450   73.6280   56.2140 C   0  0  0  0  0  0  0  0  0  0  0  0
   39.1600   73.5570   55.4850 C   0  0  0  0  0  0  0  0  0  0  0  0
   38.3520   74.6330   55.4990 N   0  0  0  0  0  0  0  0  0  0  0  0
   38.6780   75.7490   56.1980 C   0  0  0  0  0  0  0  0  0  0  0  0
   39.8130   75.8230   56.8990 N   0  0  0  0  0  0  0  0  0  0  0  0
   40.9550   72.7180   56.1590 H   0  0  0  0  0  0  0  0  0  0  0  0
   38.8750   72.6870   54.9210 H   0  0  0  0  0  0  0  0  0  0  0  0
   37.8140   76.9180   56.2210 C   0  0  0  0  0  0  0  0  0  0  0  0
   38.0950   77.9360   56.4350 H   0  0  0  0  0  0  0  0  0  0  0  0
   36.5600   76.8680   55.9780 O   0  0  0  0  0  0  0  0  0  0  0  0
  1  2  1  0  0  0  0
  1 15  1  0  0  0  0
  2  7  1  0  0  0  0
  3  8  1  0  0  0  0
  3  2  2  0  0  0  0
  4  3  1  0  0  0  0
  5  4  2  0  0  0  0
  5  6  1  0  0  0  0
  6  1  2  0  0  0  0
  9  4  1  0  0  0  0
 10  5  1  0  0  0  0
 11 17  1  0  0  0  0
 11 12  1  0  0  0  0
 12 18  1  0  0  0  0
 13 12  2  0  0  0  0
 13 19  1  0  0  0  0
 14 13  1  0  0  0  0
 15 16  1  0  0  0  0
 15 14  2  0  0  0  0
 16 11  2  0  0  0  0
 20  6  1  0  0  0  0
 21 20  2  0  0  0  0
 22 23  2  0  0  0  0
 22 21  1  0  0  0  0
 23 24  1  0  0  0  0
 24 28  1  0  0  0  0
 24 25  2  0  0  0  0
 25 20  1  0  0  0  0
 26 21  1  0  0  0  0
 27 22  1  0  0  0  0
 28 29  1  0  0  0  0
 30 28  2  0  0  0  0
M  END
>  <minimizedAffinity>
-4.94332743

$$$$

 OpenBabel03212521083D

 30 32  0  0  0  0  0  0  0  0999 V2000
   39.2400   74.2060   58.6880 C   0  0  0  0  0  0  0  0  0  0  0  0
   38.0460   74.2010   57.9780 C   0  0  0  0  0  0  0  0  0  0  0  0
   37.6430   73.1040   57.2430 C   0  0  0  0  0  0  0  0  0  0  0  0
   38.4560   71.9700   57.2160 C   0  0  0  0  0  0  0  0  0  0  0  0
   39.6520   71.9770   57.9290 C   0  0  0  0  0  0  0  0  0  0  0  0
   40.0370   73.0760   58.6510 C   0  0  0  0  0  0  0  0  0  0  0  0
   37.3840   75.0770   57.9790 H   0  0  0  0  0  0  0  0  0  0  0  0
   36.7130   73.1030   56.6910 H   0  0  0  0  0  0  0  0  0  0  0  0
   38.1880   71.0780   56.6540 H   0  0  0  0  0  0  0  0  0  0  0  0
   40.2610   71.0860   57.8880 H   0  0  0  0  0  0  0  0  0  0  0  0
   40.6590   77.4730   59.5040 C   0  0  0  0  0  0  0  0  0  0  0  0
   40.3270   77.6350   60.8370 C   0  0  0  0  0  0  0  0  0  0  0  0
   39.6030   76.6060   61.4730 C   0  0  0  0  0  0  0  0  0  0  0  0
   39.2740   75.5220   60.7450 N   0  0  0  0  0  0  0  0  0  0  0  0
   39.6120   75.3900   59.4420 C   0  0  0  0  0  0  0  0  0  0  0  0
   40.2990   76.3650   58.8350 N   0  0  0  0  0  0  0  0  0  0  0  0
   41.2230   78.2830   59.0200 H   0  0  0  0  0  0  0  0  0  0  0  0
   40.5770   78.4820   61.4290 H   0  0  0  0  0  0  0  0  0  0  0  0
   39.3340   76.7010   62.4980 H   0  0  0  0  0  0  0  0  0  0  0  0
   41.2980   73.0370   59.3810 C   0  0  0  0  0  0  0  0  0  0  0  0
   41.1660   72.3210   60.5810 C   0  0  0  0  0  0  0  0  0  0  0  0
   42.2610   72.1660   61.4280 C   0  0  0  0  0  0  0  0  0  0  0  0
   43.4270   72.7220   61.0500 N   0  0  0  0  0  0  0  0  0  0  0  0
   43.5330   73.4100   59.8850 C   0  0  0  0  0  0  0  0  0  0  0  0
   42.4860   73.5620   59.0690 N   0  0  0  0  0  0  0  0  0  0  0  0
   40.2500   71.8430   60.9490 H   0  0  0  0  0  0  0  0  0  0  0  0
   42.2080   71.6270   62.3560 H   0  0  0  0  0  0  0  0  0  0  0  0
   44.7860   74.0170   59.4650 C   0  0  0  0  0  0  0  0  0  0  0  0
   45.4430   74.6360   60.0530 H   0  0  0  0  0  0  0  0  0  0  0  0
   45.2740   73.8780   58.2920 O   0  0  0  0  0  0  0  0  0  0  0  0
  1 15  1  0  0  0  0
  2  7  1  0  0  0  0
  2  1  2  0  0  0  0
  3  2  1  0  0  0  0
  4  3  2  0  0  0  0
  4  5  1  0  0  0  0
  5  6  2  0  0  0  0
  6  1  1  0  0  0  0
  6 20  1  0  0  0  0
  8  3  1  0  0  0  0
  9  4  1  0  0  0  0
 10  5  1  0  0  0  0
 11 12  1  0  0  0  0
 12 18  1  0  0  0  0
 12 13  2  0  0  0  0
 13 19  1  0  0  0  0
 14 13  1  0  0  0  0
 15 14  2  0  0  0  0
 16 15  1  0  0  0  0
 16 11  2  0  0  0  0
 17 11  1  0  0  0  0
 20 21  1  0  0  0  0
 21 26  1  0  0  0  0
 21 22  2  0  0  0  0
 22 27  1  0  0  0  0
 23 22  1  0  0  0  0
 24 23  2  0  0  0  0
 25 20  2  0  0  0  0
 25 24  1  0  0  0  0
 28 24  1  0  0  0  0
 28 29  1  0  0  0  0
 30 28  2  0  0  0  0
M  END
>  <minimizedAffinity>
-4.85755205

$$$$

 OpenBabel03212521083D

 30 32  0  0  0  0  0  0  0  0999 V2000
   41.0800   74.5200   59.9140 C   0  0  0  0  0  0  0  0  0  0  0  0
   40.5270   75.7680   60.1710 C   0  0  0  0  0  0  0  0  0  0  0  0
   39.3120   75.9050   60.8130 C   0  0  0  0  0  0  0  0  0  0  0  0
   38.6240   74.7600   61.2130 C   0  0  0  0  0  0  0  0  0  0  0  0
   39.1790   73.5100   60.9540 C   0  0  0  0  0  0  0  0  0  0  0  0
   40.3860   73.3930   60.3160 C   0  0  0  0  0  0  0  0  0  0  0  0
   41.0430   76.6880   59.8700 H   0  0  0  0  0  0  0  0  0  0  0  0
   38.8840   76.8790   61.0120 H   0  0  0  0  0  0  0  0  0  0  0  0
   37.6630   74.8090   61.7220 H   0  0  0  0  0  0  0  0  0  0  0  0
   38.6230   72.6410   61.2760 H   0  0  0  0  0  0  0  0  0  0  0  0
   44.6740   74.1720   59.3580 C   0  0  0  0  0  0  0  0  0  0  0  0
   44.7910   74.2790   57.9830 C   0  0  0  0  0  0  0  0  0  0  0  0
   43.6160   74.4760   57.2290 C   0  0  0  0  0  0  0  0  0  0  0  0
   42.4450   74.5470   57.8900 N   0  0  0  0  0  0  0  0  0  0  0  0
   42.3610   74.4380   59.2350 C   0  0  0  0  0  0  0  0  0  0  0  0
   43.4740   74.2510   59.9540 N   0  0  0  0  0  0  0  0  0  0  0  0
   45.5980   74.0180   59.9340 H   0  0  0  0  0  0  0  0  0  0  0  0
   45.7050   74.2260   57.4420 H   0  0  0  0  0  0  0  0  0  0  0  0
   43.6740   74.5630   56.1700 H   0  0  0  0  0  0  0  0  0  0  0  0
   40.9280   72.0630   60.0660 C   0  0  0  0  0  0  0  0  0  0  0  0
   40.5080   71.5710   58.8210 C   0  0  0  0  0  0  0  0  0  0  0  0
   40.9180   70.3110   58.3910 C   0  0  0  0  0  0  0  0  0  0  0  0
   41.7190   69.6020   59.2090 N   0  0  0  0  0  0  0  0  0  0  0  0
   42.1140   70.0960   60.4090 C   0  0  0  0  0  0  0  0  0  0  0  0
   41.7230   71.3040   60.8260 N   0  0  0  0  0  0  0  0  0  0  0  0
   39.8590   72.0930   58.1070 H   0  0  0  0  0  0  0  0  0  0  0  0
   40.6230   69.8930   57.4460 H   0  0  0  0  0  0  0  0  0  0  0  0
   42.9780   69.3410   61.3020 C   0  0  0  0  0  0  0  0  0  0  0  0
   43.4740   68.4070   61.0990 H   0  0  0  0  0  0  0  0  0  0  0  0
   43.2610   69.7200   62.4890 O   0  0  0  0  0  0  0  0  0  0  0  0
  1  2  2  0  0  0  0
  1  6  1  0  0  0  0
  2  3  1  0  0  0  0
  3  8  1  0  0  0  0
  3  4  2  0  0  0  0
  4  9  1  0  0  0  0
  5  4  1  0  0  0  0
  5 10  1  0  0  0  0
  6  5  2  0  0  0  0
  7  2  1  0  0  0  0
 11 17  1  0  0  0  0
 11 16  1  0  0  0  0
 12 11  2  0  0  0  0
 13 14  2  0  0  0  0
 13 12  1  0  0  0  0
 14 15  1  0  0  0  0
 15  1  1  0  0  0  0
 15 16  2  0  0  0  0
 18 12  1  0  0  0  0
 19 13  1  0  0  0  0
 20  6  1  0  0  0  0
 20 25  1  0  0  0  0
 21 20  2  0  0  0  0
 22 21  1  0  0  0  0
 22 23  2  0  0  0  0
 23 24  1  0  0  0  0
 24 25  2  0  0  0  0
 24 28  1  0  0  0  0
 26 21  1  0  0  0  0
 27 22  1  0  0  0  0
 28 30  2  0  0  0  0
 29 28  1  0  0  0  0
M  END
>  <minimizedAffinity>
-4.84428596

$$$$

 OpenBabel03212521083D

 30 32  0  0  0  0  0  0  0  0999 V2000
   39.7930   75.2480   58.3780 C   0  0  0  0  0  0  0  0  0  0  0  0
   39.2920   76.4450   57.8810 C   0  0  0  0  0  0  0  0  0  0  0  0
   39.4450   77.6350   58.5630 C   0  0  0  0  0  0  0  0  0  0  0  0
   40.1210   77.6350   59.7830 C   0  0  0  0  0  0  0  0  0  0  0  0
   40.6220   76.4350   60.2800 C   0  0  0  0  0  0  0  0  0  0  0  0
   40.4600   75.2630   59.5900 C   0  0  0  0  0  0  0  0  0  0  0  0
   38.7560   76.4790   56.9240 H   0  0  0  0  0  0  0  0  0  0  0  0
   39.0540   78.5660   58.1730 H   0  0  0  0  0  0  0  0  0  0  0  0
   40.2700   78.5440   60.3630 H   0  0  0  0  0  0  0  0  0  0  0  0
   41.1400   76.4670   61.2280 H   0  0  0  0  0  0  0  0  0  0  0  0
   38.3620   72.0910   57.2230 C   0  0  0  0  0  0  0  0  0  0  0  0
   39.2120   71.7180   56.1960 C   0  0  0  0  0  0  0  0  0  0  0  0
   40.2990   72.5630   55.8920 C   0  0  0  0  0  0  0  0  0  0  0  0
   40.4480   73.6880   56.6180 N   0  0  0  0  0  0  0  0  0  0  0  0
   39.6000   74.0270   57.6160 C   0  0  0  0  0  0  0  0  0  0  0  0
   38.5680   73.2280   57.9080 N   0  0  0  0  0  0  0  0  0  0  0  0
   37.5190   71.4230   57.4500 H   0  0  0  0  0  0  0  0  0  0  0  0
   39.1120   70.8360   55.6120 H   0  0  0  0  0  0  0  0  0  0  0  0
   40.9700   72.3040   55.1080 H   0  0  0  0  0  0  0  0  0  0  0  0
   41.0020   74.0310   60.1510 C   0  0  0  0  0  0  0  0  0  0  0  0
   40.2490   73.6050   61.2560 C   0  0  0  0  0  0  0  0  0  0  0  0
   40.6030   72.4420   61.9360 C   0  0  0  0  0  0  0  0  0  0  0  0
   41.6770   71.7610   61.4950 N   0  0  0  0  0  0  0  0  0  0  0  0
   42.3900   72.1910   60.4240 C   0  0  0  0  0  0  0  0  0  0  0  0
   42.0560   73.3060   59.7670 N   0  0  0  0  0  0  0  0  0  0  0  0
   39.3670   74.1090   61.6680 H   0  0  0  0  0  0  0  0  0  0  0  0
   40.0580   72.0760   62.7870 H   0  0  0  0  0  0  0  0  0  0  0  0
   43.5530   71.4660   59.9360 C   0  0  0  0  0  0  0  0  0  0  0  0
   43.7120   70.4010   59.9480 H   0  0  0  0  0  0  0  0  0  0  0  0
   44.5680   72.0390   59.4120 O   0  0  0  0  0  0  0  0  0  0  0  0
  1  6  1  0  0  0  0
  2  1  2  0  0  0  0
  2  3  1  0  0  0  0
  3  4  2  0  0  0  0
  4  5  1  0  0  0  0
  4  9  1  0  0  0  0
  5 10  1  0  0  0  0
  6 20  1  0  0  0  0
  6  5  2  0  0  0  0
  7  2  1  0  0  0  0
  8  3  1  0  0  0  0
 11 17  1  0  0  0  0
 11 16  1  0  0  0  0
 12 11  2  0  0  0  0
 13 12  1  0  0  0  0
 13 14  2  0  0  0  0
 14 15  1  0  0  0  0
 15 16  2  0  0  0  0
 15  1  1  0  0  0  0
 18 12  1  0  0  0  0
 19 13  1  0  0  0  0
 20 21  1  0  0  0  0
 21 26  1  0  0  0  0
 21 22  2  0  0  0  0
 22 27  1  0  0  0  0
 23 22  1  0  0  0  0
 24 23  2  0  0  0  0
 25 20  2  0  0  0  0
 25 24  1  0  0  0  0
 28 29  1  0  0  0  0
 28 24  1  0  0  0  0
 30 28  2  0  0  0  0
M  END
>  <minimizedAffinity>
-4.84075022

$$$$

 OpenBabel03212521083D

 30 32  0  0  0  0  0  0  0  0999 V2000
   41.4470   74.7600   59.8160 C   0  0  0  0  0  0  0  0  0  0  0  0
   40.9100   76.0210   59.5890 C   0  0  0  0  0  0  0  0  0  0  0  0
   39.7310   76.4250   60.1840 C   0  0  0  0  0  0  0  0  0  0  0  0
   39.0650   75.5450   61.0360 C   0  0  0  0  0  0  0  0  0  0  0  0
   39.6050   74.2820   61.2620 C   0  0  0  0  0  0  0  0  0  0  0  0
   40.7740   73.8970   60.6620 C   0  0  0  0  0  0  0  0  0  0  0  0
   41.4090   76.7370   58.9240 H   0  0  0  0  0  0  0  0  0  0  0  0
   39.3160   77.4080   60.0060 H   0  0  0  0  0  0  0  0  0  0  0  0
   38.1330   75.8110   61.5320 H   0  0  0  0  0  0  0  0  0  0  0  0
   39.0660   73.6210   61.9260 H   0  0  0  0  0  0  0  0  0  0  0  0
   43.8030   73.7030   57.2310 C   0  0  0  0  0  0  0  0  0  0  0  0
   45.0150   73.6880   57.8990 C   0  0  0  0  0  0  0  0  0  0  0  0
   45.0280   74.0450   59.2620 C   0  0  0  0  0  0  0  0  0  0  0  0
   43.8590   74.3830   59.8390 N   0  0  0  0  0  0  0  0  0  0  0  0
   42.6890   74.3900   59.1610 C   0  0  0  0  0  0  0  0  0  0  0  0
   42.6720   74.0510   57.8670 N   0  0  0  0  0  0  0  0  0  0  0  0
   43.8070   73.4230   56.1680 H   0  0  0  0  0  0  0  0  0  0  0  0
   45.9480   73.4240   57.4620 H   0  0  0  0  0  0  0  0  0  0  0  0
   45.9450   74.0420   59.8030 H   0  0  0  0  0  0  0  0  0  0  0  0
   41.3010   72.5640   60.9290 C   0  0  0  0  0  0  0  0  0  0  0  0
   41.7310   72.4470   62.2590 C   0  0  0  0  0  0  0  0  0  0  0  0
   42.2690   71.2460   62.7180 C   0  0  0  0  0  0  0  0  0  0  0  0
   42.3550   70.2260   61.8440 N   0  0  0  0  0  0  0  0  0  0  0  0
   41.9330   70.3600   60.5620 C   0  0  0  0  0  0  0  0  0  0  0  0
   41.4160   71.5090   60.1170 N   0  0  0  0  0  0  0  0  0  0  0  0
   41.6900   73.2340   63.0220 H   0  0  0  0  0  0  0  0  0  0  0  0
   42.6110   71.1090   63.7280 H   0  0  0  0  0  0  0  0  0  0  0  0
   42.0210   69.2660   59.6080 C   0  0  0  0  0  0  0  0  0  0  0  0
   41.4370   69.1290   58.7130 H   0  0  0  0  0  0  0  0  0  0  0  0
   42.8420   68.2950   59.7290 O   0  0  0  0  0  0  0  0  0  0  0  0
  1  6  1  0  0  0  0
  2  1  2  0  0  0  0
  2  3  1  0  0  0  0
  3  4  2  0  0  0  0
  4  5  1  0  0  0  0
  4  9  1  0  0  0  0
  5 10  1  0  0  0  0
  6 20  1  0  0  0  0
  6  5  2  0  0  0  0
  7  2  1  0  0  0  0
  8  3  1  0  0  0  0
 11 16  2  0  0  0  0
 11 12  1  0  0  0  0
 12 13  2  0  0  0  0
 13 19  1  0  0  0  0
 13 14  1  0  0  0  0
 15  1  1  0  0  0  0
 15 14  2  0  0  0  0
 16 15  1  0  0  0  0
 17 11  1  0  0  0  0
 18 12  1  0  0  0  0
 20 21  1  0  0  0  0
 21 22  2  0  0  0  0
 21 26  1  0  0  0  0
 22 27  1  0  0  0  0
 23 22  1  0  0  0  0
 24 23  2  0  0  0  0
 25 24  1  0  0  0  0
 25 20  2  0  0  0  0
 28 30  2  0  0  0  0
 28 24  1  0  0  0  0
 29 28  1  0  0  0  0
M  END
>  <minimizedAffinity>
-4.81455898

$$$$
