
 OpenBabel03212520153D

 26 27  0  0  0  0  0  0  0  0999 V2000
   43.1670   83.9250   58.6880 Cl  0  0  0  0  0  0  0  0  0  0  0  0
   41.9160   82.7540   58.2780 C   0  0  0  0  0  0  0  0  0  0  0  0
   41.0290   82.2570   59.2070 C   0  0  0  0  0  0  0  0  0  0  0  0
   40.1050   81.3440   58.7240 C   0  0  0  0  0  0  0  0  0  0  0  0
   40.0010   80.9030   57.4250 C   0  0  0  0  0  0  0  0  0  0  0  0
   40.9010   81.4220   56.5370 C   0  0  0  0  0  0  0  0  0  0  0  0
   40.8790   80.9430   54.8460 Cl  0  0  0  0  0  0  0  0  0  0  0  0
   41.8460   82.3370   56.9670 C   0  0  0  0  0  0  0  0  0  0  0  0
   39.3890   80.9350   59.4430 H   0  0  0  0  0  0  0  0  0  0  0  0
   39.2460   80.1860   57.1360 H   0  0  0  0  0  0  0  0  0  0  0  0
   41.9300   82.1510   61.5750 C   0  0  0  0  0  0  0  0  0  0  0  0
   41.1110   82.6920   60.5560 C   0  0  0  0  0  0  0  0  0  0  0  0
   40.2990   83.7580   60.8950 C   0  0  0  0  0  0  0  0  0  0  0  0
   40.3350   84.2190   62.1750 N   0  0  0  0  0  0  0  0  0  0  0  0
   41.1310   83.6770   63.1250 C   0  0  0  0  0  0  0  0  0  0  0  0
   41.9240   82.6440   62.8190 N   0  0  0  0  0  0  0  0  0  0  0  0
   42.5500   81.3180   61.2690 H   0  0  0  0  0  0  0  0  0  0  0  0
   39.6420   84.2370   60.1890 H   0  0  0  0  0  0  0  0  0  0  0  0
   41.0340   84.3150   64.4680 C   0  0  0  0  0  0  0  0  0  0  0  0
   40.6990   85.6500   64.3870 F   0  0  0  0  0  0  0  0  0  0  0  0
   40.0890   83.6770   65.2340 F   0  0  0  0  0  0  0  0  0  0  0  0
   42.2680   84.3050   65.1100 F   0  0  0  0  0  0  0  0  0  0  0  0
   42.7470   82.8420   56.0200 O   0  0  0  0  0  0  0  0  0  0  0  0
   42.4880   84.0040   55.3110 C   0  0  0  0  0  0  0  0  0  0  0  0
   42.2700   84.8760   55.9230 H   0  0  0  0  0  0  0  0  0  0  0  0
   42.5380   83.9090   54.0530 O   0  0  0  0  0  0  0  0  0  0  0  0
  2  1  1  0  0  0  0
  2  3  1  0  0  0  0
  3 12  1  0  0  0  0
  4  3  2  0  0  0  0
  4  9  1  0  0  0  0
  5  4  1  0  0  0  0
  6  8  1  0  0  0  0
  6  5  2  0  0  0  0
  7  6  1  0  0  0  0
  8  2  2  0  0  0  0
 10  5  1  0  0  0  0
 11 16  1  0  0  0  0
 12 13  1  0  0  0  0
 12 11  2  0  0  0  0
 13 14  2  0  0  0  0
 14 15  1  0  0  0  0
 15 19  1  0  0  0  0
 16 15  2  0  0  0  0
 17 11  1  0  0  0  0
 18 13  1  0  0  0  0
 19 22  1  0  0  0  0
 19 21  1  0  0  0  0
 20 19  1  0  0  0  0
 23  8  1  0  0  0  0
 24 25  1  0  0  0  0
 24 23  1  0  0  0  0
 26 24  2  0  0  0  0
M  END
>  <minimizedAffinity>
-4.83651018

>  <minimizedRMSD>
0.705234587

$$$$
