
 OpenBabel03212520153D

 26 27  0  0  0  0  0  0  0  0999 V2000
   41.2530   85.5990   57.7850 Cl  0  0  0  0  0  0  0  0  0  0  0  0
   42.3890   84.8110   58.8770 C   0  0  0  0  0  0  0  0  0  0  0  0
   42.4300   83.4450   59.0500 C   0  0  0  0  0  0  0  0  0  0  0  0
   43.3830   82.9830   59.9430 C   0  0  0  0  0  0  0  0  0  0  0  0
   44.2700   83.7550   60.6580 C   0  0  0  0  0  0  0  0  0  0  0  0
   44.1940   85.1050   60.4560 C   0  0  0  0  0  0  0  0  0  0  0  0
   45.2690   86.2060   61.3050 Cl  0  0  0  0  0  0  0  0  0  0  0  0
   43.2600   85.6200   59.5740 C   0  0  0  0  0  0  0  0  0  0  0  0
   43.4360   81.9010   60.0980 H   0  0  0  0  0  0  0  0  0  0  0  0
   44.9820   83.3080   61.3360 H   0  0  0  0  0  0  0  0  0  0  0  0
   40.4060   81.9310   58.8470 C   0  0  0  0  0  0  0  0  0  0  0  0
   41.5270   82.6210   58.3280 C   0  0  0  0  0  0  0  0  0  0  0  0
   41.7830   82.4880   56.9760 C   0  0  0  0  0  0  0  0  0  0  0  0
   40.9490   81.7100   56.2330 N   0  0  0  0  0  0  0  0  0  0  0  0
   39.8860   81.0630   56.7620 C   0  0  0  0  0  0  0  0  0  0  0  0
   39.6210   81.1780   58.0690 N   0  0  0  0  0  0  0  0  0  0  0  0
   40.2410   82.0610   59.9090 H   0  0  0  0  0  0  0  0  0  0  0  0
   42.6110   82.9740   56.4890 H   0  0  0  0  0  0  0  0  0  0  0  0
   39.0900   80.2580   55.7940 C   0  0  0  0  0  0  0  0  0  0  0  0
   37.8110   80.7490   55.6360 F   0  0  0  0  0  0  0  0  0  0  0  0
   39.7030   80.2450   54.5650 F   0  0  0  0  0  0  0  0  0  0  0  0
   38.9100   78.9600   56.2610 F   0  0  0  0  0  0  0  0  0  0  0  0
   43.2200   87.0100   59.4000 O   0  0  0  0  0  0  0  0  0  0  0  0
   43.9900   87.6490   58.4410 C   0  0  0  0  0  0  0  0  0  0  0  0
   43.8780   87.2620   57.4310 H   0  0  0  0  0  0  0  0  0  0  0  0
   44.7190   88.5940   58.8550 O   0  0  0  0  0  0  0  0  0  0  0  0
  1  2  1  0  0  0  0
  2  3  2  0  0  0  0
  2  8  1  0  0  0  0
  3  4  1  0  0  0  0
  4  9  1  0  0  0  0
  4  5  2  0  0  0  0
  5 10  1  0  0  0  0
  6  5  1  0  0  0  0
  6  7  1  0  0  0  0
  8  6  2  0  0  0  0
 11 17  1  0  0  0  0
 12 11  1  0  0  0  0
 12  3  1  0  0  0  0
 13 12  2  0  0  0  0
 14 15  2  0  0  0  0
 14 13  1  0  0  0  0
 15 16  1  0  0  0  0
 16 11  2  0  0  0  0
 18 13  1  0  0  0  0
 19 22  1  0  0  0  0
 19 15  1  0  0  0  0
 20 19  1  0  0  0  0
 21 19  1  0  0  0  0
 23  8  1  0  0  0  0
 24 26  2  0  0  0  0
 24 23  1  0  0  0  0
 25 24  1  0  0  0  0
M  END
>  <minimizedAffinity>
-3.98342443

>  <minimizedRMSD>
6.8116498

$$$$
