
 OpenBabel03212520163D

 26 27  0  0  0  0  0  0  0  0999 V2000
   39.4770   73.1360   61.2420 Cl  0  0  0  0  0  0  0  0  0  0  0  0
   41.0600   73.5830   60.6130 C   0  0  0  0  0  0  0  0  0  0  0  0
   42.1580   72.7560   60.7030 C   0  0  0  0  0  0  0  0  0  0  0  0
   43.3300   73.2550   60.1580 C   0  0  0  0  0  0  0  0  0  0  0  0
   43.4870   74.4790   59.5480 C   0  0  0  0  0  0  0  0  0  0  0  0
   42.3730   75.2670   59.4810 C   0  0  0  0  0  0  0  0  0  0  0  0
   42.4340   76.8540   58.7290 Cl  0  0  0  0  0  0  0  0  0  0  0  0
   41.1750   74.8170   60.0100 C   0  0  0  0  0  0  0  0  0  0  0  0
   44.2170   72.6170   60.2170 H   0  0  0  0  0  0  0  0  0  0  0  0
   44.4420   74.7870   59.1500 H   0  0  0  0  0  0  0  0  0  0  0  0
   41.8900   71.2310   62.7120 C   0  0  0  0  0  0  0  0  0  0  0  0
   42.0290   71.4880   61.3270 C   0  0  0  0  0  0  0  0  0  0  0  0
   42.0430   70.3960   60.4790 C   0  0  0  0  0  0  0  0  0  0  0  0
   41.9230   69.1530   61.0210 N   0  0  0  0  0  0  0  0  0  0  0  0
   41.7910   68.9450   62.3510 C   0  0  0  0  0  0  0  0  0  0  0  0
   41.7760   69.9880   63.1890 N   0  0  0  0  0  0  0  0  0  0  0  0
   41.8840   72.1120   63.3400 H   0  0  0  0  0  0  0  0  0  0  0  0
   42.1440   70.4890   59.4120 H   0  0  0  0  0  0  0  0  0  0  0  0
   41.6730   67.5160   62.7570 C   0  0  0  0  0  0  0  0  0  0  0  0
   41.5570   66.6740   61.6710 F   0  0  0  0  0  0  0  0  0  0  0  0
   42.7720   67.1330   63.4870 F   0  0  0  0  0  0  0  0  0  0  0  0
   40.5070   67.3050   63.4870 F   0  0  0  0  0  0  0  0  0  0  0  0
   40.0600   75.6600   59.9170 O   0  0  0  0  0  0  0  0  0  0  0  0
   39.1580   75.5660   58.8690 C   0  0  0  0  0  0  0  0  0  0  0  0
   38.9270   74.5510   58.5520 H   0  0  0  0  0  0  0  0  0  0  0  0
   38.7180   76.6590   58.4150 O   0  0  0  0  0  0  0  0  0  0  0  0
  2  3  1  0  0  0  0
  2  1  1  0  0  0  0
  3 12  1  0  0  0  0
  4  9  1  0  0  0  0
  4  3  2  0  0  0  0
  5  4  1  0  0  0  0
  6  5  2  0  0  0  0
  6  8  1  0  0  0  0
  7  6  1  0  0  0  0
  8  2  2  0  0  0  0
 10  5  1  0  0  0  0
 11 16  1  0  0  0  0
 11 17  1  0  0  0  0
 12 11  2  0  0  0  0
 13 14  2  0  0  0  0
 13 12  1  0  0  0  0
 14 15  1  0  0  0  0
 15 19  1  0  0  0  0
 15 16  2  0  0  0  0
 18 13  1  0  0  0  0
 19 21  1  0  0  0  0
 19 22  1  0  0  0  0
 20 19  1  0  0  0  0
 23  8  1  0  0  0  0
 24 23  1  0  0  0  0
 25 24  1  0  0  0  0
 26 24  2  0  0  0  0
M  END
>  <minimizedAffinity>
-5.25007772

$$$$

 OpenBabel03212520163D

 26 27  0  0  0  0  0  0  0  0999 V2000
   41.4580   70.2670   58.8390 Cl  0  0  0  0  0  0  0  0  0  0  0  0
   42.0940   70.0120   60.4610 C   0  0  0  0  0  0  0  0  0  0  0  0
   42.0770   70.9910   61.4300 C   0  0  0  0  0  0  0  0  0  0  0  0
   42.6150   70.6310   62.6550 C   0  0  0  0  0  0  0  0  0  0  0  0
   43.1530   69.4070   62.9790 C   0  0  0  0  0  0  0  0  0  0  0  0
   43.1510   68.4660   61.9880 C   0  0  0  0  0  0  0  0  0  0  0  0
   43.8080   66.8600   62.2670 Cl  0  0  0  0  0  0  0  0  0  0  0  0
   42.6250   68.7730   60.7440 C   0  0  0  0  0  0  0  0  0  0  0  0
   42.6120   71.3920   63.4420 H   0  0  0  0  0  0  0  0  0  0  0  0
   43.5520   69.2130   63.9630 H   0  0  0  0  0  0  0  0  0  0  0  0
   42.1350   73.2930   60.3660 C   0  0  0  0  0  0  0  0  0  0  0  0
   41.5290   72.2660   61.1280 C   0  0  0  0  0  0  0  0  0  0  0  0
   40.2690   72.5150   61.6380 C   0  0  0  0  0  0  0  0  0  0  0  0
   39.6930   73.7210   61.3790 N   0  0  0  0  0  0  0  0  0  0  0  0
   40.3020   74.6810   60.6470 C   0  0  0  0  0  0  0  0  0  0  0  0
   41.5220   74.4600   60.1440 N   0  0  0  0  0  0  0  0  0  0  0  0
   43.1210   73.0570   59.9850 H   0  0  0  0  0  0  0  0  0  0  0  0
   39.7270   71.7970   62.2280 H   0  0  0  0  0  0  0  0  0  0  0  0
   39.5160   75.9350   60.4720 C   0  0  0  0  0  0  0  0  0  0  0  0
   38.6400   75.8560   59.4090 F   0  0  0  0  0  0  0  0  0  0  0  0
   38.7960   76.2120   61.6070 F   0  0  0  0  0  0  0  0  0  0  0  0
   40.3520   77.0010   60.1530 F   0  0  0  0  0  0  0  0  0  0  0  0
   42.6440   67.7760   59.7610 O   0  0  0  0  0  0  0  0  0  0  0  0
   41.5600   66.9390   59.5460 C   0  0  0  0  0  0  0  0  0  0  0  0
   40.6800   67.4270   59.1330 H   0  0  0  0  0  0  0  0  0  0  0  0
   41.7250   65.7260   59.8530 O   0  0  0  0  0  0  0  0  0  0  0  0
  1  2  1  0  0  0  0
  2  8  2  0  0  0  0
  2  3  1  0  0  0  0
  3  4  2  0  0  0  0
  4  5  1  0  0  0  0
  4  9  1  0  0  0  0
  5 10  1  0  0  0  0
  6  7  1  0  0  0  0
  6  5  2  0  0  0  0
  8  6  1  0  0  0  0
 11 12  1  0  0  0  0
 12  3  1  0  0  0  0
 12 13  2  0  0  0  0
 13 18  1  0  0  0  0
 14 13  1  0  0  0  0
 15 14  2  0  0  0  0
 16 11  2  0  0  0  0
 16 15  1  0  0  0  0
 17 11  1  0  0  0  0
 19 15  1  0  0  0  0
 19 21  1  0  0  0  0
 20 19  1  0  0  0  0
 22 19  1  0  0  0  0
 23  8  1  0  0  0  0
 24 23  1  0  0  0  0
 24 26  2  0  0  0  0
 25 24  1  0  0  0  0
M  END
>  <minimizedAffinity>
-5.17918062

$$$$

 OpenBabel03212520163D

 26 27  0  0  0  0  0  0  0  0999 V2000
   43.3140   73.4040   59.6480 Cl  0  0  0  0  0  0  0  0  0  0  0  0
   41.6490   73.7370   60.1160 C   0  0  0  0  0  0  0  0  0  0  0  0
   40.9360   72.9180   60.9630 C   0  0  0  0  0  0  0  0  0  0  0  0
   39.6380   73.3210   61.2340 C   0  0  0  0  0  0  0  0  0  0  0  0
   39.0160   74.4440   60.7400 C   0  0  0  0  0  0  0  0  0  0  0  0
   39.7600   75.2280   59.9040 C   0  0  0  0  0  0  0  0  0  0  0  0
   39.0870   76.6920   59.2030 Cl  0  0  0  0  0  0  0  0  0  0  0  0
   41.0620   74.8710   59.6000 C   0  0  0  0  0  0  0  0  0  0  0  0
   39.0510   72.6860   61.9040 H   0  0  0  0  0  0  0  0  0  0  0  0
   37.9960   74.6820   61.0060 H   0  0  0  0  0  0  0  0  0  0  0  0
   42.0070   71.5530   62.8130 C   0  0  0  0  0  0  0  0  0  0  0  0
   41.5490   71.7500   61.4890 C   0  0  0  0  0  0  0  0  0  0  0  0
   41.7080   70.7020   60.6010 C   0  0  0  0  0  0  0  0  0  0  0  0
   42.2900   69.5570   61.0490 N   0  0  0  0  0  0  0  0  0  0  0  0
   42.7170   69.4020   62.3230 C   0  0  0  0  0  0  0  0  0  0  0  0
   42.5730   70.4040   63.1980 N   0  0  0  0  0  0  0  0  0  0  0  0
   41.8650   72.3970   63.4750 H   0  0  0  0  0  0  0  0  0  0  0  0
   41.3910   70.7560   59.5740 H   0  0  0  0  0  0  0  0  0  0  0  0
   43.3290   68.0790   62.6280 C   0  0  0  0  0  0  0  0  0  0  0  0
   44.4090   68.1880   63.4800 F   0  0  0  0  0  0  0  0  0  0  0  0
   42.4040   67.2450   63.2070 F   0  0  0  0  0  0  0  0  0  0  0  0
   43.8530   67.5000   61.4760 F   0  0  0  0  0  0  0  0  0  0  0  0
   41.7860   75.7070   58.7380 O   0  0  0  0  0  0  0  0  0  0  0  0
   42.7720   76.5610   59.2060 C   0  0  0  0  0  0  0  0  0  0  0  0
   43.7910   76.2200   59.0380 H   0  0  0  0  0  0  0  0  0  0  0  0
   42.3710   77.6200   59.7640 O   0  0  0  0  0  0  0  0  0  0  0  0
  1  2  1  0  0  0  0
  2  3  1  0  0  0  0
  3  4  2  0  0  0  0
  3 12  1  0  0  0  0
  4  9  1  0  0  0  0
  5 10  1  0  0  0  0
  5  4  1  0  0  0  0
  6  5  2  0  0  0  0
  7  6  1  0  0  0  0
  8  6  1  0  0  0  0
  8  2  2  0  0  0  0
 11 16  1  0  0  0  0
 11 17  1  0  0  0  0
 12 11  2  0  0  0  0
 13 14  2  0  0  0  0
 13 12  1  0  0  0  0
 14 15  1  0  0  0  0
 15 19  1  0  0  0  0
 15 16  2  0  0  0  0
 18 13  1  0  0  0  0
 19 21  1  0  0  0  0
 19 20  1  0  0  0  0
 22 19  1  0  0  0  0
 23 24  1  0  0  0  0
 23  8  1  0  0  0  0
 24 26  2  0  0  0  0
 25 24  1  0  0  0  0
M  END
>  <minimizedAffinity>
-5.11764765

$$$$

 OpenBabel03212520163D

 26 27  0  0  0  0  0  0  0  0999 V2000
   42.5120   71.3040   62.2580 Cl  0  0  0  0  0  0  0  0  0  0  0  0
   41.9810   70.5180   60.7740 C   0  0  0  0  0  0  0  0  0  0  0  0
   41.3840   71.2050   59.7400 C   0  0  0  0  0  0  0  0  0  0  0  0
   41.0270   70.4410   58.6410 C   0  0  0  0  0  0  0  0  0  0  0  0
   41.2130   69.0860   58.4970 C   0  0  0  0  0  0  0  0  0  0  0  0
   41.8080   68.4440   59.5460 C   0  0  0  0  0  0  0  0  0  0  0  0
   42.1050   66.7130   59.4940 Cl  0  0  0  0  0  0  0  0  0  0  0  0
   42.1850   69.1600   60.6700 C   0  0  0  0  0  0  0  0  0  0  0  0
   40.5500   70.9650   57.8060 H   0  0  0  0  0  0  0  0  0  0  0  0
   40.9020   68.5690   57.6010 H   0  0  0  0  0  0  0  0  0  0  0  0
   42.0710   73.6320   59.4750 C   0  0  0  0  0  0  0  0  0  0  0  0
   41.1760   72.6050   59.8580 C   0  0  0  0  0  0  0  0  0  0  0  0
   39.9670   72.9900   60.4060 C   0  0  0  0  0  0  0  0  0  0  0  0
   39.7120   74.3200   60.5420 N   0  0  0  0  0  0  0  0  0  0  0  0
   40.5910   75.2760   60.1650 C   0  0  0  0  0  0  0  0  0  0  0  0
   41.7680   74.9250   59.6330 N   0  0  0  0  0  0  0  0  0  0  0  0
   43.0060   73.2890   59.0510 H   0  0  0  0  0  0  0  0  0  0  0  0
   39.2220   72.2830   60.7270 H   0  0  0  0  0  0  0  0  0  0  0  0
   40.1370   76.6760   60.3940 C   0  0  0  0  0  0  0  0  0  0  0  0
   39.5120   76.8280   61.6140 F   0  0  0  0  0  0  0  0  0  0  0  0
   41.2030   77.5400   60.3420 F   0  0  0  0  0  0  0  0  0  0  0  0
   39.1700   77.0400   59.4610 F   0  0  0  0  0  0  0  0  0  0  0  0
   42.7930   68.4580   61.7200 O   0  0  0  0  0  0  0  0  0  0  0  0
   42.0540   67.9100   62.7570 C   0  0  0  0  0  0  0  0  0  0  0  0
   41.4050   68.6100   63.2780 H   0  0  0  0  0  0  0  0  0  0  0  0
   42.2230   66.6770   62.9670 O   0  0  0  0  0  0  0  0  0  0  0  0
  2  1  1  0  0  0  0
  3 12  1  0  0  0  0
  3  2  2  0  0  0  0
  4  3  1  0  0  0  0
  5  4  2  0  0  0  0
  5  6  1  0  0  0  0
  6  8  2  0  0  0  0
  7  6  1  0  0  0  0
  8  2  1  0  0  0  0
  8 23  1  0  0  0  0
  9  4  1  0  0  0  0
 10  5  1  0  0  0  0
 11 16  2  0  0  0  0
 11 12  1  0  0  0  0
 12 13  2  0  0  0  0
 13 14  1  0  0  0  0
 13 18  1  0  0  0  0
 15 19  1  0  0  0  0
 15 14  2  0  0  0  0
 16 15  1  0  0  0  0
 17 11  1  0  0  0  0
 19 20  1  0  0  0  0
 21 19  1  0  0  0  0
 22 19  1  0  0  0  0
 23 24  1  0  0  0  0
 24 26  2  0  0  0  0
 24 25  1  0  0  0  0
M  END
>  <minimizedAffinity>
-5.09341717

$$$$

 OpenBabel03212520163D

 26 27  0  0  0  0  0  0  0  0999 V2000
   41.7110   70.8030   58.6540 Cl  0  0  0  0  0  0  0  0  0  0  0  0
   41.7550   70.8230   60.4150 C   0  0  0  0  0  0  0  0  0  0  0  0
   41.4130   71.9330   61.1550 C   0  0  0  0  0  0  0  0  0  0  0  0
   41.4990   71.7860   62.5300 C   0  0  0  0  0  0  0  0  0  0  0  0
   41.8890   70.6510   63.2030 C   0  0  0  0  0  0  0  0  0  0  0  0
   42.2190   69.5740   62.4300 C   0  0  0  0  0  0  0  0  0  0  0  0
   42.7340   68.0610   63.1620 Cl  0  0  0  0  0  0  0  0  0  0  0  0
   42.1510   69.6670   61.0500 C   0  0  0  0  0  0  0  0  0  0  0  0
   41.2330   72.6540   63.1400 H   0  0  0  0  0  0  0  0  0  0  0  0
   41.9270   70.6250   64.2830 H   0  0  0  0  0  0  0  0  0  0  0  0
   41.8470   74.1470   59.9960 C   0  0  0  0  0  0  0  0  0  0  0  0
   41.0080   73.1200   60.4900 C   0  0  0  0  0  0  0  0  0  0  0  0
   39.6460   73.2760   60.3140 C   0  0  0  0  0  0  0  0  0  0  0  0
   39.1990   74.3960   59.6820 N   0  0  0  0  0  0  0  0  0  0  0  0
   40.0300   75.3580   59.2220 C   0  0  0  0  0  0  0  0  0  0  0  0
   41.3520   75.2270   59.3820 N   0  0  0  0  0  0  0  0  0  0  0  0
   42.9060   73.9860   60.1540 H   0  0  0  0  0  0  0  0  0  0  0  0
   38.9280   72.5510   60.6550 H   0  0  0  0  0  0  0  0  0  0  0  0
   39.3570   76.5100   58.5580 C   0  0  0  0  0  0  0  0  0  0  0  0
   40.0190   76.9120   57.4170 F   0  0  0  0  0  0  0  0  0  0  0  0
   38.0680   76.1800   58.2180 F   0  0  0  0  0  0  0  0  0  0  0  0
   39.3710   77.6310   59.3820 F   0  0  0  0  0  0  0  0  0  0  0  0
   42.4990   68.5360   60.3000 O   0  0  0  0  0  0  0  0  0  0  0  0
   41.5490   67.6220   59.8720 C   0  0  0  0  0  0  0  0  0  0  0  0
   40.7890   68.0280   59.2080 H   0  0  0  0  0  0  0  0  0  0  0  0
   41.6830   66.4420   60.3000 O   0  0  0  0  0  0  0  0  0  0  0  0
  1  2  1  0  0  0  0
  2  8  2  0  0  0  0
  2  3  1  0  0  0  0
  3  4  2  0  0  0  0
  4  9  1  0  0  0  0
  4  5  1  0  0  0  0
  5 10  1  0  0  0  0
  6  7  1  0  0  0  0
  6  5  2  0  0  0  0
  8  6  1  0  0  0  0
 11 17  1  0  0  0  0
 11 12  1  0  0  0  0
 12  3  1  0  0  0  0
 13 12  2  0  0  0  0
 13 18  1  0  0  0  0
 14 13  1  0  0  0  0
 15 16  1  0  0  0  0
 15 14  2  0  0  0  0
 16 11  2  0  0  0  0
 19 15  1  0  0  0  0
 19 22  1  0  0  0  0
 20 19  1  0  0  0  0
 21 19  1  0  0  0  0
 23  8  1  0  0  0  0
 24 26  2  0  0  0  0
 24 23  1  0  0  0  0
 25 24  1  0  0  0  0
M  END
>  <minimizedAffinity>
-4.9380126

$$$$

 OpenBabel03212520163D

 26 27  0  0  0  0  0  0  0  0999 V2000
   41.2170   70.5780   58.8150 Cl  0  0  0  0  0  0  0  0  0  0  0  0
   41.8500   70.3440   60.4420 C   0  0  0  0  0  0  0  0  0  0  0  0
   41.8410   71.3400   61.3940 C   0  0  0  0  0  0  0  0  0  0  0  0
   42.3740   70.9950   62.6260 C   0  0  0  0  0  0  0  0  0  0  0  0
   42.9010   69.7720   62.9700 C   0  0  0  0  0  0  0  0  0  0  0  0
   42.8910   68.8140   61.9950 C   0  0  0  0  0  0  0  0  0  0  0  0
   43.5340   67.2080   62.3020 Cl  0  0  0  0  0  0  0  0  0  0  0  0
   42.3690   69.1050   60.7460 C   0  0  0  0  0  0  0  0  0  0  0  0
   42.3780   71.7690   63.3990 H   0  0  0  0  0  0  0  0  0  0  0  0
   43.2980   69.5910   63.9580 H   0  0  0  0  0  0  0  0  0  0  0  0
   40.0100   73.0950   61.3760 C   0  0  0  0  0  0  0  0  0  0  0  0
   41.3050   72.6140   61.0700 C   0  0  0  0  0  0  0  0  0  0  0  0
   42.1500   73.4650   60.3820 C   0  0  0  0  0  0  0  0  0  0  0  0
   41.6900   74.7000   60.0450 N   0  0  0  0  0  0  0  0  0  0  0  0
   40.4450   75.1280   60.3530 C   0  0  0  0  0  0  0  0  0  0  0  0
   39.6110   74.3200   61.0180 N   0  0  0  0  0  0  0  0  0  0  0  0
   39.3800   72.3980   61.9150 H   0  0  0  0  0  0  0  0  0  0  0  0
   43.1530   73.1900   60.1040 H   0  0  0  0  0  0  0  0  0  0  0  0
   40.1210   76.5090   59.9000 C   0  0  0  0  0  0  0  0  0  0  0  0
   40.0850   77.4060   60.9480 F   0  0  0  0  0  0  0  0  0  0  0  0
   41.0510   76.9460   58.9890 F   0  0  0  0  0  0  0  0  0  0  0  0
   38.8420   76.5630   59.3540 F   0  0  0  0  0  0  0  0  0  0  0  0
   42.3800   68.0910   59.7800 O   0  0  0  0  0  0  0  0  0  0  0  0
   43.4450   67.9220   58.9090 C   0  0  0  0  0  0  0  0  0  0  0  0
   44.4160   67.8140   59.3880 H   0  0  0  0  0  0  0  0  0  0  0  0
   43.1610   67.9140   57.6790 O   0  0  0  0  0  0  0  0  0  0  0  0
  1  2  1  0  0  0  0
  2  8  2  0  0  0  0
  2  3  1  0  0  0  0
  3  4  2  0  0  0  0
  4  5  1  0  0  0  0
  4  9  1  0  0  0  0
  5 10  1  0  0  0  0
  6  7  1  0  0  0  0
  6  5  2  0  0  0  0
  8  6  1  0  0  0  0
 11 17  1  0  0  0  0
 12 11  1  0  0  0  0
 12  3  1  0  0  0  0
 13 12  2  0  0  0  0
 14 15  2  0  0  0  0
 14 13  1  0  0  0  0
 15 16  1  0  0  0  0
 16 11  2  0  0  0  0
 18 13  1  0  0  0  0
 19 15  1  0  0  0  0
 19 20  1  0  0  0  0
 21 19  1  0  0  0  0
 22 19  1  0  0  0  0
 23  8  1  0  0  0  0
 24 25  1  0  0  0  0
 24 23  1  0  0  0  0
 26 24  2  0  0  0  0
M  END
>  <minimizedAffinity>
-4.86884165

$$$$

 OpenBabel03212520163D

 26 27  0  0  0  0  0  0  0  0999 V2000
   40.1750   70.7660   58.0850 Cl  0  0  0  0  0  0  0  0  0  0  0  0
   41.5510   70.3570   59.1060 C   0  0  0  0  0  0  0  0  0  0  0  0
   42.0280   71.2000   60.0850 C   0  0  0  0  0  0  0  0  0  0  0  0
   43.1170   70.7300   60.8010 C   0  0  0  0  0  0  0  0  0  0  0  0
   43.7480   69.5200   60.6210 C   0  0  0  0  0  0  0  0  0  0  0  0
   43.2420   68.7160   59.6390 C   0  0  0  0  0  0  0  0  0  0  0  0
   43.9540   67.1450   59.3050 Cl  0  0  0  0  0  0  0  0  0  0  0  0
   42.1550   69.1370   58.8930 C   0  0  0  0  0  0  0  0  0  0  0  0
   43.5150   71.3820   61.5850 H   0  0  0  0  0  0  0  0  0  0  0  0
   44.5940   69.2350   61.2290 H   0  0  0  0  0  0  0  0  0  0  0  0
   40.3640   72.7450   61.2130 C   0  0  0  0  0  0  0  0  0  0  0  0
   41.4000   72.4560   60.2940 C   0  0  0  0  0  0  0  0  0  0  0  0
   41.8610   73.4980   59.5110 C   0  0  0  0  0  0  0  0  0  0  0  0
   41.2960   74.7260   59.6690 N   0  0  0  0  0  0  0  0  0  0  0  0
   40.3060   74.9670   60.5580 C   0  0  0  0  0  0  0  0  0  0  0  0
   39.8450   73.9730   61.3250 N   0  0  0  0  0  0  0  0  0  0  0  0
   40.0320   71.9030   61.8070 H   0  0  0  0  0  0  0  0  0  0  0  0
   42.6460   73.3770   58.7840 H   0  0  0  0  0  0  0  0  0  0  0  0
   39.8130   76.3720   60.5870 C   0  0  0  0  0  0  0  0  0  0  0  0
   38.9890   76.6580   59.5180 F   0  0  0  0  0  0  0  0  0  0  0  0
   39.1160   76.6120   61.7460 F   0  0  0  0  0  0  0  0  0  0  0  0
   40.8690   77.2690   60.4610 F   0  0  0  0  0  0  0  0  0  0  0  0
   41.6720   68.2780   57.8980 O   0  0  0  0  0  0  0  0  0  0  0  0
   42.1360   68.3350   56.5930 C   0  0  0  0  0  0  0  0  0  0  0  0
   43.1860   68.6000   56.4910 H   0  0  0  0  0  0  0  0  0  0  0  0
   41.2920   68.0750   55.6910 O   0  0  0  0  0  0  0  0  0  0  0  0
  1  2  1  0  0  0  0
  2  3  1  0  0  0  0
  3 12  1  0  0  0  0
  3  4  2  0  0  0  0
  4  9  1  0  0  0  0
  5  4  1  0  0  0  0
  5 10  1  0  0  0  0
  6  5  2  0  0  0  0
  7  6  1  0  0  0  0
  8  2  2  0  0  0  0
  8  6  1  0  0  0  0
 11 16  1  0  0  0  0
 11 17  1  0  0  0  0
 12 11  2  0  0  0  0
 13 14  2  0  0  0  0
 13 12  1  0  0  0  0
 14 15  1  0  0  0  0
 15 19  1  0  0  0  0
 15 16  2  0  0  0  0
 18 13  1  0  0  0  0
 19 21  1  0  0  0  0
 20 19  1  0  0  0  0
 22 19  1  0  0  0  0
 23  8  1  0  0  0  0
 24 23  1  0  0  0  0
 25 24  1  0  0  0  0
 26 24  2  0  0  0  0
M  END
>  <minimizedAffinity>
-4.84726191

$$$$

 OpenBabel03212520163D

 26 27  0  0  0  0  0  0  0  0999 V2000
   38.8450   73.1590   60.1200 Cl  0  0  0  0  0  0  0  0  0  0  0  0
   40.1750   74.2110   59.6430 C   0  0  0  0  0  0  0  0  0  0  0  0
   41.4860   73.9490   59.9740 C   0  0  0  0  0  0  0  0  0  0  0  0
   42.4130   74.8740   59.5210 C   0  0  0  0  0  0  0  0  0  0  0  0
   42.1420   76.0050   58.7860 C   0  0  0  0  0  0  0  0  0  0  0  0
   40.8280   76.2260   58.4810 C   0  0  0  0  0  0  0  0  0  0  0  0
   40.3430   77.6340   57.5480 Cl  0  0  0  0  0  0  0  0  0  0  0  0
   39.8600   75.3330   58.9090 C   0  0  0  0  0  0  0  0  0  0  0  0
   43.4620   74.6880   59.7710 H   0  0  0  0  0  0  0  0  0  0  0  0
   42.9310   76.6740   58.4750 H   0  0  0  0  0  0  0  0  0  0  0  0
   41.8320   72.6810   62.1420 C   0  0  0  0  0  0  0  0  0  0  0  0
   41.7990   72.7910   60.7320 C   0  0  0  0  0  0  0  0  0  0  0  0
   42.1010   71.6570   60.0010 C   0  0  0  0  0  0  0  0  0  0  0  0
   42.4090   70.5150   60.6750 N   0  0  0  0  0  0  0  0  0  0  0  0
   42.4310   70.4450   62.0250 C   0  0  0  0  0  0  0  0  0  0  0  0
   42.1430   71.5310   62.7520 N   0  0  0  0  0  0  0  0  0  0  0  0
   41.5900   73.5900   62.6770 H   0  0  0  0  0  0  0  0  0  0  0  0
   42.1020   71.6410   58.9250 H   0  0  0  0  0  0  0  0  0  0  0  0
   42.7910   69.1120   62.5830 C   0  0  0  0  0  0  0  0  0  0  0  0
   42.8200   68.1320   61.6120 F   0  0  0  0  0  0  0  0  0  0  0  0
   44.0240   69.1610   63.1850 F   0  0  0  0  0  0  0  0  0  0  0  0
   41.8260   68.6770   63.4860 F   0  0  0  0  0  0  0  0  0  0  0  0
   38.5270   75.6010   58.5710 O   0  0  0  0  0  0  0  0  0  0  0  0
   37.9750   75.1700   57.3760 C   0  0  0  0  0  0  0  0  0  0  0  0
   38.3770   74.2330   56.9960 H   0  0  0  0  0  0  0  0  0  0  0  0
   37.0810   75.9090   56.8780 O   0  0  0  0  0  0  0  0  0  0  0  0
  2  3  1  0  0  0  0
  2  1  1  0  0  0  0
  3 12  1  0  0  0  0
  4  9  1  0  0  0  0
  4  3  2  0  0  0  0
  5  4  1  0  0  0  0
  6  5  2  0  0  0  0
  6  8  1  0  0  0  0
  7  6  1  0  0  0  0
  8  2  2  0  0  0  0
 10  5  1  0  0  0  0
 11 17  1  0  0  0  0
 11 16  1  0  0  0  0
 12 11  2  0  0  0  0
 13 14  2  0  0  0  0
 13 12  1  0  0  0  0
 14 15  1  0  0  0  0
 15 19  1  0  0  0  0
 15 16  2  0  0  0  0
 18 13  1  0  0  0  0
 19 21  1  0  0  0  0
 19 22  1  0  0  0  0
 20 19  1  0  0  0  0
 23  8  1  0  0  0  0
 24 23  1  0  0  0  0
 25 24  1  0  0  0  0
 26 24  2  0  0  0  0
M  END
>  <minimizedAffinity>
-4.81123734

$$$$

 OpenBabel03212520163D

 26 27  0  0  0  0  0  0  0  0999 V2000
   40.7450   73.1220   55.5650 Cl  0  0  0  0  0  0  0  0  0  0  0  0
   39.5260   74.1100   54.7640 C   0  0  0  0  0  0  0  0  0  0  0  0
   38.6740   74.9440   55.4540 C   0  0  0  0  0  0  0  0  0  0  0  0
   37.7730   75.6550   54.6770 C   0  0  0  0  0  0  0  0  0  0  0  0
   37.6600   75.6000   53.3060 C   0  0  0  0  0  0  0  0  0  0  0  0
   38.5250   74.7590   52.6630 C   0  0  0  0  0  0  0  0  0  0  0  0
   38.4880   74.5930   50.9140 Cl  0  0  0  0  0  0  0  0  0  0  0  0
   39.4450   74.0250   53.3910 C   0  0  0  0  0  0  0  0  0  0  0  0
   37.0850   76.3250   55.2010 H   0  0  0  0  0  0  0  0  0  0  0  0
   36.9260   76.1920   52.7810 H   0  0  0  0  0  0  0  0  0  0  0  0
   38.0600   74.2370   57.8100 C   0  0  0  0  0  0  0  0  0  0  0  0
   38.7640   75.0230   56.8680 C   0  0  0  0  0  0  0  0  0  0  0  0
   39.6380   75.9740   57.3630 C   0  0  0  0  0  0  0  0  0  0  0  0
   39.7660   76.0940   58.7120 N   0  0  0  0  0  0  0  0  0  0  0  0
   39.0760   75.3260   59.5860 C   0  0  0  0  0  0  0  0  0  0  0  0
   38.2250   74.4000   59.1270 N   0  0  0  0  0  0  0  0  0  0  0  0
   37.3860   73.5060   57.3820 H   0  0  0  0  0  0  0  0  0  0  0  0
   40.2180   76.6190   56.7260 H   0  0  0  0  0  0  0  0  0  0  0  0
   39.3480   75.6040   61.0230 C   0  0  0  0  0  0  0  0  0  0  0  0
   38.1930   75.6230   61.7770 F   0  0  0  0  0  0  0  0  0  0  0  0
   40.1900   74.6530   61.5450 F   0  0  0  0  0  0  0  0  0  0  0  0
   39.8900   76.8750   61.1860 F   0  0  0  0  0  0  0  0  0  0  0  0
   40.3110   73.1770   52.6880 O   0  0  0  0  0  0  0  0  0  0  0  0
   39.9090   71.9270   52.2430 C   0  0  0  0  0  0  0  0  0  0  0  0
   39.8670   71.8170   51.1620 H   0  0  0  0  0  0  0  0  0  0  0  0
   39.6440   71.0780   53.1390 O   0  0  0  0  0  0  0  0  0  0  0  0
  2  3  1  0  0  0  0
  2  1  1  0  0  0  0
  3 12  1  0  0  0  0
  4  9  1  0  0  0  0
  4  3  2  0  0  0  0
  5  4  1  0  0  0  0
  6  5  2  0  0  0  0
  6  8  1  0  0  0  0
  7  6  1  0  0  0  0
  8  2  2  0  0  0  0
 10  5  1  0  0  0  0
 11 16  1  0  0  0  0
 12 13  1  0  0  0  0
 12 11  2  0  0  0  0
 13 14  2  0  0  0  0
 14 15  1  0  0  0  0
 15 19  1  0  0  0  0
 16 15  2  0  0  0  0
 17 11  1  0  0  0  0
 18 13  1  0  0  0  0
 19 22  1  0  0  0  0
 19 21  1  0  0  0  0
 19 20  1  0  0  0  0
 23  8  1  0  0  0  0
 24 23  1  0  0  0  0
 24 26  2  0  0  0  0
 25 24  1  0  0  0  0
M  END
>  <minimizedAffinity>
-4.70925951

$$$$
