
 OpenBabel03212520153D

 26 27  0  0  0  0  0  0  0  0999 V2000
   43.2540   83.9850   58.7440 Cl  0  0  0  0  0  0  0  0  0  0  0  0
   41.9930   82.8420   58.2920 C   0  0  0  0  0  0  0  0  0  0  0  0
   41.0810   82.3440   59.1960 C   0  0  0  0  0  0  0  0  0  0  0  0
   40.1510   81.4550   58.6810 C   0  0  0  0  0  0  0  0  0  0  0  0
   40.0640   81.0360   57.3730 C   0  0  0  0  0  0  0  0  0  0  0  0
   40.9890   81.5550   56.5100 C   0  0  0  0  0  0  0  0  0  0  0  0
   40.9900   81.1040   54.8120 Cl  0  0  0  0  0  0  0  0  0  0  0  0
   41.9400   82.4480   56.9730 C   0  0  0  0  0  0  0  0  0  0  0  0
   39.4160   81.0450   59.3800 H   0  0  0  0  0  0  0  0  0  0  0  0
   39.3030   80.3370   57.0580 H   0  0  0  0  0  0  0  0  0  0  0  0
   41.9350   82.1830   61.5790 C   0  0  0  0  0  0  0  0  0  0  0  0
   41.1450   82.7540   60.5530 C   0  0  0  0  0  0  0  0  0  0  0  0
   40.3450   83.8290   60.8950 C   0  0  0  0  0  0  0  0  0  0  0  0
   40.3660   84.2680   62.1830 N   0  0  0  0  0  0  0  0  0  0  0  0
   41.1340   83.6970   63.1390 C   0  0  0  0  0  0  0  0  0  0  0  0
   41.9150   82.6550   62.8290 N   0  0  0  0  0  0  0  0  0  0  0  0
   42.5460   81.3440   61.2700 H   0  0  0  0  0  0  0  0  0  0  0  0
   39.7100   84.3310   60.1860 H   0  0  0  0  0  0  0  0  0  0  0  0
   41.0220   84.3140   64.4900 C   0  0  0  0  0  0  0  0  0  0  0  0
   40.6640   85.6440   64.4270 F   0  0  0  0  0  0  0  0  0  0  0  0
   40.0880   83.6490   65.2450 F   0  0  0  0  0  0  0  0  0  0  0  0
   42.2560   84.3170   65.1350 F   0  0  0  0  0  0  0  0  0  0  0  0
   42.8670   82.9530   56.0510 O   0  0  0  0  0  0  0  0  0  0  0  0
   42.5590   84.0110   55.2110 C   0  0  0  0  0  0  0  0  0  0  0  0
   42.7320   83.8220   54.1530 H   0  0  0  0  0  0  0  0  0  0  0  0
   42.1210   85.0550   55.7710 O   0  0  0  0  0  0  0  0  0  0  0  0
  2  1  1  0  0  0  0
  2  3  1  0  0  0  0
  3 12  1  0  0  0  0
  4  3  2  0  0  0  0
  4  9  1  0  0  0  0
  5  4  1  0  0  0  0
  6  8  1  0  0  0  0
  6  5  2  0  0  0  0
  7  6  1  0  0  0  0
  8  2  2  0  0  0  0
 10  5  1  0  0  0  0
 11 16  1  0  0  0  0
 12 13  1  0  0  0  0
 12 11  2  0  0  0  0
 13 14  2  0  0  0  0
 14 15  1  0  0  0  0
 15 19  1  0  0  0  0
 16 15  2  0  0  0  0
 17 11  1  0  0  0  0
 18 13  1  0  0  0  0
 19 22  1  0  0  0  0
 19 21  1  0  0  0  0
 20 19  1  0  0  0  0
 23  8  1  0  0  0  0
 24 26  2  0  0  0  0
 24 23  1  0  0  0  0
 25 24  1  0  0  0  0
M  END
>  <minimizedAffinity>
-5.09349966

>  <minimizedRMSD>
0.892871439

$$$$
