
 OpenBabel03212520153D

 26 27  0  0  0  0  0  0  0  0999 V2000
   43.1670   83.9240   58.6860 Cl  0  0  0  0  0  0  0  0  0  0  0  0
   41.9160   82.7540   58.2760 C   0  0  0  0  0  0  0  0  0  0  0  0
   41.0290   82.2560   59.2050 C   0  0  0  0  0  0  0  0  0  0  0  0
   40.1050   81.3440   58.7220 C   0  0  0  0  0  0  0  0  0  0  0  0
   40.0000   80.9030   57.4230 C   0  0  0  0  0  0  0  0  0  0  0  0
   40.9000   81.4220   56.5350 C   0  0  0  0  0  0  0  0  0  0  0  0
   40.8790   80.9430   54.8440 Cl  0  0  0  0  0  0  0  0  0  0  0  0
   41.8460   82.3370   56.9650 C   0  0  0  0  0  0  0  0  0  0  0  0
   39.3890   80.9350   59.4410 H   0  0  0  0  0  0  0  0  0  0  0  0
   39.2460   80.1870   57.1340 H   0  0  0  0  0  0  0  0  0  0  0  0
   41.9290   82.1490   61.5740 C   0  0  0  0  0  0  0  0  0  0  0  0
   41.1110   82.6910   60.5540 C   0  0  0  0  0  0  0  0  0  0  0  0
   40.3000   83.7590   60.8930 C   0  0  0  0  0  0  0  0  0  0  0  0
   40.3370   84.2190   62.1730 N   0  0  0  0  0  0  0  0  0  0  0  0
   41.1320   83.6760   63.1240 C   0  0  0  0  0  0  0  0  0  0  0  0
   41.9240   82.6420   62.8170 N   0  0  0  0  0  0  0  0  0  0  0  0
   42.5480   81.3150   61.2680 H   0  0  0  0  0  0  0  0  0  0  0  0
   39.6440   84.2380   60.1870 H   0  0  0  0  0  0  0  0  0  0  0  0
   41.0350   84.3140   64.4660 C   0  0  0  0  0  0  0  0  0  0  0  0
   40.6990   85.6490   64.3860 F   0  0  0  0  0  0  0  0  0  0  0  0
   40.0920   83.6750   65.2330 F   0  0  0  0  0  0  0  0  0  0  0  0
   42.2700   84.3050   65.1070 F   0  0  0  0  0  0  0  0  0  0  0  0
   42.7470   82.8410   56.0180 O   0  0  0  0  0  0  0  0  0  0  0  0
   42.4870   84.0030   55.3070 C   0  0  0  0  0  0  0  0  0  0  0  0
   42.2650   84.8750   55.9190 H   0  0  0  0  0  0  0  0  0  0  0  0
   42.5390   83.9070   54.0500 O   0  0  0  0  0  0  0  0  0  0  0  0
  2  1  1  0  0  0  0
  2  3  1  0  0  0  0
  3 12  1  0  0  0  0
  4  3  2  0  0  0  0
  4  9  1  0  0  0  0
  5  4  1  0  0  0  0
  6  8  1  0  0  0  0
  6  5  2  0  0  0  0
  7  6  1  0  0  0  0
  8  2  2  0  0  0  0
 10  5  1  0  0  0  0
 11 16  1  0  0  0  0
 12 13  1  0  0  0  0
 12 11  2  0  0  0  0
 13 14  2  0  0  0  0
 14 15  1  0  0  0  0
 15 19  1  0  0  0  0
 16 15  2  0  0  0  0
 17 11  1  0  0  0  0
 18 13  1  0  0  0  0
 19 22  1  0  0  0  0
 19 21  1  0  0  0  0
 20 19  1  0  0  0  0
 23  8  1  0  0  0  0
 24 25  1  0  0  0  0
 24 23  1  0  0  0  0
 26 24  2  0  0  0  0
M  END
>  <minimizedAffinity>
-4.83460808

>  <minimizedRMSD>
0.733691633

$$$$
