
 OpenBabel03212520153D

 26 27  0  0  0  0  0  0  0  0999 V2000
   43.0940   83.9520   58.5850 Cl  0  0  0  0  0  0  0  0  0  0  0  0
   41.8630   82.7520   58.2010 C   0  0  0  0  0  0  0  0  0  0  0  0
   41.0070   82.2340   59.1470 C   0  0  0  0  0  0  0  0  0  0  0  0
   40.0950   81.3000   58.6820 C   0  0  0  0  0  0  0  0  0  0  0  0
   39.9760   80.8560   57.3860 C   0  0  0  0  0  0  0  0  0  0  0  0
   40.8450   81.3950   56.4800 C   0  0  0  0  0  0  0  0  0  0  0  0
   40.8010   80.9150   54.7900 Cl  0  0  0  0  0  0  0  0  0  0  0  0
   41.7770   82.3330   56.8910 C   0  0  0  0  0  0  0  0  0  0  0  0
   39.4030   80.8740   59.4150 H   0  0  0  0  0  0  0  0  0  0  0  0
   39.2320   80.1210   57.1120 H   0  0  0  0  0  0  0  0  0  0  0  0
   41.9580   82.1520   61.4970 C   0  0  0  0  0  0  0  0  0  0  0  0
   41.1050   82.6720   60.4940 C   0  0  0  0  0  0  0  0  0  0  0  0
   40.2740   83.7180   60.8490 C   0  0  0  0  0  0  0  0  0  0  0  0
   40.3250   84.1800   62.1280 N   0  0  0  0  0  0  0  0  0  0  0  0
   41.1530   83.6590   63.0620 C   0  0  0  0  0  0  0  0  0  0  0  0
   41.9650   82.6450   62.7400 N   0  0  0  0  0  0  0  0  0  0  0  0
   42.5910   81.3340   61.1780 H   0  0  0  0  0  0  0  0  0  0  0  0
   39.5910   84.1800   60.1570 H   0  0  0  0  0  0  0  0  0  0  0  0
   41.0670   84.2940   64.4070 C   0  0  0  0  0  0  0  0  0  0  0  0
   40.7480   85.6340   64.3300 F   0  0  0  0  0  0  0  0  0  0  0  0
   40.1170   83.6660   65.1740 F   0  0  0  0  0  0  0  0  0  0  0  0
   42.3040   84.2680   65.0450 F   0  0  0  0  0  0  0  0  0  0  0  0
   42.6470   82.8570   55.9270 O   0  0  0  0  0  0  0  0  0  0  0  0
   42.3630   84.0310   55.2470 C   0  0  0  0  0  0  0  0  0  0  0  0
   41.3470   84.1040   54.8610 H   0  0  0  0  0  0  0  0  0  0  0  0
   43.3070   84.8650   55.1590 O   0  0  0  0  0  0  0  0  0  0  0  0
  2  1  1  0  0  0  0
  2  3  1  0  0  0  0
  3 12  1  0  0  0  0
  4  3  2  0  0  0  0
  4  9  1  0  0  0  0
  5  4  1  0  0  0  0
  6  8  1  0  0  0  0
  6  5  2  0  0  0  0
  7  6  1  0  0  0  0
  8  2  2  0  0  0  0
 10  5  1  0  0  0  0
 11 16  1  0  0  0  0
 12 13  1  0  0  0  0
 12 11  2  0  0  0  0
 13 14  2  0  0  0  0
 14 15  1  0  0  0  0
 15 19  1  0  0  0  0
 16 15  2  0  0  0  0
 17 11  1  0  0  0  0
 18 13  1  0  0  0  0
 19 22  1  0  0  0  0
 19 21  1  0  0  0  0
 20 19  1  0  0  0  0
 23  8  1  0  0  0  0
 24 23  1  0  0  0  0
 25 24  1  0  0  0  0
 26 24  2  0  0  0  0
M  END
>  <minimizedAffinity>
-4.98668528

>  <minimizedRMSD>
0.670833468

$$$$
