
 OpenBabel03212520393D

 21 22  0  0  1  0  0  0  0  0999 V2000
   42.3860   85.4480   59.8110 C   0  0  1  0  0  0  0  0  0  0  0  0
   43.4470   86.4650   59.4060 C   0  0  0  0  0  0  0  0  0  0  0  0
   43.0240   85.3270   58.4900 C   0  0  1  0  0  0  0  0  0  0  0  0
   41.3930   85.9460   59.9420 H   0  0  0  0  0  0  0  0  0  0  0  0
   44.4630   86.3850   59.7850 H   0  0  0  0  0  0  0  0  0  0  0  0
   43.1420   87.4630   59.0360 H   0  0  0  0  0  0  0  0  0  0  0  0
   42.4120   85.5690   57.5940 H   0  0  0  0  0  0  0  0  0  0  0  0
   42.8430   84.6160   60.8740 O   0  0  0  0  0  0  0  0  0  0  0  0
   40.0540   83.5260   62.9040 C   0  0  0  0  0  0  0  0  0  0  0  0
   40.5350   83.7390   64.1940 C   0  0  0  0  0  0  0  0  0  0  0  0
   41.8400   84.2660   64.3290 C   0  0  0  0  0  0  0  0  0  0  0  0
   42.4850   84.5080   63.1780 N   0  0  0  0  0  0  0  0  0  0  0  0
   42.0290   84.3050   61.9360 C   0  0  0  0  0  0  0  0  0  0  0  0
   40.8070   83.8110   61.7790 N   0  0  0  0  0  0  0  0  0  0  0  0
   39.0600   83.1230   62.7470 H   0  0  0  0  0  0  0  0  0  0  0  0
   39.9140   83.5030   65.0430 H   0  0  0  0  0  0  0  0  0  0  0  0
   42.2400   84.4420   65.2980 H   0  0  0  0  0  0  0  0  0  0  0  0
   43.9220   84.2600   58.3230 O   0  0  0  0  0  0  0  0  0  0  0  0
   44.1490   83.6780   57.0840 C   0  0  0  0  0  0  0  0  0  0  0  0
   44.7300   82.8000   56.8370 H   0  0  0  0  0  0  0  0  0  0  0  0
   43.5870   84.2690   56.1000 O   0  0  0  0  0  0  0  0  0  0  0  0
  1  4  1  1  0  0  0
  1  8  1  0  0  0  0
  2  5  1  0  0  0  0
  2  1  1  0  0  0  0
  3  7  1  6  0  0  0
  3  2  1  0  0  0  0
  3  1  1  0  0  0  0
  6  2  1  0  0  0  0
  8 13  1  0  0  0  0
  9 10  1  0  0  0  0
 10 11  2  0  0  0  0
 10 16  1  0  0  0  0
 11 17  1  0  0  0  0
 12 11  1  0  0  0  0
 13 12  2  0  0  0  0
 14 13  1  0  0  0  0
 14  9  2  0  0  0  0
 15  9  1  0  0  0  0
 18  3  1  0  0  0  0
 19 18  1  0  0  0  0
 20 19  1  0  0  0  0
 21 19  2  0  0  0  0
M  END
>  <minimizedAffinity>
-3.26212668

>  <minimizedRMSD>
0.0821568817

$$$$
