
 OpenBabel03212520393D

 21 22  0  0  1  0  0  0  0  0999 V2000
   42.1220   85.3060   59.6700 C   0  0  1  0  0  0  0  0  0  0  0  0
   43.0400   86.2160   58.8610 C   0  0  0  0  0  0  0  0  0  0  0  0
   42.7150   84.7970   58.4220 C   0  0  1  0  0  0  0  0  0  0  0  0
   41.0840   85.7210   59.7020 H   0  0  0  0  0  0  0  0  0  0  0  0
   44.0730   86.3690   59.1630 H   0  0  0  0  0  0  0  0  0  0  0  0
   42.6050   86.9900   58.2000 H   0  0  0  0  0  0  0  0  0  0  0  0
   42.0410   84.6550   57.5480 H   0  0  0  0  0  0  0  0  0  0  0  0
   42.7180   84.9400   60.9120 O   0  0  0  0  0  0  0  0  0  0  0  0
   40.0740   83.4970   62.9170 C   0  0  0  0  0  0  0  0  0  0  0  0
   40.5560   83.6870   64.2110 C   0  0  0  0  0  0  0  0  0  0  0  0
   41.8100   84.3240   64.3570 C   0  0  0  0  0  0  0  0  0  0  0  0
   42.4110   84.6830   63.2110 N   0  0  0  0  0  0  0  0  0  0  0  0
   41.9530   84.5020   61.9660 C   0  0  0  0  0  0  0  0  0  0  0  0
   40.7790   83.9070   61.7990 N   0  0  0  0  0  0  0  0  0  0  0  0
   39.1190   83.0130   62.7520 H   0  0  0  0  0  0  0  0  0  0  0  0
   39.9740   83.3520   65.0530 H   0  0  0  0  0  0  0  0  0  0  0  0
   42.2090   84.4860   65.3280 H   0  0  0  0  0  0  0  0  0  0  0  0
   43.7230   83.8280   58.5550 O   0  0  0  0  0  0  0  0  0  0  0  0
   44.6260   83.5620   57.5360 C   0  0  0  0  0  0  0  0  0  0  0  0
   45.5760   83.0500   57.5820 H   0  0  0  0  0  0  0  0  0  0  0  0
   44.2750   83.9840   56.3820 O   0  0  0  0  0  0  0  0  0  0  0  0
  1  4  1  6  0  0  0
  1  8  1  0  0  0  0
  2  5  1  0  0  0  0
  2  1  1  0  0  0  0
  3  7  1  6  0  0  0
  3 18  1  0  0  0  0
  3  2  1  0  0  0  0
  3  1  1  0  0  0  0
  6  2  1  0  0  0  0
  8 13  1  0  0  0  0
  9 10  1  0  0  0  0
 10 11  2  0  0  0  0
 10 16  1  0  0  0  0
 11 17  1  0  0  0  0
 12 11  1  0  0  0  0
 13 12  2  0  0  0  0
 14 13  1  0  0  0  0
 14  9  2  0  0  0  0
 15  9  1  0  0  0  0
 19 20  1  0  0  0  0
 19 18  1  0  0  0  0
 21 19  2  0  0  0  0
M  END
>  <minimizedAffinity>
-3.2460072

>  <minimizedRMSD>
0.552407265

$$$$
