
 OpenBabel03212520393D

 21 22  0  0  1  0  0  0  0  0999 V2000
   42.1300   85.2520   59.6490 C   0  0  1  0  0  0  0  0  0  0  0  0
   42.9860   86.2190   58.8380 C   0  0  0  0  0  0  0  0  0  0  0  0
   42.8140   84.7600   58.4430 C   0  0  1  0  0  0  0  0  0  0  0  0
   41.0570   85.5660   59.6310 H   0  0  0  0  0  0  0  0  0  0  0  0
   43.9880   86.4810   59.1690 H   0  0  0  0  0  0  0  0  0  0  0  0
   42.5040   86.9240   58.1340 H   0  0  0  0  0  0  0  0  0  0  0  0
   42.1900   84.5240   57.5520 H   0  0  0  0  0  0  0  0  0  0  0  0
   42.7110   84.9890   60.9240 O   0  0  0  0  0  0  0  0  0  0  0  0
   40.0810   83.4910   62.9060 C   0  0  0  0  0  0  0  0  0  0  0  0
   40.5600   83.6680   64.2030 C   0  0  0  0  0  0  0  0  0  0  0  0
   41.8080   84.3150   64.3590 C   0  0  0  0  0  0  0  0  0  0  0  0
   42.4060   84.6960   63.2190 N   0  0  0  0  0  0  0  0  0  0  0  0
   41.9500   84.5280   61.9710 C   0  0  0  0  0  0  0  0  0  0  0  0
   40.7820   83.9240   61.7950 N   0  0  0  0  0  0  0  0  0  0  0  0
   39.1300   83.0010   62.7340 H   0  0  0  0  0  0  0  0  0  0  0  0
   39.9810   83.3150   65.0400 H   0  0  0  0  0  0  0  0  0  0  0  0
   42.2050   84.4670   65.3320 H   0  0  0  0  0  0  0  0  0  0  0  0
   43.9040   83.8990   58.6460 O   0  0  0  0  0  0  0  0  0  0  0  0
   43.7840   82.5220   58.5320 C   0  0  0  0  0  0  0  0  0  0  0  0
   43.4880   81.7960   59.2780 H   0  0  0  0  0  0  0  0  0  0  0  0
   44.0630   82.0510   57.3770 O   0  0  0  0  0  0  0  0  0  0  0  0
  1  4  1  6  0  0  0
  1  8  1  0  0  0  0
  2  5  1  0  0  0  0
  2  1  1  0  0  0  0
  3  7  1  6  0  0  0
  3 18  1  0  0  0  0
  3  2  1  0  0  0  0
  3  1  1  0  0  0  0
  6  2  1  0  0  0  0
  8 13  1  0  0  0  0
  9 10  1  0  0  0  0
 10 11  2  0  0  0  0
 10 16  1  0  0  0  0
 11 17  1  0  0  0  0
 12 11  1  0  0  0  0
 13 12  2  0  0  0  0
 14 13  1  0  0  0  0
 14  9  2  0  0  0  0
 15  9  1  0  0  0  0
 19 18  1  0  0  0  0
 19 20  1  0  0  0  0
 21 19  2  0  0  0  0
M  END
>  <minimizedAffinity>
-3.22962713

>  <minimizedRMSD>
0.750514984

$$$$
