
 OpenBabel03212520413D

 21 22  0  0  1  0  0  0  0  0999 V2000
   39.0210   75.7620   59.9930 C   0  0  1  0  0  0  0  0  0  0  0  0
   39.7360   74.9500   61.0680 C   0  0  0  0  0  0  0  0  0  0  0  0
   40.4170   76.0890   60.3260 C   0  0  1  0  0  0  0  0  0  0  0  0
   38.1630   76.3280   60.4320 H   0  0  0  0  0  0  0  0  0  0  0  0
   40.1340   73.9640   60.8420 H   0  0  0  0  0  0  0  0  0  0  0  0
   39.5530   75.1700   62.1370 H   0  0  0  0  0  0  0  0  0  0  0  0
   40.6110   77.0370   60.8750 H   0  0  0  0  0  0  0  0  0  0  0  0
   38.7590   74.9730   58.8350 O   0  0  0  0  0  0  0  0  0  0  0  0
   36.6290   75.4320   55.9470 C   0  0  0  0  0  0  0  0  0  0  0  0
   36.9300   76.7400   55.5720 C   0  0  0  0  0  0  0  0  0  0  0  0
   37.8820   77.4430   56.3450 C   0  0  0  0  0  0  0  0  0  0  0  0
   38.4030   76.7600   57.3770 N   0  0  0  0  0  0  0  0  0  0  0  0
   38.1180   75.5040   57.7420 C   0  0  0  0  0  0  0  0  0  0  0  0
   37.2280   74.8200   57.0340 N   0  0  0  0  0  0  0  0  0  0  0  0
   35.9060   74.8520   55.3860 H   0  0  0  0  0  0  0  0  0  0  0  0
   36.4400   77.1780   54.7170 H   0  0  0  0  0  0  0  0  0  0  0  0
   38.1360   78.4420   56.0890 H   0  0  0  0  0  0  0  0  0  0  0  0
   41.3870   75.7530   59.3670 O   0  0  0  0  0  0  0  0  0  0  0  0
   42.3510   76.6580   58.9480 C   0  0  0  0  0  0  0  0  0  0  0  0
   42.9490   76.6530   58.0460 H   0  0  0  0  0  0  0  0  0  0  0  0
   42.5580   77.6330   59.7460 O   0  0  0  0  0  0  0  0  0  0  0  0
  1  3  1  0  0  0  0
  1  4  1  1  0  0  0
  1  2  1  0  0  0  0
  2  6  1  0  0  0  0
  3  7  1  1  0  0  0
  3  2  1  0  0  0  0
  5  2  1  0  0  0  0
  8  1  1  0  0  0  0
  9 14  1  0  0  0  0
 10  9  2  0  0  0  0
 10 11  1  0  0  0  0
 11 12  2  0  0  0  0
 12 13  1  0  0  0  0
 13  8  1  0  0  0  0
 14 13  2  0  0  0  0
 15  9  1  0  0  0  0
 16 10  1  0  0  0  0
 17 11  1  0  0  0  0
 18  3  1  0  0  0  0
 19 18  1  0  0  0  0
 19 21  2  0  0  0  0
 20 19  1  0  0  0  0
M  END
>  <minimizedAffinity>
-3.89663744

$$$$

 OpenBabel03212520413D

 21 22  0  0  1  0  0  0  0  0999 V2000
   39.5760   74.3370   60.7870 C   0  0  1  0  0  0  0  0  0  0  0  0
   39.0590   75.7310   61.1230 C   0  0  0  0  0  0  0  0  0  0  0  0
   39.8000   75.4320   59.8300 C   0  0  1  0  0  0  0  0  0  0  0  0
   38.7270   73.6190   60.6730 H   0  0  0  0  0  0  0  0  0  0  0  0
   39.6010   76.3700   61.8160 H   0  0  0  0  0  0  0  0  0  0  0  0
   37.9900   75.9740   60.9710 H   0  0  0  0  0  0  0  0  0  0  0  0
   39.2210   75.4170   58.8800 H   0  0  0  0  0  0  0  0  0  0  0  0
   40.6400   73.9550   61.6550 O   0  0  0  0  0  0  0  0  0  0  0  0
   41.9100   70.7290   60.6190 C   0  0  0  0  0  0  0  0  0  0  0  0
   42.1320   70.1000   61.8430 C   0  0  0  0  0  0  0  0  0  0  0  0
   41.8310   70.8260   63.0180 C   0  0  0  0  0  0  0  0  0  0  0  0
   41.3530   72.0650   62.8240 N   0  0  0  0  0  0  0  0  0  0  0  0
   41.1370   72.6740   61.6520 C   0  0  0  0  0  0  0  0  0  0  0  0
   41.4110   72.0170   60.5320 N   0  0  0  0  0  0  0  0  0  0  0  0
   42.1250   70.2160   59.6900 H   0  0  0  0  0  0  0  0  0  0  0  0
   42.5210   69.0960   61.8650 H   0  0  0  0  0  0  0  0  0  0  0  0
   41.9880   70.3780   63.9690 H   0  0  0  0  0  0  0  0  0  0  0  0
   41.1180   75.9030   59.7120 O   0  0  0  0  0  0  0  0  0  0  0  0
   41.4050   77.2490   59.5350 C   0  0  0  0  0  0  0  0  0  0  0  0
   40.7490   78.0540   59.2300 H   0  0  0  0  0  0  0  0  0  0  0  0
   42.6170   77.5760   59.7670 O   0  0  0  0  0  0  0  0  0  0  0  0
  1  4  1  6  0  0  0
  1  2  1  0  0  0  0
  1  8  1  0  0  0  0
  2  5  1  0  0  0  0
  3  7  1  6  0  0  0
  3  1  1  0  0  0  0
  3  2  1  0  0  0  0
  6  2  1  0  0  0  0
  9 10  1  0  0  0  0
 10 16  1  0  0  0  0
 10 11  2  0  0  0  0
 11 17  1  0  0  0  0
 12 11  1  0  0  0  0
 13  8  1  0  0  0  0
 13 12  2  0  0  0  0
 14  9  2  0  0  0  0
 14 13  1  0  0  0  0
 15  9  1  0  0  0  0
 18  3  1  0  0  0  0
 19 18  1  0  0  0  0
 19 21  2  0  0  0  0
 20 19  1  0  0  0  0
M  END
>  <minimizedAffinity>
-3.8841629

$$$$

 OpenBabel03212520413D

 21 22  0  0  1  0  0  0  0  0999 V2000
   40.1670   76.4520   58.8240 C   0  0  1  0  0  0  0  0  0  0  0  0
   40.8500   77.1990   59.9640 C   0  0  0  0  0  0  0  0  0  0  0  0
   40.2990   75.7920   60.1330 C   0  0  1  0  0  0  0  0  0  0  0  0
   40.8870   76.2590   57.9910 H   0  0  0  0  0  0  0  0  0  0  0  0
   40.3160   77.9630   60.5240 H   0  0  0  0  0  0  0  0  0  0  0  0
   41.9550   77.2460   60.0070 H   0  0  0  0  0  0  0  0  0  0  0  0
   41.0190   74.9490   60.2180 H   0  0  0  0  0  0  0  0  0  0  0  0
   38.9210   77.0550   58.4820 O   0  0  0  0  0  0  0  0  0  0  0  0
   36.7440   75.0220   56.4290 C   0  0  0  0  0  0  0  0  0  0  0  0
   36.6750   75.7690   55.2540 C   0  0  0  0  0  0  0  0  0  0  0  0
   37.3990   76.9810   55.2030 C   0  0  0  0  0  0  0  0  0  0  0  0
   38.0880   77.2870   56.3140 N   0  0  0  0  0  0  0  0  0  0  0  0
   38.1580   76.5750   57.4450 C   0  0  0  0  0  0  0  0  0  0  0  0
   37.4880   75.4320   57.5210 N   0  0  0  0  0  0  0  0  0  0  0  0
   36.2060   74.0850   56.5170 H   0  0  0  0  0  0  0  0  0  0  0  0
   36.0830   75.4120   54.4270 H   0  0  0  0  0  0  0  0  0  0  0  0
   37.3710   77.5770   54.3240 H   0  0  0  0  0  0  0  0  0  0  0  0
   39.1210   75.6410   60.8820 O   0  0  0  0  0  0  0  0  0  0  0  0
   38.4290   74.4390   60.9300 C   0  0  0  0  0  0  0  0  0  0  0  0
   37.4140   74.2210   60.6260 H   0  0  0  0  0  0  0  0  0  0  0  0
   39.0920   73.4550   61.4020 O   0  0  0  0  0  0  0  0  0  0  0  0
  1  4  1  6  0  0  0
  1  2  1  0  0  0  0
  1  3  1  0  0  0  0
  2  6  1  0  0  0  0
  2  3  1  0  0  0  0
  2  5  1  0  0  0  0
  3  7  1  1  0  0  0
  3 18  1  0  0  0  0
  8  1  1  0  0  0  0
  9 15  1  0  0  0  0
  9 14  1  0  0  0  0
 10  9  2  0  0  0  0
 11 10  1  0  0  0  0
 11 12  2  0  0  0  0
 12 13  1  0  0  0  0
 13 14  2  0  0  0  0
 13  8  1  0  0  0  0
 16 10  1  0  0  0  0
 17 11  1  0  0  0  0
 18 19  1  0  0  0  0
 19 21  2  0  0  0  0
 20 19  1  0  0  0  0
M  END
>  <minimizedAffinity>
-3.79106998

$$$$

 OpenBabel03212520413D

 21 22  0  0  1  0  0  0  0  0999 V2000
   40.1790   76.3080   58.8430 C   0  0  1  0  0  0  0  0  0  0  0  0
   40.8980   77.0730   59.9480 C   0  0  0  0  0  0  0  0  0  0  0  0
   40.3500   75.6710   60.1580 C   0  0  1  0  0  0  0  0  0  0  0  0
   40.8730   76.0980   57.9920 H   0  0  0  0  0  0  0  0  0  0  0  0
   40.3820   77.8480   60.5100 H   0  0  0  0  0  0  0  0  0  0  0  0
   42.0040   77.1180   59.9560 H   0  0  0  0  0  0  0  0  0  0  0  0
   41.0720   74.8270   60.2360 H   0  0  0  0  0  0  0  0  0  0  0  0
   38.9240   76.9070   58.5290 O   0  0  0  0  0  0  0  0  0  0  0  0
   36.8500   76.5910   55.5810 C   0  0  0  0  0  0  0  0  0  0  0  0
   36.5470   75.2300   55.5860 C   0  0  0  0  0  0  0  0  0  0  0  0
   37.0800   74.4430   56.6320 C   0  0  0  0  0  0  0  0  0  0  0  0
   37.8350   75.1040   57.5230 N   0  0  0  0  0  0  0  0  0  0  0  0
   38.1290   76.4100   57.5240 C   0  0  0  0  0  0  0  0  0  0  0  0
   37.6420   77.1740   56.5540 N   0  0  0  0  0  0  0  0  0  0  0  0
   36.4650   77.2370   54.8010 H   0  0  0  0  0  0  0  0  0  0  0  0
   35.9250   74.8180   54.8080 H   0  0  0  0  0  0  0  0  0  0  0  0
   36.8710   73.4020   56.6680 H   0  0  0  0  0  0  0  0  0  0  0  0
   39.1960   75.5350   60.9460 O   0  0  0  0  0  0  0  0  0  0  0  0
   38.5520   74.3160   61.1030 C   0  0  0  0  0  0  0  0  0  0  0  0
   37.6170   74.0950   61.6020 H   0  0  0  0  0  0  0  0  0  0  0  0
   39.1540   73.3180   60.5830 O   0  0  0  0  0  0  0  0  0  0  0  0
  1  4  1  6  0  0  0
  1  2  1  0  0  0  0
  1  3  1  0  0  0  0
  2  6  1  0  0  0  0
  2  3  1  0  0  0  0
  2  5  1  0  0  0  0
  3  7  1  1  0  0  0
  3 18  1  0  0  0  0
  8  1  1  0  0  0  0
  9 10  2  0  0  0  0
  9 14  1  0  0  0  0
 10 11  1  0  0  0  0
 11 17  1  0  0  0  0
 11 12  2  0  0  0  0
 12 13  1  0  0  0  0
 13  8  1  0  0  0  0
 14 13  2  0  0  0  0
 15  9  1  0  0  0  0
 16 10  1  0  0  0  0
 18 19  1  0  0  0  0
 19 20  1  0  0  0  0
 21 19  2  0  0  0  0
M  END
>  <minimizedAffinity>
-3.74377894

$$$$

 OpenBabel03212520413D

 21 22  0  0  1  0  0  0  0  0999 V2000
   39.5460   76.1490   59.2540 C   0  0  1  0  0  0  0  0  0  0  0  0
   39.5160   76.2220   60.7760 C   0  0  0  0  0  0  0  0  0  0  0  0
   40.3550   75.1960   60.0310 C   0  0  1  0  0  0  0  0  0  0  0  0
   39.9860   77.0810   58.8220 H   0  0  0  0  0  0  0  0  0  0  0  0
   38.6830   75.8030   61.3340 H   0  0  0  0  0  0  0  0  0  0  0  0
   40.1210   76.9850   61.3030 H   0  0  0  0  0  0  0  0  0  0  0  0
   41.4610   75.3250   60.0200 H   0  0  0  0  0  0  0  0  0  0  0  0
   38.2920   75.7170   58.7300 O   0  0  0  0  0  0  0  0  0  0  0  0
   38.6360   74.5160   55.3350 C   0  0  0  0  0  0  0  0  0  0  0  0
   37.6150   75.2040   54.6810 C   0  0  0  0  0  0  0  0  0  0  0  0
   36.8190   76.0840   55.4490 C   0  0  0  0  0  0  0  0  0  0  0  0
   37.1400   76.1620   56.7510 N   0  0  0  0  0  0  0  0  0  0  0  0
   38.1180   75.5040   57.3840 C   0  0  0  0  0  0  0  0  0  0  0  0
   38.8810   74.6710   56.6880 N   0  0  0  0  0  0  0  0  0  0  0  0
   39.2730   73.8300   54.7900 H   0  0  0  0  0  0  0  0  0  0  0  0
   37.4600   75.0540   53.6250 H   0  0  0  0  0  0  0  0  0  0  0  0
   36.0320   76.6260   54.9850 H   0  0  0  0  0  0  0  0  0  0  0  0
   39.9160   73.8630   60.0450 O   0  0  0  0  0  0  0  0  0  0  0  0
   39.4060   73.2680   61.1900 C   0  0  0  0  0  0  0  0  0  0  0  0
   38.3900   73.2560   61.5610 H   0  0  0  0  0  0  0  0  0  0  0  0
   40.2660   72.6500   61.9040 O   0  0  0  0  0  0  0  0  0  0  0  0
  1  4  1  6  0  0  0
  1  3  1  0  0  0  0
  1  2  1  0  0  0  0
  2  6  1  0  0  0  0
  2  5  1  0  0  0  0
  3  7  1  6  0  0  0
  3 18  1  0  0  0  0
  3  2  1  0  0  0  0
  8  1  1  0  0  0  0
  9 14  1  0  0  0  0
 10  9  2  0  0  0  0
 10 11  1  0  0  0  0
 11 12  2  0  0  0  0
 12 13  1  0  0  0  0
 13  8  1  0  0  0  0
 14 13  2  0  0  0  0
 15  9  1  0  0  0  0
 16 10  1  0  0  0  0
 17 11  1  0  0  0  0
 18 19  1  0  0  0  0
 19 20  1  0  0  0  0
 19 21  2  0  0  0  0
M  END
>  <minimizedAffinity>
-3.70011353

$$$$

 OpenBabel03212520413D

 21 22  0  0  1  0  0  0  0  0999 V2000
   39.2480   74.6400   56.3560 C   0  0  1  0  0  0  0  0  0  0  0  0
   39.1820   73.5170   55.3260 C   0  0  0  0  0  0  0  0  0  0  0  0
   38.6900   74.9240   55.0240 C   0  0  1  0  0  0  0  0  0  0  0  0
   40.3100   74.8780   56.6120 H   0  0  0  0  0  0  0  0  0  0  0  0
   38.3980   72.7660   55.3760 H   0  0  0  0  0  0  0  0  0  0  0  0
   40.0900   73.2380   54.7570 H   0  0  0  0  0  0  0  0  0  0  0  0
   39.2910   75.5580   54.3340 H   0  0  0  0  0  0  0  0  0  0  0  0
   38.3520   74.4030   57.4390 O   0  0  0  0  0  0  0  0  0  0  0  0
   38.6120   74.7160   61.0340 C   0  0  0  0  0  0  0  0  0  0  0  0
   39.2750   75.9350   61.1710 C   0  0  0  0  0  0  0  0  0  0  0  0
   39.6210   76.6300   59.9890 C   0  0  0  0  0  0  0  0  0  0  0  0
   39.2660   76.0280   58.8420 N   0  0  0  0  0  0  0  0  0  0  0  0
   38.6300   74.8590   58.7050 C   0  0  0  0  0  0  0  0  0  0  0  0
   38.2930   74.1840   59.7970 N   0  0  0  0  0  0  0  0  0  0  0  0
   38.3260   74.1460   61.9100 H   0  0  0  0  0  0  0  0  0  0  0  0
   39.5030   76.3130   62.1540 H   0  0  0  0  0  0  0  0  0  0  0  0
   40.1260   77.5620   60.0540 H   0  0  0  0  0  0  0  0  0  0  0  0
   37.3020   75.1260   54.9550 O   0  0  0  0  0  0  0  0  0  0  0  0
   36.7440   76.3960   54.9320 C   0  0  0  0  0  0  0  0  0  0  0  0
   36.4950   77.0190   54.0830 H   0  0  0  0  0  0  0  0  0  0  0  0
   36.4920   76.8940   56.0810 O   0  0  0  0  0  0  0  0  0  0  0  0
  1  4  1  1  0  0  0
  1  8  1  0  0  0  0
  2  5  1  0  0  0  0
  2  1  1  0  0  0  0
  3  7  1  6  0  0  0
  3  2  1  0  0  0  0
  3  1  1  0  0  0  0
  6  2  1  0  0  0  0
  8 13  1  0  0  0  0
  9 10  1  0  0  0  0
  9 15  1  0  0  0  0
 10 16  1  0  0  0  0
 11 17  1  0  0  0  0
 11 10  2  0  0  0  0
 12 11  1  0  0  0  0
 13 12  2  0  0  0  0
 13 14  1  0  0  0  0
 14  9  2  0  0  0  0
 18  3  1  0  0  0  0
 19 18  1  0  0  0  0
 19 21  2  0  0  0  0
 20 19  1  0  0  0  0
M  END
>  <minimizedAffinity>
-3.55972219

$$$$

 OpenBabel03212520413D

 21 22  0  0  1  0  0  0  0  0999 V2000
   41.6520   71.1680   62.6420 C   0  0  1  0  0  0  0  0  0  0  0  0
   42.4240   72.4740   62.4940 C   0  0  0  0  0  0  0  0  0  0  0  0
   40.9360   72.3750   62.1990 C   0  0  1  0  0  0  0  0  0  0  0  0
   41.6400   70.8350   63.7100 H   0  0  0  0  0  0  0  0  0  0  0  0
   43.0460   72.6520   61.6200 H   0  0  0  0  0  0  0  0  0  0  0  0
   42.6550   73.0820   63.3900 H   0  0  0  0  0  0  0  0  0  0  0  0
   40.2240   72.8470   62.9110 H   0  0  0  0  0  0  0  0  0  0  0  0
   42.0560   70.2120   61.6650 O   0  0  0  0  0  0  0  0  0  0  0  0
   41.1550   66.9860   63.0340 C   0  0  0  0  0  0  0  0  0  0  0  0
   41.1930   66.1720   61.9030 C   0  0  0  0  0  0  0  0  0  0  0  0
   41.5370   66.7750   60.6720 C   0  0  0  0  0  0  0  0  0  0  0  0
   41.7950   68.0910   60.7270 N   0  0  0  0  0  0  0  0  0  0  0  0
   41.7600   68.8780   61.8090 C   0  0  0  0  0  0  0  0  0  0  0  0
   41.4400   68.3390   62.9790 N   0  0  0  0  0  0  0  0  0  0  0  0
   40.8970   66.5720   64.0010 H   0  0  0  0  0  0  0  0  0  0  0  0
   40.9650   65.1230   61.9920 H   0  0  0  0  0  0  0  0  0  0  0  0
   41.5760   66.1850   59.7890 H   0  0  0  0  0  0  0  0  0  0  0  0
   40.5370   72.4100   60.8530 O   0  0  0  0  0  0  0  0  0  0  0  0
   39.4660   73.1800   60.4230 C   0  0  0  0  0  0  0  0  0  0  0  0
   39.0190   73.2430   59.4390 H   0  0  0  0  0  0  0  0  0  0  0  0
   38.9380   73.9180   61.3220 O   0  0  0  0  0  0  0  0  0  0  0  0
  1  4  1  1  0  0  0
  2  1  1  0  0  0  0
  2  6  1  0  0  0  0
  3  2  1  0  0  0  0
  3  1  1  0  0  0  0
  3  7  1  1  0  0  0
  5  2  1  0  0  0  0
  8 13  1  0  0  0  0
  8  1  1  0  0  0  0
  9 15  1  0  0  0  0
 10 16  1  0  0  0  0
 10  9  2  0  0  0  0
 11 12  2  0  0  0  0
 11 10  1  0  0  0  0
 12 13  1  0  0  0  0
 13 14  2  0  0  0  0
 14  9  1  0  0  0  0
 17 11  1  0  0  0  0
 18  3  1  0  0  0  0
 19 18  1  0  0  0  0
 19 21  2  0  0  0  0
 20 19  1  0  0  0  0
M  END
>  <minimizedAffinity>
-3.53145218

$$$$

 OpenBabel03212520413D

 21 22  0  0  1  0  0  0  0  0999 V2000
   42.1370   71.8130   62.0220 C   0  0  1  0  0  0  0  0  0  0  0  0
   41.6650   70.9240   63.1670 C   0  0  0  0  0  0  0  0  0  0  0  0
   42.7460   70.4840   62.1920 C   0  0  1  0  0  0  0  0  0  0  0  0
   42.6230   72.7390   62.4170 H   0  0  0  0  0  0  0  0  0  0  0  0
   40.7340   70.3690   63.0890 H   0  0  0  0  0  0  0  0  0  0  0  0
   42.0440   71.1000   64.1930 H   0  0  0  0  0  0  0  0  0  0  0  0
   43.7970   70.4380   62.5540 H   0  0  0  0  0  0  0  0  0  0  0  0
   41.1170   71.9800   61.0400 O   0  0  0  0  0  0  0  0  0  0  0  0
   38.6140   74.5910   61.1460 C   0  0  0  0  0  0  0  0  0  0  0  0
   39.2770   75.6520   60.5310 C   0  0  0  0  0  0  0  0  0  0  0  0
   40.6010   75.4290   60.0870 C   0  0  0  0  0  0  0  0  0  0  0  0
   41.0840   74.1970   60.3100 N   0  0  0  0  0  0  0  0  0  0  0  0
   40.4520   73.1750   60.9000 C   0  0  0  0  0  0  0  0  0  0  0  0
   39.2080   73.3550   61.3280 N   0  0  0  0  0  0  0  0  0  0  0  0
   37.5990   74.7120   61.5040 H   0  0  0  0  0  0  0  0  0  0  0  0
   38.7760   76.5980   60.4100 H   0  0  0  0  0  0  0  0  0  0  0  0
   41.1370   76.2140   59.6130 H   0  0  0  0  0  0  0  0  0  0  0  0
   42.4050   69.5110   61.2400 O   0  0  0  0  0  0  0  0  0  0  0  0
   41.8770   68.2800   61.6030 C   0  0  0  0  0  0  0  0  0  0  0  0
   40.9480   67.8160   61.2960 H   0  0  0  0  0  0  0  0  0  0  0  0
   42.5940   67.6050   62.4150 O   0  0  0  0  0  0  0  0  0  0  0  0
  1  3  1  0  0  0  0
  1  4  1  1  0  0  0
  1  2  1  0  0  0  0
  2  6  1  0  0  0  0
  3  7  1  1  0  0  0
  3  2  1  0  0  0  0
  5  2  1  0  0  0  0
  8  1  1  0  0  0  0
  9 14  1  0  0  0  0
  9 15  1  0  0  0  0
 10  9  2  0  0  0  0
 11 12  2  0  0  0  0
 11 10  1  0  0  0  0
 12 13  1  0  0  0  0
 13  8  1  0  0  0  0
 13 14  2  0  0  0  0
 16 10  1  0  0  0  0
 17 11  1  0  0  0  0
 18 19  1  0  0  0  0
 18  3  1  0  0  0  0
 19 21  2  0  0  0  0
 20 19  1  0  0  0  0
M  END
>  <minimizedAffinity>
-3.52216816

$$$$

 OpenBabel03212520413D

 21 22  0  0  1  0  0  0  0  0999 V2000
   39.9330   75.3450   60.4350 C   0  0  1  0  0  0  0  0  0  0  0  0
   40.1220   76.8570   60.3890 C   0  0  0  0  0  0  0  0  0  0  0  0
   39.1630   76.1320   59.4580 C   0  0  1  0  0  0  0  0  0  0  0  0
   39.4960   75.0320   61.4150 H   0  0  0  0  0  0  0  0  0  0  0  0
   40.9880   77.2910   59.8950 H   0  0  0  0  0  0  0  0  0  0  0  0
   39.6120   77.4990   61.1330 H   0  0  0  0  0  0  0  0  0  0  0  0
   38.0700   76.2470   59.6310 H   0  0  0  0  0  0  0  0  0  0  0  0
   41.1050   74.6610   59.9960 O   0  0  0  0  0  0  0  0  0  0  0  0
   43.1100   71.8420   61.0530 C   0  0  0  0  0  0  0  0  0  0  0  0
   42.3720   71.3490   62.1280 C   0  0  0  0  0  0  0  0  0  0  0  0
   41.1750   72.0210   62.4650 C   0  0  0  0  0  0  0  0  0  0  0  0
   40.8730   73.0810   61.6970 N   0  0  0  0  0  0  0  0  0  0  0  0
   41.5780   73.5580   60.6640 C   0  0  0  0  0  0  0  0  0  0  0  0
   42.7070   72.9470   60.3260 N   0  0  0  0  0  0  0  0  0  0  0  0
   44.0350   71.3620   60.7560 H   0  0  0  0  0  0  0  0  0  0  0  0
   42.7240   70.4850   62.6670 H   0  0  0  0  0  0  0  0  0  0  0  0
   40.5860   71.6750   63.2790 H   0  0  0  0  0  0  0  0  0  0  0  0
   39.5390   76.0010   58.1120 O   0  0  0  0  0  0  0  0  0  0  0  0
   38.6470   75.5760   57.1380 C   0  0  0  0  0  0  0  0  0  0  0  0
   38.8030   74.8790   56.3250 H   0  0  0  0  0  0  0  0  0  0  0  0
   37.4780   76.0840   57.2190 O   0  0  0  0  0  0  0  0  0  0  0  0
  1  4  1  1  0  0  0
  2  1  1  0  0  0  0
  2  6  1  0  0  0  0
  3  7  1  1  0  0  0
  3  2  1  0  0  0  0
  3  1  1  0  0  0  0
  5  2  1  0  0  0  0
  8  1  1  0  0  0  0
  8 13  1  0  0  0  0
  9 10  1  0  0  0  0
 10 11  2  0  0  0  0
 10 16  1  0  0  0  0
 11 17  1  0  0  0  0
 12 11  1  0  0  0  0
 13 12  2  0  0  0  0
 14 13  1  0  0  0  0
 14  9  2  0  0  0  0
 15  9  1  0  0  0  0
 18  3  1  0  0  0  0
 19 21  2  0  0  0  0
 19 18  1  0  0  0  0
 20 19  1  0  0  0  0
M  END
>  <minimizedAffinity>
-3.51561046

$$$$
