
 OpenBabel03212520393D

 21 22  0  0  1  0  0  0  0  0999 V2000
   42.2990   85.3990   59.8010 C   0  0  1  0  0  0  0  0  0  0  0  0
   43.4110   85.8540   58.8630 C   0  0  0  0  0  0  0  0  0  0  0  0
   42.4790   84.7050   58.5160 C   0  0  1  0  0  0  0  0  0  0  0  0
   41.5390   86.2080   59.9330 H   0  0  0  0  0  0  0  0  0  0  0  0
   44.4420   85.5600   59.0430 H   0  0  0  0  0  0  0  0  0  0  0  0
   43.2630   86.7470   58.2260 H   0  0  0  0  0  0  0  0  0  0  0  0
   41.7110   84.8670   57.7280 H   0  0  0  0  0  0  0  0  0  0  0  0
   42.8290   84.8040   60.9830 O   0  0  0  0  0  0  0  0  0  0  0  0
   40.0350   83.5730   62.9250 C   0  0  0  0  0  0  0  0  0  0  0  0
   40.5030   83.7220   64.2300 C   0  0  0  0  0  0  0  0  0  0  0  0
   41.8000   84.2560   64.4050 C   0  0  0  0  0  0  0  0  0  0  0  0
   42.4520   84.5670   63.2740 N   0  0  0  0  0  0  0  0  0  0  0  0
   42.0090   84.4270   62.0190 C   0  0  0  0  0  0  0  0  0  0  0  0
   40.7950   83.9270   61.8240 N   0  0  0  0  0  0  0  0  0  0  0  0
   39.0480   83.1680   62.7380 H   0  0  0  0  0  0  0  0  0  0  0  0
   39.8770   83.4330   65.0590 H   0  0  0  0  0  0  0  0  0  0  0  0
   42.1890   84.3840   65.3850 H   0  0  0  0  0  0  0  0  0  0  0  0
   43.0020   83.4030   58.5730 O   0  0  0  0  0  0  0  0  0  0  0  0
   42.1970   82.2800   58.4470 C   0  0  0  0  0  0  0  0  0  0  0  0
   41.7990   81.8210   57.5510 H   0  0  0  0  0  0  0  0  0  0  0  0
   41.8840   81.7150   59.5490 O   0  0  0  0  0  0  0  0  0  0  0  0
  1  4  1  1  0  0  0
  1  8  1  0  0  0  0
  2  5  1  0  0  0  0
  2  1  1  0  0  0  0
  3  7  1  6  0  0  0
  3 18  1  0  0  0  0
  3  2  1  0  0  0  0
  3  1  1  0  0  0  0
  6  2  1  0  0  0  0
  8 13  1  0  0  0  0
  9 10  1  0  0  0  0
 10 11  2  0  0  0  0
 10 16  1  0  0  0  0
 11 17  1  0  0  0  0
 12 11  1  0  0  0  0
 13 12  2  0  0  0  0
 14 13  1  0  0  0  0
 14  9  2  0  0  0  0
 15  9  1  0  0  0  0
 19 18  1  0  0  0  0
 19 21  2  0  0  0  0
 20 19  1  0  0  0  0
M  END
>  <minimizedAffinity>
-3.31331611

>  <minimizedRMSD>
1.30786502

$$$$
