
 OpenBabel03212520393D

 21 22  0  0  1  0  0  0  0  0999 V2000
   42.2860   85.4030   59.7280 C   0  0  1  0  0  0  0  0  0  0  0  0
   43.3230   86.3180   59.0860 C   0  0  0  0  0  0  0  0  0  0  0  0
   42.8050   85.0680   58.3920 C   0  0  1  0  0  0  0  0  0  0  0  0
   41.3160   85.9410   59.8660 H   0  0  0  0  0  0  0  0  0  0  0  0
   44.3670   86.2670   59.3860 H   0  0  0  0  0  0  0  0  0  0  0  0
   43.0000   87.2570   58.5970 H   0  0  0  0  0  0  0  0  0  0  0  0
   42.1200   85.1910   57.5240 H   0  0  0  0  0  0  0  0  0  0  0  0
   42.8230   84.7260   60.8620 O   0  0  0  0  0  0  0  0  0  0  0  0
   40.0750   83.5310   62.8900 C   0  0  0  0  0  0  0  0  0  0  0  0
   40.5660   83.7190   64.1810 C   0  0  0  0  0  0  0  0  0  0  0  0
   41.8620   84.2650   64.3170 C   0  0  0  0  0  0  0  0  0  0  0  0
   42.4910   84.5500   63.1660 N   0  0  0  0  0  0  0  0  0  0  0  0
   42.0250   84.3720   61.9230 C   0  0  0  0  0  0  0  0  0  0  0  0
   40.8110   83.8600   61.7650 N   0  0  0  0  0  0  0  0  0  0  0  0
   39.0870   83.1150   62.7330 H   0  0  0  0  0  0  0  0  0  0  0  0
   39.9580   83.4490   65.0290 H   0  0  0  0  0  0  0  0  0  0  0  0
   42.2700   84.4220   65.2860 H   0  0  0  0  0  0  0  0  0  0  0  0
   43.6680   83.9640   58.3120 O   0  0  0  0  0  0  0  0  0  0  0  0
   44.3470   83.6440   57.1450 C   0  0  0  0  0  0  0  0  0  0  0  0
   45.0660   82.8560   56.9660 H   0  0  0  0  0  0  0  0  0  0  0  0
   44.0780   84.3910   56.1440 O   0  0  0  0  0  0  0  0  0  0  0  0
  1  4  1  1  0  0  0
  1  8  1  0  0  0  0
  2  5  1  0  0  0  0
  2  1  1  0  0  0  0
  3  7  1  6  0  0  0
  3  2  1  0  0  0  0
  3  1  1  0  0  0  0
  6  2  1  0  0  0  0
  8 13  1  0  0  0  0
  9 10  1  0  0  0  0
 10 11  2  0  0  0  0
 10 16  1  0  0  0  0
 11 17  1  0  0  0  0
 12 11  1  0  0  0  0
 13 12  2  0  0  0  0
 14 13  1  0  0  0  0
 14  9  2  0  0  0  0
 15  9  1  0  0  0  0
 18  3  1  0  0  0  0
 19 18  1  0  0  0  0
 20 19  1  0  0  0  0
 21 19  2  0  0  0  0
M  END
>  <minimizedAffinity>
-3.2443018

>  <minimizedRMSD>
0.240845188

$$$$
