
 OpenBabel03212520393D

 21 22  0  0  1  0  0  0  0  0999 V2000
   42.0970   85.3150   59.6690 C   0  0  1  0  0  0  0  0  0  0  0  0
   43.1450   85.7080   58.6340 C   0  0  0  0  0  0  0  0  0  0  0  0
   42.3070   84.4460   58.5000 C   0  0  1  0  0  0  0  0  0  0  0  0
   41.2730   86.0700   59.7020 H   0  0  0  0  0  0  0  0  0  0  0  0
   44.2010   85.5290   58.8220 H   0  0  0  0  0  0  0  0  0  0  0  0
   42.9080   86.4760   57.8740 H   0  0  0  0  0  0  0  0  0  0  0  0
   41.5110   84.4210   57.7230 H   0  0  0  0  0  0  0  0  0  0  0  0
   42.7010   84.9550   60.9090 O   0  0  0  0  0  0  0  0  0  0  0  0
   40.0640   83.5290   62.9350 C   0  0  0  0  0  0  0  0  0  0  0  0
   40.5660   83.7010   64.2240 C   0  0  0  0  0  0  0  0  0  0  0  0
   41.8300   84.3180   64.3590 C   0  0  0  0  0  0  0  0  0  0  0  0
   42.4210   84.6790   63.2090 N   0  0  0  0  0  0  0  0  0  0  0  0
   41.9450   84.5170   61.9690 C   0  0  0  0  0  0  0  0  0  0  0  0
   40.7600   83.9400   61.8120 N   0  0  0  0  0  0  0  0  0  0  0  0
   39.0990   83.0610   62.7780 H   0  0  0  0  0  0  0  0  0  0  0  0
   39.9900   83.3650   65.0710 H   0  0  0  0  0  0  0  0  0  0  0  0
   42.2440   84.4650   65.3270 H   0  0  0  0  0  0  0  0  0  0  0  0
   42.9410   83.2160   58.7370 O   0  0  0  0  0  0  0  0  0  0  0  0
   42.2250   82.0400   58.9040 C   0  0  0  0  0  0  0  0  0  0  0  0
   41.5830   81.5240   58.2020 H   0  0  0  0  0  0  0  0  0  0  0  0
   42.3450   81.4950   60.0530 O   0  0  0  0  0  0  0  0  0  0  0  0
  1  4  1  1  0  0  0
  1  8  1  0  0  0  0
  2  5  1  0  0  0  0
  2  1  1  0  0  0  0
  3  7  1  6  0  0  0
  3  2  1  0  0  0  0
  3 18  1  0  0  0  0
  3  1  1  0  0  0  0
  6  2  1  0  0  0  0
  8 13  1  0  0  0  0
  9 10  1  0  0  0  0
 10 11  2  0  0  0  0
 10 16  1  0  0  0  0
 11 17  1  0  0  0  0
 12 11  1  0  0  0  0
 13 12  2  0  0  0  0
 14 13  1  0  0  0  0
 14  9  2  0  0  0  0
 15  9  1  0  0  0  0
 18 19  1  0  0  0  0
 19 21  2  0  0  0  0
 20 19  1  0  0  0  0
M  END
>  <minimizedAffinity>
-3.3038516

>  <minimizedRMSD>
1.49583924

$$$$
