
 OpenBabel03212520393D

 21 22  0  0  1  0  0  0  0  0999 V2000
   41.7930   85.2660   59.5090 C   0  0  1  0  0  0  0  0  0  0  0  0
   42.6490   85.3450   58.2490 C   0  0  0  0  0  0  0  0  0  0  0  0
   41.3600   84.5400   58.3040 C   0  0  1  0  0  0  0  0  0  0  0  0
   41.3810   86.2720   59.7700 H   0  0  0  0  0  0  0  0  0  0  0  0
   43.5510   84.7460   58.1550 H   0  0  0  0  0  0  0  0  0  0  0  0
   42.5830   86.2350   57.5940 H   0  0  0  0  0  0  0  0  0  0  0  0
   40.4720   84.9260   57.7570 H   0  0  0  0  0  0  0  0  0  0  0  0
   42.4580   84.5440   60.5430 O   0  0  0  0  0  0  0  0  0  0  0  0
   40.0440   83.6000   63.0680 C   0  0  0  0  0  0  0  0  0  0  0  0
   40.7580   83.8190   64.2450 C   0  0  0  0  0  0  0  0  0  0  0  0
   42.0830   84.2970   64.1300 C   0  0  0  0  0  0  0  0  0  0  0  0
   42.5180   84.4930   62.8750 N   0  0  0  0  0  0  0  0  0  0  0  0
   41.8380   84.2850   61.7420 C   0  0  0  0  0  0  0  0  0  0  0  0
   40.5920   83.8360   61.8190 N   0  0  0  0  0  0  0  0  0  0  0  0
   39.0250   83.2340   63.1030 H   0  0  0  0  0  0  0  0  0  0  0  0
   40.2920   83.6220   65.1970 H   0  0  0  0  0  0  0  0  0  0  0  0
   42.6570   84.4750   65.0060 H   0  0  0  0  0  0  0  0  0  0  0  0
   41.4690   83.1400   58.3410 O   0  0  0  0  0  0  0  0  0  0  0  0
   40.3680   82.3220   58.5470 C   0  0  0  0  0  0  0  0  0  0  0  0
   39.7410   82.2270   59.4240 H   0  0  0  0  0  0  0  0  0  0  0  0
   40.0550   81.5790   57.5560 O   0  0  0  0  0  0  0  0  0  0  0  0
  1  4  1  1  0  0  0
  1  8  1  0  0  0  0
  2  3  1  0  0  0  0
  2  1  1  0  0  0  0
  3  7  1  6  0  0  0
  3 18  1  0  0  0  0
  3  1  1  0  0  0  0
  5  2  1  0  0  0  0
  6  2  1  0  0  0  0
  8 13  1  0  0  0  0
  9 15  1  0  0  0  0
  9 10  1  0  0  0  0
 10 16  1  0  0  0  0
 11 10  2  0  0  0  0
 11 17  1  0  0  0  0
 12 11  1  0  0  0  0
 13 14  1  0  0  0  0
 13 12  2  0  0  0  0
 14  9  2  0  0  0  0
 18 19  1  0  0  0  0
 19 20  1  0  0  0  0
 21 19  2  0  0  0  0
M  END
>  <minimizedAffinity>
-3.53397417

>  <minimizedRMSD>
2.22428775

$$$$
