
 OpenBabel03212520393D

 21 22  0  0  1  0  0  0  0  0999 V2000
   42.3830   85.4400   59.8050 C   0  0  1  0  0  0  0  0  0  0  0  0
   43.4460   86.4610   59.4170 C   0  0  0  0  0  0  0  0  0  0  0  0
   43.0290   85.3330   58.4860 C   0  0  1  0  0  0  0  0  0  0  0  0
   41.3900   85.9350   59.9360 H   0  0  0  0  0  0  0  0  0  0  0  0
   44.4600   86.3770   59.8000 H   0  0  0  0  0  0  0  0  0  0  0  0
   43.1420   87.4630   59.0570 H   0  0  0  0  0  0  0  0  0  0  0  0
   42.4200   85.5850   57.5900 H   0  0  0  0  0  0  0  0  0  0  0  0
   42.8350   84.5950   60.8610 O   0  0  0  0  0  0  0  0  0  0  0  0
   40.0520   83.5260   62.9100 C   0  0  0  0  0  0  0  0  0  0  0  0
   40.5390   83.7470   64.1970 C   0  0  0  0  0  0  0  0  0  0  0  0
   41.8460   84.2720   64.3230 C   0  0  0  0  0  0  0  0  0  0  0  0
   42.4870   84.5040   63.1670 N   0  0  0  0  0  0  0  0  0  0  0  0
   42.0250   84.2940   61.9280 C   0  0  0  0  0  0  0  0  0  0  0  0
   40.8010   83.8020   61.7800 N   0  0  0  0  0  0  0  0  0  0  0  0
   39.0570   83.1250   62.7600 H   0  0  0  0  0  0  0  0  0  0  0  0
   39.9210   83.5180   65.0490 H   0  0  0  0  0  0  0  0  0  0  0  0
   42.2500   84.4530   65.2880 H   0  0  0  0  0  0  0  0  0  0  0  0
   43.9270   84.2680   58.3110 O   0  0  0  0  0  0  0  0  0  0  0  0
   43.9860   83.5430   57.1300 C   0  0  0  0  0  0  0  0  0  0  0  0
   44.5610   82.6560   56.9000 H   0  0  0  0  0  0  0  0  0  0  0  0
   43.2560   83.9940   56.1830 O   0  0  0  0  0  0  0  0  0  0  0  0
  1  4  1  1  0  0  0
  1  8  1  0  0  0  0
  2  5  1  0  0  0  0
  2  1  1  0  0  0  0
  3  7  1  6  0  0  0
  3  2  1  0  0  0  0
  3  1  1  0  0  0  0
  6  2  1  0  0  0  0
  8 13  1  0  0  0  0
  9 10  1  0  0  0  0
 10 11  2  0  0  0  0
 10 16  1  0  0  0  0
 11 17  1  0  0  0  0
 12 11  1  0  0  0  0
 13 12  2  0  0  0  0
 14 13  1  0  0  0  0
 14  9  2  0  0  0  0
 15  9  1  0  0  0  0
 18  3  1  0  0  0  0
 19 18  1  0  0  0  0
 20 19  1  0  0  0  0
 21 19  2  0  0  0  0
M  END
>  <minimizedAffinity>
-3.25140882

>  <minimizedRMSD>
0.101705916

$$$$
