
 OpenBabel03212520283D

 28 29  0  0  0  0  0  0  0  0999 V2000
   38.8900   75.5970   58.9500 C   0  0  0  0  0  0  0  0  0  0  0  0
   39.4690   76.4880   59.8660 C   0  0  0  0  0  0  0  0  0  0  0  0
   39.9160   75.6030   60.8560 C   0  0  0  0  0  0  0  0  0  0  0  0
   39.6160   74.3210   60.5290 N   0  0  0  0  0  0  0  0  0  0  0  0
   38.9880   74.3520   59.3530 N   0  0  0  0  0  0  0  0  0  0  0  0
   39.5720   77.5620   59.8670 H   0  0  0  0  0  0  0  0  0  0  0  0
   40.4420   75.8620   61.7870 H   0  0  0  0  0  0  0  0  0  0  0  0
   36.8050   75.6170   55.8580 C   0  0  0  0  0  0  0  0  0  0  0  0
   37.4000   75.2060   57.0350 C   0  0  0  0  0  0  0  0  0  0  0  0
   38.2670   76.0270   57.7160 C   0  0  0  0  0  0  0  0  0  0  0  0
   38.5280   77.2580   57.2000 N   0  0  0  0  0  0  0  0  0  0  0  0
   37.9240   77.6350   56.0350 C   0  0  0  0  0  0  0  0  0  0  0  0
   37.0730   76.8180   55.3750 N   0  0  0  0  0  0  0  0  0  0  0  0
   36.1240   74.9420   55.3450 H   0  0  0  0  0  0  0  0  0  0  0  0
   37.1530   74.2170   57.3950 H   0  0  0  0  0  0  0  0  0  0  0  0
   38.2370   78.6370   55.7620 H   0  0  0  0  0  0  0  0  0  0  0  0
   39.9310   73.1610   61.3190 C   0  0  0  0  0  0  0  0  0  0  0  0
   40.0470   72.2990   60.6000 H   0  0  0  0  0  0  0  0  0  0  0  0
   39.0800   72.8780   61.9510 H   0  0  0  0  0  0  0  0  0  0  0  0
   41.1390   73.2910   61.9640 O   0  0  0  0  0  0  0  0  0  0  0  0
   43.5480   72.6530   61.1980 O   0  0  0  0  0  0  0  0  0  0  0  0
   42.2270   72.0710   61.6800 P   0  0  2  0  0  0  0  0  0  0  0  0
   41.6360   71.0380   60.5050 O   0  0  0  0  0  0  0  0  0  0  0  0
   42.3380   70.8130   59.8650 H   0  0  0  0  0  0  0  0  0  0  0  0
   42.5220   71.1520   63.0720 O   0  0  0  0  0  0  0  0  0  0  0  0
   41.6920   70.0510   63.3130 C   0  0  0  0  0  0  0  0  0  0  0  0
   40.8050   69.9330   63.8850 H   0  0  0  0  0  0  0  0  0  0  0  0
   42.1260   69.0150   62.7060 O   0  0  0  0  0  0  0  0  0  0  0  0
  1  5  2  0  0  0  0
  1  2  1  0  0  0  0
  2  6  1  0  0  0  0
  2  3  2  0  0  0  0
  3  7  1  0  0  0  0
  4  3  1  0  0  0  0
  4 17  1  0  0  0  0
  5  4  1  0  0  0  0
  8  9  1  0  0  0  0
  9 15  1  0  0  0  0
  9 10  2  0  0  0  0
 10  1  1  0  0  0  0
 11 10  1  0  0  0  0
 12 11  2  0  0  0  0
 13  8  2  0  0  0  0
 13 12  1  0  0  0  0
 14  8  1  0  0  0  0
 16 12  1  0  0  0  0
 17 19  1  0  0  0  0
 17 20  1  0  0  0  0
 18 17  1  0  0  0  0
 22 21  2  6  0  0  0
 22 20  1  0  0  0  0
 22 25  1  0  0  0  0
 23 22  1  0  0  0  0
 24 23  1  0  0  0  0
 25 26  1  0  0  0  0
 26 27  1  0  0  0  0
 28 26  2  0  0  0  0
M  END
>  <minimizedAffinity>
-4.87090111

$$$$

 OpenBabel03212520283D

 28 29  0  0  0  0  0  0  0  0999 V2000
   42.5590   71.8880   61.6260 C   0  0  0  0  0  0  0  0  0  0  0  0
   41.5800   71.9320   62.6280 C   0  0  0  0  0  0  0  0  0  0  0  0
   41.6750   70.6380   63.1540 C   0  0  0  0  0  0  0  0  0  0  0  0
   42.6270   69.9210   62.5050 N   0  0  0  0  0  0  0  0  0  0  0  0
   43.1510   70.7180   61.5730 N   0  0  0  0  0  0  0  0  0  0  0  0
   40.9080   72.7130   62.9530 H   0  0  0  0  0  0  0  0  0  0  0  0
   41.0830   70.2130   63.9800 H   0  0  0  0  0  0  0  0  0  0  0  0
   42.1480   74.8540   59.4010 C   0  0  0  0  0  0  0  0  0  0  0  0
   41.8590   73.7800   60.2210 C   0  0  0  0  0  0  0  0  0  0  0  0
   42.8610   73.0140   60.7650 C   0  0  0  0  0  0  0  0  0  0  0  0
   44.1500   73.3370   60.4760 N   0  0  0  0  0  0  0  0  0  0  0  0
   44.4030   74.4050   59.6620 C   0  0  0  0  0  0  0  0  0  0  0  0
   43.4070   75.1500   59.1320 N   0  0  0  0  0  0  0  0  0  0  0  0
   41.3300   75.4390   58.9870 H   0  0  0  0  0  0  0  0  0  0  0  0
   40.8160   73.5720   60.4150 H   0  0  0  0  0  0  0  0  0  0  0  0
   45.4730   74.5270   59.5310 H   0  0  0  0  0  0  0  0  0  0  0  0
   42.9860   68.5590   62.7900 C   0  0  0  0  0  0  0  0  0  0  0  0
   43.8850   68.5940   63.4710 H   0  0  0  0  0  0  0  0  0  0  0  0
   43.3490   68.0540   61.8850 H   0  0  0  0  0  0  0  0  0  0  0  0
   41.9990   67.9010   63.4860 O   0  0  0  0  0  0  0  0  0  0  0  0
   39.7610   66.6050   63.1620 O   0  0  0  0  0  0  0  0  0  0  0  0
   41.1790   66.7420   62.6270 P   0  0  2  0  0  0  0  0  0  0  0  0
   41.9520   65.2660   62.7760 O   0  0  0  0  0  0  0  0  0  0  0  0
   41.3010   64.5560   62.9350 H   0  0  0  0  0  0  0  0  0  0  0  0
   41.0980   67.1180   60.9780 O   0  0  0  0  0  0  0  0  0  0  0  0
   41.5870   66.1720   60.0700 C   0  0  0  0  0  0  0  0  0  0  0  0
   41.1040   65.5080   59.3970 H   0  0  0  0  0  0  0  0  0  0  0  0
   42.8630   66.1400   60.0920 O   0  0  0  0  0  0  0  0  0  0  0  0
  1  2  1  0  0  0  0
  2  6  1  0  0  0  0
  2  3  2  0  0  0  0
  3  7  1  0  0  0  0
  4 17  1  0  0  0  0
  4  3  1  0  0  0  0
  5  1  2  0  0  0  0
  5  4  1  0  0  0  0
  8  9  1  0  0  0  0
  9 15  1  0  0  0  0
  9 10  2  0  0  0  0
 10  1  1  0  0  0  0
 11 10  1  0  0  0  0
 12 11  2  0  0  0  0
 13  8  2  0  0  0  0
 13 12  1  0  0  0  0
 14  8  1  0  0  0  0
 16 12  1  0  0  0  0
 17 18  1  0  0  0  0
 17 20  1  0  0  0  0
 19 17  1  0  0  0  0
 22 23  1  0  0  0  0
 22 21  2  1  0  0  0
 22 20  1  0  0  0  0
 23 24  1  0  0  0  0
 25 22  1  0  0  0  0
 26 28  2  0  0  0  0
 26 25  1  0  0  0  0
 27 26  1  0  0  0  0
M  END
>  <minimizedAffinity>
-4.7903986

$$$$

 OpenBabel03212520283D

 28 29  0  0  0  0  0  0  0  0999 V2000
   41.3130   73.4040   60.6970 C   0  0  0  0  0  0  0  0  0  0  0  0
   42.2890   74.0560   59.9310 C   0  0  0  0  0  0  0  0  0  0  0  0
   41.6000   75.2120   59.5440 C   0  0  0  0  0  0  0  0  0  0  0  0
   40.3400   75.2150   60.0470 N   0  0  0  0  0  0  0  0  0  0  0  0
   40.1960   74.0910   60.7510 N   0  0  0  0  0  0  0  0  0  0  0  0
   43.3050   73.7950   59.6740 H   0  0  0  0  0  0  0  0  0  0  0  0
   41.9830   76.0340   58.9190 H   0  0  0  0  0  0  0  0  0  0  0  0
   42.1880   69.8190   61.2400 C   0  0  0  0  0  0  0  0  0  0  0  0
   41.9750   71.0380   60.6260 C   0  0  0  0  0  0  0  0  0  0  0  0
   41.5360   72.1260   61.3410 C   0  0  0  0  0  0  0  0  0  0  0  0
   41.3150   71.9740   62.6740 N   0  0  0  0  0  0  0  0  0  0  0  0
   41.5350   70.7570   63.2520 C   0  0  0  0  0  0  0  0  0  0  0  0
   41.9660   69.6940   62.5370 N   0  0  0  0  0  0  0  0  0  0  0  0
   42.5350   68.9790   60.6430 H   0  0  0  0  0  0  0  0  0  0  0  0
   42.1680   71.0970   59.5630 H   0  0  0  0  0  0  0  0  0  0  0  0
   41.3120   70.8040   64.3130 H   0  0  0  0  0  0  0  0  0  0  0  0
   39.3620   76.2500   59.8470 C   0  0  0  0  0  0  0  0  0  0  0  0
   39.8550   77.2240   60.1320 H   0  0  0  0  0  0  0  0  0  0  0  0
   38.5330   76.1450   60.5590 H   0  0  0  0  0  0  0  0  0  0  0  0
   39.0030   76.3700   58.5250 O   0  0  0  0  0  0  0  0  0  0  0  0
   37.0440   75.6410   56.9670 O   0  0  0  0  0  0  0  0  0  0  0  0
   38.1090   75.1110   57.9160 P   0  0  2  0  0  0  0  0  0  0  0  0
   37.3550   74.2900   59.1640 O   0  0  0  0  0  0  0  0  0  0  0  0
   36.4280   74.0920   58.9290 H   0  0  0  0  0  0  0  0  0  0  0  0
   39.0730   74.0000   57.0770 O   0  0  0  0  0  0  0  0  0  0  0  0
   39.0330   72.6630   57.4870 C   0  0  0  0  0  0  0  0  0  0  0  0
   39.7290   72.0520   58.0060 H   0  0  0  0  0  0  0  0  0  0  0  0
   37.9280   72.1190   57.1520 O   0  0  0  0  0  0  0  0  0  0  0  0
  1  5  2  0  0  0  0
  1 10  1  0  0  0  0
  2  1  1  0  0  0  0
  3  2  2  0  0  0  0
  3  4  1  0  0  0  0
  4  5  1  0  0  0  0
  6  2  1  0  0  0  0
  7  3  1  0  0  0  0
  8 13  1  0  0  0  0
  9  8  2  0  0  0  0
  9 10  1  0  0  0  0
 10 11  2  0  0  0  0
 11 12  1  0  0  0  0
 12 16  1  0  0  0  0
 13 12  2  0  0  0  0
 14  8  1  0  0  0  0
 15  9  1  0  0  0  0
 17  4  1  0  0  0  0
 17 18  1  0  0  0  0
 17 19  1  0  0  0  0
 20 17  1  0  0  0  0
 22 21  2  6  0  0  0
 22 20  1  0  0  0  0
 22 23  1  0  0  0  0
 24 23  1  0  0  0  0
 25 26  1  0  0  0  0
 25 22  1  0  0  0  0
 26 27  1  0  0  0  0
 28 26  2  0  0  0  0
M  END
>  <minimizedAffinity>
-4.77559519

$$$$

 OpenBabel03212520283D

 28 29  0  0  0  0  0  0  0  0999 V2000
   42.3330   69.3580   61.8120 C   0  0  0  0  0  0  0  0  0  0  0  0
   43.3510   69.8490   60.9830 C   0  0  0  0  0  0  0  0  0  0  0  0
   43.1270   71.2290   61.0700 C   0  0  0  0  0  0  0  0  0  0  0  0
   42.0700   71.4960   61.8790 N   0  0  0  0  0  0  0  0  0  0  0  0
   41.6060   70.3260   62.3190 N   0  0  0  0  0  0  0  0  0  0  0  0
   44.1230   69.3560   60.4110 H   0  0  0  0  0  0  0  0  0  0  0  0
   43.6990   72.0260   60.5710 H   0  0  0  0  0  0  0  0  0  0  0  0
   42.5290   65.6450   61.5110 C   0  0  0  0  0  0  0  0  0  0  0  0
   42.7230   66.9920   61.2720 C   0  0  0  0  0  0  0  0  0  0  0  0
   42.1290   67.9460   62.0630 C   0  0  0  0  0  0  0  0  0  0  0  0
   41.3420   67.5320   63.0910 N   0  0  0  0  0  0  0  0  0  0  0  0
   41.1700   66.1930   63.3020 C   0  0  0  0  0  0  0  0  0  0  0  0
   41.7590   65.2650   62.5160 N   0  0  0  0  0  0  0  0  0  0  0  0
   43.0140   64.9170   60.8650 H   0  0  0  0  0  0  0  0  0  0  0  0
   43.3600   67.2590   60.4400 H   0  0  0  0  0  0  0  0  0  0  0  0
   40.5180   66.0320   64.1550 H   0  0  0  0  0  0  0  0  0  0  0  0
   41.5670   72.8070   62.1900 C   0  0  0  0  0  0  0  0  0  0  0  0
   42.1020   73.5310   61.5100 H   0  0  0  0  0  0  0  0  0  0  0  0
   41.8660   73.1090   63.2020 H   0  0  0  0  0  0  0  0  0  0  0  0
   40.2270   72.9240   61.9030 O   0  0  0  0  0  0  0  0  0  0  0  0
   41.1070   74.7480   60.2600 O   0  0  0  0  0  0  0  0  0  0  0  0
   39.8390   74.1120   60.8100 P   0  0  2  0  0  0  0  0  0  0  0  0
   38.9250   75.2980   61.5560 O   0  0  0  0  0  0  0  0  0  0  0  0
   39.2370   76.1850   61.2910 H   0  0  0  0  0  0  0  0  0  0  0  0
   38.9360   73.5050   59.5120 O   0  0  0  0  0  0  0  0  0  0  0  0
   37.9930   74.3540   58.9220 C   0  0  0  0  0  0  0  0  0  0  0  0
   36.9870   74.2050   58.6180 H   0  0  0  0  0  0  0  0  0  0  0  0
   38.4840   75.5170   58.7360 O   0  0  0  0  0  0  0  0  0  0  0  0
  1 10  1  0  0  0  0
  1  5  2  0  0  0  0
  2  3  2  0  0  0  0
  2  1  1  0  0  0  0
  3  4  1  0  0  0  0
  4 17  1  0  0  0  0
  4  5  1  0  0  0  0
  6  2  1  0  0  0  0
  7  3  1  0  0  0  0
  8 13  1  0  0  0  0
  9  8  2  0  0  0  0
  9 10  1  0  0  0  0
 10 11  2  0  0  0  0
 11 12  1  0  0  0  0
 12 16  1  0  0  0  0
 13 12  2  0  0  0  0
 14  8  1  0  0  0  0
 15  9  1  0  0  0  0
 17 19  1  0  0  0  0
 18 17  1  0  0  0  0
 20 17  1  0  0  0  0
 22 21  2  6  0  0  0
 22 23  1  0  0  0  0
 22 20  1  0  0  0  0
 24 23  1  0  0  0  0
 25 22  1  0  0  0  0
 26 25  1  0  0  0  0
 27 26  1  0  0  0  0
 28 26  2  0  0  0  0
M  END
>  <minimizedAffinity>
-4.74478292

$$$$

 OpenBabel03212520283D

 28 29  0  0  0  0  0  0  0  0999 V2000
   38.7850   75.5000   58.8750 C   0  0  0  0  0  0  0  0  0  0  0  0
   39.4400   76.4140   59.7130 C   0  0  0  0  0  0  0  0  0  0  0  0
   39.9020   75.5660   60.7270 C   0  0  0  0  0  0  0  0  0  0  0  0
   39.5400   74.2810   60.4840 N   0  0  0  0  0  0  0  0  0  0  0  0
   38.8560   74.2750   59.3390 N   0  0  0  0  0  0  0  0  0  0  0  0
   39.5820   77.4820   59.6510 H   0  0  0  0  0  0  0  0  0  0  0  0
   40.4830   75.8530   61.6170 H   0  0  0  0  0  0  0  0  0  0  0  0
   37.6900   77.4950   55.9200 C   0  0  0  0  0  0  0  0  0  0  0  0
   38.3270   77.1250   57.0890 C   0  0  0  0  0  0  0  0  0  0  0  0
   38.1170   75.8890   57.6500 C   0  0  0  0  0  0  0  0  0  0  0  0
   37.2650   75.0330   57.0250 N   0  0  0  0  0  0  0  0  0  0  0  0
   36.6510   75.4280   55.8700 C   0  0  0  0  0  0  0  0  0  0  0  0
   36.8650   76.6480   55.3290 N   0  0  0  0  0  0  0  0  0  0  0  0
   37.8790   78.4820   55.5040 H   0  0  0  0  0  0  0  0  0  0  0  0
   38.9930   77.8480   57.5390 H   0  0  0  0  0  0  0  0  0  0  0  0
   36.0080   74.6360   55.5010 H   0  0  0  0  0  0  0  0  0  0  0  0
   39.8510   73.1530   61.3200 C   0  0  0  0  0  0  0  0  0  0  0  0
   39.9910   72.2670   60.6340 H   0  0  0  0  0  0  0  0  0  0  0  0
   38.9910   72.8810   61.9440 H   0  0  0  0  0  0  0  0  0  0  0  0
   41.0440   73.3180   61.9850 O   0  0  0  0  0  0  0  0  0  0  0  0
   42.4340   71.3850   63.0470 O   0  0  0  0  0  0  0  0  0  0  0  0
   42.1630   72.1170   61.7410 P   0  0  2  0  0  0  0  0  0  0  0  0
   43.5980   72.7760   61.1890 O   0  0  0  0  0  0  0  0  0  0  0  0
   44.3570   72.3730   61.6520 H   0  0  0  0  0  0  0  0  0  0  0  0
   41.6380   70.9900   60.5910 O   0  0  0  0  0  0  0  0  0  0  0  0
   42.6050   70.4030   59.7670 C   0  0  0  0  0  0  0  0  0  0  0  0
   43.0920   69.4600   59.7930 H   0  0  0  0  0  0  0  0  0  0  0  0
   42.9280   71.1900   58.8160 O   0  0  0  0  0  0  0  0  0  0  0  0
  1  5  2  0  0  0  0
  1  2  1  0  0  0  0
  2  3  2  0  0  0  0
  3  7  1  0  0  0  0
  4  3  1  0  0  0  0
  4 17  1  0  0  0  0
  5  4  1  0  0  0  0
  6  2  1  0  0  0  0
  8  9  1  0  0  0  0
  9 15  1  0  0  0  0
  9 10  2  0  0  0  0
 10  1  1  0  0  0  0
 11 10  1  0  0  0  0
 12 11  2  0  0  0  0
 13 12  1  0  0  0  0
 13  8  2  0  0  0  0
 14  8  1  0  0  0  0
 16 12  1  0  0  0  0
 17 19  1  0  0  0  0
 17 20  1  0  0  0  0
 18 17  1  0  0  0  0
 22 20  1  0  0  0  0
 22 21  2  1  0  0  0
 23 24  1  0  0  0  0
 23 22  1  0  0  0  0
 25 22  1  0  0  0  0
 26 27  1  0  0  0  0
 26 25  1  0  0  0  0
 28 26  2  0  0  0  0
M  END
>  <minimizedAffinity>
-4.70109224

$$$$

 OpenBabel03212520283D

 28 29  0  0  0  0  0  0  0  0999 V2000
   38.9920   75.7220   58.8380 C   0  0  0  0  0  0  0  0  0  0  0  0
   39.4610   76.5930   59.8310 C   0  0  0  0  0  0  0  0  0  0  0  0
   39.8010   75.6880   60.8450 C   0  0  0  0  0  0  0  0  0  0  0  0
   39.5450   74.4130   60.4590 N   0  0  0  0  0  0  0  0  0  0  0  0
   39.0500   74.4680   59.2220 N   0  0  0  0  0  0  0  0  0  0  0  0
   39.5580   77.6680   59.8670 H   0  0  0  0  0  0  0  0  0  0  0  0
   40.2200   75.9280   61.8340 H   0  0  0  0  0  0  0  0  0  0  0  0
   38.8090   77.4210   55.5230 C   0  0  0  0  0  0  0  0  0  0  0  0
   39.2730   76.9870   56.7500 C   0  0  0  0  0  0  0  0  0  0  0  0
   38.5060   76.1770   57.5520 C   0  0  0  0  0  0  0  0  0  0  0  0
   37.2740   75.8110   57.1080 N   0  0  0  0  0  0  0  0  0  0  0  0
   36.8440   76.2560   55.8900 C   0  0  0  0  0  0  0  0  0  0  0  0
   37.6080   77.0530   55.1110 N   0  0  0  0  0  0  0  0  0  0  0  0
   39.4430   78.0610   54.9140 H   0  0  0  0  0  0  0  0  0  0  0  0
   40.2600   77.3120   57.0480 H   0  0  0  0  0  0  0  0  0  0  0  0
   35.8480   75.8760   55.6870 H   0  0  0  0  0  0  0  0  0  0  0  0
   39.7770   73.2370   61.2530 C   0  0  0  0  0  0  0  0  0  0  0  0
   39.9700   72.3900   60.5330 H   0  0  0  0  0  0  0  0  0  0  0  0
   38.8650   72.9400   61.7860 H   0  0  0  0  0  0  0  0  0  0  0  0
   40.9090   73.3530   62.0250 O   0  0  0  0  0  0  0  0  0  0  0  0
   41.6760   71.3400   60.5560 O   0  0  0  0  0  0  0  0  0  0  0  0
   42.1070   72.2520   61.6950 P   0  0  2  0  0  0  0  0  0  0  0  0
   42.4110   71.3140   63.0460 O   0  0  0  0  0  0  0  0  0  0  0  0
   42.4980   70.3750   62.7950 H   0  0  0  0  0  0  0  0  0  0  0  0
   43.5570   73.0110   61.2570 O   0  0  0  0  0  0  0  0  0  0  0  0
   43.6740   73.4830   59.9450 C   0  0  0  0  0  0  0  0  0  0  0  0
   44.1870   73.1110   59.0930 H   0  0  0  0  0  0  0  0  0  0  0  0
   43.0210   74.5690   59.7940 O   0  0  0  0  0  0  0  0  0  0  0  0
  1  5  2  0  0  0  0
  1  2  1  0  0  0  0
  2  6  1  0  0  0  0
  2  3  2  0  0  0  0
  3  7  1  0  0  0  0
  4  3  1  0  0  0  0
  4 17  1  0  0  0  0
  5  4  1  0  0  0  0
  8  9  1  0  0  0  0
  9 15  1  0  0  0  0
  9 10  2  0  0  0  0
 10  1  1  0  0  0  0
 11 10  1  0  0  0  0
 12 11  2  0  0  0  0
 13  8  2  0  0  0  0
 13 12  1  0  0  0  0
 14  8  1  0  0  0  0
 16 12  1  0  0  0  0
 17 19  1  0  0  0  0
 17 20  1  0  0  0  0
 18 17  1  0  0  0  0
 22 21  2  6  0  0  0
 22 20  1  0  0  0  0
 22 23  1  0  0  0  0
 24 23  1  0  0  0  0
 25 22  1  0  0  0  0
 26 25  1  0  0  0  0
 27 26  1  0  0  0  0
 28 26  2  0  0  0  0
M  END
>  <minimizedAffinity>
-4.67669058

$$$$

 OpenBabel03212520283D

 28 29  0  0  0  0  0  0  0  0999 V2000
   38.3050   75.9640   57.9470 C   0  0  0  0  0  0  0  0  0  0  0  0
   39.1130   76.9360   58.5550 C   0  0  0  0  0  0  0  0  0  0  0  0
   39.4390   76.3000   59.7590 C   0  0  0  0  0  0  0  0  0  0  0  0
   38.8650   75.0720   59.8280 N   0  0  0  0  0  0  0  0  0  0  0  0
   38.1770   74.8960   58.7000 N   0  0  0  0  0  0  0  0  0  0  0  0
   39.4310   77.9170   58.2380 H   0  0  0  0  0  0  0  0  0  0  0  0
   40.0700   76.6980   60.5690 H   0  0  0  0  0  0  0  0  0  0  0  0
   37.0500   75.2770   54.5030 C   0  0  0  0  0  0  0  0  0  0  0  0
   37.6290   75.1060   55.7450 C   0  0  0  0  0  0  0  0  0  0  0  0
   37.6980   76.1430   56.6450 C   0  0  0  0  0  0  0  0  0  0  0  0
   37.1800   77.3460   56.2820 N   0  0  0  0  0  0  0  0  0  0  0  0
   36.6130   77.4830   55.0460 C   0  0  0  0  0  0  0  0  0  0  0  0
   36.5530   76.4550   54.1710 N   0  0  0  0  0  0  0  0  0  0  0  0
   37.0130   74.4350   53.8160 H   0  0  0  0  0  0  0  0  0  0  0  0
   38.0240   74.1260   55.9770 H   0  0  0  0  0  0  0  0  0  0  0  0
   36.2510   78.4980   54.9140 H   0  0  0  0  0  0  0  0  0  0  0  0
   38.9930   74.1500   60.9240 C   0  0  0  0  0  0  0  0  0  0  0  0
   37.9510   73.9620   61.3150 H   0  0  0  0  0  0  0  0  0  0  0  0
   39.5220   74.6160   61.7660 H   0  0  0  0  0  0  0  0  0  0  0  0
   39.4780   72.9290   60.5150 O   0  0  0  0  0  0  0  0  0  0  0  0
   41.5210   71.3230   60.3050 O   0  0  0  0  0  0  0  0  0  0  0  0
   41.0290   72.5860   60.9960 P   0  0  2  0  0  0  0  0  0  0  0  0
   41.0730   72.3430   62.6510 O   0  0  0  0  0  0  0  0  0  0  0  0
   41.6220   71.5640   62.8650 H   0  0  0  0  0  0  0  0  0  0  0  0
   42.0960   73.8500   60.6320 O   0  0  0  0  0  0  0  0  0  0  0  0
   42.3730   74.0990   59.2840 C   0  0  0  0  0  0  0  0  0  0  0  0
   42.2010   73.5350   58.4010 H   0  0  0  0  0  0  0  0  0  0  0  0
   42.9390   75.2340   59.1390 O   0  0  0  0  0  0  0  0  0  0  0  0
  1  2  1  0  0  0  0
  1  5  2  0  0  0  0
  2  3  2  0  0  0  0
  3  4  1  0  0  0  0
  3  7  1  0  0  0  0
  4 17  1  0  0  0  0
  5  4  1  0  0  0  0
  6  2  1  0  0  0  0
  8  9  1  0  0  0  0
  9 15  1  0  0  0  0
  9 10  2  0  0  0  0
 10  1  1  0  0  0  0
 11 10  1  0  0  0  0
 12 11  2  0  0  0  0
 13  8  2  0  0  0  0
 13 12  1  0  0  0  0
 14  8  1  0  0  0  0
 16 12  1  0  0  0  0
 17 18  1  0  0  0  0
 17 19  1  0  0  0  0
 20 17  1  0  0  0  0
 20 22  1  0  0  0  0
 22 21  2  6  0  0  0
 22 23  1  0  0  0  0
 23 24  1  0  0  0  0
 25 22  1  0  0  0  0
 26 25  1  0  0  0  0
 27 26  1  0  0  0  0
 28 26  2  0  0  0  0
M  END
>  <minimizedAffinity>
-4.67187786

$$$$

 OpenBabel03212520283D

 28 29  0  0  0  0  0  0  0  0999 V2000
   38.6920   75.9760   58.1730 C   0  0  0  0  0  0  0  0  0  0  0  0
   39.1820   77.2630   57.9120 C   0  0  0  0  0  0  0  0  0  0  0  0
   38.3950   77.6330   56.8150 C   0  0  0  0  0  0  0  0  0  0  0  0
   37.5320   76.6400   56.4820 N   0  0  0  0  0  0  0  0  0  0  0  0
   37.7400   75.6370   57.3360 N   0  0  0  0  0  0  0  0  0  0  0  0
   39.9490   77.8580   58.3850 H   0  0  0  0  0  0  0  0  0  0  0  0
   38.4320   78.5860   56.2630 H   0  0  0  0  0  0  0  0  0  0  0  0
   38.8200   73.7480   61.1630 C   0  0  0  0  0  0  0  0  0  0  0  0
   38.3400   74.5440   60.1400 C   0  0  0  0  0  0  0  0  0  0  0  0
   39.1950   75.1410   59.2450 C   0  0  0  0  0  0  0  0  0  0  0  0
   40.5300   74.9290   59.3890 N   0  0  0  0  0  0  0  0  0  0  0  0
   40.9740   74.1360   60.4100 C   0  0  0  0  0  0  0  0  0  0  0  0
   40.1220   73.5560   61.2840 N   0  0  0  0  0  0  0  0  0  0  0  0
   38.1150   73.2920   61.8530 H   0  0  0  0  0  0  0  0  0  0  0  0
   37.2690   74.6760   60.0770 H   0  0  0  0  0  0  0  0  0  0  0  0
   42.0560   74.0700   60.3850 H   0  0  0  0  0  0  0  0  0  0  0  0
   36.5790   76.6850   55.4070 C   0  0  0  0  0  0  0  0  0  0  0  0
   36.8330   77.5920   54.7850 H   0  0  0  0  0  0  0  0  0  0  0  0
   35.5700   76.8880   55.7880 H   0  0  0  0  0  0  0  0  0  0  0  0
   36.6950   75.5990   54.5700 O   0  0  0  0  0  0  0  0  0  0  0  0
   38.1320   77.1380   53.0330 O   0  0  0  0  0  0  0  0  0  0  0  0
   37.9210   75.6910   53.4560 P   0  0  2  0  0  0  0  0  0  0  0  0
   37.5320   74.7890   52.1020 O   0  0  0  0  0  0  0  0  0  0  0  0
   37.7520   75.2830   51.2890 H   0  0  0  0  0  0  0  0  0  0  0  0
   39.3800   75.0930   54.0720 O   0  0  0  0  0  0  0  0  0  0  0  0
   39.3930   73.7790   54.5550 C   0  0  0  0  0  0  0  0  0  0  0  0
   39.4210   73.3770   55.5370 H   0  0  0  0  0  0  0  0  0  0  0  0
   39.3630   72.9420   53.5920 O   0  0  0  0  0  0  0  0  0  0  0  0
  1 10  1  0  0  0  0
  2  1  1  0  0  0  0
  2  6  1  0  0  0  0
  3  2  2  0  0  0  0
  4  3  1  0  0  0  0
  4  5  1  0  0  0  0
  5  1  2  0  0  0  0
  7  3  1  0  0  0  0
  8 13  1  0  0  0  0
  8 14  1  0  0  0  0
  9  8  2  0  0  0  0
 10 11  2  0  0  0  0
 10  9  1  0  0  0  0
 11 12  1  0  0  0  0
 12 13  2  0  0  0  0
 15  9  1  0  0  0  0
 16 12  1  0  0  0  0
 17 19  1  0  0  0  0
 17  4  1  0  0  0  0
 18 17  1  0  0  0  0
 20 17  1  0  0  0  0
 22 21  2  6  0  0  0
 22 25  1  0  0  0  0
 22 20  1  0  0  0  0
 23 22  1  0  0  0  0
 24 23  1  0  0  0  0
 25 26  1  0  0  0  0
 26 27  1  0  0  0  0
 28 26  2  0  0  0  0
M  END
>  <minimizedAffinity>
-4.62691212

$$$$

 OpenBabel03212520283D

 28 29  0  0  0  0  0  0  0  0999 V2000
   41.8680   69.3520   62.3420 C   0  0  0  0  0  0  0  0  0  0  0  0
   41.7340   70.2640   63.3990 C   0  0  0  0  0  0  0  0  0  0  0  0
   42.1300   71.4550   62.7780 C   0  0  0  0  0  0  0  0  0  0  0  0
   42.4610   71.2370   61.4800 N   0  0  0  0  0  0  0  0  0  0  0  0
   42.2890   69.9360   61.2440 N   0  0  0  0  0  0  0  0  0  0  0  0
   41.4190   70.1460   64.4240 H   0  0  0  0  0  0  0  0  0  0  0  0
   42.1830   72.4560   63.2350 H   0  0  0  0  0  0  0  0  0  0  0  0
   41.9850   65.6530   61.8800 C   0  0  0  0  0  0  0  0  0  0  0  0
   42.2680   66.9990   61.7540 C   0  0  0  0  0  0  0  0  0  0  0  0
   41.5720   67.9410   62.4740 C   0  0  0  0  0  0  0  0  0  0  0  0
   40.5940   67.5140   63.3170 N   0  0  0  0  0  0  0  0  0  0  0  0
   40.3390   66.1760   63.4200 C   0  0  0  0  0  0  0  0  0  0  0  0
   41.0300   65.2610   62.7060 N   0  0  0  0  0  0  0  0  0  0  0  0
   42.5560   64.9350   61.2960 H   0  0  0  0  0  0  0  0  0  0  0  0
   43.0560   67.2770   61.0680 H   0  0  0  0  0  0  0  0  0  0  0  0
   39.5350   66.0050   64.1290 H   0  0  0  0  0  0  0  0  0  0  0  0
   42.9090   72.2390   60.5510 C   0  0  0  0  0  0  0  0  0  0  0  0
   42.6030   71.8900   59.5220 H   0  0  0  0  0  0  0  0  0  0  0  0
   44.0060   72.2730   60.5130 H   0  0  0  0  0  0  0  0  0  0  0  0
   42.2800   73.4460   60.7530 O   0  0  0  0  0  0  0  0  0  0  0  0
   40.6740   72.6010   58.8820 O   0  0  0  0  0  0  0  0  0  0  0  0
   40.8000   73.6040   60.0190 P   0  0  2  0  0  0  0  0  0  0  0  0
   40.6350   75.1470   59.3940 O   0  0  0  0  0  0  0  0  0  0  0  0
   40.2510   75.1110   58.4970 H   0  0  0  0  0  0  0  0  0  0  0  0
   39.5270   73.3490   61.1060 O   0  0  0  0  0  0  0  0  0  0  0  0
   38.4670   74.2630   61.0920 C   0  0  0  0  0  0  0  0  0  0  0  0
   38.0680   74.9080   61.8340 H   0  0  0  0  0  0  0  0  0  0  0  0
   37.9050   74.2880   59.9460 O   0  0  0  0  0  0  0  0  0  0  0  0
  1 10  1  0  0  0  0
  1  2  1  0  0  0  0
  2  6  1  0  0  0  0
  3  7  1  0  0  0  0
  3  2  2  0  0  0  0
  4  3  1  0  0  0  0
  5  4  1  0  0  0  0
  5  1  2  0  0  0  0
  8 13  1  0  0  0  0
  9  8  2  0  0  0  0
  9 10  1  0  0  0  0
 10 11  2  0  0  0  0
 11 12  1  0  0  0  0
 12 16  1  0  0  0  0
 13 12  2  0  0  0  0
 14  8  1  0  0  0  0
 15  9  1  0  0  0  0
 17 20  1  0  0  0  0
 17  4  1  0  0  0  0
 18 17  1  0  0  0  0
 19 17  1  0  0  0  0
 22 21  2  6  0  0  0
 22 20  1  0  0  0  0
 22 25  1  0  0  0  0
 23 22  1  0  0  0  0
 24 23  1  0  0  0  0
 26 25  1  0  0  0  0
 26 27  1  0  0  0  0
 28 26  2  0  0  0  0
M  END
>  <minimizedAffinity>
-4.57037258

$$$$
