
 OpenBabel03212520393D

 21 22  0  0  1  0  0  0  0  0999 V2000
   42.1370   85.2250   59.6480 C   0  0  1  0  0  0  0  0  0  0  0  0
   42.9830   86.1890   58.8240 C   0  0  0  0  0  0  0  0  0  0  0  0
   42.8500   84.7180   58.4640 C   0  0  1  0  0  0  0  0  0  0  0  0
   41.0580   85.5130   59.6080 H   0  0  0  0  0  0  0  0  0  0  0  0
   43.9740   86.4830   59.1610 H   0  0  0  0  0  0  0  0  0  0  0  0
   42.4950   86.8650   58.0960 H   0  0  0  0  0  0  0  0  0  0  0  0
   42.2440   84.4450   57.5720 H   0  0  0  0  0  0  0  0  0  0  0  0
   42.7060   85.0070   60.9370 O   0  0  0  0  0  0  0  0  0  0  0  0
   40.0800   83.4860   62.9070 C   0  0  0  0  0  0  0  0  0  0  0  0
   40.5560   83.6600   64.2060 C   0  0  0  0  0  0  0  0  0  0  0  0
   41.8000   84.3120   64.3670 C   0  0  0  0  0  0  0  0  0  0  0  0
   42.3980   84.7010   63.2300 N   0  0  0  0  0  0  0  0  0  0  0  0
   41.9460   84.5380   61.9810 C   0  0  0  0  0  0  0  0  0  0  0  0
   40.7810   83.9280   61.7990 N   0  0  0  0  0  0  0  0  0  0  0  0
   39.1320   82.9920   62.7310 H   0  0  0  0  0  0  0  0  0  0  0  0
   39.9770   83.3000   65.0400 H   0  0  0  0  0  0  0  0  0  0  0  0
   42.1940   84.4620   65.3420 H   0  0  0  0  0  0  0  0  0  0  0  0
   43.9560   83.8870   58.7050 O   0  0  0  0  0  0  0  0  0  0  0  0
   44.6690   83.2940   57.6730 C   0  0  0  0  0  0  0  0  0  0  0  0
   45.0010   82.2700   57.5700 H   0  0  0  0  0  0  0  0  0  0  0  0
   44.9710   84.0760   56.7080 O   0  0  0  0  0  0  0  0  0  0  0  0
  1  4  1  6  0  0  0
  1  8  1  0  0  0  0
  2  5  1  0  0  0  0
  2  1  1  0  0  0  0
  3  7  1  6  0  0  0
  3 18  1  0  0  0  0
  3  2  1  0  0  0  0
  3  1  1  0  0  0  0
  6  2  1  0  0  0  0
  8 13  1  0  0  0  0
  9 10  1  0  0  0  0
 10 11  2  0  0  0  0
 10 16  1  0  0  0  0
 11 17  1  0  0  0  0
 12 11  1  0  0  0  0
 13 12  2  0  0  0  0
 14 13  1  0  0  0  0
 14  9  2  0  0  0  0
 15  9  1  0  0  0  0
 19 18  1  0  0  0  0
 20 19  1  0  0  0  0
 21 19  2  0  0  0  0
M  END
>  <minimizedAffinity>
-3.24029636

>  <minimizedRMSD>
0.482360691

$$$$
