
 OpenBabel03212520393D

 21 22  0  0  1  0  0  0  0  0999 V2000
   42.4230   85.4070   59.8060 C   0  0  1  0  0  0  0  0  0  0  0  0
   43.4150   86.4970   59.4150 C   0  0  0  0  0  0  0  0  0  0  0  0
   43.1430   85.2920   58.5280 C   0  0  1  0  0  0  0  0  0  0  0  0
   41.3860   85.8200   59.8630 H   0  0  0  0  0  0  0  0  0  0  0  0
   44.4110   86.5200   59.8500 H   0  0  0  0  0  0  0  0  0  0  0  0
   43.0470   87.4490   58.9870 H   0  0  0  0  0  0  0  0  0  0  0  0
   42.5630   85.4460   57.5910 H   0  0  0  0  0  0  0  0  0  0  0  0
   42.8900   84.6590   60.9270 O   0  0  0  0  0  0  0  0  0  0  0  0
   40.0540   83.5400   62.8750 C   0  0  0  0  0  0  0  0  0  0  0  0
   40.5040   83.7370   64.1800 C   0  0  0  0  0  0  0  0  0  0  0  0
   41.8050   84.2630   64.3520 C   0  0  0  0  0  0  0  0  0  0  0  0
   42.4780   84.5210   63.2200 N   0  0  0  0  0  0  0  0  0  0  0  0
   42.0510   84.3340   61.9650 C   0  0  0  0  0  0  0  0  0  0  0  0
   40.8340   83.8410   61.7720 N   0  0  0  0  0  0  0  0  0  0  0  0
   39.0650   83.1390   62.6900 H   0  0  0  0  0  0  0  0  0  0  0  0
   39.8640   83.4890   65.0100 H   0  0  0  0  0  0  0  0  0  0  0  0
   42.1820   84.4260   65.3320 H   0  0  0  0  0  0  0  0  0  0  0  0
   44.1360   84.3030   58.4530 O   0  0  0  0  0  0  0  0  0  0  0  0
   44.9090   84.1210   57.3160 C   0  0  0  0  0  0  0  0  0  0  0  0
   45.4010   83.2260   56.9580 H   0  0  0  0  0  0  0  0  0  0  0  0
   45.0560   85.1630   56.5920 O   0  0  0  0  0  0  0  0  0  0  0  0
  1  4  1  6  0  0  0
  1  8  1  0  0  0  0
  2  1  1  0  0  0  0
  2  5  1  0  0  0  0
  3  7  1  6  0  0  0
  3  2  1  0  0  0  0
  3  1  1  0  0  0  0
  6  2  1  0  0  0  0
  8 13  1  0  0  0  0
  9 10  1  0  0  0  0
 10 11  2  0  0  0  0
 10 16  1  0  0  0  0
 11 17  1  0  0  0  0
 12 11  1  0  0  0  0
 13 12  2  0  0  0  0
 14 13  1  0  0  0  0
 14  9  2  0  0  0  0
 15  9  1  0  0  0  0
 18  3  1  0  0  0  0
 19 18  1  0  0  0  0
 20 19  1  0  0  0  0
 21 19  2  0  0  0  0
M  END
>  <minimizedAffinity>
-3.27575517

>  <minimizedRMSD>
0.372005701

$$$$
