
 OpenBabel03212520393D

 21 22  0  0  1  0  0  0  0  0999 V2000
   42.3830   85.4450   59.8080 C   0  0  1  0  0  0  0  0  0  0  0  0
   43.4440   86.4640   59.4050 C   0  0  0  0  0  0  0  0  0  0  0  0
   43.0240   85.3250   58.4890 C   0  0  1  0  0  0  0  0  0  0  0  0
   41.3900   85.9410   59.9380 H   0  0  0  0  0  0  0  0  0  0  0  0
   44.4590   86.3850   59.7850 H   0  0  0  0  0  0  0  0  0  0  0  0
   43.1370   87.4610   59.0350 H   0  0  0  0  0  0  0  0  0  0  0  0
   42.4110   85.5670   57.5920 H   0  0  0  0  0  0  0  0  0  0  0  0
   42.8410   84.6130   60.8720 O   0  0  0  0  0  0  0  0  0  0  0  0
   40.0530   83.5270   62.9050 C   0  0  0  0  0  0  0  0  0  0  0  0
   40.5360   83.7420   64.1950 C   0  0  0  0  0  0  0  0  0  0  0  0
   41.8410   84.2680   64.3290 C   0  0  0  0  0  0  0  0  0  0  0  0
   42.4860   84.5080   63.1760 N   0  0  0  0  0  0  0  0  0  0  0  0
   42.0280   84.3040   61.9350 C   0  0  0  0  0  0  0  0  0  0  0  0
   40.8050   83.8110   61.7790 N   0  0  0  0  0  0  0  0  0  0  0  0
   39.0590   83.1250   62.7510 H   0  0  0  0  0  0  0  0  0  0  0  0
   39.9160   83.5070   65.0450 H   0  0  0  0  0  0  0  0  0  0  0  0
   42.2420   84.4450   65.2960 H   0  0  0  0  0  0  0  0  0  0  0  0
   43.9230   84.2600   58.3210 O   0  0  0  0  0  0  0  0  0  0  0  0
   44.1640   83.6890   57.0800 C   0  0  0  0  0  0  0  0  0  0  0  0
   44.7670   82.8280   56.8290 H   0  0  0  0  0  0  0  0  0  0  0  0
   43.5890   84.2720   56.0980 O   0  0  0  0  0  0  0  0  0  0  0  0
  1  4  1  1  0  0  0
  1  8  1  0  0  0  0
  2  5  1  0  0  0  0
  2  1  1  0  0  0  0
  3  7  1  6  0  0  0
  3  2  1  0  0  0  0
  3  1  1  0  0  0  0
  6  2  1  0  0  0  0
  8 13  1  0  0  0  0
  9 10  1  0  0  0  0
 10 11  2  0  0  0  0
 10 16  1  0  0  0  0
 11 17  1  0  0  0  0
 12 11  1  0  0  0  0
 13 12  2  0  0  0  0
 14 13  1  0  0  0  0
 14  9  2  0  0  0  0
 15  9  1  0  0  0  0
 18  3  1  0  0  0  0
 19 18  1  0  0  0  0
 20 19  1  0  0  0  0
 21 19  2  0  0  0  0
M  END
>  <minimizedAffinity>
-3.2653687

>  <minimizedRMSD>
0.0881894156

$$$$
