
 OpenBabel03212520393D

 21 22  0  0  1  0  0  0  0  0999 V2000
   42.2960   85.4370   59.7840 C   0  0  1  0  0  0  0  0  0  0  0  0
   43.3490   85.6260   58.6980 C   0  0  0  0  0  0  0  0  0  0  0  0
   42.1120   84.7680   58.4860 C   0  0  1  0  0  0  0  0  0  0  0  0
   41.7970   86.4080   60.0230 H   0  0  0  0  0  0  0  0  0  0  0  0
   44.2830   85.0700   58.7300 H   0  0  0  0  0  0  0  0  0  0  0  0
   43.3530   86.5510   58.0890 H   0  0  0  0  0  0  0  0  0  0  0  0
   41.3120   85.1520   57.8140 H   0  0  0  0  0  0  0  0  0  0  0  0
   42.8090   84.6810   60.8790 O   0  0  0  0  0  0  0  0  0  0  0  0
   40.0640   83.5430   62.9420 C   0  0  0  0  0  0  0  0  0  0  0  0
   40.5650   83.7460   64.2270 C   0  0  0  0  0  0  0  0  0  0  0  0
   41.8670   84.2830   64.3460 C   0  0  0  0  0  0  0  0  0  0  0  0
   42.4910   84.5440   63.1860 N   0  0  0  0  0  0  0  0  0  0  0  0
   42.0160   84.3510   61.9500 C   0  0  0  0  0  0  0  0  0  0  0  0
   40.7960   83.8480   61.8080 N   0  0  0  0  0  0  0  0  0  0  0  0
   39.0710   83.1340   62.7980 H   0  0  0  0  0  0  0  0  0  0  0  0
   39.9600   83.4950   65.0820 H   0  0  0  0  0  0  0  0  0  0  0  0
   42.2820   84.4510   65.3100 H   0  0  0  0  0  0  0  0  0  0  0  0
   42.2820   83.3750   58.4670 O   0  0  0  0  0  0  0  0  0  0  0  0
   41.2120   82.5050   58.3130 C   0  0  0  0  0  0  0  0  0  0  0  0
   41.2080   81.4820   57.9630 H   0  0  0  0  0  0  0  0  0  0  0  0
   40.0740   82.9900   58.6300 O   0  0  0  0  0  0  0  0  0  0  0  0
  1  4  1  1  0  0  0
  1  8  1  0  0  0  0
  2  5  1  0  0  0  0
  2  1  1  0  0  0  0
  3  7  1  6  0  0  0
  3  2  1  0  0  0  0
  3  1  1  0  0  0  0
  6  2  1  0  0  0  0
  8 13  1  0  0  0  0
  9 10  1  0  0  0  0
 10 11  2  0  0  0  0
 10 16  1  0  0  0  0
 11 17  1  0  0  0  0
 12 11  1  0  0  0  0
 13 12  2  0  0  0  0
 14 13  1  0  0  0  0
 14  9  2  0  0  0  0
 15  9  1  0  0  0  0
 18  3  1  0  0  0  0
 19 18  1  0  0  0  0
 19 21  2  0  0  0  0
 20 19  1  0  0  0  0
M  END
>  <minimizedAffinity>
-3.4853158

>  <minimizedRMSD>
1.57556784

$$$$
