
 OpenBabel03212520123D

 25 26  0  0  0  0  0  0  0  0999 V2000
   42.8520   84.1880   58.5620 Cl  0  0  0  0  0  0  0  0  0  0  0  0
   41.7410   82.8560   58.2130 C   0  0  0  0  0  0  0  0  0  0  0  0
   40.9900   82.2320   59.1990 C   0  0  0  0  0  0  0  0  0  0  0  0
   40.1730   81.2100   58.7540 C   0  0  0  0  0  0  0  0  0  0  0  0
   40.0460   80.7710   57.4520 C   0  0  0  0  0  0  0  0  0  0  0  0
   40.8170   81.4290   56.5210 C   0  0  0  0  0  0  0  0  0  0  0  0
   40.7310   80.9490   54.8250 Cl  0  0  0  0  0  0  0  0  0  0  0  0
   41.6500   82.4570   56.9060 C   0  0  0  0  0  0  0  0  0  0  0  0
   39.5800   80.7110   59.5140 H   0  0  0  0  0  0  0  0  0  0  0  0
   39.3870   79.9740   57.2200 H   0  0  0  0  0  0  0  0  0  0  0  0
   41.9940   82.2360   61.5210 C   0  0  0  0  0  0  0  0  0  0  0  0
   41.1090   82.6720   60.5470 C   0  0  0  0  0  0  0  0  0  0  0  0
   40.1950   83.6850   60.9180 C   0  0  0  0  0  0  0  0  0  0  0  0
   40.2530   84.1510   62.1930 N   0  0  0  0  0  0  0  0  0  0  0  0
   41.1380   83.6930   63.1080 C   0  0  0  0  0  0  0  0  0  0  0  0
   42.0020   82.7370   62.7630 N   0  0  0  0  0  0  0  0  0  0  0  0
   42.6820   81.4540   61.1940 H   0  0  0  0  0  0  0  0  0  0  0  0
   39.4660   84.0900   60.2300 H   0  0  0  0  0  0  0  0  0  0  0  0
   41.0510   84.3240   64.4500 C   0  0  0  0  0  0  0  0  0  0  0  0
   40.6930   85.6580   64.3790 F   0  0  0  0  0  0  0  0  0  0  0  0
   40.1010   83.6620   65.2180 F   0  0  0  0  0  0  0  0  0  0  0  0
   42.2810   84.2920   65.0860 F   0  0  0  0  0  0  0  0  0  0  0  0
   42.4400   83.1120   55.8620 C   0  0  0  0  0  0  0  0  0  0  0  0
   43.2610   82.4020   55.8250 H   0  0  0  0  0  0  0  0  0  0  0  0
   42.2670   84.1490   55.2000 O   0  0  0  0  0  0  0  0  0  0  0  0
  2  1  1  0  0  0  0
  2  3  1  0  0  0  0
  3 12  1  0  0  0  0
  4  3  2  0  0  0  0
  4  9  1  0  0  0  0
  5  4  1  0  0  0  0
  6  8  1  0  0  0  0
  6  5  2  0  0  0  0
  7  6  1  0  0  0  0
  8  2  2  0  0  0  0
 10  5  1  0  0  0  0
 11 16  1  0  0  0  0
 12 13  1  0  0  0  0
 12 11  2  0  0  0  0
 13 14  2  0  0  0  0
 14 15  1  0  0  0  0
 15 19  1  0  0  0  0
 16 15  2  0  0  0  0
 17 11  1  0  0  0  0
 18 13  1  0  0  0  0
 19 22  1  0  0  0  0
 19 21  1  0  0  0  0
 20 19  1  0  0  0  0
 23  8  1  0  0  0  0
 24 23  1  0  0  0  0
 25 23  2  0  0  0  0
M  END
>  <minimizedAffinity>
-5.02944279

>  <minimizedRMSD>
0.668450296

$$$$
