
 OpenBabel03212520123D

 25 26  0  0  0  0  0  0  0  0999 V2000
   42.4370   83.9910   58.3850 Cl  0  0  0  0  0  0  0  0  0  0  0  0
   41.3940   82.5770   58.1780 C   0  0  0  0  0  0  0  0  0  0  0  0
   40.7630   81.9520   59.2440 C   0  0  0  0  0  0  0  0  0  0  0  0
   39.9850   80.8610   58.9060 C   0  0  0  0  0  0  0  0  0  0  0  0
   39.7900   80.3570   57.6360 C   0  0  0  0  0  0  0  0  0  0  0  0
   40.4430   81.0190   56.6220 C   0  0  0  0  0  0  0  0  0  0  0  0
   40.2620   80.4580   54.9590 Cl  0  0  0  0  0  0  0  0  0  0  0  0
   41.2320   82.1140   56.8990 C   0  0  0  0  0  0  0  0  0  0  0  0
   39.4840   80.3610   59.7290 H   0  0  0  0  0  0  0  0  0  0  0  0
   39.1690   79.5090   57.4890 H   0  0  0  0  0  0  0  0  0  0  0  0
   41.9640   82.1620   61.4600 C   0  0  0  0  0  0  0  0  0  0  0  0
   40.9530   82.4590   60.5600 C   0  0  0  0  0  0  0  0  0  0  0  0
   39.9700   83.3850   60.9810 C   0  0  0  0  0  0  0  0  0  0  0  0
   40.0910   83.9090   62.2290 N   0  0  0  0  0  0  0  0  0  0  0  0
   41.0990   83.5870   63.0720 C   0  0  0  0  0  0  0  0  0  0  0  0
   42.0290   82.7130   62.6790 N   0  0  0  0  0  0  0  0  0  0  0  0
   42.7020   81.4440   61.0960 H   0  0  0  0  0  0  0  0  0  0  0  0
   39.1430   83.6810   60.3510 H   0  0  0  0  0  0  0  0  0  0  0  0
   41.0640   84.2610   64.3950 C   0  0  0  0  0  0  0  0  0  0  0  0
   40.7430   85.6030   64.2890 F   0  0  0  0  0  0  0  0  0  0  0  0
   40.1160   83.6520   65.2070 F   0  0  0  0  0  0  0  0  0  0  0  0
   42.3090   84.2140   65.0000 F   0  0  0  0  0  0  0  0  0  0  0  0
   41.8960   82.7700   55.7710 C   0  0  0  0  0  0  0  0  0  0  0  0
   41.1160   83.4840   55.5290 H   0  0  0  0  0  0  0  0  0  0  0  0
   43.0010   82.5960   55.2270 O   0  0  0  0  0  0  0  0  0  0  0  0
  2  1  1  0  0  0  0
  2  3  1  0  0  0  0
  3 12  1  0  0  0  0
  4  3  2  0  0  0  0
  4  9  1  0  0  0  0
  5  4  1  0  0  0  0
  6  8  1  0  0  0  0
  6  5  2  0  0  0  0
  7  6  1  0  0  0  0
  8  2  2  0  0  0  0
 10  5  1  0  0  0  0
 11 16  1  0  0  0  0
 12 13  1  0  0  0  0
 12 11  2  0  0  0  0
 13 14  2  0  0  0  0
 14 15  1  0  0  0  0
 15 19  1  0  0  0  0
 16 15  2  0  0  0  0
 17 11  1  0  0  0  0
 18 13  1  0  0  0  0
 19 22  1  0  0  0  0
 19 21  1  0  0  0  0
 20 19  1  0  0  0  0
 23  8  1  0  0  0  0
 24 23  1  0  0  0  0
 25 23  2  0  0  0  0
M  END
>  <minimizedAffinity>
-5.01507378

>  <minimizedRMSD>
0.323119253

$$$$
