
 OpenBabel03212520123D

 25 26  0  0  0  0  0  0  0  0999 V2000
   42.4380   83.9910   58.3850 Cl  0  0  0  0  0  0  0  0  0  0  0  0
   41.3940   82.5770   58.1780 C   0  0  0  0  0  0  0  0  0  0  0  0
   40.7630   81.9530   59.2430 C   0  0  0  0  0  0  0  0  0  0  0  0
   39.9840   80.8620   58.9050 C   0  0  0  0  0  0  0  0  0  0  0  0
   39.7890   80.3580   57.6350 C   0  0  0  0  0  0  0  0  0  0  0  0
   40.4430   81.0200   56.6210 C   0  0  0  0  0  0  0  0  0  0  0  0
   40.2620   80.4580   54.9590 Cl  0  0  0  0  0  0  0  0  0  0  0  0
   41.2320   82.1140   56.8980 C   0  0  0  0  0  0  0  0  0  0  0  0
   39.4840   80.3620   59.7280 H   0  0  0  0  0  0  0  0  0  0  0  0
   39.1680   79.5110   57.4880 H   0  0  0  0  0  0  0  0  0  0  0  0
   41.9660   82.1640   61.4580 C   0  0  0  0  0  0  0  0  0  0  0  0
   40.9530   82.4600   60.5590 C   0  0  0  0  0  0  0  0  0  0  0  0
   39.9690   83.3840   60.9810 C   0  0  0  0  0  0  0  0  0  0  0  0
   40.0910   83.9080   62.2290 N   0  0  0  0  0  0  0  0  0  0  0  0
   41.0990   83.5870   63.0710 C   0  0  0  0  0  0  0  0  0  0  0  0
   42.0300   82.7150   62.6770 N   0  0  0  0  0  0  0  0  0  0  0  0
   42.7040   81.4470   61.0940 H   0  0  0  0  0  0  0  0  0  0  0  0
   39.1410   83.6780   60.3520 H   0  0  0  0  0  0  0  0  0  0  0  0
   41.0640   84.2620   64.3940 C   0  0  0  0  0  0  0  0  0  0  0  0
   40.7430   85.6030   64.2890 F   0  0  0  0  0  0  0  0  0  0  0  0
   40.1160   83.6520   65.2060 F   0  0  0  0  0  0  0  0  0  0  0  0
   42.3090   84.2140   65.0000 F   0  0  0  0  0  0  0  0  0  0  0  0
   41.8970   82.7700   55.7700 C   0  0  0  0  0  0  0  0  0  0  0  0
   41.1150   83.4810   55.5250 H   0  0  0  0  0  0  0  0  0  0  0  0
   43.0030   82.5990   55.2290 O   0  0  0  0  0  0  0  0  0  0  0  0
  2  1  1  0  0  0  0
  2  3  1  0  0  0  0
  3 12  1  0  0  0  0
  4  3  2  0  0  0  0
  4  9  1  0  0  0  0
  5  4  1  0  0  0  0
  6  8  1  0  0  0  0
  6  5  2  0  0  0  0
  7  6  1  0  0  0  0
  8  2  2  0  0  0  0
 10  5  1  0  0  0  0
 11 16  1  0  0  0  0
 12 13  1  0  0  0  0
 12 11  2  0  0  0  0
 13 14  2  0  0  0  0
 14 15  1  0  0  0  0
 15 19  1  0  0  0  0
 16 15  2  0  0  0  0
 17 11  1  0  0  0  0
 18 13  1  0  0  0  0
 19 22  1  0  0  0  0
 19 21  1  0  0  0  0
 20 19  1  0  0  0  0
 23  8  1  0  0  0  0
 24 23  1  0  0  0  0
 25 23  2  0  0  0  0
M  END
>  <minimizedAffinity>
-5.01253128

>  <minimizedRMSD>
0.383646071

$$$$
