
 OpenBabel03212520123D

 25 26  0  0  0  0  0  0  0  0999 V2000
   42.4380   83.9890   58.3830 Cl  0  0  0  0  0  0  0  0  0  0  0  0
   41.3940   82.5750   58.1770 C   0  0  0  0  0  0  0  0  0  0  0  0
   40.7620   81.9520   59.2430 C   0  0  0  0  0  0  0  0  0  0  0  0
   39.9830   80.8610   58.9050 C   0  0  0  0  0  0  0  0  0  0  0  0
   39.7870   80.3560   57.6350 C   0  0  0  0  0  0  0  0  0  0  0  0
   40.4410   81.0180   56.6210 C   0  0  0  0  0  0  0  0  0  0  0  0
   40.2590   80.4560   54.9580 Cl  0  0  0  0  0  0  0  0  0  0  0  0
   41.2310   82.1120   56.8980 C   0  0  0  0  0  0  0  0  0  0  0  0
   39.4820   80.3620   59.7280 H   0  0  0  0  0  0  0  0  0  0  0  0
   39.1660   79.5100   57.4890 H   0  0  0  0  0  0  0  0  0  0  0  0
   41.9650   82.1640   61.4570 C   0  0  0  0  0  0  0  0  0  0  0  0
   40.9530   82.4590   60.5580 C   0  0  0  0  0  0  0  0  0  0  0  0
   39.9680   83.3830   60.9800 C   0  0  0  0  0  0  0  0  0  0  0  0
   40.0900   83.9070   62.2280 N   0  0  0  0  0  0  0  0  0  0  0  0
   41.1000   83.5860   63.0700 C   0  0  0  0  0  0  0  0  0  0  0  0
   42.0300   82.7150   62.6760 N   0  0  0  0  0  0  0  0  0  0  0  0
   42.7040   81.4460   61.0920 H   0  0  0  0  0  0  0  0  0  0  0  0
   39.1400   83.6770   60.3520 H   0  0  0  0  0  0  0  0  0  0  0  0
   41.0650   84.2610   64.3930 C   0  0  0  0  0  0  0  0  0  0  0  0
   40.7440   85.6020   64.2880 F   0  0  0  0  0  0  0  0  0  0  0  0
   40.1170   83.6520   65.2050 F   0  0  0  0  0  0  0  0  0  0  0  0
   42.3100   84.2130   64.9990 F   0  0  0  0  0  0  0  0  0  0  0  0
   41.8960   82.7670   55.7690 C   0  0  0  0  0  0  0  0  0  0  0  0
   41.1130   83.4790   55.5240 H   0  0  0  0  0  0  0  0  0  0  0  0
   43.0010   82.5960   55.2280 O   0  0  0  0  0  0  0  0  0  0  0  0
  2  1  1  0  0  0  0
  2  3  1  0  0  0  0
  3 12  1  0  0  0  0
  4  3  2  0  0  0  0
  4  9  1  0  0  0  0
  5  4  1  0  0  0  0
  6  8  1  0  0  0  0
  6  5  2  0  0  0  0
  7  6  1  0  0  0  0
  8  2  2  0  0  0  0
 10  5  1  0  0  0  0
 11 16  1  0  0  0  0
 12 13  1  0  0  0  0
 12 11  2  0  0  0  0
 13 14  2  0  0  0  0
 14 15  1  0  0  0  0
 15 19  1  0  0  0  0
 16 15  2  0  0  0  0
 17 11  1  0  0  0  0
 18 13  1  0  0  0  0
 19 22  1  0  0  0  0
 19 21  1  0  0  0  0
 20 19  1  0  0  0  0
 23  8  1  0  0  0  0
 24 23  1  0  0  0  0
 25 23  2  0  0  0  0
M  END
>  <minimizedAffinity>
-5.00967121

>  <minimizedRMSD>
0.441770911

$$$$
