
 OpenBabel03212520123D

 25 26  0  0  0  0  0  0  0  0999 V2000
   42.8510   84.1900   58.5640 Cl  0  0  0  0  0  0  0  0  0  0  0  0
   41.7410   82.8580   58.2150 C   0  0  0  0  0  0  0  0  0  0  0  0
   40.9910   82.2330   59.2010 C   0  0  0  0  0  0  0  0  0  0  0  0
   40.1740   81.2110   58.7550 C   0  0  0  0  0  0  0  0  0  0  0  0
   40.0480   80.7720   57.4530 C   0  0  0  0  0  0  0  0  0  0  0  0
   40.8190   81.4300   56.5220 C   0  0  0  0  0  0  0  0  0  0  0  0
   40.7330   80.9500   54.8260 Cl  0  0  0  0  0  0  0  0  0  0  0  0
   41.6510   82.4590   56.9070 C   0  0  0  0  0  0  0  0  0  0  0  0
   39.5810   80.7120   59.5140 H   0  0  0  0  0  0  0  0  0  0  0  0
   39.3890   79.9750   57.2210 H   0  0  0  0  0  0  0  0  0  0  0  0
   41.9940   82.2370   61.5220 C   0  0  0  0  0  0  0  0  0  0  0  0
   41.1090   82.6730   60.5480 C   0  0  0  0  0  0  0  0  0  0  0  0
   40.1940   83.6860   60.9190 C   0  0  0  0  0  0  0  0  0  0  0  0
   40.2530   84.1520   62.1940 N   0  0  0  0  0  0  0  0  0  0  0  0
   41.1370   83.6940   63.1090 C   0  0  0  0  0  0  0  0  0  0  0  0
   42.0020   82.7380   62.7640 N   0  0  0  0  0  0  0  0  0  0  0  0
   42.6820   81.4550   61.1950 H   0  0  0  0  0  0  0  0  0  0  0  0
   39.4660   84.0910   60.2310 H   0  0  0  0  0  0  0  0  0  0  0  0
   41.0490   84.3250   64.4520 C   0  0  0  0  0  0  0  0  0  0  0  0
   40.6910   85.6590   64.3800 F   0  0  0  0  0  0  0  0  0  0  0  0
   40.1000   83.6620   65.2190 F   0  0  0  0  0  0  0  0  0  0  0  0
   42.2800   84.2930   65.0870 F   0  0  0  0  0  0  0  0  0  0  0  0
   42.4410   83.1140   55.8630 C   0  0  0  0  0  0  0  0  0  0  0  0
   43.2630   82.4050   55.8270 H   0  0  0  0  0  0  0  0  0  0  0  0
   42.2660   84.1510   55.2010 O   0  0  0  0  0  0  0  0  0  0  0  0
  2  1  1  0  0  0  0
  2  3  1  0  0  0  0
  3 12  1  0  0  0  0
  4  3  2  0  0  0  0
  4  9  1  0  0  0  0
  5  4  1  0  0  0  0
  6  8  1  0  0  0  0
  6  5  2  0  0  0  0
  7  6  1  0  0  0  0
  8  2  2  0  0  0  0
 10  5  1  0  0  0  0
 11 16  1  0  0  0  0
 12 13  1  0  0  0  0
 12 11  2  0  0  0  0
 13 14  2  0  0  0  0
 14 15  1  0  0  0  0
 15 19  1  0  0  0  0
 16 15  2  0  0  0  0
 17 11  1  0  0  0  0
 18 13  1  0  0  0  0
 19 22  1  0  0  0  0
 19 21  1  0  0  0  0
 20 19  1  0  0  0  0
 23  8  1  0  0  0  0
 24 23  1  0  0  0  0
 25 23  2  0  0  0  0
M  END
>  <minimizedAffinity>
-5.02859497

>  <minimizedRMSD>
0.686186731

$$$$
