
 OpenBabel03212520123D

 25 26  0  0  0  0  0  0  0  0999 V2000
   42.8220   83.9600   58.4830 Cl  0  0  0  0  0  0  0  0  0  0  0  0
   41.6530   82.6680   58.1760 C   0  0  0  0  0  0  0  0  0  0  0  0
   40.8900   82.0970   59.1830 C   0  0  0  0  0  0  0  0  0  0  0  0
   40.0260   81.1000   58.7690 C   0  0  0  0  0  0  0  0  0  0  0  0
   39.8660   80.6390   57.4780 C   0  0  0  0  0  0  0  0  0  0  0  0
   40.6530   81.2450   56.5250 C   0  0  0  0  0  0  0  0  0  0  0  0
   40.5270   80.7330   54.8410 Cl  0  0  0  0  0  0  0  0  0  0  0  0
   41.5310   82.2460   56.8780 C   0  0  0  0  0  0  0  0  0  0  0  0
   39.4210   80.6430   59.5450 H   0  0  0  0  0  0  0  0  0  0  0  0
   39.1710   79.8650   57.2710 H   0  0  0  0  0  0  0  0  0  0  0  0
   41.9530   82.1430   61.4770 C   0  0  0  0  0  0  0  0  0  0  0  0
   41.0420   82.5600   60.5190 C   0  0  0  0  0  0  0  0  0  0  0  0
   40.1350   83.5780   60.8960 C   0  0  0  0  0  0  0  0  0  0  0  0
   40.2260   84.0660   62.1610 N   0  0  0  0  0  0  0  0  0  0  0  0
   41.1340   83.6250   63.0610 C   0  0  0  0  0  0  0  0  0  0  0  0
   41.9910   82.6640   62.7100 N   0  0  0  0  0  0  0  0  0  0  0  0
   42.6330   81.3550   61.1460 H   0  0  0  0  0  0  0  0  0  0  0  0
   39.3890   83.9700   60.2200 H   0  0  0  0  0  0  0  0  0  0  0  0
   41.0810   84.2790   64.3940 C   0  0  0  0  0  0  0  0  0  0  0  0
   40.7500   85.6190   64.3060 F   0  0  0  0  0  0  0  0  0  0  0  0
   40.1290   83.6500   65.1860 F   0  0  0  0  0  0  0  0  0  0  0  0
   42.3190   84.2310   65.0120 F   0  0  0  0  0  0  0  0  0  0  0  0
   42.3350   82.8450   55.8110 C   0  0  0  0  0  0  0  0  0  0  0  0
   43.0940   82.0720   55.7390 H   0  0  0  0  0  0  0  0  0  0  0  0
   42.2230   83.9000   55.1640 O   0  0  0  0  0  0  0  0  0  0  0  0
  2  1  1  0  0  0  0
  2  3  1  0  0  0  0
  3 12  1  0  0  0  0
  4  3  2  0  0  0  0
  4  9  1  0  0  0  0
  5  4  1  0  0  0  0
  6  8  1  0  0  0  0
  6  5  2  0  0  0  0
  7  6  1  0  0  0  0
  8  2  2  0  0  0  0
 10  5  1  0  0  0  0
 11 16  1  0  0  0  0
 12 13  1  0  0  0  0
 12 11  2  0  0  0  0
 13 14  2  0  0  0  0
 14 15  1  0  0  0  0
 15 19  1  0  0  0  0
 16 15  2  0  0  0  0
 17 11  1  0  0  0  0
 18 13  1  0  0  0  0
 19 22  1  0  0  0  0
 19 21  1  0  0  0  0
 20 19  1  0  0  0  0
 23  8  1  0  0  0  0
 24 23  1  0  0  0  0
 25 23  2  0  0  0  0
M  END
>  <minimizedAffinity>
-5.03656816

>  <minimizedRMSD>
0.637411356

$$$$
