
 OpenBabel03212520123D

 25 26  0  0  0  0  0  0  0  0999 V2000
   42.6210   83.8740   58.3740 Cl  0  0  0  0  0  0  0  0  0  0  0  0
   41.4890   82.5340   58.1430 C   0  0  0  0  0  0  0  0  0  0  0  0
   40.7870   81.9600   59.1930 C   0  0  0  0  0  0  0  0  0  0  0  0
   39.9440   80.9230   58.8360 C   0  0  0  0  0  0  0  0  0  0  0  0
   39.7510   80.4260   57.5630 C   0  0  0  0  0  0  0  0  0  0  0  0
   40.4760   81.0370   56.5660 C   0  0  0  0  0  0  0  0  0  0  0  0
   40.3030   80.4800   54.9010 Cl  0  0  0  0  0  0  0  0  0  0  0  0
   41.3310   82.0760   56.8610 C   0  0  0  0  0  0  0  0  0  0  0  0
   39.3880   80.4630   59.6470 H   0  0  0  0  0  0  0  0  0  0  0  0
   39.0770   79.6230   57.4020 H   0  0  0  0  0  0  0  0  0  0  0  0
   41.9630   82.1300   61.4250 C   0  0  0  0  0  0  0  0  0  0  0  0
   40.9740   82.4590   60.5110 C   0  0  0  0  0  0  0  0  0  0  0  0
   40.0160   83.4160   60.9200 C   0  0  0  0  0  0  0  0  0  0  0  0
   40.1370   83.9350   62.1700 N   0  0  0  0  0  0  0  0  0  0  0  0
   41.1220   83.5800   63.0260 C   0  0  0  0  0  0  0  0  0  0  0  0
   42.0280   82.6780   62.6450 N   0  0  0  0  0  0  0  0  0  0  0  0
   42.6820   81.3880   61.0710 H   0  0  0  0  0  0  0  0  0  0  0  0
   39.2070   83.7390   60.2790 H   0  0  0  0  0  0  0  0  0  0  0  0
   41.0900   84.2550   64.3490 C   0  0  0  0  0  0  0  0  0  0  0  0
   40.7710   85.5970   64.2440 F   0  0  0  0  0  0  0  0  0  0  0  0
   40.1420   83.6470   65.1630 F   0  0  0  0  0  0  0  0  0  0  0  0
   42.3360   84.2050   64.9530 F   0  0  0  0  0  0  0  0  0  0  0  0
   42.0700   82.6780   55.7500 C   0  0  0  0  0  0  0  0  0  0  0  0
   42.9680   82.0740   55.8190 H   0  0  0  0  0  0  0  0  0  0  0  0
   41.7950   83.5920   54.9530 O   0  0  0  0  0  0  0  0  0  0  0  0
  2  1  1  0  0  0  0
  2  3  1  0  0  0  0
  3 12  1  0  0  0  0
  4  3  2  0  0  0  0
  4  9  1  0  0  0  0
  5  4  1  0  0  0  0
  6  8  1  0  0  0  0
  6  5  2  0  0  0  0
  7  6  1  0  0  0  0
  8  2  2  0  0  0  0
 10  5  1  0  0  0  0
 11 16  1  0  0  0  0
 12 13  1  0  0  0  0
 12 11  2  0  0  0  0
 13 14  2  0  0  0  0
 14 15  1  0  0  0  0
 15 19  1  0  0  0  0
 16 15  2  0  0  0  0
 17 11  1  0  0  0  0
 18 13  1  0  0  0  0
 19 22  1  0  0  0  0
 19 21  1  0  0  0  0
 20 19  1  0  0  0  0
 23 24  1  0  0  0  0
 23  8  1  0  0  0  0
 25 23  2  0  0  0  0
M  END
>  <minimizedAffinity>
-4.92412233

>  <minimizedRMSD>
0.442448258

$$$$
