
 OpenBabel03212520123D

 25 26  0  0  0  0  0  0  0  0999 V2000
   42.4380   83.9920   58.3860 Cl  0  0  0  0  0  0  0  0  0  0  0  0
   41.3950   82.5780   58.1780 C   0  0  0  0  0  0  0  0  0  0  0  0
   40.7630   81.9530   59.2440 C   0  0  0  0  0  0  0  0  0  0  0  0
   39.9840   80.8620   58.9050 C   0  0  0  0  0  0  0  0  0  0  0  0
   39.7900   80.3580   57.6350 C   0  0  0  0  0  0  0  0  0  0  0  0
   40.4430   81.0210   56.6220 C   0  0  0  0  0  0  0  0  0  0  0  0
   40.2620   80.4600   54.9590 Cl  0  0  0  0  0  0  0  0  0  0  0  0
   41.2330   82.1150   56.8990 C   0  0  0  0  0  0  0  0  0  0  0  0
   39.4840   80.3620   59.7280 H   0  0  0  0  0  0  0  0  0  0  0  0
   39.1690   79.5110   57.4880 H   0  0  0  0  0  0  0  0  0  0  0  0
   41.9640   82.1610   61.4610 C   0  0  0  0  0  0  0  0  0  0  0  0
   40.9530   82.4600   60.5600 C   0  0  0  0  0  0  0  0  0  0  0  0
   39.9710   83.3860   60.9800 C   0  0  0  0  0  0  0  0  0  0  0  0
   40.0920   83.9100   62.2280 N   0  0  0  0  0  0  0  0  0  0  0  0
   41.0990   83.5870   63.0720 C   0  0  0  0  0  0  0  0  0  0  0  0
   42.0280   82.7120   62.6790 N   0  0  0  0  0  0  0  0  0  0  0  0
   42.7000   81.4420   61.0970 H   0  0  0  0  0  0  0  0  0  0  0  0
   39.1440   83.6830   60.3510 H   0  0  0  0  0  0  0  0  0  0  0  0
   41.0650   84.2610   64.3950 C   0  0  0  0  0  0  0  0  0  0  0  0
   40.7420   85.6020   64.2900 F   0  0  0  0  0  0  0  0  0  0  0  0
   40.1170   83.6510   65.2070 F   0  0  0  0  0  0  0  0  0  0  0  0
   42.3090   84.2140   65.0000 F   0  0  0  0  0  0  0  0  0  0  0  0
   41.8970   82.7710   55.7710 C   0  0  0  0  0  0  0  0  0  0  0  0
   41.1130   83.4810   55.5250 H   0  0  0  0  0  0  0  0  0  0  0  0
   43.0040   82.6020   55.2310 O   0  0  0  0  0  0  0  0  0  0  0  0
  2  1  1  0  0  0  0
  2  3  1  0  0  0  0
  3 12  1  0  0  0  0
  4  3  2  0  0  0  0
  4  9  1  0  0  0  0
  5  4  1  0  0  0  0
  6  8  1  0  0  0  0
  6  5  2  0  0  0  0
  7  6  1  0  0  0  0
  8  2  2  0  0  0  0
 10  5  1  0  0  0  0
 11 16  1  0  0  0  0
 12 13  1  0  0  0  0
 12 11  2  0  0  0  0
 13 14  2  0  0  0  0
 14 15  1  0  0  0  0
 15 19  1  0  0  0  0
 16 15  2  0  0  0  0
 17 11  1  0  0  0  0
 18 13  1  0  0  0  0
 19 22  1  0  0  0  0
 19 21  1  0  0  0  0
 20 19  1  0  0  0  0
 23  8  1  0  0  0  0
 24 23  1  0  0  0  0
 25 23  2  0  0  0  0
M  END
>  <minimizedAffinity>
-5.01234865

>  <minimizedRMSD>
0.33401525

$$$$
