
 OpenBabel03212520103D

 12 12  0  0  0  0  0  0  0  0999 V2000
   38.7220   76.8660   57.9710 C   0  0  0  0  0  0  0  0  0  0  0  0
   37.9770   75.7400   57.5840 C   0  0  0  0  0  0  0  0  0  0  0  0
   37.9740   74.6510   58.4570 C   0  0  0  0  0  0  0  0  0  0  0  0
   38.6800   74.7370   59.6180 N   0  0  0  0  0  0  0  0  0  0  0  0
   39.3810   75.8340   59.9500 C   0  0  0  0  0  0  0  0  0  0  0  0
   39.4060   76.8970   59.1340 N   0  0  0  0  0  0  0  0  0  0  0  0
   38.7520   77.7350   57.3210 H   0  0  0  0  0  0  0  0  0  0  0  0
   37.3990   73.7700   58.1680 H   0  0  0  0  0  0  0  0  0  0  0  0
   39.8920   75.7540   60.9060 H   0  0  0  0  0  0  0  0  0  0  0  0
   37.2520   75.7580   56.3060 C   0  0  0  0  0  0  0  0  0  0  0  0
   37.4160   74.8760   55.6770 H   0  0  0  0  0  0  0  0  0  0  0  0
   36.5500   76.7500   56.0890 O   0  0  0  0  0  0  0  0  0  0  0  0
  1  6  1  0  0  0  0
  2  1  2  0  0  0  0
  2  3  1  0  0  0  0
  3  4  2  0  0  0  0
  4  5  1  0  0  0  0
  5  9  1  0  0  0  0
  6  5  2  0  0  0  0
  7  1  1  0  0  0  0
  8  3  1  0  0  0  0
 10  2  1  0  0  0  0
 11 10  1  0  0  0  0
 12 10  2  0  0  0  0
M  END
>  <minimizedAffinity>
-3.03356218

$$$$

 OpenBabel03212520103D

 12 12  0  0  0  0  0  0  0  0999 V2000
   38.0050   74.6180   58.6090 C   0  0  0  0  0  0  0  0  0  0  0  0
   38.3370   75.8210   57.9650 C   0  0  0  0  0  0  0  0  0  0  0  0
   39.0840   76.7460   58.6970 C   0  0  0  0  0  0  0  0  0  0  0  0
   39.4440   76.4390   59.9720 N   0  0  0  0  0  0  0  0  0  0  0  0
   39.1050   75.2750   60.5520 C   0  0  0  0  0  0  0  0  0  0  0  0
   38.3880   74.3640   59.8780 N   0  0  0  0  0  0  0  0  0  0  0  0
   37.4250   73.8710   58.0760 H   0  0  0  0  0  0  0  0  0  0  0  0
   39.3480   77.6850   58.2080 H   0  0  0  0  0  0  0  0  0  0  0  0
   39.4640   75.1720   61.5730 H   0  0  0  0  0  0  0  0  0  0  0  0
   37.8940   76.0470   56.5820 C   0  0  0  0  0  0  0  0  0  0  0  0
   38.6850   75.9540   55.8300 H   0  0  0  0  0  0  0  0  0  0  0  0
   36.6980   76.3120   56.4270 O   0  0  0  0  0  0  0  0  0  0  0  0
  1  6  1  0  0  0  0
  2  1  2  0  0  0  0
  2  3  1  0  0  0  0
  3  4  2  0  0  0  0
  4  5  1  0  0  0  0
  5  9  1  0  0  0  0
  6  5  2  0  0  0  0
  7  1  1  0  0  0  0
  8  3  1  0  0  0  0
 10  2  1  0  0  0  0
 11 10  1  0  0  0  0
 12 10  2  0  0  0  0
M  END
>  <minimizedAffinity>
-3.02602005

$$$$

 OpenBabel03212520103D

 12 12  0  0  0  0  0  0  0  0999 V2000
   38.2220   74.6930   58.8870 C   0  0  0  0  0  0  0  0  0  0  0  0
   38.8440   74.8760   60.1340 C   0  0  0  0  0  0  0  0  0  0  0  0
   39.4990   76.0900   60.3430 C   0  0  0  0  0  0  0  0  0  0  0  0
   39.5000   77.0180   59.3470 N   0  0  0  0  0  0  0  0  0  0  0  0
   38.8930   76.8030   58.1680 C   0  0  0  0  0  0  0  0  0  0  0  0
   38.2550   75.6470   57.9330 N   0  0  0  0  0  0  0  0  0  0  0  0
   37.7010   73.7630   58.6830 H   0  0  0  0  0  0  0  0  0  0  0  0
   39.9860   76.2440   61.3070 H   0  0  0  0  0  0  0  0  0  0  0  0
   38.9790   77.6340   57.4720 H   0  0  0  0  0  0  0  0  0  0  0  0
   38.7790   73.8050   61.1370 C   0  0  0  0  0  0  0  0  0  0  0  0
   37.7630   73.5310   61.4460 H   0  0  0  0  0  0  0  0  0  0  0  0
   39.8590   73.3410   61.5130 O   0  0  0  0  0  0  0  0  0  0  0  0
  1  2  1  0  0  0  0
  2  3  2  0  0  0  0
  2 10  1  0  0  0  0
  3  8  1  0  0  0  0
  4  3  1  0  0  0  0
  5  4  2  0  0  0  0
  6  5  1  0  0  0  0
  6  1  2  0  0  0  0
  7  1  1  0  0  0  0
  9  5  1  0  0  0  0
 10 11  1  0  0  0  0
 10 12  2  0  0  0  0
M  END
>  <minimizedAffinity>
-2.95635891

$$$$

 OpenBabel03212520103D

 12 12  0  0  0  0  0  0  0  0999 V2000
   39.5490   76.3790   60.8130 C   0  0  0  0  0  0  0  0  0  0  0  0
   40.7320   76.3580   60.0560 C   0  0  0  0  0  0  0  0  0  0  0  0
   41.2320   75.1050   59.6970 C   0  0  0  0  0  0  0  0  0  0  0  0
   40.5580   73.9900   60.0910 N   0  0  0  0  0  0  0  0  0  0  0  0
   39.4280   74.0550   60.8160 C   0  0  0  0  0  0  0  0  0  0  0  0
   38.9200   75.2420   61.1780 N   0  0  0  0  0  0  0  0  0  0  0  0
   39.1250   77.3330   61.1130 H   0  0  0  0  0  0  0  0  0  0  0  0
   42.1500   75.0750   59.1100 H   0  0  0  0  0  0  0  0  0  0  0  0
   39.0030   73.0830   61.0550 H   0  0  0  0  0  0  0  0  0  0  0  0
   41.3760   77.6250   59.6860 C   0  0  0  0  0  0  0  0  0  0  0  0
   40.6790   78.4350   59.4400 H   0  0  0  0  0  0  0  0  0  0  0  0
   42.6100   77.6350   59.6950 O   0  0  0  0  0  0  0  0  0  0  0  0
  1  7  1  0  0  0  0
  1  6  1  0  0  0  0
  2  1  2  0  0  0  0
  3  2  1  0  0  0  0
  3  4  2  0  0  0  0
  4  5  1  0  0  0  0
  5  9  1  0  0  0  0
  5  6  2  0  0  0  0
  8  3  1  0  0  0  0
 10 12  2  0  0  0  0
 10  2  1  0  0  0  0
 11 10  1  0  0  0  0
M  END
>  <minimizedAffinity>
-2.94507003

$$$$

 OpenBabel03212520103D

 12 12  0  0  0  0  0  0  0  0999 V2000
   39.4770   76.0920   60.1160 C   0  0  0  0  0  0  0  0  0  0  0  0
   38.8580   74.8320   60.0630 C   0  0  0  0  0  0  0  0  0  0  0  0
   38.1370   74.5290   58.9060 C   0  0  0  0  0  0  0  0  0  0  0  0
   38.0740   75.4530   57.9090 N   0  0  0  0  0  0  0  0  0  0  0  0
   38.6810   76.6490   58.0010 C   0  0  0  0  0  0  0  0  0  0  0  0
   39.3810   76.9720   59.0980 N   0  0  0  0  0  0  0  0  0  0  0  0
   40.0480   76.3690   60.9980 H   0  0  0  0  0  0  0  0  0  0  0  0
   37.6520   73.5530   58.8520 H   0  0  0  0  0  0  0  0  0  0  0  0
   38.5410   77.2790   57.1270 H   0  0  0  0  0  0  0  0  0  0  0  0
   38.9940   73.9120   61.2000 C   0  0  0  0  0  0  0  0  0  0  0  0
   38.0430   73.5910   61.6410 H   0  0  0  0  0  0  0  0  0  0  0  0
   40.1450   73.6090   61.5250 O   0  0  0  0  0  0  0  0  0  0  0  0
  1  7  1  0  0  0  0
  2  1  1  0  0  0  0
  2 10  1  0  0  0  0
  3  2  2  0  0  0  0
  4  5  2  0  0  0  0
  4  3  1  0  0  0  0
  5  6  1  0  0  0  0
  6  1  2  0  0  0  0
  8  3  1  0  0  0  0
  9  5  1  0  0  0  0
 10 12  2  0  0  0  0
 10 11  1  0  0  0  0
M  END
>  <minimizedAffinity>
-2.92403316

$$$$

 OpenBabel03212520103D

 12 12  0  0  0  0  0  0  0  0999 V2000
   38.6360   74.8810   59.3680 C   0  0  0  0  0  0  0  0  0  0  0  0
   39.1730   76.1730   59.2450 C   0  0  0  0  0  0  0  0  0  0  0  0
   38.8520   76.8860   58.0890 C   0  0  0  0  0  0  0  0  0  0  0  0
   38.0490   76.3020   57.1580 N   0  0  0  0  0  0  0  0  0  0  0  0
   37.5560   75.0620   57.3140 C   0  0  0  0  0  0  0  0  0  0  0  0
   37.8450   74.3490   58.4130 N   0  0  0  0  0  0  0  0  0  0  0  0
   38.8610   74.2920   60.2520 H   0  0  0  0  0  0  0  0  0  0  0  0
   39.2630   77.8910   57.9810 H   0  0  0  0  0  0  0  0  0  0  0  0
   36.9320   74.7310   56.4880 H   0  0  0  0  0  0  0  0  0  0  0  0
   40.0300   76.7040   60.3150 C   0  0  0  0  0  0  0  0  0  0  0  0
   40.9630   77.1610   59.9660 H   0  0  0  0  0  0  0  0  0  0  0  0
   39.6070   76.5780   61.4670 O   0  0  0  0  0  0  0  0  0  0  0  0
  1  7  1  0  0  0  0
  2  1  1  0  0  0  0
  2 10  1  0  0  0  0
  3  2  2  0  0  0  0
  4  5  2  0  0  0  0
  4  3  1  0  0  0  0
  5  6  1  0  0  0  0
  6  1  2  0  0  0  0
  8  3  1  0  0  0  0
  9  5  1  0  0  0  0
 10 12  2  0  0  0  0
 11 10  1  0  0  0  0
M  END
>  <minimizedAffinity>
-2.91001558

$$$$

 OpenBabel03212520103D

 12 12  0  0  0  0  0  0  0  0999 V2000
   38.9400   76.1540   58.6700 C   0  0  0  0  0  0  0  0  0  0  0  0
   38.3310   74.8900   58.7290 C   0  0  0  0  0  0  0  0  0  0  0  0
   38.3160   74.2520   59.9700 C   0  0  0  0  0  0  0  0  0  0  0  0
   38.8820   74.8770   61.0390 N   0  0  0  0  0  0  0  0  0  0  0  0
   39.4550   76.0880   60.9390 C   0  0  0  0  0  0  0  0  0  0  0  0
   39.4870   76.7290   59.7610 N   0  0  0  0  0  0  0  0  0  0  0  0
   38.9720   76.6860   57.7240 H   0  0  0  0  0  0  0  0  0  0  0  0
   37.8460   73.2690   60.0300 H   0  0  0  0  0  0  0  0  0  0  0  0
   39.8640   76.4590   61.8750 H   0  0  0  0  0  0  0  0  0  0  0  0
   37.7500   74.3090   57.5110 C   0  0  0  0  0  0  0  0  0  0  0  0
   37.4620   75.0430   56.7490 H   0  0  0  0  0  0  0  0  0  0  0  0
   37.6540   73.0790   57.4830 O   0  0  0  0  0  0  0  0  0  0  0  0
  1  2  2  0  0  0  0
  1  6  1  0  0  0  0
  2  3  1  0  0  0  0
  3  8  1  0  0  0  0
  3  4  2  0  0  0  0
  5  4  1  0  0  0  0
  5  9  1  0  0  0  0
  6  5  2  0  0  0  0
  7  1  1  0  0  0  0
 10  2  1  0  0  0  0
 11 10  1  0  0  0  0
 12 10  2  0  0  0  0
M  END
>  <minimizedAffinity>
-2.84160471

$$$$

 OpenBabel03212520103D

 12 12  0  0  0  0  0  0  0  0999 V2000
   40.8820   74.8350   59.9910 C   0  0  0  0  0  0  0  0  0  0  0  0
   39.5600   75.3080   59.9490 C   0  0  0  0  0  0  0  0  0  0  0  0
   38.6050   74.5830   60.6640 C   0  0  0  0  0  0  0  0  0  0  0  0
   38.9980   73.4770   61.3520 N   0  0  0  0  0  0  0  0  0  0  0  0
   40.2740   73.0580   61.3660 C   0  0  0  0  0  0  0  0  0  0  0  0
   41.2170   73.7300   60.6900 N   0  0  0  0  0  0  0  0  0  0  0  0
   41.6570   75.3690   59.4500 H   0  0  0  0  0  0  0  0  0  0  0  0
   37.5740   74.9400   60.6390 H   0  0  0  0  0  0  0  0  0  0  0  0
   40.4350   72.1610   61.9590 H   0  0  0  0  0  0  0  0  0  0  0  0
   39.2490   76.5150   59.1720 C   0  0  0  0  0  0  0  0  0  0  0  0
   39.7560   77.4230   59.5200 H   0  0  0  0  0  0  0  0  0  0  0  0
   38.4650   76.3730   58.2300 O   0  0  0  0  0  0  0  0  0  0  0  0
  1  6  1  0  0  0  0
  2  1  2  0  0  0  0
  2  3  1  0  0  0  0
  3  4  2  0  0  0  0
  4  5  1  0  0  0  0
  5  9  1  0  0  0  0
  6  5  2  0  0  0  0
  7  1  1  0  0  0  0
  8  3  1  0  0  0  0
 10 11  1  0  0  0  0
 10  2  1  0  0  0  0
 12 10  2  0  0  0  0
M  END
>  <minimizedAffinity>
-2.78981948

$$$$

 OpenBabel03212520103D

 12 12  0  0  0  0  0  0  0  0999 V2000
   37.4050   75.2540   57.2590 C   0  0  0  0  0  0  0  0  0  0  0  0
   38.4070   76.0990   57.7640 C   0  0  0  0  0  0  0  0  0  0  0  0
   38.5820   77.3270   57.1240 C   0  0  0  0  0  0  0  0  0  0  0  0
   37.7870   77.6350   56.0630 N   0  0  0  0  0  0  0  0  0  0  0  0
   36.8400   76.7970   55.6110 C   0  0  0  0  0  0  0  0  0  0  0  0
   36.6450   75.6090   56.2020 N   0  0  0  0  0  0  0  0  0  0  0  0
   37.2350   74.2890   57.7280 H   0  0  0  0  0  0  0  0  0  0  0  0
   39.3570   77.9930   57.5070 H   0  0  0  0  0  0  0  0  0  0  0  0
   36.2860   77.1800   54.7580 H   0  0  0  0  0  0  0  0  0  0  0  0
   39.2070   75.6630   58.9170 C   0  0  0  0  0  0  0  0  0  0  0  0
   39.5230   74.6140   58.8810 H   0  0  0  0  0  0  0  0  0  0  0  0
   39.4280   76.5140   59.7830 O   0  0  0  0  0  0  0  0  0  0  0  0
  1  7  1  0  0  0  0
  1  2  1  0  0  0  0
  2 10  1  0  0  0  0
  3  8  1  0  0  0  0
  3  2  2  0  0  0  0
  4  3  1  0  0  0  0
  5  4  2  0  0  0  0
  5  6  1  0  0  0  0
  6  1  2  0  0  0  0
  9  5  1  0  0  0  0
 10 12  2  0  0  0  0
 11 10  1  0  0  0  0
M  END
>  <minimizedAffinity>
-2.78582788

$$$$
