
 OpenBabel03212520463D

 14 14  0  0  0  0  0  0  0  0999 V2000
   41.5500   85.4480   58.9830 C   0  0  0  0  0  0  0  0  0  0  0  0
   42.7620   85.3740   59.7070 C   0  0  0  0  0  0  0  0  0  0  0  0
   42.7580   84.7890   60.9780 C   0  0  0  0  0  0  0  0  0  0  0  0
   41.5630   84.3200   61.4350 N   0  0  0  0  0  0  0  0  0  0  0  0
   40.4310   84.4040   60.7250 C   0  0  0  0  0  0  0  0  0  0  0  0
   40.4260   84.9620   59.5120 N   0  0  0  0  0  0  0  0  0  0  0  0
   41.7340   86.0670   57.7240 N   0  0  0  0  0  0  0  0  0  0  0  0
   43.7270   85.7450   59.3530 H   0  0  0  0  0  0  0  0  0  0  0  0
   43.6750   84.7270   61.5390 H   0  0  0  0  0  0  0  0  0  0  0  0
   42.2570   85.5850   56.9420 H   0  0  0  0  0  0  0  0  0  0  0  0
   41.2930   87.0330   57.6890 H   0  0  0  0  0  0  0  0  0  0  0  0
   39.1950   83.8730   61.2990 C   0  0  0  0  0  0  0  0  0  0  0  0
   38.2350   84.2460   60.9420 H   0  0  0  0  0  0  0  0  0  0  0  0
   39.2350   82.9940   62.1960 O   0  0  0  0  0  0  0  0  0  0  0  0
  1  6  2  0  0  0  0
  1  2  1  0  0  0  0
  2  3  2  0  0  0  0
  3  4  1  0  0  0  0
  3  9  1  0  0  0  0
  5 12  1  0  0  0  0
  5  4  2  0  0  0  0
  6  5  1  0  0  0  0
  7  1  1  0  0  0  0
  8  2  1  0  0  0  0
 10  7  1  0  0  0  0
 11  7  1  0  0  0  0
 12 14  2  0  0  0  0
 13 12  1  0  0  0  0
M  END
>  <minimizedAffinity>
-3.28002882

>  <minimizedRMSD>
3.59291244

$$$$
