
 OpenBabel03212520293D

 22 23  0  0  0  0  0  0  0  0999 V2000
   40.4130   81.3830   59.7830 N   0  0  0  0  0  0  0  0  0  0  0  0
   40.4250   80.0590   59.9410 C   0  0  0  0  0  0  0  0  0  0  0  0
   40.0820   79.2700   58.8360 C   0  0  0  0  0  0  0  0  0  0  0  0
   39.7470   79.8780   57.6320 C   0  0  0  0  0  0  0  0  0  0  0  0
   39.4280   79.2410   56.5950 O   0  0  0  0  0  0  0  0  0  0  0  0
   39.7630   81.2370   57.5610 N   0  0  0  0  0  0  0  0  0  0  0  0
   40.0950   82.0010   58.6290 C   0  0  0  0  0  0  0  0  0  0  0  0
   40.1100   83.2590   58.5690 O   0  0  0  0  0  0  0  0  0  0  0  0
   40.6790   79.5450   60.8610 H   0  0  0  0  0  0  0  0  0  0  0  0
   40.0700   78.1920   58.8920 H   0  0  0  0  0  0  0  0  0  0  0  0
   39.5120   81.6880   56.6600 H   0  0  0  0  0  0  0  0  0  0  0  0
   39.7690   82.5580   61.8330 C   0  0  0  0  0  0  0  0  0  0  0  0
   40.7760   82.0990   60.9590 C   0  0  0  0  0  0  0  0  0  0  0  0
   42.0990   82.3700   61.2920 C   0  0  0  0  0  0  0  0  0  0  0  0
   42.3550   83.0570   62.4280 N   0  0  0  0  0  0  0  0  0  0  0  0
   41.3810   83.4860   63.2490 C   0  0  0  0  0  0  0  0  0  0  0  0
   40.0960   83.2340   62.9440 N   0  0  0  0  0  0  0  0  0  0  0  0
   38.7390   82.3600   61.5960 H   0  0  0  0  0  0  0  0  0  0  0  0
   42.8880   82.0410   60.6600 H   0  0  0  0  0  0  0  0  0  0  0  0
   41.6220   84.2310   64.4850 C   0  0  0  0  0  0  0  0  0  0  0  0
   42.6550   84.5910   64.6160 H   0  0  0  0  0  0  0  0  0  0  0  0
   40.7320   84.4550   65.3450 O   0  0  0  0  0  0  0  0  0  0  0  0
  1  2  1  0  0  0  0
  1 13  1  0  0  0  0
  2  9  1  0  0  0  0
  3 10  1  0  0  0  0
  3  2  2  0  0  0  0
  4  3  1  0  0  0  0
  5  4  2  0  0  0  0
  6  4  1  0  0  0  0
  6  7  1  0  0  0  0
  7  1  1  0  0  0  0
  8  7  2  0  0  0  0
 11  6  1  0  0  0  0
 12 17  1  0  0  0  0
 13 14  1  0  0  0  0
 13 12  2  0  0  0  0
 14 15  2  0  0  0  0
 15 16  1  0  0  0  0
 16 20  1  0  0  0  0
 17 16  2  0  0  0  0
 18 12  1  0  0  0  0
 19 14  1  0  0  0  0
 20 21  1  0  0  0  0
 20 22  2  0  0  0  0
M  END
>  <minimizedAffinity>
-4.53814077

>  <minimizedRMSD>
2.23065758

$$$$
