
 OpenBabel03212520293D

 22 23  0  0  0  0  0  0  0  0999 V2000
   40.3620   81.5020   59.8700 N   0  0  0  0  0  0  0  0  0  0  0  0
   40.3810   80.1770   60.0160 C   0  0  0  0  0  0  0  0  0  0  0  0
   40.1080   79.3950   58.8870 C   0  0  0  0  0  0  0  0  0  0  0  0
   39.8310   80.0100   57.6730 C   0  0  0  0  0  0  0  0  0  0  0  0
   39.5760   79.3800   56.6140 O   0  0  0  0  0  0  0  0  0  0  0  0
   39.8330   81.3700   57.6150 N   0  0  0  0  0  0  0  0  0  0  0  0
   40.0970   82.1280   58.7060 C   0  0  0  0  0  0  0  0  0  0  0  0
   40.1000   83.3860   58.6580 O   0  0  0  0  0  0  0  0  0  0  0  0
   40.5920   79.6570   60.9440 H   0  0  0  0  0  0  0  0  0  0  0  0
   40.1060   78.3160   58.9340 H   0  0  0  0  0  0  0  0  0  0  0  0
   39.6260   81.8260   56.7060 H   0  0  0  0  0  0  0  0  0  0  0  0
   39.5930   82.7070   61.8590 C   0  0  0  0  0  0  0  0  0  0  0  0
   40.6510   82.2110   61.0700 C   0  0  0  0  0  0  0  0  0  0  0  0
   41.9520   82.4420   61.5070 C   0  0  0  0  0  0  0  0  0  0  0  0
   42.1370   83.1250   62.6590 N   0  0  0  0  0  0  0  0  0  0  0  0
   41.1150   83.5890   63.3990 C   0  0  0  0  0  0  0  0  0  0  0  0
   39.8520   83.3760   62.9910 N   0  0  0  0  0  0  0  0  0  0  0  0
   38.5790   82.5400   61.5400 H   0  0  0  0  0  0  0  0  0  0  0  0
   42.7780   82.0840   60.9420 H   0  0  0  0  0  0  0  0  0  0  0  0
   41.2810   84.3300   64.6490 C   0  0  0  0  0  0  0  0  0  0  0  0
   42.2670   84.2210   65.1270 H   0  0  0  0  0  0  0  0  0  0  0  0
   40.3780   85.0450   65.1570 O   0  0  0  0  0  0  0  0  0  0  0  0
  1  2  1  0  0  0  0
  1 13  1  0  0  0  0
  2  9  1  0  0  0  0
  3 10  1  0  0  0  0
  3  2  2  0  0  0  0
  4  3  1  0  0  0  0
  5  4  2  0  0  0  0
  6  4  1  0  0  0  0
  6  7  1  0  0  0  0
  7  1  1  0  0  0  0
  8  7  2  0  0  0  0
 11  6  1  0  0  0  0
 12 17  1  0  0  0  0
 13 14  1  0  0  0  0
 13 12  2  0  0  0  0
 14 15  2  0  0  0  0
 15 16  1  0  0  0  0
 16 20  1  0  0  0  0
 17 16  2  0  0  0  0
 18 12  1  0  0  0  0
 19 14  1  0  0  0  0
 20 21  1  0  0  0  0
 20 22  2  0  0  0  0
M  END
>  <minimizedAffinity>
-4.4301281

>  <minimizedRMSD>
2.11112642

$$$$
