
 OpenBabel03212520463D

 14 14  0  0  0  0  0  0  0  0999 V2000
   40.0540   83.5980   59.8290 C   0  0  0  0  0  0  0  0  0  0  0  0
   39.3630   84.2970   60.8440 C   0  0  0  0  0  0  0  0  0  0  0  0
   38.9860   83.6120   62.0040 C   0  0  0  0  0  0  0  0  0  0  0  0
   39.3200   82.2920   62.0740 N   0  0  0  0  0  0  0  0  0  0  0  0
   39.9760   81.6580   61.0940 C   0  0  0  0  0  0  0  0  0  0  0  0
   40.3380   82.3040   59.9840 N   0  0  0  0  0  0  0  0  0  0  0  0
   40.3560   84.4390   58.7320 N   0  0  0  0  0  0  0  0  0  0  0  0
   39.0900   85.3550   60.8020 H   0  0  0  0  0  0  0  0  0  0  0  0
   38.4600   84.1340   62.7840 H   0  0  0  0  0  0  0  0  0  0  0  0
   41.0850   85.2010   58.8040 H   0  0  0  0  0  0  0  0  0  0  0  0
   39.7720   84.2020   57.8760 H   0  0  0  0  0  0  0  0  0  0  0  0
   40.2910   80.2380   61.2590 C   0  0  0  0  0  0  0  0  0  0  0  0
   40.6140   79.8710   62.2320 H   0  0  0  0  0  0  0  0  0  0  0  0
   40.1890   79.4470   60.2880 O   0  0  0  0  0  0  0  0  0  0  0  0
  1  6  2  0  0  0  0
  1  2  1  0  0  0  0
  2  3  2  0  0  0  0
  3  4  1  0  0  0  0
  3  9  1  0  0  0  0
  5 12  1  0  0  0  0
  5  4  2  0  0  0  0
  6  5  1  0  0  0  0
  7 10  1  0  0  0  0
  7  1  1  0  0  0  0
  8  2  1  0  0  0  0
 11  7  1  0  0  0  0
 12 13  1  0  0  0  0
 14 12  2  0  0  0  0
M  END
>  <minimizedAffinity>
-3.39819956

>  <minimizedRMSD>
3.41057491

$$$$
