
 OpenBabel03212520463D

 14 14  0  0  0  0  0  0  0  0999 V2000
   40.6010   80.4090   61.6070 C   0  0  0  0  0  0  0  0  0  0  0  0
   41.9430   80.7340   61.9070 C   0  0  0  0  0  0  0  0  0  0  0  0
   42.2690   82.0610   62.2050 C   0  0  0  0  0  0  0  0  0  0  0  0
   41.2480   82.9640   62.1860 N   0  0  0  0  0  0  0  0  0  0  0  0
   39.9860   82.6250   61.8990 C   0  0  0  0  0  0  0  0  0  0  0  0
   39.6660   81.3610   61.6120 N   0  0  0  0  0  0  0  0  0  0  0  0
   40.4490   79.0300   61.3310 N   0  0  0  0  0  0  0  0  0  0  0  0
   42.7710   80.0200   61.9270 H   0  0  0  0  0  0  0  0  0  0  0  0
   43.2880   82.3210   62.4350 H   0  0  0  0  0  0  0  0  0  0  0  0
   40.5320   78.3010   62.0920 H   0  0  0  0  0  0  0  0  0  0  0  0
   40.2530   78.8500   60.3020 H   0  0  0  0  0  0  0  0  0  0  0  0
   38.9560   83.6650   61.9020 C   0  0  0  0  0  0  0  0  0  0  0  0
   38.3150   83.7810   62.7740 H   0  0  0  0  0  0  0  0  0  0  0  0
   38.8120   84.4210   60.9070 O   0  0  0  0  0  0  0  0  0  0  0  0
  1  6  2  0  0  0  0
  1  2  1  0  0  0  0
  2  8  1  0  0  0  0
  2  3  2  0  0  0  0
  3  9  1  0  0  0  0
  4  3  1  0  0  0  0
  5 12  1  0  0  0  0
  5  4  2  0  0  0  0
  6  5  1  0  0  0  0
  7  1  1  0  0  0  0
  7 10  1  0  0  0  0
 11  7  1  0  0  0  0
 12 13  1  0  0  0  0
 14 12  2  0  0  0  0
M  END
>  <minimizedAffinity>
-3.61570573

>  <minimizedRMSD>
2.55323911

$$$$
