
 OpenBabel03212520073D

 12 12  0  0  0  0  0  0  0  0999 V2000
   40.0450   82.0090   60.6180 C   0  0  0  0  0  0  0  0  0  0  0  0
   40.1070   82.9300   59.5590 C   0  0  0  0  0  0  0  0  0  0  0  0
   39.5410   84.1870   59.7790 C   0  0  0  0  0  0  0  0  0  0  0  0
   38.9710   84.4490   60.9870 N   0  0  0  0  0  0  0  0  0  0  0  0
   38.9320   83.5390   61.9740 C   0  0  0  0  0  0  0  0  0  0  0  0
   39.4660   82.3220   61.7960 N   0  0  0  0  0  0  0  0  0  0  0  0
   40.4740   81.0200   60.4890 H   0  0  0  0  0  0  0  0  0  0  0  0
   39.5820   84.9120   58.9650 H   0  0  0  0  0  0  0  0  0  0  0  0
   38.4450   83.8930   62.8790 H   0  0  0  0  0  0  0  0  0  0  0  0
   40.7480   82.5380   58.2970 C   0  0  0  0  0  0  0  0  0  0  0  0
   41.6920   83.0530   58.0870 H   0  0  0  0  0  0  0  0  0  0  0  0
   40.1600   81.6850   57.6260 O   0  0  0  0  0  0  0  0  0  0  0  0
  1  6  1  0  0  0  0
  2  3  1  0  0  0  0
  2  1  2  0  0  0  0
  3  4  2  0  0  0  0
  4  5  1  0  0  0  0
  5  9  1  0  0  0  0
  6  5  2  0  0  0  0
  7  1  1  0  0  0  0
  8  3  1  0  0  0  0
 10  2  1  0  0  0  0
 11 10  1  0  0  0  0
 12 10  2  0  0  0  0
M  END
>  <minimizedAffinity>
-3.48254466

>  <minimizedRMSD>
0.364237487

$$$$
