
 OpenBabel03212520463D

 14 14  0  0  0  0  0  0  0  0999 V2000
   40.2600   81.5990   61.6040 C   0  0  0  0  0  0  0  0  0  0  0  0
   39.8400   82.3620   60.4910 C   0  0  0  0  0  0  0  0  0  0  0  0
   39.7480   83.7520   60.6180 C   0  0  0  0  0  0  0  0  0  0  0  0
   40.0780   84.2820   61.8290 N   0  0  0  0  0  0  0  0  0  0  0  0
   40.4740   83.5320   62.8650 C   0  0  0  0  0  0  0  0  0  0  0  0
   40.5640   82.2050   62.7530 N   0  0  0  0  0  0  0  0  0  0  0  0
   40.2970   80.2170   61.3020 N   0  0  0  0  0  0  0  0  0  0  0  0
   39.5720   81.9500   59.5140 H   0  0  0  0  0  0  0  0  0  0  0  0
   39.4280   84.3430   59.7770 H   0  0  0  0  0  0  0  0  0  0  0  0
   41.0280   79.8110   60.6560 H   0  0  0  0  0  0  0  0  0  0  0  0
   39.5220   79.6820   61.7960 H   0  0  0  0  0  0  0  0  0  0  0  0
   40.8080   84.1920   64.1280 C   0  0  0  0  0  0  0  0  0  0  0  0
   41.4460   85.0750   64.1180 H   0  0  0  0  0  0  0  0  0  0  0  0
   40.3660   83.7430   65.2160 O   0  0  0  0  0  0  0  0  0  0  0  0
  1  6  1  0  0  0  0
  2  3  1  0  0  0  0
  2  1  2  0  0  0  0
  3  4  2  0  0  0  0
  4  5  1  0  0  0  0
  5 12  1  0  0  0  0
  6  5  2  0  0  0  0
  7  1  1  0  0  0  0
  7 11  1  0  0  0  0
  8  2  1  0  0  0  0
  9  3  1  0  0  0  0
 10  7  1  0  0  0  0
 12 14  2  0  0  0  0
 13 12  1  0  0  0  0
M  END
>  <minimizedAffinity>
-3.83284879

>  <minimizedRMSD>
1.57208204

$$$$
