
 OpenBabel03212520293D

 22 23  0  0  0  0  0  0  0  0999 V2000
   40.3920   81.4220   59.8230 N   0  0  0  0  0  0  0  0  0  0  0  0
   40.4110   80.0990   59.9880 C   0  0  0  0  0  0  0  0  0  0  0  0
   40.1020   79.3020   58.8790 C   0  0  0  0  0  0  0  0  0  0  0  0
   39.7900   79.9000   57.6650 C   0  0  0  0  0  0  0  0  0  0  0  0
   39.5010   79.2560   56.6240 O   0  0  0  0  0  0  0  0  0  0  0  0
   39.7960   81.2590   57.5870 N   0  0  0  0  0  0  0  0  0  0  0  0
   40.0960   82.0310   58.6590 C   0  0  0  0  0  0  0  0  0  0  0  0
   40.1010   83.2890   58.5920 O   0  0  0  0  0  0  0  0  0  0  0  0
   40.6480   79.5920   60.9160 H   0  0  0  0  0  0  0  0  0  0  0  0
   40.0980   78.2230   58.9410 H   0  0  0  0  0  0  0  0  0  0  0  0
   39.5630   81.7030   56.6780 H   0  0  0  0  0  0  0  0  0  0  0  0
   39.6890   82.6300   61.8340 C   0  0  0  0  0  0  0  0  0  0  0  0
   40.7210   82.1470   61.0030 C   0  0  0  0  0  0  0  0  0  0  0  0
   42.0350   82.4050   61.3820 C   0  0  0  0  0  0  0  0  0  0  0  0
   42.2570   83.1020   62.5190 N   0  0  0  0  0  0  0  0  0  0  0  0
   41.2590   83.5540   63.2980 C   0  0  0  0  0  0  0  0  0  0  0  0
   39.9840   83.3140   62.9480 N   0  0  0  0  0  0  0  0  0  0  0  0
   38.6650   82.4420   61.5610 H   0  0  0  0  0  0  0  0  0  0  0  0
   42.8420   82.0580   60.7840 H   0  0  0  0  0  0  0  0  0  0  0  0
   41.4650   84.3100   64.5340 C   0  0  0  0  0  0  0  0  0  0  0  0
   42.4830   84.7100   64.6700 H   0  0  0  0  0  0  0  0  0  0  0  0
   40.5620   84.5020   65.3880 O   0  0  0  0  0  0  0  0  0  0  0  0
  1  2  1  0  0  0  0
  1 13  1  0  0  0  0
  2  9  1  0  0  0  0
  3 10  1  0  0  0  0
  3  2  2  0  0  0  0
  4  3  1  0  0  0  0
  5  4  2  0  0  0  0
  6  4  1  0  0  0  0
  6  7  1  0  0  0  0
  7  1  1  0  0  0  0
  8  7  2  0  0  0  0
 11  6  1  0  0  0  0
 12 17  1  0  0  0  0
 13 14  1  0  0  0  0
 13 12  2  0  0  0  0
 14 15  2  0  0  0  0
 15 16  1  0  0  0  0
 16 20  1  0  0  0  0
 17 16  2  0  0  0  0
 18 12  1  0  0  0  0
 19 14  1  0  0  0  0
 20 21  1  0  0  0  0
 20 22  2  0  0  0  0
M  END
>  <minimizedAffinity>
-4.55653095

>  <minimizedRMSD>
2.18461108

$$$$
