
 OpenBabel03212520463D

 14 14  0  0  0  0  0  0  0  0999 V2000
   40.1630   81.4110   59.4900 C   0  0  0  0  0  0  0  0  0  0  0  0
   40.3860   82.3790   58.4850 C   0  0  0  0  0  0  0  0  0  0  0  0
   40.2710   83.7340   58.8100 C   0  0  0  0  0  0  0  0  0  0  0  0
   39.9460   84.0310   60.1000 N   0  0  0  0  0  0  0  0  0  0  0  0
   39.7410   83.0910   61.0310 C   0  0  0  0  0  0  0  0  0  0  0  0
   39.8480   81.7950   60.7280 N   0  0  0  0  0  0  0  0  0  0  0  0
   40.3200   80.0970   58.9910 N   0  0  0  0  0  0  0  0  0  0  0  0
   40.6470   82.1550   57.4470 H   0  0  0  0  0  0  0  0  0  0  0  0
   40.4380   84.4800   58.0520 H   0  0  0  0  0  0  0  0  0  0  0  0
   41.2700   79.7130   58.7310 H   0  0  0  0  0  0  0  0  0  0  0  0
   39.3910   79.5850   58.9190 H   0  0  0  0  0  0  0  0  0  0  0  0
   39.3960   83.5060   62.3910 C   0  0  0  0  0  0  0  0  0  0  0  0
   38.5300   84.1480   62.5510 H   0  0  0  0  0  0  0  0  0  0  0  0
   40.0920   83.1280   63.3680 O   0  0  0  0  0  0  0  0  0  0  0  0
  1  6  1  0  0  0  0
  2  3  1  0  0  0  0
  2  1  2  0  0  0  0
  3  4  2  0  0  0  0
  4  5  1  0  0  0  0
  5 12  1  0  0  0  0
  6  5  2  0  0  0  0
  7  1  1  0  0  0  0
  8  2  1  0  0  0  0
  9  3  1  0  0  0  0
 10  7  1  0  0  0  0
 11  7  1  0  0  0  0
 12 13  1  0  0  0  0
 12 14  2  0  0  0  0
M  END
>  <minimizedAffinity>
-3.04804659

>  <minimizedRMSD>
1.50448275

$$$$
