
 OpenBabel03212520463D

 14 14  0  0  0  0  0  0  0  0999 V2000
   40.2250   80.2830   61.3290 C   0  0  0  0  0  0  0  0  0  0  0  0
   40.9500   79.6920   62.3880 C   0  0  0  0  0  0  0  0  0  0  0  0
   41.2980   78.3400   62.3010 C   0  0  0  0  0  0  0  0  0  0  0  0
   40.9070   77.6760   61.1770 N   0  0  0  0  0  0  0  0  0  0  0  0
   40.2210   78.2640   60.1900 C   0  0  0  0  0  0  0  0  0  0  0  0
   39.8840   79.5530   60.2650 N   0  0  0  0  0  0  0  0  0  0  0  0
   39.9570   81.6490   61.5800 N   0  0  0  0  0  0  0  0  0  0  0  0
   41.2700   80.2130   63.2950 H   0  0  0  0  0  0  0  0  0  0  0  0
   41.8510   77.8800   63.1020 H   0  0  0  0  0  0  0  0  0  0  0  0
   40.7240   82.3760   61.5570 H   0  0  0  0  0  0  0  0  0  0  0  0
   38.9290   81.8210   61.7850 H   0  0  0  0  0  0  0  0  0  0  0  0
   39.8440   77.4690   59.0200 C   0  0  0  0  0  0  0  0  0  0  0  0
   40.5220   77.4130   58.1700 H   0  0  0  0  0  0  0  0  0  0  0  0
   38.7460   76.8540   58.9960 O   0  0  0  0  0  0  0  0  0  0  0  0
  1  7  1  0  0  0  0
  1  2  1  0  0  0  0
  2  8  1  0  0  0  0
  3  2  2  0  0  0  0
  3  9  1  0  0  0  0
  4  3  1  0  0  0  0
  5  6  1  0  0  0  0
  5  4  2  0  0  0  0
  6  1  2  0  0  0  0
  7 11  1  0  0  0  0
 10  7  1  0  0  0  0
 12  5  1  0  0  0  0
 13 12  1  0  0  0  0
 14 12  2  0  0  0  0
M  END
>  <minimizedAffinity>
-2.44082403

>  <minimizedRMSD>
5.87030602

$$$$
