
 OpenBabel03212520463D

 14 14  0  0  0  0  0  0  0  0999 V2000
   40.3410   80.5870   59.8670 C   0  0  0  0  0  0  0  0  0  0  0  0
   40.6430   80.9970   58.5490 C   0  0  0  0  0  0  0  0  0  0  0  0
   40.5210   82.3500   58.2140 C   0  0  0  0  0  0  0  0  0  0  0  0
   40.1120   83.1930   59.2030 N   0  0  0  0  0  0  0  0  0  0  0  0
   39.8340   82.7750   60.4440 C   0  0  0  0  0  0  0  0  0  0  0  0
   39.9470   81.4860   60.7710 N   0  0  0  0  0  0  0  0  0  0  0  0
   40.5170   79.1930   60.0310 N   0  0  0  0  0  0  0  0  0  0  0  0
   40.9720   80.3320   57.7460 H   0  0  0  0  0  0  0  0  0  0  0  0
   40.7480   82.6730   57.2120 H   0  0  0  0  0  0  0  0  0  0  0  0
   41.4780   78.7540   60.0380 H   0  0  0  0  0  0  0  0  0  0  0  0
   39.5890   78.6860   60.1390 H   0  0  0  0  0  0  0  0  0  0  0  0
   39.4010   83.7550   61.4400 C   0  0  0  0  0  0  0  0  0  0  0  0
   39.5670   84.8150   61.2560 H   0  0  0  0  0  0  0  0  0  0  0  0
   38.8420   83.3780   62.5020 O   0  0  0  0  0  0  0  0  0  0  0  0
  1  7  1  0  0  0  0
  1  6  1  0  0  0  0
  2  1  2  0  0  0  0
  3  2  1  0  0  0  0
  3  4  2  0  0  0  0
  4  5  1  0  0  0  0
  5  6  2  0  0  0  0
  5 12  1  0  0  0  0
  7 10  1  0  0  0  0
  7 11  1  0  0  0  0
  8  2  1  0  0  0  0
  9  3  1  0  0  0  0
 12 14  2  0  0  0  0
 13 12  1  0  0  0  0
M  END
>  <minimizedAffinity>
-2.91382504

>  <minimizedRMSD>
2.0633328

$$$$
