
 OpenBabel03212520463D

 14 14  0  0  0  0  0  0  0  0999 V2000
   39.9110   81.9280   61.0720 C   0  0  0  0  0  0  0  0  0  0  0  0
   39.3140   83.0410   61.7060 C   0  0  0  0  0  0  0  0  0  0  0  0
   39.3190   84.2770   61.0520 C   0  0  0  0  0  0  0  0  0  0  0  0
   39.9100   84.3210   59.8250 N   0  0  0  0  0  0  0  0  0  0  0  0
   40.4670   83.2480   59.2500 C   0  0  0  0  0  0  0  0  0  0  0  0
   40.4680   82.0650   59.8670 N   0  0  0  0  0  0  0  0  0  0  0  0
   39.8170   80.7630   61.8700 N   0  0  0  0  0  0  0  0  0  0  0  0
   38.8360   83.0200   62.6890 H   0  0  0  0  0  0  0  0  0  0  0  0
   38.8670   85.1320   61.5250 H   0  0  0  0  0  0  0  0  0  0  0  0
   38.8940   80.2710   62.0250 H   0  0  0  0  0  0  0  0  0  0  0  0
   40.7600   80.4760   62.2670 H   0  0  0  0  0  0  0  0  0  0  0  0
   41.0800   83.3920   57.9280 C   0  0  0  0  0  0  0  0  0  0  0  0
   41.5030   84.3510   57.6360 H   0  0  0  0  0  0  0  0  0  0  0  0
   41.1160   82.4180   57.1350 O   0  0  0  0  0  0  0  0  0  0  0  0
  1  2  1  0  0  0  0
  1  7  1  0  0  0  0
  2  8  1  0  0  0  0
  3  9  1  0  0  0  0
  3  2  2  0  0  0  0
  4  3  1  0  0  0  0
  5  4  2  0  0  0  0
  5  6  1  0  0  0  0
  6  1  2  0  0  0  0
  7 10  1  0  0  0  0
  7 11  1  0  0  0  0
 12  5  1  0  0  0  0
 13 12  1  0  0  0  0
 14 12  2  0  0  0  0
M  END
>  <minimizedAffinity>
-3.20046926

>  <minimizedRMSD>
3.6652534

$$$$
