
 OpenBabel03212520463D

 14 14  0  0  0  0  0  0  0  0999 V2000
   42.3240   84.5200   58.5840 C   0  0  0  0  0  0  0  0  0  0  0  0
   41.5510   85.2000   59.5520 C   0  0  0  0  0  0  0  0  0  0  0  0
   40.3280   84.6520   59.9510 C   0  0  0  0  0  0  0  0  0  0  0  0
   39.9620   83.4760   59.3670 N   0  0  0  0  0  0  0  0  0  0  0  0
   40.7160   82.8550   58.4530 C   0  0  0  0  0  0  0  0  0  0  0  0
   41.8850   83.3720   58.0650 N   0  0  0  0  0  0  0  0  0  0  0  0
   43.5250   85.2110   58.2980 N   0  0  0  0  0  0  0  0  0  0  0  0
   41.8330   86.1430   60.0290 H   0  0  0  0  0  0  0  0  0  0  0  0
   39.7310   85.1610   60.6880 H   0  0  0  0  0  0  0  0  0  0  0  0
   44.3150   85.2610   58.9990 H   0  0  0  0  0  0  0  0  0  0  0  0
   43.5110   85.6480   57.3290 H   0  0  0  0  0  0  0  0  0  0  0  0
   40.2400   81.5950   57.8800 C   0  0  0  0  0  0  0  0  0  0  0  0
   40.1950   81.4840   56.7970 H   0  0  0  0  0  0  0  0  0  0  0  0
   39.8850   80.6500   58.6280 O   0  0  0  0  0  0  0  0  0  0  0  0
  1  2  1  0  0  0  0
  2  3  2  0  0  0  0
  2  8  1  0  0  0  0
  3  9  1  0  0  0  0
  4  3  1  0  0  0  0
  5  4  2  0  0  0  0
  6  5  1  0  0  0  0
  6  1  2  0  0  0  0
  7  1  1  0  0  0  0
  7 10  1  0  0  0  0
 11  7  1  0  0  0  0
 12  5  1  0  0  0  0
 12 14  2  0  0  0  0
 13 12  1  0  0  0  0
M  END
>  <minimizedAffinity>
-2.20950508

>  <minimizedRMSD>
4.51115561

$$$$
