
 OpenBabel03212520463D

 14 14  0  0  0  0  0  0  0  0999 V2000
   41.2810   83.2690   57.7260 C   0  0  0  0  0  0  0  0  0  0  0  0
   42.1350   84.3470   57.4000 C   0  0  0  0  0  0  0  0  0  0  0  0
   42.2460   85.4170   58.2940 C   0  0  0  0  0  0  0  0  0  0  0  0
   41.5100   85.3420   59.4380 N   0  0  0  0  0  0  0  0  0  0  0  0
   40.7110   84.3060   59.7190 C   0  0  0  0  0  0  0  0  0  0  0  0
   40.5970   83.2810   58.8720 N   0  0  0  0  0  0  0  0  0  0  0  0
   41.2870   82.2770   56.7160 N   0  0  0  0  0  0  0  0  0  0  0  0
   42.7310   84.4200   56.4870 H   0  0  0  0  0  0  0  0  0  0  0  0
   42.8930   86.2440   58.0560 H   0  0  0  0  0  0  0  0  0  0  0  0
   42.1280   81.6580   56.5550 H   0  0  0  0  0  0  0  0  0  0  0  0
   40.3720   82.2540   56.1770 H   0  0  0  0  0  0  0  0  0  0  0  0
   39.9580   84.3140   60.9740 C   0  0  0  0  0  0  0  0  0  0  0  0
   40.4900   84.1970   61.9180 H   0  0  0  0  0  0  0  0  0  0  0  0
   38.7080   84.4550   60.9660 O   0  0  0  0  0  0  0  0  0  0  0  0
  1  6  1  0  0  0  0
  2  1  2  0  0  0  0
  2  3  1  0  0  0  0
  3  4  2  0  0  0  0
  4  5  1  0  0  0  0
  5 12  1  0  0  0  0
  6  5  2  0  0  0  0
  7  1  1  0  0  0  0
  8  2  1  0  0  0  0
  9  3  1  0  0  0  0
 10  7  1  0  0  0  0
 11  7  1  0  0  0  0
 12 13  1  0  0  0  0
 14 12  2  0  0  0  0
M  END
>  <minimizedAffinity>
-2.91689301

>  <minimizedRMSD>
3.36896014

$$$$
