
 OpenBabel03212520463D

 14 14  0  0  0  0  0  0  0  0999 V2000
   40.1390   84.2940   60.6650 C   0  0  0  0  0  0  0  0  0  0  0  0
   41.4690   84.6000   60.3010 C   0  0  0  0  0  0  0  0  0  0  0  0
   42.4560   84.6220   61.2920 C   0  0  0  0  0  0  0  0  0  0  0  0
   42.0560   84.3400   62.5640 N   0  0  0  0  0  0  0  0  0  0  0  0
   40.7860   84.0520   62.8770 C   0  0  0  0  0  0  0  0  0  0  0  0
   39.8390   84.0300   61.9380 N   0  0  0  0  0  0  0  0  0  0  0  0
   39.2750   84.3160   59.5440 N   0  0  0  0  0  0  0  0  0  0  0  0
   41.8040   84.8280   59.2850 H   0  0  0  0  0  0  0  0  0  0  0  0
   43.4730   84.8540   61.0260 H   0  0  0  0  0  0  0  0  0  0  0  0
   39.3190   83.5700   58.7970 H   0  0  0  0  0  0  0  0  0  0  0  0
   38.6160   85.1500   59.5680 H   0  0  0  0  0  0  0  0  0  0  0  0
   40.4510   83.7620   64.2720 C   0  0  0  0  0  0  0  0  0  0  0  0
   39.6720   83.0330   64.4940 H   0  0  0  0  0  0  0  0  0  0  0  0
   41.0530   84.3480   65.2070 O   0  0  0  0  0  0  0  0  0  0  0  0
  1  6  1  0  0  0  0
  2  1  2  0  0  0  0
  2  3  1  0  0  0  0
  3  4  2  0  0  0  0
  4  5  1  0  0  0  0
  5 12  1  0  0  0  0
  6  5  2  0  0  0  0
  7 11  1  0  0  0  0
  7  1  1  0  0  0  0
  8  2  1  0  0  0  0
  9  3  1  0  0  0  0
 10  7  1  0  0  0  0
 12 13  1  0  0  0  0
 12 14  2  0  0  0  0
M  END
>  <minimizedAffinity>
-3.74888039

>  <minimizedRMSD>
2.78511834

$$$$
