
 OpenBabel03212520463D

 14 14  0  0  0  0  0  0  0  0999 V2000
   41.4680   83.3580   57.7210 C   0  0  0  0  0  0  0  0  0  0  0  0
   41.7420   84.5580   57.0270 C   0  0  0  0  0  0  0  0  0  0  0  0
   41.1950   85.7550   57.5010 C   0  0  0  0  0  0  0  0  0  0  0  0
   40.4210   85.6770   58.6200 N   0  0  0  0  0  0  0  0  0  0  0  0
   40.1800   84.5240   59.2550 C   0  0  0  0  0  0  0  0  0  0  0  0
   40.6980   83.3780   58.8100 N   0  0  0  0  0  0  0  0  0  0  0  0
   42.0970   82.2490   57.1090 N   0  0  0  0  0  0  0  0  0  0  0  0
   42.3610   84.6360   56.1290 H   0  0  0  0  0  0  0  0  0  0  0  0
   41.3970   86.6760   56.9800 H   0  0  0  0  0  0  0  0  0  0  0  0
   43.1460   82.1160   57.1470 H   0  0  0  0  0  0  0  0  0  0  0  0
   41.3970   81.6080   56.6310 H   0  0  0  0  0  0  0  0  0  0  0  0
   39.3360   84.5390   60.4500 C   0  0  0  0  0  0  0  0  0  0  0  0
   38.2650   84.7100   60.3470 H   0  0  0  0  0  0  0  0  0  0  0  0
   39.8380   84.3540   61.5870 O   0  0  0  0  0  0  0  0  0  0  0  0
  1  6  1  0  0  0  0
  2  3  1  0  0  0  0
  2  1  2  0  0  0  0
  3  4  2  0  0  0  0
  4  5  1  0  0  0  0
  5 12  1  0  0  0  0
  6  5  2  0  0  0  0
  7 10  1  0  0  0  0
  7  1  1  0  0  0  0
  8  2  1  0  0  0  0
  9  3  1  0  0  0  0
 11  7  1  0  0  0  0
 12 14  2  0  0  0  0
 13 12  1  0  0  0  0
M  END
>  <minimizedAffinity>
-2.61951947

>  <minimizedRMSD>
3.4022646

$$$$
