
 OpenBabel03212520293D

 22 23  0  0  0  0  0  0  0  0999 V2000
   40.5530   82.9400   61.2500 N   0  0  0  0  0  0  0  0  0  0  0  0
   41.4830   82.3860   62.0280 C   0  0  0  0  0  0  0  0  0  0  0  0
   41.4820   82.7290   63.3860 C   0  0  0  0  0  0  0  0  0  0  0  0
   40.5310   83.6170   63.8720 C   0  0  0  0  0  0  0  0  0  0  0  0
   40.4640   83.9760   65.0760 O   0  0  0  0  0  0  0  0  0  0  0  0
   39.6180   84.1350   63.0060 N   0  0  0  0  0  0  0  0  0  0  0  0
   39.6180   83.8040   61.6920 C   0  0  0  0  0  0  0  0  0  0  0  0
   38.7760   84.2800   60.8860 O   0  0  0  0  0  0  0  0  0  0  0  0
   42.2420   81.6900   61.6900 H   0  0  0  0  0  0  0  0  0  0  0  0
   42.2070   82.3180   64.0730 H   0  0  0  0  0  0  0  0  0  0  0  0
   38.9090   84.7990   63.3720 H   0  0  0  0  0  0  0  0  0  0  0  0
   41.3070   83.3450   58.9550 C   0  0  0  0  0  0  0  0  0  0  0  0
   40.6330   82.5320   59.8890 C   0  0  0  0  0  0  0  0  0  0  0  0
   40.0670   81.3460   59.4280 C   0  0  0  0  0  0  0  0  0  0  0  0
   40.1900   81.0350   58.1190 N   0  0  0  0  0  0  0  0  0  0  0  0
   40.8380   81.8240   57.2440 C   0  0  0  0  0  0  0  0  0  0  0  0
   41.3900   82.9730   57.6700 N   0  0  0  0  0  0  0  0  0  0  0  0
   41.7520   84.2670   59.2890 H   0  0  0  0  0  0  0  0  0  0  0  0
   39.5510   80.7040   60.1000 H   0  0  0  0  0  0  0  0  0  0  0  0
   40.9890   81.5160   55.8220 C   0  0  0  0  0  0  0  0  0  0  0  0
   41.9630   81.7940   55.3870 H   0  0  0  0  0  0  0  0  0  0  0  0
   40.0880   80.9770   55.1290 O   0  0  0  0  0  0  0  0  0  0  0  0
  1  7  1  0  0  0  0
  1  2  1  0  0  0  0
  2  3  2  0  0  0  0
  3  4  1  0  0  0  0
  3 10  1  0  0  0  0
  4  5  2  0  0  0  0
  6 11  1  0  0  0  0
  6  4  1  0  0  0  0
  7  6  1  0  0  0  0
  8  7  2  0  0  0  0
  9  2  1  0  0  0  0
 12 18  1  0  0  0  0
 12 13  1  0  0  0  0
 13  1  1  0  0  0  0
 14 13  2  0  0  0  0
 14 19  1  0  0  0  0
 15 14  1  0  0  0  0
 16 17  1  0  0  0  0
 16 15  2  0  0  0  0
 17 12  2  0  0  0  0
 20 16  1  0  0  0  0
 21 20  1  0  0  0  0
 22 20  2  0  0  0  0
M  END
>  <minimizedAffinity>
-5.47929811

>  <minimizedRMSD>
6.2936306

$$$$
