
 OpenBabel03212520113D

 22 23  0  0  0  0  0  0  0  0999 V2000
   40.0480   80.8430   58.7990 Cl  0  0  0  0  0  0  0  0  0  0  0  0
   40.8690   82.1170   57.9190 C   0  0  0  0  0  0  0  0  0  0  0  0
   41.2290   83.3460   58.4740 C   0  0  0  0  0  0  0  0  0  0  0  0
   41.8640   84.2170   57.6290 C   0  0  0  0  0  0  0  0  0  0  0  0
   42.1820   84.0150   56.3090 C   0  0  0  0  0  0  0  0  0  0  0  0
   41.8120   82.7890   55.7880 C   0  0  0  0  0  0  0  0  0  0  0  0
   42.1510   82.3770   54.1050 Cl  0  0  0  0  0  0  0  0  0  0  0  0
   41.1660   81.8630   56.5920 C   0  0  0  0  0  0  0  0  0  0  0  0
   42.1560   85.1860   58.0450 H   0  0  0  0  0  0  0  0  0  0  0  0
   42.6850   84.7510   55.7050 H   0  0  0  0  0  0  0  0  0  0  0  0
   40.8960   80.9080   56.1260 H   0  0  0  0  0  0  0  0  0  0  0  0
   39.6860   84.0130   60.3750 C   0  0  0  0  0  0  0  0  0  0  0  0
   40.9090   83.5780   59.8450 C   0  0  0  0  0  0  0  0  0  0  0  0
   41.9780   83.3310   60.7400 C   0  0  0  0  0  0  0  0  0  0  0  0
   41.7440   83.5320   62.0660 N   0  0  0  0  0  0  0  0  0  0  0  0
   40.5470   83.9520   62.5350 C   0  0  0  0  0  0  0  0  0  0  0  0
   39.5330   84.1890   61.7040 N   0  0  0  0  0  0  0  0  0  0  0  0
   38.9370   84.1740   59.6120 H   0  0  0  0  0  0  0  0  0  0  0  0
   42.9520   82.9990   60.4700 H   0  0  0  0  0  0  0  0  0  0  0  0
   40.4150   84.1330   63.9740 C   0  0  0  0  0  0  0  0  0  0  0  0
   40.2830   85.1040   64.4310 H   0  0  0  0  0  0  0  0  0  0  0  0
   40.4590   83.0980   64.7090 O   0  0  0  0  0  0  0  0  0  0  0  0
  2  3  1  0  0  0  0
  2  1  1  0  0  0  0
  3 13  1  0  0  0  0
  4  9  1  0  0  0  0
  4  3  2  0  0  0  0
  5  4  1  0  0  0  0
  6  5  2  0  0  0  0
  6  8  1  0  0  0  0
  7  6  1  0  0  0  0
  8  2  2  0  0  0  0
 10  5  1  0  0  0  0
 11  8  1  0  0  0  0
 12 17  1  0  0  0  0
 13 12  2  0  0  0  0
 13 14  1  0  0  0  0
 14 15  2  0  0  0  0
 15 16  1  0  0  0  0
 16 20  1  0  0  0  0
 17 16  2  0  0  0  0
 18 12  1  0  0  0  0
 19 14  1  0  0  0  0
 20 21  1  0  0  0  0
 20 22  2  0  0  0  0
M  END
>  <minimizedAffinity>
-4.40828753

>  <minimizedRMSD>
1.65288818

$$$$
