
 OpenBabel03212520513D

 29 31  0  0  1  0  0  0  0  0999 V2000
   41.7100   83.8280   61.4380 C   0  0  0  0  0  0  0  0  0  0  0  0
   41.1090   84.2120   62.6200 C   0  0  0  0  0  0  0  0  0  0  0  0
   40.6490   83.2550   63.5260 C   0  0  0  0  0  0  0  0  0  0  0  0
   40.7890   81.9410   63.2490 N   0  0  0  0  0  0  0  0  0  0  0  0
   41.3790   81.5980   62.0910 C   0  0  0  0  0  0  0  0  0  0  0  0
   41.8360   82.4960   61.1920 N   0  0  0  0  0  0  0  0  0  0  0  0
   40.9970   85.2670   62.8410 H   0  0  0  0  0  0  0  0  0  0  0  0
   40.1770   83.5220   64.4550 H   0  0  0  0  0  0  0  0  0  0  0  0
   43.6410   86.4990   59.8680 C   0  0  0  0  0  0  0  0  0  0  0  0
   43.0420   86.6060   58.6240 C   0  0  0  0  0  0  0  0  0  0  0  0
   41.9850   85.7810   58.3040 C   0  0  0  0  0  0  0  0  0  0  0  0
   41.6100   84.9010   59.2710 N   0  0  0  0  0  0  0  0  0  0  0  0
   42.1930   84.8030   60.4670 C   0  0  0  0  0  0  0  0  0  0  0  0
   43.2060   85.5950   60.7700 N   0  0  0  0  0  0  0  0  0  0  0  0
   44.7050   87.4340   60.0860 N   0  0  0  0  0  0  0  0  0  0  0  0
   43.3230   87.3000   57.8350 H   0  0  0  0  0  0  0  0  0  0  0  0
   41.4800   85.8190   57.3550 H   0  0  0  0  0  0  0  0  0  0  0  0
   45.7070   87.2430   60.3140 H   0  0  0  0  0  0  0  0  0  0  0  0
   44.4250   88.4560   60.0040 H   0  0  0  0  0  0  0  0  0  0  0  0
   41.5000   80.1260   61.8380 C   0  0  1  0  0  0  0  0  0  0  0  0
   40.6420   79.1700   62.5000 C   0  0  0  0  0  0  0  0  0  0  0  0
   40.2430   79.5760   61.1170 C   0  0  2  0  0  0  0  0  0  0  0  0
   42.4600   79.7750   61.3850 H   0  0  0  0  0  0  0  0  0  0  0  0
   40.9790   78.1370   62.6800 H   0  0  0  0  0  0  0  0  0  0  0  0
   39.9140   79.4960   63.2850 H   0  0  0  0  0  0  0  0  0  0  0  0
   39.3950   80.2360   60.9460 H   0  0  0  0  0  0  0  0  0  0  0  0
   40.4820   78.5650   60.0480 C   0  0  0  0  0  0  0  0  0  0  0  0
   41.4260   78.5970   59.4770 H   0  0  0  0  0  0  0  0  0  0  0  0
   39.6470   77.6950   59.7850 O   0  0  0  0  0  0  0  0  0  0  0  0
  1  2  1  0  0  0  0
  2  7  1  0  0  0  0
  2  3  2  0  0  0  0
  3  8  1  0  0  0  0
  4  3  1  0  0  0  0
  5  4  2  0  0  0  0
  6  1  2  0  0  0  0
  6  5  1  0  0  0  0
  9 15  1  0  0  0  0
  9 14  1  0  0  0  0
 10  9  2  0  0  0  0
 11 10  1  0  0  0  0
 11 12  2  0  0  0  0
 12 13  1  0  0  0  0
 13 14  2  0  0  0  0
 13  1  1  0  0  0  0
 15 18  1  0  0  0  0
 16 10  1  0  0  0  0
 17 11  1  0  0  0  0
 19 15  1  0  0  0  0
 20 23  1  6  0  0  0
 20  5  1  0  0  0  0
 20 21  1  0  0  0  0
 21 24  1  0  0  0  0
 21 25  1  0  0  0  0
 22 26  1  6  0  0  0
 22 20  1  0  0  0  0
 22 21  1  0  0  0  0
 27 22  1  0  0  0  0
 28 27  1  0  0  0  0
 29 27  2  0  0  0  0
M  END
>  <minimizedAffinity>
-4.96654892

>  <minimizedRMSD>
0.553932726

$$$$
