
 OpenBabel03212520513D

 29 31  0  0  1  0  0  0  0  0999 V2000
   41.7100   83.8320   61.4370 C   0  0  0  0  0  0  0  0  0  0  0  0
   41.1110   84.2180   62.6200 C   0  0  0  0  0  0  0  0  0  0  0  0
   40.6510   83.2620   63.5280 C   0  0  0  0  0  0  0  0  0  0  0  0
   40.7910   81.9470   63.2520 N   0  0  0  0  0  0  0  0  0  0  0  0
   41.3790   81.6030   62.0940 C   0  0  0  0  0  0  0  0  0  0  0  0
   41.8350   82.5000   61.1930 N   0  0  0  0  0  0  0  0  0  0  0  0
   41.0000   85.2730   62.8390 H   0  0  0  0  0  0  0  0  0  0  0  0
   40.1810   83.5310   64.4570 H   0  0  0  0  0  0  0  0  0  0  0  0
   43.6390   86.5010   59.8610 C   0  0  0  0  0  0  0  0  0  0  0  0
   43.0390   86.6060   58.6170 C   0  0  0  0  0  0  0  0  0  0  0  0
   41.9830   85.7780   58.2990 C   0  0  0  0  0  0  0  0  0  0  0  0
   41.6080   84.9000   59.2690 N   0  0  0  0  0  0  0  0  0  0  0  0
   42.1920   84.8050   60.4640 C   0  0  0  0  0  0  0  0  0  0  0  0
   43.2050   85.5990   60.7650 N   0  0  0  0  0  0  0  0  0  0  0  0
   44.7020   87.4370   60.0780 N   0  0  0  0  0  0  0  0  0  0  0  0
   43.3200   87.2980   57.8270 H   0  0  0  0  0  0  0  0  0  0  0  0
   41.4780   85.8140   57.3510 H   0  0  0  0  0  0  0  0  0  0  0  0
   45.7050   87.2480   60.3050 H   0  0  0  0  0  0  0  0  0  0  0  0
   44.4210   88.4590   59.9940 H   0  0  0  0  0  0  0  0  0  0  0  0
   41.4990   80.1310   61.8430 C   0  0  1  0  0  0  0  0  0  0  0  0
   40.6480   79.1750   62.5140 C   0  0  0  0  0  0  0  0  0  0  0  0
   40.2370   79.5780   61.1340 C   0  0  2  0  0  0  0  0  0  0  0  0
   42.4550   79.7800   61.3830 H   0  0  0  0  0  0  0  0  0  0  0  0
   40.9870   78.1430   62.6930 H   0  0  0  0  0  0  0  0  0  0  0  0
   39.9260   79.5020   63.3040 H   0  0  0  0  0  0  0  0  0  0  0  0
   39.3870   80.2370   60.9680 H   0  0  0  0  0  0  0  0  0  0  0  0
   40.4670   78.5650   60.0650 C   0  0  0  0  0  0  0  0  0  0  0  0
   41.3410   78.6740   59.3990 H   0  0  0  0  0  0  0  0  0  0  0  0
   39.7040   77.6090   59.9060 O   0  0  0  0  0  0  0  0  0  0  0  0
  1  2  1  0  0  0  0
  2  7  1  0  0  0  0
  2  3  2  0  0  0  0
  3  8  1  0  0  0  0
  4  3  1  0  0  0  0
  5  4  2  0  0  0  0
  6  1  2  0  0  0  0
  6  5  1  0  0  0  0
  9 15  1  0  0  0  0
  9 14  1  0  0  0  0
 10  9  2  0  0  0  0
 11 10  1  0  0  0  0
 11 12  2  0  0  0  0
 12 13  1  0  0  0  0
 13 14  2  0  0  0  0
 13  1  1  0  0  0  0
 15 18  1  0  0  0  0
 16 10  1  0  0  0  0
 17 11  1  0  0  0  0
 19 15  1  0  0  0  0
 20 23  1  6  0  0  0
 20  5  1  0  0  0  0
 20 21  1  0  0  0  0
 21 24  1  0  0  0  0
 21 25  1  0  0  0  0
 22 26  1  6  0  0  0
 22 20  1  0  0  0  0
 22 21  1  0  0  0  0
 27 22  1  0  0  0  0
 28 27  1  0  0  0  0
 29 27  2  0  0  0  0
M  END
>  <minimizedAffinity>
-4.95702553

>  <minimizedRMSD>
0.431692004

$$$$
