
 OpenBabel03212520233D

 12 12  0  0  0  0  0  0  0  0999 V2000
   40.0860   82.0540   60.5360 C   0  0  0  0  0  0  0  0  0  0  0  0
   40.1180   83.0880   59.5830 C   0  0  0  0  0  0  0  0  0  0  0  0
   39.5160   84.3020   59.9130 C   0  0  0  0  0  0  0  0  0  0  0  0
   38.9250   84.4240   61.1490 N   0  0  0  0  0  0  0  0  0  0  0  0
   38.9190   83.4060   62.0280 C   0  0  0  0  0  0  0  0  0  0  0  0
   39.4960   82.2220   61.7300 N   0  0  0  0  0  0  0  0  0  0  0  0
   40.5480   81.1170   60.2840 H   0  0  0  0  0  0  0  0  0  0  0  0
   40.6070   82.8980   58.6340 H   0  0  0  0  0  0  0  0  0  0  0  0
   38.4050   83.6980   62.9460 H   0  0  0  0  0  0  0  0  0  0  0  0
   39.5690   85.3400   58.9110 C   0  0  0  0  0  0  0  0  0  0  0  0
   40.2600   85.4700   58.1180 H   0  0  0  0  0  0  0  0  0  0  0  0
   38.7480   86.2920   58.8380 O   0  0  0  0  0  0  0  0  0  0  0  0
  1  6  1  0  0  0  0
  2  3  1  0  0  0  0
  2  1  2  0  0  0  0
  3  4  2  0  0  0  0
  4  5  1  0  0  0  0
  5  9  1  0  0  0  0
  6  5  2  0  0  0  0
  7  1  1  0  0  0  0
  8  2  1  0  0  0  0
 10  3  1  0  0  0  0
 11 10  1  0  0  0  0
 12 10  2  0  0  0  0
M  END
>  <minimizedAffinity>
-3.76689529

>  <minimizedRMSD>
0.4718647

$$$$
