
 OpenBabel03212520503D

 29 31  0  0  1  0  0  0  0  0999 V2000
   41.7090   83.8290   61.4360 C   0  0  0  0  0  0  0  0  0  0  0  0
   41.1090   84.2140   62.6180 C   0  0  0  0  0  0  0  0  0  0  0  0
   40.6500   83.2570   63.5250 C   0  0  0  0  0  0  0  0  0  0  0  0
   40.7900   81.9420   63.2480 N   0  0  0  0  0  0  0  0  0  0  0  0
   41.3790   81.5990   62.0900 C   0  0  0  0  0  0  0  0  0  0  0  0
   41.8350   82.4970   61.1900 N   0  0  0  0  0  0  0  0  0  0  0  0
   40.9980   85.2690   62.8380 H   0  0  0  0  0  0  0  0  0  0  0  0
   40.1780   83.5240   64.4550 H   0  0  0  0  0  0  0  0  0  0  0  0
   43.6390   86.5010   59.8640 C   0  0  0  0  0  0  0  0  0  0  0  0
   43.0390   86.6060   58.6190 C   0  0  0  0  0  0  0  0  0  0  0  0
   41.9830   85.7800   58.3000 C   0  0  0  0  0  0  0  0  0  0  0  0
   41.6080   84.9000   59.2680 N   0  0  0  0  0  0  0  0  0  0  0  0
   42.1920   84.8040   60.4640 C   0  0  0  0  0  0  0  0  0  0  0  0
   43.2040   85.5970   60.7660 N   0  0  0  0  0  0  0  0  0  0  0  0
   44.7020   87.4370   60.0820 N   0  0  0  0  0  0  0  0  0  0  0  0
   43.3200   87.3000   57.8310 H   0  0  0  0  0  0  0  0  0  0  0  0
   41.4780   85.8170   57.3520 H   0  0  0  0  0  0  0  0  0  0  0  0
   45.7040   87.2470   60.3090 H   0  0  0  0  0  0  0  0  0  0  0  0
   44.4210   88.4590   59.9990 H   0  0  0  0  0  0  0  0  0  0  0  0
   41.5000   80.1280   61.8370 C   0  0  1  0  0  0  0  0  0  0  0  0
   40.6420   79.1720   62.4990 C   0  0  0  0  0  0  0  0  0  0  0  0
   40.2440   79.5770   61.1160 C   0  0  2  0  0  0  0  0  0  0  0  0
   42.4600   79.7760   61.3850 H   0  0  0  0  0  0  0  0  0  0  0  0
   40.9790   78.1390   62.6800 H   0  0  0  0  0  0  0  0  0  0  0  0
   39.9130   79.4980   63.2840 H   0  0  0  0  0  0  0  0  0  0  0  0
   39.3960   80.2380   60.9440 H   0  0  0  0  0  0  0  0  0  0  0  0
   40.4830   78.5660   60.0470 C   0  0  0  0  0  0  0  0  0  0  0  0
   41.4270   78.5960   59.4780 H   0  0  0  0  0  0  0  0  0  0  0  0
   39.6480   77.6960   59.7850 O   0  0  0  0  0  0  0  0  0  0  0  0
  1  2  1  0  0  0  0
  2  7  1  0  0  0  0
  2  3  2  0  0  0  0
  3  8  1  0  0  0  0
  4  3  1  0  0  0  0
  5  4  2  0  0  0  0
  6  1  2  0  0  0  0
  6  5  1  0  0  0  0
  9 15  1  0  0  0  0
  9 14  1  0  0  0  0
 10  9  2  0  0  0  0
 11 10  1  0  0  0  0
 11 12  2  0  0  0  0
 12 13  1  0  0  0  0
 13 14  2  0  0  0  0
 13  1  1  0  0  0  0
 15 18  1  0  0  0  0
 16 10  1  0  0  0  0
 17 11  1  0  0  0  0
 19 15  1  0  0  0  0
 20 23  1  6  0  0  0
 20  5  1  0  0  0  0
 20 21  1  0  0  0  0
 21 24  1  0  0  0  0
 21 25  1  0  0  0  0
 22 26  1  6  0  0  0
 22 20  1  0  0  0  0
 22 21  1  0  0  0  0
 27 22  1  0  0  0  0
 28 27  1  0  0  0  0
 29 27  2  0  0  0  0
M  END
>  <minimizedAffinity>
-4.96699762

>  <minimizedRMSD>
0.305166274

$$$$
