
 OpenBabel03212520513D

 29 31  0  0  1  0  0  0  0  0999 V2000
   41.7100   83.8320   61.4370 C   0  0  0  0  0  0  0  0  0  0  0  0
   41.1110   84.2190   62.6200 C   0  0  0  0  0  0  0  0  0  0  0  0
   40.6520   83.2630   63.5280 C   0  0  0  0  0  0  0  0  0  0  0  0
   40.7910   81.9480   63.2520 N   0  0  0  0  0  0  0  0  0  0  0  0
   41.3790   81.6030   62.0950 C   0  0  0  0  0  0  0  0  0  0  0  0
   41.8350   82.5000   61.1930 N   0  0  0  0  0  0  0  0  0  0  0  0
   41.0010   85.2740   62.8390 H   0  0  0  0  0  0  0  0  0  0  0  0
   40.1820   83.5310   64.4580 H   0  0  0  0  0  0  0  0  0  0  0  0
   43.6390   86.5020   59.8610 C   0  0  0  0  0  0  0  0  0  0  0  0
   43.0390   86.6060   58.6170 C   0  0  0  0  0  0  0  0  0  0  0  0
   41.9830   85.7780   58.2990 C   0  0  0  0  0  0  0  0  0  0  0  0
   41.6090   84.9000   59.2690 N   0  0  0  0  0  0  0  0  0  0  0  0
   42.1930   84.8060   60.4640 C   0  0  0  0  0  0  0  0  0  0  0  0
   43.2050   85.5990   60.7650 N   0  0  0  0  0  0  0  0  0  0  0  0
   44.7020   87.4380   60.0770 N   0  0  0  0  0  0  0  0  0  0  0  0
   43.3200   87.2980   57.8270 H   0  0  0  0  0  0  0  0  0  0  0  0
   41.4780   85.8140   57.3510 H   0  0  0  0  0  0  0  0  0  0  0  0
   45.7050   87.2480   60.3050 H   0  0  0  0  0  0  0  0  0  0  0  0
   44.4210   88.4600   59.9930 H   0  0  0  0  0  0  0  0  0  0  0  0
   41.4990   80.1310   61.8430 C   0  0  1  0  0  0  0  0  0  0  0  0
   40.6470   79.1760   62.5140 C   0  0  0  0  0  0  0  0  0  0  0  0
   40.2370   79.5790   61.1340 C   0  0  2  0  0  0  0  0  0  0  0  0
   42.4550   79.7800   61.3830 H   0  0  0  0  0  0  0  0  0  0  0  0
   40.9860   78.1430   62.6930 H   0  0  0  0  0  0  0  0  0  0  0  0
   39.9250   79.5030   63.3040 H   0  0  0  0  0  0  0  0  0  0  0  0
   39.3870   80.2380   60.9680 H   0  0  0  0  0  0  0  0  0  0  0  0
   40.4670   78.5660   60.0650 C   0  0  0  0  0  0  0  0  0  0  0  0
   41.3390   78.6760   59.3960 H   0  0  0  0  0  0  0  0  0  0  0  0
   39.7040   77.6080   59.9080 O   0  0  0  0  0  0  0  0  0  0  0  0
  1  2  1  0  0  0  0
  2  7  1  0  0  0  0
  2  3  2  0  0  0  0
  3  8  1  0  0  0  0
  4  3  1  0  0  0  0
  5  4  2  0  0  0  0
  6  1  2  0  0  0  0
  6  5  1  0  0  0  0
  9 15  1  0  0  0  0
  9 14  1  0  0  0  0
 10  9  2  0  0  0  0
 11 10  1  0  0  0  0
 11 12  2  0  0  0  0
 12 13  1  0  0  0  0
 13 14  2  0  0  0  0
 13  1  1  0  0  0  0
 15 18  1  0  0  0  0
 16 10  1  0  0  0  0
 17 11  1  0  0  0  0
 19 15  1  0  0  0  0
 20 23  1  6  0  0  0
 20  5  1  0  0  0  0
 20 21  1  0  0  0  0
 21 24  1  0  0  0  0
 21 25  1  0  0  0  0
 22 26  1  6  0  0  0
 22 20  1  0  0  0  0
 22 21  1  0  0  0  0
 27 22  1  0  0  0  0
 28 27  1  0  0  0  0
 29 27  2  0  0  0  0
M  END
>  <minimizedAffinity>
-4.95689392

>  <minimizedRMSD>
0.279348552

$$$$
