
 OpenBabel03212520373D

 20 21  0  0  1  0  0  0  0  0999 V2000
   42.7990   84.4580   60.7800 O   0  0  0  0  0  0  0  0  0  0  0  0
   40.0460   83.5440   62.9400 C   0  0  0  0  0  0  0  0  0  0  0  0
   40.5640   83.8050   64.2130 C   0  0  0  0  0  0  0  0  0  0  0  0
   41.8940   84.3060   64.2850 C   0  0  0  0  0  0  0  0  0  0  0  0
   42.5380   84.4840   63.1090 N   0  0  0  0  0  0  0  0  0  0  0  0
   42.0180   84.2260   61.8980 C   0  0  0  0  0  0  0  0  0  0  0  0
   40.7500   83.7460   61.8040 N   0  0  0  0  0  0  0  0  0  0  0  0
   39.0390   83.1620   62.8600 H   0  0  0  0  0  0  0  0  0  0  0  0
   39.9880   83.6370   65.1130 H   0  0  0  0  0  0  0  0  0  0  0  0
   42.3410   84.5250   65.2320 H   0  0  0  0  0  0  0  0  0  0  0  0
   42.4160   85.3990   59.7890 C   0  0  1  0  0  0  0  0  0  0  0  0
   43.4430   86.4970   59.5890 C   0  0  0  0  0  0  0  0  0  0  0  0
   43.1930   85.4270   58.5280 C   0  0  1  0  0  0  0  0  0  0  0  0
   41.3630   85.7550   59.8690 H   0  0  0  0  0  0  0  0  0  0  0  0
   43.0630   87.5160   59.3330 H   0  0  0  0  0  0  0  0  0  0  0  0
   44.4410   86.3740   60.0610 H   0  0  0  0  0  0  0  0  0  0  0  0
   42.5910   85.7420   57.6250 H   0  0  0  0  0  0  0  0  0  0  0  0
   44.2050   84.3710   58.3060 C   0  0  0  0  0  0  0  0  0  0  0  0
   44.5010   83.8470   59.2190 H   0  0  0  0  0  0  0  0  0  0  0  0
   44.6440   84.1390   57.1920 O   0  0  0  0  0  0  0  0  0  0  0  0
  1  6  1  0  0  0  0
  2  3  1  0  0  0  0
  3  4  2  0  0  0  0
  3  9  1  0  0  0  0
  4 10  1  0  0  0  0
  5  4  1  0  0  0  0
  6  5  2  0  0  0  0
  7  6  1  0  0  0  0
  7  2  2  0  0  0  0
  8  2  1  0  0  0  0
 11 14  1  6  0  0  0
 11  1  1  0  0  0  0
 12 11  1  0  0  0  0
 12 16  1  0  0  0  0
 13 17  1  6  0  0  0
 13 12  1  0  0  0  0
 13 11  1  0  0  0  0
 15 12  1  0  0  0  0
 18 13  1  0  0  0  0
 18 19  1  0  0  0  0
 20 18  2  0  0  0  0
M  END
>  <minimizedAffinity>
-3.32726026

>  <minimizedRMSD>
0.41878143

$$$$
