
 OpenBabel03212520333D

 28 30  0  0  0  0  0  0  0  0999 V2000
   41.0980   82.8740   58.5650 C   0  0  0  0  0  0  0  0  0  0  0  0
   41.8530   83.8830   57.9540 C   0  0  0  0  0  0  0  0  0  0  0  0
   42.2160   83.8700   56.6290 C   0  0  0  0  0  0  0  0  0  0  0  0
   41.8250   82.8140   55.8340 C   0  0  0  0  0  0  0  0  0  0  0  0
   41.0850   81.8130   56.4110 C   0  0  0  0  0  0  0  0  0  0  0  0
   40.6400   80.7080   55.7130 C   0  0  0  0  0  0  0  0  0  0  0  0
   39.8950   79.7090   56.3120 C   0  0  0  0  0  0  0  0  0  0  0  0
   39.5530   79.7620   57.6500 C   0  0  0  0  0  0  0  0  0  0  0  0
   39.9830   80.8560   58.3770 C   0  0  0  0  0  0  0  0  0  0  0  0
   40.7180   81.8230   57.7480 C   0  0  0  0  0  0  0  0  0  0  0  0
   42.1990   84.7450   58.5080 H   0  0  0  0  0  0  0  0  0  0  0  0
   42.7980   84.6560   56.1780 H   0  0  0  0  0  0  0  0  0  0  0  0
   42.0530   82.7010   54.7840 H   0  0  0  0  0  0  0  0  0  0  0  0
   40.8880   80.6300   54.6580 H   0  0  0  0  0  0  0  0  0  0  0  0
   39.5440   78.8420   55.7720 H   0  0  0  0  0  0  0  0  0  0  0  0
   38.9700   78.9710   58.1010 H   0  0  0  0  0  0  0  0  0  0  0  0
   39.7130   80.9000   59.4220 H   0  0  0  0  0  0  0  0  0  0  0  0
   39.8230   82.5560   60.7950 C   0  0  0  0  0  0  0  0  0  0  0  0
   40.8200   83.0890   59.9830 C   0  0  0  0  0  0  0  0  0  0  0  0
   41.7410   83.9970   60.5710 C   0  0  0  0  0  0  0  0  0  0  0  0
   41.5970   84.2940   61.8890 N   0  0  0  0  0  0  0  0  0  0  0  0
   40.6060   83.7470   62.6410 C   0  0  0  0  0  0  0  0  0  0  0  0
   39.7480   82.8990   62.0850 N   0  0  0  0  0  0  0  0  0  0  0  0
   39.1850   81.8830   60.2630 H   0  0  0  0  0  0  0  0  0  0  0  0
   42.5620   84.4860   60.0670 H   0  0  0  0  0  0  0  0  0  0  0  0
   40.4350   84.0540   64.0580 C   0  0  0  0  0  0  0  0  0  0  0  0
   40.3330   85.0450   64.4790 H   0  0  0  0  0  0  0  0  0  0  0  0
   40.3880   83.1600   64.9470 O   0  0  0  0  0  0  0  0  0  0  0  0
  1 19  1  0  0  0  0
  2 11  1  0  0  0  0
  2  1  1  0  0  0  0
  3  2  2  0  0  0  0
  4  5  2  0  0  0  0
  4  3  1  0  0  0  0
  5 10  1  0  0  0  0
  6  7  2  0  0  0  0
  6  5  1  0  0  0  0
  7  8  1  0  0  0  0
  8 16  1  0  0  0  0
  8  9  2  0  0  0  0
  9 17  1  0  0  0  0
 10  9  1  0  0  0  0
 10  1  2  0  0  0  0
 12  3  1  0  0  0  0
 13  4  1  0  0  0  0
 14  6  1  0  0  0  0
 15  7  1  0  0  0  0
 18 23  1  0  0  0  0
 19 20  1  0  0  0  0
 19 18  2  0  0  0  0
 20 21  2  0  0  0  0
 21 22  1  0  0  0  0
 22 26  1  0  0  0  0
 23 22  2  0  0  0  0
 24 18  1  0  0  0  0
 25 20  1  0  0  0  0
 26 27  1  0  0  0  0
 26 28  2  0  0  0  0
M  END
>  <minimizedAffinity>
-5.05195141

>  <minimizedRMSD>
1.29805017

$$$$
