
 OpenBabel03212520513D

 29 31  0  0  1  0  0  0  0  0999 V2000
   41.6740   83.8350   61.3900 C   0  0  0  0  0  0  0  0  0  0  0  0
   41.0980   84.2300   62.5810 C   0  0  0  0  0  0  0  0  0  0  0  0
   40.6660   83.2810   63.5090 C   0  0  0  0  0  0  0  0  0  0  0  0
   40.8090   81.9640   63.2450 N   0  0  0  0  0  0  0  0  0  0  0  0
   41.3740   81.6110   62.0780 C   0  0  0  0  0  0  0  0  0  0  0  0
   41.8030   82.5020   61.1580 N   0  0  0  0  0  0  0  0  0  0  0  0
   40.9850   85.2870   62.7920 H   0  0  0  0  0  0  0  0  0  0  0  0
   40.2140   83.5560   64.4460 H   0  0  0  0  0  0  0  0  0  0  0  0
   43.6030   86.4400   59.7090 C   0  0  0  0  0  0  0  0  0  0  0  0
   42.9180   86.5920   58.5150 C   0  0  0  0  0  0  0  0  0  0  0  0
   41.8050   85.8190   58.2660 C   0  0  0  0  0  0  0  0  0  0  0  0
   41.4620   84.9420   59.2490 N   0  0  0  0  0  0  0  0  0  0  0  0
   42.1280   84.8020   60.3970 C   0  0  0  0  0  0  0  0  0  0  0  0
   43.1960   85.5440   60.6320 N   0  0  0  0  0  0  0  0  0  0  0  0
   44.7220   87.3240   59.8580 N   0  0  0  0  0  0  0  0  0  0  0  0
   43.1720   87.2840   57.7150 H   0  0  0  0  0  0  0  0  0  0  0  0
   41.2330   85.8930   57.3580 H   0  0  0  0  0  0  0  0  0  0  0  0
   45.7280   87.0850   60.0080 H   0  0  0  0  0  0  0  0  0  0  0  0
   44.4830   88.3590   59.8080 H   0  0  0  0  0  0  0  0  0  0  0  0
   41.5000   80.1380   61.8390 C   0  0  1  0  0  0  0  0  0  0  0  0
   40.6410   79.1860   62.5080 C   0  0  0  0  0  0  0  0  0  0  0  0
   40.2470   79.5770   61.1200 C   0  0  2  0  0  0  0  0  0  0  0  0
   42.4610   79.7840   61.3940 H   0  0  0  0  0  0  0  0  0  0  0  0
   40.9800   78.1560   62.6990 H   0  0  0  0  0  0  0  0  0  0  0  0
   39.9100   79.5180   63.2870 H   0  0  0  0  0  0  0  0  0  0  0  0
   39.3970   80.2340   60.9390 H   0  0  0  0  0  0  0  0  0  0  0  0
   40.4910   78.5570   60.0610 C   0  0  0  0  0  0  0  0  0  0  0  0
   41.4470   78.5710   59.5090 H   0  0  0  0  0  0  0  0  0  0  0  0
   39.6490   77.6960   59.7880 O   0  0  0  0  0  0  0  0  0  0  0  0
  1  2  1  0  0  0  0
  2  7  1  0  0  0  0
  2  3  2  0  0  0  0
  3  8  1  0  0  0  0
  4  3  1  0  0  0  0
  5  4  2  0  0  0  0
  6  1  2  0  0  0  0
  6  5  1  0  0  0  0
  9 15  1  0  0  0  0
  9 14  1  0  0  0  0
 10  9  2  0  0  0  0
 11 10  1  0  0  0  0
 11 12  2  0  0  0  0
 12 13  1  0  0  0  0
 13 14  2  0  0  0  0
 13  1  1  0  0  0  0
 15 18  1  0  0  0  0
 16 10  1  0  0  0  0
 17 11  1  0  0  0  0
 19 15  1  0  0  0  0
 20 23  1  6  0  0  0
 20  5  1  0  0  0  0
 20 21  1  0  0  0  0
 21 24  1  0  0  0  0
 21 25  1  0  0  0  0
 22 26  1  6  0  0  0
 22 20  1  0  0  0  0
 22 21  1  0  0  0  0
 27 22  1  0  0  0  0
 28 27  1  0  0  0  0
 29 27  2  0  0  0  0
M  END
>  <minimizedAffinity>
-4.96591949

>  <minimizedRMSD>
0.33994934

$$$$
