
 OpenBabel03212520513D

 29 31  0  0  1  0  0  0  0  0999 V2000
   41.7090   83.8280   61.4370 C   0  0  0  0  0  0  0  0  0  0  0  0
   41.1100   84.2130   62.6200 C   0  0  0  0  0  0  0  0  0  0  0  0
   40.6500   83.2560   63.5270 C   0  0  0  0  0  0  0  0  0  0  0  0
   40.7900   81.9410   63.2490 N   0  0  0  0  0  0  0  0  0  0  0  0
   41.3790   81.5980   62.0920 C   0  0  0  0  0  0  0  0  0  0  0  0
   41.8350   82.4960   61.1920 N   0  0  0  0  0  0  0  0  0  0  0  0
   40.9980   85.2680   62.8400 H   0  0  0  0  0  0  0  0  0  0  0  0
   40.1790   83.5230   64.4560 H   0  0  0  0  0  0  0  0  0  0  0  0
   43.6400   86.4990   59.8650 C   0  0  0  0  0  0  0  0  0  0  0  0
   43.0390   86.6060   58.6220 C   0  0  0  0  0  0  0  0  0  0  0  0
   41.9830   85.7800   58.3030 C   0  0  0  0  0  0  0  0  0  0  0  0
   41.6080   84.9000   59.2700 N   0  0  0  0  0  0  0  0  0  0  0  0
   42.1920   84.8030   60.4660 C   0  0  0  0  0  0  0  0  0  0  0  0
   43.2050   85.5960   60.7680 N   0  0  0  0  0  0  0  0  0  0  0  0
   44.7030   87.4350   60.0830 N   0  0  0  0  0  0  0  0  0  0  0  0
   43.3210   87.3000   57.8330 H   0  0  0  0  0  0  0  0  0  0  0  0
   41.4780   85.8170   57.3540 H   0  0  0  0  0  0  0  0  0  0  0  0
   45.7050   87.2440   60.3100 H   0  0  0  0  0  0  0  0  0  0  0  0
   44.4230   88.4570   60.0010 H   0  0  0  0  0  0  0  0  0  0  0  0
   41.5000   80.1270   61.8380 C   0  0  1  0  0  0  0  0  0  0  0  0
   40.6410   79.1710   62.5000 C   0  0  0  0  0  0  0  0  0  0  0  0
   40.2440   79.5770   61.1170 C   0  0  2  0  0  0  0  0  0  0  0  0
   42.4600   79.7750   61.3870 H   0  0  0  0  0  0  0  0  0  0  0  0
   40.9770   78.1380   62.6800 H   0  0  0  0  0  0  0  0  0  0  0  0
   39.9120   79.4970   63.2840 H   0  0  0  0  0  0  0  0  0  0  0  0
   39.3960   80.2380   60.9440 H   0  0  0  0  0  0  0  0  0  0  0  0
   40.4830   78.5660   60.0480 C   0  0  0  0  0  0  0  0  0  0  0  0
   41.4280   78.5970   59.4780 H   0  0  0  0  0  0  0  0  0  0  0  0
   39.6480   77.6960   59.7840 O   0  0  0  0  0  0  0  0  0  0  0  0
  1  2  1  0  0  0  0
  2  7  1  0  0  0  0
  2  3  2  0  0  0  0
  3  8  1  0  0  0  0
  4  3  1  0  0  0  0
  5  4  2  0  0  0  0
  6  1  2  0  0  0  0
  6  5  1  0  0  0  0
  9 15  1  0  0  0  0
  9 14  1  0  0  0  0
 10  9  2  0  0  0  0
 11 10  1  0  0  0  0
 11 12  2  0  0  0  0
 12 13  1  0  0  0  0
 13 14  2  0  0  0  0
 13  1  1  0  0  0  0
 15 18  1  0  0  0  0
 16 10  1  0  0  0  0
 17 11  1  0  0  0  0
 19 15  1  0  0  0  0
 20 23  1  6  0  0  0
 20  5  1  0  0  0  0
 20 21  1  0  0  0  0
 21 24  1  0  0  0  0
 21 25  1  0  0  0  0
 22 26  1  6  0  0  0
 22 20  1  0  0  0  0
 22 21  1  0  0  0  0
 27 22  1  0  0  0  0
 28 27  1  0  0  0  0
 29 27  2  0  0  0  0
M  END
>  <minimizedAffinity>
-4.96642733

>  <minimizedRMSD>
0.557969511

$$$$
