
 OpenBabel03212520513D

 29 31  0  0  1  0  0  0  0  0999 V2000
   41.7090   83.8310   61.4380 C   0  0  0  0  0  0  0  0  0  0  0  0
   41.1100   84.2180   62.6200 C   0  0  0  0  0  0  0  0  0  0  0  0
   40.6510   83.2620   63.5280 C   0  0  0  0  0  0  0  0  0  0  0  0
   40.7900   81.9470   63.2530 N   0  0  0  0  0  0  0  0  0  0  0  0
   41.3780   81.6020   62.0950 C   0  0  0  0  0  0  0  0  0  0  0  0
   41.8340   82.4990   61.1940 N   0  0  0  0  0  0  0  0  0  0  0  0
   40.9990   85.2730   62.8400 H   0  0  0  0  0  0  0  0  0  0  0  0
   40.1800   83.5300   64.4580 H   0  0  0  0  0  0  0  0  0  0  0  0
   43.6390   86.5010   59.8620 C   0  0  0  0  0  0  0  0  0  0  0  0
   43.0390   86.6050   58.6180 C   0  0  0  0  0  0  0  0  0  0  0  0
   41.9830   85.7780   58.3000 C   0  0  0  0  0  0  0  0  0  0  0  0
   41.6080   84.9000   59.2700 N   0  0  0  0  0  0  0  0  0  0  0  0
   42.1920   84.8050   60.4650 C   0  0  0  0  0  0  0  0  0  0  0  0
   43.2050   85.5980   60.7660 N   0  0  0  0  0  0  0  0  0  0  0  0
   44.7020   87.4360   60.0780 N   0  0  0  0  0  0  0  0  0  0  0  0
   43.3200   87.2980   57.8280 H   0  0  0  0  0  0  0  0  0  0  0  0
   41.4770   85.8150   57.3520 H   0  0  0  0  0  0  0  0  0  0  0  0
   45.7050   87.2460   60.3060 H   0  0  0  0  0  0  0  0  0  0  0  0
   44.4220   88.4580   59.9950 H   0  0  0  0  0  0  0  0  0  0  0  0
   41.4990   80.1310   61.8430 C   0  0  1  0  0  0  0  0  0  0  0  0
   40.6460   79.1750   62.5140 C   0  0  0  0  0  0  0  0  0  0  0  0
   40.2370   79.5780   61.1340 C   0  0  2  0  0  0  0  0  0  0  0  0
   42.4550   79.7790   61.3840 H   0  0  0  0  0  0  0  0  0  0  0  0
   40.9850   78.1430   62.6940 H   0  0  0  0  0  0  0  0  0  0  0  0
   39.9240   79.5020   63.3040 H   0  0  0  0  0  0  0  0  0  0  0  0
   39.3870   80.2380   60.9670 H   0  0  0  0  0  0  0  0  0  0  0  0
   40.4680   78.5660   60.0640 C   0  0  0  0  0  0  0  0  0  0  0  0
   41.3430   78.6740   59.3990 H   0  0  0  0  0  0  0  0  0  0  0  0
   39.7040   77.6100   59.9040 O   0  0  0  0  0  0  0  0  0  0  0  0
  1  2  1  0  0  0  0
  2  7  1  0  0  0  0
  2  3  2  0  0  0  0
  3  8  1  0  0  0  0
  4  3  1  0  0  0  0
  5  4  2  0  0  0  0
  6  1  2  0  0  0  0
  6  5  1  0  0  0  0
  9 15  1  0  0  0  0
  9 14  1  0  0  0  0
 10  9  2  0  0  0  0
 11 10  1  0  0  0  0
 11 12  2  0  0  0  0
 12 13  1  0  0  0  0
 13 14  2  0  0  0  0
 13  1  1  0  0  0  0
 15 18  1  0  0  0  0
 16 10  1  0  0  0  0
 17 11  1  0  0  0  0
 19 15  1  0  0  0  0
 20 23  1  6  0  0  0
 20  5  1  0  0  0  0
 20 21  1  0  0  0  0
 21 24  1  0  0  0  0
 21 25  1  0  0  0  0
 22 26  1  6  0  0  0
 22 20  1  0  0  0  0
 22 21  1  0  0  0  0
 27 22  1  0  0  0  0
 28 27  1  0  0  0  0
 29 27  2  0  0  0  0
M  END
>  <minimizedAffinity>
-4.95976162

>  <minimizedRMSD>
0.384901792

$$$$
