
 OpenBabel03212520513D

 29 31  0  0  1  0  0  0  0  0999 V2000
   41.7100   83.8290   61.4360 C   0  0  0  0  0  0  0  0  0  0  0  0
   41.1100   84.2140   62.6180 C   0  0  0  0  0  0  0  0  0  0  0  0
   40.6500   83.2570   63.5250 C   0  0  0  0  0  0  0  0  0  0  0  0
   40.7900   81.9420   63.2480 N   0  0  0  0  0  0  0  0  0  0  0  0
   41.3800   81.5990   62.0900 C   0  0  0  0  0  0  0  0  0  0  0  0
   41.8360   82.4980   61.1900 N   0  0  0  0  0  0  0  0  0  0  0  0
   40.9990   85.2690   62.8390 H   0  0  0  0  0  0  0  0  0  0  0  0
   40.1790   83.5240   64.4540 H   0  0  0  0  0  0  0  0  0  0  0  0
   43.6410   86.5010   59.8640 C   0  0  0  0  0  0  0  0  0  0  0  0
   43.0410   86.6070   58.6210 C   0  0  0  0  0  0  0  0  0  0  0  0
   41.9850   85.7810   58.3010 C   0  0  0  0  0  0  0  0  0  0  0  0
   41.6100   84.9010   59.2690 N   0  0  0  0  0  0  0  0  0  0  0  0
   42.1940   84.8040   60.4650 C   0  0  0  0  0  0  0  0  0  0  0  0
   43.2060   85.5970   60.7670 N   0  0  0  0  0  0  0  0  0  0  0  0
   44.7040   87.4360   60.0830 N   0  0  0  0  0  0  0  0  0  0  0  0
   43.3220   87.3010   57.8320 H   0  0  0  0  0  0  0  0  0  0  0  0
   41.4790   85.8190   57.3530 H   0  0  0  0  0  0  0  0  0  0  0  0
   45.7070   87.2450   60.3100 H   0  0  0  0  0  0  0  0  0  0  0  0
   44.4240   88.4580   60.0000 H   0  0  0  0  0  0  0  0  0  0  0  0
   41.5010   80.1280   61.8360 C   0  0  1  0  0  0  0  0  0  0  0  0
   40.6430   79.1720   62.4990 C   0  0  0  0  0  0  0  0  0  0  0  0
   40.2440   79.5780   61.1160 C   0  0  2  0  0  0  0  0  0  0  0  0
   42.4600   79.7770   61.3840 H   0  0  0  0  0  0  0  0  0  0  0  0
   40.9800   78.1390   62.6790 H   0  0  0  0  0  0  0  0  0  0  0  0
   39.9150   79.4980   63.2840 H   0  0  0  0  0  0  0  0  0  0  0  0
   39.3960   80.2380   60.9450 H   0  0  0  0  0  0  0  0  0  0  0  0
   40.4820   78.5670   60.0470 C   0  0  0  0  0  0  0  0  0  0  0  0
   41.4270   78.5990   59.4750 H   0  0  0  0  0  0  0  0  0  0  0  0
   39.6480   77.6960   59.7850 O   0  0  0  0  0  0  0  0  0  0  0  0
  1  2  1  0  0  0  0
  2  7  1  0  0  0  0
  2  3  2  0  0  0  0
  3  8  1  0  0  0  0
  4  3  1  0  0  0  0
  5  4  2  0  0  0  0
  6  1  2  0  0  0  0
  6  5  1  0  0  0  0
  9 15  1  0  0  0  0
  9 14  1  0  0  0  0
 10  9  2  0  0  0  0
 11 10  1  0  0  0  0
 11 12  2  0  0  0  0
 12 13  1  0  0  0  0
 13 14  2  0  0  0  0
 13  1  1  0  0  0  0
 15 18  1  0  0  0  0
 16 10  1  0  0  0  0
 17 11  1  0  0  0  0
 19 15  1  0  0  0  0
 20 23  1  6  0  0  0
 20  5  1  0  0  0  0
 20 21  1  0  0  0  0
 21 24  1  0  0  0  0
 21 25  1  0  0  0  0
 22 26  1  6  0  0  0
 22 20  1  0  0  0  0
 22 21  1  0  0  0  0
 27 22  1  0  0  0  0
 28 27  1  0  0  0  0
 29 27  2  0  0  0  0
M  END
>  <minimizedAffinity>
-4.96720743

>  <minimizedRMSD>
0.488130331

$$$$
