
 OpenBabel03212520513D

 29 31  0  0  1  0  0  0  0  0999 V2000
   41.9540   83.8960   61.7700 C   0  0  0  0  0  0  0  0  0  0  0  0
   41.2410   84.2230   62.9060 C   0  0  0  0  0  0  0  0  0  0  0  0
   40.6350   83.2260   63.6740 C   0  0  0  0  0  0  0  0  0  0  0  0
   40.7430   81.9310   63.3060 N   0  0  0  0  0  0  0  0  0  0  0  0
   41.4450   81.6450   62.1970 C   0  0  0  0  0  0  0  0  0  0  0  0
   42.0440   82.5820   61.4310 N   0  0  0  0  0  0  0  0  0  0  0  0
   41.1550   85.2620   63.1990 H   0  0  0  0  0  0  0  0  0  0  0  0
   40.0720   83.4480   64.5640 H   0  0  0  0  0  0  0  0  0  0  0  0
   43.9250   86.7870   60.7250 C   0  0  0  0  0  0  0  0  0  0  0  0
   43.7430   86.7890   59.3520 C   0  0  0  0  0  0  0  0  0  0  0  0
   42.9590   85.8170   58.7680 C   0  0  0  0  0  0  0  0  0  0  0  0
   42.4110   84.9090   59.6200 N   0  0  0  0  0  0  0  0  0  0  0  0
   42.5920   84.9140   60.9420 C   0  0  0  0  0  0  0  0  0  0  0  0
   43.3460   85.8460   61.4980 N   0  0  0  0  0  0  0  0  0  0  0  0
   44.7350   87.8660   61.2090 N   0  0  0  0  0  0  0  0  0  0  0  0
   44.1700   87.5030   58.6510 H   0  0  0  0  0  0  0  0  0  0  0  0
   42.7810   85.7690   57.7090 H   0  0  0  0  0  0  0  0  0  0  0  0
   45.6290   87.8220   61.7490 H   0  0  0  0  0  0  0  0  0  0  0  0
   44.3670   88.8370   60.9820 H   0  0  0  0  0  0  0  0  0  0  0  0
   41.5240   80.1930   61.8380 C   0  0  1  0  0  0  0  0  0  0  0  0
   40.6590   79.2120   62.4520 C   0  0  0  0  0  0  0  0  0  0  0  0
   40.2380   79.7240   61.1120 C   0  0  2  0  0  0  0  0  0  0  0  0
   42.4640   79.8530   61.3380 H   0  0  0  0  0  0  0  0  0  0  0  0
   40.9750   78.1620   62.5510 H   0  0  0  0  0  0  0  0  0  0  0  0
   39.9570   79.4980   63.2760 H   0  0  0  0  0  0  0  0  0  0  0  0
   39.4020   80.4130   61.0090 H   0  0  0  0  0  0  0  0  0  0  0  0
   40.4270   78.7860   59.9690 C   0  0  0  0  0  0  0  0  0  0  0  0
   41.2330   78.9800   59.2400 H   0  0  0  0  0  0  0  0  0  0  0  0
   39.7030   77.7980   59.8180 O   0  0  0  0  0  0  0  0  0  0  0  0
  1  2  1  0  0  0  0
  2  7  1  0  0  0  0
  2  3  2  0  0  0  0
  3  8  1  0  0  0  0
  4  3  1  0  0  0  0
  5  4  2  0  0  0  0
  6  1  2  0  0  0  0
  6  5  1  0  0  0  0
  9 15  1  0  0  0  0
  9 14  1  0  0  0  0
 10  9  2  0  0  0  0
 11 10  1  0  0  0  0
 11 12  2  0  0  0  0
 12 13  1  0  0  0  0
 13 14  2  0  0  0  0
 13  1  1  0  0  0  0
 15 18  1  0  0  0  0
 16 10  1  0  0  0  0
 17 11  1  0  0  0  0
 19 15  1  0  0  0  0
 20 23  1  6  0  0  0
 20  5  1  0  0  0  0
 20 21  1  0  0  0  0
 21 24  1  0  0  0  0
 21 25  1  0  0  0  0
 22 26  1  6  0  0  0
 22 20  1  0  0  0  0
 22 21  1  0  0  0  0
 27 22  1  0  0  0  0
 28 27  1  0  0  0  0
 29 27  2  0  0  0  0
M  END
>  <minimizedAffinity>
-4.93717098

>  <minimizedRMSD>
0.89303124

$$$$
