
 OpenBabel03212520023D

 25 27  0  0  0  0  0  0  0  0999 V2000
   42.2500   73.3690   59.8690 C   0  0  0  0  0  0  0  0  0  0  0  0
   41.0040   73.7590   60.3590 C   0  0  0  0  0  0  0  0  0  0  0  0
   40.4550   73.1120   61.4500 C   0  0  0  0  0  0  0  0  0  0  0  0
   41.1150   72.0690   62.0840 C   0  0  0  0  0  0  0  0  0  0  0  0
   40.8860   71.2520   63.1250 N   0  0  0  0  0  0  0  0  0  0  0  0
   41.9330   70.3970   63.2780 C   0  0  0  0  0  0  0  0  0  0  0  0
   42.8120   70.7170   62.2960 N   0  0  0  0  0  0  0  0  0  0  0  0
   42.3380   71.7340   61.5540 C   0  0  0  0  0  0  0  0  0  0  0  0
   42.9460   72.3280   60.4760 C   0  0  0  0  0  0  0  0  0  0  0  0
   42.6700   73.8860   59.0130 H   0  0  0  0  0  0  0  0  0  0  0  0
   39.4840   73.4050   61.8430 H   0  0  0  0  0  0  0  0  0  0  0  0
   40.0070   71.2990   63.7130 H   0  0  0  0  0  0  0  0  0  0  0  0
   42.0410   69.6240   64.0250 H   0  0  0  0  0  0  0  0  0  0  0  0
   43.9100   72.0250   60.0990 H   0  0  0  0  0  0  0  0  0  0  0  0
   39.9910   77.1270   59.3990 C   0  0  0  0  0  0  0  0  0  0  0  0
   38.9680   76.9120   58.4500 C   0  0  0  0  0  0  0  0  0  0  0  0
   38.6540   75.5930   58.1670 C   0  0  0  0  0  0  0  0  0  0  0  0
   39.3270   74.6050   58.7970 N   0  0  0  0  0  0  0  0  0  0  0  0
   40.3050   74.8480   59.7040 C   0  0  0  0  0  0  0  0  0  0  0  0
   40.6480   76.1210   60.0150 N   0  0  0  0  0  0  0  0  0  0  0  0
   40.2520   78.1550   59.6340 H   0  0  0  0  0  0  0  0  0  0  0  0
   38.4840   77.7670   57.9960 H   0  0  0  0  0  0  0  0  0  0  0  0
   37.6150   75.3080   57.2040 C   0  0  0  0  0  0  0  0  0  0  0  0
   37.3690   74.2930   56.9200 H   0  0  0  0  0  0  0  0  0  0  0  0
   36.9580   76.2310   56.6570 O   0  0  0  0  0  0  0  0  0  0  0  0
  1  2  2  0  0  0  0
  1  9  1  0  0  0  0
  2  3  1  0  0  0  0
  3 11  1  0  0  0  0
  3  4  2  0  0  0  0
  4  5  1  0  0  0  0
  5  6  1  0  0  0  0
  5 12  1  0  0  0  0
  6 13  1  0  0  0  0
  7  6  2  0  0  0  0
  8  4  1  0  0  0  0
  8  7  1  0  0  0  0
  9  8  2  0  0  0  0
 10  1  1  0  0  0  0
 14  9  1  0  0  0  0
 15 21  1  0  0  0  0
 15 20  1  0  0  0  0
 16 15  2  0  0  0  0
 17 16  1  0  0  0  0
 17 18  2  0  0  0  0
 18 19  1  0  0  0  0
 19 20  2  0  0  0  0
 19  2  1  0  0  0  0
 22 16  1  0  0  0  0
 23 17  1  0  0  0  0
 24 23  1  0  0  0  0
 25 23  2  0  0  0  0
M  END
>  <minimizedAffinity>
-5.40799093

$$$$

 OpenBabel03212520023D

 25 27  0  0  0  0  0  0  0  0999 V2000
   39.7100   75.2740   59.4290 C   0  0  0  0  0  0  0  0  0  0  0  0
   39.6070   73.8850   59.3730 C   0  0  0  0  0  0  0  0  0  0  0  0
   38.7110   73.2910   58.5040 C   0  0  0  0  0  0  0  0  0  0  0  0
   37.8980   74.0460   57.6710 C   0  0  0  0  0  0  0  0  0  0  0  0
   36.9560   73.8110   56.7430 N   0  0  0  0  0  0  0  0  0  0  0  0
   36.4950   74.9890   56.2460 C   0  0  0  0  0  0  0  0  0  0  0  0
   37.1860   75.9560   56.8990 N   0  0  0  0  0  0  0  0  0  0  0  0
   38.0490   75.4080   57.7740 C   0  0  0  0  0  0  0  0  0  0  0  0
   38.9130   76.0690   58.6110 C   0  0  0  0  0  0  0  0  0  0  0  0
   40.4180   75.7270   60.1160 H   0  0  0  0  0  0  0  0  0  0  0  0
   38.6200   72.2080   58.4500 H   0  0  0  0  0  0  0  0  0  0  0  0
   36.6470   72.8350   56.4700 H   0  0  0  0  0  0  0  0  0  0  0  0
   35.7370   75.1270   55.4880 H   0  0  0  0  0  0  0  0  0  0  0  0
   38.9910   77.1440   58.6520 H   0  0  0  0  0  0  0  0  0  0  0  0
   41.4450   72.7540   62.3110 C   0  0  0  0  0  0  0  0  0  0  0  0
   42.0630   71.5600   61.8810 C   0  0  0  0  0  0  0  0  0  0  0  0
   41.8250   71.1750   60.5720 C   0  0  0  0  0  0  0  0  0  0  0  0
   41.0310   71.9450   59.7930 N   0  0  0  0  0  0  0  0  0  0  0  0
   40.4520   73.0860   60.2400 C   0  0  0  0  0  0  0  0  0  0  0  0
   40.6560   73.5040   61.5120 N   0  0  0  0  0  0  0  0  0  0  0  0
   41.6200   73.0710   63.3350 H   0  0  0  0  0  0  0  0  0  0  0  0
   42.6840   71.0090   62.5760 H   0  0  0  0  0  0  0  0  0  0  0  0
   42.4300   69.9620   60.0720 C   0  0  0  0  0  0  0  0  0  0  0  0
   43.4430   69.9480   59.6940 H   0  0  0  0  0  0  0  0  0  0  0  0
   41.7970   68.8750   60.0560 O   0  0  0  0  0  0  0  0  0  0  0  0
  1 10  1  0  0  0  0
  2  1  1  0  0  0  0
  2 19  1  0  0  0  0
  3  2  2  0  0  0  0
  4  8  2  0  0  0  0
  4  3  1  0  0  0  0
  5  4  1  0  0  0  0
  6  5  1  0  0  0  0
  6  7  2  0  0  0  0
  7  8  1  0  0  0  0
  8  9  1  0  0  0  0
  9 14  1  0  0  0  0
  9  1  2  0  0  0  0
 11  3  1  0  0  0  0
 12  5  1  0  0  0  0
 13  6  1  0  0  0  0
 15 21  1  0  0  0  0
 16 15  1  0  0  0  0
 16 22  1  0  0  0  0
 17 16  2  0  0  0  0
 18 19  2  0  0  0  0
 18 17  1  0  0  0  0
 19 20  1  0  0  0  0
 20 15  2  0  0  0  0
 23 17  1  0  0  0  0
 24 23  1  0  0  0  0
 25 23  2  0  0  0  0
M  END
>  <minimizedAffinity>
-5.14832115

$$$$

 OpenBabel03212520023D

 25 27  0  0  0  0  0  0  0  0999 V2000
   39.9480   76.1500   58.9040 C   0  0  0  0  0  0  0  0  0  0  0  0
   40.2730   74.8050   58.7350 C   0  0  0  0  0  0  0  0  0  0  0  0
   39.5080   74.0050   57.9080 C   0  0  0  0  0  0  0  0  0  0  0  0
   38.4080   74.5080   57.2270 C   0  0  0  0  0  0  0  0  0  0  0  0
   37.4810   74.0370   56.3770 N   0  0  0  0  0  0  0  0  0  0  0  0
   36.6230   75.0340   56.0320 C   0  0  0  0  0  0  0  0  0  0  0  0
   37.0540   76.1330   56.6990 N   0  0  0  0  0  0  0  0  0  0  0  0
   38.1420   75.8400   57.4350 C   0  0  0  0  0  0  0  0  0  0  0  0
   38.8530   76.6950   58.2390 C   0  0  0  0  0  0  0  0  0  0  0  0
   40.5580   76.7670   59.5560 H   0  0  0  0  0  0  0  0  0  0  0  0
   39.7490   72.9540   57.7680 H   0  0  0  0  0  0  0  0  0  0  0  0
   37.4580   73.0290   56.0500 H   0  0  0  0  0  0  0  0  0  0  0  0
   35.7740   74.9650   55.3660 H   0  0  0  0  0  0  0  0  0  0  0  0
   38.6000   77.7350   58.3680 H   0  0  0  0  0  0  0  0  0  0  0  0
   43.7220   74.0580   59.6480 C   0  0  0  0  0  0  0  0  0  0  0  0
   43.5980   73.2460   60.7960 C   0  0  0  0  0  0  0  0  0  0  0  0
   42.3090   72.9760   61.2260 C   0  0  0  0  0  0  0  0  0  0  0  0
   41.2640   73.4930   60.5420 N   0  0  0  0  0  0  0  0  0  0  0  0
   41.4200   74.2700   59.4430 C   0  0  0  0  0  0  0  0  0  0  0  0
   42.6610   74.5610   58.9830 N   0  0  0  0  0  0  0  0  0  0  0  0
   44.7260   74.2800   59.2960 H   0  0  0  0  0  0  0  0  0  0  0  0
   44.4920   72.8750   61.2790 H   0  0  0  0  0  0  0  0  0  0  0  0
   42.1140   72.1500   62.3960 C   0  0  0  0  0  0  0  0  0  0  0  0
   42.9440   71.6620   62.8890 H   0  0  0  0  0  0  0  0  0  0  0  0
   40.9690   71.9670   62.8840 O   0  0  0  0  0  0  0  0  0  0  0  0
  1 10  1  0  0  0  0
  2  1  1  0  0  0  0
  2 19  1  0  0  0  0
  3  2  2  0  0  0  0
  4  8  2  0  0  0  0
  4  3  1  0  0  0  0
  5  4  1  0  0  0  0
  6  5  1  0  0  0  0
  6  7  2  0  0  0  0
  7  8  1  0  0  0  0
  8  9  1  0  0  0  0
  9 14  1  0  0  0  0
  9  1  2  0  0  0  0
 11  3  1  0  0  0  0
 12  5  1  0  0  0  0
 13  6  1  0  0  0  0
 15 16  1  0  0  0  0
 16 17  2  0  0  0  0
 16 22  1  0  0  0  0
 17 23  1  0  0  0  0
 18 17  1  0  0  0  0
 19 18  2  0  0  0  0
 20 19  1  0  0  0  0
 20 15  2  0  0  0  0
 21 15  1  0  0  0  0
 23 25  2  0  0  0  0
 23 24  1  0  0  0  0
M  END
>  <minimizedAffinity>
-5.13591862

$$$$

 OpenBabel03212520023D

 25 27  0  0  0  0  0  0  0  0999 V2000
   41.5230   71.9090   59.5200 C   0  0  0  0  0  0  0  0  0  0  0  0
   40.9140   72.8260   60.3750 C   0  0  0  0  0  0  0  0  0  0  0  0
   40.8200   72.5560   61.7280 C   0  0  0  0  0  0  0  0  0  0  0  0
   41.3220   71.3820   62.2700 C   0  0  0  0  0  0  0  0  0  0  0  0
   41.4000   70.8180   63.4870 N   0  0  0  0  0  0  0  0  0  0  0  0
   42.0240   69.6130   63.3970 C   0  0  0  0  0  0  0  0  0  0  0  0
   42.3270   69.4570   62.0840 N   0  0  0  0  0  0  0  0  0  0  0  0
   41.9100   70.5210   61.3740 C   0  0  0  0  0  0  0  0  0  0  0  0
   42.0390   70.7190   60.0220 C   0  0  0  0  0  0  0  0  0  0  0  0
   41.5900   72.1340   58.4600 H   0  0  0  0  0  0  0  0  0  0  0  0
   40.3470   73.2630   62.4060 H   0  0  0  0  0  0  0  0  0  0  0  0
   41.0180   71.2780   64.3610 H   0  0  0  0  0  0  0  0  0  0  0  0
   42.2360   68.9250   64.2020 H   0  0  0  0  0  0  0  0  0  0  0  0
   42.5110   70.0080   59.3630 H   0  0  0  0  0  0  0  0  0  0  0  0
   38.7130   75.1690   58.6570 C   0  0  0  0  0  0  0  0  0  0  0  0
   39.3900   76.4040   58.7610 C   0  0  0  0  0  0  0  0  0  0  0  0
   40.6030   76.3910   59.4300 C   0  0  0  0  0  0  0  0  0  0  0  0
   41.0630   75.2250   59.9360 N   0  0  0  0  0  0  0  0  0  0  0  0
   40.3860   74.0570   59.8180 C   0  0  0  0  0  0  0  0  0  0  0  0
   39.1960   74.0190   59.1720 N   0  0  0  0  0  0  0  0  0  0  0  0
   37.7600   75.1610   58.1350 H   0  0  0  0  0  0  0  0  0  0  0  0
   38.9440   77.2880   58.3230 H   0  0  0  0  0  0  0  0  0  0  0  0
   41.3440   77.6230   59.5700 C   0  0  0  0  0  0  0  0  0  0  0  0
   40.8510   78.5860   59.5570 H   0  0  0  0  0  0  0  0  0  0  0  0
   42.5940   77.6210   59.7110 O   0  0  0  0  0  0  0  0  0  0  0  0
  1  9  2  0  0  0  0
  1  2  1  0  0  0  0
  2  3  2  0  0  0  0
  3  4  1  0  0  0  0
  3 11  1  0  0  0  0
  4  5  1  0  0  0  0
  5 12  1  0  0  0  0
  6  5  1  0  0  0  0
  6 13  1  0  0  0  0
  7  6  2  0  0  0  0
  8  7  1  0  0  0  0
  8  4  2  0  0  0  0
  9  8  1  0  0  0  0
 10  1  1  0  0  0  0
 14  9  1  0  0  0  0
 15 16  2  0  0  0  0
 15 20  1  0  0  0  0
 16 17  1  0  0  0  0
 17 23  1  0  0  0  0
 17 18  2  0  0  0  0
 19 18  1  0  0  0  0
 19  2  1  0  0  0  0
 20 19  2  0  0  0  0
 21 15  1  0  0  0  0
 22 16  1  0  0  0  0
 23 25  2  0  0  0  0
 24 23  1  0  0  0  0
M  END
>  <minimizedAffinity>
-5.00707102

$$$$

 OpenBabel03212520023D

 25 27  0  0  0  0  0  0  0  0999 V2000
   39.4020   73.6880   61.2690 C   0  0  0  0  0  0  0  0  0  0  0  0
   40.7140   73.3330   60.9600 C   0  0  0  0  0  0  0  0  0  0  0  0
   41.4930   74.1700   60.1820 C   0  0  0  0  0  0  0  0  0  0  0  0
   41.0030   75.3720   59.6920 C   0  0  0  0  0  0  0  0  0  0  0  0
   41.4620   76.3850   58.9400 N   0  0  0  0  0  0  0  0  0  0  0  0
   40.4890   77.3230   58.7880 C   0  0  0  0  0  0  0  0  0  0  0  0
   39.4180   76.8520   59.4730 N   0  0  0  0  0  0  0  0  0  0  0  0
   39.7030   75.6630   60.0340 C   0  0  0  0  0  0  0  0  0  0  0  0
   38.8700   74.8860   60.7990 C   0  0  0  0  0  0  0  0  0  0  0  0
   38.8010   73.0230   61.8810 H   0  0  0  0  0  0  0  0  0  0  0  0
   42.5180   73.9050   59.9320 H   0  0  0  0  0  0  0  0  0  0  0  0
   42.4430   76.4090   58.5430 H   0  0  0  0  0  0  0  0  0  0  0  0
   40.5560   78.2510   58.2370 H   0  0  0  0  0  0  0  0  0  0  0  0
   37.8560   75.1630   61.0370 H   0  0  0  0  0  0  0  0  0  0  0  0
   41.7060   70.6890   63.2640 C   0  0  0  0  0  0  0  0  0  0  0  0
   42.2330   69.6880   62.4200 C   0  0  0  0  0  0  0  0  0  0  0  0
   42.2310   69.9590   61.0610 C   0  0  0  0  0  0  0  0  0  0  0  0
   41.7350   71.1400   60.6260 N   0  0  0  0  0  0  0  0  0  0  0  0
   41.2360   72.0790   61.4660 C   0  0  0  0  0  0  0  0  0  0  0  0
   41.2170   71.8600   62.8020 N   0  0  0  0  0  0  0  0  0  0  0  0
   41.6990   70.4930   64.3330 H   0  0  0  0  0  0  0  0  0  0  0  0
   42.6080   68.7730   62.8580 H   0  0  0  0  0  0  0  0  0  0  0  0
   42.7560   68.9740   60.1440 C   0  0  0  0  0  0  0  0  0  0  0  0
   43.5540   69.2120   59.4530 H   0  0  0  0  0  0  0  0  0  0  0  0
   42.3040   67.8010   60.1150 O   0  0  0  0  0  0  0  0  0  0  0  0
  1 10  1  0  0  0  0
  2  1  1  0  0  0  0
  2 19  1  0  0  0  0
  3  2  2  0  0  0  0
  4  8  2  0  0  0  0
  4  3  1  0  0  0  0
  5  4  1  0  0  0  0
  6  5  1  0  0  0  0
  6  7  2  0  0  0  0
  7  8  1  0  0  0  0
  8  9  1  0  0  0  0
  9 14  1  0  0  0  0
  9  1  2  0  0  0  0
 11  3  1  0  0  0  0
 12  5  1  0  0  0  0
 13  6  1  0  0  0  0
 15 21  1  0  0  0  0
 16 22  1  0  0  0  0
 16 15  2  0  0  0  0
 17 16  1  0  0  0  0
 18 17  2  0  0  0  0
 18 19  1  0  0  0  0
 19 20  2  0  0  0  0
 20 15  1  0  0  0  0
 23 17  1  0  0  0  0
 24 23  1  0  0  0  0
 25 23  2  0  0  0  0
M  END
>  <minimizedAffinity>
-4.90832376

$$$$

 OpenBabel03212520023D

 25 27  0  0  0  0  0  0  0  0999 V2000
   41.6860   72.1920   62.3860 C   0  0  0  0  0  0  0  0  0  0  0  0
   42.3700   72.3770   61.1860 C   0  0  0  0  0  0  0  0  0  0  0  0
   43.1740   71.3710   60.6830 C   0  0  0  0  0  0  0  0  0  0  0  0
   43.3230   70.1610   61.3470 C   0  0  0  0  0  0  0  0  0  0  0  0
   43.9940   69.0130   61.1550 N   0  0  0  0  0  0  0  0  0  0  0  0
   43.7420   68.1560   62.1800 C   0  0  0  0  0  0  0  0  0  0  0  0
   42.8930   68.8160   63.0070 N   0  0  0  0  0  0  0  0  0  0  0  0
   42.6220   70.0420   62.5230 C   0  0  0  0  0  0  0  0  0  0  0  0
   41.8070   70.9930   63.0830 C   0  0  0  0  0  0  0  0  0  0  0  0
   41.0570   72.9890   62.7680 H   0  0  0  0  0  0  0  0  0  0  0  0
   43.7150   71.5020   59.7490 H   0  0  0  0  0  0  0  0  0  0  0  0
   44.6170   68.8430   60.3160 H   0  0  0  0  0  0  0  0  0  0  0  0
   44.1350   67.1580   62.3090 H   0  0  0  0  0  0  0  0  0  0  0  0
   41.2780   70.8470   64.0120 H   0  0  0  0  0  0  0  0  0  0  0  0
   43.1580   75.3480   59.2270 C   0  0  0  0  0  0  0  0  0  0  0  0
   41.9290   76.0390   59.1540 C   0  0  0  0  0  0  0  0  0  0  0  0
   40.8500   75.4500   59.7930 C   0  0  0  0  0  0  0  0  0  0  0  0
   41.0260   74.2740   60.4350 N   0  0  0  0  0  0  0  0  0  0  0  0
   42.2220   73.6380   60.4850 C   0  0  0  0  0  0  0  0  0  0  0  0
   43.3070   74.1740   59.8760 N   0  0  0  0  0  0  0  0  0  0  0  0
   44.0170   75.7950   58.7320 H   0  0  0  0  0  0  0  0  0  0  0  0
   41.8830   76.9770   58.6160 H   0  0  0  0  0  0  0  0  0  0  0  0
   39.5640   76.1080   59.7540 C   0  0  0  0  0  0  0  0  0  0  0  0
   39.3400   76.9530   60.3910 H   0  0  0  0  0  0  0  0  0  0  0  0
   38.6540   75.7190   58.9780 O   0  0  0  0  0  0  0  0  0  0  0  0
  1 10  1  0  0  0  0
  1  9  1  0  0  0  0
  2  1  2  0  0  0  0
  3  2  1  0  0  0  0
  3  4  2  0  0  0  0
  4  8  1  0  0  0  0
  5  4  1  0  0  0  0
  5  6  1  0  0  0  0
  6 13  1  0  0  0  0
  6  7  2  0  0  0  0
  8  7  1  0  0  0  0
  8  9  2  0  0  0  0
  9 14  1  0  0  0  0
 11  3  1  0  0  0  0
 12  5  1  0  0  0  0
 15 20  1  0  0  0  0
 16 15  2  0  0  0  0
 16 17  1  0  0  0  0
 17 18  2  0  0  0  0
 18 19  1  0  0  0  0
 19  2  1  0  0  0  0
 20 19  2  0  0  0  0
 21 15  1  0  0  0  0
 22 16  1  0  0  0  0
 23 17  1  0  0  0  0
 23 24  1  0  0  0  0
 25 23  2  0  0  0  0
M  END
>  <minimizedAffinity>
-4.72470331

$$$$

 OpenBabel03212520023D

 25 27  0  0  0  0  0  0  0  0999 V2000
   42.1060   72.5260   59.9470 C   0  0  0  0  0  0  0  0  0  0  0  0
   41.4730   72.0790   61.1060 C   0  0  0  0  0  0  0  0  0  0  0  0
   40.5060   72.8590   61.7120 C   0  0  0  0  0  0  0  0  0  0  0  0
   40.1380   74.0930   61.1940 C   0  0  0  0  0  0  0  0  0  0  0  0
   39.2740   75.0710   61.5100 N   0  0  0  0  0  0  0  0  0  0  0  0
   39.3620   76.0750   60.5970 C   0  0  0  0  0  0  0  0  0  0  0  0
   40.3090   75.6800   59.7100 N   0  0  0  0  0  0  0  0  0  0  0  0
   40.7990   74.4750   60.0500 C   0  0  0  0  0  0  0  0  0  0  0  0
   41.7680   73.7580   59.3940 C   0  0  0  0  0  0  0  0  0  0  0  0
   42.8640   71.9040   59.4810 H   0  0  0  0  0  0  0  0  0  0  0  0
   40.0040   72.5230   62.6160 H   0  0  0  0  0  0  0  0  0  0  0  0
   38.6370   75.0270   62.3550 H   0  0  0  0  0  0  0  0  0  0  0  0
   38.7950   76.9960   60.5810 H   0  0  0  0  0  0  0  0  0  0  0  0
   42.2560   74.1050   58.4970 H   0  0  0  0  0  0  0  0  0  0  0  0
   42.4620   69.5000   63.4830 C   0  0  0  0  0  0  0  0  0  0  0  0
   42.5690   68.3360   62.6920 C   0  0  0  0  0  0  0  0  0  0  0  0
   42.2940   68.4780   61.3420 C   0  0  0  0  0  0  0  0  0  0  0  0
   41.9440   69.6940   60.8650 N   0  0  0  0  0  0  0  0  0  0  0  0
   41.8510   70.7910   61.6550 C   0  0  0  0  0  0  0  0  0  0  0  0
   42.1110   70.7030   62.9810 N   0  0  0  0  0  0  0  0  0  0  0  0
   42.6750   69.4070   64.5450 H   0  0  0  0  0  0  0  0  0  0  0  0
   42.8570   67.4040   63.1610 H   0  0  0  0  0  0  0  0  0  0  0  0
   42.3860   67.3240   60.4770 C   0  0  0  0  0  0  0  0  0  0  0  0
   43.1020   66.5340   60.6610 H   0  0  0  0  0  0  0  0  0  0  0  0
   41.6350   67.1950   59.4770 O   0  0  0  0  0  0  0  0  0  0  0  0
  1  2  1  0  0  0  0
  2 19  1  0  0  0  0
  2  3  2  0  0  0  0
  3 11  1  0  0  0  0
  4  5  1  0  0  0  0
  4  3  1  0  0  0  0
  5 12  1  0  0  0  0
  6  5  1  0  0  0  0
  7  8  1  0  0  0  0
  7  6  2  0  0  0  0
  8  4  2  0  0  0  0
  9  1  2  0  0  0  0
  9  8  1  0  0  0  0
 10  1  1  0  0  0  0
 13  6  1  0  0  0  0
 14  9  1  0  0  0  0
 15 21  1  0  0  0  0
 16 22  1  0  0  0  0
 16 15  2  0  0  0  0
 17 16  1  0  0  0  0
 18 17  2  0  0  0  0
 18 19  1  0  0  0  0
 19 20  2  0  0  0  0
 20 15  1  0  0  0  0
 23 24  1  0  0  0  0
 23 17  1  0  0  0  0
 25 23  2  0  0  0  0
M  END
>  <minimizedAffinity>
-4.72310305

$$$$

 OpenBabel03212520023D

 25 27  0  0  0  0  0  0  0  0999 V2000
   42.3960   70.6210   62.8530 C   0  0  0  0  0  0  0  0  0  0  0  0
   42.3400   70.7080   61.4630 C   0  0  0  0  0  0  0  0  0  0  0  0
   42.1060   69.5750   60.7060 C   0  0  0  0  0  0  0  0  0  0  0  0
   41.9230   68.3330   61.2960 C   0  0  0  0  0  0  0  0  0  0  0  0
   41.6850   67.0760   60.8850 N   0  0  0  0  0  0  0  0  0  0  0  0
   41.5970   66.2480   61.9600 C   0  0  0  0  0  0  0  0  0  0  0  0
   41.7880   67.0390   63.0460 N   0  0  0  0  0  0  0  0  0  0  0  0
   41.9890   68.3150   62.6690 C   0  0  0  0  0  0  0  0  0  0  0  0
   42.2160   69.3940   63.4860 C   0  0  0  0  0  0  0  0  0  0  0  0
   42.5790   71.5180   63.4350 H   0  0  0  0  0  0  0  0  0  0  0  0
   42.0610   69.6280   59.6210 H   0  0  0  0  0  0  0  0  0  0  0  0
   41.5890   66.8130   59.8640 H   0  0  0  0  0  0  0  0  0  0  0  0
   41.4130   65.1830   61.9520 H   0  0  0  0  0  0  0  0  0  0  0  0
   42.2590   69.3240   64.5610 H   0  0  0  0  0  0  0  0  0  0  0  0
   43.9530   73.5780   59.9000 C   0  0  0  0  0  0  0  0  0  0  0  0
   42.8860   74.4660   59.6440 C   0  0  0  0  0  0  0  0  0  0  0  0
   41.6230   74.0420   60.0250 C   0  0  0  0  0  0  0  0  0  0  0  0
   41.4830   72.8290   60.6060 N   0  0  0  0  0  0  0  0  0  0  0  0
   42.5310   72.0020   60.8360 C   0  0  0  0  0  0  0  0  0  0  0  0
   43.7850   72.3730   60.4830 N   0  0  0  0  0  0  0  0  0  0  0  0
   44.9510   73.8950   59.6080 H   0  0  0  0  0  0  0  0  0  0  0  0
   43.0930   75.4190   59.1740 H   0  0  0  0  0  0  0  0  0  0  0  0
   40.4880   74.9050   59.7900 C   0  0  0  0  0  0  0  0  0  0  0  0
   39.7160   74.6450   59.0780 H   0  0  0  0  0  0  0  0  0  0  0  0
   40.3570   75.9940   60.4060 O   0  0  0  0  0  0  0  0  0  0  0  0
  1 10  1  0  0  0  0
  1  9  1  0  0  0  0
  2  1  2  0  0  0  0
  3  4  2  0  0  0  0
  3  2  1  0  0  0  0
  4  8  1  0  0  0  0
  5  4  1  0  0  0  0
  5  6  1  0  0  0  0
  6  7  2  0  0  0  0
  8  7  1  0  0  0  0
  8  9  2  0  0  0  0
  9 14  1  0  0  0  0
 11  3  1  0  0  0  0
 12  5  1  0  0  0  0
 13  6  1  0  0  0  0
 15 20  1  0  0  0  0
 16 15  2  0  0  0  0
 16 17  1  0  0  0  0
 17 18  2  0  0  0  0
 18 19  1  0  0  0  0
 19  2  1  0  0  0  0
 20 19  2  0  0  0  0
 21 15  1  0  0  0  0
 22 16  1  0  0  0  0
 23 17  1  0  0  0  0
 23 25  2  0  0  0  0
 24 23  1  0  0  0  0
M  END
>  <minimizedAffinity>
-4.5754323

$$$$

 OpenBabel03212520023D

 25 27  0  0  0  0  0  0  0  0999 V2000
   42.2150   71.1730   62.7250 C   0  0  0  0  0  0  0  0  0  0  0  0
   42.2370   70.2550   61.6760 C   0  0  0  0  0  0  0  0  0  0  0  0
   41.8600   70.6470   60.4040 C   0  0  0  0  0  0  0  0  0  0  0  0
   41.4540   71.9460   60.1350 C   0  0  0  0  0  0  0  0  0  0  0  0
   41.0390   72.6420   59.0640 N   0  0  0  0  0  0  0  0  0  0  0  0
   40.7710   73.9250   59.4250 C   0  0  0  0  0  0  0  0  0  0  0  0
   41.0370   73.9940   60.7530 N   0  0  0  0  0  0  0  0  0  0  0  0
   41.4550   72.8010   61.2120 C   0  0  0  0  0  0  0  0  0  0  0  0
   41.8140   72.4860   62.4980 C   0  0  0  0  0  0  0  0  0  0  0  0
   42.5140   70.8530   63.7180 H   0  0  0  0  0  0  0  0  0  0  0  0
   41.8720   69.9410   59.5770 H   0  0  0  0  0  0  0  0  0  0  0  0
   40.9460   72.2140   58.0990 H   0  0  0  0  0  0  0  0  0  0  0  0
   40.4200   74.7240   58.7860 H   0  0  0  0  0  0  0  0  0  0  0  0
   41.7960   73.1980   63.3080 H   0  0  0  0  0  0  0  0  0  0  0  0
   44.3550   67.3160   62.0740 C   0  0  0  0  0  0  0  0  0  0  0  0
   43.4530   66.3020   62.4630 C   0  0  0  0  0  0  0  0  0  0  0  0
   42.1220   66.6680   62.5770 C   0  0  0  0  0  0  0  0  0  0  0  0
   41.7660   67.9460   62.3170 N   0  0  0  0  0  0  0  0  0  0  0  0
   42.6600   68.8950   61.9460 C   0  0  0  0  0  0  0  0  0  0  0  0
   43.9720   68.5850   61.8200 N   0  0  0  0  0  0  0  0  0  0  0  0
   45.4040   67.0470   61.9800 H   0  0  0  0  0  0  0  0  0  0  0  0
   43.8300   65.3050   62.6500 H   0  0  0  0  0  0  0  0  0  0  0  0
   41.1490   65.6750   62.9720 C   0  0  0  0  0  0  0  0  0  0  0  0
   41.3510   64.9680   63.7640 H   0  0  0  0  0  0  0  0  0  0  0  0
   40.0280   65.5970   62.4060 O   0  0  0  0  0  0  0  0  0  0  0  0
  1 10  1  0  0  0  0
  2 19  1  0  0  0  0
  2  1  2  0  0  0  0
  3  2  1  0  0  0  0
  4  3  2  0  0  0  0
  4  8  1  0  0  0  0
  5  6  1  0  0  0  0
  5  4  1  0  0  0  0
  6  7  2  0  0  0  0
  7  8  1  0  0  0  0
  8  9  2  0  0  0  0
  9  1  1  0  0  0  0
  9 14  1  0  0  0  0
 11  3  1  0  0  0  0
 12  5  1  0  0  0  0
 13  6  1  0  0  0  0
 15 16  1  0  0  0  0
 16 17  2  0  0  0  0
 16 22  1  0  0  0  0
 17 23  1  0  0  0  0
 18 17  1  0  0  0  0
 19 18  2  0  0  0  0
 20 19  1  0  0  0  0
 20 15  2  0  0  0  0
 21 15  1  0  0  0  0
 23 24  1  0  0  0  0
 25 23  2  0  0  0  0
M  END
>  <minimizedAffinity>
-4.57254934

$$$$
