
 OpenBabel03212520513D

 29 31  0  0  1  0  0  0  0  0999 V2000
   41.7100   83.8290   61.4360 C   0  0  0  0  0  0  0  0  0  0  0  0
   41.1100   84.2140   62.6190 C   0  0  0  0  0  0  0  0  0  0  0  0
   40.6510   83.2570   63.5260 C   0  0  0  0  0  0  0  0  0  0  0  0
   40.7910   81.9430   63.2490 N   0  0  0  0  0  0  0  0  0  0  0  0
   41.3790   81.6000   62.0910 C   0  0  0  0  0  0  0  0  0  0  0  0
   41.8360   82.4980   61.1910 N   0  0  0  0  0  0  0  0  0  0  0  0
   40.9990   85.2690   62.8390 H   0  0  0  0  0  0  0  0  0  0  0  0
   40.1800   83.5240   64.4560 H   0  0  0  0  0  0  0  0  0  0  0  0
   43.6400   86.5010   59.8640 C   0  0  0  0  0  0  0  0  0  0  0  0
   43.0400   86.6070   58.6200 C   0  0  0  0  0  0  0  0  0  0  0  0
   41.9840   85.7810   58.3010 C   0  0  0  0  0  0  0  0  0  0  0  0
   41.6090   84.9010   59.2690 N   0  0  0  0  0  0  0  0  0  0  0  0
   42.1930   84.8040   60.4650 C   0  0  0  0  0  0  0  0  0  0  0  0
   43.2060   85.5970   60.7670 N   0  0  0  0  0  0  0  0  0  0  0  0
   44.7030   87.4360   60.0820 N   0  0  0  0  0  0  0  0  0  0  0  0
   43.3210   87.3010   57.8310 H   0  0  0  0  0  0  0  0  0  0  0  0
   41.4790   85.8180   57.3530 H   0  0  0  0  0  0  0  0  0  0  0  0
   45.7060   87.2460   60.3090 H   0  0  0  0  0  0  0  0  0  0  0  0
   44.4230   88.4580   59.9990 H   0  0  0  0  0  0  0  0  0  0  0  0
   41.5000   80.1280   61.8380 C   0  0  1  0  0  0  0  0  0  0  0  0
   40.6410   79.1720   62.4990 C   0  0  0  0  0  0  0  0  0  0  0  0
   40.2440   79.5780   61.1170 C   0  0  2  0  0  0  0  0  0  0  0  0
   42.4600   79.7760   61.3860 H   0  0  0  0  0  0  0  0  0  0  0  0
   40.9780   78.1390   62.6800 H   0  0  0  0  0  0  0  0  0  0  0  0
   39.9130   79.4980   63.2840 H   0  0  0  0  0  0  0  0  0  0  0  0
   39.3960   80.2390   60.9440 H   0  0  0  0  0  0  0  0  0  0  0  0
   40.4830   78.5670   60.0470 C   0  0  0  0  0  0  0  0  0  0  0  0
   41.4280   78.5980   59.4770 H   0  0  0  0  0  0  0  0  0  0  0  0
   39.6480   77.6970   59.7840 O   0  0  0  0  0  0  0  0  0  0  0  0
  1  2  1  0  0  0  0
  2  7  1  0  0  0  0
  2  3  2  0  0  0  0
  3  8  1  0  0  0  0
  4  3  1  0  0  0  0
  5  4  2  0  0  0  0
  6  1  2  0  0  0  0
  6  5  1  0  0  0  0
  9 15  1  0  0  0  0
  9 14  1  0  0  0  0
 10  9  2  0  0  0  0
 11 10  1  0  0  0  0
 11 12  2  0  0  0  0
 12 13  1  0  0  0  0
 13 14  2  0  0  0  0
 13  1  1  0  0  0  0
 15 18  1  0  0  0  0
 16 10  1  0  0  0  0
 17 11  1  0  0  0  0
 19 15  1  0  0  0  0
 20 23  1  6  0  0  0
 20  5  1  0  0  0  0
 20 21  1  0  0  0  0
 21 24  1  0  0  0  0
 21 25  1  0  0  0  0
 22 26  1  6  0  0  0
 22 20  1  0  0  0  0
 22 21  1  0  0  0  0
 27 22  1  0  0  0  0
 28 27  1  0  0  0  0
 29 27  2  0  0  0  0
M  END
>  <minimizedAffinity>
-4.96679878

>  <minimizedRMSD>
0.518194795

$$$$
