
 OpenBabel03212520563D

 34 37  0  0  1  0  0  0  0  0999 V2000
   39.8730   77.4390   59.3640 C   0  0  0  0  0  0  0  0  0  0  0  0
   40.3630   76.1760   59.2940 C   0  0  0  0  0  0  0  0  0  0  0  0
   39.8800   75.4590   58.1880 C   0  0  0  0  0  0  0  0  0  0  0  0
   39.0230   75.9550   57.2840 N   0  0  0  0  0  0  0  0  0  0  0  0
   38.5830   77.2340   57.4320 C   0  0  0  0  0  0  0  0  0  0  0  0
   39.0150   77.9770   58.4830 N   0  0  0  0  0  0  0  0  0  0  0  0
   41.0430   75.7300   59.9790 H   0  0  0  0  0  0  0  0  0  0  0  0
   40.2160   74.4250   58.0410 H   0  0  0  0  0  0  0  0  0  0  0  0
   40.9790   80.4490   61.8880 C   0  0  0  0  0  0  0  0  0  0  0  0
   40.9260   79.2200   62.5190 C   0  0  0  0  0  0  0  0  0  0  0  0
   40.5740   78.1440   61.7910 C   0  0  0  0  0  0  0  0  0  0  0  0
   40.2760   78.2980   60.4450 C   0  0  0  0  0  0  0  0  0  0  0  0
   40.5120   80.1190   60.1670 S   0  0  0  0  0  0  0  0  0  0  0  0
   41.1600   79.1020   63.5790 H   0  0  0  0  0  0  0  0  0  0  0  0
   40.4770   77.1130   62.1010 H   0  0  0  0  0  0  0  0  0  0  0  0
   43.0150   83.2930   62.9890 C   0  0  0  0  0  0  0  0  0  0  0  0
   42.1000   84.0480   63.7830 C   0  0  0  0  0  0  0  0  0  0  0  0
   40.8040   83.5710   63.9250 C   0  0  0  0  0  0  0  0  0  0  0  0
   40.4730   82.4150   63.3060 N   0  0  0  0  0  0  0  0  0  0  0  0
   41.3550   81.7220   62.5640 C   0  0  0  0  0  0  0  0  0  0  0  0
   42.5960   82.1590   62.4140 N   0  0  0  0  0  0  0  0  0  0  0  0
   44.0190   83.6820   62.8920 H   0  0  0  0  0  0  0  0  0  0  0  0
   42.3850   84.9760   64.2720 H   0  0  0  0  0  0  0  0  0  0  0  0
   40.0510   84.0940   64.5150 H   0  0  0  0  0  0  0  0  0  0  0  0
   37.6590   77.7580   56.4520 C   0  0  0  0  0  0  0  0  0  0  0  0
   36.4250   77.6850   56.7320 O   0  0  0  0  0  0  0  0  0  0  0  0
   38.1710   78.3440   55.1850 C   0  0  1  0  0  3  0  0  0  0  0  0
   37.1040   79.2760   54.6000 C   0  0  0  0  0  3  0  0  0  0  0  0
   37.3130   79.4360   53.5260 H   0  0  0  0  0  0  0  0  0  0  0  0
   37.3530   80.4990   55.4490 C   0  0  0  0  0  3  0  0  0  0  0  0
   37.2260   81.4520   54.9050 H   0  0  0  0  0  0  0  0  0  0  0  0
   38.5890   80.3720   56.0520 O   0  0  0  0  0  0  0  0  0  0  0  0
   39.2740   79.3580   55.4150 C   0  0  0  0  0  3  0  0  0  0  0  0
   39.5470   79.7370   54.4130 H   0  0  0  0  0  0  0  0  0  0  0  0
  1 12  1  0  0  0  0
  2  1  1  0  0  0  0
  2  7  1  0  0  0  0
  3  2  2  0  0  0  0
  4  5  2  0  0  0  0
  4  3  1  0  0  0  0
  5  6  1  0  0  0  0
  6  1  2  0  0  0  0
  8  3  1  0  0  0  0
  9 10  2  0  0  0  0
  9 20  1  0  0  0  0
 10 14  1  0  0  0  0
 11 15  1  0  0  0  0
 11 10  1  0  0  0  0
 12 11  2  0  0  0  0
 13 12  1  0  0  0  0
 13  9  1  0  0  0  0
 16 17  1  0  0  0  0
 17 18  2  0  0  0  0
 17 23  1  0  0  0  0
 18 24  1  0  0  0  0
 19 18  1  0  0  0  0
 20 19  2  0  0  0  0
 21 20  1  0  0  0  0
 21 16  2  0  0  0  0
 22 16  1  0  0  0  0
 25 26  2  0  0  0  0
 25  5  1  0  0  0  0
 27 33  1  0  0  0  0
 27 25  1  1  0  0  0
 28 27  1  0  0  0  0
 28 30  1  0  0  0  0
 29 28  1  0  0  0  0
 30 32  1  0  0  0  0
 31 30  1  0  0  0  0
 33 32  1  0  0  0  0
 34 33  1  0  0  0  0
M  END
>  <minimizedAffinity>
-6.03087187

>  <minimizedRMSD>
0.823150396

$$$$
