
 OpenBabel03212520563D

 34 37  0  0  1  0  0  0  0  0999 V2000
   39.7750   77.3680   59.1830 C   0  0  0  0  0  0  0  0  0  0  0  0
   40.2950   76.1200   59.0680 C   0  0  0  0  0  0  0  0  0  0  0  0
   39.7960   75.4180   57.9590 C   0  0  0  0  0  0  0  0  0  0  0  0
   38.9010   75.9120   57.0930 N   0  0  0  0  0  0  0  0  0  0  0  0
   38.4330   77.1760   57.2870 C   0  0  0  0  0  0  0  0  0  0  0  0
   38.8780   77.9050   58.3420 N   0  0  0  0  0  0  0  0  0  0  0  0
   41.0050   75.6760   59.7220 H   0  0  0  0  0  0  0  0  0  0  0  0
   40.1540   74.3960   57.7770 H   0  0  0  0  0  0  0  0  0  0  0  0
   40.9270   80.3370   61.7360 C   0  0  0  0  0  0  0  0  0  0  0  0
   40.8440   79.1050   62.3570 C   0  0  0  0  0  0  0  0  0  0  0  0
   40.4750   78.0410   61.6210 C   0  0  0  0  0  0  0  0  0  0  0  0
   40.1890   78.2110   60.2730 C   0  0  0  0  0  0  0  0  0  0  0  0
   40.4640   80.0290   60.0100 S   0  0  0  0  0  0  0  0  0  0  0  0
   41.0690   78.9750   63.4180 H   0  0  0  0  0  0  0  0  0  0  0  0
   40.3550   77.0100   61.9220 H   0  0  0  0  0  0  0  0  0  0  0  0
   43.0110   83.1340   62.8660 C   0  0  0  0  0  0  0  0  0  0  0  0
   42.1080   83.8990   63.6630 C   0  0  0  0  0  0  0  0  0  0  0  0
   40.8030   83.4450   63.7980 C   0  0  0  0  0  0  0  0  0  0  0  0
   40.4530   82.3000   63.1690 N   0  0  0  0  0  0  0  0  0  0  0  0
   41.3230   81.5980   62.4230 C   0  0  0  0  0  0  0  0  0  0  0  0
   42.5730   82.0120   62.2800 N   0  0  0  0  0  0  0  0  0  0  0  0
   44.0230   83.5060   62.7740 H   0  0  0  0  0  0  0  0  0  0  0  0
   42.4090   84.8180   64.1610 H   0  0  0  0  0  0  0  0  0  0  0  0
   40.0590   83.9770   64.3900 H   0  0  0  0  0  0  0  0  0  0  0  0
   37.4670   77.6990   56.3470 C   0  0  0  0  0  0  0  0  0  0  0  0
   36.3410   77.1180   56.3010 O   0  0  0  0  0  0  0  0  0  0  0  0
   37.8160   78.8630   55.4910 C   0  0  1  0  0  3  0  0  0  0  0  0
   39.2430   78.6840   54.9610 C   0  0  0  0  0  3  0  0  0  0  0  0
   39.6320   79.6650   54.6300 H   0  0  0  0  0  0  0  0  0  0  0  0
   38.9650   77.7330   53.8240 C   0  0  0  0  0  3  0  0  0  0  0  0
   39.5970   77.9060   52.9330 H   0  0  0  0  0  0  0  0  0  0  0  0
   37.6110   77.7610   53.5480 O   0  0  0  0  0  0  0  0  0  0  0  0
   37.0700   78.8650   54.1730 C   0  0  0  0  0  3  0  0  0  0  0  0
   37.4320   79.7530   53.6230 H   0  0  0  0  0  0  0  0  0  0  0  0
  1 12  1  0  0  0  0
  2  1  1  0  0  0  0
  2  7  1  0  0  0  0
  3  2  2  0  0  0  0
  4  5  2  0  0  0  0
  4  3  1  0  0  0  0
  5  6  1  0  0  0  0
  6  1  2  0  0  0  0
  8  3  1  0  0  0  0
  9 10  2  0  0  0  0
  9 20  1  0  0  0  0
 10 14  1  0  0  0  0
 11 15  1  0  0  0  0
 11 10  1  0  0  0  0
 12 11  2  0  0  0  0
 13 12  1  0  0  0  0
 13  9  1  0  0  0  0
 16 17  1  0  0  0  0
 17 18  2  0  0  0  0
 17 23  1  0  0  0  0
 18 24  1  0  0  0  0
 19 18  1  0  0  0  0
 20 19  2  0  0  0  0
 21 20  1  0  0  0  0
 21 16  2  0  0  0  0
 22 16  1  0  0  0  0
 25  5  1  0  0  0  0
 26 25  2  0  0  0  0
 27 25  1  1  0  0  0
 28 27  1  0  0  0  0
 29 28  1  0  0  0  0
 30 28  1  0  0  0  0
 31 30  1  0  0  0  0
 32 30  1  0  0  0  0
 32 33  1  0  0  0  0
 33 27  1  0  0  0  0
 34 33  1  0  0  0  0
M  END
>  <minimizedAffinity>
-5.84863901

>  <minimizedRMSD>
1.18776798

$$$$
