
 OpenBabel03212520563D

 34 37  0  0  1  0  0  0  0  0999 V2000
   39.8730   77.4400   59.3630 C   0  0  0  0  0  0  0  0  0  0  0  0
   40.3640   76.1770   59.2940 C   0  0  0  0  0  0  0  0  0  0  0  0
   39.8800   75.4600   58.1870 C   0  0  0  0  0  0  0  0  0  0  0  0
   39.0240   75.9550   57.2830 N   0  0  0  0  0  0  0  0  0  0  0  0
   38.5840   77.2350   57.4320 C   0  0  0  0  0  0  0  0  0  0  0  0
   39.0150   77.9780   58.4830 N   0  0  0  0  0  0  0  0  0  0  0  0
   41.0430   75.7300   59.9780 H   0  0  0  0  0  0  0  0  0  0  0  0
   40.2170   74.4250   58.0400 H   0  0  0  0  0  0  0  0  0  0  0  0
   40.9790   80.4490   61.8880 C   0  0  0  0  0  0  0  0  0  0  0  0
   40.9250   79.2200   62.5190 C   0  0  0  0  0  0  0  0  0  0  0  0
   40.5730   78.1440   61.7910 C   0  0  0  0  0  0  0  0  0  0  0  0
   40.2760   78.2980   60.4440 C   0  0  0  0  0  0  0  0  0  0  0  0
   40.5120   80.1190   60.1670 S   0  0  0  0  0  0  0  0  0  0  0  0
   41.1590   79.1020   63.5790 H   0  0  0  0  0  0  0  0  0  0  0  0
   40.4760   77.1130   62.1010 H   0  0  0  0  0  0  0  0  0  0  0  0
   43.0140   83.2930   62.9890 C   0  0  0  0  0  0  0  0  0  0  0  0
   42.0990   84.0480   63.7830 C   0  0  0  0  0  0  0  0  0  0  0  0
   40.8030   83.5710   63.9250 C   0  0  0  0  0  0  0  0  0  0  0  0
   40.4730   82.4140   63.3070 N   0  0  0  0  0  0  0  0  0  0  0  0
   41.3540   81.7220   62.5640 C   0  0  0  0  0  0  0  0  0  0  0  0
   42.5950   82.1590   62.4140 N   0  0  0  0  0  0  0  0  0  0  0  0
   44.0180   83.6830   62.8920 H   0  0  0  0  0  0  0  0  0  0  0  0
   42.3840   84.9760   64.2730 H   0  0  0  0  0  0  0  0  0  0  0  0
   40.0510   84.0940   64.5160 H   0  0  0  0  0  0  0  0  0  0  0  0
   37.6590   77.7580   56.4510 C   0  0  0  0  0  0  0  0  0  0  0  0
   36.4250   77.6850   56.7320 O   0  0  0  0  0  0  0  0  0  0  0  0
   38.1720   78.3450   55.1850 C   0  0  1  0  0  3  0  0  0  0  0  0
   37.1040   79.2760   54.6000 C   0  0  0  0  0  3  0  0  0  0  0  0
   37.3130   79.4360   53.5250 H   0  0  0  0  0  0  0  0  0  0  0  0
   37.3540   80.4990   55.4490 C   0  0  0  0  0  3  0  0  0  0  0  0
   37.2250   81.4520   54.9040 H   0  0  0  0  0  0  0  0  0  0  0  0
   38.5900   80.3730   56.0510 O   0  0  0  0  0  0  0  0  0  0  0  0
   39.2740   79.3580   55.4140 C   0  0  0  0  0  3  0  0  0  0  0  0
   39.5460   79.7370   54.4110 H   0  0  0  0  0  0  0  0  0  0  0  0
  1 12  1  0  0  0  0
  2  1  1  0  0  0  0
  2  7  1  0  0  0  0
  3  2  2  0  0  0  0
  4  5  2  0  0  0  0
  4  3  1  0  0  0  0
  5  6  1  0  0  0  0
  6  1  2  0  0  0  0
  8  3  1  0  0  0  0
  9 10  2  0  0  0  0
  9 20  1  0  0  0  0
 10 14  1  0  0  0  0
 11 15  1  0  0  0  0
 11 10  1  0  0  0  0
 12 11  2  0  0  0  0
 13 12  1  0  0  0  0
 13  9  1  0  0  0  0
 16 17  1  0  0  0  0
 17 18  2  0  0  0  0
 17 23  1  0  0  0  0
 18 24  1  0  0  0  0
 19 18  1  0  0  0  0
 20 19  2  0  0  0  0
 21 20  1  0  0  0  0
 21 16  2  0  0  0  0
 22 16  1  0  0  0  0
 25 26  2  0  0  0  0
 25  5  1  0  0  0  0
 27 33  1  0  0  0  0
 27 25  1  1  0  0  0
 28 27  1  0  0  0  0
 28 30  1  0  0  0  0
 29 28  1  0  0  0  0
 30 32  1  0  0  0  0
 31 30  1  0  0  0  0
 33 32  1  0  0  0  0
 34 33  1  0  0  0  0
M  END
>  <minimizedAffinity>
-6.03054333

>  <minimizedRMSD>
1.15688801

$$$$
