
 OpenBabel03212520563D

 34 37  0  0  1  0  0  0  0  0999 V2000
   39.6010   76.9530   59.4120 C   0  0  0  0  0  0  0  0  0  0  0  0
   40.0410   75.6700   59.4050 C   0  0  0  0  0  0  0  0  0  0  0  0
   39.4990   74.9090   58.3570 C   0  0  0  0  0  0  0  0  0  0  0  0
   38.6370   75.3840   57.4480 N   0  0  0  0  0  0  0  0  0  0  0  0
   38.2500   76.6870   57.5310 C   0  0  0  0  0  0  0  0  0  0  0  0
   38.7400   77.4730   58.5240 N   0  0  0  0  0  0  0  0  0  0  0  0
   40.7220   75.2380   60.0980 H   0  0  0  0  0  0  0  0  0  0  0  0
   39.7920   73.8550   58.2630 H   0  0  0  0  0  0  0  0  0  0  0  0
   40.9090   80.0560   61.7190 C   0  0  0  0  0  0  0  0  0  0  0  0
   40.8000   78.8750   62.4300 C   0  0  0  0  0  0  0  0  0  0  0  0
   40.3790   77.7750   61.7790 C   0  0  0  0  0  0  0  0  0  0  0  0
   40.0680   77.8570   60.4290 C   0  0  0  0  0  0  0  0  0  0  0  0
   40.3960   79.6410   60.0300 S   0  0  0  0  0  0  0  0  0  0  0  0
   41.0450   78.8140   63.4920 H   0  0  0  0  0  0  0  0  0  0  0  0
   40.2330   76.7730   62.1570 H   0  0  0  0  0  0  0  0  0  0  0  0
   43.1010   82.8680   62.5740 C   0  0  0  0  0  0  0  0  0  0  0  0
   42.2510   83.7050   63.3570 C   0  0  0  0  0  0  0  0  0  0  0  0
   40.9430   83.2930   63.5760 C   0  0  0  0  0  0  0  0  0  0  0  0
   40.5410   82.1180   63.0390 N   0  0  0  0  0  0  0  0  0  0  0  0
   41.3620   81.3480   62.3050 C   0  0  0  0  0  0  0  0  0  0  0  0
   42.6130   81.7220   62.0830 N   0  0  0  0  0  0  0  0  0  0  0  0
   44.1150   83.2080   62.4160 H   0  0  0  0  0  0  0  0  0  0  0  0
   42.5920   84.6460   63.7800 H   0  0  0  0  0  0  0  0  0  0  0  0
   40.2370   83.8800   64.1630 H   0  0  0  0  0  0  0  0  0  0  0  0
   37.3190   77.1890   56.5460 C   0  0  0  0  0  0  0  0  0  0  0  0
   36.0870   76.9870   56.7680 O   0  0  0  0  0  0  0  0  0  0  0  0
   37.8220   77.9000   55.3410 C   0  0  1  0  0  3  0  0  0  0  0  0
   38.9480   77.0740   54.7060 C   0  0  0  0  0  3  0  0  0  0  0  0
   39.5480   77.7280   54.0480 H   0  0  0  0  0  0  0  0  0  0  0  0
   38.1140   76.0660   53.9530 C   0  0  0  0  0  3  0  0  0  0  0  0
   38.5440   75.7740   52.9770 H   0  0  0  0  0  0  0  0  0  0  0  0
   36.8210   76.5400   53.8640 O   0  0  0  0  0  0  0  0  0  0  0  0
   36.8330   77.8800   54.1950 C   0  0  0  0  0  3  0  0  0  0  0  0
   37.3290   78.4100   53.3600 H   0  0  0  0  0  0  0  0  0  0  0  0
  1 12  1  0  0  0  0
  2  1  1  0  0  0  0
  2  7  1  0  0  0  0
  3  2  2  0  0  0  0
  4  5  2  0  0  0  0
  4  3  1  0  0  0  0
  5  6  1  0  0  0  0
  6  1  2  0  0  0  0
  8  3  1  0  0  0  0
  9 20  1  0  0  0  0
  9 10  2  0  0  0  0
 10 14  1  0  0  0  0
 11 15  1  0  0  0  0
 11 10  1  0  0  0  0
 12 11  2  0  0  0  0
 13 12  1  0  0  0  0
 13  9  1  0  0  0  0
 16 17  1  0  0  0  0
 17 18  2  0  0  0  0
 17 23  1  0  0  0  0
 18 24  1  0  0  0  0
 19 18  1  0  0  0  0
 20 19  2  0  0  0  0
 21 20  1  0  0  0  0
 21 16  2  0  0  0  0
 22 16  1  0  0  0  0
 25 26  2  0  0  0  0
 25  5  1  0  0  0  0
 27 25  1  1  0  0  0
 28 27  1  0  0  0  0
 29 28  1  0  0  0  0
 30 28  1  0  0  0  0
 31 30  1  0  0  0  0
 32 30  1  0  0  0  0
 32 33  1  0  0  0  0
 33 27  1  0  0  0  0
 34 33  1  0  0  0  0
M  END
>  <minimizedAffinity>
-6.06631041

>  <minimizedRMSD>
0.704619527

$$$$
