
 OpenBabel03212520563D

 34 37  0  0  1  0  0  0  0  0999 V2000
   39.7960   77.6850   59.1960 C   0  0  0  0  0  0  0  0  0  0  0  0
   40.2000   76.3930   59.1040 C   0  0  0  0  0  0  0  0  0  0  0  0
   39.6990   75.7400   57.9660 C   0  0  0  0  0  0  0  0  0  0  0  0
   38.9050   76.3180   57.0540 N   0  0  0  0  0  0  0  0  0  0  0  0
   38.5510   77.6210   57.2270 C   0  0  0  0  0  0  0  0  0  0  0  0
   39.0030   78.3040   58.3090 N   0  0  0  0  0  0  0  0  0  0  0  0
   40.8270   75.8820   59.7940 H   0  0  0  0  0  0  0  0  0  0  0  0
   39.9670   74.6890   57.8000 H   0  0  0  0  0  0  0  0  0  0  0  0
   40.9540   80.5580   61.8520 C   0  0  0  0  0  0  0  0  0  0  0  0
   40.9420   79.2940   62.4110 C   0  0  0  0  0  0  0  0  0  0  0  0
   40.5770   78.2560   61.6340 C   0  0  0  0  0  0  0  0  0  0  0  0
   40.2280   78.4850   60.3110 C   0  0  0  0  0  0  0  0  0  0  0  0
   40.4280   80.3230   60.1340 S   0  0  0  0  0  0  0  0  0  0  0  0
   41.2170   79.1170   63.4530 H   0  0  0  0  0  0  0  0  0  0  0  0
   40.5070   77.2080   61.8850 H   0  0  0  0  0  0  0  0  0  0  0  0
   43.0060   83.3350   63.0880 C   0  0  0  0  0  0  0  0  0  0  0  0
   42.0950   84.0560   63.9170 C   0  0  0  0  0  0  0  0  0  0  0  0
   40.7970   83.5790   64.0370 C   0  0  0  0  0  0  0  0  0  0  0  0
   40.4590   82.4560   63.3640 N   0  0  0  0  0  0  0  0  0  0  0  0
   41.3370   81.7950   62.5890 C   0  0  0  0  0  0  0  0  0  0  0  0
   42.5800   82.2320   62.4590 N   0  0  0  0  0  0  0  0  0  0  0  0
   44.0120   83.7230   63.0090 H   0  0  0  0  0  0  0  0  0  0  0  0
   42.3850   84.9570   64.4510 H   0  0  0  0  0  0  0  0  0  0  0  0
   40.0470   84.0780   64.6520 H   0  0  0  0  0  0  0  0  0  0  0  0
   37.6930   78.2330   56.2370 C   0  0  0  0  0  0  0  0  0  0  0  0
   36.8310   77.4850   55.6840 O   0  0  0  0  0  0  0  0  0  0  0  0
   37.8470   79.6750   55.9090 C   0  0  1  0  0  3  0  0  0  0  0  0
   39.3260   79.9690   55.6300 C   0  0  0  0  0  3  0  0  0  0  0  0
   39.5040   81.0550   55.7320 H   0  0  0  0  0  0  0  0  0  0  0  0
   39.4100   79.4760   54.2060 C   0  0  0  0  0  3  0  0  0  0  0  0
   40.0780   80.0790   53.5660 H   0  0  0  0  0  0  0  0  0  0  0  0
   38.1290   79.3570   53.7050 O   0  0  0  0  0  0  0  0  0  0  0  0
   37.2740   80.0320   54.5520 C   0  0  0  0  0  3  0  0  0  0  0  0
   37.4730   81.1100   54.4160 H   0  0  0  0  0  0  0  0  0  0  0  0
  1 12  1  0  0  0  0
  2  1  1  0  0  0  0
  2  7  1  0  0  0  0
  3  2  2  0  0  0  0
  4  5  2  0  0  0  0
  4  3  1  0  0  0  0
  5  6  1  0  0  0  0
  6  1  2  0  0  0  0
  8  3  1  0  0  0  0
  9 10  2  0  0  0  0
  9 20  1  0  0  0  0
 10 14  1  0  0  0  0
 11 15  1  0  0  0  0
 11 10  1  0  0  0  0
 12 11  2  0  0  0  0
 13 12  1  0  0  0  0
 13  9  1  0  0  0  0
 16 17  1  0  0  0  0
 17 18  2  0  0  0  0
 17 23  1  0  0  0  0
 18 24  1  0  0  0  0
 19 18  1  0  0  0  0
 20 19  2  0  0  0  0
 21 20  1  0  0  0  0
 21 16  2  0  0  0  0
 22 16  1  0  0  0  0
 25  5  1  0  0  0  0
 26 25  2  0  0  0  0
 27 25  1  6  0  0  0
 28 29  1  0  0  0  0
 28 27  1  0  0  0  0
 30 28  1  0  0  0  0
 31 30  1  0  0  0  0
 32 30  1  0  0  0  0
 32 33  1  0  0  0  0
 33 27  1  0  0  0  0
 34 33  1  0  0  0  0
M  END
>  <minimizedAffinity>
-5.94586277

>  <minimizedRMSD>
1.45742404

$$$$
