
 OpenBabel03212520553D

 34 37  0  0  1  0  0  0  0  0999 V2000
   39.9510   77.5550   59.3280 C   0  0  0  0  0  0  0  0  0  0  0  0
   40.4840   76.3110   59.2320 C   0  0  0  0  0  0  0  0  0  0  0  0
   40.0280   75.6030   58.1070 C   0  0  0  0  0  0  0  0  0  0  0  0
   39.1590   76.0900   57.2120 N   0  0  0  0  0  0  0  0  0  0  0  0
   38.6750   77.3510   57.3870 C   0  0  0  0  0  0  0  0  0  0  0  0
   39.0790   78.0840   58.4570 N   0  0  0  0  0  0  0  0  0  0  0  0
   41.1760   75.8720   59.9090 H   0  0  0  0  0  0  0  0  0  0  0  0
   40.4000   74.5840   57.9390 H   0  0  0  0  0  0  0  0  0  0  0  0
   40.9840   80.5370   61.9160 C   0  0  0  0  0  0  0  0  0  0  0  0
   40.9080   79.3020   62.5320 C   0  0  0  0  0  0  0  0  0  0  0  0
   40.5770   78.2330   61.7830 C   0  0  0  0  0  0  0  0  0  0  0  0
   40.3220   78.4020   60.4290 C   0  0  0  0  0  0  0  0  0  0  0  0
   40.5700   80.2250   60.1780 S   0  0  0  0  0  0  0  0  0  0  0  0
   41.1080   79.1730   63.5980 H   0  0  0  0  0  0  0  0  0  0  0  0
   40.4680   77.2000   62.0790 H   0  0  0  0  0  0  0  0  0  0  0  0
   42.9770   83.3880   63.0730 C   0  0  0  0  0  0  0  0  0  0  0  0
   42.0510   84.1150   63.8790 C   0  0  0  0  0  0  0  0  0  0  0  0
   40.7610   83.6180   64.0100 C   0  0  0  0  0  0  0  0  0  0  0  0
   40.4470   82.4680   63.3690 N   0  0  0  0  0  0  0  0  0  0  0  0
   41.3400   81.8020   62.6160 C   0  0  0  0  0  0  0  0  0  0  0  0
   42.5750   82.2590   62.4770 N   0  0  0  0  0  0  0  0  0  0  0  0
   43.9760   83.7930   62.9850 H   0  0  0  0  0  0  0  0  0  0  0  0
   42.3210   85.0380   64.3860 H   0  0  0  0  0  0  0  0  0  0  0  0
   40.0000   84.1190   64.6080 H   0  0  0  0  0  0  0  0  0  0  0  0
   37.7370   77.8650   56.4150 C   0  0  0  0  0  0  0  0  0  0  0  0
   36.5050   77.7560   56.6950 O   0  0  0  0  0  0  0  0  0  0  0  0
   38.2330   78.4830   55.1570 C   0  0  1  0  0  3  0  0  0  0  0  0
   37.1270   79.3630   54.5650 C   0  0  0  0  0  3  0  0  0  0  0  0
   37.3390   79.5390   53.4940 H   0  0  0  0  0  0  0  0  0  0  0  0
   37.3040   80.5920   55.4220 C   0  0  0  0  0  3  0  0  0  0  0  0
   37.1350   81.5410   54.8810 H   0  0  0  0  0  0  0  0  0  0  0  0
   38.5390   80.5260   56.0380 O   0  0  0  0  0  0  0  0  0  0  0  0
   39.2810   79.5500   55.4030 C   0  0  0  0  0  3  0  0  0  0  0  0
   39.5450   79.9480   54.4060 H   0  0  0  0  0  0  0  0  0  0  0  0
  1 12  1  0  0  0  0
  2  1  1  0  0  0  0
  2  7  1  0  0  0  0
  3  2  2  0  0  0  0
  4  5  2  0  0  0  0
  4  3  1  0  0  0  0
  5  6  1  0  0  0  0
  6  1  2  0  0  0  0
  8  3  1  0  0  0  0
  9 10  2  0  0  0  0
  9 20  1  0  0  0  0
 10 14  1  0  0  0  0
 11 15  1  0  0  0  0
 11 10  1  0  0  0  0
 12 11  2  0  0  0  0
 13 12  1  0  0  0  0
 13  9  1  0  0  0  0
 16 17  1  0  0  0  0
 17 18  2  0  0  0  0
 17 23  1  0  0  0  0
 18 24  1  0  0  0  0
 19 18  1  0  0  0  0
 20 19  2  0  0  0  0
 21 20  1  0  0  0  0
 21 16  2  0  0  0  0
 22 16  1  0  0  0  0
 25 26  2  0  0  0  0
 25  5  1  0  0  0  0
 27 33  1  0  0  0  0
 27 25  1  1  0  0  0
 28 27  1  0  0  0  0
 28 30  1  0  0  0  0
 29 28  1  0  0  0  0
 30 32  1  0  0  0  0
 31 30  1  0  0  0  0
 33 32  1  0  0  0  0
 34 33  1  0  0  0  0
M  END
>  <minimizedAffinity>
-6.04788351

>  <minimizedRMSD>
1.39489937

$$$$
