
 OpenBabel03212520573D

 34 37  0  0  1  0  0  0  0  0999 V2000
   39.1490   76.3930   58.7580 C   0  0  0  0  0  0  0  0  0  0  0  0
   39.7580   77.5880   58.9630 C   0  0  0  0  0  0  0  0  0  0  0  0
   39.4090   78.5540   58.0050 C   0  0  0  0  0  0  0  0  0  0  0  0
   38.5650   78.3370   56.9880 N   0  0  0  0  0  0  0  0  0  0  0  0
   37.9990   77.1050   56.8590 C   0  0  0  0  0  0  0  0  0  0  0  0
   38.2970   76.1300   57.7550 N   0  0  0  0  0  0  0  0  0  0  0  0
   40.4340   77.8190   59.7500 H   0  0  0  0  0  0  0  0  0  0  0  0
   39.8500   79.5560   58.0820 H   0  0  0  0  0  0  0  0  0  0  0  0
   40.5730   73.2460   60.9310 C   0  0  0  0  0  0  0  0  0  0  0  0
   39.3120   73.6420   61.3350 C   0  0  0  0  0  0  0  0  0  0  0  0
   38.7300   74.6730   60.6930 C   0  0  0  0  0  0  0  0  0  0  0  0
   39.4070   75.3010   59.6580 C   0  0  0  0  0  0  0  0  0  0  0  0
   41.0070   74.3630   59.5700 S   0  0  0  0  0  0  0  0  0  0  0  0
   38.7820   73.1460   62.1510 H   0  0  0  0  0  0  0  0  0  0  0  0
   37.7620   75.1220   60.8610 H   0  0  0  0  0  0  0  0  0  0  0  0
   43.0340   70.5540   61.3060 C   0  0  0  0  0  0  0  0  0  0  0  0
   42.7640   70.0600   62.6180 C   0  0  0  0  0  0  0  0  0  0  0  0
   41.7460   70.6580   63.3490 C   0  0  0  0  0  0  0  0  0  0  0  0
   41.0610   71.6770   62.7830 N   0  0  0  0  0  0  0  0  0  0  0  0
   41.3350   72.1230   61.5450 C   0  0  0  0  0  0  0  0  0  0  0  0
   42.3010   71.5690   60.8300 N   0  0  0  0  0  0  0  0  0  0  0  0
   43.8300   70.0740   60.7540 H   0  0  0  0  0  0  0  0  0  0  0  0
   43.3260   69.2390   63.0560 H   0  0  0  0  0  0  0  0  0  0  0  0
   41.4840   70.3340   64.3570 H   0  0  0  0  0  0  0  0  0  0  0  0
   37.0900   76.8830   55.7570 C   0  0  0  0  0  0  0  0  0  0  0  0
   36.0970   77.6660   55.6670 O   0  0  0  0  0  0  0  0  0  0  0  0
   37.3420   75.7760   54.7970 C   0  0  1  0  0  3  0  0  0  0  0  0
   36.5250   76.0240   53.5240 C   0  0  0  0  0  3  0  0  0  0  0  0
   36.4260   75.0730   52.9680 H   0  0  0  0  0  0  0  0  0  0  0  0
   37.4280   77.0250   52.8460 C   0  0  0  0  0  3  0  0  0  0  0  0
   37.4650   76.9170   51.7460 H   0  0  0  0  0  0  0  0  0  0  0  0
   38.6720   76.9740   53.4450 O   0  0  0  0  0  0  0  0  0  0  0  0
   38.7340   75.8220   54.2030 C   0  0  0  0  0  3  0  0  0  0  0  0
   38.7870   74.9750   53.4940 H   0  0  0  0  0  0  0  0  0  0  0  0
  1  2  1  0  0  0  0
  1 12  1  0  0  0  0
  2  7  1  0  0  0  0
  3  8  1  0  0  0  0
  3  2  2  0  0  0  0
  4  3  1  0  0  0  0
  5  4  2  0  0  0  0
  5  6  1  0  0  0  0
  6  1  2  0  0  0  0
  9 10  2  0  0  0  0
  9 20  1  0  0  0  0
 10 14  1  0  0  0  0
 11 15  1  0  0  0  0
 11 10  1  0  0  0  0
 12 11  2  0  0  0  0
 13 12  1  0  0  0  0
 13  9  1  0  0  0  0
 16 17  1  0  0  0  0
 17 23  1  0  0  0  0
 17 18  2  0  0  0  0
 18 24  1  0  0  0  0
 19 18  1  0  0  0  0
 20 19  2  0  0  0  0
 21 16  2  0  0  0  0
 21 20  1  0  0  0  0
 22 16  1  0  0  0  0
 25  5  1  0  0  0  0
 26 25  2  0  0  0  0
 27 25  1  1  0  0  0
 28 27  1  0  0  0  0
 29 28  1  0  0  0  0
 30 32  1  0  0  0  0
 30 28  1  0  0  0  0
 31 30  1  0  0  0  0
 32 33  1  0  0  0  0
 33 27  1  0  0  0  0
 34 33  1  0  0  0  0
M  END
>  <minimizedAffinity>
-6.52204418

$$$$

 OpenBabel03212520573D

 34 37  0  0  1  0  0  0  0  0999 V2000
   42.2800   71.1650   60.8570 C   0  0  0  0  0  0  0  0  0  0  0  0
   43.4010   71.0250   60.1050 C   0  0  0  0  0  0  0  0  0  0  0  0
   44.0350   69.7860   60.2890 C   0  0  0  0  0  0  0  0  0  0  0  0
   43.5930   68.8280   61.1160 N   0  0  0  0  0  0  0  0  0  0  0  0
   42.4570   69.0550   61.8320 C   0  0  0  0  0  0  0  0  0  0  0  0
   41.8000   70.2350   61.6960 N   0  0  0  0  0  0  0  0  0  0  0  0
   43.7990   71.7470   59.4340 H   0  0  0  0  0  0  0  0  0  0  0  0
   44.9530   69.5740   59.7260 H   0  0  0  0  0  0  0  0  0  0  0  0
   40.6160   74.8000   60.0370 C   0  0  0  0  0  0  0  0  0  0  0  0
   39.9830   74.1490   61.0800 C   0  0  0  0  0  0  0  0  0  0  0  0
   40.4400   72.9380   61.4490 C   0  0  0  0  0  0  0  0  0  0  0  0
   41.5210   72.3840   60.7770 C   0  0  0  0  0  0  0  0  0  0  0  0
   41.9390   73.6770   59.5120 S   0  0  0  0  0  0  0  0  0  0  0  0
   39.1320   74.5880   61.6060 H   0  0  0  0  0  0  0  0  0  0  0  0
   40.0830   72.2830   62.2310 H   0  0  0  0  0  0  0  0  0  0  0  0
   38.9850   77.3550   57.9740 C   0  0  0  0  0  0  0  0  0  0  0  0
   39.4670   78.5730   58.5390 C   0  0  0  0  0  0  0  0  0  0  0  0
   40.3400   78.4970   59.6170 C   0  0  0  0  0  0  0  0  0  0  0  0
   40.6910   77.2750   60.0760 N   0  0  0  0  0  0  0  0  0  0  0  0
   40.2220   76.1410   59.5240 C   0  0  0  0  0  0  0  0  0  0  0  0
   39.3880   76.1900   58.4970 N   0  0  0  0  0  0  0  0  0  0  0  0
   38.3070   77.4360   57.1360 H   0  0  0  0  0  0  0  0  0  0  0  0
   39.1740   79.5470   58.1570 H   0  0  0  0  0  0  0  0  0  0  0  0
   40.7480   79.3850   60.1000 H   0  0  0  0  0  0  0  0  0  0  0  0
   41.9900   68.0150   62.7210 C   0  0  0  0  0  0  0  0  0  0  0  0
   42.5700   67.9210   63.8450 O   0  0  0  0  0  0  0  0  0  0  0  0
   40.8820   67.1180   62.3000 C   0  0  1  0  0  3  0  0  0  0  0  0
   41.1460   66.6360   60.8690 C   0  0  0  0  0  3  0  0  0  0  0  0
   40.1980   66.2730   60.4300 H   0  0  0  0  0  0  0  0  0  0  0  0
   42.1350   65.5340   61.1600 C   0  0  0  0  0  3  0  0  0  0  0  0
   42.0300   64.6550   60.4980 H   0  0  0  0  0  0  0  0  0  0  0  0
   42.0630   65.2210   62.5040 O   0  0  0  0  0  0  0  0  0  0  0  0
   40.9090   65.7820   63.0120 C   0  0  0  0  0  3  0  0  0  0  0  0
   40.0630   65.2020   62.5970 H   0  0  0  0  0  0  0  0  0  0  0  0
  1  6  1  0  0  0  0
  2  3  1  0  0  0  0
  2  1  2  0  0  0  0
  3  4  2  0  0  0  0
  4  5  1  0  0  0  0
  5 25  1  0  0  0  0
  6  5  2  0  0  0  0
  7  2  1  0  0  0  0
  8  3  1  0  0  0  0
  9 10  2  0  0  0  0
 10 11  1  0  0  0  0
 10 14  1  0  0  0  0
 11 15  1  0  0  0  0
 12  1  1  0  0  0  0
 12 11  2  0  0  0  0
 13  9  1  0  0  0  0
 13 12  1  0  0  0  0
 16 21  2  0  0  0  0
 16 17  1  0  0  0  0
 17 18  2  0  0  0  0
 18 19  1  0  0  0  0
 18 24  1  0  0  0  0
 20  9  1  0  0  0  0
 20 19  2  0  0  0  0
 21 20  1  0  0  0  0
 22 16  1  0  0  0  0
 23 17  1  0  0  0  0
 25 26  2  0  0  0  0
 27 25  1  1  0  0  0
 27 33  1  0  0  0  0
 28 30  1  0  0  0  0
 28 27  1  0  0  0  0
 29 28  1  0  0  0  0
 30 32  1  0  0  0  0
 31 30  1  0  0  0  0
 32 33  1  0  0  0  0
 34 33  1  0  0  0  0
M  END
>  <minimizedAffinity>
-6.13076162

$$$$

 OpenBabel03212520573D

 34 37  0  0  1  0  0  0  0  0999 V2000
   42.5780   73.1590   60.4270 C   0  0  0  0  0  0  0  0  0  0  0  0
   43.8270   73.6860   60.3820 C   0  0  0  0  0  0  0  0  0  0  0  0
   43.9330   74.7750   59.5020 C   0  0  0  0  0  0  0  0  0  0  0  0
   42.9160   75.2570   58.7730 N   0  0  0  0  0  0  0  0  0  0  0  0
   41.6950   74.6650   58.8820 C   0  0  0  0  0  0  0  0  0  0  0  0
   41.5320   73.6070   59.7170 N   0  0  0  0  0  0  0  0  0  0  0  0
   44.6700   73.3480   60.9350 H   0  0  0  0  0  0  0  0  0  0  0  0
   44.9050   75.2730   59.3920 H   0  0  0  0  0  0  0  0  0  0  0  0
   41.8120   69.5570   62.1860 C   0  0  0  0  0  0  0  0  0  0  0  0
   41.9160   70.5850   63.1050 C   0  0  0  0  0  0  0  0  0  0  0  0
   42.1670   71.8260   62.6490 C   0  0  0  0  0  0  0  0  0  0  0  0
   42.3130   72.0350   61.2840 C   0  0  0  0  0  0  0  0  0  0  0  0
   42.0770   70.3360   60.5710 S   0  0  0  0  0  0  0  0  0  0  0  0
   41.8010   70.4170   64.1780 H   0  0  0  0  0  0  0  0  0  0  0  0
   42.2810   72.7470   63.2030 H   0  0  0  0  0  0  0  0  0  0  0  0
   40.2930   66.6540   63.8330 C   0  0  0  0  0  0  0  0  0  0  0  0
   40.9890   65.5570   63.2440 C   0  0  0  0  0  0  0  0  0  0  0  0
   41.9640   65.8300   62.2940 C   0  0  0  0  0  0  0  0  0  0  0  0
   42.2070   67.1220   61.9750 N   0  0  0  0  0  0  0  0  0  0  0  0
   41.5360   68.1380   62.5450 C   0  0  0  0  0  0  0  0  0  0  0  0
   40.6020   67.9000   63.4530 N   0  0  0  0  0  0  0  0  0  0  0  0
   39.5380   66.4190   64.5700 H   0  0  0  0  0  0  0  0  0  0  0  0
   40.7800   64.5250   63.5130 H   0  0  0  0  0  0  0  0  0  0  0  0
   42.5360   65.0430   61.8020 H   0  0  0  0  0  0  0  0  0  0  0  0
   40.6070   75.1930   58.0910 C   0  0  0  0  0  0  0  0  0  0  0  0
   40.7860   75.2510   56.8370 O   0  0  0  0  0  0  0  0  0  0  0  0
   39.3520   75.6370   58.7540 C   0  0  1  0  0  3  0  0  0  0  0  0
   39.7050   76.5890   59.9020 C   0  0  0  0  0  3  0  0  0  0  0  0
   38.8490   76.6450   60.6000 H   0  0  0  0  0  0  0  0  0  0  0  0
   39.9190   77.8560   59.1120 C   0  0  0  0  0  3  0  0  0  0  0  0
   39.5730   78.7690   59.6310 H   0  0  0  0  0  0  0  0  0  0  0  0
   39.3630   77.6940   57.8580 O   0  0  0  0  0  0  0  0  0  0  0  0
   38.5420   76.5850   57.8950 C   0  0  0  0  0  3  0  0  0  0  0  0
   37.6590   76.8620   58.5020 H   0  0  0  0  0  0  0  0  0  0  0  0
  1 12  1  0  0  0  0
  2  1  1  0  0  0  0
  2  7  1  0  0  0  0
  3  2  2  0  0  0  0
  4  5  2  0  0  0  0
  4  3  1  0  0  0  0
  5  6  1  0  0  0  0
  6  1  2  0  0  0  0
  8  3  1  0  0  0  0
  9 20  1  0  0  0  0
  9 10  2  0  0  0  0
 10 14  1  0  0  0  0
 11 10  1  0  0  0  0
 11 15  1  0  0  0  0
 12 11  2  0  0  0  0
 13 12  1  0  0  0  0
 13  9  1  0  0  0  0
 16 22  1  0  0  0  0
 17 23  1  0  0  0  0
 17 16  2  0  0  0  0
 18 17  1  0  0  0  0
 19 18  2  0  0  0  0
 19 20  1  0  0  0  0
 20 21  2  0  0  0  0
 21 16  1  0  0  0  0
 24 18  1  0  0  0  0
 25  5  1  0  0  0  0
 26 25  2  0  0  0  0
 27 25  1  6  0  0  0
 27 28  1  0  0  0  0
 28 29  1  0  0  0  0
 30 31  1  0  0  0  0
 30 28  1  0  0  0  0
 32 33  1  0  0  0  0
 32 30  1  0  0  0  0
 33 34  1  0  0  0  0
 33 27  1  0  0  0  0
M  END
>  <minimizedAffinity>
-6.129848

$$$$

 OpenBabel03212520573D

 34 37  0  0  1  0  0  0  0  0999 V2000
   42.5220   73.3880   60.5590 C   0  0  0  0  0  0  0  0  0  0  0  0
   43.7860   73.6700   60.1560 C   0  0  0  0  0  0  0  0  0  0  0  0
   43.8700   74.8450   59.3920 C   0  0  0  0  0  0  0  0  0  0  0  0
   42.8220   75.6200   59.0830 N   0  0  0  0  0  0  0  0  0  0  0  0
   41.5880   75.2610   59.5310 C   0  0  0  0  0  0  0  0  0  0  0  0
   41.4430   74.1340   60.2740 N   0  0  0  0  0  0  0  0  0  0  0  0
   44.6540   73.0940   60.3690 H   0  0  0  0  0  0  0  0  0  0  0  0
   44.8520   75.1610   59.0160 H   0  0  0  0  0  0  0  0  0  0  0  0
   41.8490   69.6740   62.1110 C   0  0  0  0  0  0  0  0  0  0  0  0
   41.8740   70.6580   63.0820 C   0  0  0  0  0  0  0  0  0  0  0  0
   42.0870   71.9300   62.6960 C   0  0  0  0  0  0  0  0  0  0  0  0
   42.2750   72.2130   61.3500 C   0  0  0  0  0  0  0  0  0  0  0  0
   42.1390   70.5430   60.5470 S   0  0  0  0  0  0  0  0  0  0  0  0
   41.7270   70.4330   64.1400 H   0  0  0  0  0  0  0  0  0  0  0  0
   42.1400   72.8260   63.2980 H   0  0  0  0  0  0  0  0  0  0  0  0
   41.0630   66.6040   63.9570 C   0  0  0  0  0  0  0  0  0  0  0  0
   41.1980   65.5930   62.9590 C   0  0  0  0  0  0  0  0  0  0  0  0
   41.5540   65.9800   61.6740 C   0  0  0  0  0  0  0  0  0  0  0  0
   41.7560   67.2950   61.4310 N   0  0  0  0  0  0  0  0  0  0  0  0
   41.6230   68.2280   62.3890 C   0  0  0  0  0  0  0  0  0  0  0  0
   41.2840   67.8820   63.6220 N   0  0  0  0  0  0  0  0  0  0  0  0
   40.7860   66.2810   64.9500 H   0  0  0  0  0  0  0  0  0  0  0  0
   41.0310   64.5400   63.1730 H   0  0  0  0  0  0  0  0  0  0  0  0
   41.6740   65.2630   60.8610 H   0  0  0  0  0  0  0  0  0  0  0  0
   40.4650   76.1040   59.1920 C   0  0  0  0  0  0  0  0  0  0  0  0
   39.8640   76.6720   60.1530 O   0  0  0  0  0  0  0  0  0  0  0  0
   40.0630   76.2720   57.7700 C   0  0  1  0  0  3  0  0  0  0  0  0
   40.0160   74.8950   57.0980 C   0  0  0  0  0  3  0  0  0  0  0  0
   40.0660   75.0270   56.0010 H   0  0  0  0  0  0  0  0  0  0  0  0
   38.6660   74.4310   57.5870 C   0  0  0  0  0  3  0  0  0  0  0  0
   38.1030   73.8380   56.8430 H   0  0  0  0  0  0  0  0  0  0  0  0
   37.9670   75.5260   58.0580 O   0  0  0  0  0  0  0  0  0  0  0  0
   38.6080   76.6650   57.6160 C   0  0  0  0  0  3  0  0  0  0  0  0
   38.4280   76.7310   56.5270 H   0  0  0  0  0  0  0  0  0  0  0  0
  1 12  1  0  0  0  0
  2  7  1  0  0  0  0
  2  1  2  0  0  0  0
  3  2  1  0  0  0  0
  4  3  2  0  0  0  0
  4  5  1  0  0  0  0
  5  6  2  0  0  0  0
  6  1  1  0  0  0  0
  8  3  1  0  0  0  0
  9 20  1  0  0  0  0
  9 10  2  0  0  0  0
 10 14  1  0  0  0  0
 11 10  1  0  0  0  0
 11 15  1  0  0  0  0
 12 11  2  0  0  0  0
 13 12  1  0  0  0  0
 13  9  1  0  0  0  0
 16 22  1  0  0  0  0
 17 23  1  0  0  0  0
 17 16  2  0  0  0  0
 18 17  1  0  0  0  0
 19 18  2  0  0  0  0
 19 20  1  0  0  0  0
 20 21  2  0  0  0  0
 21 16  1  0  0  0  0
 24 18  1  0  0  0  0
 25  5  1  0  0  0  0
 25 26  2  0  0  0  0
 27 25  1  1  0  0  0
 28 30  1  0  0  0  0
 28 27  1  0  0  0  0
 29 28  1  0  0  0  0
 30 32  1  0  0  0  0
 31 30  1  0  0  0  0
 33 27  1  0  0  0  0
 33 32  1  0  0  0  0
 34 33  1  0  0  0  0
M  END
>  <minimizedAffinity>
-6.10474157

$$$$

 OpenBabel03212520573D

 34 37  0  0  1  0  0  0  0  0999 V2000
   41.8600   70.6640   61.8540 C   0  0  0  0  0  0  0  0  0  0  0  0
   41.9040   70.7380   63.2080 C   0  0  0  0  0  0  0  0  0  0  0  0
   41.9120   69.4770   63.8260 C   0  0  0  0  0  0  0  0  0  0  0  0
   41.8810   68.3120   63.1650 N   0  0  0  0  0  0  0  0  0  0  0  0
   41.8370   68.3340   61.8040 C   0  0  0  0  0  0  0  0  0  0  0  0
   41.8270   69.5230   61.1490 N   0  0  0  0  0  0  0  0  0  0  0  0
   41.9310   71.6300   63.7860 H   0  0  0  0  0  0  0  0  0  0  0  0
   41.9470   69.4280   64.9220 H   0  0  0  0  0  0  0  0  0  0  0  0
   41.1430   74.2490   60.0380 C   0  0  0  0  0  0  0  0  0  0  0  0
   42.3110   73.6540   59.5960 C   0  0  0  0  0  0  0  0  0  0  0  0
   42.6590   72.4630   60.1190 C   0  0  0  0  0  0  0  0  0  0  0  0
   41.8450   71.8750   61.0780 C   0  0  0  0  0  0  0  0  0  0  0  0
   40.4620   73.1010   61.2640 S   0  0  0  0  0  0  0  0  0  0  0  0
   42.9500   74.1190   58.8420 H   0  0  0  0  0  0  0  0  0  0  0  0
   43.5220   71.8490   59.9050 H   0  0  0  0  0  0  0  0  0  0  0  0
   38.9260   76.7130   58.4710 C   0  0  0  0  0  0  0  0  0  0  0  0
   39.6510   77.9330   58.6260 C   0  0  0  0  0  0  0  0  0  0  0  0
   40.8830   77.8900   59.2640 C   0  0  0  0  0  0  0  0  0  0  0  0
   41.3360   76.6950   59.7060 N   0  0  0  0  0  0  0  0  0  0  0  0
   40.6340   75.5590   59.5480 C   0  0  0  0  0  0  0  0  0  0  0  0
   39.4560   75.5770   58.9430 N   0  0  0  0  0  0  0  0  0  0  0  0
   37.9700   76.7700   57.9710 H   0  0  0  0  0  0  0  0  0  0  0  0
   39.2700   78.8840   58.2640 H   0  0  0  0  0  0  0  0  0  0  0  0
   41.4920   78.7810   59.4180 H   0  0  0  0  0  0  0  0  0  0  0  0
   41.8030   67.0710   61.1010 C   0  0  0  0  0  0  0  0  0  0  0  0
   40.7470   66.3790   61.2200 O   0  0  0  0  0  0  0  0  0  0  0  0
   42.9710   66.6390   60.2900 C   0  0  1  0  0  3  0  0  0  0  0  0
   44.2410   66.7550   61.1410 C   0  0  0  0  0  3  0  0  0  0  0  0
   45.1220   66.7790   60.4730 H   0  0  0  0  0  0  0  0  0  0  0  0
   44.1220   65.4770   61.9340 C   0  0  0  0  0  3  0  0  0  0  0  0
   45.0910   64.9840   62.1330 H   0  0  0  0  0  0  0  0  0  0  0  0
   43.2060   64.6530   61.3080 O   0  0  0  0  0  0  0  0  0  0  0  0
   42.9870   65.1460   60.0370 C   0  0  0  0  0  3  0  0  0  0  0  0
   43.9070   64.9490   59.4550 H   0  0  0  0  0  0  0  0  0  0  0  0
  1  2  1  0  0  0  0
  2  7  1  0  0  0  0
  2  3  2  0  0  0  0
  3  8  1  0  0  0  0
  4  3  1  0  0  0  0
  5  4  2  0  0  0  0
  6  5  1  0  0  0  0
  6  1  2  0  0  0  0
  9 13  1  0  0  0  0
 10  9  2  0  0  0  0
 10 11  1  0  0  0  0
 11 12  2  0  0  0  0
 12 13  1  0  0  0  0
 12  1  1  0  0  0  0
 14 10  1  0  0  0  0
 15 11  1  0  0  0  0
 16 17  2  0  0  0  0
 16 21  1  0  0  0  0
 17 18  1  0  0  0  0
 18 24  1  0  0  0  0
 18 19  2  0  0  0  0
 20 19  1  0  0  0  0
 20  9  1  0  0  0  0
 21 20  2  0  0  0  0
 22 16  1  0  0  0  0
 23 17  1  0  0  0  0
 25 26  2  0  0  0  0
 25  5  1  0  0  0  0
 27 25  1  1  0  0  0
 27 28  1  0  0  0  0
 28 30  1  0  0  0  0
 29 28  1  0  0  0  0
 30 31  1  0  0  0  0
 32 30  1  0  0  0  0
 33 27  1  0  0  0  0
 33 32  1  0  0  0  0
 34 33  1  0  0  0  0
M  END
>  <minimizedAffinity>
-5.8004365

$$$$

 OpenBabel03212520573D

 34 37  0  0  1  0  0  0  0  0999 V2000
   42.3410   70.8580   61.8940 C   0  0  0  0  0  0  0  0  0  0  0  0
   41.8200   70.7550   63.1420 C   0  0  0  0  0  0  0  0  0  0  0  0
   42.0020   69.4830   63.7090 C   0  0  0  0  0  0  0  0  0  0  0  0
   42.6240   68.4660   63.0970 N   0  0  0  0  0  0  0  0  0  0  0  0
   43.1170   68.6610   61.8430 C   0  0  0  0  0  0  0  0  0  0  0  0
   42.9710   69.8690   61.2420 N   0  0  0  0  0  0  0  0  0  0  0  0
   41.3180   71.5240   63.6770 H   0  0  0  0  0  0  0  0  0  0  0  0
   41.6150   69.2950   64.7190 H   0  0  0  0  0  0  0  0  0  0  0  0
   41.2690   74.3520   60.0770 C   0  0  0  0  0  0  0  0  0  0  0  0
   42.6140   74.0670   59.9280 C   0  0  0  0  0  0  0  0  0  0  0  0
   43.0930   72.9380   60.4820 C   0  0  0  0  0  0  0  0  0  0  0  0
   42.2320   72.1030   61.1810 C   0  0  0  0  0  0  0  0  0  0  0  0
   40.5990   72.9770   61.0510 S   0  0  0  0  0  0  0  0  0  0  0  0
   43.2880   74.7270   59.3780 H   0  0  0  0  0  0  0  0  0  0  0  0
   44.1000   72.5480   60.4730 H   0  0  0  0  0  0  0  0  0  0  0  0
   40.6270   77.8740   59.2820 C   0  0  0  0  0  0  0  0  0  0  0  0
   39.4210   77.8110   58.5220 C   0  0  0  0  0  0  0  0  0  0  0  0
   38.8510   76.5650   58.2940 C   0  0  0  0  0  0  0  0  0  0  0  0
   39.4650   75.4740   58.8050 N   0  0  0  0  0  0  0  0  0  0  0  0
   40.6020   75.5610   59.5180 C   0  0  0  0  0  0  0  0  0  0  0  0
   41.1630   76.7380   59.7470 N   0  0  0  0  0  0  0  0  0  0  0  0
   41.0530   78.8530   59.4480 H   0  0  0  0  0  0  0  0  0  0  0  0
   38.9420   78.6990   58.1190 H   0  0  0  0  0  0  0  0  0  0  0  0
   37.9320   76.4400   57.7210 H   0  0  0  0  0  0  0  0  0  0  0  0
   43.7850   67.5560   61.1920 C   0  0  0  0  0  0  0  0  0  0  0  0
   44.9750   67.3130   61.5560 O   0  0  0  0  0  0  0  0  0  0  0  0
   43.0770   66.7690   60.1490 C   0  0  1  0  0  3  0  0  0  0  0  0
   43.9520   65.5780   59.7420 C   0  0  0  0  0  3  0  0  0  0  0  0
   43.6140   65.2020   58.7580 H   0  0  0  0  0  0  0  0  0  0  0  0
   43.6370   64.6420   60.8830 C   0  0  0  0  0  3  0  0  0  0  0  0
   43.5860   63.5780   60.5860 H   0  0  0  0  0  0  0  0  0  0  0  0
   42.4940   65.0900   61.5180 O   0  0  0  0  0  0  0  0  0  0  0  0
   41.8830   66.0140   60.6960 C   0  0  0  0  0  3  0  0  0  0  0  0
   41.4630   65.4530   59.8400 H   0  0  0  0  0  0  0  0  0  0  0  0
  1  2  1  0  0  0  0
  2  7  1  0  0  0  0
  2  3  2  0  0  0  0
  3  8  1  0  0  0  0
  4  3  1  0  0  0  0
  5  4  2  0  0  0  0
  6  5  1  0  0  0  0
  6  1  2  0  0  0  0
  9 13  1  0  0  0  0
 10  9  2  0  0  0  0
 10 11  1  0  0  0  0
 11 12  2  0  0  0  0
 12  1  1  0  0  0  0
 13 12  1  0  0  0  0
 14 10  1  0  0  0  0
 15 11  1  0  0  0  0
 16 22  1  0  0  0  0
 16 21  1  0  0  0  0
 17 16  2  0  0  0  0
 18 17  1  0  0  0  0
 18 19  2  0  0  0  0
 19 20  1  0  0  0  0
 20 21  2  0  0  0  0
 20  9  1  0  0  0  0
 23 17  1  0  0  0  0
 24 18  1  0  0  0  0
 25 26  2  0  0  0  0
 25  5  1  0  0  0  0
 27 33  1  0  0  0  0
 27 25  1  1  0  0  0
 28 27  1  0  0  0  0
 28 30  1  0  0  0  0
 29 28  1  0  0  0  0
 30 32  1  0  0  0  0
 31 30  1  0  0  0  0
 33 32  1  0  0  0  0
 34 33  1  0  0  0  0
M  END
>  <minimizedAffinity>
-5.7696476

$$$$

 OpenBabel03212520573D

 34 37  0  0  1  0  0  0  0  0999 V2000
   41.3070   71.8920   61.2290 C   0  0  0  0  0  0  0  0  0  0  0  0
   41.8040   72.0600   62.4800 C   0  0  0  0  0  0  0  0  0  0  0  0
   42.5710   70.9680   62.9190 C   0  0  0  0  0  0  0  0  0  0  0  0
   42.7980   69.8660   62.1910 N   0  0  0  0  0  0  0  0  0  0  0  0
   42.2590   69.7830   60.9440 C   0  0  0  0  0  0  0  0  0  0  0  0
   41.5080   70.8080   60.4650 N   0  0  0  0  0  0  0  0  0  0  0  0
   41.6580   72.9090   63.1030 H   0  0  0  0  0  0  0  0  0  0  0  0
   43.0180   71.0060   63.9200 H   0  0  0  0  0  0  0  0  0  0  0  0
   39.0770   74.3960   58.9030 C   0  0  0  0  0  0  0  0  0  0  0  0
   39.1950   74.8450   60.2060 C   0  0  0  0  0  0  0  0  0  0  0  0
   39.9090   74.1060   61.0740 C   0  0  0  0  0  0  0  0  0  0  0  0
   40.4990   72.9270   60.6420 C   0  0  0  0  0  0  0  0  0  0  0  0
   40.0100   72.8430   58.8520 S   0  0  0  0  0  0  0  0  0  0  0  0
   38.7290   75.7740   60.5430 H   0  0  0  0  0  0  0  0  0  0  0  0
   40.1140   74.2890   62.1200 H   0  0  0  0  0  0  0  0  0  0  0  0
   37.9810   77.0960   56.6770 C   0  0  0  0  0  0  0  0  0  0  0  0
   36.9660   76.4680   55.8950 C   0  0  0  0  0  0  0  0  0  0  0  0
   36.6760   75.1330   56.1440 C   0  0  0  0  0  0  0  0  0  0  0  0
   37.3680   74.4940   57.1140 N   0  0  0  0  0  0  0  0  0  0  0  0
   38.3210   75.1090   57.8360 C   0  0  0  0  0  0  0  0  0  0  0  0
   38.6140   76.3810   57.6160 N   0  0  0  0  0  0  0  0  0  0  0  0
   38.1910   78.1350   56.4670 H   0  0  0  0  0  0  0  0  0  0  0  0
   36.4200   76.9980   55.1190 H   0  0  0  0  0  0  0  0  0  0  0  0
   35.9140   74.5880   55.5860 H   0  0  0  0  0  0  0  0  0  0  0  0
   42.5110   68.5890   60.1680 C   0  0  0  0  0  0  0  0  0  0  0  0
   43.6230   68.5250   59.5630 O   0  0  0  0  0  0  0  0  0  0  0  0
   41.4880   67.5120   60.1070 C   0  0  1  0  0  3  0  0  0  0  0  0
   42.1690   66.1990   59.7060 C   0  0  0  0  0  3  0  0  0  0  0  0
   41.4040   65.4980   59.3240 H   0  0  0  0  0  0  0  0  0  0  0  0
   42.7370   65.7980   61.0460 C   0  0  0  0  0  3  0  0  0  0  0  0
   42.7160   64.7080   61.2310 H   0  0  0  0  0  0  0  0  0  0  0  0
   42.1040   66.5340   62.0300 O   0  0  0  0  0  0  0  0  0  0  0  0
   40.9800   67.1110   61.4760 C   0  0  0  0  0  3  0  0  0  0  0  0
   40.2550   66.2940   61.3010 H   0  0  0  0  0  0  0  0  0  0  0  0
  1  2  1  0  0  0  0
  2  3  2  0  0  0  0
  2  7  1  0  0  0  0
  3  8  1  0  0  0  0
  4  3  1  0  0  0  0
  5  4  2  0  0  0  0
  6  5  1  0  0  0  0
  6  1  2  0  0  0  0
  9 10  2  0  0  0  0
 10 14  1  0  0  0  0
 10 11  1  0  0  0  0
 11 15  1  0  0  0  0
 12 11  2  0  0  0  0
 12  1  1  0  0  0  0
 13  9  1  0  0  0  0
 13 12  1  0  0  0  0
 16 21  1  0  0  0  0
 17 18  1  0  0  0  0
 17 16  2  0  0  0  0
 18 19  2  0  0  0  0
 19 20  1  0  0  0  0
 20  9  1  0  0  0  0
 21 20  2  0  0  0  0
 22 16  1  0  0  0  0
 23 17  1  0  0  0  0
 24 18  1  0  0  0  0
 25  5  1  0  0  0  0
 26 25  2  0  0  0  0
 27 25  1  1  0  0  0
 27 33  1  0  0  0  0
 28 27  1  0  0  0  0
 28 30  1  0  0  0  0
 29 28  1  0  0  0  0
 30 31  1  0  0  0  0
 30 32  1  0  0  0  0
 33 32  1  0  0  0  0
 34 33  1  0  0  0  0
M  END
>  <minimizedAffinity>
-5.71801424

$$$$

 OpenBabel03212520573D

 34 37  0  0  1  0  0  0  0  0999 V2000
   42.0390   74.2620   59.6840 C   0  0  0  0  0  0  0  0  0  0  0  0
   43.2570   74.6030   59.1930 C   0  0  0  0  0  0  0  0  0  0  0  0
   43.1980   75.6370   58.2450 C   0  0  0  0  0  0  0  0  0  0  0  0
   42.0650   76.2360   57.8530 N   0  0  0  0  0  0  0  0  0  0  0  0
   40.8870   75.8300   58.4000 C   0  0  0  0  0  0  0  0  0  0  0  0
   40.8810   74.8340   59.3230 N   0  0  0  0  0  0  0  0  0  0  0  0
   44.1870   74.1650   59.4650 H   0  0  0  0  0  0  0  0  0  0  0  0
   44.1310   75.9860   57.7860 H   0  0  0  0  0  0  0  0  0  0  0  0
   42.1930   70.8790   61.9620 C   0  0  0  0  0  0  0  0  0  0  0  0
   41.4650   71.8900   62.5610 C   0  0  0  0  0  0  0  0  0  0  0  0
   41.3390   73.0600   61.9080 C   0  0  0  0  0  0  0  0  0  0  0  0
   41.9380   73.2160   60.6660 C   0  0  0  0  0  0  0  0  0  0  0  0
   42.7540   71.5720   60.3830 S   0  0  0  0  0  0  0  0  0  0  0  0
   40.9960   71.7650   63.5400 H   0  0  0  0  0  0  0  0  0  0  0  0
   40.8160   73.9570   62.2090 H   0  0  0  0  0  0  0  0  0  0  0  0
   41.6740   67.3410   62.7710 C   0  0  0  0  0  0  0  0  0  0  0  0
   42.7670   67.0530   63.6420 C   0  0  0  0  0  0  0  0  0  0  0  0
   43.6610   68.0730   63.9360 C   0  0  0  0  0  0  0  0  0  0  0  0
   43.4520   69.2900   63.3830 N   0  0  0  0  0  0  0  0  0  0  0  0
   42.4140   69.5350   62.5640 C   0  0  0  0  0  0  0  0  0  0  0  0
   41.5490   68.5770   62.2700 N   0  0  0  0  0  0  0  0  0  0  0  0
   40.9900   66.5320   62.5560 H   0  0  0  0  0  0  0  0  0  0  0  0
   42.9180   66.0680   64.0770 H   0  0  0  0  0  0  0  0  0  0  0  0
   44.5180   67.9260   64.5930 H   0  0  0  0  0  0  0  0  0  0  0  0
   39.6710   76.4830   57.9690 C   0  0  0  0  0  0  0  0  0  0  0  0
   39.0640   77.1880   58.8310 O   0  0  0  0  0  0  0  0  0  0  0  0
   39.1880   76.3110   56.5740 C   0  0  1  0  0  3  0  0  0  0  0  0
   39.0730   74.8130   56.2670 C   0  0  0  0  0  3  0  0  0  0  0  0
   39.0590   74.6700   55.1700 H   0  0  0  0  0  0  0  0  0  0  0  0
   37.7460   74.5290   56.9270 C   0  0  0  0  0  3  0  0  0  0  0  0
   37.1280   73.7910   56.3830 H   0  0  0  0  0  0  0  0  0  0  0  0
   37.0990   75.7290   57.1500 O   0  0  0  0  0  0  0  0  0  0  0  0
   37.7340   76.7020   56.4060 C   0  0  0  0  0  3  0  0  0  0  0  0
   37.4900   76.5050   55.3460 H   0  0  0  0  0  0  0  0  0  0  0  0
  1 12  1  0  0  0  0
  2  7  1  0  0  0  0
  2  1  2  0  0  0  0
  3  2  1  0  0  0  0
  4  3  2  0  0  0  0
  4  5  1  0  0  0  0
  5  6  2  0  0  0  0
  6  1  1  0  0  0  0
  8  3  1  0  0  0  0
  9 10  2  0  0  0  0
  9 20  1  0  0  0  0
 10 14  1  0  0  0  0
 11 15  1  0  0  0  0
 11 10  1  0  0  0  0
 12 11  2  0  0  0  0
 13 12  1  0  0  0  0
 13  9  1  0  0  0  0
 16 17  1  0  0  0  0
 17 18  2  0  0  0  0
 17 23  1  0  0  0  0
 18 24  1  0  0  0  0
 19 18  1  0  0  0  0
 20 19  2  0  0  0  0
 21 20  1  0  0  0  0
 21 16  2  0  0  0  0
 22 16  1  0  0  0  0
 25  5  1  0  0  0  0
 25 26  2  0  0  0  0
 27 25  1  1  0  0  0
 28 27  1  0  0  0  0
 28 30  1  0  0  0  0
 29 28  1  0  0  0  0
 30 32  1  0  0  0  0
 31 30  1  0  0  0  0
 33 27  1  0  0  0  0
 33 32  1  0  0  0  0
 34 33  1  0  0  0  0
M  END
>  <minimizedAffinity>
-5.68839407

$$$$

 OpenBabel03212520573D

 34 37  0  0  1  0  0  0  0  0999 V2000
   42.3050   73.2500   58.8790 C   0  0  0  0  0  0  0  0  0  0  0  0
   42.3600   73.0050   57.5460 C   0  0  0  0  0  0  0  0  0  0  0  0
   42.2300   74.1670   56.7670 C   0  0  0  0  0  0  0  0  0  0  0  0
   42.0680   75.3980   57.2710 N   0  0  0  0  0  0  0  0  0  0  0  0
   42.0240   75.5500   58.6240 C   0  0  0  0  0  0  0  0  0  0  0  0
   42.1440   74.4630   59.4280 N   0  0  0  0  0  0  0  0  0  0  0  0
   42.4870   72.0530   57.0890 H   0  0  0  0  0  0  0  0  0  0  0  0
   42.2610   74.0750   55.6740 H   0  0  0  0  0  0  0  0  0  0  0  0
   42.2090   69.7520   60.9790 C   0  0  0  0  0  0  0  0  0  0  0  0
   42.9200   70.7430   61.6310 C   0  0  0  0  0  0  0  0  0  0  0  0
   43.0240   71.9480   61.0400 C   0  0  0  0  0  0  0  0  0  0  0  0
   42.4230   72.1570   59.8060 C   0  0  0  0  0  0  0  0  0  0  0  0
   41.6360   70.5160   59.4380 S   0  0  0  0  0  0  0  0  0  0  0  0
   43.3920   70.5750   62.6010 H   0  0  0  0  0  0  0  0  0  0  0  0
   43.5300   72.8370   61.3870 H   0  0  0  0  0  0  0  0  0  0  0  0
   41.8260   67.0150   63.3880 C   0  0  0  0  0  0  0  0  0  0  0  0
   41.6520   65.8750   62.5460 C   0  0  0  0  0  0  0  0  0  0  0  0
   41.6670   66.0650   61.1710 C   0  0  0  0  0  0  0  0  0  0  0  0
   41.8480   67.3190   60.6970 N   0  0  0  0  0  0  0  0  0  0  0  0
   42.0100   68.3760   61.5120 C   0  0  0  0  0  0  0  0  0  0  0  0
   41.9980   68.2180   62.8270 N   0  0  0  0  0  0  0  0  0  0  0  0
   41.8110   66.8440   64.4560 H   0  0  0  0  0  0  0  0  0  0  0  0
   41.5070   64.8750   62.9460 H   0  0  0  0  0  0  0  0  0  0  0  0
   41.5400   65.2420   60.4670 H   0  0  0  0  0  0  0  0  0  0  0  0
   41.8480   76.8830   59.1560 C   0  0  0  0  0  0  0  0  0  0  0  0
   42.8700   77.4370   59.6610 O   0  0  0  0  0  0  0  0  0  0  0  0
   40.5150   77.5380   59.0960 C   0  0  1  0  0  3  0  0  0  0  0  0
   39.4390   76.5180   59.4870 C   0  0  0  0  0  3  0  0  0  0  0  0
   38.4580   76.8690   59.1180 H   0  0  0  0  0  0  0  0  0  0  0  0
   39.5760   76.5810   60.9880 C   0  0  0  0  0  3  0  0  0  0  0  0
   38.6150   76.4830   61.5270 H   0  0  0  0  0  0  0  0  0  0  0  0
   40.2770   77.7240   61.3190 O   0  0  0  0  0  0  0  0  0  0  0  0
   40.3070   78.5440   60.2090 C   0  0  0  0  0  3  0  0  0  0  0  0
   39.2820   78.9360   60.0730 H   0  0  0  0  0  0  0  0  0  0  0  0
  1  6  1  0  0  0  0
  1 12  1  0  0  0  0
  2  1  2  0  0  0  0
  3  4  2  0  0  0  0
  3  2  1  0  0  0  0
  4  5  1  0  0  0  0
  5 25  1  0  0  0  0
  5  6  2  0  0  0  0
  7  2  1  0  0  0  0
  8  3  1  0  0  0  0
  9 20  1  0  0  0  0
  9 10  2  0  0  0  0
 10 14  1  0  0  0  0
 11 15  1  0  0  0  0
 11 10  1  0  0  0  0
 12 11  2  0  0  0  0
 13 12  1  0  0  0  0
 13  9  1  0  0  0  0
 16 22  1  0  0  0  0
 17 23  1  0  0  0  0
 17 16  2  0  0  0  0
 18 17  1  0  0  0  0
 19 18  2  0  0  0  0
 19 20  1  0  0  0  0
 20 21  2  0  0  0  0
 21 16  1  0  0  0  0
 24 18  1  0  0  0  0
 25 26  2  0  0  0  0
 27 25  1  1  0  0  0
 27 28  1  0  0  0  0
 27 33  1  0  0  0  0
 28 30  1  0  0  0  0
 29 28  1  0  0  0  0
 30 32  1  0  0  0  0
 30 31  1  0  0  0  0
 33 32  1  0  0  0  0
 34 33  1  0  0  0  0
M  END
>  <minimizedAffinity>
-5.66907597

$$$$
