
 OpenBabel03212520553D

 34 37  0  0  1  0  0  0  0  0999 V2000
   39.6060   77.3950   59.4740 C   0  0  0  0  0  0  0  0  0  0  0  0
   39.6730   76.0480   59.6270 C   0  0  0  0  0  0  0  0  0  0  0  0
   39.1200   75.3440   58.5450 C   0  0  0  0  0  0  0  0  0  0  0  0
   38.5790   75.9250   57.4650 N   0  0  0  0  0  0  0  0  0  0  0  0
   38.5560   77.2840   57.3950 C   0  0  0  0  0  0  0  0  0  0  0  0
   39.0760   78.0190   58.4120 N   0  0  0  0  0  0  0  0  0  0  0  0
   40.0880   75.5320   60.4580 H   0  0  0  0  0  0  0  0  0  0  0  0
   39.1240   74.2470   58.5720 H   0  0  0  0  0  0  0  0  0  0  0  0
   40.9560   80.4080   61.8730 C   0  0  0  0  0  0  0  0  0  0  0  0
   41.0470   79.1670   62.4760 C   0  0  0  0  0  0  0  0  0  0  0  0
   40.6340   78.0890   61.7860 C   0  0  0  0  0  0  0  0  0  0  0  0
   40.1320   78.2520   60.5020 C   0  0  0  0  0  0  0  0  0  0  0  0
   40.2500   80.0860   60.2340 S   0  0  0  0  0  0  0  0  0  0  0  0
   41.4420   79.0420   63.4870 H   0  0  0  0  0  0  0  0  0  0  0  0
   40.6260   77.0500   62.0820 H   0  0  0  0  0  0  0  0  0  0  0  0
   43.0880   83.2140   62.8840 C   0  0  0  0  0  0  0  0  0  0  0  0
   42.2040   84.0150   63.6690 C   0  0  0  0  0  0  0  0  0  0  0  0
   40.8960   83.5810   63.8360 C   0  0  0  0  0  0  0  0  0  0  0  0
   40.5240   82.4200   63.2490 N   0  0  0  0  0  0  0  0  0  0  0  0
   41.3760   81.6840   62.5140 C   0  0  0  0  0  0  0  0  0  0  0  0
   42.6280   82.0800   62.3410 N   0  0  0  0  0  0  0  0  0  0  0  0
   44.1020   83.5710   62.7680 H   0  0  0  0  0  0  0  0  0  0  0  0
   42.5220   84.9450   64.1330 H   0  0  0  0  0  0  0  0  0  0  0  0
   40.1660   84.1400   64.4210 H   0  0  0  0  0  0  0  0  0  0  0  0
   37.9700   77.8990   56.2260 C   0  0  0  0  0  0  0  0  0  0  0  0
   37.0590   78.7580   56.4270 O   0  0  0  0  0  0  0  0  0  0  0  0
   38.4400   77.5140   54.8690 C   0  0  1  0  0  3  0  0  0  0  0  0
   37.5280   76.4110   54.3190 C   0  0  0  0  0  3  0  0  0  0  0  0
   38.0520   75.8860   53.4990 H   0  0  0  0  0  0  0  0  0  0  0  0
   36.3730   77.2600   53.8490 C   0  0  0  0  0  3  0  0  0  0  0  0
   35.9020   76.8950   52.9170 H   0  0  0  0  0  0  0  0  0  0  0  0
   36.7930   78.5740   53.7730 O   0  0  0  0  0  0  0  0  0  0  0  0
   38.1720   78.5850   53.8320 C   0  0  0  0  0  3  0  0  0  0  0  0
   38.5360   78.1740   52.8720 H   0  0  0  0  0  0  0  0  0  0  0  0
  1  2  1  0  0  0  0
  1 12  1  0  0  0  0
  2  7  1  0  0  0  0
  3  8  1  0  0  0  0
  3  2  2  0  0  0  0
  4  3  1  0  0  0  0
  5  4  2  0  0  0  0
  5  6  1  0  0  0  0
  6  1  2  0  0  0  0
  9 10  2  0  0  0  0
  9 20  1  0  0  0  0
 10 14  1  0  0  0  0
 11 15  1  0  0  0  0
 11 10  1  0  0  0  0
 12 11  2  0  0  0  0
 13 12  1  0  0  0  0
 13  9  1  0  0  0  0
 16 17  1  0  0  0  0
 17 18  2  0  0  0  0
 17 23  1  0  0  0  0
 18 24  1  0  0  0  0
 19 18  1  0  0  0  0
 20 19  2  0  0  0  0
 21 20  1  0  0  0  0
 21 16  2  0  0  0  0
 22 16  1  0  0  0  0
 25 26  2  0  0  0  0
 25  5  1  0  0  0  0
 27 25  1  1  0  0  0
 28 27  1  0  0  0  0
 29 28  1  0  0  0  0
 30 28  1  0  0  0  0
 31 30  1  0  0  0  0
 32 33  1  0  0  0  0
 32 30  1  0  0  0  0
 33 27  1  0  0  0  0
 34 33  1  0  0  0  0
M  END
>  <minimizedAffinity>
-6.07798147

>  <minimizedRMSD>
0.896837175

$$$$
