
 OpenBabel03212520563D

 34 37  0  0  1  0  0  0  0  0999 V2000
   39.8730   77.4400   59.3640 C   0  0  0  0  0  0  0  0  0  0  0  0
   40.3640   76.1770   59.2940 C   0  0  0  0  0  0  0  0  0  0  0  0
   39.8810   75.4610   58.1880 C   0  0  0  0  0  0  0  0  0  0  0  0
   39.0240   75.9560   57.2840 N   0  0  0  0  0  0  0  0  0  0  0  0
   38.5840   77.2350   57.4330 C   0  0  0  0  0  0  0  0  0  0  0  0
   39.0150   77.9780   58.4840 N   0  0  0  0  0  0  0  0  0  0  0  0
   41.0430   75.7310   59.9790 H   0  0  0  0  0  0  0  0  0  0  0  0
   40.2180   74.4260   58.0410 H   0  0  0  0  0  0  0  0  0  0  0  0
   40.9790   80.4500   61.8890 C   0  0  0  0  0  0  0  0  0  0  0  0
   40.9240   79.2210   62.5200 C   0  0  0  0  0  0  0  0  0  0  0  0
   40.5720   78.1450   61.7920 C   0  0  0  0  0  0  0  0  0  0  0  0
   40.2760   78.2990   60.4450 C   0  0  0  0  0  0  0  0  0  0  0  0
   40.5130   80.1200   60.1680 S   0  0  0  0  0  0  0  0  0  0  0  0
   41.1580   79.1030   63.5800 H   0  0  0  0  0  0  0  0  0  0  0  0
   40.4750   77.1140   62.1020 H   0  0  0  0  0  0  0  0  0  0  0  0
   43.0140   83.2940   62.9900 C   0  0  0  0  0  0  0  0  0  0  0  0
   42.1000   84.0490   63.7840 C   0  0  0  0  0  0  0  0  0  0  0  0
   40.8040   83.5710   63.9270 C   0  0  0  0  0  0  0  0  0  0  0  0
   40.4730   82.4150   63.3080 N   0  0  0  0  0  0  0  0  0  0  0  0
   41.3540   81.7230   62.5650 C   0  0  0  0  0  0  0  0  0  0  0  0
   42.5950   82.1600   62.4150 N   0  0  0  0  0  0  0  0  0  0  0  0
   44.0180   83.6840   62.8920 H   0  0  0  0  0  0  0  0  0  0  0  0
   42.3840   84.9760   64.2740 H   0  0  0  0  0  0  0  0  0  0  0  0
   40.0510   84.0940   64.5170 H   0  0  0  0  0  0  0  0  0  0  0  0
   37.6600   77.7590   56.4520 C   0  0  0  0  0  0  0  0  0  0  0  0
   36.4250   77.6850   56.7330 O   0  0  0  0  0  0  0  0  0  0  0  0
   38.1720   78.3450   55.1860 C   0  0  1  0  0  3  0  0  0  0  0  0
   37.1050   79.2770   54.6000 C   0  0  0  0  0  3  0  0  0  0  0  0
   37.3140   79.4360   53.5260 H   0  0  0  0  0  0  0  0  0  0  0  0
   37.3540   80.4990   55.4490 C   0  0  0  0  0  3  0  0  0  0  0  0
   37.2260   81.4530   54.9050 H   0  0  0  0  0  0  0  0  0  0  0  0
   38.5890   80.3730   56.0520 O   0  0  0  0  0  0  0  0  0  0  0  0
   39.2750   79.3590   55.4150 C   0  0  0  0  0  3  0  0  0  0  0  0
   39.5480   79.7380   54.4130 H   0  0  0  0  0  0  0  0  0  0  0  0
  1 12  1  0  0  0  0
  2  1  1  0  0  0  0
  2  7  1  0  0  0  0
  3  2  2  0  0  0  0
  4  5  2  0  0  0  0
  4  3  1  0  0  0  0
  5  6  1  0  0  0  0
  6  1  2  0  0  0  0
  8  3  1  0  0  0  0
  9 10  2  0  0  0  0
  9 20  1  0  0  0  0
 10 14  1  0  0  0  0
 11 15  1  0  0  0  0
 11 10  1  0  0  0  0
 12 11  2  0  0  0  0
 13 12  1  0  0  0  0
 13  9  1  0  0  0  0
 16 17  1  0  0  0  0
 17 18  2  0  0  0  0
 17 23  1  0  0  0  0
 18 24  1  0  0  0  0
 19 18  1  0  0  0  0
 20 19  2  0  0  0  0
 21 20  1  0  0  0  0
 21 16  2  0  0  0  0
 22 16  1  0  0  0  0
 25 26  2  0  0  0  0
 25  5  1  0  0  0  0
 27 33  1  0  0  0  0
 27 25  1  1  0  0  0
 28 27  1  0  0  0  0
 28 30  1  0  0  0  0
 29 28  1  0  0  0  0
 30 32  1  0  0  0  0
 31 30  1  0  0  0  0
 33 32  1  0  0  0  0
 34 33  1  0  0  0  0
M  END
>  <minimizedAffinity>
-6.03051996

>  <minimizedRMSD>
0.568022966

$$$$
