
 OpenBabel03212520563D

 34 37  0  0  1  0  0  0  0  0999 V2000
   39.6680   77.0830   59.4150 C   0  0  0  0  0  0  0  0  0  0  0  0
   40.1390   75.8110   59.3850 C   0  0  0  0  0  0  0  0  0  0  0  0
   39.6080   75.0540   58.3280 C   0  0  0  0  0  0  0  0  0  0  0  0
   38.7290   75.5220   57.4320 N   0  0  0  0  0  0  0  0  0  0  0  0
   38.3120   76.8140   57.5380 C   0  0  0  0  0  0  0  0  0  0  0  0
   38.7890   77.5950   58.5400 N   0  0  0  0  0  0  0  0  0  0  0  0
   40.8340   75.3850   60.0660 H   0  0  0  0  0  0  0  0  0  0  0  0
   39.9260   74.0090   58.2160 H   0  0  0  0  0  0  0  0  0  0  0  0
   40.9140   80.1810   61.7620 C   0  0  0  0  0  0  0  0  0  0  0  0
   40.8400   78.9870   62.4540 C   0  0  0  0  0  0  0  0  0  0  0  0
   40.4420   77.8860   61.7890 C   0  0  0  0  0  0  0  0  0  0  0  0
   40.1190   77.9820   60.4430 C   0  0  0  0  0  0  0  0  0  0  0  0
   40.4000   79.7800   60.0700 S   0  0  0  0  0  0  0  0  0  0  0  0
   41.0940   78.9140   63.5140 H   0  0  0  0  0  0  0  0  0  0  0  0
   40.3230   76.8750   62.1520 H   0  0  0  0  0  0  0  0  0  0  0  0
   43.0290   83.0530   62.6120 C   0  0  0  0  0  0  0  0  0  0  0  0
   42.1760   83.8360   63.4470 C   0  0  0  0  0  0  0  0  0  0  0  0
   40.8940   83.3680   63.7020 C   0  0  0  0  0  0  0  0  0  0  0  0
   40.5170   82.1930   63.1490 N   0  0  0  0  0  0  0  0  0  0  0  0
   41.3400   81.4740   62.3650 C   0  0  0  0  0  0  0  0  0  0  0  0
   42.5660   81.9020   62.1080 N   0  0  0  0  0  0  0  0  0  0  0  0
   44.0230   83.4360   62.4270 H   0  0  0  0  0  0  0  0  0  0  0  0
   42.4980   84.7790   63.8830 H   0  0  0  0  0  0  0  0  0  0  0  0
   40.1890   83.9130   64.3290 H   0  0  0  0  0  0  0  0  0  0  0  0
   37.3630   77.3080   56.5660 C   0  0  0  0  0  0  0  0  0  0  0  0
   36.1520   76.9690   56.7250 O   0  0  0  0  0  0  0  0  0  0  0  0
   37.8250   78.1680   55.4450 C   0  0  1  0  0  3  0  0  0  0  0  0
   39.0860   77.5500   54.8280 C   0  0  0  0  0  3  0  0  0  0  0  0
   39.6250   78.3260   54.2540 H   0  0  0  0  0  0  0  0  0  0  0  0
   38.4420   76.4980   53.9590 C   0  0  0  0  0  3  0  0  0  0  0  0
   38.9590   76.3390   52.9950 H   0  0  0  0  0  0  0  0  0  0  0  0
   37.1010   76.8000   53.8200 O   0  0  0  0  0  0  0  0  0  0  0  0
   36.9110   78.1000   54.2390 C   0  0  0  0  0  3  0  0  0  0  0  0
   37.3720   78.7530   53.4750 H   0  0  0  0  0  0  0  0  0  0  0  0
  1 12  1  0  0  0  0
  2  1  1  0  0  0  0
  2  7  1  0  0  0  0
  3  2  2  0  0  0  0
  4  5  2  0  0  0  0
  4  3  1  0  0  0  0
  5  6  1  0  0  0  0
  6  1  2  0  0  0  0
  8  3  1  0  0  0  0
  9 20  1  0  0  0  0
  9 10  2  0  0  0  0
 10 14  1  0  0  0  0
 11 15  1  0  0  0  0
 11 10  1  0  0  0  0
 12 11  2  0  0  0  0
 13 12  1  0  0  0  0
 13  9  1  0  0  0  0
 16 17  1  0  0  0  0
 17 18  2  0  0  0  0
 17 23  1  0  0  0  0
 18 24  1  0  0  0  0
 19 18  1  0  0  0  0
 20 19  2  0  0  0  0
 21 20  1  0  0  0  0
 21 16  2  0  0  0  0
 22 16  1  0  0  0  0
 25 26  2  0  0  0  0
 25  5  1  0  0  0  0
 27 25  1  1  0  0  0
 28 27  1  0  0  0  0
 29 28  1  0  0  0  0
 30 28  1  0  0  0  0
 31 30  1  0  0  0  0
 32 30  1  0  0  0  0
 32 33  1  0  0  0  0
 33 27  1  0  0  0  0
 34 33  1  0  0  0  0
M  END
>  <minimizedAffinity>
-5.98175573

>  <minimizedRMSD>
0.539203703

$$$$
