
 OpenBabel03212520563D

 34 37  0  0  1  0  0  0  0  0999 V2000
   39.8030   77.1630   59.3550 C   0  0  0  0  0  0  0  0  0  0  0  0
   40.3290   75.9130   59.3100 C   0  0  0  0  0  0  0  0  0  0  0  0
   39.8500   75.1540   58.2300 C   0  0  0  0  0  0  0  0  0  0  0  0
   38.9660   75.6000   57.3280 N   0  0  0  0  0  0  0  0  0  0  0  0
   38.4910   76.8700   57.4500 C   0  0  0  0  0  0  0  0  0  0  0  0
   38.9170   77.6530   58.4750 N   0  0  0  0  0  0  0  0  0  0  0  0
   41.0310   75.5040   59.9950 H   0  0  0  0  0  0  0  0  0  0  0  0
   40.2140   74.1260   58.1050 H   0  0  0  0  0  0  0  0  0  0  0  0
   40.8970   80.2620   61.7750 C   0  0  0  0  0  0  0  0  0  0  0  0
   40.8230   79.0590   62.4530 C   0  0  0  0  0  0  0  0  0  0  0  0
   40.4730   77.9580   61.7630 C   0  0  0  0  0  0  0  0  0  0  0  0
   40.1970   78.0610   60.4070 C   0  0  0  0  0  0  0  0  0  0  0  0
   40.4530   79.8670   60.0620 S   0  0  0  0  0  0  0  0  0  0  0  0
   41.0410   78.9820   63.5200 H   0  0  0  0  0  0  0  0  0  0  0  0
   40.3630   76.9410   62.1120 H   0  0  0  0  0  0  0  0  0  0  0  0
   42.9530   83.1040   62.8410 C   0  0  0  0  0  0  0  0  0  0  0  0
   42.0190   83.9230   63.5440 C   0  0  0  0  0  0  0  0  0  0  0  0
   40.7040   83.4890   63.6390 C   0  0  0  0  0  0  0  0  0  0  0  0
   40.3730   82.3110   63.0620 N   0  0  0  0  0  0  0  0  0  0  0  0
   41.2720   81.5580   62.4050 C   0  0  0  0  0  0  0  0  0  0  0  0
   42.5320   81.9530   62.3020 N   0  0  0  0  0  0  0  0  0  0  0  0
   43.9720   83.4610   62.7800 H   0  0  0  0  0  0  0  0  0  0  0  0
   42.3050   84.8670   64.0010 H   0  0  0  0  0  0  0  0  0  0  0  0
   39.9370   84.0620   64.1600 H   0  0  0  0  0  0  0  0  0  0  0  0
   37.5370   77.3410   56.4710 C   0  0  0  0  0  0  0  0  0  0  0  0
   36.3710   77.6080   56.8910 O   0  0  0  0  0  0  0  0  0  0  0  0
   37.9430   77.4900   55.0490 C   0  0  1  0  0  3  0  0  0  0  0  0
   36.9410   78.4060   54.3370 C   0  0  0  0  0  3  0  0  0  0  0  0
   37.0200   78.2490   53.2460 H   0  0  0  0  0  0  0  0  0  0  0  0
   37.4700   79.7450   54.7910 C   0  0  0  0  0  3  0  0  0  0  0  0
   37.3990   80.5360   54.0220 H   0  0  0  0  0  0  0  0  0  0  0  0
   38.7490   79.5710   55.2820 O   0  0  0  0  0  0  0  0  0  0  0  0
   39.1940   78.3280   54.8830 C   0  0  0  0  0  3  0  0  0  0  0  0
   39.3750   78.3880   53.7940 H   0  0  0  0  0  0  0  0  0  0  0  0
  1 12  1  0  0  0  0
  2  1  1  0  0  0  0
  2  7  1  0  0  0  0
  3  2  2  0  0  0  0
  4  5  2  0  0  0  0
  4  3  1  0  0  0  0
  5  6  1  0  0  0  0
  6  1  2  0  0  0  0
  8  3  1  0  0  0  0
  9 20  1  0  0  0  0
  9 10  2  0  0  0  0
 10 14  1  0  0  0  0
 11 15  1  0  0  0  0
 11 10  1  0  0  0  0
 12 11  2  0  0  0  0
 13 12  1  0  0  0  0
 13  9  1  0  0  0  0
 16 17  1  0  0  0  0
 17 18  2  0  0  0  0
 17 23  1  0  0  0  0
 18 24  1  0  0  0  0
 19 18  1  0  0  0  0
 20 19  2  0  0  0  0
 21 20  1  0  0  0  0
 21 16  2  0  0  0  0
 22 16  1  0  0  0  0
 25 26  2  0  0  0  0
 25  5  1  0  0  0  0
 27 25  1  1  0  0  0
 28 30  1  0  0  0  0
 28 27  1  0  0  0  0
 29 28  1  0  0  0  0
 30 32  1  0  0  0  0
 31 30  1  0  0  0  0
 33 27  1  0  0  0  0
 33 32  1  0  0  0  0
 34 33  1  0  0  0  0
M  END
>  <minimizedAffinity>
-5.87784719

>  <minimizedRMSD>
0.923155427

$$$$
