
 OpenBabel03212520303D

 27 29  0  0  1  0  0  0  0  0999 V2000
   39.8390   81.0790   58.8050 C   0  0  0  0  0  0  0  0  0  0  0  0
   39.8330   80.6760   57.4610 C   0  0  0  0  0  0  0  0  0  0  0  0
   40.7230   81.3170   56.5770 C   0  0  0  0  0  0  0  0  0  0  0  0
   41.5360   82.2880   57.0690 N   0  0  0  0  0  0  0  0  0  0  0  0
   41.5050   82.6420   58.3660 C   0  0  0  0  0  0  0  0  0  0  0  0
   40.6700   82.0470   59.2240 N   0  0  0  0  0  0  0  0  0  0  0  0
   39.1530   80.5820   59.4750 H   0  0  0  0  0  0  0  0  0  0  0  0
   40.7330   81.0210   55.5450 H   0  0  0  0  0  0  0  0  0  0  0  0
   38.9540   79.6500   57.0150 N   0  0  0  0  0  0  0  0  0  0  0  0
   39.1720   78.4660   57.5770 C   0  0  0  0  0  0  0  0  0  0  0  0
   38.3650   77.3880   57.2100 C   0  0  0  0  0  0  0  0  0  0  0  0
   37.3570   77.5870   56.2670 C   0  0  0  0  0  0  0  0  0  0  0  0
   36.5870   76.6780   55.8810 O   0  0  0  0  0  0  0  0  0  0  0  0
   37.2060   78.8300   55.7450 N   0  0  0  0  0  0  0  0  0  0  0  0
   37.9950   79.8730   56.1060 C   0  0  0  0  0  0  0  0  0  0  0  0
   37.8390   81.0150   55.6100 O   0  0  0  0  0  0  0  0  0  0  0  0
   39.9440   78.2710   58.3140 H   0  0  0  0  0  0  0  0  0  0  0  0
   38.5010   76.4070   57.6390 H   0  0  0  0  0  0  0  0  0  0  0  0
   36.4480   78.9680   55.0390 H   0  0  0  0  0  0  0  0  0  0  0  0
   42.3950   83.6910   58.8610 C   0  0  1  0  0  3  0  0  0  0  0  0
   41.6960   84.8300   59.5720 C   0  0  0  0  0  3  0  0  0  0  0  0
   40.9550   84.4480   60.3150 H   0  0  0  0  0  0  0  0  0  0  0  0
   42.8640   85.3970   60.3560 C   0  0  0  0  0  3  0  0  0  0  0  0
   43.3200   86.1820   59.6930 H   0  0  0  0  0  0  0  0  0  0  0  0
   43.8050   84.4060   60.5170 O   0  0  0  0  0  0  0  0  0  0  0  0
   43.3270   83.2350   59.9620 C   0  0  0  0  0  3  0  0  0  0  0  0
   42.8270   82.6390   60.7490 H   0  0  0  0  0  0  0  0  0  0  0  0
  1  6  1  0  0  0  0
  1  7  1  0  0  0  0
  2  1  2  0  0  0  0
  3  4  2  0  0  0  0
  3  2  1  0  0  0  0
  4  5  1  0  0  0  0
  5  6  2  0  0  0  0
  8  3  1  0  0  0  0
  9  2  1  0  0  0  0
  9 10  1  0  0  0  0
 10 17  1  0  0  0  0
 11 10  2  0  0  0  0
 11 18  1  0  0  0  0
 12 11  1  0  0  0  0
 13 12  2  0  0  0  0
 14 15  1  0  0  0  0
 14 12  1  0  0  0  0
 15  9  1  0  0  0  0
 16 15  2  0  0  0  0
 19 14  1  0  0  0  0
 20  5  1  1  0  0  0
 20 21  1  0  0  0  0
 20 26  1  0  0  0  0
 21 22  1  0  0  0  0
 21 23  1  0  0  0  0
 23 25  1  0  0  0  0
 24 23  1  0  0  0  0
 26 25  1  0  0  0  0
 26 27  1  0  0  0  0
M  END
>  <minimizedAffinity>
-4.21508455

>  <minimizedRMSD>
6.43023872

$$$$
