
 OpenBabel03212521003D

 41 45  0  0  1  0  0  0  0  0999 V2000
   39.7980   77.4070   59.1750 C   0  0  0  0  0  0  0  0  0  0  0  0
   40.5050   76.2800   58.8970 C   0  0  0  0  0  0  0  0  0  0  0  0
   39.9630   75.5740   57.8090 C   0  0  0  0  0  0  0  0  0  0  0  0
   38.8740   75.9600   57.1180 N   0  0  0  0  0  0  0  0  0  0  0  0
   38.2410   77.1130   57.4870 C   0  0  0  0  0  0  0  0  0  0  0  0
   38.7080   77.8420   58.5240 N   0  0  0  0  0  0  0  0  0  0  0  0
   41.3710   75.9270   59.4090 H   0  0  0  0  0  0  0  0  0  0  0  0
   40.4160   74.6460   57.4590 H   0  0  0  0  0  0  0  0  0  0  0  0
   40.9800   80.3440   61.7520 C   0  0  0  0  0  0  0  0  0  0  0  0
   40.9650   79.1060   62.3440 C   0  0  0  0  0  0  0  0  0  0  0  0
   40.5920   78.0490   61.6030 C   0  0  0  0  0  0  0  0  0  0  0  0
   40.2380   78.2430   60.2720 C   0  0  0  0  0  0  0  0  0  0  0  0
   40.4450   80.0600   60.0390 S   0  0  0  0  0  0  0  0  0  0  0  0
   41.2430   78.9520   63.3900 H   0  0  0  0  0  0  0  0  0  0  0  0
   40.5130   77.0040   61.8750 H   0  0  0  0  0  0  0  0  0  0  0  0
   43.0470   83.1480   62.9110 C   0  0  0  0  0  0  0  0  0  0  0  0
   42.1400   83.8980   63.7040 C   0  0  0  0  0  0  0  0  0  0  0  0
   40.8200   83.4410   63.8350 C   0  0  0  0  0  0  0  0  0  0  0  0
   40.4710   82.3010   63.1970 N   0  0  0  0  0  0  0  0  0  0  0  0
   41.3680   81.6020   62.4420 C   0  0  0  0  0  0  0  0  0  0  0  0
   42.6250   82.0330   62.3150 N   0  0  0  0  0  0  0  0  0  0  0  0
   44.0710   83.4620   62.7840 H   0  0  0  0  0  0  0  0  0  0  0  0
   42.4700   84.8040   64.1930 H   0  0  0  0  0  0  0  0  0  0  0  0
   40.0970   83.9850   64.4290 H   0  0  0  0  0  0  0  0  0  0  0  0
   37.0750   77.5150   56.7260 C   0  0  0  0  0  0  0  0  0  0  0  0
   35.9780   77.0560   57.0790 O   0  0  0  0  0  0  0  0  0  0  0  0
   37.1660   78.4450   55.5400 C   0  0  1  0  0  0  0  0  0  0  0  0
   37.2810   79.8950   55.9400 C   0  0  0  0  0  0  0  0  0  0  0  0
   38.3860   79.1840   55.2940 C   0  0  2  0  0  0  0  0  0  0  0  0
   36.2840   78.2840   54.8730 H   0  0  0  0  0  0  0  0  0  0  0  0
   37.2690   80.1450   57.0140 H   0  0  0  0  0  0  0  0  0  0  0  0
   36.6820   80.6010   55.3370 H   0  0  0  0  0  0  0  0  0  0  0  0
   39.2580   78.9290   55.9320 H   0  0  0  0  0  0  0  0  0  0  0  0
   38.8030   79.6640   53.9330 C   0  0  1  0  0  3  0  0  0  0  0  0
   40.3100   79.7390   53.7690 C   0  0  0  0  0  3  0  0  0  0  0  0
   40.6530   80.6600   54.2410 H   0  0  0  0  0  0  0  0  0  0  0  0
   40.3830   79.7670   52.2460 C   0  0  0  0  0  3  0  0  0  0  0  0
   41.3010   79.3290   51.8580 H   0  0  0  0  0  0  0  0  0  0  0  0
   39.2300   79.2080   51.7670 O   0  0  0  0  0  0  0  0  0  0  0  0
   38.4780   78.7090   52.8180 C   0  0  0  0  0  3  0  0  0  0  0  0
   37.4210   78.6590   52.5460 H   0  0  0  0  0  0  0  0  0  0  0  0
  1 12  1  0  0  0  0
  2  1  1  0  0  0  0
  2  7  1  0  0  0  0
  3  2  2  0  0  0  0
  4  5  2  0  0  0  0
  4  3  1  0  0  0  0
  5  6  1  0  0  0  0
  6  1  2  0  0  0  0
  8  3  1  0  0  0  0
  9 10  2  0  0  0  0
  9 20  1  0  0  0  0
 10 14  1  0  0  0  0
 11 15  1  0  0  0  0
 11 10  1  0  0  0  0
 12 11  2  0  0  0  0
 13 12  1  0  0  0  0
 13  9  1  0  0  0  0
 16 17  1  0  0  0  0
 17 18  2  0  0  0  0
 17 23  1  0  0  0  0
 18 24  1  0  0  0  0
 19 18  1  0  0  0  0
 20 19  2  0  0  0  0
 21 20  1  0  0  0  0
 21 16  2  0  0  0  0
 22 16  1  0  0  0  0
 25 26  2  0  0  0  0
 25  5  1  0  0  0  0
 27 30  1  6  0  0  0
 27 28  1  0  0  0  0
 27 25  1  0  0  0  0
 28 31  1  0  0  0  0
 29 27  1  0  0  0  0
 29 33  1  1  0  0  0
 29 28  1  0  0  0  0
 32 28  1  0  0  0  0
 34 40  1  6  0  0  0
 34 29  1  0  0  0  0
 35 34  1  0  0  0  0
 35 36  1  0  0  0  0
 37 35  1  0  0  0  0
 38 37  1  0  0  0  0
 39 37  1  0  0  0  0
 39 40  1  0  0  0  0
 41 40  1  0  0  0  0
M  END
>  <minimizedAffinity>
-6.2133317

>  <minimizedRMSD>
0.467976898

$$$$
