
 OpenBabel03212521003D

 41 45  0  0  1  0  0  0  0  0999 V2000
   39.6550   77.1280   59.1530 C   0  0  0  0  0  0  0  0  0  0  0  0
   40.3150   75.9640   58.9170 C   0  0  0  0  0  0  0  0  0  0  0  0
   39.7440   75.2430   57.8530 C   0  0  0  0  0  0  0  0  0  0  0  0
   38.6720   75.6500   57.1470 N   0  0  0  0  0  0  0  0  0  0  0  0
   38.0880   76.8410   57.4740 C   0  0  0  0  0  0  0  0  0  0  0  0
   38.5850   77.5860   58.4860 N   0  0  0  0  0  0  0  0  0  0  0  0
   41.1650   75.5930   59.4420 H   0  0  0  0  0  0  0  0  0  0  0  0
   40.1570   74.2850   57.5380 H   0  0  0  0  0  0  0  0  0  0  0  0
   40.9490   80.1040   61.6300 C   0  0  0  0  0  0  0  0  0  0  0  0
   40.9010   78.8870   62.2610 C   0  0  0  0  0  0  0  0  0  0  0  0
   40.4890   77.8190   61.5550 C   0  0  0  0  0  0  0  0  0  0  0  0
   40.1310   77.9840   60.2210 C   0  0  0  0  0  0  0  0  0  0  0  0
   40.3910   79.7850   59.9310 S   0  0  0  0  0  0  0  0  0  0  0  0
   41.1820   78.7560   63.3090 H   0  0  0  0  0  0  0  0  0  0  0  0
   40.3800   76.7860   61.8590 H   0  0  0  0  0  0  0  0  0  0  0  0
   43.1090   82.8810   62.6810 C   0  0  0  0  0  0  0  0  0  0  0  0
   42.2350   83.6790   63.4630 C   0  0  0  0  0  0  0  0  0  0  0  0
   40.9040   83.2630   63.6260 C   0  0  0  0  0  0  0  0  0  0  0  0
   40.5150   82.1150   63.0250 N   0  0  0  0  0  0  0  0  0  0  0  0
   41.3820   81.3700   62.2790 C   0  0  0  0  0  0  0  0  0  0  0  0
   42.6480   81.7620   62.1230 N   0  0  0  0  0  0  0  0  0  0  0  0
   44.1390   83.1620   62.5310 H   0  0  0  0  0  0  0  0  0  0  0  0
   42.5960   84.5880   63.9220 H   0  0  0  0  0  0  0  0  0  0  0  0
   40.2050   83.8430   64.2130 H   0  0  0  0  0  0  0  0  0  0  0  0
   36.9410   77.2640   56.6970 C   0  0  0  0  0  0  0  0  0  0  0  0
   35.8220   77.1430   57.2210 O   0  0  0  0  0  0  0  0  0  0  0  0
   37.0720   77.8250   55.3020 C   0  0  1  0  0  0  0  0  0  0  0  0
   37.3680   79.3040   55.2880 C   0  0  0  0  0  0  0  0  0  0  0  0
   38.3530   78.3170   54.8400 C   0  0  2  0  0  0  0  0  0  0  0  0
   36.1450   77.5980   54.7210 H   0  0  0  0  0  0  0  0  0  0  0  0
   37.4400   79.8330   56.2540 H   0  0  0  0  0  0  0  0  0  0  0  0
   36.8210   79.8890   54.5280 H   0  0  0  0  0  0  0  0  0  0  0  0
   39.2230   78.1400   55.5050 H   0  0  0  0  0  0  0  0  0  0  0  0
   38.7490   78.3600   53.3910 C   0  0  1  0  0  3  0  0  0  0  0  0
   38.6070   79.7420   52.7810 C   0  0  0  0  0  3  0  0  0  0  0  0
   37.5560   79.8950   52.5370 H   0  0  0  0  0  0  0  0  0  0  0  0
   39.4990   79.5550   51.5580 C   0  0  0  0  0  3  0  0  0  0  0  0
   39.9670   80.4820   51.2300 H   0  0  0  0  0  0  0  0  0  0  0  0
   40.3670   78.5370   51.8320 O   0  0  0  0  0  0  0  0  0  0  0  0
   40.2140   78.1300   53.1470 C   0  0  0  0  0  3  0  0  0  0  0  0
   40.5460   77.0960   53.2720 H   0  0  0  0  0  0  0  0  0  0  0  0
  1 12  1  0  0  0  0
  2  1  1  0  0  0  0
  2  7  1  0  0  0  0
  3  2  2  0  0  0  0
  4  5  2  0  0  0  0
  4  3  1  0  0  0  0
  5  6  1  0  0  0  0
  6  1  2  0  0  0  0
  8  3  1  0  0  0  0
  9 10  2  0  0  0  0
  9 20  1  0  0  0  0
 10 14  1  0  0  0  0
 11 15  1  0  0  0  0
 11 10  1  0  0  0  0
 12 11  2  0  0  0  0
 13 12  1  0  0  0  0
 13  9  1  0  0  0  0
 16 17  1  0  0  0  0
 17 18  2  0  0  0  0
 17 23  1  0  0  0  0
 18 24  1  0  0  0  0
 19 18  1  0  0  0  0
 20 19  2  0  0  0  0
 21 20  1  0  0  0  0
 21 16  2  0  0  0  0
 22 16  1  0  0  0  0
 25 26  2  0  0  0  0
 25  5  1  0  0  0  0
 27 30  1  6  0  0  0
 27 25  1  0  0  0  0
 28 27  1  0  0  0  0
 28 31  1  0  0  0  0
 29 28  1  0  0  0  0
 29 27  1  0  0  0  0
 29 33  1  1  0  0  0
 32 28  1  0  0  0  0
 34 35  1  1  0  0  0
 34 29  1  0  0  0  0
 36 35  1  0  0  0  0
 37 39  1  0  0  0  0
 37 35  1  0  0  0  0
 38 37  1  0  0  0  0
 39 40  1  0  0  0  0
 40 41  1  0  0  0  0
 40 34  1  0  0  0  0
M  END
>  <minimizedAffinity>
-6.03274727

>  <minimizedRMSD>
0.875345588

$$$$
