
 OpenBabel03212521003D

 41 45  0  0  1  0  0  0  0  0999 V2000
   39.7510   77.3590   59.2300 C   0  0  0  0  0  0  0  0  0  0  0  0
   40.4090   76.1940   58.9940 C   0  0  0  0  0  0  0  0  0  0  0  0
   39.8530   75.4840   57.9160 C   0  0  0  0  0  0  0  0  0  0  0  0
   38.7940   75.9010   57.1960 N   0  0  0  0  0  0  0  0  0  0  0  0
   38.2090   77.0920   57.5230 C   0  0  0  0  0  0  0  0  0  0  0  0
   38.6930   77.8270   58.5490 N   0  0  0  0  0  0  0  0  0  0  0  0
   41.2490   75.8150   59.5300 H   0  0  0  0  0  0  0  0  0  0  0  0
   40.2670   74.5270   57.5990 H   0  0  0  0  0  0  0  0  0  0  0  0
   40.9770   80.3170   61.7630 C   0  0  0  0  0  0  0  0  0  0  0  0
   40.9820   79.0820   62.3620 C   0  0  0  0  0  0  0  0  0  0  0  0
   40.5980   78.0190   61.6360 C   0  0  0  0  0  0  0  0  0  0  0  0
   40.2120   78.2040   60.3120 C   0  0  0  0  0  0  0  0  0  0  0  0
   40.4030   80.0210   60.0640 S   0  0  0  0  0  0  0  0  0  0  0  0
   41.2850   78.9350   63.4020 H   0  0  0  0  0  0  0  0  0  0  0  0
   40.5310   76.9750   61.9150 H   0  0  0  0  0  0  0  0  0  0  0  0
   43.0620   83.1250   62.8790 C   0  0  0  0  0  0  0  0  0  0  0  0
   42.1630   83.8870   63.6700 C   0  0  0  0  0  0  0  0  0  0  0  0
   40.8410   83.4360   63.8160 C   0  0  0  0  0  0  0  0  0  0  0  0
   40.4840   82.2900   63.1910 N   0  0  0  0  0  0  0  0  0  0  0  0
   41.3740   81.5810   62.4380 C   0  0  0  0  0  0  0  0  0  0  0  0
   42.6310   82.0060   62.2970 N   0  0  0  0  0  0  0  0  0  0  0  0
   44.0850   83.4340   62.7410 H   0  0  0  0  0  0  0  0  0  0  0  0
   42.4990   84.7960   64.1470 H   0  0  0  0  0  0  0  0  0  0  0  0
   40.1250   83.9880   64.4090 H   0  0  0  0  0  0  0  0  0  0  0  0
   37.0760   77.5270   56.7320 C   0  0  0  0  0  0  0  0  0  0  0  0
   35.9560   77.1060   57.0600 O   0  0  0  0  0  0  0  0  0  0  0  0
   37.2260   78.4470   55.5440 C   0  0  1  0  0  0  0  0  0  0  0  0
   37.2900   79.9030   55.9330 C   0  0  0  0  0  0  0  0  0  0  0  0
   38.4470   79.2040   55.3670 C   0  0  2  0  0  0  0  0  0  0  0  0
   36.3920   78.2630   54.8240 H   0  0  0  0  0  0  0  0  0  0  0  0
   37.2060   80.1630   57.0020 H   0  0  0  0  0  0  0  0  0  0  0  0
   36.7200   80.5910   55.2850 H   0  0  0  0  0  0  0  0  0  0  0  0
   39.2810   78.9720   56.0610 H   0  0  0  0  0  0  0  0  0  0  0  0
   38.9410   79.6780   54.0290 C   0  0  1  0  0  3  0  0  0  0  0  0
   39.8410   78.6680   53.3410 C   0  0  0  0  0  3  0  0  0  0  0  0
   40.8350   78.7490   53.7800 H   0  0  0  0  0  0  0  0  0  0  0  0
   39.7540   79.2040   51.9150 C   0  0  0  0  0  3  0  0  0  0  0  0
   39.8790   78.4270   51.1630 H   0  0  0  0  0  0  0  0  0  0  0  0
   38.5960   79.9240   51.8150 O   0  0  0  0  0  0  0  0  0  0  0  0
   37.8660   79.8050   52.9880 C   0  0  0  0  0  3  0  0  0  0  0  0
   37.2000   80.6620   53.1140 H   0  0  0  0  0  0  0  0  0  0  0  0
  1 12  1  0  0  0  0
  2  1  1  0  0  0  0
  2  7  1  0  0  0  0
  3  2  2  0  0  0  0
  4  5  2  0  0  0  0
  4  3  1  0  0  0  0
  5  6  1  0  0  0  0
  6  1  2  0  0  0  0
  8  3  1  0  0  0  0
  9 10  2  0  0  0  0
  9 20  1  0  0  0  0
 10 14  1  0  0  0  0
 11 15  1  0  0  0  0
 11 10  1  0  0  0  0
 12 11  2  0  0  0  0
 13 12  1  0  0  0  0
 13  9  1  0  0  0  0
 16 17  1  0  0  0  0
 17 18  2  0  0  0  0
 17 23  1  0  0  0  0
 18 24  1  0  0  0  0
 19 18  1  0  0  0  0
 20 19  2  0  0  0  0
 21 20  1  0  0  0  0
 21 16  2  0  0  0  0
 22 16  1  0  0  0  0
 25 26  2  0  0  0  0
 25  5  1  0  0  0  0
 27 30  1  6  0  0  0
 27 28  1  0  0  0  0
 27 25  1  0  0  0  0
 28 31  1  0  0  0  0
 29 27  1  0  0  0  0
 29 28  1  0  0  0  0
 29 33  1  1  0  0  0
 32 28  1  0  0  0  0
 34 40  1  6  0  0  0
 34 29  1  0  0  0  0
 35 36  1  0  0  0  0
 35 34  1  0  0  0  0
 37 35  1  0  0  0  0
 38 37  1  0  0  0  0
 39 37  1  0  0  0  0
 39 40  1  0  0  0  0
 40 41  1  0  0  0  0
M  END
>  <minimizedAffinity>
-6.28267622

>  <minimizedRMSD>
0.0681836084

$$$$
