
 OpenBabel03212520593D

 41 45  0  0  1  0  0  0  0  0999 V2000
   39.7860   77.3870   59.1780 C   0  0  0  0  0  0  0  0  0  0  0  0
   40.5060   76.2720   58.8840 C   0  0  0  0  0  0  0  0  0  0  0  0
   39.9570   75.5620   57.8020 C   0  0  0  0  0  0  0  0  0  0  0  0
   38.8500   75.9340   57.1310 N   0  0  0  0  0  0  0  0  0  0  0  0
   38.2060   77.0760   57.5150 C   0  0  0  0  0  0  0  0  0  0  0  0
   38.6790   77.8090   58.5480 N   0  0  0  0  0  0  0  0  0  0  0  0
   41.3850   75.9310   59.3800 H   0  0  0  0  0  0  0  0  0  0  0  0
   40.4170   74.6430   57.4410 H   0  0  0  0  0  0  0  0  0  0  0  0
   40.9800   80.3300   61.7430 C   0  0  0  0  0  0  0  0  0  0  0  0
   40.9710   79.0930   62.3380 C   0  0  0  0  0  0  0  0  0  0  0  0
   40.5950   78.0340   61.6000 C   0  0  0  0  0  0  0  0  0  0  0  0
   40.2320   78.2260   60.2710 C   0  0  0  0  0  0  0  0  0  0  0  0
   40.4340   80.0430   60.0340 S   0  0  0  0  0  0  0  0  0  0  0  0
   41.2560   78.9410   63.3820 H   0  0  0  0  0  0  0  0  0  0  0  0
   40.5200   76.9900   61.8740 H   0  0  0  0  0  0  0  0  0  0  0  0
   43.0520   83.1350   62.8920 C   0  0  0  0  0  0  0  0  0  0  0  0
   42.1460   83.8890   63.6830 C   0  0  0  0  0  0  0  0  0  0  0  0
   40.8250   83.4340   63.8180 C   0  0  0  0  0  0  0  0  0  0  0  0
   40.4740   82.2920   63.1830 N   0  0  0  0  0  0  0  0  0  0  0  0
   41.3700   81.5900   62.4300 C   0  0  0  0  0  0  0  0  0  0  0  0
   42.6270   82.0190   62.2990 N   0  0  0  0  0  0  0  0  0  0  0  0
   44.0750   83.4480   62.7620 H   0  0  0  0  0  0  0  0  0  0  0  0
   42.4770   84.7950   64.1690 H   0  0  0  0  0  0  0  0  0  0  0  0
   40.1050   83.9800   64.4120 H   0  0  0  0  0  0  0  0  0  0  0  0
   37.0220   77.4630   56.7760 C   0  0  0  0  0  0  0  0  0  0  0  0
   35.9290   77.0470   57.1910 O   0  0  0  0  0  0  0  0  0  0  0  0
   37.0870   78.3290   55.5410 C   0  0  1  0  0  0  0  0  0  0  0  0
   37.3180   79.7860   55.8570 C   0  0  0  0  0  0  0  0  0  0  0  0
   38.3310   78.9750   55.1780 C   0  0  2  0  0  0  0  0  0  0  0  0
   36.1550   78.1940   54.9410 H   0  0  0  0  0  0  0  0  0  0  0  0
   37.3950   80.0870   56.9160 H   0  0  0  0  0  0  0  0  0  0  0  0
   36.7240   80.5000   55.2590 H   0  0  0  0  0  0  0  0  0  0  0  0
   39.2280   78.6950   55.7690 H   0  0  0  0  0  0  0  0  0  0  0  0
   38.6830   79.3630   53.7700 C   0  0  1  0  0  3  0  0  0  0  0  0
   39.0650   78.1750   52.9080 C   0  0  0  0  0  3  0  0  0  0  0  0
   40.0980   77.9120   53.1350 H   0  0  0  0  0  0  0  0  0  0  0  0
   38.8800   78.8080   51.5330 C   0  0  0  0  0  3  0  0  0  0  0  0
   38.6050   78.0840   50.7670 H   0  0  0  0  0  0  0  0  0  0  0  0
   38.0150   79.8560   51.6750 O   0  0  0  0  0  0  0  0  0  0  0  0
   37.5250   79.8900   52.9700 C   0  0  0  0  0  3  0  0  0  0  0  0
   37.2030   80.8990   53.2330 H   0  0  0  0  0  0  0  0  0  0  0  0
  1 12  1  0  0  0  0
  2  1  1  0  0  0  0
  2  7  1  0  0  0  0
  3  2  2  0  0  0  0
  4  5  2  0  0  0  0
  4  3  1  0  0  0  0
  5  6  1  0  0  0  0
  6  1  2  0  0  0  0
  8  3  1  0  0  0  0
  9 10  2  0  0  0  0
  9 20  1  0  0  0  0
 10 14  1  0  0  0  0
 11 15  1  0  0  0  0
 11 10  1  0  0  0  0
 12 11  2  0  0  0  0
 13 12  1  0  0  0  0
 13  9  1  0  0  0  0
 16 17  1  0  0  0  0
 17 18  2  0  0  0  0
 17 23  1  0  0  0  0
 18 24  1  0  0  0  0
 19 18  1  0  0  0  0
 20 19  2  0  0  0  0
 21 20  1  0  0  0  0
 21 16  2  0  0  0  0
 22 16  1  0  0  0  0
 25 26  2  0  0  0  0
 25  5  1  0  0  0  0
 27 30  1  6  0  0  0
 27 28  1  0  0  0  0
 27 25  1  0  0  0  0
 28 31  1  0  0  0  0
 29 27  1  0  0  0  0
 29 33  1  1  0  0  0
 29 28  1  0  0  0  0
 32 28  1  0  0  0  0
 34 35  1  6  0  0  0
 34 29  1  0  0  0  0
 35 36  1  0  0  0  0
 37 39  1  0  0  0  0
 37 35  1  0  0  0  0
 38 37  1  0  0  0  0
 39 40  1  0  0  0  0
 40 41  1  0  0  0  0
 40 34  1  0  0  0  0
M  END
>  <minimizedAffinity>
-6.35062313

>  <minimizedRMSD>
0.385607064

$$$$
