
 OpenBabel03212521003D

 41 45  0  0  1  0  0  0  0  0999 V2000
   39.7860   77.3860   59.1770 C   0  0  0  0  0  0  0  0  0  0  0  0
   40.5050   76.2710   58.8830 C   0  0  0  0  0  0  0  0  0  0  0  0
   39.9550   75.5610   57.8020 C   0  0  0  0  0  0  0  0  0  0  0  0
   38.8480   75.9340   57.1310 N   0  0  0  0  0  0  0  0  0  0  0  0
   38.2050   77.0760   57.5150 C   0  0  0  0  0  0  0  0  0  0  0  0
   38.6790   77.8090   58.5470 N   0  0  0  0  0  0  0  0  0  0  0  0
   41.3840   75.9290   59.3790 H   0  0  0  0  0  0  0  0  0  0  0  0
   40.4150   74.6410   57.4410 H   0  0  0  0  0  0  0  0  0  0  0  0
   40.9800   80.3290   61.7420 C   0  0  0  0  0  0  0  0  0  0  0  0
   40.9760   79.0920   62.3360 C   0  0  0  0  0  0  0  0  0  0  0  0
   40.6010   78.0320   61.5980 C   0  0  0  0  0  0  0  0  0  0  0  0
   40.2340   78.2250   60.2700 C   0  0  0  0  0  0  0  0  0  0  0  0
   40.4300   80.0430   60.0340 S   0  0  0  0  0  0  0  0  0  0  0  0
   41.2640   78.9400   63.3790 H   0  0  0  0  0  0  0  0  0  0  0  0
   40.5280   76.9880   61.8710 H   0  0  0  0  0  0  0  0  0  0  0  0
   43.0500   83.1360   62.8920 C   0  0  0  0  0  0  0  0  0  0  0  0
   42.1440   83.8890   63.6830 C   0  0  0  0  0  0  0  0  0  0  0  0
   40.8230   83.4330   63.8170 C   0  0  0  0  0  0  0  0  0  0  0  0
   40.4730   82.2910   63.1810 N   0  0  0  0  0  0  0  0  0  0  0  0
   41.3700   81.5890   62.4290 C   0  0  0  0  0  0  0  0  0  0  0  0
   42.6270   82.0190   62.2990 N   0  0  0  0  0  0  0  0  0  0  0  0
   44.0730   83.4480   62.7630 H   0  0  0  0  0  0  0  0  0  0  0  0
   42.4740   84.7960   64.1690 H   0  0  0  0  0  0  0  0  0  0  0  0
   40.1020   83.9790   64.4090 H   0  0  0  0  0  0  0  0  0  0  0  0
   37.0210   77.4640   56.7760 C   0  0  0  0  0  0  0  0  0  0  0  0
   35.9280   77.0480   57.1910 O   0  0  0  0  0  0  0  0  0  0  0  0
   37.0870   78.3300   55.5410 C   0  0  1  0  0  0  0  0  0  0  0  0
   37.3200   79.7870   55.8570 C   0  0  0  0  0  0  0  0  0  0  0  0
   38.3320   78.9750   55.1780 C   0  0  2  0  0  0  0  0  0  0  0  0
   36.1540   78.1970   54.9420 H   0  0  0  0  0  0  0  0  0  0  0  0
   37.3980   80.0870   56.9160 H   0  0  0  0  0  0  0  0  0  0  0  0
   36.7260   80.5010   55.2600 H   0  0  0  0  0  0  0  0  0  0  0  0
   39.2280   78.6930   55.7680 H   0  0  0  0  0  0  0  0  0  0  0  0
   38.6820   79.3620   53.7690 C   0  0  1  0  0  3  0  0  0  0  0  0
   39.0650   78.1730   52.9080 C   0  0  0  0  0  3  0  0  0  0  0  0
   40.0980   77.9120   53.1340 H   0  0  0  0  0  0  0  0  0  0  0  0
   38.8800   78.8060   51.5320 C   0  0  0  0  0  3  0  0  0  0  0  0
   38.6040   78.0820   50.7670 H   0  0  0  0  0  0  0  0  0  0  0  0
   38.0140   79.8540   51.6730 O   0  0  0  0  0  0  0  0  0  0  0  0
   37.5240   79.8870   52.9690 C   0  0  0  0  0  3  0  0  0  0  0  0
   37.2010   80.8980   53.2320 H   0  0  0  0  0  0  0  0  0  0  0  0
  1 12  1  0  0  0  0
  2  1  1  0  0  0  0
  2  7  1  0  0  0  0
  3  2  2  0  0  0  0
  4  5  2  0  0  0  0
  4  3  1  0  0  0  0
  5  6  1  0  0  0  0
  6  1  2  0  0  0  0
  8  3  1  0  0  0  0
  9 10  2  0  0  0  0
  9 20  1  0  0  0  0
 10 14  1  0  0  0  0
 11 15  1  0  0  0  0
 11 10  1  0  0  0  0
 12 11  2  0  0  0  0
 13 12  1  0  0  0  0
 13  9  1  0  0  0  0
 16 17  1  0  0  0  0
 17 18  2  0  0  0  0
 17 23  1  0  0  0  0
 18 24  1  0  0  0  0
 19 18  1  0  0  0  0
 20 19  2  0  0  0  0
 21 20  1  0  0  0  0
 21 16  2  0  0  0  0
 22 16  1  0  0  0  0
 25 26  2  0  0  0  0
 25  5  1  0  0  0  0
 27 30  1  6  0  0  0
 27 28  1  0  0  0  0
 27 25  1  0  0  0  0
 28 31  1  0  0  0  0
 29 27  1  0  0  0  0
 29 33  1  1  0  0  0
 29 28  1  0  0  0  0
 32 28  1  0  0  0  0
 34 35  1  6  0  0  0
 34 29  1  0  0  0  0
 35 36  1  0  0  0  0
 37 39  1  0  0  0  0
 37 35  1  0  0  0  0
 38 37  1  0  0  0  0
 39 40  1  0  0  0  0
 40 41  1  0  0  0  0
 40 34  1  0  0  0  0
M  END
>  <minimizedAffinity>
-6.35118484

>  <minimizedRMSD>
0.474931389

$$$$
