
 OpenBabel03212521003D

 41 45  0  0  1  0  0  0  0  0999 V2000
   39.7180   77.2120   59.1800 C   0  0  0  0  0  0  0  0  0  0  0  0
   40.3940   76.0590   58.9360 C   0  0  0  0  0  0  0  0  0  0  0  0
   39.8370   75.3400   57.8630 C   0  0  0  0  0  0  0  0  0  0  0  0
   38.7620   75.7380   57.1570 N   0  0  0  0  0  0  0  0  0  0  0  0
   38.1600   76.9180   57.4930 C   0  0  0  0  0  0  0  0  0  0  0  0
   38.6430   77.6610   58.5130 N   0  0  0  0  0  0  0  0  0  0  0  0
   41.2470   75.6950   59.4610 H   0  0  0  0  0  0  0  0  0  0  0  0
   40.2650   74.3910   57.5400 H   0  0  0  0  0  0  0  0  0  0  0  0
   40.9670   80.1820   61.6870 C   0  0  0  0  0  0  0  0  0  0  0  0
   40.9220   78.9600   62.3100 C   0  0  0  0  0  0  0  0  0  0  0  0
   40.5250   77.8940   61.5930 C   0  0  0  0  0  0  0  0  0  0  0  0
   40.1770   78.0640   60.2580 C   0  0  0  0  0  0  0  0  0  0  0  0
   40.4260   79.8700   59.9810 S   0  0  0  0  0  0  0  0  0  0  0  0
   41.1950   78.8250   63.3590 H   0  0  0  0  0  0  0  0  0  0  0  0
   40.4210   76.8580   61.8900 H   0  0  0  0  0  0  0  0  0  0  0  0
   43.0950   82.9720   62.7680 C   0  0  0  0  0  0  0  0  0  0  0  0
   42.2090   83.7550   63.5540 C   0  0  0  0  0  0  0  0  0  0  0  0
   40.8820   83.3240   63.7070 C   0  0  0  0  0  0  0  0  0  0  0  0
   40.5070   82.1770   63.0960 N   0  0  0  0  0  0  0  0  0  0  0  0
   41.3840   81.4470   62.3480 C   0  0  0  0  0  0  0  0  0  0  0  0
   42.6470   81.8520   62.1990 N   0  0  0  0  0  0  0  0  0  0  0  0
   44.1220   83.2640   62.6240 H   0  0  0  0  0  0  0  0  0  0  0  0
   42.5600   84.6640   64.0210 H   0  0  0  0  0  0  0  0  0  0  0  0
   40.1760   83.8930   64.2970 H   0  0  0  0  0  0  0  0  0  0  0  0
   37.0100   77.3320   56.7160 C   0  0  0  0  0  0  0  0  0  0  0  0
   35.8880   77.0410   57.1590 O   0  0  0  0  0  0  0  0  0  0  0  0
   37.1430   78.0800   55.4110 C   0  0  1  0  0  0  0  0  0  0  0  0
   37.3920   79.5560   55.6030 C   0  0  0  0  0  0  0  0  0  0  0  0
   38.4140   78.6680   55.0430 C   0  0  2  0  0  0  0  0  0  0  0  0
   36.2310   77.9080   54.7890 H   0  0  0  0  0  0  0  0  0  0  0  0
   37.4350   79.9500   56.6330 H   0  0  0  0  0  0  0  0  0  0  0  0
   36.8380   80.2230   54.9190 H   0  0  0  0  0  0  0  0  0  0  0  0
   39.2800   78.4270   55.6930 H   0  0  0  0  0  0  0  0  0  0  0  0
   38.8280   78.9190   53.6200 C   0  0  1  0  0  3  0  0  0  0  0  0
   37.7890   79.6900   52.8300 C   0  0  0  0  0  3  0  0  0  0  0  0
   37.0130   78.9900   52.5200 H   0  0  0  0  0  0  0  0  0  0  0  0
   38.6710   80.1730   51.6830 C   0  0  0  0  0  3  0  0  0  0  0  0
   38.3350   81.1180   51.2590 H   0  0  0  0  0  0  0  0  0  0  0  0
   39.9640   80.1680   52.1270 O   0  0  0  0  0  0  0  0  0  0  0  0
   39.9970   79.8540   53.4770 C   0  0  0  0  0  3  0  0  0  0  0  0
   40.9650   79.4280   53.7490 H   0  0  0  0  0  0  0  0  0  0  0  0
  1 12  1  0  0  0  0
  2  1  1  0  0  0  0
  2  7  1  0  0  0  0
  3  2  2  0  0  0  0
  4  5  2  0  0  0  0
  4  3  1  0  0  0  0
  5  6  1  0  0  0  0
  6  1  2  0  0  0  0
  8  3  1  0  0  0  0
  9 10  2  0  0  0  0
  9 20  1  0  0  0  0
 10 14  1  0  0  0  0
 11 15  1  0  0  0  0
 11 10  1  0  0  0  0
 12 11  2  0  0  0  0
 13 12  1  0  0  0  0
 13  9  1  0  0  0  0
 16 17  1  0  0  0  0
 17 18  2  0  0  0  0
 17 23  1  0  0  0  0
 18 24  1  0  0  0  0
 19 18  1  0  0  0  0
 20 19  2  0  0  0  0
 21 20  1  0  0  0  0
 21 16  2  0  0  0  0
 22 16  1  0  0  0  0
 25 26  2  0  0  0  0
 25  5  1  0  0  0  0
 27 30  1  6  0  0  0
 27 28  1  0  0  0  0
 27 25  1  0  0  0  0
 28 31  1  0  0  0  0
 29 27  1  0  0  0  0
 29 28  1  0  0  0  0
 29 33  1  1  0  0  0
 32 28  1  0  0  0  0
 34 35  1  6  0  0  0
 34 29  1  0  0  0  0
 36 35  1  0  0  0  0
 37 39  1  0  0  0  0
 37 35  1  0  0  0  0
 38 37  1  0  0  0  0
 39 40  1  0  0  0  0
 40 34  1  0  0  0  0
 40 41  1  0  0  0  0
M  END
>  <minimizedAffinity>
-6.23982906

>  <minimizedRMSD>
0.560005248

$$$$
