
 OpenBabel03212521003D

 41 45  0  0  1  0  0  0  0  0999 V2000
   39.6850   77.1970   59.1200 C   0  0  0  0  0  0  0  0  0  0  0  0
   40.3690   76.0550   58.8440 C   0  0  0  0  0  0  0  0  0  0  0  0
   39.7960   75.3440   57.7750 C   0  0  0  0  0  0  0  0  0  0  0  0
   38.7010   75.7390   57.0990 N   0  0  0  0  0  0  0  0  0  0  0  0
   38.0940   76.9080   57.4640 C   0  0  0  0  0  0  0  0  0  0  0  0
   38.5910   77.6430   58.4830 N   0  0  0  0  0  0  0  0  0  0  0  0
   41.2380   75.6940   59.3450 H   0  0  0  0  0  0  0  0  0  0  0  0
   40.2270   74.4040   57.4300 H   0  0  0  0  0  0  0  0  0  0  0  0
   40.9670   80.1460   61.6350 C   0  0  0  0  0  0  0  0  0  0  0  0
   40.9350   78.9180   62.2460 C   0  0  0  0  0  0  0  0  0  0  0  0
   40.5290   77.8580   61.5260 C   0  0  0  0  0  0  0  0  0  0  0  0
   40.1600   78.0400   60.1980 C   0  0  0  0  0  0  0  0  0  0  0  0
   40.4000   79.8490   59.9340 S   0  0  0  0  0  0  0  0  0  0  0  0
   41.2240   78.7740   63.2900 H   0  0  0  0  0  0  0  0  0  0  0  0
   40.4320   76.8190   61.8150 H   0  0  0  0  0  0  0  0  0  0  0  0
   43.1120   82.9160   62.7320 C   0  0  0  0  0  0  0  0  0  0  0  0
   42.2300   83.7030   63.5170 C   0  0  0  0  0  0  0  0  0  0  0  0
   40.8990   83.2830   63.6650 C   0  0  0  0  0  0  0  0  0  0  0  0
   40.5170   82.1410   63.0480 N   0  0  0  0  0  0  0  0  0  0  0  0
   41.3910   81.4060   62.3010 C   0  0  0  0  0  0  0  0  0  0  0  0
   42.6580   81.8020   62.1580 N   0  0  0  0  0  0  0  0  0  0  0  0
   44.1420   83.2020   62.5930 H   0  0  0  0  0  0  0  0  0  0  0  0
   42.5850   84.6080   63.9880 H   0  0  0  0  0  0  0  0  0  0  0  0
   40.1950   83.8550   64.2530 H   0  0  0  0  0  0  0  0  0  0  0  0
   36.9210   77.3190   56.7190 C   0  0  0  0  0  0  0  0  0  0  0  0
   35.8130   77.0930   57.2290 O   0  0  0  0  0  0  0  0  0  0  0  0
   37.0160   77.9880   55.3690 C   0  0  1  0  0  0  0  0  0  0  0  0
   37.4220   79.4390   55.4590 C   0  0  0  0  0  0  0  0  0  0  0  0
   38.3030   78.4270   54.8700 C   0  0  2  0  0  0  0  0  0  0  0  0
   36.0430   77.8800   54.8300 H   0  0  0  0  0  0  0  0  0  0  0  0
   37.5890   79.8740   56.4590 H   0  0  0  0  0  0  0  0  0  0  0  0
   36.8790   80.1250   54.7860 H   0  0  0  0  0  0  0  0  0  0  0  0
   39.1930   78.1310   55.4620 H   0  0  0  0  0  0  0  0  0  0  0  0
   38.6180   78.5680   53.4070 C   0  0  1  0  0  3  0  0  0  0  0  0
   37.3980   78.8960   52.5690 C   0  0  0  0  0  3  0  0  0  0  0  0
   36.8470   77.9710   52.3990 H   0  0  0  0  0  0  0  0  0  0  0  0
   38.1000   79.4280   51.3220 C   0  0  0  0  0  3  0  0  0  0  0  0
   37.5100   80.1690   50.7870 H   0  0  0  0  0  0  0  0  0  0  0  0
   39.3460   79.8460   51.6990 O   0  0  0  0  0  0  0  0  0  0  0  0
   39.4770   79.7570   53.0760 C   0  0  0  0  0  3  0  0  0  0  0  0
   40.5280   79.6610   53.3570 H   0  0  0  0  0  0  0  0  0  0  0  0
  1 12  1  0  0  0  0
  2  1  1  0  0  0  0
  2  7  1  0  0  0  0
  3  2  2  0  0  0  0
  4  5  2  0  0  0  0
  4  3  1  0  0  0  0
  5  6  1  0  0  0  0
  6  1  2  0  0  0  0
  8  3  1  0  0  0  0
  9 10  2  0  0  0  0
  9 20  1  0  0  0  0
 10 14  1  0  0  0  0
 11 15  1  0  0  0  0
 11 10  1  0  0  0  0
 12 11  2  0  0  0  0
 13 12  1  0  0  0  0
 13  9  1  0  0  0  0
 16 17  1  0  0  0  0
 17 18  2  0  0  0  0
 17 23  1  0  0  0  0
 18 24  1  0  0  0  0
 19 18  1  0  0  0  0
 20 19  2  0  0  0  0
 21 20  1  0  0  0  0
 21 16  2  0  0  0  0
 22 16  1  0  0  0  0
 25 26  2  0  0  0  0
 25  5  1  0  0  0  0
 27 30  1  6  0  0  0
 27 28  1  0  0  0  0
 27 25  1  0  0  0  0
 28 31  1  0  0  0  0
 29 27  1  0  0  0  0
 29 28  1  0  0  0  0
 29 33  1  1  0  0  0
 32 28  1  0  0  0  0
 34 35  1  6  0  0  0
 34 29  1  0  0  0  0
 36 35  1  0  0  0  0
 37 39  1  0  0  0  0
 37 35  1  0  0  0  0
 38 37  1  0  0  0  0
 39 40  1  0  0  0  0
 40 41  1  0  0  0  0
 40 34  1  0  0  0  0
M  END
>  <minimizedAffinity>
-6.30661154

>  <minimizedRMSD>
0.663710415

$$$$
