
 OpenBabel03212521003D

 41 45  0  0  1  0  0  0  0  0999 V2000
   39.6920   77.2050   59.1110 C   0  0  0  0  0  0  0  0  0  0  0  0
   40.3800   76.0670   58.8320 C   0  0  0  0  0  0  0  0  0  0  0  0
   39.8090   75.3570   57.7610 C   0  0  0  0  0  0  0  0  0  0  0  0
   38.7110   75.7490   57.0870 N   0  0  0  0  0  0  0  0  0  0  0  0
   38.1000   76.9140   57.4560 C   0  0  0  0  0  0  0  0  0  0  0  0
   38.5950   77.6480   58.4770 N   0  0  0  0  0  0  0  0  0  0  0  0
   41.2510   75.7080   59.3300 H   0  0  0  0  0  0  0  0  0  0  0  0
   40.2440   74.4200   57.4120 H   0  0  0  0  0  0  0  0  0  0  0  0
   40.9680   80.1510   61.6330 C   0  0  0  0  0  0  0  0  0  0  0  0
   40.9350   78.9220   62.2430 C   0  0  0  0  0  0  0  0  0  0  0  0
   40.5300   77.8620   61.5210 C   0  0  0  0  0  0  0  0  0  0  0  0
   40.1640   78.0470   60.1920 C   0  0  0  0  0  0  0  0  0  0  0  0
   40.4050   79.8560   59.9310 S   0  0  0  0  0  0  0  0  0  0  0  0
   41.2220   78.7760   63.2870 H   0  0  0  0  0  0  0  0  0  0  0  0
   40.4330   76.8240   61.8080 H   0  0  0  0  0  0  0  0  0  0  0  0
   43.1100   82.9210   62.7370 C   0  0  0  0  0  0  0  0  0  0  0  0
   42.2260   83.7060   63.5230 C   0  0  0  0  0  0  0  0  0  0  0  0
   40.8960   83.2840   63.6680 C   0  0  0  0  0  0  0  0  0  0  0  0
   40.5150   82.1430   63.0490 N   0  0  0  0  0  0  0  0  0  0  0  0
   41.3910   81.4100   62.3020 C   0  0  0  0  0  0  0  0  0  0  0  0
   42.6570   81.8070   62.1610 N   0  0  0  0  0  0  0  0  0  0  0  0
   44.1400   83.2070   62.6000 H   0  0  0  0  0  0  0  0  0  0  0  0
   42.5810   84.6100   63.9950 H   0  0  0  0  0  0  0  0  0  0  0  0
   40.1900   83.8540   64.2570 H   0  0  0  0  0  0  0  0  0  0  0  0
   36.9250   77.3230   56.7130 C   0  0  0  0  0  0  0  0  0  0  0  0
   35.8190   77.0960   57.2270 O   0  0  0  0  0  0  0  0  0  0  0  0
   37.0150   77.9910   55.3620 C   0  0  1  0  0  0  0  0  0  0  0  0
   37.4190   79.4410   55.4500 C   0  0  0  0  0  0  0  0  0  0  0  0
   38.3000   78.4310   54.8600 C   0  0  2  0  0  0  0  0  0  0  0  0
   36.0410   77.8800   54.8270 H   0  0  0  0  0  0  0  0  0  0  0  0
   37.5870   79.8790   56.4490 H   0  0  0  0  0  0  0  0  0  0  0  0
   36.8740   80.1260   54.7770 H   0  0  0  0  0  0  0  0  0  0  0  0
   39.1920   78.1370   55.4500 H   0  0  0  0  0  0  0  0  0  0  0  0
   38.6120   78.5710   53.3960 C   0  0  1  0  0  3  0  0  0  0  0  0
   37.3910   78.9050   52.5610 C   0  0  0  0  0  3  0  0  0  0  0  0
   36.8350   77.9810   52.3940 H   0  0  0  0  0  0  0  0  0  0  0  0
   38.0920   79.4330   51.3140 C   0  0  0  0  0  3  0  0  0  0  0  0
   37.5030   80.1770   50.7800 H   0  0  0  0  0  0  0  0  0  0  0  0
   39.3400   79.8460   51.6870 O   0  0  0  0  0  0  0  0  0  0  0  0
   39.4750   79.7550   53.0620 C   0  0  0  0  0  3  0  0  0  0  0  0
   40.5260   79.6540   53.3410 H   0  0  0  0  0  0  0  0  0  0  0  0
  1 12  1  0  0  0  0
  2  1  1  0  0  0  0
  2  7  1  0  0  0  0
  3  2  2  0  0  0  0
  4  5  2  0  0  0  0
  4  3  1  0  0  0  0
  5  6  1  0  0  0  0
  6  1  2  0  0  0  0
  8  3  1  0  0  0  0
  9 10  2  0  0  0  0
  9 20  1  0  0  0  0
 10 14  1  0  0  0  0
 11 15  1  0  0  0  0
 11 10  1  0  0  0  0
 12 11  2  0  0  0  0
 13 12  1  0  0  0  0
 13  9  1  0  0  0  0
 16 17  1  0  0  0  0
 17 18  2  0  0  0  0
 17 23  1  0  0  0  0
 18 24  1  0  0  0  0
 19 18  1  0  0  0  0
 20 19  2  0  0  0  0
 21 20  1  0  0  0  0
 21 16  2  0  0  0  0
 22 16  1  0  0  0  0
 25 26  2  0  0  0  0
 25  5  1  0  0  0  0
 27 30  1  6  0  0  0
 27 28  1  0  0  0  0
 27 25  1  0  0  0  0
 28 31  1  0  0  0  0
 29 27  1  0  0  0  0
 29 33  1  1  0  0  0
 29 28  1  0  0  0  0
 32 28  1  0  0  0  0
 34 35  1  6  0  0  0
 34 29  1  0  0  0  0
 36 35  1  0  0  0  0
 37 39  1  0  0  0  0
 37 35  1  0  0  0  0
 38 37  1  0  0  0  0
 39 40  1  0  0  0  0
 40 41  1  0  0  0  0
 40 34  1  0  0  0  0
M  END
>  <minimizedAffinity>
-6.30896711

>  <minimizedRMSD>
0.74140662

$$$$
