
 OpenBabel03212521003D

 41 45  0  0  1  0  0  0  0  0999 V2000
   39.7910   77.4040   59.1770 C   0  0  0  0  0  0  0  0  0  0  0  0
   40.4920   76.2710   58.9070 C   0  0  0  0  0  0  0  0  0  0  0  0
   39.9510   75.5650   57.8180 C   0  0  0  0  0  0  0  0  0  0  0  0
   38.8670   75.9560   57.1200 N   0  0  0  0  0  0  0  0  0  0  0  0
   38.2410   77.1150   57.4820 C   0  0  0  0  0  0  0  0  0  0  0  0
   38.7070   77.8450   58.5190 N   0  0  0  0  0  0  0  0  0  0  0  0
   41.3520   75.9140   59.4240 H   0  0  0  0  0  0  0  0  0  0  0  0
   40.3980   74.6330   57.4740 H   0  0  0  0  0  0  0  0  0  0  0  0
   40.9770   80.3420   61.7500 C   0  0  0  0  0  0  0  0  0  0  0  0
   40.9570   79.1060   62.3460 C   0  0  0  0  0  0  0  0  0  0  0  0
   40.5820   78.0480   61.6060 C   0  0  0  0  0  0  0  0  0  0  0  0
   40.2320   78.2410   60.2730 C   0  0  0  0  0  0  0  0  0  0  0  0
   40.4450   80.0570   60.0370 S   0  0  0  0  0  0  0  0  0  0  0  0
   41.2320   78.9530   63.3920 H   0  0  0  0  0  0  0  0  0  0  0  0
   40.4990   77.0040   61.8790 H   0  0  0  0  0  0  0  0  0  0  0  0
   43.0500   83.1450   62.9040 C   0  0  0  0  0  0  0  0  0  0  0  0
   42.1450   83.8970   63.6980 C   0  0  0  0  0  0  0  0  0  0  0  0
   40.8240   83.4410   63.8330 C   0  0  0  0  0  0  0  0  0  0  0  0
   40.4730   82.3010   63.1960 N   0  0  0  0  0  0  0  0  0  0  0  0
   41.3680   81.6000   62.4400 C   0  0  0  0  0  0  0  0  0  0  0  0
   42.6250   82.0300   62.3100 N   0  0  0  0  0  0  0  0  0  0  0  0
   44.0730   83.4580   62.7750 H   0  0  0  0  0  0  0  0  0  0  0  0
   42.4760   84.8020   64.1860 H   0  0  0  0  0  0  0  0  0  0  0  0
   40.1040   83.9850   64.4280 H   0  0  0  0  0  0  0  0  0  0  0  0
   37.0820   77.5230   56.7130 C   0  0  0  0  0  0  0  0  0  0  0  0
   35.9780   77.0820   57.0700 O   0  0  0  0  0  0  0  0  0  0  0  0
   37.1870   78.4380   55.5170 C   0  0  1  0  0  0  0  0  0  0  0  0
   37.2990   79.8930   55.8980 C   0  0  0  0  0  0  0  0  0  0  0  0
   38.4110   79.1710   55.2750 C   0  0  2  0  0  0  0  0  0  0  0  0
   36.3130   78.2690   54.8420 H   0  0  0  0  0  0  0  0  0  0  0  0
   37.2760   80.1570   56.9700 H   0  0  0  0  0  0  0  0  0  0  0  0
   36.7090   80.5910   55.2800 H   0  0  0  0  0  0  0  0  0  0  0  0
   39.2760   78.9240   55.9250 H   0  0  0  0  0  0  0  0  0  0  0  0
   38.8440   79.6330   53.9120 C   0  0  1  0  0  3  0  0  0  0  0  0
   40.3360   79.4770   53.6820 C   0  0  0  0  0  3  0  0  0  0  0  0
   40.8410   80.3120   54.1670 H   0  0  0  0  0  0  0  0  0  0  0  0
   40.3510   79.5520   52.1580 C   0  0  0  0  0  3  0  0  0  0  0  0
   41.1710   78.9920   51.7150 H   0  0  0  0  0  0  0  0  0  0  0  0
   39.1070   79.2010   51.7150 O   0  0  0  0  0  0  0  0  0  0  0  0
   38.3260   78.7860   52.7830 C   0  0  0  0  0  3  0  0  0  0  0  0
   37.2650   78.9140   52.5580 H   0  0  0  0  0  0  0  0  0  0  0  0
  1 12  1  0  0  0  0
  2  1  1  0  0  0  0
  2  7  1  0  0  0  0
  3  2  2  0  0  0  0
  4  5  2  0  0  0  0
  4  3  1  0  0  0  0
  5  6  1  0  0  0  0
  6  1  2  0  0  0  0
  8  3  1  0  0  0  0
  9 10  2  0  0  0  0
  9 20  1  0  0  0  0
 10 14  1  0  0  0  0
 11 15  1  0  0  0  0
 11 10  1  0  0  0  0
 12 11  2  0  0  0  0
 13 12  1  0  0  0  0
 13  9  1  0  0  0  0
 16 17  1  0  0  0  0
 17 18  2  0  0  0  0
 17 23  1  0  0  0  0
 18 24  1  0  0  0  0
 19 18  1  0  0  0  0
 20 19  2  0  0  0  0
 21 20  1  0  0  0  0
 21 16  2  0  0  0  0
 22 16  1  0  0  0  0
 25 26  2  0  0  0  0
 25  5  1  0  0  0  0
 27 30  1  6  0  0  0
 27 28  1  0  0  0  0
 27 25  1  0  0  0  0
 28 31  1  0  0  0  0
 29 27  1  0  0  0  0
 29 28  1  0  0  0  0
 29 33  1  1  0  0  0
 32 28  1  0  0  0  0
 34 40  1  6  0  0  0
 34 29  1  0  0  0  0
 35 34  1  0  0  0  0
 35 36  1  0  0  0  0
 37 35  1  0  0  0  0
 38 37  1  0  0  0  0
 39 37  1  0  0  0  0
 39 40  1  0  0  0  0
 41 40  1  0  0  0  0
M  END
>  <minimizedAffinity>
-6.21324682

>  <minimizedRMSD>
0.122415267

$$$$
