
 OpenBabel03212520593D

 41 45  0  0  1  0  0  0  0  0999 V2000
   39.7850   77.3870   59.1780 C   0  0  0  0  0  0  0  0  0  0  0  0
   40.5050   76.2720   58.8850 C   0  0  0  0  0  0  0  0  0  0  0  0
   39.9560   75.5620   57.8020 C   0  0  0  0  0  0  0  0  0  0  0  0
   38.8500   75.9340   57.1310 N   0  0  0  0  0  0  0  0  0  0  0  0
   38.2050   77.0760   57.5150 C   0  0  0  0  0  0  0  0  0  0  0  0
   38.6780   77.8080   58.5480 N   0  0  0  0  0  0  0  0  0  0  0  0
   41.3840   75.9300   59.3800 H   0  0  0  0  0  0  0  0  0  0  0  0
   40.4170   74.6420   57.4420 H   0  0  0  0  0  0  0  0  0  0  0  0
   40.9800   80.3290   61.7430 C   0  0  0  0  0  0  0  0  0  0  0  0
   40.9670   79.0930   62.3390 C   0  0  0  0  0  0  0  0  0  0  0  0
   40.5910   78.0340   61.6020 C   0  0  0  0  0  0  0  0  0  0  0  0
   40.2310   78.2260   60.2720 C   0  0  0  0  0  0  0  0  0  0  0  0
   40.4360   80.0420   60.0330 S   0  0  0  0  0  0  0  0  0  0  0  0
   41.2500   78.9410   63.3840 H   0  0  0  0  0  0  0  0  0  0  0  0
   40.5130   76.9900   61.8760 H   0  0  0  0  0  0  0  0  0  0  0  0
   43.0540   83.1340   62.8890 C   0  0  0  0  0  0  0  0  0  0  0  0
   42.1500   83.8880   63.6820 C   0  0  0  0  0  0  0  0  0  0  0  0
   40.8290   83.4320   63.8200 C   0  0  0  0  0  0  0  0  0  0  0  0
   40.4770   82.2900   63.1850 N   0  0  0  0  0  0  0  0  0  0  0  0
   41.3710   81.5890   62.4300 C   0  0  0  0  0  0  0  0  0  0  0  0
   42.6280   82.0180   62.2970 N   0  0  0  0  0  0  0  0  0  0  0  0
   44.0770   83.4470   62.7570 H   0  0  0  0  0  0  0  0  0  0  0  0
   42.4820   84.7940   64.1680 H   0  0  0  0  0  0  0  0  0  0  0  0
   40.1100   83.9780   64.4150 H   0  0  0  0  0  0  0  0  0  0  0  0
   37.0210   77.4620   56.7750 C   0  0  0  0  0  0  0  0  0  0  0  0
   35.9280   77.0460   57.1900 O   0  0  0  0  0  0  0  0  0  0  0  0
   37.0870   78.3290   55.5410 C   0  0  1  0  0  0  0  0  0  0  0  0
   37.3180   79.7860   55.8570 C   0  0  0  0  0  0  0  0  0  0  0  0
   38.3310   78.9750   55.1780 C   0  0  2  0  0  0  0  0  0  0  0  0
   36.1550   78.1940   54.9410 H   0  0  0  0  0  0  0  0  0  0  0  0
   37.3940   80.0860   56.9160 H   0  0  0  0  0  0  0  0  0  0  0  0
   36.7240   80.5000   55.2590 H   0  0  0  0  0  0  0  0  0  0  0  0
   39.2270   78.6950   55.7700 H   0  0  0  0  0  0  0  0  0  0  0  0
   38.6830   79.3630   53.7700 C   0  0  1  0  0  3  0  0  0  0  0  0
   39.0670   78.1750   52.9090 C   0  0  0  0  0  3  0  0  0  0  0  0
   40.1010   77.9150   53.1360 H   0  0  0  0  0  0  0  0  0  0  0  0
   38.8820   78.8080   51.5330 C   0  0  0  0  0  3  0  0  0  0  0  0
   38.6080   78.0850   50.7680 H   0  0  0  0  0  0  0  0  0  0  0  0
   38.0160   79.8550   51.6740 O   0  0  0  0  0  0  0  0  0  0  0  0
   37.5240   79.8880   52.9690 C   0  0  0  0  0  3  0  0  0  0  0  0
   37.2000   80.8980   53.2330 H   0  0  0  0  0  0  0  0  0  0  0  0
  1 12  1  0  0  0  0
  2  1  1  0  0  0  0
  2  7  1  0  0  0  0
  3  2  2  0  0  0  0
  4  5  2  0  0  0  0
  4  3  1  0  0  0  0
  5  6  1  0  0  0  0
  6  1  2  0  0  0  0
  8  3  1  0  0  0  0
  9 10  2  0  0  0  0
  9 20  1  0  0  0  0
 10 14  1  0  0  0  0
 11 15  1  0  0  0  0
 11 10  1  0  0  0  0
 12 11  2  0  0  0  0
 13 12  1  0  0  0  0
 13  9  1  0  0  0  0
 16 17  1  0  0  0  0
 17 18  2  0  0  0  0
 17 23  1  0  0  0  0
 18 24  1  0  0  0  0
 19 18  1  0  0  0  0
 20 19  2  0  0  0  0
 21 20  1  0  0  0  0
 21 16  2  0  0  0  0
 22 16  1  0  0  0  0
 25 26  2  0  0  0  0
 25  5  1  0  0  0  0
 27 30  1  6  0  0  0
 27 28  1  0  0  0  0
 27 25  1  0  0  0  0
 28 31  1  0  0  0  0
 29 27  1  0  0  0  0
 29 33  1  1  0  0  0
 29 28  1  0  0  0  0
 32 28  1  0  0  0  0
 34 35  1  6  0  0  0
 34 29  1  0  0  0  0
 35 36  1  0  0  0  0
 37 39  1  0  0  0  0
 37 35  1  0  0  0  0
 38 37  1  0  0  0  0
 39 40  1  0  0  0  0
 40 41  1  0  0  0  0
 40 34  1  0  0  0  0
M  END
>  <minimizedAffinity>
-6.35038567

>  <minimizedRMSD>
0.319381177

$$$$
