
 OpenBabel03212521003D

 41 45  0  0  1  0  0  0  0  0999 V2000
   39.7180   77.2130   59.1810 C   0  0  0  0  0  0  0  0  0  0  0  0
   40.3950   76.0600   58.9360 C   0  0  0  0  0  0  0  0  0  0  0  0
   39.8380   75.3410   57.8640 C   0  0  0  0  0  0  0  0  0  0  0  0
   38.7630   75.7390   57.1580 N   0  0  0  0  0  0  0  0  0  0  0  0
   38.1610   76.9190   57.4940 C   0  0  0  0  0  0  0  0  0  0  0  0
   38.6440   77.6620   58.5140 N   0  0  0  0  0  0  0  0  0  0  0  0
   41.2480   75.6960   59.4610 H   0  0  0  0  0  0  0  0  0  0  0  0
   40.2660   74.3920   57.5410 H   0  0  0  0  0  0  0  0  0  0  0  0
   40.9670   80.1830   61.6880 C   0  0  0  0  0  0  0  0  0  0  0  0
   40.9230   78.9610   62.3100 C   0  0  0  0  0  0  0  0  0  0  0  0
   40.5260   77.8940   61.5940 C   0  0  0  0  0  0  0  0  0  0  0  0
   40.1770   78.0650   60.2580 C   0  0  0  0  0  0  0  0  0  0  0  0
   40.4270   79.8700   59.9810 S   0  0  0  0  0  0  0  0  0  0  0  0
   41.1960   78.8260   63.3600 H   0  0  0  0  0  0  0  0  0  0  0  0
   40.4220   76.8590   61.8910 H   0  0  0  0  0  0  0  0  0  0  0  0
   43.0950   82.9730   62.7690 C   0  0  0  0  0  0  0  0  0  0  0  0
   42.2090   83.7560   63.5540 C   0  0  0  0  0  0  0  0  0  0  0  0
   40.8820   83.3250   63.7080 C   0  0  0  0  0  0  0  0  0  0  0  0
   40.5070   82.1780   63.0960 N   0  0  0  0  0  0  0  0  0  0  0  0
   41.3840   81.4480   62.3480 C   0  0  0  0  0  0  0  0  0  0  0  0
   42.6470   81.8530   62.2000 N   0  0  0  0  0  0  0  0  0  0  0  0
   44.1220   83.2660   62.6250 H   0  0  0  0  0  0  0  0  0  0  0  0
   42.5590   84.6650   64.0210 H   0  0  0  0  0  0  0  0  0  0  0  0
   40.1750   83.8930   64.2970 H   0  0  0  0  0  0  0  0  0  0  0  0
   37.0100   77.3330   56.7170 C   0  0  0  0  0  0  0  0  0  0  0  0
   35.8880   77.0420   57.1600 O   0  0  0  0  0  0  0  0  0  0  0  0
   37.1430   78.0810   55.4120 C   0  0  1  0  0  0  0  0  0  0  0  0
   37.3930   79.5560   55.6040 C   0  0  0  0  0  0  0  0  0  0  0  0
   38.4140   78.6680   55.0430 C   0  0  2  0  0  0  0  0  0  0  0  0
   36.2320   77.9090   54.7900 H   0  0  0  0  0  0  0  0  0  0  0  0
   37.4350   79.9510   56.6330 H   0  0  0  0  0  0  0  0  0  0  0  0
   36.8380   80.2230   54.9200 H   0  0  0  0  0  0  0  0  0  0  0  0
   39.2800   78.4270   55.6930 H   0  0  0  0  0  0  0  0  0  0  0  0
   38.8280   78.9180   53.6210 C   0  0  1  0  0  3  0  0  0  0  0  0
   37.7890   79.6890   52.8300 C   0  0  0  0  0  3  0  0  0  0  0  0
   37.0130   78.9890   52.5210 H   0  0  0  0  0  0  0  0  0  0  0  0
   38.6710   80.1730   51.6830 C   0  0  0  0  0  3  0  0  0  0  0  0
   38.3350   81.1170   51.2590 H   0  0  0  0  0  0  0  0  0  0  0  0
   39.9630   80.1680   52.1270 O   0  0  0  0  0  0  0  0  0  0  0  0
   39.9960   79.8540   53.4760 C   0  0  0  0  0  3  0  0  0  0  0  0
   40.9650   79.4280   53.7500 H   0  0  0  0  0  0  0  0  0  0  0  0
  1 12  1  0  0  0  0
  2  1  1  0  0  0  0
  2  7  1  0  0  0  0
  3  2  2  0  0  0  0
  4  5  2  0  0  0  0
  4  3  1  0  0  0  0
  5  6  1  0  0  0  0
  6  1  2  0  0  0  0
  8  3  1  0  0  0  0
  9 10  2  0  0  0  0
  9 20  1  0  0  0  0
 10 14  1  0  0  0  0
 11 15  1  0  0  0  0
 11 10  1  0  0  0  0
 12 11  2  0  0  0  0
 13 12  1  0  0  0  0
 13  9  1  0  0  0  0
 16 17  1  0  0  0  0
 17 18  2  0  0  0  0
 17 23  1  0  0  0  0
 18 24  1  0  0  0  0
 19 18  1  0  0  0  0
 20 19  2  0  0  0  0
 21 20  1  0  0  0  0
 21 16  2  0  0  0  0
 22 16  1  0  0  0  0
 25 26  2  0  0  0  0
 25  5  1  0  0  0  0
 27 30  1  6  0  0  0
 27 28  1  0  0  0  0
 27 25  1  0  0  0  0
 28 31  1  0  0  0  0
 29 27  1  0  0  0  0
 29 28  1  0  0  0  0
 29 33  1  1  0  0  0
 32 28  1  0  0  0  0
 34 35  1  6  0  0  0
 34 29  1  0  0  0  0
 36 35  1  0  0  0  0
 37 39  1  0  0  0  0
 37 35  1  0  0  0  0
 38 37  1  0  0  0  0
 39 40  1  0  0  0  0
 40 34  1  0  0  0  0
 40 41  1  0  0  0  0
M  END
>  <minimizedAffinity>
-6.23992157

>  <minimizedRMSD>
0.606040657

$$$$
