
 OpenBabel03212520203D

 38 40  0  0  0  0  0  0  0  0999 V2000
   43.1430   83.9440   58.6150 Cl  0  0  0  0  0  0  0  0  0  0  0  0
   41.9090   82.7700   58.2230 C   0  0  0  0  0  0  0  0  0  0  0  0
   41.0360   82.2560   59.1580 C   0  0  0  0  0  0  0  0  0  0  0  0
   40.1160   81.3320   58.6830 C   0  0  0  0  0  0  0  0  0  0  0  0
   39.9880   80.8840   57.3950 C   0  0  0  0  0  0  0  0  0  0  0  0
   40.8690   81.4140   56.4940 C   0  0  0  0  0  0  0  0  0  0  0  0
   40.8270   80.9350   54.8030 Cl  0  0  0  0  0  0  0  0  0  0  0  0
   41.8160   82.3430   56.9010 C   0  0  0  0  0  0  0  0  0  0  0  0
   39.4390   80.9460   59.4570 H   0  0  0  0  0  0  0  0  0  0  0  0
   39.2480   80.1710   57.1260 H   0  0  0  0  0  0  0  0  0  0  0  0
   41.9530   82.1750   61.5220 C   0  0  0  0  0  0  0  0  0  0  0  0
   41.1290   82.6880   60.5040 C   0  0  0  0  0  0  0  0  0  0  0  0
   40.2950   83.7560   60.8510 C   0  0  0  0  0  0  0  0  0  0  0  0
   40.3660   84.1880   62.1370 N   0  0  0  0  0  0  0  0  0  0  0  0
   41.1520   83.6840   63.0780 C   0  0  0  0  0  0  0  0  0  0  0  0
   41.9780   82.6390   62.7580 N   0  0  0  0  0  0  0  0  0  0  0  0
   42.5820   81.3460   61.1970 H   0  0  0  0  0  0  0  0  0  0  0  0
   39.6230   84.2190   60.1380 H   0  0  0  0  0  0  0  0  0  0  0  0
   41.0610   84.3150   64.4070 C   0  0  0  0  0  0  0  0  0  0  0  0
   40.7370   85.6500   64.3370 F   0  0  0  0  0  0  0  0  0  0  0  0
   40.1120   83.6570   65.1840 F   0  0  0  0  0  0  0  0  0  0  0  0
   42.3040   84.2760   65.0590 F   0  0  0  0  0  0  0  0  0  0  0  0
   42.6900   82.8570   55.9560 O   0  0  0  0  0  0  0  0  0  0  0  0
   42.4040   83.9750   55.1350 C   0  0  0  0  0  0  0  0  0  0  0  0
   41.4570   84.3810   55.5400 H   0  0  0  0  0  0  0  0  0  0  0  0
   42.3380   83.6210   54.0870 H   0  0  0  0  0  0  0  0  0  0  0  0
   43.4850   84.8670   55.3020 O   0  0  0  0  0  0  0  0  0  0  0  0
   45.5390   85.9900   57.0830 Cl  0  0  0  0  0  0  0  0  0  0  0  0
   45.8780   85.0620   55.6630 C   0  0  0  0  0  0  0  0  0  0  0  0
   44.7780   84.6210   54.9550 C   0  0  0  0  0  0  0  0  0  0  0  0
   44.9680   83.8670   53.8000 C   0  0  0  0  0  0  0  0  0  0  0  0
   44.2080   83.4540   53.1450 H   0  0  0  0  0  0  0  0  0  0  0  0
   46.2370   83.5570   53.3530 C   0  0  0  0  0  0  0  0  0  0  0  0
   46.4610   82.9760   52.4620 H   0  0  0  0  0  0  0  0  0  0  0  0
   47.3500   84.0060   54.0720 C   0  0  0  0  0  0  0  0  0  0  0  0
   48.3380   83.7690   53.7310 H   0  0  0  0  0  0  0  0  0  0  0  0
   47.1370   84.7560   55.2220 C   0  0  0  0  0  0  0  0  0  0  0  0
   48.5020   85.3400   56.1540 Cl  0  0  0  0  0  0  0  0  0  0  0  0
  2  1  1  0  0  0  0
  2  3  1  0  0  0  0
  3 12  1  0  0  0  0
  4  3  2  0  0  0  0
  4  9  1  0  0  0  0
  5  4  1  0  0  0  0
  6  8  1  0  0  0  0
  6  5  2  0  0  0  0
  7  6  1  0  0  0  0
  8  2  2  0  0  0  0
 10  5  1  0  0  0  0
 11 16  1  0  0  0  0
 12 13  1  0  0  0  0
 12 11  2  0  0  0  0
 13 14  2  0  0  0  0
 14 15  1  0  0  0  0
 15 19  1  0  0  0  0
 16 15  2  0  0  0  0
 17 11  1  0  0  0  0
 18 13  1  0  0  0  0
 19 22  1  0  0  0  0
 19 21  1  0  0  0  0
 20 19  1  0  0  0  0
 23  8  1  0  0  0  0
 24 27  1  0  0  0  0
 24 25  1  0  0  0  0
 24 23  1  0  0  0  0
 26 24  1  0  0  0  0
 29 28  1  0  0  0  0
 30 27  1  0  0  0  0
 30 29  2  0  0  0  0
 31 30  1  0  0  0  0
 32 31  1  0  0  0  0
 33 31  2  0  0  0  0
 33 35  1  0  0  0  0
 34 33  1  0  0  0  0
 35 37  2  0  0  0  0
 36 35  1  0  0  0  0
 37 29  1  0  0  0  0
 37 38  1  0  0  0  0
M  END
>  <minimizedAffinity>
-4.88732481

>  <minimizedRMSD>
0.226245508

$$$$
