
 OpenBabel03212520203D

 38 40  0  0  0  0  0  0  0  0999 V2000
   43.0360   84.0170   58.6070 Cl  0  0  0  0  0  0  0  0  0  0  0  0
   41.8460   82.7910   58.2380 C   0  0  0  0  0  0  0  0  0  0  0  0
   41.0130   82.2430   59.1890 C   0  0  0  0  0  0  0  0  0  0  0  0
   40.1240   81.2790   58.7320 C   0  0  0  0  0  0  0  0  0  0  0  0
   39.9920   80.8230   57.4470 C   0  0  0  0  0  0  0  0  0  0  0  0
   40.8340   81.3890   56.5300 C   0  0  0  0  0  0  0  0  0  0  0  0
   40.7820   80.9050   54.8410 Cl  0  0  0  0  0  0  0  0  0  0  0  0
   41.7480   82.3580   56.9180 C   0  0  0  0  0  0  0  0  0  0  0  0
   39.4790   80.8660   59.5190 H   0  0  0  0  0  0  0  0  0  0  0  0
   39.2790   80.0790   57.1920 H   0  0  0  0  0  0  0  0  0  0  0  0
   41.9600   82.1910   61.5420 C   0  0  0  0  0  0  0  0  0  0  0  0
   41.1110   82.6800   60.5320 C   0  0  0  0  0  0  0  0  0  0  0  0
   40.2550   83.7290   60.8870 C   0  0  0  0  0  0  0  0  0  0  0  0
   40.3310   84.1670   62.1710 N   0  0  0  0  0  0  0  0  0  0  0  0
   41.1410   83.6850   63.1030 C   0  0  0  0  0  0  0  0  0  0  0  0
   41.9880   82.6590   62.7770 N   0  0  0  0  0  0  0  0  0  0  0  0
   42.6040   81.3770   61.2120 H   0  0  0  0  0  0  0  0  0  0  0  0
   39.5640   84.1730   60.1810 H   0  0  0  0  0  0  0  0  0  0  0  0
   41.0500   84.3180   64.4320 C   0  0  0  0  0  0  0  0  0  0  0  0
   40.7200   85.6510   64.3600 F   0  0  0  0  0  0  0  0  0  0  0  0
   40.1060   83.6570   65.2120 F   0  0  0  0  0  0  0  0  0  0  0  0
   42.2940   84.2850   65.0810 F   0  0  0  0  0  0  0  0  0  0  0  0
   42.5830   82.9060   55.9570 O   0  0  0  0  0  0  0  0  0  0  0  0
   42.3200   84.1200   55.2770 C   0  0  0  0  0  0  0  0  0  0  0  0
   41.5680   84.6340   55.9080 H   0  0  0  0  0  0  0  0  0  0  0  0
   41.9670   83.8710   54.2580 H   0  0  0  0  0  0  0  0  0  0  0  0
   43.5480   84.8150   55.2340 O   0  0  0  0  0  0  0  0  0  0  0  0
   45.9430   83.8120   56.6160 Cl  0  0  0  0  0  0  0  0  0  0  0  0
   45.8180   84.0180   54.9020 C   0  0  0  0  0  0  0  0  0  0  0  0
   44.6090   84.5030   54.4410 C   0  0  0  0  0  0  0  0  0  0  0  0
   44.4290   84.6960   53.0740 C   0  0  0  0  0  0  0  0  0  0  0  0
   43.5450   85.0660   52.5680 H   0  0  0  0  0  0  0  0  0  0  0  0
   45.4380   84.4120   52.1760 C   0  0  0  0  0  0  0  0  0  0  0  0
   45.3690   84.5380   51.0980 H   0  0  0  0  0  0  0  0  0  0  0  0
   46.6610   83.9220   52.6460 C   0  0  0  0  0  0  0  0  0  0  0  0
   47.4500   83.6990   51.9540 H   0  0  0  0  0  0  0  0  0  0  0  0
   46.8190   83.7360   54.0130 C   0  0  0  0  0  0  0  0  0  0  0  0
   48.3350   83.1250   54.6470 Cl  0  0  0  0  0  0  0  0  0  0  0  0
  2  1  1  0  0  0  0
  2  3  1  0  0  0  0
  3 12  1  0  0  0  0
  4  3  2  0  0  0  0
  4  9  1  0  0  0  0
  5  4  1  0  0  0  0
  6  8  1  0  0  0  0
  6  5  2  0  0  0  0
  7  6  1  0  0  0  0
  8  2  2  0  0  0  0
 10  5  1  0  0  0  0
 11 16  1  0  0  0  0
 12 13  1  0  0  0  0
 12 11  2  0  0  0  0
 13 14  2  0  0  0  0
 14 15  1  0  0  0  0
 15 19  1  0  0  0  0
 16 15  2  0  0  0  0
 17 11  1  0  0  0  0
 18 13  1  0  0  0  0
 19 22  1  0  0  0  0
 19 21  1  0  0  0  0
 20 19  1  0  0  0  0
 23  8  1  0  0  0  0
 24 25  1  0  0  0  0
 24 23  1  0  0  0  0
 26 24  1  0  0  0  0
 27 24  1  0  0  0  0
 29 28  1  0  0  0  0
 30 29  1  0  0  0  0
 30 27  1  0  0  0  0
 31 30  2  0  0  0  0
 32 31  1  0  0  0  0
 33 35  2  0  0  0  0
 33 31  1  0  0  0  0
 34 33  1  0  0  0  0
 35 37  1  0  0  0  0
 36 35  1  0  0  0  0
 37 38  1  0  0  0  0
 37 29  2  0  0  0  0
M  END
>  <minimizedAffinity>
-4.85187197

>  <minimizedRMSD>
0.545596302

$$$$
