
 OpenBabel03212520203D

 38 40  0  0  0  0  0  0  0  0999 V2000
   43.0670   84.0570   58.6220 Cl  0  0  0  0  0  0  0  0  0  0  0  0
   41.8830   82.8300   58.2400 C   0  0  0  0  0  0  0  0  0  0  0  0
   41.0460   82.2750   59.1840 C   0  0  0  0  0  0  0  0  0  0  0  0
   40.1630   81.3110   58.7170 C   0  0  0  0  0  0  0  0  0  0  0  0
   40.0400   80.8610   57.4290 C   0  0  0  0  0  0  0  0  0  0  0  0
   40.8860   81.4330   56.5190 C   0  0  0  0  0  0  0  0  0  0  0  0
   40.8450   80.9570   54.8280 Cl  0  0  0  0  0  0  0  0  0  0  0  0
   41.7940   82.4030   56.9180 C   0  0  0  0  0  0  0  0  0  0  0  0
   39.5140   80.8930   59.4980 H   0  0  0  0  0  0  0  0  0  0  0  0
   39.3300   80.1160   57.1670 H   0  0  0  0  0  0  0  0  0  0  0  0
   41.9780   82.2140   61.5420 C   0  0  0  0  0  0  0  0  0  0  0  0
   41.1350   82.7070   60.5300 C   0  0  0  0  0  0  0  0  0  0  0  0
   40.2760   83.7520   60.8830 C   0  0  0  0  0  0  0  0  0  0  0  0
   40.3420   84.1840   62.1700 N   0  0  0  0  0  0  0  0  0  0  0  0
   41.1470   83.7000   63.1050 C   0  0  0  0  0  0  0  0  0  0  0  0
   41.9980   82.6760   62.7790 N   0  0  0  0  0  0  0  0  0  0  0  0
   42.6260   81.4020   61.2130 H   0  0  0  0  0  0  0  0  0  0  0  0
   39.5880   84.1990   60.1750 H   0  0  0  0  0  0  0  0  0  0  0  0
   41.0470   84.3260   64.4360 C   0  0  0  0  0  0  0  0  0  0  0  0
   40.7100   85.6580   64.3680 F   0  0  0  0  0  0  0  0  0  0  0  0
   40.1040   83.6570   65.2100 F   0  0  0  0  0  0  0  0  0  0  0  0
   42.2890   84.2970   65.0900 F   0  0  0  0  0  0  0  0  0  0  0  0
   42.6330   82.9580   55.9640 O   0  0  0  0  0  0  0  0  0  0  0  0
   42.3320   84.1300   55.2290 C   0  0  0  0  0  0  0  0  0  0  0  0
   41.7940   84.7780   55.9470 H   0  0  0  0  0  0  0  0  0  0  0  0
   41.7340   83.8330   54.3440 H   0  0  0  0  0  0  0  0  0  0  0  0
   43.5750   84.6760   54.8420 O   0  0  0  0  0  0  0  0  0  0  0  0
   46.0680   86.1830   54.4390 Cl  0  0  0  0  0  0  0  0  0  0  0  0
   45.2620   85.2810   53.2030 C   0  0  0  0  0  0  0  0  0  0  0  0
   44.1010   84.6390   53.5870 C   0  0  0  0  0  0  0  0  0  0  0  0
   43.3930   83.8920   52.6490 C   0  0  0  0  0  0  0  0  0  0  0  0
   42.4740   83.3380   52.8000 H   0  0  0  0  0  0  0  0  0  0  0  0
   43.8340   83.7840   51.3460 C   0  0  0  0  0  0  0  0  0  0  0  0
   43.3350   83.2210   50.5610 H   0  0  0  0  0  0  0  0  0  0  0  0
   45.0100   84.4360   50.9590 C   0  0  0  0  0  0  0  0  0  0  0  0
   45.3590   84.3570   49.9480 H   0  0  0  0  0  0  0  0  0  0  0  0
   45.7000   85.1750   51.9100 C   0  0  0  0  0  0  0  0  0  0  0  0
   47.1790   86.0080   51.4720 Cl  0  0  0  0  0  0  0  0  0  0  0  0
  2  1  1  0  0  0  0
  2  3  1  0  0  0  0
  3 12  1  0  0  0  0
  4  3  2  0  0  0  0
  4  9  1  0  0  0  0
  5  4  1  0  0  0  0
  6  8  1  0  0  0  0
  6  5  2  0  0  0  0
  7  6  1  0  0  0  0
  8  2  2  0  0  0  0
 10  5  1  0  0  0  0
 11 16  1  0  0  0  0
 12 13  1  0  0  0  0
 12 11  2  0  0  0  0
 13 14  2  0  0  0  0
 14 15  1  0  0  0  0
 15 19  1  0  0  0  0
 16 15  2  0  0  0  0
 17 11  1  0  0  0  0
 18 13  1  0  0  0  0
 19 22  1  0  0  0  0
 19 21  1  0  0  0  0
 20 19  1  0  0  0  0
 23  8  1  0  0  0  0
 24 25  1  0  0  0  0
 24 23  1  0  0  0  0
 26 24  1  0  0  0  0
 27 24  1  0  0  0  0
 29 30  1  0  0  0  0
 29 28  1  0  0  0  0
 30 27  1  0  0  0  0
 31 32  1  0  0  0  0
 31 30  2  0  0  0  0
 33 31  1  0  0  0  0
 34 33  1  0  0  0  0
 35 33  2  0  0  0  0
 35 37  1  0  0  0  0
 36 35  1  0  0  0  0
 37 29  2  0  0  0  0
 38 37  1  0  0  0  0
M  END
>  <minimizedAffinity>
-4.96222305

>  <minimizedRMSD>
1.39410949

$$$$
