
 OpenBabel03212520203D

 38 40  0  0  0  0  0  0  0  0999 V2000
   43.1340   83.9790   58.6770 Cl  0  0  0  0  0  0  0  0  0  0  0  0
   41.9130   82.7940   58.2770 C   0  0  0  0  0  0  0  0  0  0  0  0
   41.0410   82.2710   59.2070 C   0  0  0  0  0  0  0  0  0  0  0  0
   40.1310   81.3380   58.7270 C   0  0  0  0  0  0  0  0  0  0  0  0
   40.0120   80.8920   57.4380 C   0  0  0  0  0  0  0  0  0  0  0  0
   40.8930   81.4320   56.5410 C   0  0  0  0  0  0  0  0  0  0  0  0
   40.8610   80.9560   54.8500 Cl  0  0  0  0  0  0  0  0  0  0  0  0
   41.8290   82.3690   56.9540 C   0  0  0  0  0  0  0  0  0  0  0  0
   39.4550   80.9450   59.4980 H   0  0  0  0  0  0  0  0  0  0  0  0
   39.2800   80.1730   57.1650 H   0  0  0  0  0  0  0  0  0  0  0  0
   41.9350   82.1800   61.5800 C   0  0  0  0  0  0  0  0  0  0  0  0
   41.1240   82.7000   60.5550 C   0  0  0  0  0  0  0  0  0  0  0  0
   40.2950   83.7740   60.8950 C   0  0  0  0  0  0  0  0  0  0  0  0
   40.3560   84.2050   62.1820 N   0  0  0  0  0  0  0  0  0  0  0  0
   41.1310   83.6950   63.1300 C   0  0  0  0  0  0  0  0  0  0  0  0
   41.9520   82.6430   62.8170 N   0  0  0  0  0  0  0  0  0  0  0  0
   42.5600   81.3480   61.2600 H   0  0  0  0  0  0  0  0  0  0  0  0
   39.6330   84.2430   60.1760 H   0  0  0  0  0  0  0  0  0  0  0  0
   41.0320   84.3250   64.4590 C   0  0  0  0  0  0  0  0  0  0  0  0
   40.6890   85.6550   64.3870 F   0  0  0  0  0  0  0  0  0  0  0  0
   40.0920   83.6540   65.2370 F   0  0  0  0  0  0  0  0  0  0  0  0
   42.2750   84.3030   65.1100 F   0  0  0  0  0  0  0  0  0  0  0  0
   42.7020   82.8920   56.0130 O   0  0  0  0  0  0  0  0  0  0  0  0
   42.4490   84.0660   55.2620 C   0  0  0  0  0  0  0  0  0  0  0  0
   41.5170   84.4770   55.6950 H   0  0  0  0  0  0  0  0  0  0  0  0
   42.3690   83.7770   54.1960 H   0  0  0  0  0  0  0  0  0  0  0  0
   43.5580   84.9120   55.4770 O   0  0  0  0  0  0  0  0  0  0  0  0
   44.1740   85.3450   52.6340 Cl  0  0  0  0  0  0  0  0  0  0  0  0
   45.3190   84.7960   53.8100 C   0  0  0  0  0  0  0  0  0  0  0  0
   44.8390   84.6540   55.0950 C   0  0  0  0  0  0  0  0  0  0  0  0
   45.7000   84.2170   56.1000 C   0  0  0  0  0  0  0  0  0  0  0  0
   45.4690   84.0570   57.1470 H   0  0  0  0  0  0  0  0  0  0  0  0
   47.0210   83.9250   55.8280 C   0  0  0  0  0  0  0  0  0  0  0  0
   47.7480   83.5800   56.5590 H   0  0  0  0  0  0  0  0  0  0  0  0
   47.5040   84.0700   54.5230 C   0  0  0  0  0  0  0  0  0  0  0  0
   48.5300   83.8450   54.3050 H   0  0  0  0  0  0  0  0  0  0  0  0
   46.6290   84.5070   53.5380 C   0  0  0  0  0  0  0  0  0  0  0  0
   47.1920   84.7040   51.8890 Cl  0  0  0  0  0  0  0  0  0  0  0  0
  2  1  1  0  0  0  0
  2  3  1  0  0  0  0
  3 12  1  0  0  0  0
  4  3  2  0  0  0  0
  4  9  1  0  0  0  0
  5  4  1  0  0  0  0
  6  8  1  0  0  0  0
  6  5  2  0  0  0  0
  7  6  1  0  0  0  0
  8  2  2  0  0  0  0
 10  5  1  0  0  0  0
 11 16  1  0  0  0  0
 12 13  1  0  0  0  0
 12 11  2  0  0  0  0
 13 14  2  0  0  0  0
 14 15  1  0  0  0  0
 15 19  1  0  0  0  0
 16 15  2  0  0  0  0
 17 11  1  0  0  0  0
 18 13  1  0  0  0  0
 19 22  1  0  0  0  0
 19 21  1  0  0  0  0
 20 19  1  0  0  0  0
 23  8  1  0  0  0  0
 24 27  1  0  0  0  0
 24 25  1  0  0  0  0
 24 23  1  0  0  0  0
 26 24  1  0  0  0  0
 28 29  1  0  0  0  0
 29 30  1  0  0  0  0
 30 27  1  0  0  0  0
 30 31  2  0  0  0  0
 31 32  1  0  0  0  0
 33 31  1  0  0  0  0
 33 34  1  0  0  0  0
 35 33  2  0  0  0  0
 36 35  1  0  0  0  0
 37 29  2  0  0  0  0
 37 35  1  0  0  0  0
 38 37  1  0  0  0  0
M  END
>  <minimizedAffinity>
-4.89293814

>  <minimizedRMSD>
0.279762954

$$$$
