
 OpenBabel03212520203D

 38 40  0  0  0  0  0  0  0  0999 V2000
   43.1330   83.9800   58.6740 Cl  0  0  0  0  0  0  0  0  0  0  0  0
   41.9120   82.7940   58.2750 C   0  0  0  0  0  0  0  0  0  0  0  0
   41.0420   82.2710   59.2070 C   0  0  0  0  0  0  0  0  0  0  0  0
   40.1320   81.3380   58.7280 C   0  0  0  0  0  0  0  0  0  0  0  0
   40.0130   80.8910   57.4380 C   0  0  0  0  0  0  0  0  0  0  0  0
   40.8920   81.4310   56.5410 C   0  0  0  0  0  0  0  0  0  0  0  0
   40.8600   80.9540   54.8500 Cl  0  0  0  0  0  0  0  0  0  0  0  0
   41.8280   82.3690   56.9520 C   0  0  0  0  0  0  0  0  0  0  0  0
   39.4560   80.9450   59.4990 H   0  0  0  0  0  0  0  0  0  0  0  0
   39.2810   80.1710   57.1660 H   0  0  0  0  0  0  0  0  0  0  0  0
   41.9420   82.1880   61.5770 C   0  0  0  0  0  0  0  0  0  0  0  0
   41.1250   82.7020   60.5530 C   0  0  0  0  0  0  0  0  0  0  0  0
   40.2900   83.7700   60.8960 C   0  0  0  0  0  0  0  0  0  0  0  0
   40.3520   84.2020   62.1820 N   0  0  0  0  0  0  0  0  0  0  0  0
   41.1320   83.6970   63.1280 C   0  0  0  0  0  0  0  0  0  0  0  0
   41.9600   82.6510   62.8140 N   0  0  0  0  0  0  0  0  0  0  0  0
   42.5730   81.3590   61.2560 H   0  0  0  0  0  0  0  0  0  0  0  0
   39.6230   84.2340   60.1790 H   0  0  0  0  0  0  0  0  0  0  0  0
   41.0320   84.3270   64.4580 C   0  0  0  0  0  0  0  0  0  0  0  0
   40.6940   85.6580   64.3860 F   0  0  0  0  0  0  0  0  0  0  0  0
   40.0900   83.6580   65.2340 F   0  0  0  0  0  0  0  0  0  0  0  0
   42.2740   84.3010   65.1110 F   0  0  0  0  0  0  0  0  0  0  0  0
   42.7010   82.8920   56.0110 O   0  0  0  0  0  0  0  0  0  0  0  0
   42.4430   84.0610   55.2540 C   0  0  0  0  0  0  0  0  0  0  0  0
   41.5110   84.4720   55.6870 H   0  0  0  0  0  0  0  0  0  0  0  0
   42.3620   83.7670   54.1900 H   0  0  0  0  0  0  0  0  0  0  0  0
   43.5510   84.9110   55.4630 O   0  0  0  0  0  0  0  0  0  0  0  0
   44.1660   85.3250   52.6180 Cl  0  0  0  0  0  0  0  0  0  0  0  0
   45.3120   84.7870   53.7970 C   0  0  0  0  0  0  0  0  0  0  0  0
   44.8320   84.6530   55.0840 C   0  0  0  0  0  0  0  0  0  0  0  0
   45.6930   84.2240   56.0910 C   0  0  0  0  0  0  0  0  0  0  0  0
   45.4640   84.0720   57.1410 H   0  0  0  0  0  0  0  0  0  0  0  0
   47.0150   83.9330   55.8210 C   0  0  0  0  0  0  0  0  0  0  0  0
   47.7430   83.5940   56.5540 H   0  0  0  0  0  0  0  0  0  0  0  0
   47.4990   84.0700   54.5150 C   0  0  0  0  0  0  0  0  0  0  0  0
   48.5240   83.8450   54.2980 H   0  0  0  0  0  0  0  0  0  0  0  0
   46.6220   84.4990   53.5260 C   0  0  0  0  0  0  0  0  0  0  0  0
   47.1850   84.6850   51.8760 Cl  0  0  0  0  0  0  0  0  0  0  0  0
  2  1  1  0  0  0  0
  2  3  1  0  0  0  0
  3 12  1  0  0  0  0
  4  3  2  0  0  0  0
  4  9  1  0  0  0  0
  5  4  1  0  0  0  0
  6  8  1  0  0  0  0
  6  5  2  0  0  0  0
  7  6  1  0  0  0  0
  8  2  2  0  0  0  0
 10  5  1  0  0  0  0
 11 16  1  0  0  0  0
 12 13  1  0  0  0  0
 12 11  2  0  0  0  0
 13 14  2  0  0  0  0
 14 15  1  0  0  0  0
 15 19  1  0  0  0  0
 16 15  2  0  0  0  0
 17 11  1  0  0  0  0
 18 13  1  0  0  0  0
 19 22  1  0  0  0  0
 19 21  1  0  0  0  0
 20 19  1  0  0  0  0
 23  8  1  0  0  0  0
 24 27  1  0  0  0  0
 24 25  1  0  0  0  0
 24 23  1  0  0  0  0
 26 24  1  0  0  0  0
 28 29  1  0  0  0  0
 29 30  1  0  0  0  0
 30 27  1  0  0  0  0
 30 31  2  0  0  0  0
 31 32  1  0  0  0  0
 33 31  1  0  0  0  0
 33 34  1  0  0  0  0
 35 33  2  0  0  0  0
 36 35  1  0  0  0  0
 37 29  2  0  0  0  0
 37 35  1  0  0  0  0
 38 37  1  0  0  0  0
M  END
>  <minimizedAffinity>
-4.89091778

>  <minimizedRMSD>
0.596901238

$$$$
