
 OpenBabel03212520203D

 38 40  0  0  0  0  0  0  0  0999 V2000
   43.3280   83.7580   58.6330 Cl  0  0  0  0  0  0  0  0  0  0  0  0
   42.0020   82.7050   58.1990 C   0  0  0  0  0  0  0  0  0  0  0  0
   41.0560   82.2770   59.1040 C   0  0  0  0  0  0  0  0  0  0  0  0
   40.0670   81.4430   58.5990 C   0  0  0  0  0  0  0  0  0  0  0  0
   39.9390   81.0090   57.3060 C   0  0  0  0  0  0  0  0  0  0  0  0
   40.8950   81.4530   56.4350 C   0  0  0  0  0  0  0  0  0  0  0  0
   40.8610   80.9790   54.7420 Cl  0  0  0  0  0  0  0  0  0  0  0  0
   41.9110   82.2890   56.8740 C   0  0  0  0  0  0  0  0  0  0  0  0
   39.3330   81.1230   59.3500 H   0  0  0  0  0  0  0  0  0  0  0  0
   39.1440   80.3680   57.0120 H   0  0  0  0  0  0  0  0  0  0  0  0
   41.9460   82.1600   61.4770 C   0  0  0  0  0  0  0  0  0  0  0  0
   41.1450   82.6990   60.4540 C   0  0  0  0  0  0  0  0  0  0  0  0
   40.3350   83.7850   60.7990 C   0  0  0  0  0  0  0  0  0  0  0  0
   40.4030   84.2090   62.0880 N   0  0  0  0  0  0  0  0  0  0  0  0
   41.1680   83.6810   63.0330 C   0  0  0  0  0  0  0  0  0  0  0  0
   41.9700   82.6160   62.7160 N   0  0  0  0  0  0  0  0  0  0  0  0
   42.5570   81.3180   61.1540 H   0  0  0  0  0  0  0  0  0  0  0  0
   39.6830   84.2700   60.0820 H   0  0  0  0  0  0  0  0  0  0  0  0
   41.0790   84.3060   64.3660 C   0  0  0  0  0  0  0  0  0  0  0  0
   40.7600   85.6430   64.3000 F   0  0  0  0  0  0  0  0  0  0  0  0
   40.1290   83.6480   65.1400 F   0  0  0  0  0  0  0  0  0  0  0  0
   42.3220   84.2600   65.0170 F   0  0  0  0  0  0  0  0  0  0  0  0
   42.8600   82.7160   55.9580 O   0  0  0  0  0  0  0  0  0  0  0  0
   42.7370   83.8930   55.1800 C   0  0  0  0  0  0  0  0  0  0  0  0
   42.6470   84.7090   55.9240 H   0  0  0  0  0  0  0  0  0  0  0  0
   41.8550   83.7760   54.5210 H   0  0  0  0  0  0  0  0  0  0  0  0
   43.9270   83.9870   54.4260 O   0  0  0  0  0  0  0  0  0  0  0  0
   43.5730   81.6840   52.6300 Cl  0  0  0  0  0  0  0  0  0  0  0  0
   43.8630   83.3040   52.0960 C   0  0  0  0  0  0  0  0  0  0  0  0
   44.0010   84.2500   53.0920 C   0  0  0  0  0  0  0  0  0  0  0  0
   44.2370   85.5780   52.7440 C   0  0  0  0  0  0  0  0  0  0  0  0
   44.3680   86.4250   53.4080 H   0  0  0  0  0  0  0  0  0  0  0  0
   44.3330   85.9600   51.4210 C   0  0  0  0  0  0  0  0  0  0  0  0
   44.5130   86.9750   51.0740 H   0  0  0  0  0  0  0  0  0  0  0  0
   44.1900   84.9990   50.4130 C   0  0  0  0  0  0  0  0  0  0  0  0
   44.2630   85.2890   49.3830 H   0  0  0  0  0  0  0  0  0  0  0  0
   43.9570   83.6820   50.7840 C   0  0  0  0  0  0  0  0  0  0  0  0
   43.7720   82.4440   49.5550 Cl  0  0  0  0  0  0  0  0  0  0  0  0
  2  1  1  0  0  0  0
  2  3  1  0  0  0  0
  3 12  1  0  0  0  0
  4  3  2  0  0  0  0
  4  9  1  0  0  0  0
  5  4  1  0  0  0  0
  6  8  1  0  0  0  0
  6  5  2  0  0  0  0
  7  6  1  0  0  0  0
  8  2  2  0  0  0  0
 10  5  1  0  0  0  0
 11 16  1  0  0  0  0
 12 13  1  0  0  0  0
 12 11  2  0  0  0  0
 13 14  2  0  0  0  0
 14 15  1  0  0  0  0
 15 19  1  0  0  0  0
 16 15  2  0  0  0  0
 17 11  1  0  0  0  0
 18 13  1  0  0  0  0
 19 22  1  0  0  0  0
 19 21  1  0  0  0  0
 20 19  1  0  0  0  0
 23  8  1  0  0  0  0
 24 25  1  0  0  0  0
 24 23  1  0  0  0  0
 26 24  1  0  0  0  0
 27 24  1  0  0  0  0
 29 28  1  0  0  0  0
 29 30  1  0  0  0  0
 30 27  1  0  0  0  0
 31 30  2  0  0  0  0
 31 32  1  0  0  0  0
 33 31  1  0  0  0  0
 34 33  1  0  0  0  0
 35 37  1  0  0  0  0
 35 33  2  0  0  0  0
 36 35  1  0  0  0  0
 37 29  2  0  0  0  0
 38 37  1  0  0  0  0
M  END
>  <minimizedAffinity>
-4.69744635

>  <minimizedRMSD>
2.12395716

$$$$
