
 OpenBabel03212520203D

 38 40  0  0  0  0  0  0  0  0999 V2000
   43.1780   83.9220   58.6340 Cl  0  0  0  0  0  0  0  0  0  0  0  0
   41.9310   82.7650   58.2320 C   0  0  0  0  0  0  0  0  0  0  0  0
   41.0450   82.2630   59.1600 C   0  0  0  0  0  0  0  0  0  0  0  0
   40.1150   81.3520   58.6790 C   0  0  0  0  0  0  0  0  0  0  0  0
   39.9890   80.9070   57.3890 C   0  0  0  0  0  0  0  0  0  0  0  0
   40.8840   81.4260   56.4950 C   0  0  0  0  0  0  0  0  0  0  0  0
   40.8450   80.9500   54.8030 Cl  0  0  0  0  0  0  0  0  0  0  0  0
   41.8400   82.3420   56.9090 C   0  0  0  0  0  0  0  0  0  0  0  0
   39.4280   80.9740   59.4480 H   0  0  0  0  0  0  0  0  0  0  0  0
   39.2410   80.2050   57.1150 H   0  0  0  0  0  0  0  0  0  0  0  0
   41.9520   82.1710   61.5280 C   0  0  0  0  0  0  0  0  0  0  0  0
   41.1350   82.6920   60.5070 C   0  0  0  0  0  0  0  0  0  0  0  0
   40.3070   83.7640   60.8530 C   0  0  0  0  0  0  0  0  0  0  0  0
   40.3750   84.1940   62.1400 N   0  0  0  0  0  0  0  0  0  0  0  0
   41.1550   83.6840   63.0830 C   0  0  0  0  0  0  0  0  0  0  0  0
   41.9750   82.6330   62.7650 N   0  0  0  0  0  0  0  0  0  0  0  0
   42.5760   81.3400   61.2040 H   0  0  0  0  0  0  0  0  0  0  0  0
   39.6410   84.2330   60.1380 H   0  0  0  0  0  0  0  0  0  0  0  0
   41.0620   84.3130   64.4140 C   0  0  0  0  0  0  0  0  0  0  0  0
   40.7330   85.6470   64.3440 F   0  0  0  0  0  0  0  0  0  0  0  0
   40.1160   83.6510   65.1910 F   0  0  0  0  0  0  0  0  0  0  0  0
   42.3050   84.2770   65.0650 F   0  0  0  0  0  0  0  0  0  0  0  0
   42.7280   82.8440   55.9700 O   0  0  0  0  0  0  0  0  0  0  0  0
   42.4860   84.0000   55.1890 C   0  0  0  0  0  0  0  0  0  0  0  0
   41.5340   84.4070   55.5830 H   0  0  0  0  0  0  0  0  0  0  0  0
   42.4460   83.6910   54.1260 H   0  0  0  0  0  0  0  0  0  0  0  0
   43.5770   84.8640   55.4250 O   0  0  0  0  0  0  0  0  0  0  0  0
   44.2340   85.5090   52.6320 Cl  0  0  0  0  0  0  0  0  0  0  0  0
   45.3640   84.8780   53.7820 C   0  0  0  0  0  0  0  0  0  0  0  0
   44.8640   84.6390   55.0460 C   0  0  0  0  0  0  0  0  0  0  0  0
   45.7100   84.1300   56.0280 C   0  0  0  0  0  0  0  0  0  0  0  0
   45.4650   83.8930   57.0570 H   0  0  0  0  0  0  0  0  0  0  0  0
   47.0380   83.8630   55.7560 C   0  0  0  0  0  0  0  0  0  0  0  0
   47.7550   83.4660   56.4700 H   0  0  0  0  0  0  0  0  0  0  0  0
   47.5400   84.1060   54.4730 C   0  0  0  0  0  0  0  0  0  0  0  0
   48.5700   83.9010   54.2550 H   0  0  0  0  0  0  0  0  0  0  0  0
   46.6790   84.6130   53.5090 C   0  0  0  0  0  0  0  0  0  0  0  0
   47.2660   84.9340   51.8890 Cl  0  0  0  0  0  0  0  0  0  0  0  0
  2  1  1  0  0  0  0
  2  3  1  0  0  0  0
  3 12  1  0  0  0  0
  4  3  2  0  0  0  0
  4  9  1  0  0  0  0
  5  4  1  0  0  0  0
  6  8  1  0  0  0  0
  6  5  2  0  0  0  0
  7  6  1  0  0  0  0
  8  2  2  0  0  0  0
 10  5  1  0  0  0  0
 11 16  1  0  0  0  0
 12 13  1  0  0  0  0
 12 11  2  0  0  0  0
 13 14  2  0  0  0  0
 14 15  1  0  0  0  0
 15 19  1  0  0  0  0
 16 15  2  0  0  0  0
 17 11  1  0  0  0  0
 18 13  1  0  0  0  0
 19 22  1  0  0  0  0
 19 21  1  0  0  0  0
 20 19  1  0  0  0  0
 23  8  1  0  0  0  0
 24 27  1  0  0  0  0
 24 25  1  0  0  0  0
 24 23  1  0  0  0  0
 26 24  1  0  0  0  0
 28 29  1  0  0  0  0
 29 30  1  0  0  0  0
 30 27  1  0  0  0  0
 30 31  2  0  0  0  0
 31 32  1  0  0  0  0
 33 31  1  0  0  0  0
 33 34  1  0  0  0  0
 35 33  2  0  0  0  0
 36 35  1  0  0  0  0
 37 29  2  0  0  0  0
 37 35  1  0  0  0  0
 38 37  1  0  0  0  0
M  END
>  <minimizedAffinity>
-4.89434481

>  <minimizedRMSD>
1.15557706

$$$$
