
 OpenBabel03212520203D

 38 40  0  0  0  0  0  0  0  0999 V2000
   43.0350   84.0160   58.6060 Cl  0  0  0  0  0  0  0  0  0  0  0  0
   41.8460   82.7900   58.2370 C   0  0  0  0  0  0  0  0  0  0  0  0
   41.0130   82.2420   59.1880 C   0  0  0  0  0  0  0  0  0  0  0  0
   40.1240   81.2780   58.7310 C   0  0  0  0  0  0  0  0  0  0  0  0
   39.9920   80.8230   57.4460 C   0  0  0  0  0  0  0  0  0  0  0  0
   40.8340   81.3880   56.5290 C   0  0  0  0  0  0  0  0  0  0  0  0
   40.7810   80.9040   54.8400 Cl  0  0  0  0  0  0  0  0  0  0  0  0
   41.7470   82.3570   56.9170 C   0  0  0  0  0  0  0  0  0  0  0  0
   39.4780   80.8660   59.5180 H   0  0  0  0  0  0  0  0  0  0  0  0
   39.2780   80.0780   57.1920 H   0  0  0  0  0  0  0  0  0  0  0  0
   41.9600   82.1910   61.5410 C   0  0  0  0  0  0  0  0  0  0  0  0
   41.1110   82.6800   60.5320 C   0  0  0  0  0  0  0  0  0  0  0  0
   40.2550   83.7280   60.8860 C   0  0  0  0  0  0  0  0  0  0  0  0
   40.3310   84.1660   62.1700 N   0  0  0  0  0  0  0  0  0  0  0  0
   41.1410   83.6850   63.1020 C   0  0  0  0  0  0  0  0  0  0  0  0
   41.9890   82.6590   62.7760 N   0  0  0  0  0  0  0  0  0  0  0  0
   42.6050   81.3770   61.2110 H   0  0  0  0  0  0  0  0  0  0  0  0
   39.5640   84.1730   60.1800 H   0  0  0  0  0  0  0  0  0  0  0  0
   41.0510   84.3180   64.4310 C   0  0  0  0  0  0  0  0  0  0  0  0
   40.7210   85.6510   64.3590 F   0  0  0  0  0  0  0  0  0  0  0  0
   40.1060   83.6570   65.2120 F   0  0  0  0  0  0  0  0  0  0  0  0
   42.2950   84.2840   65.0800 F   0  0  0  0  0  0  0  0  0  0  0  0
   42.5820   82.9050   55.9560 O   0  0  0  0  0  0  0  0  0  0  0  0
   42.3200   84.1200   55.2770 C   0  0  0  0  0  0  0  0  0  0  0  0
   41.5680   84.6340   55.9080 H   0  0  0  0  0  0  0  0  0  0  0  0
   41.9670   83.8720   54.2570 H   0  0  0  0  0  0  0  0  0  0  0  0
   43.5480   84.8150   55.2350 O   0  0  0  0  0  0  0  0  0  0  0  0
   45.9430   83.8110   56.6150 Cl  0  0  0  0  0  0  0  0  0  0  0  0
   45.8180   84.0180   54.9020 C   0  0  0  0  0  0  0  0  0  0  0  0
   44.6090   84.5020   54.4420 C   0  0  0  0  0  0  0  0  0  0  0  0
   44.4290   84.6960   53.0750 C   0  0  0  0  0  0  0  0  0  0  0  0
   43.5440   85.0660   52.5680 H   0  0  0  0  0  0  0  0  0  0  0  0
   45.4370   84.4130   52.1770 C   0  0  0  0  0  0  0  0  0  0  0  0
   45.3690   84.5390   51.0980 H   0  0  0  0  0  0  0  0  0  0  0  0
   46.6600   83.9230   52.6450 C   0  0  0  0  0  0  0  0  0  0  0  0
   47.4490   83.6990   51.9530 H   0  0  0  0  0  0  0  0  0  0  0  0
   46.8190   83.7360   54.0120 C   0  0  0  0  0  0  0  0  0  0  0  0
   48.3350   83.1240   54.6450 Cl  0  0  0  0  0  0  0  0  0  0  0  0
  2  1  1  0  0  0  0
  2  3  1  0  0  0  0
  3 12  1  0  0  0  0
  4  3  2  0  0  0  0
  4  9  1  0  0  0  0
  5  4  1  0  0  0  0
  6  8  1  0  0  0  0
  6  5  2  0  0  0  0
  7  6  1  0  0  0  0
  8  2  2  0  0  0  0
 10  5  1  0  0  0  0
 11 16  1  0  0  0  0
 12 13  1  0  0  0  0
 12 11  2  0  0  0  0
 13 14  2  0  0  0  0
 14 15  1  0  0  0  0
 15 19  1  0  0  0  0
 16 15  2  0  0  0  0
 17 11  1  0  0  0  0
 18 13  1  0  0  0  0
 19 22  1  0  0  0  0
 19 21  1  0  0  0  0
 20 19  1  0  0  0  0
 23  8  1  0  0  0  0
 24 25  1  0  0  0  0
 24 23  1  0  0  0  0
 26 24  1  0  0  0  0
 27 24  1  0  0  0  0
 29 28  1  0  0  0  0
 30 29  1  0  0  0  0
 30 27  1  0  0  0  0
 31 30  2  0  0  0  0
 32 31  1  0  0  0  0
 33 35  2  0  0  0  0
 33 31  1  0  0  0  0
 34 33  1  0  0  0  0
 35 37  1  0  0  0  0
 36 35  1  0  0  0  0
 37 38  1  0  0  0  0
 37 29  2  0  0  0  0
M  END
>  <minimizedAffinity>
-4.85221148

>  <minimizedRMSD>
1.17071033

$$$$
