
 OpenBabel03212520203D

 38 40  0  0  0  0  0  0  0  0999 V2000
   43.0980   83.9610   58.6010 Cl  0  0  0  0  0  0  0  0  0  0  0  0
   41.8800   82.7670   58.2200 C   0  0  0  0  0  0  0  0  0  0  0  0
   41.0220   82.2420   59.1630 C   0  0  0  0  0  0  0  0  0  0  0  0
   40.1120   81.3030   58.6970 C   0  0  0  0  0  0  0  0  0  0  0  0
   39.9810   80.8510   57.4110 C   0  0  0  0  0  0  0  0  0  0  0  0
   40.8470   81.3930   56.5020 C   0  0  0  0  0  0  0  0  0  0  0  0
   40.7980   80.9110   54.8130 Cl  0  0  0  0  0  0  0  0  0  0  0  0
   41.7820   82.3370   56.9000 C   0  0  0  0  0  0  0  0  0  0  0  0
   39.4480   80.9080   59.4780 H   0  0  0  0  0  0  0  0  0  0  0  0
   39.2500   80.1270   57.1490 H   0  0  0  0  0  0  0  0  0  0  0  0
   41.9490   82.1700   61.5230 C   0  0  0  0  0  0  0  0  0  0  0  0
   41.1190   82.6770   60.5080 C   0  0  0  0  0  0  0  0  0  0  0  0
   40.2830   83.7430   60.8560 C   0  0  0  0  0  0  0  0  0  0  0  0
   40.3570   84.1790   62.1400 N   0  0  0  0  0  0  0  0  0  0  0  0
   41.1500   83.6810   63.0790 C   0  0  0  0  0  0  0  0  0  0  0  0
   41.9780   82.6370   62.7590 N   0  0  0  0  0  0  0  0  0  0  0  0
   42.5790   81.3430   61.1980 H   0  0  0  0  0  0  0  0  0  0  0  0
   39.6070   84.2030   60.1440 H   0  0  0  0  0  0  0  0  0  0  0  0
   41.0620   84.3140   64.4080 C   0  0  0  0  0  0  0  0  0  0  0  0
   40.7390   85.6490   64.3350 F   0  0  0  0  0  0  0  0  0  0  0  0
   40.1140   83.6590   65.1880 F   0  0  0  0  0  0  0  0  0  0  0  0
   42.3060   84.2750   65.0570 F   0  0  0  0  0  0  0  0  0  0  0  0
   42.6410   82.8620   55.9470 O   0  0  0  0  0  0  0  0  0  0  0  0
   42.3510   84.0030   55.1600 C   0  0  0  0  0  0  0  0  0  0  0  0
   41.4330   84.4270   55.6130 H   0  0  0  0  0  0  0  0  0  0  0  0
   42.2310   83.6720   54.1100 H   0  0  0  0  0  0  0  0  0  0  0  0
   43.4620   84.8630   55.2980 O   0  0  0  0  0  0  0  0  0  0  0  0
   45.7820   85.5360   56.9760 Cl  0  0  0  0  0  0  0  0  0  0  0  0
   45.8880   84.9340   55.3570 C   0  0  0  0  0  0  0  0  0  0  0  0
   44.6850   84.6770   54.7310 C   0  0  0  0  0  0  0  0  0  0  0  0
   44.6860   84.1880   53.4270 C   0  0  0  0  0  0  0  0  0  0  0  0
   43.8280   83.9410   52.8100 H   0  0  0  0  0  0  0  0  0  0  0  0
   45.8690   83.9610   52.7530 C   0  0  0  0  0  0  0  0  0  0  0  0
   45.9470   83.5830   51.7370 H   0  0  0  0  0  0  0  0  0  0  0  0
   47.0870   84.2220   53.3890 C   0  0  0  0  0  0  0  0  0  0  0  0
   48.0100   84.0470   52.8730 H   0  0  0  0  0  0  0  0  0  0  0  0
   47.0630   84.7080   54.6910 C   0  0  0  0  0  0  0  0  0  0  0  0
   48.5640   85.0510   55.5270 Cl  0  0  0  0  0  0  0  0  0  0  0  0
  2  1  1  0  0  0  0
  2  3  1  0  0  0  0
  3 12  1  0  0  0  0
  4  3  2  0  0  0  0
  4  9  1  0  0  0  0
  5  4  1  0  0  0  0
  6  8  1  0  0  0  0
  6  5  2  0  0  0  0
  7  6  1  0  0  0  0
  8  2  2  0  0  0  0
 10  5  1  0  0  0  0
 11 16  1  0  0  0  0
 12 13  1  0  0  0  0
 12 11  2  0  0  0  0
 13 14  2  0  0  0  0
 14 15  1  0  0  0  0
 15 19  1  0  0  0  0
 16 15  2  0  0  0  0
 17 11  1  0  0  0  0
 18 13  1  0  0  0  0
 19 22  1  0  0  0  0
 19 21  1  0  0  0  0
 20 19  1  0  0  0  0
 23  8  1  0  0  0  0
 24 27  1  0  0  0  0
 24 25  1  0  0  0  0
 24 23  1  0  0  0  0
 26 24  1  0  0  0  0
 29 28  1  0  0  0  0
 30 27  1  0  0  0  0
 30 29  1  0  0  0  0
 31 30  2  0  0  0  0
 32 31  1  0  0  0  0
 33 35  2  0  0  0  0
 33 31  1  0  0  0  0
 34 33  1  0  0  0  0
 35 37  1  0  0  0  0
 36 35  1  0  0  0  0
 37 29  2  0  0  0  0
 37 38  1  0  0  0  0
M  END
>  <minimizedAffinity>
-4.85428429

>  <minimizedRMSD>
0.594038785

$$$$
