
 OpenBabel03212520203D

 38 40  0  0  0  0  0  0  0  0999 V2000
   43.2350   83.6500   58.6130 Cl  0  0  0  0  0  0  0  0  0  0  0  0
   41.9010   82.5890   58.2290 C   0  0  0  0  0  0  0  0  0  0  0  0
   40.9800   82.1730   59.1660 C   0  0  0  0  0  0  0  0  0  0  0  0
   39.9800   81.3300   58.6990 C   0  0  0  0  0  0  0  0  0  0  0  0
   39.8180   80.8760   57.4160 C   0  0  0  0  0  0  0  0  0  0  0  0
   40.7500   81.3090   56.5140 C   0  0  0  0  0  0  0  0  0  0  0  0
   40.6720   80.8100   54.8300 Cl  0  0  0  0  0  0  0  0  0  0  0  0
   41.7760   82.1530   56.9130 C   0  0  0  0  0  0  0  0  0  0  0  0
   39.2670   81.0200   59.4740 H   0  0  0  0  0  0  0  0  0  0  0  0
   39.0170   80.2300   57.1530 H   0  0  0  0  0  0  0  0  0  0  0  0
   41.9380   82.0960   61.5130 C   0  0  0  0  0  0  0  0  0  0  0  0
   41.1040   82.6140   60.5060 C   0  0  0  0  0  0  0  0  0  0  0  0
   40.2950   83.6990   60.8590 C   0  0  0  0  0  0  0  0  0  0  0  0
   40.3960   84.1420   62.1390 N   0  0  0  0  0  0  0  0  0  0  0  0
   41.1920   83.6330   63.0700 C   0  0  0  0  0  0  0  0  0  0  0  0
   41.9940   82.5710   62.7450 N   0  0  0  0  0  0  0  0  0  0  0  0
   42.5470   81.2550   61.1850 H   0  0  0  0  0  0  0  0  0  0  0  0
   39.6180   84.1680   60.1540 H   0  0  0  0  0  0  0  0  0  0  0  0
   41.1360   84.2770   64.3950 C   0  0  0  0  0  0  0  0  0  0  0  0
   40.8360   85.6170   64.3180 F   0  0  0  0  0  0  0  0  0  0  0  0
   40.1890   83.6440   65.1950 F   0  0  0  0  0  0  0  0  0  0  0  0
   42.3890   84.2200   65.0260 F   0  0  0  0  0  0  0  0  0  0  0  0
   42.6990   82.5690   55.9670 O   0  0  0  0  0  0  0  0  0  0  0  0
   42.5500   83.7300   55.1700 C   0  0  0  0  0  0  0  0  0  0  0  0
   42.5600   84.5670   55.8950 H   0  0  0  0  0  0  0  0  0  0  0  0
   41.6060   83.6330   54.5990 H   0  0  0  0  0  0  0  0  0  0  0  0
   43.6660   83.7560   54.3070 O   0  0  0  0  0  0  0  0  0  0  0  0
   42.0870   82.8390   52.0020 Cl  0  0  0  0  0  0  0  0  0  0  0  0
   43.1150   84.2310   51.9900 C   0  0  0  0  0  0  0  0  0  0  0  0
   43.7750   84.5000   53.1730 C   0  0  0  0  0  0  0  0  0  0  0  0
   44.6220   85.6040   53.2440 C   0  0  0  0  0  0  0  0  0  0  0  0
   45.2030   85.9400   54.0960 H   0  0  0  0  0  0  0  0  0  0  0  0
   44.8080   86.4290   52.1540 C   0  0  0  0  0  0  0  0  0  0  0  0
   45.4520   87.3060   52.1360 H   0  0  0  0  0  0  0  0  0  0  0  0
   44.1380   86.1540   50.9580 C   0  0  0  0  0  0  0  0  0  0  0  0
   44.2770   86.7910   50.1060 H   0  0  0  0  0  0  0  0  0  0  0  0
   43.2980   85.0480   50.9080 C   0  0  0  0  0  0  0  0  0  0  0  0
   42.4380   84.6660   49.4300 Cl  0  0  0  0  0  0  0  0  0  0  0  0
  2  1  1  0  0  0  0
  2  3  1  0  0  0  0
  3 12  1  0  0  0  0
  4  3  2  0  0  0  0
  4  9  1  0  0  0  0
  5  4  1  0  0  0  0
  6  8  1  0  0  0  0
  6  5  2  0  0  0  0
  7  6  1  0  0  0  0
  8  2  2  0  0  0  0
 10  5  1  0  0  0  0
 11 16  1  0  0  0  0
 12 13  1  0  0  0  0
 12 11  2  0  0  0  0
 13 14  2  0  0  0  0
 14 15  1  0  0  0  0
 15 19  1  0  0  0  0
 16 15  2  0  0  0  0
 17 11  1  0  0  0  0
 18 13  1  0  0  0  0
 19 22  1  0  0  0  0
 19 21  1  0  0  0  0
 20 19  1  0  0  0  0
 23  8  1  0  0  0  0
 24 25  1  0  0  0  0
 24 23  1  0  0  0  0
 26 24  1  0  0  0  0
 27 24  1  0  0  0  0
 29 28  1  0  0  0  0
 29 30  1  0  0  0  0
 30 31  2  0  0  0  0
 30 27  1  0  0  0  0
 31 32  1  0  0  0  0
 33 31  1  0  0  0  0
 34 33  1  0  0  0  0
 35 33  2  0  0  0  0
 36 35  1  0  0  0  0
 37 35  1  0  0  0  0
 37 29  2  0  0  0  0
 38 37  1  0  0  0  0
M  END
>  <minimizedAffinity>
-4.73846912

>  <minimizedRMSD>
2.31188273

$$$$
