
 OpenBabel03212520203D

 38 40  0  0  0  0  0  0  0  0999 V2000
   43.1280   83.9330   58.5910 Cl  0  0  0  0  0  0  0  0  0  0  0  0
   41.8930   82.7570   58.2050 C   0  0  0  0  0  0  0  0  0  0  0  0
   41.0250   82.2440   59.1450 C   0  0  0  0  0  0  0  0  0  0  0  0
   40.1030   81.3180   58.6760 C   0  0  0  0  0  0  0  0  0  0  0  0
   39.9700   80.8680   57.3890 C   0  0  0  0  0  0  0  0  0  0  0  0
   40.8470   81.3980   56.4830 C   0  0  0  0  0  0  0  0  0  0  0  0
   40.7980   80.9160   54.7940 Cl  0  0  0  0  0  0  0  0  0  0  0  0
   41.7950   82.3280   56.8840 C   0  0  0  0  0  0  0  0  0  0  0  0
   39.4310   80.9330   59.4540 H   0  0  0  0  0  0  0  0  0  0  0  0
   39.2290   80.1540   57.1250 H   0  0  0  0  0  0  0  0  0  0  0  0
   41.9590   82.1740   61.5020 C   0  0  0  0  0  0  0  0  0  0  0  0
   41.1230   82.6780   60.4900 C   0  0  0  0  0  0  0  0  0  0  0  0
   40.2820   83.7390   60.8420 C   0  0  0  0  0  0  0  0  0  0  0  0
   40.3580   84.1730   62.1270 N   0  0  0  0  0  0  0  0  0  0  0  0
   41.1560   83.6780   63.0620 C   0  0  0  0  0  0  0  0  0  0  0  0
   41.9890   82.6400   62.7380 N   0  0  0  0  0  0  0  0  0  0  0  0
   42.5930   81.3510   61.1740 H   0  0  0  0  0  0  0  0  0  0  0  0
   39.6010   84.1950   60.1330 H   0  0  0  0  0  0  0  0  0  0  0  0
   41.0680   84.3090   64.3920 C   0  0  0  0  0  0  0  0  0  0  0  0
   40.7460   85.6450   64.3210 F   0  0  0  0  0  0  0  0  0  0  0  0
   40.1200   83.6530   65.1710 F   0  0  0  0  0  0  0  0  0  0  0  0
   42.3120   84.2680   65.0420 F   0  0  0  0  0  0  0  0  0  0  0  0
   42.6640   82.8410   55.9350 O   0  0  0  0  0  0  0  0  0  0  0  0
   42.3760   83.9600   55.1170 C   0  0  0  0  0  0  0  0  0  0  0  0
   41.4350   84.3720   55.5320 H   0  0  0  0  0  0  0  0  0  0  0  0
   42.2990   83.6070   54.0700 H   0  0  0  0  0  0  0  0  0  0  0  0
   43.4630   84.8470   55.2750 O   0  0  0  0  0  0  0  0  0  0  0  0
   45.6430   85.8270   56.9890 Cl  0  0  0  0  0  0  0  0  0  0  0  0
   45.8770   85.0300   55.4700 C   0  0  0  0  0  0  0  0  0  0  0  0
   44.7270   84.6440   54.8110 C   0  0  0  0  0  0  0  0  0  0  0  0
   44.8310   83.9960   53.5820 C   0  0  0  0  0  0  0  0  0  0  0  0
   44.0250   83.6370   52.9530 H   0  0  0  0  0  0  0  0  0  0  0  0
   46.0630   83.7380   53.0160 C   0  0  0  0  0  0  0  0  0  0  0  0
   46.2200   83.2380   52.0630 H   0  0  0  0  0  0  0  0  0  0  0  0
   47.2260   84.1300   53.6870 C   0  0  0  0  0  0  0  0  0  0  0  0
   48.1860   83.9320   53.2530 H   0  0  0  0  0  0  0  0  0  0  0  0
   47.0990   84.7740   54.9110 C   0  0  0  0  0  0  0  0  0  0  0  0
   48.5300   85.2840   55.7860 Cl  0  0  0  0  0  0  0  0  0  0  0  0
  2  1  1  0  0  0  0
  2  3  1  0  0  0  0
  3 12  1  0  0  0  0
  4  3  2  0  0  0  0
  4  9  1  0  0  0  0
  5  4  1  0  0  0  0
  6  8  1  0  0  0  0
  6  5  2  0  0  0  0
  7  6  1  0  0  0  0
  8  2  2  0  0  0  0
 10  5  1  0  0  0  0
 11 16  1  0  0  0  0
 12 13  1  0  0  0  0
 12 11  2  0  0  0  0
 13 14  2  0  0  0  0
 14 15  1  0  0  0  0
 15 19  1  0  0  0  0
 16 15  2  0  0  0  0
 17 11  1  0  0  0  0
 18 13  1  0  0  0  0
 19 22  1  0  0  0  0
 19 21  1  0  0  0  0
 20 19  1  0  0  0  0
 23  8  1  0  0  0  0
 24 27  1  0  0  0  0
 24 25  1  0  0  0  0
 24 23  1  0  0  0  0
 26 24  1  0  0  0  0
 29 28  1  0  0  0  0
 30 27  1  0  0  0  0
 30 29  2  0  0  0  0
 31 30  1  0  0  0  0
 32 31  1  0  0  0  0
 33 31  2  0  0  0  0
 33 35  1  0  0  0  0
 34 33  1  0  0  0  0
 35 37  2  0  0  0  0
 36 35  1  0  0  0  0
 37 29  1  0  0  0  0
 37 38  1  0  0  0  0
M  END
>  <minimizedAffinity>
-4.87931204

>  <minimizedRMSD>
0.240925163

$$$$
