
 OpenBabel03212520203D

 38 40  0  0  0  0  0  0  0  0999 V2000
   43.0160   84.0500   58.6230 Cl  0  0  0  0  0  0  0  0  0  0  0  0
   41.8390   82.8110   58.2530 C   0  0  0  0  0  0  0  0  0  0  0  0
   41.0130   82.2530   59.2050 C   0  0  0  0  0  0  0  0  0  0  0  0
   40.1340   81.2800   58.7470 C   0  0  0  0  0  0  0  0  0  0  0  0
   40.0060   80.8250   57.4620 C   0  0  0  0  0  0  0  0  0  0  0  0
   40.8410   81.4000   56.5440 C   0  0  0  0  0  0  0  0  0  0  0  0
   40.7930   80.9180   54.8550 Cl  0  0  0  0  0  0  0  0  0  0  0  0
   41.7440   82.3790   56.9330 C   0  0  0  0  0  0  0  0  0  0  0  0
   39.4940   80.8600   59.5340 H   0  0  0  0  0  0  0  0  0  0  0  0
   39.3000   80.0730   57.2070 H   0  0  0  0  0  0  0  0  0  0  0  0
   41.9580   82.2050   61.5580 C   0  0  0  0  0  0  0  0  0  0  0  0
   41.1080   82.6910   60.5490 C   0  0  0  0  0  0  0  0  0  0  0  0
   40.2460   83.7340   60.9030 C   0  0  0  0  0  0  0  0  0  0  0  0
   40.3180   84.1710   62.1870 N   0  0  0  0  0  0  0  0  0  0  0  0
   41.1300   83.6940   63.1200 C   0  0  0  0  0  0  0  0  0  0  0  0
   41.9830   82.6730   62.7930 N   0  0  0  0  0  0  0  0  0  0  0  0
   42.6080   81.3950   61.2280 H   0  0  0  0  0  0  0  0  0  0  0  0
   39.5530   84.1750   60.1970 H   0  0  0  0  0  0  0  0  0  0  0  0
   41.0350   84.3250   64.4490 C   0  0  0  0  0  0  0  0  0  0  0  0
   40.6980   85.6560   64.3780 F   0  0  0  0  0  0  0  0  0  0  0  0
   40.0940   83.6580   65.2280 F   0  0  0  0  0  0  0  0  0  0  0  0
   42.2790   84.2980   65.0990 F   0  0  0  0  0  0  0  0  0  0  0  0
   42.5720   82.9370   55.9720 O   0  0  0  0  0  0  0  0  0  0  0  0
   42.2830   84.1350   55.2740 C   0  0  0  0  0  0  0  0  0  0  0  0
   41.5160   84.6390   55.8950 H   0  0  0  0  0  0  0  0  0  0  0  0
   41.9400   83.8620   54.2570 H   0  0  0  0  0  0  0  0  0  0  0  0
   43.4930   84.8590   55.2250 O   0  0  0  0  0  0  0  0  0  0  0  0
   45.9730   84.3500   56.7220 Cl  0  0  0  0  0  0  0  0  0  0  0  0
   45.8350   84.2560   55.0000 C   0  0  0  0  0  0  0  0  0  0  0  0
   44.5850   84.5310   54.4810 C   0  0  0  0  0  0  0  0  0  0  0  0
   44.3910   84.4760   53.1030 C   0  0  0  0  0  0  0  0  0  0  0  0
   43.4760   84.6640   52.5540 H   0  0  0  0  0  0  0  0  0  0  0  0
   45.4290   84.1530   52.2510 C   0  0  0  0  0  0  0  0  0  0  0  0
   45.3520   84.0910   51.1690 H   0  0  0  0  0  0  0  0  0  0  0  0
   46.6940   83.8760   52.7800 C   0  0  0  0  0  0  0  0  0  0  0  0
   47.5050   83.6240   52.1240 H   0  0  0  0  0  0  0  0  0  0  0  0
   46.8650   83.9350   54.1570 C   0  0  0  0  0  0  0  0  0  0  0  0
   48.4330   83.5960   54.8630 Cl  0  0  0  0  0  0  0  0  0  0  0  0
  2  1  1  0  0  0  0
  2  3  1  0  0  0  0
  3 12  1  0  0  0  0
  4  3  2  0  0  0  0
  4  9  1  0  0  0  0
  5  4  1  0  0  0  0
  6  8  1  0  0  0  0
  6  5  2  0  0  0  0
  7  6  1  0  0  0  0
  8  2  2  0  0  0  0
 10  5  1  0  0  0  0
 11 16  1  0  0  0  0
 12 13  1  0  0  0  0
 12 11  2  0  0  0  0
 13 14  2  0  0  0  0
 14 15  1  0  0  0  0
 15 19  1  0  0  0  0
 16 15  2  0  0  0  0
 17 11  1  0  0  0  0
 18 13  1  0  0  0  0
 19 22  1  0  0  0  0
 19 21  1  0  0  0  0
 20 19  1  0  0  0  0
 23  8  1  0  0  0  0
 24 25  1  0  0  0  0
 24 23  1  0  0  0  0
 26 24  1  0  0  0  0
 27 24  1  0  0  0  0
 29 28  1  0  0  0  0
 30 29  1  0  0  0  0
 30 27  1  0  0  0  0
 31 30  2  0  0  0  0
 32 31  1  0  0  0  0
 33 35  2  0  0  0  0
 33 31  1  0  0  0  0
 34 33  1  0  0  0  0
 35 37  1  0  0  0  0
 36 35  1  0  0  0  0
 37 38  1  0  0  0  0
 37 29  2  0  0  0  0
M  END
>  <minimizedAffinity>
-4.84761333

>  <minimizedRMSD>
0.484912902

$$$$
