
 OpenBabel03212520203D

 38 40  0  0  0  0  0  0  0  0999 V2000
   43.1800   83.9110   58.6260 Cl  0  0  0  0  0  0  0  0  0  0  0  0
   41.9300   82.7580   58.2240 C   0  0  0  0  0  0  0  0  0  0  0  0
   41.0430   82.2580   59.1530 C   0  0  0  0  0  0  0  0  0  0  0  0
   40.1100   81.3490   58.6720 C   0  0  0  0  0  0  0  0  0  0  0  0
   39.9830   80.9050   57.3820 C   0  0  0  0  0  0  0  0  0  0  0  0
   40.8790   81.4210   56.4880 C   0  0  0  0  0  0  0  0  0  0  0  0
   40.8390   80.9440   54.7960 Cl  0  0  0  0  0  0  0  0  0  0  0  0
   41.8380   82.3340   56.9010 C   0  0  0  0  0  0  0  0  0  0  0  0
   39.4230   80.9740   59.4420 H   0  0  0  0  0  0  0  0  0  0  0  0
   39.2330   80.2040   57.1090 H   0  0  0  0  0  0  0  0  0  0  0  0
   41.9500   82.1660   61.5200 C   0  0  0  0  0  0  0  0  0  0  0  0
   41.1340   82.6870   60.5000 C   0  0  0  0  0  0  0  0  0  0  0  0
   40.3080   83.7610   60.8460 C   0  0  0  0  0  0  0  0  0  0  0  0
   40.3770   84.1920   62.1320 N   0  0  0  0  0  0  0  0  0  0  0  0
   41.1570   83.6800   63.0750 C   0  0  0  0  0  0  0  0  0  0  0  0
   41.9750   82.6280   62.7580 N   0  0  0  0  0  0  0  0  0  0  0  0
   42.5730   81.3320   61.1970 H   0  0  0  0  0  0  0  0  0  0  0  0
   39.6430   84.2320   60.1310 H   0  0  0  0  0  0  0  0  0  0  0  0
   41.0660   84.3100   64.4060 C   0  0  0  0  0  0  0  0  0  0  0  0
   40.7370   85.6430   64.3360 F   0  0  0  0  0  0  0  0  0  0  0  0
   40.1210   83.6480   65.1840 F   0  0  0  0  0  0  0  0  0  0  0  0
   42.3090   84.2740   65.0550 F   0  0  0  0  0  0  0  0  0  0  0  0
   42.7260   82.8340   55.9620 O   0  0  0  0  0  0  0  0  0  0  0  0
   42.4870   83.9890   55.1790 C   0  0  0  0  0  0  0  0  0  0  0  0
   41.5330   84.3950   55.5690 H   0  0  0  0  0  0  0  0  0  0  0  0
   42.4510   83.6790   54.1160 H   0  0  0  0  0  0  0  0  0  0  0  0
   43.5750   84.8550   55.4200 O   0  0  0  0  0  0  0  0  0  0  0  0
   44.2340   85.5120   52.6300 Cl  0  0  0  0  0  0  0  0  0  0  0  0
   45.3630   84.8790   53.7770 C   0  0  0  0  0  0  0  0  0  0  0  0
   44.8640   84.6340   55.0410 C   0  0  0  0  0  0  0  0  0  0  0  0
   45.7100   84.1220   56.0210 C   0  0  0  0  0  0  0  0  0  0  0  0
   45.4650   83.8800   57.0500 H   0  0  0  0  0  0  0  0  0  0  0  0
   47.0370   83.8590   55.7490 C   0  0  0  0  0  0  0  0  0  0  0  0
   47.7550   83.4610   56.4620 H   0  0  0  0  0  0  0  0  0  0  0  0
   47.5420   84.1090   54.4680 C   0  0  0  0  0  0  0  0  0  0  0  0
   48.5720   83.9070   54.2490 H   0  0  0  0  0  0  0  0  0  0  0  0
   46.6800   84.6180   53.5050 C   0  0  0  0  0  0  0  0  0  0  0  0
   47.2670   84.9470   51.8860 Cl  0  0  0  0  0  0  0  0  0  0  0  0
  2  1  1  0  0  0  0
  2  3  1  0  0  0  0
  3 12  1  0  0  0  0
  4  3  2  0  0  0  0
  4  9  1  0  0  0  0
  5  4  1  0  0  0  0
  6  8  1  0  0  0  0
  6  5  2  0  0  0  0
  7  6  1  0  0  0  0
  8  2  2  0  0  0  0
 10  5  1  0  0  0  0
 11 16  1  0  0  0  0
 12 13  1  0  0  0  0
 12 11  2  0  0  0  0
 13 14  2  0  0  0  0
 14 15  1  0  0  0  0
 15 19  1  0  0  0  0
 16 15  2  0  0  0  0
 17 11  1  0  0  0  0
 18 13  1  0  0  0  0
 19 22  1  0  0  0  0
 19 21  1  0  0  0  0
 20 19  1  0  0  0  0
 23  8  1  0  0  0  0
 24 27  1  0  0  0  0
 24 25  1  0  0  0  0
 24 23  1  0  0  0  0
 26 24  1  0  0  0  0
 28 29  1  0  0  0  0
 29 30  1  0  0  0  0
 30 27  1  0  0  0  0
 30 31  2  0  0  0  0
 31 32  1  0  0  0  0
 33 31  1  0  0  0  0
 33 34  1  0  0  0  0
 35 33  2  0  0  0  0
 36 35  1  0  0  0  0
 37 29  2  0  0  0  0
 37 35  1  0  0  0  0
 38 37  1  0  0  0  0
M  END
>  <minimizedAffinity>
-4.89677715

>  <minimizedRMSD>
1.00617838

$$$$
