
 OpenBabel03212520203D

 38 40  0  0  0  0  0  0  0  0999 V2000
   43.0350   83.9870   58.5840 Cl  0  0  0  0  0  0  0  0  0  0  0  0
   41.8380   82.7670   58.2200 C   0  0  0  0  0  0  0  0  0  0  0  0
   41.0040   82.2260   59.1740 C   0  0  0  0  0  0  0  0  0  0  0  0
   40.1080   81.2660   58.7200 C   0  0  0  0  0  0  0  0  0  0  0  0
   39.9710   80.8090   57.4360 C   0  0  0  0  0  0  0  0  0  0  0  0
   40.8140   81.3680   56.5160 C   0  0  0  0  0  0  0  0  0  0  0  0
   40.7560   80.8810   54.8280 Cl  0  0  0  0  0  0  0  0  0  0  0  0
   41.7340   82.3330   56.9010 C   0  0  0  0  0  0  0  0  0  0  0  0
   39.4620   80.8590   59.5090 H   0  0  0  0  0  0  0  0  0  0  0  0
   39.2530   80.0680   57.1850 H   0  0  0  0  0  0  0  0  0  0  0  0
   41.9530   82.1700   61.5260 C   0  0  0  0  0  0  0  0  0  0  0  0
   41.1070   82.6650   60.5160 C   0  0  0  0  0  0  0  0  0  0  0  0
   40.2610   83.7220   60.8700 C   0  0  0  0  0  0  0  0  0  0  0  0
   40.3420   84.1620   62.1520 N   0  0  0  0  0  0  0  0  0  0  0  0
   41.1490   83.6750   63.0850 C   0  0  0  0  0  0  0  0  0  0  0  0
   41.9870   82.6410   62.7600 N   0  0  0  0  0  0  0  0  0  0  0  0
   42.5900   81.3510   61.1970 H   0  0  0  0  0  0  0  0  0  0  0  0
   39.5730   84.1710   60.1630 H   0  0  0  0  0  0  0  0  0  0  0  0
   41.0650   84.3110   64.4130 C   0  0  0  0  0  0  0  0  0  0  0  0
   40.7420   85.6460   64.3380 F   0  0  0  0  0  0  0  0  0  0  0  0
   40.1200   83.6570   65.1970 F   0  0  0  0  0  0  0  0  0  0  0  0
   42.3110   84.2730   65.0580 F   0  0  0  0  0  0  0  0  0  0  0  0
   42.5700   82.8740   55.9370 O   0  0  0  0  0  0  0  0  0  0  0  0
   42.3030   84.0780   55.2420 C   0  0  0  0  0  0  0  0  0  0  0  0
   41.5730   84.6130   55.8810 H   0  0  0  0  0  0  0  0  0  0  0  0
   41.9220   83.8140   54.2360 H   0  0  0  0  0  0  0  0  0  0  0  0
   43.5360   84.7590   55.1540 O   0  0  0  0  0  0  0  0  0  0  0  0
   46.0190   83.5370   56.1480 Cl  0  0  0  0  0  0  0  0  0  0  0  0
   45.7360   83.9660   54.4970 C   0  0  0  0  0  0  0  0  0  0  0  0
   44.5050   84.5310   54.2250 C   0  0  0  0  0  0  0  0  0  0  0  0
   44.1990   84.9050   52.9190 C   0  0  0  0  0  0  0  0  0  0  0  0
   43.2830   85.3560   52.5560 H   0  0  0  0  0  0  0  0  0  0  0  0
   45.1070   84.7200   51.8950 C   0  0  0  0  0  0  0  0  0  0  0  0
   44.9380   84.9870   50.8550 H   0  0  0  0  0  0  0  0  0  0  0  0
   46.3520   84.1470   52.1730 C   0  0  0  0  0  0  0  0  0  0  0  0
   47.0620   84.0010   51.3820 H   0  0  0  0  0  0  0  0  0  0  0  0
   46.6360   83.7820   53.4820 C   0  0  0  0  0  0  0  0  0  0  0  0
   48.1850   83.0620   53.8760 Cl  0  0  0  0  0  0  0  0  0  0  0  0
  2  1  1  0  0  0  0
  2  3  1  0  0  0  0
  3 12  1  0  0  0  0
  4  3  2  0  0  0  0
  4  9  1  0  0  0  0
  5  4  1  0  0  0  0
  6  8  1  0  0  0  0
  6  5  2  0  0  0  0
  7  6  1  0  0  0  0
  8  2  2  0  0  0  0
 10  5  1  0  0  0  0
 11 16  1  0  0  0  0
 12 13  1  0  0  0  0
 12 11  2  0  0  0  0
 13 14  2  0  0  0  0
 14 15  1  0  0  0  0
 15 19  1  0  0  0  0
 16 15  2  0  0  0  0
 17 11  1  0  0  0  0
 18 13  1  0  0  0  0
 19 22  1  0  0  0  0
 19 21  1  0  0  0  0
 20 19  1  0  0  0  0
 23  8  1  0  0  0  0
 24 25  1  0  0  0  0
 24 23  1  0  0  0  0
 26 24  1  0  0  0  0
 27 24  1  0  0  0  0
 29 28  1  0  0  0  0
 30 29  1  0  0  0  0
 30 27  1  0  0  0  0
 31 30  2  0  0  0  0
 32 31  1  0  0  0  0
 33 35  2  0  0  0  0
 33 31  1  0  0  0  0
 34 33  1  0  0  0  0
 35 37  1  0  0  0  0
 36 35  1  0  0  0  0
 37 38  1  0  0  0  0
 37 29  2  0  0  0  0
M  END
>  <minimizedAffinity>
-4.87542009

>  <minimizedRMSD>
0.87014538

$$$$
