
 OpenBabel03212521003D

 44 48  0  0  1  0  0  0  0  0999 V2000
   39.6990   76.8570   59.4320 C   0  0  0  0  0  0  0  0  0  0  0  0
   40.3010   75.6330   59.4020 C   0  0  0  0  0  0  0  0  0  0  0  0
   39.8020   74.8260   58.3610 C   0  0  0  0  0  0  0  0  0  0  0  0
   38.8450   75.2100   57.4940 N   0  0  0  0  0  0  0  0  0  0  0  0
   38.3140   76.4610   57.6210 C   0  0  0  0  0  0  0  0  0  0  0  0
   38.7440   77.2910   58.5970 N   0  0  0  0  0  0  0  0  0  0  0  0
   41.0610   75.2860   60.0650 H   0  0  0  0  0  0  0  0  0  0  0  0
   40.1860   73.8200   58.2100 H   0  0  0  0  0  0  0  0  0  0  0  0
   40.8740   80.0400   61.6980 C   0  0  0  0  0  0  0  0  0  0  0  0
   40.7470   78.8870   62.4500 C   0  0  0  0  0  0  0  0  0  0  0  0
   40.3590   77.7660   61.8000 C   0  0  0  0  0  0  0  0  0  0  0  0
   40.1100   77.7990   60.4450 C   0  0  0  0  0  0  0  0  0  0  0  0
   40.4430   79.5640   60.0040 S   0  0  0  0  0  0  0  0  0  0  0  0
   40.9410   78.8560   63.5180 H   0  0  0  0  0  0  0  0  0  0  0  0
   40.2030   76.7750   62.2040 H   0  0  0  0  0  0  0  0  0  0  0  0
   42.9930   82.8950   62.5920 C   0  0  0  0  0  0  0  0  0  0  0  0
   42.0990   83.7440   63.2960 C   0  0  0  0  0  0  0  0  0  0  0  0
   40.7650   83.3320   63.4560 C   0  0  0  0  0  0  0  0  0  0  0  0
   40.3980   82.1440   62.9310 N   0  0  0  0  0  0  0  0  0  0  0  0
   41.2830   81.3520   62.2610 C   0  0  0  0  0  0  0  0  0  0  0  0
   42.5480   81.7330   62.1020 N   0  0  0  0  0  0  0  0  0  0  0  0
   43.9840   83.2680   62.5090 H   0  0  0  0  0  0  0  0  0  0  0  0
   42.3660   84.7010   63.7270 H   0  0  0  0  0  0  0  0  0  0  0  0
   40.0260   83.9180   63.9770 H   0  0  0  0  0  0  0  0  0  0  0  0
   37.2900   76.8550   56.6720 C   0  0  0  0  0  0  0  0  0  0  0  0
   36.2980   77.4500   57.1180 O   0  0  0  0  0  0  0  0  0  0  0  0
   37.4010   76.5550   55.1960 C   0  0  1  0  0  0  0  0  0  0  0  0
   36.6980   77.5740   54.3340 C   0  0  0  0  0  0  0  0  0  0  0  0
   38.1550   77.4390   54.3320 C   0  0  2  0  0  0  0  0  0  0  0  0
   37.0130   75.5200   54.9640 H   0  0  0  0  0  0  0  0  0  0  0  0
   36.2810   78.4870   54.8350 H   0  0  0  0  0  0  0  0  0  0  0  0
   36.1320   77.1760   53.4850 H   0  0  0  0  0  0  0  0  0  0  0  0
   38.7980   78.2040   54.8260 H   0  0  0  0  0  0  0  0  0  0  0  0
   38.9690   79.5490   52.4280 Cl  0  0  0  0  0  0  0  0  0  0  0  0
   39.2340   77.8380   52.1760 C   0  0  0  0  0  0  0  0  0  0  0  0
   38.8330   76.8870   53.1040 C   0  0  0  0  0  0  0  0  0  0  0  0
   39.0460   75.5410   52.8960 C   0  0  0  0  0  0  0  0  0  0  0  0
   38.7190   74.8400   53.6370 H   0  0  0  0  0  0  0  0  0  0  0  0
   39.6710   75.0860   51.7520 C   0  0  0  0  0  0  0  0  0  0  0  0
   39.8470   74.0370   51.5720 H   0  0  0  0  0  0  0  0  0  0  0  0
   40.0660   76.0460   50.8380 C   0  0  0  0  0  0  0  0  0  0  0  0
   40.5640   75.7900   49.9110 H   0  0  0  0  0  0  0  0  0  0  0  0
   39.8670   77.4160   51.0120 C   0  0  0  0  0  0  0  0  0  0  0  0
   40.3700   78.6010   49.8550 Cl  0  0  0  0  0  0  0  0  0  0  0  0
  1 12  1  0  0  0  0
  2  1  1  0  0  0  0
  2  7  1  0  0  0  0
  3  2  2  0  0  0  0
  4  5  2  0  0  0  0
  4  3  1  0  0  0  0
  5  6  1  0  0  0  0
  6  1  2  0  0  0  0
  8  3  1  0  0  0  0
  9 20  1  0  0  0  0
  9 10  2  0  0  0  0
 10 14  1  0  0  0  0
 11 15  1  0  0  0  0
 11 10  1  0  0  0  0
 12 11  2  0  0  0  0
 13 12  1  0  0  0  0
 13  9  1  0  0  0  0
 16 17  1  0  0  0  0
 17 18  2  0  0  0  0
 17 23  1  0  0  0  0
 18 24  1  0  0  0  0
 19 18  1  0  0  0  0
 20 19  2  0  0  0  0
 21 20  1  0  0  0  0
 21 16  2  0  0  0  0
 22 16  1  0  0  0  0
 25 26  2  0  0  0  0
 25  5  1  0  0  0  0
 27 30  1  6  0  0  0
 27 25  1  0  0  0  0
 28 31  1  0  0  0  0
 28 27  1  0  0  0  0
 29 28  1  0  0  0  0
 29 33  1  1  0  0  0
 29 27  1  0  0  0  0
 32 28  1  0  0  0  0
 35 34  1  0  0  0  0
 35 36  1  0  0  0  0
 36 29  1  0  0  0  0
 37 36  2  0  0  0  0
 37 38  1  0  0  0  0
 39 37  1  0  0  0  0
 40 39  1  0  0  0  0
 41 43  1  0  0  0  0
 41 39  2  0  0  0  0
 42 41  1  0  0  0  0
 43 35  2  0  0  0  0
 44 43  1  0  0  0  0
M  END
>  <minimizedAffinity>
-6.67569304

>  <minimizedRMSD>
2.12933898

$$$$
