
 OpenBabel03212521003D

 44 48  0  0  1  0  0  0  0  0999 V2000
   39.7370   77.2460   59.2570 C   0  0  0  0  0  0  0  0  0  0  0  0
   40.3990   76.0750   59.0330 C   0  0  0  0  0  0  0  0  0  0  0  0
   39.8390   75.3500   57.9630 C   0  0  0  0  0  0  0  0  0  0  0  0
   38.7780   75.7600   57.2400 N   0  0  0  0  0  0  0  0  0  0  0  0
   38.1950   76.9530   57.5570 C   0  0  0  0  0  0  0  0  0  0  0  0
   38.6780   77.7010   58.5720 N   0  0  0  0  0  0  0  0  0  0  0  0
   41.2410   75.7110   59.5760 H   0  0  0  0  0  0  0  0  0  0  0  0
   40.2600   74.3940   57.6640 H   0  0  0  0  0  0  0  0  0  0  0  0
   40.9750   80.2430   61.7350 C   0  0  0  0  0  0  0  0  0  0  0  0
   40.9710   79.0140   62.3680 C   0  0  0  0  0  0  0  0  0  0  0  0
   40.5760   77.9450   61.6400 C   0  0  0  0  0  0  0  0  0  0  0  0
   40.1990   78.1020   60.3240 C   0  0  0  0  0  0  0  0  0  0  0  0
   40.4070   79.9180   60.0450 S   0  0  0  0  0  0  0  0  0  0  0  0
   41.2670   78.8850   63.4060 H   0  0  0  0  0  0  0  0  0  0  0  0
   40.5030   76.9110   61.9490 H   0  0  0  0  0  0  0  0  0  0  0  0
   43.0660   83.0540   62.8130 C   0  0  0  0  0  0  0  0  0  0  0  0
   42.1760   83.8250   63.6070 C   0  0  0  0  0  0  0  0  0  0  0  0
   40.8540   83.3750   63.7630 C   0  0  0  0  0  0  0  0  0  0  0  0
   40.4940   82.2270   63.1500 N   0  0  0  0  0  0  0  0  0  0  0  0
   41.3750   81.5110   62.3950 C   0  0  0  0  0  0  0  0  0  0  0  0
   42.6290   81.9290   62.2390 N   0  0  0  0  0  0  0  0  0  0  0  0
   44.0480   83.4520   62.7380 H   0  0  0  0  0  0  0  0  0  0  0  0
   42.4370   84.7470   64.1090 H   0  0  0  0  0  0  0  0  0  0  0  0
   40.1180   83.9010   64.3480 H   0  0  0  0  0  0  0  0  0  0  0  0
   37.0580   77.3760   56.7620 C   0  0  0  0  0  0  0  0  0  0  0  0
   35.9330   77.0250   57.1450 O   0  0  0  0  0  0  0  0  0  0  0  0
   37.2140   78.2020   55.5080 C   0  0  1  0  0  0  0  0  0  0  0  0
   37.3640   79.6760   55.7890 C   0  0  0  0  0  0  0  0  0  0  0  0
   38.4640   78.8820   55.2400 C   0  0  2  0  0  0  0  0  0  0  0  0
   36.3500   78.0300   54.8010 H   0  0  0  0  0  0  0  0  0  0  0  0
   37.4650   79.9990   56.8580 H   0  0  0  0  0  0  0  0  0  0  0  0
   36.8180   80.3510   55.1200 H   0  0  0  0  0  0  0  0  0  0  0  0
   39.3380   78.6060   55.8730 H   0  0  0  0  0  0  0  0  0  0  0  0
   40.7890   80.6960   55.0360 Cl  0  0  0  0  0  0  0  0  0  0  0  0
   39.9830   79.9700   53.6650 C   0  0  0  0  0  0  0  0  0  0  0  0
   38.8940   79.1240   53.8150 C   0  0  0  0  0  0  0  0  0  0  0  0
   38.2650   78.5570   52.7260 C   0  0  0  0  0  0  0  0  0  0  0  0
   37.4270   77.9100   52.8870 H   0  0  0  0  0  0  0  0  0  0  0  0
   38.6980   78.8110   51.4400 C   0  0  0  0  0  0  0  0  0  0  0  0
   38.2180   78.3770   50.5770 H   0  0  0  0  0  0  0  0  0  0  0  0
   39.7840   79.6560   51.3080 C   0  0  0  0  0  0  0  0  0  0  0  0
   40.1990   79.9160   50.3420 H   0  0  0  0  0  0  0  0  0  0  0  0
   40.4470   80.2490   52.3830 C   0  0  0  0  0  0  0  0  0  0  0  0
   41.8060   81.3040   52.1950 Cl  0  0  0  0  0  0  0  0  0  0  0  0
  1 12  1  0  0  0  0
  2  1  1  0  0  0  0
  2  7  1  0  0  0  0
  3  2  2  0  0  0  0
  4  5  2  0  0  0  0
  4  3  1  0  0  0  0
  5  6  1  0  0  0  0
  6  1  2  0  0  0  0
  8  3  1  0  0  0  0
  9 10  2  0  0  0  0
  9 20  1  0  0  0  0
 10 14  1  0  0  0  0
 11 15  1  0  0  0  0
 11 10  1  0  0  0  0
 12 11  2  0  0  0  0
 13 12  1  0  0  0  0
 13  9  1  0  0  0  0
 16 17  1  0  0  0  0
 17 18  2  0  0  0  0
 17 23  1  0  0  0  0
 18 24  1  0  0  0  0
 19 18  1  0  0  0  0
 20 19  2  0  0  0  0
 21 20  1  0  0  0  0
 21 16  2  0  0  0  0
 22 16  1  0  0  0  0
 25 26  2  0  0  0  0
 25  5  1  0  0  0  0
 27 30  1  6  0  0  0
 27 28  1  0  0  0  0
 27 25  1  0  0  0  0
 28 31  1  0  0  0  0
 29 27  1  0  0  0  0
 29 28  1  0  0  0  0
 29 33  1  1  0  0  0
 32 28  1  0  0  0  0
 35 36  1  0  0  0  0
 35 34  1  0  0  0  0
 36 29  1  0  0  0  0
 37 38  1  0  0  0  0
 37 36  2  0  0  0  0
 39 37  1  0  0  0  0
 40 39  1  0  0  0  0
 41 39  2  0  0  0  0
 41 43  1  0  0  0  0
 42 41  1  0  0  0  0
 43 35  2  0  0  0  0
 44 43  1  0  0  0  0
M  END
>  <minimizedAffinity>
-6.53842545

>  <minimizedRMSD>
0.498177797

$$$$
