
 OpenBabel03212521003D

 44 48  0  0  1  0  0  0  0  0999 V2000
   39.5990   77.1060   59.2020 C   0  0  0  0  0  0  0  0  0  0  0  0
   40.2000   75.8980   58.9990 C   0  0  0  0  0  0  0  0  0  0  0  0
   39.5980   75.1820   57.9460 C   0  0  0  0  0  0  0  0  0  0  0  0
   38.5540   75.6300   57.2210 N   0  0  0  0  0  0  0  0  0  0  0  0
   38.0340   76.8560   57.5170 C   0  0  0  0  0  0  0  0  0  0  0  0
   38.5600   77.6000   58.5140 N   0  0  0  0  0  0  0  0  0  0  0  0
   41.0260   75.5040   59.5440 H   0  0  0  0  0  0  0  0  0  0  0  0
   39.9680   74.1990   57.6640 H   0  0  0  0  0  0  0  0  0  0  0  0
   40.9590   80.0940   61.6260 C   0  0  0  0  0  0  0  0  0  0  0  0
   40.9710   78.8660   62.2600 C   0  0  0  0  0  0  0  0  0  0  0  0
   40.5380   77.7990   61.5490 C   0  0  0  0  0  0  0  0  0  0  0  0
   40.1100   77.9580   60.2490 C   0  0  0  0  0  0  0  0  0  0  0  0
   40.3220   79.7730   59.9600 S   0  0  0  0  0  0  0  0  0  0  0  0
   41.3070   78.7350   63.2850 H   0  0  0  0  0  0  0  0  0  0  0  0
   40.4700   76.7660   61.8610 H   0  0  0  0  0  0  0  0  0  0  0  0
   43.1310   82.8570   62.6670 C   0  0  0  0  0  0  0  0  0  0  0  0
   42.2620   83.6660   63.4480 C   0  0  0  0  0  0  0  0  0  0  0  0
   40.9270   83.2570   63.6080 C   0  0  0  0  0  0  0  0  0  0  0  0
   40.5350   82.1120   63.0110 N   0  0  0  0  0  0  0  0  0  0  0  0
   41.3950   81.3590   62.2680 C   0  0  0  0  0  0  0  0  0  0  0  0
   42.6610   81.7370   62.1090 N   0  0  0  0  0  0  0  0  0  0  0  0
   44.1240   83.2260   62.5880 H   0  0  0  0  0  0  0  0  0  0  0  0
   42.5500   84.5870   63.9370 H   0  0  0  0  0  0  0  0  0  0  0  0
   40.2060   83.8130   64.1840 H   0  0  0  0  0  0  0  0  0  0  0  0
   36.9150   77.3200   56.7190 C   0  0  0  0  0  0  0  0  0  0  0  0
   35.7760   77.1470   57.1790 O   0  0  0  0  0  0  0  0  0  0  0  0
   37.1020   77.9820   55.3750 C   0  0  1  0  0  0  0  0  0  0  0  0
   37.5240   79.4250   55.4830 C   0  0  0  0  0  0  0  0  0  0  0  0
   38.4220   78.3990   54.9510 C   0  0  2  0  0  0  0  0  0  0  0  0
   36.1640   77.9000   54.7500 H   0  0  0  0  0  0  0  0  0  0  0  0
   37.7700   79.8260   56.5020 H   0  0  0  0  0  0  0  0  0  0  0  0
   37.0460   80.1200   54.7830 H   0  0  0  0  0  0  0  0  0  0  0  0
   39.2870   78.0330   55.5510 H   0  0  0  0  0  0  0  0  0  0  0  0
   39.4330   75.8000   53.9690 Cl  0  0  0  0  0  0  0  0  0  0  0  0
   39.2440   77.2240   52.9710 C   0  0  0  0  0  0  0  0  0  0  0  0
   38.7640   78.4230   53.4830 C   0  0  0  0  0  0  0  0  0  0  0  0
   38.6180   79.5400   52.6880 C   0  0  0  0  0  0  0  0  0  0  0  0
   38.2440   80.4440   53.1230 H   0  0  0  0  0  0  0  0  0  0  0  0
   38.9460   79.5100   51.3470 C   0  0  0  0  0  0  0  0  0  0  0  0
   38.8380   80.3740   50.7100 H   0  0  0  0  0  0  0  0  0  0  0  0
   39.4220   78.3100   50.8530 C   0  0  0  0  0  0  0  0  0  0  0  0
   39.7060   78.1840   49.8150 H   0  0  0  0  0  0  0  0  0  0  0  0
   39.5840   77.1570   51.6240 C   0  0  0  0  0  0  0  0  0  0  0  0
   40.1830   75.6640   50.9850 Cl  0  0  0  0  0  0  0  0  0  0  0  0
  1 12  1  0  0  0  0
  2  1  1  0  0  0  0
  2  7  1  0  0  0  0
  3  2  2  0  0  0  0
  4  5  2  0  0  0  0
  4  3  1  0  0  0  0
  5  6  1  0  0  0  0
  6  1  2  0  0  0  0
  8  3  1  0  0  0  0
  9 10  2  0  0  0  0
  9 20  1  0  0  0  0
 10 14  1  0  0  0  0
 11 15  1  0  0  0  0
 11 10  1  0  0  0  0
 12 11  2  0  0  0  0
 13 12  1  0  0  0  0
 13  9  1  0  0  0  0
 16 17  1  0  0  0  0
 17 18  2  0  0  0  0
 17 23  1  0  0  0  0
 18 24  1  0  0  0  0
 19 18  1  0  0  0  0
 20 19  2  0  0  0  0
 21 20  1  0  0  0  0
 21 16  2  0  0  0  0
 22 16  1  0  0  0  0
 25 26  2  0  0  0  0
 25  5  1  0  0  0  0
 27 30  1  6  0  0  0
 27 28  1  0  0  0  0
 27 25  1  0  0  0  0
 28 31  1  0  0  0  0
 29 27  1  0  0  0  0
 29 28  1  0  0  0  0
 29 33  1  1  0  0  0
 32 28  1  0  0  0  0
 35 36  1  0  0  0  0
 35 34  1  0  0  0  0
 36 29  1  0  0  0  0
 37 38  1  0  0  0  0
 37 36  2  0  0  0  0
 39 37  1  0  0  0  0
 40 39  1  0  0  0  0
 41 39  2  0  0  0  0
 41 43  1  0  0  0  0
 42 41  1  0  0  0  0
 43 35  2  0  0  0  0
 44 43  1  0  0  0  0
M  END
>  <minimizedAffinity>
-6.5687499

>  <minimizedRMSD>
0.957615912

$$$$
