
 OpenBabel03212521003D

 44 48  0  0  1  0  0  0  0  0999 V2000
   39.7510   77.3600   59.2280 C   0  0  0  0  0  0  0  0  0  0  0  0
   40.4210   76.1970   58.9810 C   0  0  0  0  0  0  0  0  0  0  0  0
   39.8610   75.4870   57.9010 C   0  0  0  0  0  0  0  0  0  0  0  0
   38.7940   75.9010   57.1910 N   0  0  0  0  0  0  0  0  0  0  0  0
   38.2040   77.0830   57.5300 C   0  0  0  0  0  0  0  0  0  0  0  0
   38.6860   77.8190   58.5560 N   0  0  0  0  0  0  0  0  0  0  0  0
   41.2680   75.8300   59.5150 H   0  0  0  0  0  0  0  0  0  0  0  0
   40.2880   74.5380   57.5840 H   0  0  0  0  0  0  0  0  0  0  0  0
   40.9780   80.3220   61.7510 C   0  0  0  0  0  0  0  0  0  0  0  0
   40.9860   79.0840   62.3640 C   0  0  0  0  0  0  0  0  0  0  0  0
   40.5950   78.0240   61.6190 C   0  0  0  0  0  0  0  0  0  0  0  0
   40.2110   78.2000   60.3070 C   0  0  0  0  0  0  0  0  0  0  0  0
   40.4060   80.0220   60.0580 S   0  0  0  0  0  0  0  0  0  0  0  0
   41.2870   78.9390   63.3970 H   0  0  0  0  0  0  0  0  0  0  0  0
   40.5310   76.9840   61.9110 H   0  0  0  0  0  0  0  0  0  0  0  0
   43.0590   83.1200   62.8830 C   0  0  0  0  0  0  0  0  0  0  0  0
   42.1610   83.8810   63.6790 C   0  0  0  0  0  0  0  0  0  0  0  0
   40.8380   83.4280   63.8190 C   0  0  0  0  0  0  0  0  0  0  0  0
   40.4840   82.2880   63.1870 N   0  0  0  0  0  0  0  0  0  0  0  0
   41.3720   81.5820   62.4310 C   0  0  0  0  0  0  0  0  0  0  0  0
   42.6270   82.0030   62.2910 N   0  0  0  0  0  0  0  0  0  0  0  0
   44.0410   83.5200   62.8210 H   0  0  0  0  0  0  0  0  0  0  0  0
   42.4180   84.7970   64.1950 H   0  0  0  0  0  0  0  0  0  0  0  0
   40.0970   83.9460   64.4040 H   0  0  0  0  0  0  0  0  0  0  0  0
   37.0610   77.5120   56.7470 C   0  0  0  0  0  0  0  0  0  0  0  0
   35.9470   77.0850   57.0850 O   0  0  0  0  0  0  0  0  0  0  0  0
   37.1970   78.4320   55.5570 C   0  0  1  0  0  0  0  0  0  0  0  0
   37.2800   79.8860   55.9440 C   0  0  0  0  0  0  0  0  0  0  0  0
   38.4200   79.1810   55.3570 C   0  0  2  0  0  0  0  0  0  0  0  0
   36.3500   78.2750   54.8260 H   0  0  0  0  0  0  0  0  0  0  0  0
   37.3540   80.1360   57.0360 H   0  0  0  0  0  0  0  0  0  0  0  0
   36.7140   80.5840   55.3170 H   0  0  0  0  0  0  0  0  0  0  0  0
   39.2970   78.8960   55.9840 H   0  0  0  0  0  0  0  0  0  0  0  0
   41.2110   80.1480   55.2450 Cl  0  0  0  0  0  0  0  0  0  0  0  0
   40.1610   80.0020   53.8530 C   0  0  0  0  0  0  0  0  0  0  0  0
   38.8570   79.5420   53.9610 C   0  0  0  0  0  0  0  0  0  0  0  0
   38.0370   79.4300   52.8570 C   0  0  0  0  0  0  0  0  0  0  0  0
   37.0380   79.0710   52.9850 H   0  0  0  0  0  0  0  0  0  0  0  0
   38.4860   79.7740   51.5980 C   0  0  0  0  0  0  0  0  0  0  0  0
   37.8600   79.6940   50.7230 H   0  0  0  0  0  0  0  0  0  0  0  0
   39.7880   80.2310   51.5070 C   0  0  0  0  0  0  0  0  0  0  0  0
   40.2330   80.5260   50.5640 H   0  0  0  0  0  0  0  0  0  0  0  0
   40.6470   80.3580   52.5990 C   0  0  0  0  0  0  0  0  0  0  0  0
   42.2750   80.9330   52.4640 Cl  0  0  0  0  0  0  0  0  0  0  0  0
  1 12  1  0  0  0  0
  2  1  1  0  0  0  0
  2  7  1  0  0  0  0
  3  2  2  0  0  0  0
  4  5  2  0  0  0  0
  4  3  1  0  0  0  0
  5  6  1  0  0  0  0
  6  1  2  0  0  0  0
  8  3  1  0  0  0  0
  9 10  2  0  0  0  0
  9 20  1  0  0  0  0
 10 14  1  0  0  0  0
 11 15  1  0  0  0  0
 11 10  1  0  0  0  0
 12 11  2  0  0  0  0
 13 12  1  0  0  0  0
 13  9  1  0  0  0  0
 16 17  1  0  0  0  0
 17 18  2  0  0  0  0
 17 23  1  0  0  0  0
 18 24  1  0  0  0  0
 19 18  1  0  0  0  0
 20 19  2  0  0  0  0
 21 20  1  0  0  0  0
 21 16  2  0  0  0  0
 22 16  1  0  0  0  0
 25 26  2  0  0  0  0
 25  5  1  0  0  0  0
 27 30  1  6  0  0  0
 27 28  1  0  0  0  0
 27 25  1  0  0  0  0
 28 31  1  0  0  0  0
 29 27  1  0  0  0  0
 29 28  1  0  0  0  0
 29 33  1  1  0  0  0
 32 28  1  0  0  0  0
 35 36  1  0  0  0  0
 35 34  1  0  0  0  0
 36 29  1  0  0  0  0
 37 38  1  0  0  0  0
 37 36  2  0  0  0  0
 39 37  1  0  0  0  0
 40 39  1  0  0  0  0
 41 39  2  0  0  0  0
 41 43  1  0  0  0  0
 42 41  1  0  0  0  0
 43 35  2  0  0  0  0
 44 43  1  0  0  0  0
M  END
>  <minimizedAffinity>
-6.52647781

>  <minimizedRMSD>
0.11256662

$$$$
