
 OpenBabel03212521003D

 44 48  0  0  1  0  0  0  0  0999 V2000
   39.7400   77.2490   59.2560 C   0  0  0  0  0  0  0  0  0  0  0  0
   40.4040   76.0790   59.0300 C   0  0  0  0  0  0  0  0  0  0  0  0
   39.8460   75.3550   57.9590 C   0  0  0  0  0  0  0  0  0  0  0  0
   38.7840   75.7630   57.2370 N   0  0  0  0  0  0  0  0  0  0  0  0
   38.1980   76.9540   57.5550 C   0  0  0  0  0  0  0  0  0  0  0  0
   38.6790   77.7030   58.5710 N   0  0  0  0  0  0  0  0  0  0  0  0
   41.2470   75.7170   59.5730 H   0  0  0  0  0  0  0  0  0  0  0  0
   40.2690   74.3990   57.6590 H   0  0  0  0  0  0  0  0  0  0  0  0
   40.9750   80.2450   61.7350 C   0  0  0  0  0  0  0  0  0  0  0  0
   40.9660   79.0170   62.3700 C   0  0  0  0  0  0  0  0  0  0  0  0
   40.5710   77.9480   61.6410 C   0  0  0  0  0  0  0  0  0  0  0  0
   40.1990   78.1050   60.3230 C   0  0  0  0  0  0  0  0  0  0  0  0
   40.4130   79.9200   60.0440 S   0  0  0  0  0  0  0  0  0  0  0  0
   41.2580   78.8890   63.4080 H   0  0  0  0  0  0  0  0  0  0  0  0
   40.4950   76.9150   61.9510 H   0  0  0  0  0  0  0  0  0  0  0  0
   43.0670   83.0560   62.8140 C   0  0  0  0  0  0  0  0  0  0  0  0
   42.1770   83.8260   63.6080 C   0  0  0  0  0  0  0  0  0  0  0  0
   40.8550   83.3760   63.7650 C   0  0  0  0  0  0  0  0  0  0  0  0
   40.4950   82.2290   63.1520 N   0  0  0  0  0  0  0  0  0  0  0  0
   41.3750   81.5130   62.3960 C   0  0  0  0  0  0  0  0  0  0  0  0
   42.6290   81.9310   62.2390 N   0  0  0  0  0  0  0  0  0  0  0  0
   44.0480   83.4540   62.7380 H   0  0  0  0  0  0  0  0  0  0  0  0
   42.4380   84.7490   64.1110 H   0  0  0  0  0  0  0  0  0  0  0  0
   40.1190   83.9020   64.3510 H   0  0  0  0  0  0  0  0  0  0  0  0
   37.0610   77.3750   56.7610 C   0  0  0  0  0  0  0  0  0  0  0  0
   35.9360   77.0220   57.1440 O   0  0  0  0  0  0  0  0  0  0  0  0
   37.2150   78.2020   55.5060 C   0  0  1  0  0  0  0  0  0  0  0  0
   37.3650   79.6760   55.7880 C   0  0  0  0  0  0  0  0  0  0  0  0
   38.4640   78.8830   55.2370 C   0  0  2  0  0  0  0  0  0  0  0  0
   36.3500   78.0300   54.8000 H   0  0  0  0  0  0  0  0  0  0  0  0
   37.4680   79.9990   56.8570 H   0  0  0  0  0  0  0  0  0  0  0  0
   36.8180   80.3510   55.1200 H   0  0  0  0  0  0  0  0  0  0  0  0
   39.3400   78.6060   55.8690 H   0  0  0  0  0  0  0  0  0  0  0  0
   40.7910   80.6950   55.0320 Cl  0  0  0  0  0  0  0  0  0  0  0  0
   39.9820   79.9700   53.6610 C   0  0  0  0  0  0  0  0  0  0  0  0
   38.8920   79.1250   53.8120 C   0  0  0  0  0  0  0  0  0  0  0  0
   38.2610   78.5580   52.7240 C   0  0  0  0  0  0  0  0  0  0  0  0
   37.4230   77.9120   52.8850 H   0  0  0  0  0  0  0  0  0  0  0  0
   38.6920   78.8120   51.4380 C   0  0  0  0  0  0  0  0  0  0  0  0
   38.2110   78.3790   50.5750 H   0  0  0  0  0  0  0  0  0  0  0  0
   39.7790   79.6570   51.3040 C   0  0  0  0  0  0  0  0  0  0  0  0
   40.1930   79.9180   50.3370 H   0  0  0  0  0  0  0  0  0  0  0  0
   40.4440   80.2490   52.3790 C   0  0  0  0  0  0  0  0  0  0  0  0
   41.8040   81.3040   52.1890 Cl  0  0  0  0  0  0  0  0  0  0  0  0
  1 12  1  0  0  0  0
  2  1  1  0  0  0  0
  2  7  1  0  0  0  0
  3  2  2  0  0  0  0
  4  5  2  0  0  0  0
  4  3  1  0  0  0  0
  5  6  1  0  0  0  0
  6  1  2  0  0  0  0
  8  3  1  0  0  0  0
  9 10  2  0  0  0  0
  9 20  1  0  0  0  0
 10 14  1  0  0  0  0
 11 15  1  0  0  0  0
 11 10  1  0  0  0  0
 12 11  2  0  0  0  0
 13 12  1  0  0  0  0
 13  9  1  0  0  0  0
 16 17  1  0  0  0  0
 17 18  2  0  0  0  0
 17 23  1  0  0  0  0
 18 24  1  0  0  0  0
 19 18  1  0  0  0  0
 20 19  2  0  0  0  0
 21 20  1  0  0  0  0
 21 16  2  0  0  0  0
 22 16  1  0  0  0  0
 25 26  2  0  0  0  0
 25  5  1  0  0  0  0
 27 30  1  6  0  0  0
 27 28  1  0  0  0  0
 27 25  1  0  0  0  0
 28 31  1  0  0  0  0
 29 27  1  0  0  0  0
 29 28  1  0  0  0  0
 29 33  1  1  0  0  0
 32 28  1  0  0  0  0
 35 36  1  0  0  0  0
 35 34  1  0  0  0  0
 36 29  1  0  0  0  0
 37 38  1  0  0  0  0
 37 36  2  0  0  0  0
 39 37  1  0  0  0  0
 40 39  1  0  0  0  0
 41 39  2  0  0  0  0
 41 43  1  0  0  0  0
 42 41  1  0  0  0  0
 43 35  2  0  0  0  0
 44 43  1  0  0  0  0
M  END
>  <minimizedAffinity>
-6.53890133

>  <minimizedRMSD>
0.370415151

$$$$
