
 OpenBabel03212521003D

 44 48  0  0  1  0  0  0  0  0999 V2000
   39.7350   77.3240   59.2120 C   0  0  0  0  0  0  0  0  0  0  0  0
   40.3690   76.1330   59.0060 C   0  0  0  0  0  0  0  0  0  0  0  0
   39.8180   75.4250   57.9210 C   0  0  0  0  0  0  0  0  0  0  0  0
   38.7900   75.8650   57.1690 N   0  0  0  0  0  0  0  0  0  0  0  0
   38.2340   77.0740   57.4690 C   0  0  0  0  0  0  0  0  0  0  0  0
   38.7100   77.8100   58.4970 N   0  0  0  0  0  0  0  0  0  0  0  0
   41.1840   75.7460   59.5730 H   0  0  0  0  0  0  0  0  0  0  0  0
   40.2190   74.4560   57.6340 H   0  0  0  0  0  0  0  0  0  0  0  0
   40.9630   80.2900   61.7300 C   0  0  0  0  0  0  0  0  0  0  0  0
   40.9520   79.0550   62.3500 C   0  0  0  0  0  0  0  0  0  0  0  0
   40.5590   77.9950   61.6080 C   0  0  0  0  0  0  0  0  0  0  0  0
   40.1920   78.1670   60.2900 C   0  0  0  0  0  0  0  0  0  0  0  0
   40.4060   79.9850   60.0340 S   0  0  0  0  0  0  0  0  0  0  0  0
   41.2410   78.9140   63.3880 H   0  0  0  0  0  0  0  0  0  0  0  0
   40.4820   76.9580   61.9050 H   0  0  0  0  0  0  0  0  0  0  0  0
   43.0540   83.0830   62.8560 C   0  0  0  0  0  0  0  0  0  0  0  0
   42.1590   83.8480   63.6500 C   0  0  0  0  0  0  0  0  0  0  0  0
   40.8340   83.4010   63.7910 C   0  0  0  0  0  0  0  0  0  0  0  0
   40.4760   82.2620   63.1620 N   0  0  0  0  0  0  0  0  0  0  0  0
   41.3610   81.5500   62.4070 C   0  0  0  0  0  0  0  0  0  0  0  0
   42.6180   81.9650   62.2670 N   0  0  0  0  0  0  0  0  0  0  0  0
   44.0380   83.4790   62.7930 H   0  0  0  0  0  0  0  0  0  0  0  0
   42.4190   84.7650   64.1640 H   0  0  0  0  0  0  0  0  0  0  0  0
   40.0950   83.9240   64.3750 H   0  0  0  0  0  0  0  0  0  0  0  0
   37.1330   77.5300   56.6420 C   0  0  0  0  0  0  0  0  0  0  0  0
   36.0040   77.0910   56.9040 O   0  0  0  0  0  0  0  0  0  0  0  0
   37.3300   78.4920   55.4950 C   0  0  1  0  0  0  0  0  0  0  0  0
   37.4510   79.9270   55.9440 C   0  0  0  0  0  0  0  0  0  0  0  0
   38.5820   79.2070   55.3570 C   0  0  2  0  0  0  0  0  0  0  0  0
   36.4980   78.3940   54.7370 H   0  0  0  0  0  0  0  0  0  0  0  0
   37.5050   80.1290   57.0460 H   0  0  0  0  0  0  0  0  0  0  0  0
   36.9250   80.6680   55.3330 H   0  0  0  0  0  0  0  0  0  0  0  0
   39.4330   78.8680   55.9920 H   0  0  0  0  0  0  0  0  0  0  0  0
   36.5450   78.7960   53.2540 Cl  0  0  0  0  0  0  0  0  0  0  0  0
   38.1470   79.4350   52.9630 C   0  0  0  0  0  0  0  0  0  0  0  0
   39.0670   79.6100   53.9870 C   0  0  0  0  0  0  0  0  0  0  0  0
   40.3270   80.1150   53.7470 C   0  0  0  0  0  0  0  0  0  0  0  0
   41.0060   80.2320   54.5660 H   0  0  0  0  0  0  0  0  0  0  0  0
   40.7230   80.4680   52.4730 C   0  0  0  0  0  0  0  0  0  0  0  0
   41.7050   80.8650   52.2650 H   0  0  0  0  0  0  0  0  0  0  0  0
   39.7950   80.2890   51.4630 C   0  0  0  0  0  0  0  0  0  0  0  0
   40.0100   80.5360   50.4310 H   0  0  0  0  0  0  0  0  0  0  0  0
   38.5100   79.7810   51.6660 C   0  0  0  0  0  0  0  0  0  0  0  0
   37.3630   79.5650   50.3870 Cl  0  0  0  0  0  0  0  0  0  0  0  0
  1 12  1  0  0  0  0
  2  1  1  0  0  0  0
  2  7  1  0  0  0  0
  3  2  2  0  0  0  0
  4  5  2  0  0  0  0
  4  3  1  0  0  0  0
  5  6  1  0  0  0  0
  6  1  2  0  0  0  0
  8  3  1  0  0  0  0
  9 10  2  0  0  0  0
  9 20  1  0  0  0  0
 10 14  1  0  0  0  0
 11 15  1  0  0  0  0
 11 10  1  0  0  0  0
 12 11  2  0  0  0  0
 13 12  1  0  0  0  0
 13  9  1  0  0  0  0
 16 17  1  0  0  0  0
 17 18  2  0  0  0  0
 17 23  1  0  0  0  0
 18 24  1  0  0  0  0
 19 18  1  0  0  0  0
 20 19  2  0  0  0  0
 21 20  1  0  0  0  0
 21 16  2  0  0  0  0
 22 16  1  0  0  0  0
 25 26  2  0  0  0  0
 25  5  1  0  0  0  0
 27 30  1  6  0  0  0
 27 28  1  0  0  0  0
 27 25  1  0  0  0  0
 28 31  1  0  0  0  0
 29 27  1  0  0  0  0
 29 28  1  0  0  0  0
 29 33  1  1  0  0  0
 32 28  1  0  0  0  0
 35 34  1  0  0  0  0
 35 36  1  0  0  0  0
 36 29  1  0  0  0  0
 37 36  2  0  0  0  0
 37 38  1  0  0  0  0
 39 37  1  0  0  0  0
 40 39  1  0  0  0  0
 41 43  1  0  0  0  0
 41 39  2  0  0  0  0
 42 41  1  0  0  0  0
 43 35  2  0  0  0  0
 44 43  1  0  0  0  0
M  END
>  <minimizedAffinity>
-6.91886425

>  <minimizedRMSD>
0.262887299

$$$$
