
 OpenBabel03212521003D

 44 48  0  0  1  0  0  0  0  0999 V2000
   39.7390   77.2490   59.2560 C   0  0  0  0  0  0  0  0  0  0  0  0
   40.4040   76.0790   59.0310 C   0  0  0  0  0  0  0  0  0  0  0  0
   39.8450   75.3540   57.9600 C   0  0  0  0  0  0  0  0  0  0  0  0
   38.7830   75.7630   57.2380 N   0  0  0  0  0  0  0  0  0  0  0  0
   38.1980   76.9540   57.5560 C   0  0  0  0  0  0  0  0  0  0  0  0
   38.6790   77.7030   58.5720 N   0  0  0  0  0  0  0  0  0  0  0  0
   41.2460   75.7160   59.5740 H   0  0  0  0  0  0  0  0  0  0  0  0
   40.2680   74.3990   57.6600 H   0  0  0  0  0  0  0  0  0  0  0  0
   40.9750   80.2450   61.7350 C   0  0  0  0  0  0  0  0  0  0  0  0
   40.9680   79.0170   62.3700 C   0  0  0  0  0  0  0  0  0  0  0  0
   40.5730   77.9480   61.6410 C   0  0  0  0  0  0  0  0  0  0  0  0
   40.1990   78.1040   60.3230 C   0  0  0  0  0  0  0  0  0  0  0  0
   40.4110   79.9200   60.0440 S   0  0  0  0  0  0  0  0  0  0  0  0
   41.2600   78.8880   63.4080 H   0  0  0  0  0  0  0  0  0  0  0  0
   40.4980   76.9140   61.9500 H   0  0  0  0  0  0  0  0  0  0  0  0
   43.0660   83.0560   62.8140 C   0  0  0  0  0  0  0  0  0  0  0  0
   42.1760   83.8270   63.6080 C   0  0  0  0  0  0  0  0  0  0  0  0
   40.8540   83.3760   63.7650 C   0  0  0  0  0  0  0  0  0  0  0  0
   40.4940   82.2290   63.1510 N   0  0  0  0  0  0  0  0  0  0  0  0
   41.3750   81.5130   62.3960 C   0  0  0  0  0  0  0  0  0  0  0  0
   42.6290   81.9310   62.2400 N   0  0  0  0  0  0  0  0  0  0  0  0
   44.0480   83.4550   62.7380 H   0  0  0  0  0  0  0  0  0  0  0  0
   42.4370   84.7490   64.1110 H   0  0  0  0  0  0  0  0  0  0  0  0
   40.1180   83.9020   64.3510 H   0  0  0  0  0  0  0  0  0  0  0  0
   37.0600   77.3750   56.7610 C   0  0  0  0  0  0  0  0  0  0  0  0
   35.9350   77.0230   57.1450 O   0  0  0  0  0  0  0  0  0  0  0  0
   37.2150   78.2020   55.5070 C   0  0  1  0  0  0  0  0  0  0  0  0
   37.3640   79.6760   55.7880 C   0  0  0  0  0  0  0  0  0  0  0  0
   38.4640   78.8830   55.2370 C   0  0  2  0  0  0  0  0  0  0  0  0
   36.3500   78.0290   54.8000 H   0  0  0  0  0  0  0  0  0  0  0  0
   37.4660   79.9990   56.8570 H   0  0  0  0  0  0  0  0  0  0  0  0
   36.8170   80.3500   55.1200 H   0  0  0  0  0  0  0  0  0  0  0  0
   39.3390   78.6070   55.8710 H   0  0  0  0  0  0  0  0  0  0  0  0
   40.7920   80.6940   55.0330 Cl  0  0  0  0  0  0  0  0  0  0  0  0
   39.9830   79.9700   53.6620 C   0  0  0  0  0  0  0  0  0  0  0  0
   38.8930   79.1250   53.8130 C   0  0  0  0  0  0  0  0  0  0  0  0
   38.2620   78.5580   52.7250 C   0  0  0  0  0  0  0  0  0  0  0  0
   37.4240   77.9120   52.8860 H   0  0  0  0  0  0  0  0  0  0  0  0
   38.6930   78.8120   51.4380 C   0  0  0  0  0  0  0  0  0  0  0  0
   38.2130   78.3780   50.5750 H   0  0  0  0  0  0  0  0  0  0  0  0
   39.7810   79.6570   51.3050 C   0  0  0  0  0  0  0  0  0  0  0  0
   40.1950   79.9180   50.3380 H   0  0  0  0  0  0  0  0  0  0  0  0
   40.4450   80.2490   52.3800 C   0  0  0  0  0  0  0  0  0  0  0  0
   41.8050   81.3030   52.1900 Cl  0  0  0  0  0  0  0  0  0  0  0  0
  1 12  1  0  0  0  0
  2  1  1  0  0  0  0
  2  7  1  0  0  0  0
  3  2  2  0  0  0  0
  4  5  2  0  0  0  0
  4  3  1  0  0  0  0
  5  6  1  0  0  0  0
  6  1  2  0  0  0  0
  8  3  1  0  0  0  0
  9 10  2  0  0  0  0
  9 20  1  0  0  0  0
 10 14  1  0  0  0  0
 11 15  1  0  0  0  0
 11 10  1  0  0  0  0
 12 11  2  0  0  0  0
 13 12  1  0  0  0  0
 13  9  1  0  0  0  0
 16 17  1  0  0  0  0
 17 18  2  0  0  0  0
 17 23  1  0  0  0  0
 18 24  1  0  0  0  0
 19 18  1  0  0  0  0
 20 19  2  0  0  0  0
 21 20  1  0  0  0  0
 21 16  2  0  0  0  0
 22 16  1  0  0  0  0
 25 26  2  0  0  0  0
 25  5  1  0  0  0  0
 27 30  1  6  0  0  0
 27 28  1  0  0  0  0
 27 25  1  0  0  0  0
 28 31  1  0  0  0  0
 29 27  1  0  0  0  0
 29 28  1  0  0  0  0
 29 33  1  1  0  0  0
 32 28  1  0  0  0  0
 35 36  1  0  0  0  0
 35 34  1  0  0  0  0
 36 29  1  0  0  0  0
 37 38  1  0  0  0  0
 37 36  2  0  0  0  0
 39 37  1  0  0  0  0
 40 39  1  0  0  0  0
 41 39  2  0  0  0  0
 41 43  1  0  0  0  0
 42 41  1  0  0  0  0
 43 35  2  0  0  0  0
 44 43  1  0  0  0  0
M  END
>  <minimizedAffinity>
-6.53865576

>  <minimizedRMSD>
0.660810769

$$$$
