
 OpenBabel03212521013D

 44 48  0  0  1  0  0  0  0  0999 V2000
   41.9800   74.7790   59.3550 C   0  0  0  0  0  0  0  0  0  0  0  0
   43.2100   75.2780   59.0360 C   0  0  0  0  0  0  0  0  0  0  0  0
   44.2470   74.5680   59.6730 C   0  0  0  0  0  0  0  0  0  0  0  0
   44.0550   73.5200   60.4980 N   0  0  0  0  0  0  0  0  0  0  0  0
   42.7770   73.1080   60.7440 C   0  0  0  0  0  0  0  0  0  0  0  0
   41.7320   73.7420   60.1680 N   0  0  0  0  0  0  0  0  0  0  0  0
   43.4090   76.1020   58.3900 H   0  0  0  0  0  0  0  0  0  0  0  0
   45.2850   74.8490   59.5160 H   0  0  0  0  0  0  0  0  0  0  0  0
   39.1490   76.6310   57.0750 C   0  0  0  0  0  0  0  0  0  0  0  0
   38.6740   76.3120   58.3330 C   0  0  0  0  0  0  0  0  0  0  0  0
   39.5300   75.6920   59.1770 C   0  0  0  0  0  0  0  0  0  0  0  0
   40.8160   75.4020   58.7740 C   0  0  0  0  0  0  0  0  0  0  0  0
   40.8650   76.0520   57.0430 S   0  0  0  0  0  0  0  0  0  0  0  0
   37.6610   76.5370   58.6550 H   0  0  0  0  0  0  0  0  0  0  0  0
   39.3530   75.3620   60.1920 H   0  0  0  0  0  0  0  0  0  0  0  0
   38.3120   78.6260   54.1150 C   0  0  0  0  0  0  0  0  0  0  0  0
   36.8920   78.5910   54.1010 C   0  0  0  0  0  0  0  0  0  0  0  0
   36.2270   77.8740   55.1100 C   0  0  0  0  0  0  0  0  0  0  0  0
   36.9730   77.2520   56.0470 N   0  0  0  0  0  0  0  0  0  0  0  0
   38.3360   77.3060   56.0320 C   0  0  0  0  0  0  0  0  0  0  0  0
   38.9760   77.9820   55.0800 N   0  0  0  0  0  0  0  0  0  0  0  0
   38.7480   79.1850   53.3240 H   0  0  0  0  0  0  0  0  0  0  0  0
   36.2690   79.0790   53.3620 H   0  0  0  0  0  0  0  0  0  0  0  0
   35.1540   77.7980   55.1700 H   0  0  0  0  0  0  0  0  0  0  0  0
   42.5970   71.9740   61.6290 C   0  0  0  0  0  0  0  0  0  0  0  0
   42.6860   72.1830   62.8480 O   0  0  0  0  0  0  0  0  0  0  0  0
   42.3200   70.5830   61.1120 C   0  0  1  0  0  0  0  0  0  0  0  0
   43.5310   69.9340   60.4900 C   0  0  0  0  0  0  0  0  0  0  0  0
   42.9490   69.4390   61.7380 C   0  0  2  0  0  0  0  0  0  0  0  0
   41.4640   70.5890   60.3740 H   0  0  0  0  0  0  0  0  0  0  0  0
   44.5140   70.4690   60.5740 H   0  0  0  0  0  0  0  0  0  0  0  0
   43.3540   69.3710   59.5670 H   0  0  0  0  0  0  0  0  0  0  0  0
   43.4610   69.6120   62.7130 H   0  0  0  0  0  0  0  0  0  0  0  0
   41.1810   69.0660   64.0770 Cl  0  0  0  0  0  0  0  0  0  0  0  0
   41.4060   67.8790   62.8130 C   0  0  0  0  0  0  0  0  0  0  0  0
   42.2490   68.1040   61.7330 C   0  0  0  0  0  0  0  0  0  0  0  0
   42.4180   67.1610   60.7420 C   0  0  0  0  0  0  0  0  0  0  0  0
   43.0790   67.3760   59.9270 H   0  0  0  0  0  0  0  0  0  0  0  0
   41.7540   65.9530   60.7840 C   0  0  0  0  0  0  0  0  0  0  0  0
   41.8730   65.2030   60.0180 H   0  0  0  0  0  0  0  0  0  0  0  0
   40.9180   65.7440   61.8660 C   0  0  0  0  0  0  0  0  0  0  0  0
   40.3520   64.8280   61.9910 H   0  0  0  0  0  0  0  0  0  0  0  0
   40.7180   66.6730   62.8890 C   0  0  0  0  0  0  0  0  0  0  0  0
   39.6660   66.3900   64.2350 Cl  0  0  0  0  0  0  0  0  0  0  0  0
  1  6  1  0  0  0  0
  2  1  2  0  0  0  0
  2  3  1  0  0  0  0
  3  4  2  0  0  0  0
  4  5  1  0  0  0  0
  5 25  1  0  0  0  0
  6  5  2  0  0  0  0
  7  2  1  0  0  0  0
  8  3  1  0  0  0  0
  9 10  2  0  0  0  0
 10 14  1  0  0  0  0
 10 11  1  0  0  0  0
 11 15  1  0  0  0  0
 12 11  2  0  0  0  0
 12  1  1  0  0  0  0
 13  9  1  0  0  0  0
 13 12  1  0  0  0  0
 16 21  1  0  0  0  0
 17 16  2  0  0  0  0
 17 18  1  0  0  0  0
 18 24  1  0  0  0  0
 18 19  2  0  0  0  0
 20 19  1  0  0  0  0
 20  9  1  0  0  0  0
 21 20  2  0  0  0  0
 22 16  1  0  0  0  0
 23 17  1  0  0  0  0
 25 26  2  0  0  0  0
 27 30  1  6  0  0  0
 27 25  1  0  0  0  0
 27 29  1  0  0  0  0
 28 31  1  0  0  0  0
 28 27  1  0  0  0  0
 28 29  1  0  0  0  0
 29 33  1  1  0  0  0
 32 28  1  0  0  0  0
 35 43  1  0  0  0  0
 35 34  1  0  0  0  0
 36 29  1  0  0  0  0
 36 35  2  0  0  0  0
 37 39  2  0  0  0  0
 37 36  1  0  0  0  0
 38 37  1  0  0  0  0
 39 41  1  0  0  0  0
 40 39  1  0  0  0  0
 41 42  1  0  0  0  0
 41 43  2  0  0  0  0
 43 44  1  0  0  0  0
M  END
>  <minimizedAffinity>
-7.43698406

$$$$

 OpenBabel03212521013D

 44 48  0  0  1  0  0  0  0  0999 V2000
   39.1710   76.5090   58.7090 C   0  0  0  0  0  0  0  0  0  0  0  0
   39.7730   77.7010   58.9880 C   0  0  0  0  0  0  0  0  0  0  0  0
   39.4430   78.6920   58.0420 C   0  0  0  0  0  0  0  0  0  0  0  0
   38.6290   78.4940   56.9870 N   0  0  0  0  0  0  0  0  0  0  0  0
   38.0830   77.2560   56.8080 C   0  0  0  0  0  0  0  0  0  0  0  0
   38.3560   76.2560   57.6750 N   0  0  0  0  0  0  0  0  0  0  0  0
   40.4220   77.9050   59.8090 H   0  0  0  0  0  0  0  0  0  0  0  0
   39.8470   79.6970   58.1320 H   0  0  0  0  0  0  0  0  0  0  0  0
   40.5620   73.3330   60.8580 C   0  0  0  0  0  0  0  0  0  0  0  0
   39.2740   73.6790   61.2200 C   0  0  0  0  0  0  0  0  0  0  0  0
   38.7100   74.7230   60.5710 C   0  0  0  0  0  0  0  0  0  0  0  0
   39.4130   75.3950   59.5940 C   0  0  0  0  0  0  0  0  0  0  0  0
   41.0300   74.5000   59.5540 S   0  0  0  0  0  0  0  0  0  0  0  0
   38.7160   73.1530   61.9900 H   0  0  0  0  0  0  0  0  0  0  0  0
   37.7240   75.1460   60.7060 H   0  0  0  0  0  0  0  0  0  0  0  0
   43.0310   70.6520   61.2610 C   0  0  0  0  0  0  0  0  0  0  0  0
   42.7400   70.1460   62.5550 C   0  0  0  0  0  0  0  0  0  0  0  0
   41.6950   70.7340   63.2890 C   0  0  0  0  0  0  0  0  0  0  0  0
   41.0170   71.7560   62.7240 N   0  0  0  0  0  0  0  0  0  0  0  0
   41.3220   72.2180   61.4780 C   0  0  0  0  0  0  0  0  0  0  0  0
   42.3100   71.6680   60.7760 N   0  0  0  0  0  0  0  0  0  0  0  0
   43.8310   70.1620   60.7650 H   0  0  0  0  0  0  0  0  0  0  0  0
   43.2670   69.3290   63.0320 H   0  0  0  0  0  0  0  0  0  0  0  0
   41.4120   70.4080   64.2750 H   0  0  0  0  0  0  0  0  0  0  0  0
   37.2050   77.0680   55.6690 C   0  0  0  0  0  0  0  0  0  0  0  0
   36.0970   77.6230   55.7060 O   0  0  0  0  0  0  0  0  0  0  0  0
   37.5980   76.2270   54.4780 C   0  0  1  0  0  0  0  0  0  0  0  0
   38.5300   76.9430   53.5330 C   0  0  0  0  0  0  0  0  0  0  0  0
   38.9690   75.7900   54.3210 C   0  0  2  0  0  0  0  0  0  0  0  0
   36.6850   75.8660   53.9190 H   0  0  0  0  0  0  0  0  0  0  0  0
   38.9280   77.9440   53.8470 H   0  0  0  0  0  0  0  0  0  0  0  0
   38.3310   76.8050   52.4650 H   0  0  0  0  0  0  0  0  0  0  0  0
   39.6480   75.9240   55.1950 H   0  0  0  0  0  0  0  0  0  0  0  0
   39.3860   73.5320   56.1820 Cl  0  0  0  0  0  0  0  0  0  0  0  0
   39.4700   73.4010   54.4400 C   0  0  0  0  0  0  0  0  0  0  0  0
   39.2660   74.4950   53.6090 C   0  0  0  0  0  0  0  0  0  0  0  0
   39.3340   74.3810   52.2370 C   0  0  0  0  0  0  0  0  0  0  0  0
   39.1710   75.2500   51.6340 H   0  0  0  0  0  0  0  0  0  0  0  0
   39.6090   73.1710   51.6340 C   0  0  0  0  0  0  0  0  0  0  0  0
   39.6670   73.0620   50.5620 H   0  0  0  0  0  0  0  0  0  0  0  0
   39.8110   72.0910   52.4750 C   0  0  0  0  0  0  0  0  0  0  0  0
   40.0320   71.1000   52.0990 H   0  0  0  0  0  0  0  0  0  0  0  0
   39.7490   72.1650   53.8680 C   0  0  0  0  0  0  0  0  0  0  0  0
   40.0040   70.8000   54.9030 Cl  0  0  0  0  0  0  0  0  0  0  0  0
  1  2  1  0  0  0  0
  1 12  1  0  0  0  0
  2  7  1  0  0  0  0
  3  8  1  0  0  0  0
  3  2  2  0  0  0  0
  4  3  1  0  0  0  0
  5  4  2  0  0  0  0
  5  6  1  0  0  0  0
  6  1  2  0  0  0  0
  9 10  2  0  0  0  0
  9 20  1  0  0  0  0
 10 14  1  0  0  0  0
 11 15  1  0  0  0  0
 11 10  1  0  0  0  0
 12 11  2  0  0  0  0
 13 12  1  0  0  0  0
 13  9  1  0  0  0  0
 16 17  1  0  0  0  0
 17 23  1  0  0  0  0
 17 18  2  0  0  0  0
 18 24  1  0  0  0  0
 19 18  1  0  0  0  0
 20 19  2  0  0  0  0
 21 16  2  0  0  0  0
 21 20  1  0  0  0  0
 22 16  1  0  0  0  0
 25 26  2  0  0  0  0
 25  5  1  0  0  0  0
 27 30  1  6  0  0  0
 27 25  1  0  0  0  0
 28 31  1  0  0  0  0
 28 29  1  0  0  0  0
 28 27  1  0  0  0  0
 29 27  1  0  0  0  0
 29 33  1  1  0  0  0
 32 28  1  0  0  0  0
 35 34  1  0  0  0  0
 36 29  1  0  0  0  0
 36 35  2  0  0  0  0
 37 36  1  0  0  0  0
 38 37  1  0  0  0  0
 39 37  2  0  0  0  0
 39 41  1  0  0  0  0
 40 39  1  0  0  0  0
 41 43  2  0  0  0  0
 42 41  1  0  0  0  0
 43 35  1  0  0  0  0
 43 44  1  0  0  0  0
M  END
>  <minimizedAffinity>
-7.15434408

$$$$

 OpenBabel03212521013D

 44 48  0  0  1  0  0  0  0  0999 V2000
   42.3770   73.4330   60.5030 C   0  0  0  0  0  0  0  0  0  0  0  0
   43.6530   73.7840   60.1710 C   0  0  0  0  0  0  0  0  0  0  0  0
   43.6890   74.9400   59.3670 C   0  0  0  0  0  0  0  0  0  0  0  0
   42.5980   75.6240   58.9710 N   0  0  0  0  0  0  0  0  0  0  0  0
   41.3700   75.1770   59.3640 C   0  0  0  0  0  0  0  0  0  0  0  0
   41.2580   74.0740   60.1360 N   0  0  0  0  0  0  0  0  0  0  0  0
   44.5440   73.2750   60.4620 H   0  0  0  0  0  0  0  0  0  0  0  0
   44.6380   75.3430   59.0230 H   0  0  0  0  0  0  0  0  0  0  0  0
   41.8280   69.7420   62.1520 C   0  0  0  0  0  0  0  0  0  0  0  0
   41.8570   70.7380   63.1090 C   0  0  0  0  0  0  0  0  0  0  0  0
   42.0350   72.0060   62.6750 C   0  0  0  0  0  0  0  0  0  0  0  0
   42.1790   72.2670   61.3290 C   0  0  0  0  0  0  0  0  0  0  0  0
   42.0570   70.5870   60.5660 S   0  0  0  0  0  0  0  0  0  0  0  0
   41.7450   70.5380   64.1710 H   0  0  0  0  0  0  0  0  0  0  0  0
   42.0870   72.9160   63.2580 H   0  0  0  0  0  0  0  0  0  0  0  0
   40.6930   66.7040   63.8620 C   0  0  0  0  0  0  0  0  0  0  0  0
   41.3000   65.6680   63.1040 C   0  0  0  0  0  0  0  0  0  0  0  0
   42.0960   66.0200   62.0010 C   0  0  0  0  0  0  0  0  0  0  0  0
   42.2460   67.3310   61.7160 N   0  0  0  0  0  0  0  0  0  0  0  0
   41.6480   68.3010   62.4650 C   0  0  0  0  0  0  0  0  0  0  0  0
   40.8910   67.9790   63.5110 N   0  0  0  0  0  0  0  0  0  0  0  0
   40.1050   66.3670   64.6810 H   0  0  0  0  0  0  0  0  0  0  0  0
   41.1970   64.6100   63.3100 H   0  0  0  0  0  0  0  0  0  0  0  0
   42.5910   65.2960   61.3770 H   0  0  0  0  0  0  0  0  0  0  0  0
   40.2110   75.9340   58.9300 C   0  0  0  0  0  0  0  0  0  0  0  0
   39.9410   76.9710   59.5540 O   0  0  0  0  0  0  0  0  0  0  0  0
   39.3460   75.4910   57.7750 C   0  0  1  0  0  0  0  0  0  0  0  0
   37.9770   75.0290   58.2070 C   0  0  0  0  0  0  0  0  0  0  0  0
   38.1640   76.2500   57.4220 C   0  0  2  0  0  0  0  0  0  0  0  0
   39.8550   74.6790   57.1760 H   0  0  0  0  0  0  0  0  0  0  0  0
   37.6920   75.1650   59.2840 H   0  0  0  0  0  0  0  0  0  0  0  0
   37.5900   74.1350   57.7050 H   0  0  0  0  0  0  0  0  0  0  0  0
   38.0460   77.2530   57.8930 H   0  0  0  0  0  0  0  0  0  0  0  0
   39.2310   78.5480   55.9000 Cl  0  0  0  0  0  0  0  0  0  0  0  0
   38.1620   77.3360   55.2330 C   0  0  0  0  0  0  0  0  0  0  0  0
   37.6890   76.2740   55.9920 C   0  0  0  0  0  0  0  0  0  0  0  0
   36.8460   75.3230   55.4560 C   0  0  0  0  0  0  0  0  0  0  0  0
   36.5040   74.5220   56.0760 H   0  0  0  0  0  0  0  0  0  0  0  0
   36.4400   75.3910   54.1390 C   0  0  0  0  0  0  0  0  0  0  0  0
   35.7810   74.6570   53.7010 H   0  0  0  0  0  0  0  0  0  0  0  0
   36.9200   76.4550   53.3960 C   0  0  0  0  0  0  0  0  0  0  0  0
   36.6600   76.5960   52.3540 H   0  0  0  0  0  0  0  0  0  0  0  0
   37.7750   77.4360   53.9020 C   0  0  0  0  0  0  0  0  0  0  0  0
   38.3650   78.7600   52.9530 Cl  0  0  0  0  0  0  0  0  0  0  0  0
  1 12  1  0  0  0  0
  2  7  1  0  0  0  0
  2  1  1  0  0  0  0
  3  2  2  0  0  0  0
  4  5  2  0  0  0  0
  4  3  1  0  0  0  0
  5  6  1  0  0  0  0
  6  1  2  0  0  0  0
  8  3  1  0  0  0  0
  9 20  1  0  0  0  0
  9 10  2  0  0  0  0
 10 14  1  0  0  0  0
 11 10  1  0  0  0  0
 11 15  1  0  0  0  0
 12 11  2  0  0  0  0
 13 12  1  0  0  0  0
 13  9  1  0  0  0  0
 16 22  1  0  0  0  0
 17 23  1  0  0  0  0
 17 16  2  0  0  0  0
 18 17  1  0  0  0  0
 19 18  2  0  0  0  0
 19 20  1  0  0  0  0
 20 21  2  0  0  0  0
 21 16  1  0  0  0  0
 24 18  1  0  0  0  0
 25  5  1  0  0  0  0
 25 26  2  0  0  0  0
 27 30  1  6  0  0  0
 27 28  1  0  0  0  0
 27 25  1  0  0  0  0
 28 31  1  0  0  0  0
 29 27  1  0  0  0  0
 29 33  1  1  0  0  0
 29 28  1  0  0  0  0
 32 28  1  0  0  0  0
 35 34  1  0  0  0  0
 35 36  1  0  0  0  0
 36 29  1  0  0  0  0
 37 36  2  0  0  0  0
 37 38  1  0  0  0  0
 39 37  1  0  0  0  0
 40 39  1  0  0  0  0
 41 43  1  0  0  0  0
 41 39  2  0  0  0  0
 42 41  1  0  0  0  0
 43 35  2  0  0  0  0
 44 43  1  0  0  0  0
M  END
>  <minimizedAffinity>
-7.15316105

$$$$

 OpenBabel03212521013D

 44 48  0  0  1  0  0  0  0  0999 V2000
   41.8690   73.8170   59.8240 C   0  0  0  0  0  0  0  0  0  0  0  0
   43.0700   73.6800   59.1920 C   0  0  0  0  0  0  0  0  0  0  0  0
   43.8590   72.6690   59.7740 C   0  0  0  0  0  0  0  0  0  0  0  0
   43.4780   71.9200   60.8270 N   0  0  0  0  0  0  0  0  0  0  0  0
   42.2510   72.1470   61.3790 C   0  0  0  0  0  0  0  0  0  0  0  0
   41.4400   73.1020   60.8740 N   0  0  0  0  0  0  0  0  0  0  0  0
   43.4130   74.2480   58.3580 H   0  0  0  0  0  0  0  0  0  0  0  0
   44.8460   72.4420   59.3780 H   0  0  0  0  0  0  0  0  0  0  0  0
   39.3600   76.2780   57.7510 C   0  0  0  0  0  0  0  0  0  0  0  0
   39.4500   76.6330   59.0830 C   0  0  0  0  0  0  0  0  0  0  0  0
   40.2560   75.8820   59.8690 C   0  0  0  0  0  0  0  0  0  0  0  0
   40.9480   74.8150   59.3380 C   0  0  0  0  0  0  0  0  0  0  0  0
   40.4410   74.8360   57.5590 S   0  0  0  0  0  0  0  0  0  0  0  0
   38.9060   77.4720   59.5080 H   0  0  0  0  0  0  0  0  0  0  0  0
   40.4590   75.9950   60.9260 H   0  0  0  0  0  0  0  0  0  0  0  0
   36.4940   77.0860   55.6130 C   0  0  0  0  0  0  0  0  0  0  0  0
   36.9280   78.2530   54.9290 C   0  0  0  0  0  0  0  0  0  0  0  0
   38.2080   78.7600   55.2110 C   0  0  0  0  0  0  0  0  0  0  0  0
   38.9640   78.1110   56.1220 N   0  0  0  0  0  0  0  0  0  0  0  0
   38.5170   76.9930   56.7610 C   0  0  0  0  0  0  0  0  0  0  0  0
   37.3060   76.5050   56.5020 N   0  0  0  0  0  0  0  0  0  0  0  0
   35.5180   76.7590   55.3510 H   0  0  0  0  0  0  0  0  0  0  0  0
   36.3430   78.7920   54.1950 H   0  0  0  0  0  0  0  0  0  0  0  0
   38.6110   79.6390   54.7360 H   0  0  0  0  0  0  0  0  0  0  0  0
   41.8610   71.3240   62.5080 C   0  0  0  0  0  0  0  0  0  0  0  0
   40.8250   71.6390   63.1120 O   0  0  0  0  0  0  0  0  0  0  0  0
   42.6720   70.1310   62.9550 C   0  0  1  0  0  0  0  0  0  0  0  0
   41.9960   69.3330   64.0420 C   0  0  0  0  0  0  0  0  0  0  0  0
   42.1920   68.7900   62.6970 C   0  0  2  0  0  0  0  0  0  0  0  0
   43.7030   70.4480   63.2940 H   0  0  0  0  0  0  0  0  0  0  0  0
   40.9460   69.6110   64.3220 H   0  0  0  0  0  0  0  0  0  0  0  0
   42.6440   68.9780   64.8510 H   0  0  0  0  0  0  0  0  0  0  0  0
   41.3320   68.6860   61.9950 H   0  0  0  0  0  0  0  0  0  0  0  0
   41.3250   66.8490   60.6430 Cl  0  0  0  0  0  0  0  0  0  0  0  0
   42.8160   66.7260   61.5480 C   0  0  0  0  0  0  0  0  0  0  0  0
   43.1770   67.6660   62.5030 C   0  0  0  0  0  0  0  0  0  0  0  0
   44.3550   67.5600   63.2110 C   0  0  0  0  0  0  0  0  0  0  0  0
   44.5950   68.3070   63.9390 H   0  0  0  0  0  0  0  0  0  0  0  0
   45.2250   66.5100   62.9970 C   0  0  0  0  0  0  0  0  0  0  0  0
   46.1510   66.4090   63.5400 H   0  0  0  0  0  0  0  0  0  0  0  0
   44.8500   65.5810   62.0420 C   0  0  0  0  0  0  0  0  0  0  0  0
   45.4640   64.7220   61.8000 H   0  0  0  0  0  0  0  0  0  0  0  0
   43.6670   65.6540   61.3040 C   0  0  0  0  0  0  0  0  0  0  0  0
   43.2190   64.4800   60.1130 Cl  0  0  0  0  0  0  0  0  0  0  0  0
  1  6  1  0  0  0  0
  2  3  1  0  0  0  0
  2  1  2  0  0  0  0
  3  4  2  0  0  0  0
  4  5  1  0  0  0  0
  5 25  1  0  0  0  0
  6  5  2  0  0  0  0
  7  2  1  0  0  0  0
  8  3  1  0  0  0  0
  9 10  2  0  0  0  0
 10 14  1  0  0  0  0
 10 11  1  0  0  0  0
 11 15  1  0  0  0  0
 12  1  1  0  0  0  0
 12 11  2  0  0  0  0
 13  9  1  0  0  0  0
 13 12  1  0  0  0  0
 16 21  1  0  0  0  0
 17 18  1  0  0  0  0
 17 16  2  0  0  0  0
 18 19  2  0  0  0  0
 19 20  1  0  0  0  0
 20  9  1  0  0  0  0
 21 20  2  0  0  0  0
 22 16  1  0  0  0  0
 23 17  1  0  0  0  0
 24 18  1  0  0  0  0
 25 27  1  0  0  0  0
 25 26  2  0  0  0  0
 27 30  1  1  0  0  0
 27 28  1  0  0  0  0
 28 31  1  0  0  0  0
 28 32  1  0  0  0  0
 29 33  1  6  0  0  0
 29 27  1  0  0  0  0
 29 28  1  0  0  0  0
 34 35  1  0  0  0  0
 35 36  1  0  0  0  0
 36 29  1  0  0  0  0
 36 37  2  0  0  0  0
 37 38  1  0  0  0  0
 39 37  1  0  0  0  0
 39 40  1  0  0  0  0
 41 39  2  0  0  0  0
 42 41  1  0  0  0  0
 43 35  2  0  0  0  0
 43 41  1  0  0  0  0
 44 43  1  0  0  0  0
M  END
>  <minimizedAffinity>
-7.09279394

$$$$

 OpenBabel03212521013D

 44 48  0  0  1  0  0  0  0  0999 V2000
   40.9850   73.0970   57.6660 C   0  0  0  0  0  0  0  0  0  0  0  0
   41.3230   72.1610   56.7320 C   0  0  0  0  0  0  0  0  0  0  0  0
   42.4100   71.3700   57.1500 C   0  0  0  0  0  0  0  0  0  0  0  0
   43.0450   71.5130   58.3300 N   0  0  0  0  0  0  0  0  0  0  0  0
   42.6180   72.4860   59.1860 C   0  0  0  0  0  0  0  0  0  0  0  0
   41.5810   73.2840   58.8520 N   0  0  0  0  0  0  0  0  0  0  0  0
   40.8500   72.0110   55.7880 H   0  0  0  0  0  0  0  0  0  0  0  0
   42.7950   70.5790   56.5110 H   0  0  0  0  0  0  0  0  0  0  0  0
   38.2380   75.7170   56.1690 C   0  0  0  0  0  0  0  0  0  0  0  0
   37.9030   75.2830   57.4380 C   0  0  0  0  0  0  0  0  0  0  0  0
   38.7450   74.4080   58.0340 C   0  0  0  0  0  0  0  0  0  0  0  0
   39.8820   73.9830   57.3810 C   0  0  0  0  0  0  0  0  0  0  0  0
   39.7940   74.8810   55.7670 S   0  0  0  0  0  0  0  0  0  0  0  0
   37.0080   75.6140   57.9570 H   0  0  0  0  0  0  0  0  0  0  0  0
   38.6620   73.9550   59.0130 H   0  0  0  0  0  0  0  0  0  0  0  0
   36.2240   78.6670   55.3460 C   0  0  0  0  0  0  0  0  0  0  0  0
   35.8830   78.4480   53.9840 C   0  0  0  0  0  0  0  0  0  0  0  0
   36.3540   77.2850   53.3520 C   0  0  0  0  0  0  0  0  0  0  0  0
   37.1100   76.4290   54.0730 N   0  0  0  0  0  0  0  0  0  0  0  0
   37.4180   76.6700   55.3800 C   0  0  0  0  0  0  0  0  0  0  0  0
   36.9780   77.7690   55.9870 N   0  0  0  0  0  0  0  0  0  0  0  0
   35.8350   79.5650   55.7590 H   0  0  0  0  0  0  0  0  0  0  0  0
   35.2800   79.1160   53.3830 H   0  0  0  0  0  0  0  0  0  0  0  0
   36.1410   77.0450   52.3240 H   0  0  0  0  0  0  0  0  0  0  0  0
   43.3130   72.6170   60.4520 C   0  0  0  0  0  0  0  0  0  0  0  0
   44.1150   73.5550   60.5690 O   0  0  0  0  0  0  0  0  0  0  0  0
   43.0930   71.6550   61.5960 C   0  0  1  0  0  0  0  0  0  0  0  0
   41.9600   72.0660   62.5010 C   0  0  0  0  0  0  0  0  0  0  0  0
   41.8760   70.8720   61.6600 C   0  0  2  0  0  0  0  0  0  0  0  0
   44.0390   71.5200   62.1980 H   0  0  0  0  0  0  0  0  0  0  0  0
   41.3310   72.9420   62.1910 H   0  0  0  0  0  0  0  0  0  0  0  0
   42.1330   71.9410   63.5760 H   0  0  0  0  0  0  0  0  0  0  0  0
   41.2320   70.8610   60.7500 H   0  0  0  0  0  0  0  0  0  0  0  0
   41.6890   68.6530   59.7160 Cl  0  0  0  0  0  0  0  0  0  0  0  0
   41.8060   68.4390   61.4470 C   0  0  0  0  0  0  0  0  0  0  0  0
   41.8920   69.5160   62.3180 C   0  0  0  0  0  0  0  0  0  0  0  0
   41.9840   69.3360   63.6820 C   0  0  0  0  0  0  0  0  0  0  0  0
   42.0480   70.1950   64.3170 H   0  0  0  0  0  0  0  0  0  0  0  0
   41.9950   68.0730   64.2360 C   0  0  0  0  0  0  0  0  0  0  0  0
   42.0660   67.9110   65.3010 H   0  0  0  0  0  0  0  0  0  0  0  0
   41.9080   67.0090   63.3550 C   0  0  0  0  0  0  0  0  0  0  0  0
   41.9080   65.9790   63.6910 H   0  0  0  0  0  0  0  0  0  0  0  0
   41.8140   67.1500   61.9690 C   0  0  0  0  0  0  0  0  0  0  0  0
   41.7070   65.8050   60.8840 Cl  0  0  0  0  0  0  0  0  0  0  0  0
  1  6  1  0  0  0  0
  2  3  1  0  0  0  0
  2  1  2  0  0  0  0
  3  4  2  0  0  0  0
  4  5  1  0  0  0  0
  5 25  1  0  0  0  0
  6  5  2  0  0  0  0
  7  2  1  0  0  0  0
  8  3  1  0  0  0  0
  9 10  2  0  0  0  0
 10 14  1  0  0  0  0
 10 11  1  0  0  0  0
 11 15  1  0  0  0  0
 12  1  1  0  0  0  0
 12 11  2  0  0  0  0
 13  9  1  0  0  0  0
 13 12  1  0  0  0  0
 16 22  1  0  0  0  0
 16 21  1  0  0  0  0
 17 16  2  0  0  0  0
 18 17  1  0  0  0  0
 18 19  2  0  0  0  0
 19 20  1  0  0  0  0
 20 21  2  0  0  0  0
 20  9  1  0  0  0  0
 23 17  1  0  0  0  0
 24 18  1  0  0  0  0
 25 26  2  0  0  0  0
 25 27  1  0  0  0  0
 27 29  1  0  0  0  0
 27 30  1  1  0  0  0
 27 28  1  0  0  0  0
 28 32  1  0  0  0  0
 29 33  1  6  0  0  0
 29 36  1  0  0  0  0
 29 28  1  0  0  0  0
 31 28  1  0  0  0  0
 34 35  1  0  0  0  0
 35 43  2  0  0  0  0
 35 36  1  0  0  0  0
 36 37  2  0  0  0  0
 37 39  1  0  0  0  0
 37 38  1  0  0  0  0
 39 40  1  0  0  0  0
 41 42  1  0  0  0  0
 41 39  2  0  0  0  0
 43 41  1  0  0  0  0
 44 43  1  0  0  0  0
M  END
>  <minimizedAffinity>
-6.66156673

$$$$

 OpenBabel03212521013D

 44 48  0  0  1  0  0  0  0  0999 V2000
   42.1000   70.1060   58.9730 C   0  0  0  0  0  0  0  0  0  0  0  0
   43.2030   69.6270   59.6190 C   0  0  0  0  0  0  0  0  0  0  0  0
   43.4060   70.2660   60.8570 C   0  0  0  0  0  0  0  0  0  0  0  0
   42.6100   71.2330   61.3540 N   0  0  0  0  0  0  0  0  0  0  0  0
   41.5320   71.6320   60.6170 C   0  0  0  0  0  0  0  0  0  0  0  0
   41.2750   71.0640   59.4190 N   0  0  0  0  0  0  0  0  0  0  0  0
   43.8600   68.8650   59.2660 H   0  0  0  0  0  0  0  0  0  0  0  0
   44.2480   69.9910   61.4890 H   0  0  0  0  0  0  0  0  0  0  0  0
   40.9020   69.2530   55.1680 C   0  0  0  0  0  0  0  0  0  0  0  0
   41.3930   68.1370   55.8190 C   0  0  0  0  0  0  0  0  0  0  0  0
   41.8220   68.3030   57.0910 C   0  0  0  0  0  0  0  0  0  0  0  0
   41.7590   69.5440   57.6890 C   0  0  0  0  0  0  0  0  0  0  0  0
   41.0320   70.6080   56.3630 S   0  0  0  0  0  0  0  0  0  0  0  0
   41.4450   67.1580   55.3520 H   0  0  0  0  0  0  0  0  0  0  0  0
   42.2360   67.5640   57.7630 H   0  0  0  0  0  0  0  0  0  0  0  0
   39.7680   67.9670   51.9280 C   0  0  0  0  0  0  0  0  0  0  0  0
   39.5020   69.1520   51.1920 C   0  0  0  0  0  0  0  0  0  0  0  0
   39.7110   70.3930   51.8170 C   0  0  0  0  0  0  0  0  0  0  0  0
   40.1550   70.3970   53.0920 N   0  0  0  0  0  0  0  0  0  0  0  0
   40.4000   69.2400   53.7700 C   0  0  0  0  0  0  0  0  0  0  0  0
   40.2050   68.0590   53.1870 N   0  0  0  0  0  0  0  0  0  0  0  0
   39.5880   67.0660   51.3940 H   0  0  0  0  0  0  0  0  0  0  0  0
   39.1460   69.1780   50.1700 H   0  0  0  0  0  0  0  0  0  0  0  0
   39.5340   71.3360   51.3290 H   0  0  0  0  0  0  0  0  0  0  0  0
   40.6860   72.6690   61.1750 C   0  0  0  0  0  0  0  0  0  0  0  0
   40.9400   73.0550   62.3260 O   0  0  0  0  0  0  0  0  0  0  0  0
   39.5300   73.2650   60.4080 C   0  0  1  0  0  0  0  0  0  0  0  0
   38.6690   74.1720   61.2520 C   0  0  0  0  0  0  0  0  0  0  0  0
   39.4870   74.6900   60.1540 C   0  0  2  0  0  0  0  0  0  0  0  0
   38.8950   72.4560   59.9410 H   0  0  0  0  0  0  0  0  0  0  0  0
   39.0180   74.4100   62.2910 H   0  0  0  0  0  0  0  0  0  0  0  0
   37.5870   74.0820   61.1040 H   0  0  0  0  0  0  0  0  0  0  0  0
   40.4160   75.2710   60.3610 H   0  0  0  0  0  0  0  0  0  0  0  0
   40.1090   77.5270   59.6040 Cl  0  0  0  0  0  0  0  0  0  0  0  0
   39.0580   76.5390   58.6150 C   0  0  0  0  0  0  0  0  0  0  0  0
   38.7990   75.2100   58.9180 C   0  0  0  0  0  0  0  0  0  0  0  0
   37.9690   74.4400   58.1310 C   0  0  0  0  0  0  0  0  0  0  0  0
   37.7950   73.4190   58.4010 H   0  0  0  0  0  0  0  0  0  0  0  0
   37.3620   74.9630   57.0080 C   0  0  0  0  0  0  0  0  0  0  0  0
   36.7090   74.3770   56.3800 H   0  0  0  0  0  0  0  0  0  0  0  0
   37.6300   76.2890   56.7200 C   0  0  0  0  0  0  0  0  0  0  0  0
   37.2030   76.7920   55.8610 H   0  0  0  0  0  0  0  0  0  0  0  0
   38.4650   77.1010   57.4900 C   0  0  0  0  0  0  0  0  0  0  0  0
   38.7880   78.7600   57.1110 Cl  0  0  0  0  0  0  0  0  0  0  0  0
  1  6  2  0  0  0  0
  1  2  1  0  0  0  0
  2  3  2  0  0  0  0
  3  4  1  0  0  0  0
  3  8  1  0  0  0  0
  5 25  1  0  0  0  0
  5  4  2  0  0  0  0
  6  5  1  0  0  0  0
  7  2  1  0  0  0  0
  9 10  2  0  0  0  0
  9 13  1  0  0  0  0
 10 11  1  0  0  0  0
 11 12  2  0  0  0  0
 11 15  1  0  0  0  0
 12  1  1  0  0  0  0
 13 12  1  0  0  0  0
 14 10  1  0  0  0  0
 16 21  1  0  0  0  0
 17 18  1  0  0  0  0
 17 16  2  0  0  0  0
 18 19  2  0  0  0  0
 19 20  1  0  0  0  0
 20  9  1  0  0  0  0
 21 20  2  0  0  0  0
 22 16  1  0  0  0  0
 23 17  1  0  0  0  0
 24 18  1  0  0  0  0
 25 26  2  0  0  0  0
 27 30  1  6  0  0  0
 27 25  1  0  0  0  0
 27 28  1  0  0  0  0
 28 31  1  0  0  0  0
 29 33  1  1  0  0  0
 29 27  1  0  0  0  0
 29 28  1  0  0  0  0
 32 28  1  0  0  0  0
 35 36  1  0  0  0  0
 35 34  1  0  0  0  0
 36 29  1  0  0  0  0
 37 38  1  0  0  0  0
 37 36  2  0  0  0  0
 39 37  1  0  0  0  0
 40 39  1  0  0  0  0
 41 39  2  0  0  0  0
 41 43  1  0  0  0  0
 42 41  1  0  0  0  0
 43 35  2  0  0  0  0
 44 43  1  0  0  0  0
M  END
>  <minimizedAffinity>
-6.65179777

$$$$

 OpenBabel03212521013D

 44 48  0  0  1  0  0  0  0  0999 V2000
   40.4480   75.7590   59.2780 C   0  0  0  0  0  0  0  0  0  0  0  0
   40.7250   76.9900   59.7990 C   0  0  0  0  0  0  0  0  0  0  0  0
   39.9800   78.0070   59.1720 C   0  0  0  0  0  0  0  0  0  0  0  0
   39.0960   77.7980   58.1760 N   0  0  0  0  0  0  0  0  0  0  0  0
   38.9010   76.5220   57.7350 C   0  0  0  0  0  0  0  0  0  0  0  0
   39.5810   75.4950   58.2890 N   0  0  0  0  0  0  0  0  0  0  0  0
   41.4140   77.2020   60.5840 H   0  0  0  0  0  0  0  0  0  0  0  0
   40.0920   79.0430   59.4800 H   0  0  0  0  0  0  0  0  0  0  0  0
   41.6660   72.2980   61.0610 C   0  0  0  0  0  0  0  0  0  0  0  0
   42.7220   72.9920   60.5020 C   0  0  0  0  0  0  0  0  0  0  0  0
   42.4340   74.1590   59.8800 C   0  0  0  0  0  0  0  0  0  0  0  0
   41.1340   74.6130   59.8230 C   0  0  0  0  0  0  0  0  0  0  0  0
   40.1940   73.2970   60.7200 S   0  0  0  0  0  0  0  0  0  0  0  0
   43.7490   72.6390   60.5440 H   0  0  0  0  0  0  0  0  0  0  0  0
   43.1110   74.8420   59.3850 H   0  0  0  0  0  0  0  0  0  0  0  0
   42.2400   68.7190   61.6120 C   0  0  0  0  0  0  0  0  0  0  0  0
   42.0720   68.5840   63.0160 C   0  0  0  0  0  0  0  0  0  0  0  0
   41.7660   69.7300   63.7700 C   0  0  0  0  0  0  0  0  0  0  0  0
   41.6460   70.9070   63.1200 N   0  0  0  0  0  0  0  0  0  0  0  0
   41.8140   71.0020   61.7700 C   0  0  0  0  0  0  0  0  0  0  0  0
   42.1050   69.9230   61.0470 N   0  0  0  0  0  0  0  0  0  0  0  0
   42.4700   67.8140   61.1060 H   0  0  0  0  0  0  0  0  0  0  0  0
   42.1630   67.6540   63.5620 H   0  0  0  0  0  0  0  0  0  0  0  0
   41.6230   69.7120   64.8370 H   0  0  0  0  0  0  0  0  0  0  0  0
   37.9400   76.3210   56.6680 C   0  0  0  0  0  0  0  0  0  0  0  0
   37.1390   77.2400   56.4410 O   0  0  0  0  0  0  0  0  0  0  0  0
   37.8890   75.0480   55.8570 C   0  0  1  0  0  0  0  0  0  0  0  0
   37.4350   75.2720   54.4370 C   0  0  0  0  0  0  0  0  0  0  0  0
   38.8030   74.8570   54.7500 C   0  0  2  0  0  0  0  0  0  0  0  0
   37.2310   74.2770   56.3560 H   0  0  0  0  0  0  0  0  0  0  0  0
   37.2990   76.3300   54.0890 H   0  0  0  0  0  0  0  0  0  0  0  0
   36.7400   74.5280   54.0310 H   0  0  0  0  0  0  0  0  0  0  0  0
   39.6500   75.5770   54.6620 H   0  0  0  0  0  0  0  0  0  0  0  0
   39.4560   74.5990   51.8780 Cl  0  0  0  0  0  0  0  0  0  0  0  0
   39.5630   73.2910   53.0350 C   0  0  0  0  0  0  0  0  0  0  0  0
   39.2450   73.4660   54.3750 C   0  0  0  0  0  0  0  0  0  0  0  0
   39.3330   72.4280   55.2780 C   0  0  0  0  0  0  0  0  0  0  0  0
   39.0770   72.6060   56.3020 H   0  0  0  0  0  0  0  0  0  0  0  0
   39.7430   71.1710   54.8840 C   0  0  0  0  0  0  0  0  0  0  0  0
   39.8190   70.3470   55.5760 H   0  0  0  0  0  0  0  0  0  0  0  0
   40.0570   71.0140   53.5460 C   0  0  0  0  0  0  0  0  0  0  0  0
   40.3890   70.0670   53.1380 H   0  0  0  0  0  0  0  0  0  0  0  0
   39.9810   72.0390   52.6010 C   0  0  0  0  0  0  0  0  0  0  0  0
   40.3800   71.8190   50.9300 Cl  0  0  0  0  0  0  0  0  0  0  0  0
  1  2  1  0  0  0  0
  1 12  1  0  0  0  0
  2  7  1  0  0  0  0
  3  8  1  0  0  0  0
  3  2  2  0  0  0  0
  4  3  1  0  0  0  0
  5  4  2  0  0  0  0
  5  6  1  0  0  0  0
  6  1  2  0  0  0  0
  9 20  1  0  0  0  0
 10 14  1  0  0  0  0
 10  9  2  0  0  0  0
 11 10  1  0  0  0  0
 12 11  2  0  0  0  0
 12 13  1  0  0  0  0
 13  9  1  0  0  0  0
 15 11  1  0  0  0  0
 16 17  1  0  0  0  0
 17 23  1  0  0  0  0
 17 18  2  0  0  0  0
 18 24  1  0  0  0  0
 19 18  1  0  0  0  0
 20 19  2  0  0  0  0
 21 16  2  0  0  0  0
 21 20  1  0  0  0  0
 22 16  1  0  0  0  0
 25  5  1  0  0  0  0
 26 25  2  0  0  0  0
 27 30  1  1  0  0  0
 27 25  1  0  0  0  0
 28 29  1  0  0  0  0
 28 27  1  0  0  0  0
 29 33  1  6  0  0  0
 29 27  1  0  0  0  0
 31 28  1  0  0  0  0
 32 28  1  0  0  0  0
 34 35  1  0  0  0  0
 35 36  1  0  0  0  0
 36 29  1  0  0  0  0
 36 37  2  0  0  0  0
 37 38  1  0  0  0  0
 39 37  1  0  0  0  0
 39 40  1  0  0  0  0
 41 39  2  0  0  0  0
 42 41  1  0  0  0  0
 43 35  2  0  0  0  0
 43 41  1  0  0  0  0
 44 43  1  0  0  0  0
M  END
>  <minimizedAffinity>
-6.57936621

$$$$

 OpenBabel03212521013D

 44 48  0  0  1  0  0  0  0  0999 V2000
   39.9250   73.6670   59.1060 C   0  0  0  0  0  0  0  0  0  0  0  0
   38.9730   73.8950   60.0570 C   0  0  0  0  0  0  0  0  0  0  0  0
   39.4060   73.5050   61.3390 C   0  0  0  0  0  0  0  0  0  0  0  0
   40.6150   72.9710   61.6030 N   0  0  0  0  0  0  0  0  0  0  0  0
   41.4880   72.7890   60.5700 C   0  0  0  0  0  0  0  0  0  0  0  0
   41.1400   73.1390   59.3120 N   0  0  0  0  0  0  0  0  0  0  0  0
   38.0070   74.3140   59.8950 H   0  0  0  0  0  0  0  0  0  0  0  0
   38.7560   73.6260   62.2020 H   0  0  0  0  0  0  0  0  0  0  0  0
   38.7370   75.3010   55.5610 C   0  0  0  0  0  0  0  0  0  0  0  0
   39.4080   74.1060   55.3820 C   0  0  0  0  0  0  0  0  0  0  0  0
   39.8510   73.4740   56.4930 C   0  0  0  0  0  0  0  0  0  0  0  0
   39.6270   74.0200   57.7390 C   0  0  0  0  0  0  0  0  0  0  0  0
   38.7070   75.5760   57.3520 S   0  0  0  0  0  0  0  0  0  0  0  0
   39.5870   73.6720   54.4030 H   0  0  0  0  0  0  0  0  0  0  0  0
   40.3910   72.5400   56.5650 H   0  0  0  0  0  0  0  0  0  0  0  0
   36.3720   77.2620   53.5610 C   0  0  0  0  0  0  0  0  0  0  0  0
   37.1370   77.6060   52.4150 C   0  0  0  0  0  0  0  0  0  0  0  0
   38.4690   77.1650   52.3370 C   0  0  0  0  0  0  0  0  0  0  0  0
   38.9580   76.4320   53.3600 N   0  0  0  0  0  0  0  0  0  0  0  0
   38.1960   76.1190   54.4470 C   0  0  0  0  0  0  0  0  0  0  0  0
   36.9340   76.5330   54.5310 N   0  0  0  0  0  0  0  0  0  0  0  0
   35.3750   77.6280   53.5530 H   0  0  0  0  0  0  0  0  0  0  0  0
   36.7700   78.1920   51.5810 H   0  0  0  0  0  0  0  0  0  0  0  0
   39.1140   77.3830   51.5030 H   0  0  0  0  0  0  0  0  0  0  0  0
   42.7850   72.2190   60.8800 C   0  0  0  0  0  0  0  0  0  0  0  0
   43.7380   73.0030   60.9970 O   0  0  0  0  0  0  0  0  0  0  0  0
   42.9940   70.7330   61.0480 C   0  0  1  0  0  0  0  0  0  0  0  0
   43.0350   70.3050   62.4930 C   0  0  0  0  0  0  0  0  0  0  0  0
   41.9390   69.9130   61.6060 C   0  0  2  0  0  0  0  0  0  0  0  0
   43.9320   70.3950   60.5190 H   0  0  0  0  0  0  0  0  0  0  0  0
   42.7940   71.0720   63.2760 H   0  0  0  0  0  0  0  0  0  0  0  0
   43.7940   69.5590   62.7520 H   0  0  0  0  0  0  0  0  0  0  0  0
   40.9320   70.3790   61.7050 H   0  0  0  0  0  0  0  0  0  0  0  0
   40.4980   68.2710   63.5980 Cl  0  0  0  0  0  0  0  0  0  0  0  0
   41.1500   67.6530   62.0980 C   0  0  0  0  0  0  0  0  0  0  0  0
   41.8190   68.4670   61.1950 C   0  0  0  0  0  0  0  0  0  0  0  0
   42.3280   67.9690   60.0140 C   0  0  0  0  0  0  0  0  0  0  0  0
   42.8380   68.6320   59.3470 H   0  0  0  0  0  0  0  0  0  0  0  0
   42.1920   66.6360   59.6840 C   0  0  0  0  0  0  0  0  0  0  0  0
   42.5830   66.2280   58.7650 H   0  0  0  0  0  0  0  0  0  0  0  0
   41.5220   65.8380   60.5940 C   0  0  0  0  0  0  0  0  0  0  0  0
   41.3630   64.7800   60.4270 H   0  0  0  0  0  0  0  0  0  0  0  0
   40.9920   66.3040   61.7980 C   0  0  0  0  0  0  0  0  0  0  0  0
   40.1570   65.2870   62.9240 Cl  0  0  0  0  0  0  0  0  0  0  0  0
  1  6  2  0  0  0  0
  1  2  1  0  0  0  0
  2  3  2  0  0  0  0
  3  4  1  0  0  0  0
  3  8  1  0  0  0  0
  5 25  1  0  0  0  0
  5  4  2  0  0  0  0
  6  5  1  0  0  0  0
  7  2  1  0  0  0  0
  9 13  1  0  0  0  0
 10  9  2  0  0  0  0
 10 11  1  0  0  0  0
 11 15  1  0  0  0  0
 11 12  2  0  0  0  0
 12  1  1  0  0  0  0
 13 12  1  0  0  0  0
 14 10  1  0  0  0  0
 16 21  1  0  0  0  0
 17 16  2  0  0  0  0
 18 17  1  0  0  0  0
 18 19  2  0  0  0  0
 19 20  1  0  0  0  0
 20 21  2  0  0  0  0
 20  9  1  0  0  0  0
 22 16  1  0  0  0  0
 23 17  1  0  0  0  0
 24 18  1  0  0  0  0
 25 26  2  0  0  0  0
 25 27  1  0  0  0  0
 27 30  1  6  0  0  0
 27 29  1  0  0  0  0
 27 28  1  0  0  0  0
 28 32  1  0  0  0  0
 28 31  1  0  0  0  0
 29 33  1  1  0  0  0
 29 28  1  0  0  0  0
 35 34  1  0  0  0  0
 36 29  1  0  0  0  0
 36 35  2  0  0  0  0
 37 36  1  0  0  0  0
 38 37  1  0  0  0  0
 39 37  2  0  0  0  0
 39 41  1  0  0  0  0
 40 39  1  0  0  0  0
 41 43  2  0  0  0  0
 42 41  1  0  0  0  0
 43 35  1  0  0  0  0
 43 44  1  0  0  0  0
M  END
>  <minimizedAffinity>
-6.55836725

$$$$

 OpenBabel03212521013D

 44 48  0  0  1  0  0  0  0  0999 V2000
   40.5710   73.3710   60.4840 C   0  0  0  0  0  0  0  0  0  0  0  0
   39.4490   73.4720   61.2530 C   0  0  0  0  0  0  0  0  0  0  0  0
   38.9170   74.7760   61.2380 C   0  0  0  0  0  0  0  0  0  0  0  0
   39.4470   75.8060   60.5490 N   0  0  0  0  0  0  0  0  0  0  0  0
   40.5750   75.5850   59.8130 C   0  0  0  0  0  0  0  0  0  0  0  0
   41.1410   74.3590   59.7800 N   0  0  0  0  0  0  0  0  0  0  0  0
   38.9940   72.6880   61.8130 H   0  0  0  0  0  0  0  0  0  0  0  0
   38.0200   75.0130   61.8050 H   0  0  0  0  0  0  0  0  0  0  0  0
   42.4290   69.7790   61.0280 C   0  0  0  0  0  0  0  0  0  0  0  0
   42.2590   70.0770   59.6890 C   0  0  0  0  0  0  0  0  0  0  0  0
   41.6510   71.2480   59.3900 C   0  0  0  0  0  0  0  0  0  0  0  0
   41.2290   72.0890   60.3970 C   0  0  0  0  0  0  0  0  0  0  0  0
   41.7170   71.1800   61.9310 S   0  0  0  0  0  0  0  0  0  0  0  0
   42.5900   69.4170   58.8920 H   0  0  0  0  0  0  0  0  0  0  0  0
   41.4270   71.6590   58.4150 H   0  0  0  0  0  0  0  0  0  0  0  0
   44.9730   67.1950   61.5670 C   0  0  0  0  0  0  0  0  0  0  0  0
   44.2950   66.2480   62.3800 C   0  0  0  0  0  0  0  0  0  0  0  0
   42.9620   66.5060   62.7440 C   0  0  0  0  0  0  0  0  0  0  0  0
   42.3900   67.6460   62.3020 N   0  0  0  0  0  0  0  0  0  0  0  0
   43.0700   68.5340   61.5220 C   0  0  0  0  0  0  0  0  0  0  0  0
   44.3320   68.3000   61.1720 N   0  0  0  0  0  0  0  0  0  0  0  0
   45.9750   66.9360   61.3300 H   0  0  0  0  0  0  0  0  0  0  0  0
   44.7290   65.3270   62.7480 H   0  0  0  0  0  0  0  0  0  0  0  0
   42.3800   65.8390   63.3570 H   0  0  0  0  0  0  0  0  0  0  0  0
   41.1240   76.7060   59.0740 C   0  0  0  0  0  0  0  0  0  0  0  0
   42.1600   77.2260   59.5140 O   0  0  0  0  0  0  0  0  0  0  0  0
   40.4720   77.2430   57.8220 C   0  0  1  0  0  0  0  0  0  0  0  0
   41.0140   76.6170   56.5620 C   0  0  0  0  0  0  0  0  0  0  0  0
   39.6420   76.3790   57.0100 C   0  0  2  0  0  0  0  0  0  0  0  0
   40.5690   78.3670   57.7670 H   0  0  0  0  0  0  0  0  0  0  0  0
   41.7310   75.7600   56.6670 H   0  0  0  0  0  0  0  0  0  0  0  0
   41.1810   77.2980   55.7200 H   0  0  0  0  0  0  0  0  0  0  0  0
   39.3490   75.3970   57.4500 H   0  0  0  0  0  0  0  0  0  0  0  0
   38.4340   74.4380   55.1370 Cl  0  0  0  0  0  0  0  0  0  0  0  0
   37.9020   76.0940   55.3170 C   0  0  0  0  0  0  0  0  0  0  0  0
   38.5040   76.9660   56.2140 C   0  0  0  0  0  0  0  0  0  0  0  0
   38.0780   78.2700   56.3490 C   0  0  0  0  0  0  0  0  0  0  0  0
   38.5710   78.9090   57.0510 H   0  0  0  0  0  0  0  0  0  0  0  0
   37.0310   78.7600   55.5950 C   0  0  0  0  0  0  0  0  0  0  0  0
   36.6820   79.7770   55.6860 H   0  0  0  0  0  0  0  0  0  0  0  0
   36.4420   77.8790   54.7060 C   0  0  0  0  0  0  0  0  0  0  0  0
   35.6130   78.1670   54.0700 H   0  0  0  0  0  0  0  0  0  0  0  0
   36.8440   76.5520   54.5410 C   0  0  0  0  0  0  0  0  0  0  0  0
   36.0910   75.4650   53.4230 Cl  0  0  0  0  0  0  0  0  0  0  0  0
  1  2  1  0  0  0  0
  2  7  1  0  0  0  0
  3  2  2  0  0  0  0
  3  8  1  0  0  0  0
  4  3  1  0  0  0  0
  5  4  2  0  0  0  0
  6  5  1  0  0  0  0
  6  1  2  0  0  0  0
  9 20  1  0  0  0  0
  9 13  1  0  0  0  0
 10  9  2  0  0  0  0
 11 10  1  0  0  0  0
 11 12  2  0  0  0  0
 12  1  1  0  0  0  0
 12 13  1  0  0  0  0
 14 10  1  0  0  0  0
 15 11  1  0  0  0  0
 16 17  1  0  0  0  0
 17 18  2  0  0  0  0
 17 23  1  0  0  0  0
 18 24  1  0  0  0  0
 19 18  1  0  0  0  0
 20 19  2  0  0  0  0
 21 20  1  0  0  0  0
 21 16  2  0  0  0  0
 22 16  1  0  0  0  0
 25 26  2  0  0  0  0
 25  5  1  0  0  0  0
 27 30  1  6  0  0  0
 27 25  1  0  0  0  0
 28 31  1  0  0  0  0
 28 29  1  0  0  0  0
 28 27  1  0  0  0  0
 29 33  1  1  0  0  0
 29 27  1  0  0  0  0
 32 28  1  0  0  0  0
 34 35  1  0  0  0  0
 35 36  1  0  0  0  0
 36 37  2  0  0  0  0
 36 29  1  0  0  0  0
 37 38  1  0  0  0  0
 39 40  1  0  0  0  0
 39 37  1  0  0  0  0
 41 39  2  0  0  0  0
 42 41  1  0  0  0  0
 43 41  1  0  0  0  0
 43 35  2  0  0  0  0
 44 43  1  0  0  0  0
M  END
>  <minimizedAffinity>
-6.52269268

$$$$
