
 OpenBabel03212521003D

 44 48  0  0  1  0  0  0  0  0999 V2000
   39.7940   77.3960   59.1830 C   0  0  0  0  0  0  0  0  0  0  0  0
   40.5210   76.2820   58.8800 C   0  0  0  0  0  0  0  0  0  0  0  0
   39.9690   75.5720   57.7960 C   0  0  0  0  0  0  0  0  0  0  0  0
   38.8570   75.9430   57.1310 N   0  0  0  0  0  0  0  0  0  0  0  0
   38.2110   77.0780   57.5250 C   0  0  0  0  0  0  0  0  0  0  0  0
   38.6820   77.8100   58.5580 N   0  0  0  0  0  0  0  0  0  0  0  0
   41.4050   75.9500   59.3750 H   0  0  0  0  0  0  0  0  0  0  0  0
   40.4400   74.6600   57.4370 H   0  0  0  0  0  0  0  0  0  0  0  0
   40.9840   80.3440   61.7390 C   0  0  0  0  0  0  0  0  0  0  0  0
   40.9870   79.1020   62.3440 C   0  0  0  0  0  0  0  0  0  0  0  0
   40.6070   78.0460   61.5880 C   0  0  0  0  0  0  0  0  0  0  0  0
   40.2390   78.2300   60.2720 C   0  0  0  0  0  0  0  0  0  0  0  0
   40.4330   80.0540   60.0380 S   0  0  0  0  0  0  0  0  0  0  0  0
   41.2760   78.9510   63.3800 H   0  0  0  0  0  0  0  0  0  0  0  0
   40.5420   77.0050   61.8720 H   0  0  0  0  0  0  0  0  0  0  0  0
   43.0440   83.1420   62.9100 C   0  0  0  0  0  0  0  0  0  0  0  0
   42.1370   83.8920   63.7040 C   0  0  0  0  0  0  0  0  0  0  0  0
   40.8150   83.4340   63.8290 C   0  0  0  0  0  0  0  0  0  0  0  0
   40.4710   82.2980   63.1860 N   0  0  0  0  0  0  0  0  0  0  0  0
   41.3670   81.6010   62.4320 C   0  0  0  0  0  0  0  0  0  0  0  0
   42.6220   82.0270   62.3050 N   0  0  0  0  0  0  0  0  0  0  0  0
   44.0250   83.5460   62.8590 H   0  0  0  0  0  0  0  0  0  0  0  0
   42.3860   84.8060   64.2290 H   0  0  0  0  0  0  0  0  0  0  0  0
   40.0670   83.9440   64.4130 H   0  0  0  0  0  0  0  0  0  0  0  0
   37.0200   77.4610   56.7910 C   0  0  0  0  0  0  0  0  0  0  0  0
   35.9290   77.0730   57.2340 O   0  0  0  0  0  0  0  0  0  0  0  0
   37.0810   78.2900   55.5300 C   0  0  1  0  0  0  0  0  0  0  0  0
   37.2860   79.7590   55.8000 C   0  0  0  0  0  0  0  0  0  0  0  0
   38.3160   78.9460   55.1540 C   0  0  2  0  0  0  0  0  0  0  0  0
   36.1550   78.1380   54.9020 H   0  0  0  0  0  0  0  0  0  0  0  0
   37.4880   80.0750   56.8580 H   0  0  0  0  0  0  0  0  0  0  0  0
   36.6960   80.4470   55.1850 H   0  0  0  0  0  0  0  0  0  0  0  0
   39.2370   78.6490   55.7070 H   0  0  0  0  0  0  0  0  0  0  0  0
   40.8890   77.7550   54.3140 Cl  0  0  0  0  0  0  0  0  0  0  0  0
   39.8210   78.6460   53.2520 C   0  0  0  0  0  0  0  0  0  0  0  0
   38.6230   79.1850   53.6980 C   0  0  0  0  0  0  0  0  0  0  0  0
   37.7880   79.8850   52.8520 C   0  0  0  0  0  0  0  0  0  0  0  0
   36.8730   80.2840   53.2360 H   0  0  0  0  0  0  0  0  0  0  0  0
   38.1160   80.0760   51.5240 C   0  0  0  0  0  0  0  0  0  0  0  0
   37.4760   80.6210   50.8480 H   0  0  0  0  0  0  0  0  0  0  0  0
   39.3130   79.5330   51.0970 C   0  0  0  0  0  0  0  0  0  0  0  0
   39.6590   79.6290   50.0750 H   0  0  0  0  0  0  0  0  0  0  0  0
   40.1840   78.8190   51.9210 C   0  0  0  0  0  0  0  0  0  0  0  0
   41.6800   78.1470   51.3650 Cl  0  0  0  0  0  0  0  0  0  0  0  0
  1 12  1  0  0  0  0
  2  1  1  0  0  0  0
  2  7  1  0  0  0  0
  3  2  2  0  0  0  0
  4  5  2  0  0  0  0
  4  3  1  0  0  0  0
  5  6  1  0  0  0  0
  6  1  2  0  0  0  0
  8  3  1  0  0  0  0
  9 10  2  0  0  0  0
  9 20  1  0  0  0  0
 10 14  1  0  0  0  0
 11 15  1  0  0  0  0
 11 10  1  0  0  0  0
 12 11  2  0  0  0  0
 13 12  1  0  0  0  0
 13  9  1  0  0  0  0
 16 17  1  0  0  0  0
 17 18  2  0  0  0  0
 17 23  1  0  0  0  0
 18 24  1  0  0  0  0
 19 18  1  0  0  0  0
 20 19  2  0  0  0  0
 21 20  1  0  0  0  0
 21 16  2  0  0  0  0
 22 16  1  0  0  0  0
 25 26  2  0  0  0  0
 25  5  1  0  0  0  0
 27 30  1  6  0  0  0
 27 28  1  0  0  0  0
 27 25  1  0  0  0  0
 28 31  1  0  0  0  0
 29 27  1  0  0  0  0
 29 33  1  1  0  0  0
 29 28  1  0  0  0  0
 32 28  1  0  0  0  0
 35 36  1  0  0  0  0
 35 34  1  0  0  0  0
 36 29  1  0  0  0  0
 37 38  1  0  0  0  0
 37 36  2  0  0  0  0
 39 37  1  0  0  0  0
 40 39  1  0  0  0  0
 41 39  2  0  0  0  0
 41 43  1  0  0  0  0
 42 41  1  0  0  0  0
 43 35  2  0  0  0  0
 44 43  1  0  0  0  0
M  END
>  <minimizedAffinity>
-6.43896866

>  <minimizedRMSD>
0.430032462

$$$$
