
 OpenBabel03212521003D

 44 48  0  0  1  0  0  0  0  0999 V2000
   39.7350   77.3230   59.2110 C   0  0  0  0  0  0  0  0  0  0  0  0
   40.3680   76.1320   59.0060 C   0  0  0  0  0  0  0  0  0  0  0  0
   39.8180   75.4230   57.9210 C   0  0  0  0  0  0  0  0  0  0  0  0
   38.7900   75.8630   57.1680 N   0  0  0  0  0  0  0  0  0  0  0  0
   38.2350   77.0730   57.4680 C   0  0  0  0  0  0  0  0  0  0  0  0
   38.7100   77.8090   58.4960 N   0  0  0  0  0  0  0  0  0  0  0  0
   41.1830   75.7440   59.5740 H   0  0  0  0  0  0  0  0  0  0  0  0
   40.2190   74.4540   57.6340 H   0  0  0  0  0  0  0  0  0  0  0  0
   40.9630   80.2890   61.7300 C   0  0  0  0  0  0  0  0  0  0  0  0
   40.9510   79.0540   62.3500 C   0  0  0  0  0  0  0  0  0  0  0  0
   40.5580   77.9940   61.6080 C   0  0  0  0  0  0  0  0  0  0  0  0
   40.1910   78.1650   60.2900 C   0  0  0  0  0  0  0  0  0  0  0  0
   40.4070   79.9840   60.0330 S   0  0  0  0  0  0  0  0  0  0  0  0
   41.2380   78.9130   63.3880 H   0  0  0  0  0  0  0  0  0  0  0  0
   40.4800   76.9560   61.9050 H   0  0  0  0  0  0  0  0  0  0  0  0
   43.0550   83.0810   62.8550 C   0  0  0  0  0  0  0  0  0  0  0  0
   42.1600   83.8470   63.6490 C   0  0  0  0  0  0  0  0  0  0  0  0
   40.8350   83.4000   63.7900 C   0  0  0  0  0  0  0  0  0  0  0  0
   40.4770   82.2600   63.1620 N   0  0  0  0  0  0  0  0  0  0  0  0
   41.3620   81.5490   62.4070 C   0  0  0  0  0  0  0  0  0  0  0  0
   42.6180   81.9640   62.2650 N   0  0  0  0  0  0  0  0  0  0  0  0
   44.0380   83.4780   62.7920 H   0  0  0  0  0  0  0  0  0  0  0  0
   42.4200   84.7630   64.1630 H   0  0  0  0  0  0  0  0  0  0  0  0
   40.0970   83.9220   64.3750 H   0  0  0  0  0  0  0  0  0  0  0  0
   37.1340   77.5290   56.6400 C   0  0  0  0  0  0  0  0  0  0  0  0
   36.0050   77.0880   56.9000 O   0  0  0  0  0  0  0  0  0  0  0  0
   37.3320   78.4930   55.4950 C   0  0  1  0  0  0  0  0  0  0  0  0
   37.4590   79.9260   55.9470 C   0  0  0  0  0  0  0  0  0  0  0  0
   38.5860   79.2040   55.3550 C   0  0  2  0  0  0  0  0  0  0  0  0
   36.4980   78.4000   54.7390 H   0  0  0  0  0  0  0  0  0  0  0  0
   37.5160   80.1260   57.0500 H   0  0  0  0  0  0  0  0  0  0  0  0
   36.9340   80.6700   55.3390 H   0  0  0  0  0  0  0  0  0  0  0  0
   39.4370   78.8610   55.9870 H   0  0  0  0  0  0  0  0  0  0  0  0
   36.5480   78.7890   53.2540 Cl  0  0  0  0  0  0  0  0  0  0  0  0
   38.1480   79.4330   52.9620 C   0  0  0  0  0  0  0  0  0  0  0  0
   39.0690   79.6080   53.9850 C   0  0  0  0  0  0  0  0  0  0  0  0
   40.3290   80.1160   53.7450 C   0  0  0  0  0  0  0  0  0  0  0  0
   41.0070   80.2340   54.5630 H   0  0  0  0  0  0  0  0  0  0  0  0
   40.7220   80.4710   52.4710 C   0  0  0  0  0  0  0  0  0  0  0  0
   41.7030   80.8700   52.2620 H   0  0  0  0  0  0  0  0  0  0  0  0
   39.7940   80.2910   51.4610 C   0  0  0  0  0  0  0  0  0  0  0  0
   40.0060   80.5390   50.4290 H   0  0  0  0  0  0  0  0  0  0  0  0
   38.5100   79.7800   51.6640 C   0  0  0  0  0  0  0  0  0  0  0  0
   37.3630   79.5620   50.3870 Cl  0  0  0  0  0  0  0  0  0  0  0  0
  1 12  1  0  0  0  0
  2  1  1  0  0  0  0
  2  7  1  0  0  0  0
  3  2  2  0  0  0  0
  4  5  2  0  0  0  0
  4  3  1  0  0  0  0
  5  6  1  0  0  0  0
  6  1  2  0  0  0  0
  8  3  1  0  0  0  0
  9 10  2  0  0  0  0
  9 20  1  0  0  0  0
 10 14  1  0  0  0  0
 11 15  1  0  0  0  0
 11 10  1  0  0  0  0
 12 11  2  0  0  0  0
 13 12  1  0  0  0  0
 13  9  1  0  0  0  0
 16 17  1  0  0  0  0
 17 18  2  0  0  0  0
 17 23  1  0  0  0  0
 18 24  1  0  0  0  0
 19 18  1  0  0  0  0
 20 19  2  0  0  0  0
 21 20  1  0  0  0  0
 21 16  2  0  0  0  0
 22 16  1  0  0  0  0
 25 26  2  0  0  0  0
 25  5  1  0  0  0  0
 27 30  1  6  0  0  0
 27 28  1  0  0  0  0
 27 25  1  0  0  0  0
 28 31  1  0  0  0  0
 29 27  1  0  0  0  0
 29 28  1  0  0  0  0
 29 33  1  1  0  0  0
 32 28  1  0  0  0  0
 35 34  1  0  0  0  0
 35 36  1  0  0  0  0
 36 29  1  0  0  0  0
 37 36  2  0  0  0  0
 37 38  1  0  0  0  0
 39 37  1  0  0  0  0
 40 39  1  0  0  0  0
 41 43  1  0  0  0  0
 41 39  2  0  0  0  0
 42 41  1  0  0  0  0
 43 35  2  0  0  0  0
 44 43  1  0  0  0  0
M  END
>  <minimizedAffinity>
-6.9156599

>  <minimizedRMSD>
0.418595582

$$$$
