
 OpenBabel03212521003D

 44 48  0  0  1  0  0  0  0  0999 V2000
   39.7960   77.3970   59.1550 C   0  0  0  0  0  0  0  0  0  0  0  0
   40.5390   76.3000   58.8260 C   0  0  0  0  0  0  0  0  0  0  0  0
   39.9800   75.5920   57.7440 C   0  0  0  0  0  0  0  0  0  0  0  0
   38.8500   75.9500   57.1040 N   0  0  0  0  0  0  0  0  0  0  0  0
   38.1900   77.0690   57.5220 C   0  0  0  0  0  0  0  0  0  0  0  0
   38.6660   77.7980   58.5550 N   0  0  0  0  0  0  0  0  0  0  0  0
   41.4370   75.9790   59.3020 H   0  0  0  0  0  0  0  0  0  0  0  0
   40.4610   74.6930   57.3660 H   0  0  0  0  0  0  0  0  0  0  0  0
   40.9920   80.3360   61.7200 C   0  0  0  0  0  0  0  0  0  0  0  0
   41.0050   79.0890   62.3180 C   0  0  0  0  0  0  0  0  0  0  0  0
   40.6240   78.0370   61.5580 C   0  0  0  0  0  0  0  0  0  0  0  0
   40.2460   78.2270   60.2460 C   0  0  0  0  0  0  0  0  0  0  0  0
   40.4300   80.0530   60.0210 S   0  0  0  0  0  0  0  0  0  0  0  0
   41.3020   78.9340   63.3510 H   0  0  0  0  0  0  0  0  0  0  0  0
   40.5660   76.9930   61.8370 H   0  0  0  0  0  0  0  0  0  0  0  0
   43.0500   83.1300   62.9010 C   0  0  0  0  0  0  0  0  0  0  0  0
   42.1430   83.8770   63.6980 C   0  0  0  0  0  0  0  0  0  0  0  0
   40.8210   83.4160   63.8230 C   0  0  0  0  0  0  0  0  0  0  0  0
   40.4780   82.2830   63.1760 N   0  0  0  0  0  0  0  0  0  0  0  0
   41.3740   81.5890   62.4180 C   0  0  0  0  0  0  0  0  0  0  0  0
   42.6280   82.0170   62.2920 N   0  0  0  0  0  0  0  0  0  0  0  0
   44.0310   83.5350   62.8510 H   0  0  0  0  0  0  0  0  0  0  0  0
   42.3910   84.7880   64.2270 H   0  0  0  0  0  0  0  0  0  0  0  0
   40.0730   83.9240   64.4080 H   0  0  0  0  0  0  0  0  0  0  0  0
   36.9790   77.4380   56.8140 C   0  0  0  0  0  0  0  0  0  0  0  0
   35.9110   76.9610   57.2250 O   0  0  0  0  0  0  0  0  0  0  0  0
   36.9940   78.3560   55.6150 C   0  0  1  0  0  0  0  0  0  0  0  0
   37.3050   79.7870   55.9730 C   0  0  0  0  0  0  0  0  0  0  0  0
   38.2330   78.9720   55.1900 C   0  0  2  0  0  0  0  0  0  0  0  0
   36.0150   78.3020   55.0530 H   0  0  0  0  0  0  0  0  0  0  0  0
   37.6050   80.0110   57.0310 H   0  0  0  0  0  0  0  0  0  0  0  0
   36.7120   80.5510   55.4580 H   0  0  0  0  0  0  0  0  0  0  0  0
   39.1750   78.5850   55.6450 H   0  0  0  0  0  0  0  0  0  0  0  0
   40.9170   80.0860   54.6450 Cl  0  0  0  0  0  0  0  0  0  0  0  0
   39.6890   79.8310   53.4260 C   0  0  0  0  0  0  0  0  0  0  0  0
   38.4440   79.3050   53.7350 C   0  0  0  0  0  0  0  0  0  0  0  0
   37.4820   79.1080   52.7660 C   0  0  0  0  0  0  0  0  0  0  0  0
   36.5340   78.6990   53.0470 H   0  0  0  0  0  0  0  0  0  0  0  0
   37.7240   79.4300   51.4450 C   0  0  0  0  0  0  0  0  0  0  0  0
   36.9840   79.2840   50.6740 H   0  0  0  0  0  0  0  0  0  0  0  0
   38.9700   79.9540   51.1540 C   0  0  0  0  0  0  0  0  0  0  0  0
   39.2560   80.2380   50.1490 H   0  0  0  0  0  0  0  0  0  0  0  0
   39.9680   80.1670   52.1050 C   0  0  0  0  0  0  0  0  0  0  0  0
   41.5230   80.8250   51.7180 Cl  0  0  0  0  0  0  0  0  0  0  0  0
  1 12  1  0  0  0  0
  2  1  1  0  0  0  0
  2  7  1  0  0  0  0
  3  2  2  0  0  0  0
  4  5  2  0  0  0  0
  4  3  1  0  0  0  0
  5  6  1  0  0  0  0
  6  1  2  0  0  0  0
  8  3  1  0  0  0  0
  9 10  2  0  0  0  0
  9 20  1  0  0  0  0
 10 14  1  0  0  0  0
 11 15  1  0  0  0  0
 11 10  1  0  0  0  0
 12 11  2  0  0  0  0
 13 12  1  0  0  0  0
 13  9  1  0  0  0  0
 16 17  1  0  0  0  0
 17 18  2  0  0  0  0
 17 23  1  0  0  0  0
 18 24  1  0  0  0  0
 19 18  1  0  0  0  0
 20 19  2  0  0  0  0
 21 20  1  0  0  0  0
 21 16  2  0  0  0  0
 22 16  1  0  0  0  0
 25 26  2  0  0  0  0
 25  5  1  0  0  0  0
 27 30  1  6  0  0  0
 27 28  1  0  0  0  0
 27 25  1  0  0  0  0
 28 31  1  0  0  0  0
 29 27  1  0  0  0  0
 29 33  1  1  0  0  0
 29 28  1  0  0  0  0
 32 28  1  0  0  0  0
 35 36  1  0  0  0  0
 35 34  1  0  0  0  0
 36 29  1  0  0  0  0
 37 38  1  0  0  0  0
 37 36  2  0  0  0  0
 39 37  1  0  0  0  0
 40 39  1  0  0  0  0
 41 39  2  0  0  0  0
 41 43  1  0  0  0  0
 42 41  1  0  0  0  0
 43 35  2  0  0  0  0
 44 43  1  0  0  0  0
M  END
>  <minimizedAffinity>
-6.63384724

>  <minimizedRMSD>
0.532265723

$$$$
