
 OpenBabel03212521003D

 44 48  0  0  1  0  0  0  0  0999 V2000
   39.7690   77.1930   59.2570 C   0  0  0  0  0  0  0  0  0  0  0  0
   40.4640   76.0330   59.0730 C   0  0  0  0  0  0  0  0  0  0  0  0
   39.9540   75.2790   57.9980 C   0  0  0  0  0  0  0  0  0  0  0  0
   38.9060   75.6530   57.2370 N   0  0  0  0  0  0  0  0  0  0  0  0
   38.2880   76.8370   57.5160 C   0  0  0  0  0  0  0  0  0  0  0  0
   38.7220   77.6130   58.5330 N   0  0  0  0  0  0  0  0  0  0  0  0
   41.2970   75.6970   59.6470 H   0  0  0  0  0  0  0  0  0  0  0  0
   40.4050   74.3280   57.7270 H   0  0  0  0  0  0  0  0  0  0  0  0
   40.9030   80.2480   61.7120 C   0  0  0  0  0  0  0  0  0  0  0  0
   40.8380   79.0410   62.3830 C   0  0  0  0  0  0  0  0  0  0  0  0
   40.4700   77.9550   61.6650 C   0  0  0  0  0  0  0  0  0  0  0  0
   40.1790   78.0750   60.3230 C   0  0  0  0  0  0  0  0  0  0  0  0
   40.4360   79.8780   60.0010 S   0  0  0  0  0  0  0  0  0  0  0  0
   41.0660   78.9410   63.4400 H   0  0  0  0  0  0  0  0  0  0  0  0
   40.3600   76.9330   62.0010 H   0  0  0  0  0  0  0  0  0  0  0  0
   42.9720   83.0600   62.8300 C   0  0  0  0  0  0  0  0  0  0  0  0
   42.0480   83.8700   63.5420 C   0  0  0  0  0  0  0  0  0  0  0  0
   40.7110   83.4450   63.6310 C   0  0  0  0  0  0  0  0  0  0  0  0
   40.3700   82.2840   63.0330 N   0  0  0  0  0  0  0  0  0  0  0  0
   41.2830   81.5310   62.3560 C   0  0  0  0  0  0  0  0  0  0  0  0
   42.5510   81.9240   62.2650 N   0  0  0  0  0  0  0  0  0  0  0  0
   43.9630   83.4410   62.8030 H   0  0  0  0  0  0  0  0  0  0  0  0
   42.2930   84.8040   64.0310 H   0  0  0  0  0  0  0  0  0  0  0  0
   39.9500   84.0010   64.1530 H   0  0  0  0  0  0  0  0  0  0  0  0
   37.1670   77.2220   56.6800 C   0  0  0  0  0  0  0  0  0  0  0  0
   36.0290   77.0900   57.1550 O   0  0  0  0  0  0  0  0  0  0  0  0
   37.3510   77.7550   55.2790 C   0  0  1  0  0  0  0  0  0  0  0  0
   37.3480   79.2610   55.2170 C   0  0  0  0  0  0  0  0  0  0  0  0
   38.5540   78.4830   54.9340 C   0  0  2  0  0  0  0  0  0  0  0  0
   36.5660   77.3390   54.5820 H   0  0  0  0  0  0  0  0  0  0  0  0
   37.3340   79.8270   56.1870 H   0  0  0  0  0  0  0  0  0  0  0  0
   36.8010   79.7070   54.3790 H   0  0  0  0  0  0  0  0  0  0  0  0
   39.3950   78.4490   55.6650 H   0  0  0  0  0  0  0  0  0  0  0  0
   36.6180   79.5400   52.9660 Cl  0  0  0  0  0  0  0  0  0  0  0  0
   38.2040   78.9260   52.5560 C   0  0  0  0  0  0  0  0  0  0  0  0
   39.0760   78.4400   53.5200 C   0  0  0  0  0  0  0  0  0  0  0  0
   40.3240   77.9570   53.1870 C   0  0  0  0  0  0  0  0  0  0  0  0
   40.9660   77.5910   53.9610 H   0  0  0  0  0  0  0  0  0  0  0  0
   40.7550   77.9390   51.8760 C   0  0  0  0  0  0  0  0  0  0  0  0
   41.7270   77.5650   51.5960 H   0  0  0  0  0  0  0  0  0  0  0  0
   39.8740   78.4260   50.9270 C   0  0  0  0  0  0  0  0  0  0  0  0
   40.1180   78.4550   49.8730 H   0  0  0  0  0  0  0  0  0  0  0  0
   38.6040   78.9230   51.2250 C   0  0  0  0  0  0  0  0  0  0  0  0
   37.5170   79.5290   50.0210 Cl  0  0  0  0  0  0  0  0  0  0  0  0
  1 12  1  0  0  0  0
  2  1  1  0  0  0  0
  2  7  1  0  0  0  0
  3  2  2  0  0  0  0
  4  5  2  0  0  0  0
  4  3  1  0  0  0  0
  5  6  1  0  0  0  0
  6  1  2  0  0  0  0
  8  3  1  0  0  0  0
  9 20  1  0  0  0  0
  9 10  2  0  0  0  0
 10 14  1  0  0  0  0
 11 15  1  0  0  0  0
 11 10  1  0  0  0  0
 12 11  2  0  0  0  0
 13 12  1  0  0  0  0
 13  9  1  0  0  0  0
 16 17  1  0  0  0  0
 17 18  2  0  0  0  0
 17 23  1  0  0  0  0
 18 24  1  0  0  0  0
 19 18  1  0  0  0  0
 20 19  2  0  0  0  0
 21 20  1  0  0  0  0
 21 16  2  0  0  0  0
 22 16  1  0  0  0  0
 25 26  2  0  0  0  0
 25  5  1  0  0  0  0
 27 30  1  6  0  0  0
 27 25  1  0  0  0  0
 28 27  1  0  0  0  0
 28 31  1  0  0  0  0
 29 28  1  0  0  0  0
 29 27  1  0  0  0  0
 29 33  1  1  0  0  0
 32 28  1  0  0  0  0
 35 34  1  0  0  0  0
 35 36  1  0  0  0  0
 36 29  1  0  0  0  0
 37 36  2  0  0  0  0
 37 38  1  0  0  0  0
 39 37  1  0  0  0  0
 40 39  1  0  0  0  0
 41 43  1  0  0  0  0
 41 39  2  0  0  0  0
 42 41  1  0  0  0  0
 43 35  2  0  0  0  0
 44 43  1  0  0  0  0
M  END
>  <minimizedAffinity>
-6.59473419

>  <minimizedRMSD>
0.937056541

$$$$
