
 OpenBabel03212520153D

 35 38  0  0  0  0  0  0  0  0999 V2000
   42.1100   84.0500   58.3460 Cl  0  0  0  0  0  0  0  0  0  0  0  0
   41.1900   82.5670   58.2040 C   0  0  0  0  0  0  0  0  0  0  0  0
   40.6650   81.9020   59.3000 C   0  0  0  0  0  0  0  0  0  0  0  0
   39.9600   80.7390   59.0160 C   0  0  0  0  0  0  0  0  0  0  0  0
   39.7400   80.1990   57.7710 C   0  0  0  0  0  0  0  0  0  0  0  0
   40.2780   80.8900   56.7140 C   0  0  0  0  0  0  0  0  0  0  0  0
   40.0650   80.3000   55.0740 Cl  0  0  0  0  0  0  0  0  0  0  0  0
   40.9960   82.0660   56.9400 C   0  0  0  0  0  0  0  0  0  0  0  0
   39.5570   80.2330   59.8930 H   0  0  0  0  0  0  0  0  0  0  0  0
   39.1770   79.2870   57.6580 H   0  0  0  0  0  0  0  0  0  0  0  0
   41.9690   82.2040   61.4570 C   0  0  0  0  0  0  0  0  0  0  0  0
   40.8730   82.4330   60.6040 C   0  0  0  0  0  0  0  0  0  0  0  0
   39.8630   83.2740   61.0650 C   0  0  0  0  0  0  0  0  0  0  0  0
   40.0060   83.8120   62.3040 N   0  0  0  0  0  0  0  0  0  0  0  0
   41.0660   83.5740   63.0970 C   0  0  0  0  0  0  0  0  0  0  0  0
   42.0500   82.7660   62.6690 N   0  0  0  0  0  0  0  0  0  0  0  0
   42.7290   81.5390   61.0460 H   0  0  0  0  0  0  0  0  0  0  0  0
   38.9650   83.5410   60.5230 H   0  0  0  0  0  0  0  0  0  0  0  0
   41.0600   84.2460   64.4210 C   0  0  0  0  0  0  0  0  0  0  0  0
   40.7560   85.5970   64.3060 F   0  0  0  0  0  0  0  0  0  0  0  0
   40.1170   83.6580   65.2500 F   0  0  0  0  0  0  0  0  0  0  0  0
   42.3190   84.2160   65.0110 F   0  0  0  0  0  0  0  0  0  0  0  0
   41.5130   82.7150   55.8260 O   0  0  0  0  0  0  0  0  0  0  0  0
   42.8060   82.1470   53.7680 C   0  0  0  0  0  3  0  0  0  0  0  0
   42.6060   82.2470   55.1130 C   0  0  0  0  0  0  0  0  0  0  0  0
   43.6110   81.8340   55.9950 C   0  0  0  0  0  0  0  0  0  0  0  0
   43.5770   81.8620   57.0920 H   0  0  0  0  0  0  0  0  0  0  0  0
   44.8180   81.3210   55.5340 C   0  0  0  0  0  0  0  0  0  0  0  0
   45.9470   80.8530   56.0960 N   0  0  0  0  0  0  0  0  0  0  0  0
   46.1030   80.7990   57.1290 H   0  0  0  0  0  0  0  0  0  0  0  0
   46.8060   80.4790   55.1500 N   0  0  0  0  0  0  0  0  0  0  0  0
   46.2560   80.6960   53.9270 C   0  0  0  0  0  0  0  0  0  0  0  0
   46.7260   80.4880   52.9790 H   0  0  0  0  0  0  0  0  0  0  0  0
   44.9970   81.2290   54.1700 C   0  0  0  0  0  0  0  0  0  0  0  0
   44.0130   81.6330   53.3000 C   0  0  0  0  0  3  0  0  0  0  0  0
  2  1  1  0  0  0  0
  2  3  1  0  0  0  0
  3 12  1  0  0  0  0
  4  3  2  0  0  0  0
  4  9  1  0  0  0  0
  5  4  1  0  0  0  0
  6  8  1  0  0  0  0
  6  5  2  0  0  0  0
  7  6  1  0  0  0  0
  8  2  2  0  0  0  0
 10  5  1  0  0  0  0
 11 16  1  0  0  0  0
 12 13  1  0  0  0  0
 12 11  2  0  0  0  0
 13 14  2  0  0  0  0
 14 15  1  0  0  0  0
 15 19  1  0  0  0  0
 16 15  2  0  0  0  0
 17 11  1  0  0  0  0
 18 13  1  0  0  0  0
 19 22  1  0  0  0  0
 19 21  1  0  0  0  0
 20 19  1  0  0  0  0
 23  8  1  0  0  0  0
 24 25  1  0  0  0  0
 25 23  1  0  0  0  0
 25 26  2  0  0  0  0
 26 27  1  0  0  0  0
 28 26  1  0  0  0  0
 28 29  1  0  0  0  0
 29 30  1  0  0  0  0
 31 29  1  0  0  0  0
 32 34  1  0  0  0  0
 32 31  2  0  0  0  0
 33 32  1  0  0  0  0
 34 28  2  0  0  0  0
 35 24  2  0  0  0  0
 35 34  1  0  0  0  0
M  END
>  <minimizedAffinity>
-5.03549337

>  <minimizedRMSD>
0.877310932

$$$$
