
 OpenBabel03212520153D

 35 38  0  0  0  0  0  0  0  0999 V2000
   41.7460   83.9740   58.2250 Cl  0  0  0  0  0  0  0  0  0  0  0  0
   40.9860   82.3970   58.1670 C   0  0  0  0  0  0  0  0  0  0  0  0
   40.6040   81.7070   59.3060 C   0  0  0  0  0  0  0  0  0  0  0  0
   40.0150   80.4680   59.0880 C   0  0  0  0  0  0  0  0  0  0  0  0
   39.7800   79.8770   57.8690 C   0  0  0  0  0  0  0  0  0  0  0  0
   40.1750   80.5960   56.7680 C   0  0  0  0  0  0  0  0  0  0  0  0
   39.9280   79.9460   55.1550 Cl  0  0  0  0  0  0  0  0  0  0  0  0
   40.7720   81.8470   56.9270 C   0  0  0  0  0  0  0  0  0  0  0  0
   39.7230   79.9430   59.9970 H   0  0  0  0  0  0  0  0  0  0  0  0
   39.3140   78.9070   57.8080 H   0  0  0  0  0  0  0  0  0  0  0  0
   41.9830   82.1730   61.3860 C   0  0  0  0  0  0  0  0  0  0  0  0
   40.8320   82.2890   60.5840 C   0  0  0  0  0  0  0  0  0  0  0  0
   39.7800   83.0600   61.0750 C   0  0  0  0  0  0  0  0  0  0  0  0
   39.9400   83.6430   62.2930 N   0  0  0  0  0  0  0  0  0  0  0  0
   41.0530   83.5120   63.0360 C   0  0  0  0  0  0  0  0  0  0  0  0
   42.0770   82.7720   62.5780 N   0  0  0  0  0  0  0  0  0  0  0  0
   42.7740   81.5580   60.9530 H   0  0  0  0  0  0  0  0  0  0  0  0
   38.8390   83.2390   60.5730 H   0  0  0  0  0  0  0  0  0  0  0  0
   41.0570   84.2180   64.3420 C   0  0  0  0  0  0  0  0  0  0  0  0
   40.7740   85.5710   64.1920 F   0  0  0  0  0  0  0  0  0  0  0  0
   40.1040   83.6670   65.1860 F   0  0  0  0  0  0  0  0  0  0  0  0
   42.3150   84.1840   64.9340 F   0  0  0  0  0  0  0  0  0  0  0  0
   41.1460   82.5200   55.7720 O   0  0  0  0  0  0  0  0  0  0  0  0
   43.1020   83.8560   54.9810 C   0  0  0  0  0  3  0  0  0  0  0  0
   42.4680   82.7250   55.4060 C   0  0  0  0  0  0  0  0  0  0  0  0
   43.1880   81.5310   55.5250 C   0  0  0  0  0  0  0  0  0  0  0  0
   42.8000   80.5580   55.8540 H   0  0  0  0  0  0  0  0  0  0  0  0
   44.5420   81.4640   55.2190 C   0  0  0  0  0  0  0  0  0  0  0  0
   45.4880   80.5080   55.2250 N   0  0  0  0  0  0  0  0  0  0  0  0
   45.3120   79.5170   55.5080 H   0  0  0  0  0  0  0  0  0  0  0  0
   46.6520   81.0160   54.8240 N   0  0  0  0  0  0  0  0  0  0  0  0
   46.4970   82.3350   54.5400 C   0  0  0  0  0  0  0  0  0  0  0  0
   47.2720   82.9990   54.1940 H   0  0  0  0  0  0  0  0  0  0  0  0
   45.1610   82.6190   54.7900 C   0  0  0  0  0  0  0  0  0  0  0  0
   44.4580   83.7940   54.6720 C   0  0  0  0  0  3  0  0  0  0  0  0
  2  1  1  0  0  0  0
  2  3  1  0  0  0  0
  3 12  1  0  0  0  0
  4  3  2  0  0  0  0
  4  9  1  0  0  0  0
  5  4  1  0  0  0  0
  6  8  1  0  0  0  0
  6  5  2  0  0  0  0
  7  6  1  0  0  0  0
  8  2  2  0  0  0  0
 10  5  1  0  0  0  0
 11 16  1  0  0  0  0
 12 13  1  0  0  0  0
 12 11  2  0  0  0  0
 13 14  2  0  0  0  0
 14 15  1  0  0  0  0
 15 19  1  0  0  0  0
 16 15  2  0  0  0  0
 17 11  1  0  0  0  0
 18 13  1  0  0  0  0
 19 22  1  0  0  0  0
 19 21  1  0  0  0  0
 20 19  1  0  0  0  0
 23  8  1  0  0  0  0
 24 25  1  0  0  0  0
 25 26  2  0  0  0  0
 25 23  1  0  0  0  0
 26 27  1  0  0  0  0
 28 29  1  0  0  0  0
 28 26  1  0  0  0  0
 29 30  1  0  0  0  0
 31 29  1  0  0  0  0
 32 34  1  0  0  0  0
 32 31  2  0  0  0  0
 33 32  1  0  0  0  0
 34 28  2  0  0  0  0
 35 34  1  0  0  0  0
 35 24  2  0  0  0  0
M  END
>  <minimizedAffinity>
-5.10646963

>  <minimizedRMSD>
0.739165366

$$$$
