
 OpenBabel03212521063D

 39 43  0  0  0  0  0  0  0  0999 V2000
   41.1510   84.3490   59.1940 C   0  0  0  0  0  0  0  0  0  0  0  0
   41.0220   85.7010   58.8700 C   0  0  0  0  0  0  0  0  0  0  0  0
   41.2890   86.1610   57.5870 C   0  0  0  0  0  0  0  0  0  0  0  0
   41.6720   85.2590   56.6860 N   0  0  0  0  0  0  0  0  0  0  0  0
   41.8020   83.9380   56.9860 C   0  0  0  0  0  0  0  0  0  0  0  0
   41.5400   83.4980   58.2380 N   0  0  0  0  0  0  0  0  0  0  0  0
   40.7120   86.4860   59.5700 H   0  0  0  0  0  0  0  0  0  0  0  0
   41.1910   87.2190   57.3260 H   0  0  0  0  0  0  0  0  0  0  0  0
   43.4450   83.1830   55.3400 C   0  0  0  0  0  0  0  0  0  0  0  0
   42.2260   82.9510   55.9820 C   0  0  0  0  0  0  0  0  0  0  0  0
   41.4480   81.8450   55.6910 C   0  0  0  0  0  0  0  0  0  0  0  0
   40.5050   81.6750   56.1960 H   0  0  0  0  0  0  0  0  0  0  0  0
   41.8990   80.9500   54.7370 C   0  0  0  0  0  0  0  0  0  0  0  0
   41.3760   79.8030   54.2470 N   0  0  0  0  0  0  0  0  0  0  0  0
   40.4690   79.3830   54.5430 H   0  0  0  0  0  0  0  0  0  0  0  0
   42.1920   79.3030   53.3380 N   0  0  0  0  0  0  0  0  0  0  0  0
   43.2750   80.0840   53.1880 C   0  0  0  0  0  0  0  0  0  0  0  0
   44.1170   79.9520   52.5310 H   0  0  0  0  0  0  0  0  0  0  0  0
   43.0940   81.1210   54.0670 C   0  0  0  0  0  0  0  0  0  0  0  0
   43.8390   82.2390   54.3880 C   0  0  0  0  0  0  0  0  0  0  0  0
   41.8060   84.1560   61.5620 C   0  0  0  0  0  0  0  0  0  0  0  0
   41.4360   83.8860   62.8740 C   0  0  0  0  0  0  0  0  0  0  0  0
   40.1390   83.5490   63.2170 C   0  0  0  0  0  0  0  0  0  0  0  0
   39.1690   83.4750   62.2210 C   0  0  0  0  0  0  0  0  0  0  0  0
   39.5310   83.7440   60.9020 C   0  0  0  0  0  0  0  0  0  0  0  0
   40.8280   84.0800   60.5730 C   0  0  0  0  0  0  0  0  0  0  0  0
   42.2050   83.9470   63.6470 H   0  0  0  0  0  0  0  0  0  0  0  0
   39.8790   83.3430   64.2470 H   0  0  0  0  0  0  0  0  0  0  0  0
   38.1570   83.2130   62.4780 H   0  0  0  0  0  0  0  0  0  0  0  0
   38.7600   83.6810   60.1480 H   0  0  0  0  0  0  0  0  0  0  0  0
   45.2890   83.8610   60.5170 C   0  0  0  0  0  0  0  0  0  0  0  0
   45.7750   85.1570   60.6870 C   0  0  0  0  0  0  0  0  0  0  0  0
   44.8940   86.1470   61.1670 C   0  0  0  0  0  0  0  0  0  0  0  0
   43.6150   85.7800   61.4390 N   0  0  0  0  0  0  0  0  0  0  0  0
   43.1730   84.5030   61.2620 C   0  0  0  0  0  0  0  0  0  0  0  0
   44.0120   83.5900   60.8110 N   0  0  0  0  0  0  0  0  0  0  0  0
   45.9940   83.1450   60.1510 H   0  0  0  0  0  0  0  0  0  0  0  0
   46.7940   85.4490   60.4700 H   0  0  0  0  0  0  0  0  0  0  0  0
   45.1940   87.1900   61.3290 H   0  0  0  0  0  0  0  0  0  0  0  0
  1 26  1  0  0  0  0
  2  1  1  0  0  0  0
  2  7  1  0  0  0  0
  3  2  2  0  0  0  0
  4  5  2  0  0  0  0
  4  3  1  0  0  0  0
  5  6  1  0  0  0  0
  6  1  2  0  0  0  0
  8  3  1  0  0  0  0
  9 10  1  0  0  0  0
 10  5  1  0  0  0  0
 11 10  2  0  0  0  0
 11 12  1  0  0  0  0
 13 11  1  0  0  0  0
 14 15  1  0  0  0  0
 14 13  1  0  0  0  0
 16 14  1  0  0  0  0
 17 16  2  0  0  0  0
 17 19  1  0  0  0  0
 18 17  1  0  0  0  0
 19 20  1  0  0  0  0
 19 13  2  0  0  0  0
 20  9  2  0  0  0  0
 21 22  1  0  0  0  0
 22 23  2  0  0  0  0
 22 27  1  0  0  0  0
 23 28  1  0  0  0  0
 24 29  1  0  0  0  0
 24 23  1  0  0  0  0
 25 24  2  0  0  0  0
 26 25  1  0  0  0  0
 26 21  2  0  0  0  0
 30 25  1  0  0  0  0
 31 32  2  0  0  0  0
 31 36  1  0  0  0  0
 32 33  1  0  0  0  0
 33 39  1  0  0  0  0
 33 34  2  0  0  0  0
 35 34  1  0  0  0  0
 35 21  1  0  0  0  0
 36 35  2  0  0  0  0
 37 31  1  0  0  0  0
 38 32  1  0  0  0  0
M  END
>  <minimizedAffinity>
-5.60573483

>  <minimizedRMSD>
0.831587136

$$$$
