
 OpenBabel03212520203D

 39 42  0  0  0  0  0  0  0  0999 V2000
   44.4860   84.7310   59.7300 Cl  0  0  0  0  0  0  0  0  0  0  0  0
   42.8480   84.2410   59.3350 C   0  0  0  0  0  0  0  0  0  0  0  0
   42.5010   83.6700   58.1090 C   0  0  0  0  0  0  0  0  0  0  0  0
   41.1760   83.3400   57.9510 C   0  0  0  0  0  0  0  0  0  0  0  0
   40.1710   83.5170   58.8720 C   0  0  0  0  0  0  0  0  0  0  0  0
   40.5420   84.0750   60.0560 C   0  0  0  0  0  0  0  0  0  0  0  0
   39.3630   84.3570   61.3260 Cl  0  0  0  0  0  0  0  0  0  0  0  0
   41.8730   84.4360   60.2880 C   0  0  0  0  0  0  0  0  0  0  0  0
   40.9390   82.8990   56.9860 H   0  0  0  0  0  0  0  0  0  0  0  0
   39.1490   83.2330   58.6790 H   0  0  0  0  0  0  0  0  0  0  0  0
   44.0230   84.4050   56.2050 C   0  0  0  0  0  0  0  0  0  0  0  0
   43.5200   83.4760   57.1350 C   0  0  0  0  0  0  0  0  0  0  0  0
   44.0800   82.1980   57.1130 C   0  0  0  0  0  0  0  0  0  0  0  0
   45.0630   81.9730   56.1910 N   0  0  0  0  0  0  0  0  0  0  0  0
   45.5130   82.8720   55.3300 C   0  0  0  0  0  0  0  0  0  0  0  0
   44.9820   84.1280   55.3320 N   0  0  0  0  0  0  0  0  0  0  0  0
   43.5550   85.3780   56.2670 H   0  0  0  0  0  0  0  0  0  0  0  0
   43.7660   81.4060   57.7860 H   0  0  0  0  0  0  0  0  0  0  0  0
   46.5890   82.4070   54.4160 C   0  0  0  0  0  0  0  0  0  0  0  0
   47.2340   81.3030   54.8790 F   0  0  0  0  0  0  0  0  0  0  0  0
   46.0510   82.1240   53.1610 F   0  0  0  0  0  0  0  0  0  0  0  0
   47.5840   83.4000   54.2780 F   0  0  0  0  0  0  0  0  0  0  0  0
   42.2020   85.0020   61.5110 O   0  0  0  0  0  0  0  0  0  0  0  0
   42.2290   84.2680   62.7200 C   0  0  0  0  0  0  0  0  0  0  0  0
   41.2320   83.9120   63.0150 H   0  0  0  0  0  0  0  0  0  0  0  0
   42.6510   84.9080   63.5160 H   0  0  0  0  0  0  0  0  0  0  0  0
   43.1360   83.2000   62.5040 O   0  0  0  0  0  0  0  0  0  0  0  0
   43.8270   81.0800   62.0000 C   0  0  0  0  0  0  0  0  0  0  0  0
   42.7500   81.8890   62.3020 C   0  0  0  0  0  0  0  0  0  0  0  0
   41.4710   81.4090   62.3820 C   0  0  0  0  0  0  0  0  0  0  0  0
   40.7020   82.1120   62.6220 H   0  0  0  0  0  0  0  0  0  0  0  0
   41.3120   80.0660   62.1440 C   0  0  0  0  0  0  0  0  0  0  0  0
   40.1590   79.3450   62.1600 N   0  0  0  0  0  0  0  0  0  0  0  0
   39.1860   79.6540   62.3520 H   0  0  0  0  0  0  0  0  0  0  0  0
   40.4610   78.1060   61.8790 N   0  0  0  0  0  0  0  0  0  0  0  0
   41.7830   77.9740   61.6750 C   0  0  0  0  0  0  0  0  0  0  0  0
   42.3280   77.0670   61.4260 H   0  0  0  0  0  0  0  0  0  0  0  0
   42.3640   79.2200   61.8380 C   0  0  0  0  0  0  0  0  0  0  0  0
   43.6590   79.7160   61.7590 C   0  0  0  0  0  0  0  0  0  0  0  0
  2  1  1  0  0  0  0
  2  8  1  0  0  0  0
  3  2  2  0  0  0  0
  4  3  1  0  0  0  0
  4  5  2  0  0  0  0
  5  6  1  0  0  0  0
  6  8  2  0  0  0  0
  6  7  1  0  0  0  0
  8 23  1  0  0  0  0
  9  4  1  0  0  0  0
 10  5  1  0  0  0  0
 11 17  1  0  0  0  0
 11 12  1  0  0  0  0
 12  3  1  0  0  0  0
 13 12  2  0  0  0  0
 13 18  1  0  0  0  0
 14 13  1  0  0  0  0
 15 16  1  0  0  0  0
 15 14  2  0  0  0  0
 16 11  2  0  0  0  0
 19 20  1  0  0  0  0
 19 15  1  0  0  0  0
 21 19  1  0  0  0  0
 22 19  1  0  0  0  0
 23 24  1  0  0  0  0
 24 25  1  0  0  0  0
 24 26  1  0  0  0  0
 27 24  1  0  0  0  0
 28 29  1  0  0  0  0
 29 30  2  0  0  0  0
 29 27  1  0  0  0  0
 30 31  1  0  0  0  0
 32 33  1  0  0  0  0
 32 30  1  0  0  0  0
 33 34  1  0  0  0  0
 35 33  1  0  0  0  0
 36 38  1  0  0  0  0
 36 35  2  0  0  0  0
 37 36  1  0  0  0  0
 38 32  2  0  0  0  0
 39 38  1  0  0  0  0
 39 28  2  0  0  0  0
M  END
>  <minimizedAffinity>
-4.59745455

>  <minimizedRMSD>
9.15554619

$$$$
