
 OpenBabel03212520263D

 31 34  0  0  0  0  0  0  0  0999 V2000
   42.4670   84.8380   61.2040 C   0  0  0  0  0  0  0  0  0  0  0  0
   43.4590   85.1940   62.1100 C   0  0  0  0  0  0  0  0  0  0  0  0
   44.1470   86.1840   61.3830 C   0  0  0  0  0  0  0  0  0  0  0  0
   43.5850   86.3710   60.1570 N   0  0  0  0  0  0  0  0  0  0  0  0
   42.5500   85.5340   60.0600 N   0  0  0  0  0  0  0  0  0  0  0  0
   43.6660   84.8390   63.0870 H   0  0  0  0  0  0  0  0  0  0  0  0
   45.0210   86.7000   61.8120 H   0  0  0  0  0  0  0  0  0  0  0  0
   40.8140   81.5510   61.7830 C   0  0  0  0  0  0  0  0  0  0  0  0
   41.8070   82.4870   61.5400 C   0  0  0  0  0  0  0  0  0  0  0  0
   41.4560   83.8290   61.4580 C   0  0  0  0  0  0  0  0  0  0  0  0
   40.1560   84.1680   61.6200 N   0  0  0  0  0  0  0  0  0  0  0  0
   39.2070   83.2170   61.8590 C   0  0  0  0  0  0  0  0  0  0  0  0
   39.5360   81.9290   61.9380 N   0  0  0  0  0  0  0  0  0  0  0  0
   41.1650   80.5280   61.8330 H   0  0  0  0  0  0  0  0  0  0  0  0
   42.8420   82.1990   61.4130 H   0  0  0  0  0  0  0  0  0  0  0  0
   38.1700   83.4820   61.9880 H   0  0  0  0  0  0  0  0  0  0  0  0
   44.0330   87.3030   59.1580 C   0  0  0  0  0  0  0  0  0  0  0  0
   43.1410   87.5280   58.5200 H   0  0  0  0  0  0  0  0  0  0  0  0
   44.3210   88.2870   59.5940 H   0  0  0  0  0  0  0  0  0  0  0  0
   45.6710   87.4810   57.3090 C   0  0  0  0  0  3  0  0  0  0  0  0
   45.0770   86.7300   58.3010 C   0  0  0  0  0  0  0  0  0  0  0  0
   45.5390   85.4160   58.4190 C   0  0  0  0  0  0  0  0  0  0  0  0
   45.1110   84.7780   59.1800 H   0  0  0  0  0  0  0  0  0  0  0  0
   46.5290   84.9100   57.5880 C   0  0  0  0  0  0  0  0  0  0  0  0
   47.1620   83.7380   57.4560 N   0  0  0  0  0  0  0  0  0  0  0  0
   46.9840   82.9040   58.0380 H   0  0  0  0  0  0  0  0  0  0  0  0
   48.0510   83.8030   56.4660 N   0  0  0  0  0  0  0  0  0  0  0  0
   48.0500   85.0120   55.8990 C   0  0  0  0  0  0  0  0  0  0  0  0
   48.6820   85.3130   55.0760 H   0  0  0  0  0  0  0  0  0  0  0  0
   47.0880   85.7230   56.6040 C   0  0  0  0  0  0  0  0  0  0  0  0
   46.6610   87.0400   56.4470 C   0  0  0  0  0  3  0  0  0  0  0  0
  1 10  1  0  0  0  0
  1  2  1  0  0  0  0
  2  6  1  0  0  0  0
  3  7  1  0  0  0  0
  3  2  2  0  0  0  0
  4  3  1  0  0  0  0
  5  4  1  0  0  0  0
  5  1  2  0  0  0  0
  8 14  1  0  0  0  0
  8 13  1  0  0  0  0
  9  8  2  0  0  0  0
 10  9  1  0  0  0  0
 10 11  2  0  0  0  0
 11 12  1  0  0  0  0
 12 13  2  0  0  0  0
 12 16  1  0  0  0  0
 15  9  1  0  0  0  0
 17 19  1  0  0  0  0
 17  4  1  0  0  0  0
 18 17  1  0  0  0  0
 20 21  1  0  0  0  0
 21 22  2  0  0  0  0
 21 17  1  0  0  0  0
 22 23  1  0  0  0  0
 24 22  1  0  0  0  0
 25 24  1  0  0  0  0
 25 26  1  0  0  0  0
 27 25  1  0  0  0  0
 28 27  2  0  0  0  0
 28 30  1  0  0  0  0
 29 28  1  0  0  0  0
 30 24  2  0  0  0  0
 31 30  1  0  0  0  0
 31 20  2  0  0  0  0
M  END
>  <minimizedAffinity>
-4.20125723

>  <minimizedRMSD>
0.253070295

$$$$
