
 OpenBabel03212520263D

 31 34  0  0  0  0  0  0  0  0999 V2000
   42.4870   84.8490   61.2990 C   0  0  0  0  0  0  0  0  0  0  0  0
   43.3660   85.2820   62.2840 C   0  0  0  0  0  0  0  0  0  0  0  0
   44.1410   86.2130   61.5650 C   0  0  0  0  0  0  0  0  0  0  0  0
   43.7290   86.2960   60.2700 N   0  0  0  0  0  0  0  0  0  0  0  0
   42.7080   85.4500   60.1200 N   0  0  0  0  0  0  0  0  0  0  0  0
   43.4540   85.0090   63.3040 H   0  0  0  0  0  0  0  0  0  0  0  0
   44.9600   86.7660   62.0510 H   0  0  0  0  0  0  0  0  0  0  0  0
   40.7450   81.5910   61.7730 C   0  0  0  0  0  0  0  0  0  0  0  0
   41.7640   82.5080   61.5680 C   0  0  0  0  0  0  0  0  0  0  0  0
   41.4480   83.8590   61.5120 C   0  0  0  0  0  0  0  0  0  0  0  0
   40.1530   84.2260   61.6600 N   0  0  0  0  0  0  0  0  0  0  0  0
   39.1780   83.2940   61.8620 C   0  0  0  0  0  0  0  0  0  0  0  0
   39.4740   81.9960   61.9150 N   0  0  0  0  0  0  0  0  0  0  0  0
   41.0710   80.5590   61.8040 H   0  0  0  0  0  0  0  0  0  0  0  0
   42.7950   82.1970   61.4510 H   0  0  0  0  0  0  0  0  0  0  0  0
   38.1460   83.5810   61.9800 H   0  0  0  0  0  0  0  0  0  0  0  0
   44.2980   87.1460   59.2590 C   0  0  0  0  0  0  0  0  0  0  0  0
   43.4430   87.4780   58.6150 H   0  0  0  0  0  0  0  0  0  0  0  0
   44.7120   88.0900   59.6820 H   0  0  0  0  0  0  0  0  0  0  0  0
   45.9680   85.3540   58.9040 C   0  0  0  0  0  3  0  0  0  0  0  0
   45.2570   86.4280   58.4130 C   0  0  0  0  0  0  0  0  0  0  0  0
   45.5180   86.7650   57.0810 C   0  0  0  0  0  0  0  0  0  0  0  0
   44.9890   87.5990   56.6400 H   0  0  0  0  0  0  0  0  0  0  0  0
   46.4340   86.0590   56.3130 C   0  0  0  0  0  0  0  0  0  0  0  0
   46.8870   86.1320   55.0570 N   0  0  0  0  0  0  0  0  0  0  0  0
   46.5800   86.8300   54.3600 H   0  0  0  0  0  0  0  0  0  0  0  0
   47.7900   85.1770   54.8360 N   0  0  0  0  0  0  0  0  0  0  0  0
   47.9760   84.4300   55.9270 C   0  0  0  0  0  0  0  0  0  0  0  0
   48.6560   83.5950   56.0000 H   0  0  0  0  0  0  0  0  0  0  0  0
   47.1190   84.9830   56.8700 C   0  0  0  0  0  0  0  0  0  0  0  0
   46.8940   84.6080   58.1950 C   0  0  0  0  0  3  0  0  0  0  0  0
  1 10  1  0  0  0  0
  1  2  1  0  0  0  0
  2  6  1  0  0  0  0
  3  7  1  0  0  0  0
  3  2  2  0  0  0  0
  4  3  1  0  0  0  0
  5  4  1  0  0  0  0
  5  1  2  0  0  0  0
  8 14  1  0  0  0  0
  8 13  1  0  0  0  0
  9  8  2  0  0  0  0
 10  9  1  0  0  0  0
 10 11  2  0  0  0  0
 11 12  1  0  0  0  0
 12 13  2  0  0  0  0
 12 16  1  0  0  0  0
 15  9  1  0  0  0  0
 17 19  1  0  0  0  0
 17  4  1  0  0  0  0
 18 17  1  0  0  0  0
 21 20  1  0  0  0  0
 21 17  1  0  0  0  0
 22 21  2  0  0  0  0
 23 22  1  0  0  0  0
 24 30  2  0  0  0  0
 24 22  1  0  0  0  0
 25 24  1  0  0  0  0
 26 25  1  0  0  0  0
 27 25  1  0  0  0  0
 27 28  2  0  0  0  0
 28 29  1  0  0  0  0
 28 30  1  0  0  0  0
 30 31  1  0  0  0  0
 31 20  2  0  0  0  0
M  END
>  <minimizedAffinity>
-4.10059023

>  <minimizedRMSD>
0.278652996

$$$$
