
 OpenBabel03212521053D

 39 43  0  0  0  0  0  0  0  0999 V2000
   41.1530   84.4200   59.1930 C   0  0  0  0  0  0  0  0  0  0  0  0
   40.7400   85.7000   58.8160 C   0  0  0  0  0  0  0  0  0  0  0  0
   40.9510   86.1730   57.5270 C   0  0  0  0  0  0  0  0  0  0  0  0
   41.5620   85.3550   56.6730 N   0  0  0  0  0  0  0  0  0  0  0  0
   41.9700   84.1050   57.0230 C   0  0  0  0  0  0  0  0  0  0  0  0
   41.7600   83.6520   58.2810 N   0  0  0  0  0  0  0  0  0  0  0  0
   40.2350   86.4150   59.4760 H   0  0  0  0  0  0  0  0  0  0  0  0
   40.6310   87.1750   57.2250 H   0  0  0  0  0  0  0  0  0  0  0  0
   41.8550   82.2350   55.4540 C   0  0  0  0  0  3  0  0  0  0  0  0
   42.6430   83.2110   56.0700 C   0  0  0  0  0  0  0  0  0  0  0  0
   43.9930   83.3330   55.8020 C   0  0  0  0  0  0  0  0  0  0  0  0
   44.5930   84.0940   56.2870 H   0  0  0  0  0  0  0  0  0  0  0  0
   44.5710   82.4620   54.8970 C   0  0  0  0  0  0  0  0  0  0  0  0
   45.8370   82.3360   54.4370 N   0  0  0  0  0  0  0  0  0  0  0  0
   46.6420   82.9330   54.7250 H   0  0  0  0  0  0  0  0  0  0  0  0
   45.8910   81.3410   53.5710 N   0  0  0  0  0  0  0  0  0  0  0  0
   44.6820   80.7740   53.4190 C   0  0  0  0  0  0  0  0  0  0  0  0
   44.3970   79.9480   52.7920 H   0  0  0  0  0  0  0  0  0  0  0  0
   43.8510   81.4780   54.2530 C   0  0  0  0  0  0  0  0  0  0  0  0
   42.5040   81.3890   54.5500 C   0  0  0  0  0  3  0  0  0  0  0  0
   41.8110   84.2470   61.5610 C   0  0  0  0  0  0  0  0  0  0  0  0
   41.4530   83.9470   62.8700 C   0  0  0  0  0  0  0  0  0  0  0  0
   40.1760   83.5360   63.2060 C   0  0  0  0  0  0  0  0  0  0  0  0
   39.2130   83.4160   62.2070 C   0  0  0  0  0  0  0  0  0  0  0  0
   39.5640   83.7150   60.8910 C   0  0  0  0  0  0  0  0  0  0  0  0
   40.8410   84.1240   60.5680 C   0  0  0  0  0  0  0  0  0  0  0  0
   42.2150   84.0440   63.6460 H   0  0  0  0  0  0  0  0  0  0  0  0
   39.9240   83.3090   64.2340 H   0  0  0  0  0  0  0  0  0  0  0  0
   38.2170   83.0980   62.4580 H   0  0  0  0  0  0  0  0  0  0  0  0
   38.8000   83.6150   60.1340 H   0  0  0  0  0  0  0  0  0  0  0  0
   45.3300   84.1350   60.6030 C   0  0  0  0  0  0  0  0  0  0  0  0
   45.7220   85.4700   60.7060 C   0  0  0  0  0  0  0  0  0  0  0  0
   44.7640   86.4210   61.1100 C   0  0  0  0  0  0  0  0  0  0  0  0
   43.5070   85.9830   61.3780 N   0  0  0  0  0  0  0  0  0  0  0  0
   43.1580   84.6700   61.2680 C   0  0  0  0  0  0  0  0  0  0  0  0
   44.0670   83.7930   60.8870 N   0  0  0  0  0  0  0  0  0  0  0  0
   46.0900   83.4510   60.2930 H   0  0  0  0  0  0  0  0  0  0  0  0
   46.7230   85.8190   60.4920 H   0  0  0  0  0  0  0  0  0  0  0  0
   44.9880   87.4910   61.2170 H   0  0  0  0  0  0  0  0  0  0  0  0
  1 26  1  0  0  0  0
  2  1  1  0  0  0  0
  2  7  1  0  0  0  0
  3  2  2  0  0  0  0
  4  5  2  0  0  0  0
  4  3  1  0  0  0  0
  5  6  1  0  0  0  0
  6  1  2  0  0  0  0
  8  3  1  0  0  0  0
  9 10  1  0  0  0  0
 10  5  1  0  0  0  0
 11 10  2  0  0  0  0
 11 12  1  0  0  0  0
 13 11  1  0  0  0  0
 14 15  1  0  0  0  0
 14 13  1  0  0  0  0
 16 14  1  0  0  0  0
 17 16  2  0  0  0  0
 17 19  1  0  0  0  0
 18 17  1  0  0  0  0
 19 20  1  0  0  0  0
 19 13  2  0  0  0  0
 20  9  2  0  0  0  0
 21 22  1  0  0  0  0
 22 23  2  0  0  0  0
 22 27  1  0  0  0  0
 23 28  1  0  0  0  0
 24 29  1  0  0  0  0
 24 23  1  0  0  0  0
 25 24  2  0  0  0  0
 26 25  1  0  0  0  0
 26 21  2  0  0  0  0
 30 25  1  0  0  0  0
 31 32  2  0  0  0  0
 31 36  1  0  0  0  0
 32 33  1  0  0  0  0
 33 39  1  0  0  0  0
 33 34  2  0  0  0  0
 35 34  1  0  0  0  0
 35 21  1  0  0  0  0
 36 35  2  0  0  0  0
 37 31  1  0  0  0  0
 38 32  1  0  0  0  0
M  END
>  <minimizedAffinity>
-5.51826572

>  <minimizedRMSD>
0.556159675

$$$$
