
 OpenBabel03212521053D

 39 43  0  0  0  0  0  0  0  0999 V2000
   41.1830   84.4080   59.1880 C   0  0  0  0  0  0  0  0  0  0  0  0
   40.7390   85.6710   58.7940 C   0  0  0  0  0  0  0  0  0  0  0  0
   40.9550   86.1380   57.5030 C   0  0  0  0  0  0  0  0  0  0  0  0
   41.6010   85.3300   56.6660 N   0  0  0  0  0  0  0  0  0  0  0  0
   42.0400   84.0960   57.0340 C   0  0  0  0  0  0  0  0  0  0  0  0
   41.8260   83.6490   58.2930 N   0  0  0  0  0  0  0  0  0  0  0  0
   40.2040   86.3770   59.4400 H   0  0  0  0  0  0  0  0  0  0  0  0
   40.6100   87.1270   57.1870 H   0  0  0  0  0  0  0  0  0  0  0  0
   44.1450   83.1600   56.2130 C   0  0  0  0  0  3  0  0  0  0  0  0
   42.7530   83.2130   56.1000 C   0  0  0  0  0  0  0  0  0  0  0  0
   42.0710   82.4690   55.1540 C   0  0  0  0  0  0  0  0  0  0  0  0
   40.9920   82.5180   55.0760 H   0  0  0  0  0  0  0  0  0  0  0  0
   42.7960   81.6560   54.3020 C   0  0  0  0  0  0  0  0  0  0  0  0
   42.4230   80.8290   53.2980 N   0  0  0  0  0  0  0  0  0  0  0  0
   41.4410   80.6660   52.9880 H   0  0  0  0  0  0  0  0  0  0  0  0
   43.4950   80.2630   52.7770 N   0  0  0  0  0  0  0  0  0  0  0  0
   44.6090   80.6820   53.4020 C   0  0  0  0  0  0  0  0  0  0  0  0
   45.6330   80.4100   53.2150 H   0  0  0  0  0  0  0  0  0  0  0  0
   44.1710   81.5580   54.3620 C   0  0  0  0  0  0  0  0  0  0  0  0
   44.8130   82.3180   55.3220 C   0  0  0  0  0  3  0  0  0  0  0  0
   41.8220   84.2450   61.5630 C   0  0  0  0  0  0  0  0  0  0  0  0
   41.4540   83.9480   62.8700 C   0  0  0  0  0  0  0  0  0  0  0  0
   40.1750   83.5350   63.1960 C   0  0  0  0  0  0  0  0  0  0  0  0
   39.2220   83.4090   62.1900 C   0  0  0  0  0  0  0  0  0  0  0  0
   39.5820   83.7030   60.8760 C   0  0  0  0  0  0  0  0  0  0  0  0
   40.8610   84.1150   60.5620 C   0  0  0  0  0  0  0  0  0  0  0  0
   42.2090   84.0510   63.6520 H   0  0  0  0  0  0  0  0  0  0  0  0
   39.9150   83.3100   64.2230 H   0  0  0  0  0  0  0  0  0  0  0  0
   38.2240   83.0880   62.4330 H   0  0  0  0  0  0  0  0  0  0  0  0
   38.8250   83.5980   60.1120 H   0  0  0  0  0  0  0  0  0  0  0  0
   45.3570   84.1370   60.6660 C   0  0  0  0  0  0  0  0  0  0  0  0
   45.7360   85.4770   60.7370 C   0  0  0  0  0  0  0  0  0  0  0  0
   44.7630   86.4310   61.0990 C   0  0  0  0  0  0  0  0  0  0  0  0
   43.5070   85.9900   61.3580 N   0  0  0  0  0  0  0  0  0  0  0  0
   43.1700   84.6710   61.2800 C   0  0  0  0  0  0  0  0  0  0  0  0
   44.0930   83.7920   60.9390 N   0  0  0  0  0  0  0  0  0  0  0  0
   46.1280   83.4510   60.3880 H   0  0  0  0  0  0  0  0  0  0  0  0
   46.7380   85.8290   60.5300 H   0  0  0  0  0  0  0  0  0  0  0  0
   44.9780   87.5050   61.1790 H   0  0  0  0  0  0  0  0  0  0  0  0
  1 26  1  0  0  0  0
  2  1  1  0  0  0  0
  2  7  1  0  0  0  0
  3  2  2  0  0  0  0
  4  5  2  0  0  0  0
  4  3  1  0  0  0  0
  5  6  1  0  0  0  0
  6  1  2  0  0  0  0
  8  3  1  0  0  0  0
 10  9  1  0  0  0  0
 10  5  1  0  0  0  0
 11 10  2  0  0  0  0
 12 11  1  0  0  0  0
 13 19  2  0  0  0  0
 13 11  1  0  0  0  0
 14 13  1  0  0  0  0
 15 14  1  0  0  0  0
 16 14  1  0  0  0  0
 16 17  2  0  0  0  0
 17 19  1  0  0  0  0
 18 17  1  0  0  0  0
 19 20  1  0  0  0  0
 20  9  2  0  0  0  0
 21 22  1  0  0  0  0
 22 23  2  0  0  0  0
 22 27  1  0  0  0  0
 23 28  1  0  0  0  0
 24 29  1  0  0  0  0
 24 23  1  0  0  0  0
 25 24  2  0  0  0  0
 26 25  1  0  0  0  0
 26 21  2  0  0  0  0
 30 25  1  0  0  0  0
 31 32  2  0  0  0  0
 31 36  1  0  0  0  0
 32 33  1  0  0  0  0
 33 39  1  0  0  0  0
 33 34  2  0  0  0  0
 35 34  1  0  0  0  0
 35 21  1  0  0  0  0
 36 35  2  0  0  0  0
 37 31  1  0  0  0  0
 38 32  1  0  0  0  0
M  END
>  <minimizedAffinity>
-5.5205245

>  <minimizedRMSD>
0.196914017

$$$$
