
 OpenBabel03212520263D

 31 34  0  0  0  0  0  0  0  0999 V2000
   42.3770   84.8680   60.8820 C   0  0  0  0  0  0  0  0  0  0  0  0
   43.4520   85.2740   61.6640 C   0  0  0  0  0  0  0  0  0  0  0  0
   44.0380   86.2480   60.8330 C   0  0  0  0  0  0  0  0  0  0  0  0
   43.3440   86.3810   59.6690 N   0  0  0  0  0  0  0  0  0  0  0  0
   42.3220   85.5240   59.7130 N   0  0  0  0  0  0  0  0  0  0  0  0
   43.7690   84.9580   62.6240 H   0  0  0  0  0  0  0  0  0  0  0  0
   44.9410   86.7940   61.1480 H   0  0  0  0  0  0  0  0  0  0  0  0
   40.8790   81.5880   61.8160 C   0  0  0  0  0  0  0  0  0  0  0  0
   41.8210   82.5320   61.4370 C   0  0  0  0  0  0  0  0  0  0  0  0
   41.4190   83.8520   61.2780 C   0  0  0  0  0  0  0  0  0  0  0  0
   40.1210   84.1630   61.4990 N   0  0  0  0  0  0  0  0  0  0  0  0
   39.2230   83.2060   61.8710 C   0  0  0  0  0  0  0  0  0  0  0  0
   39.6010   81.9380   62.0250 N   0  0  0  0  0  0  0  0  0  0  0  0
   41.2680   80.5830   61.9190 H   0  0  0  0  0  0  0  0  0  0  0  0
   42.8560   82.2650   61.2640 H   0  0  0  0  0  0  0  0  0  0  0  0
   38.1880   83.4500   62.0480 H   0  0  0  0  0  0  0  0  0  0  0  0
   43.6640   87.2840   58.5960 C   0  0  0  0  0  0  0  0  0  0  0  0
   42.8300   87.1920   57.8540 H   0  0  0  0  0  0  0  0  0  0  0  0
   43.6370   88.3510   58.9180 H   0  0  0  0  0  0  0  0  0  0  0  0
   45.0660   85.6870   57.3260 C   0  0  0  0  0  3  0  0  0  0  0  0
   44.9170   86.9190   57.9260 C   0  0  0  0  0  0  0  0  0  0  0  0
   46.0260   87.7660   57.8440 C   0  0  0  0  0  0  0  0  0  0  0  0
   45.9680   88.7470   58.2970 H   0  0  0  0  0  0  0  0  0  0  0  0
   47.1940   87.3830   57.2000 C   0  0  0  0  0  0  0  0  0  0  0  0
   48.3840   87.9460   56.9610 N   0  0  0  0  0  0  0  0  0  0  0  0
   48.6580   88.8940   57.2640 H   0  0  0  0  0  0  0  0  0  0  0  0
   49.1620   87.1070   56.2780 N   0  0  0  0  0  0  0  0  0  0  0  0
   48.5290   85.9570   56.0320 C   0  0  0  0  0  0  0  0  0  0  0  0
   48.9490   85.1200   55.4950 H   0  0  0  0  0  0  0  0  0  0  0  0
   47.2790   86.1220   56.6150 C   0  0  0  0  0  0  0  0  0  0  0  0
   46.1990   85.2410   56.6690 C   0  0  0  0  0  3  0  0  0  0  0  0
  1 10  1  0  0  0  0
  1  2  1  0  0  0  0
  2  6  1  0  0  0  0
  3  7  1  0  0  0  0
  3  2  2  0  0  0  0
  4  5  1  0  0  0  0
  4  3  1  0  0  0  0
  5  1  2  0  0  0  0
  8 14  1  0  0  0  0
  8 13  1  0  0  0  0
  9  8  2  0  0  0  0
 10  9  1  0  0  0  0
 10 11  2  0  0  0  0
 11 12  1  0  0  0  0
 12 13  2  0  0  0  0
 12 16  1  0  0  0  0
 15  9  1  0  0  0  0
 17 19  1  0  0  0  0
 17  4  1  0  0  0  0
 18 17  1  0  0  0  0
 20 21  1  0  0  0  0
 21 17  1  0  0  0  0
 22 21  2  0  0  0  0
 22 23  1  0  0  0  0
 24 22  1  0  0  0  0
 25 24  1  0  0  0  0
 25 26  1  0  0  0  0
 27 25  1  0  0  0  0
 28 27  2  0  0  0  0
 28 30  1  0  0  0  0
 29 28  1  0  0  0  0
 30 31  1  0  0  0  0
 30 24  2  0  0  0  0
 31 20  2  0  0  0  0
M  END
>  <minimizedAffinity>
-4.27493763

>  <minimizedRMSD>
0.755742192

$$$$
