
 OpenBabel03212521063D

 39 43  0  0  0  0  0  0  0  0999 V2000
   41.1460   84.4600   59.2010 C   0  0  0  0  0  0  0  0  0  0  0  0
   40.6750   85.7230   58.8410 C   0  0  0  0  0  0  0  0  0  0  0  0
   40.8640   86.2230   57.5590 C   0  0  0  0  0  0  0  0  0  0  0  0
   41.5130   85.4460   56.6950 N   0  0  0  0  0  0  0  0  0  0  0  0
   41.9790   84.2120   57.0290 C   0  0  0  0  0  0  0  0  0  0  0  0
   41.7900   83.7330   58.2800 N   0  0  0  0  0  0  0  0  0  0  0  0
   40.1370   86.4050   59.5100 H   0  0  0  0  0  0  0  0  0  0  0  0
   40.4980   87.2130   57.2700 H   0  0  0  0  0  0  0  0  0  0  0  0
   42.6280   83.7370   54.7200 C   0  0  0  0  0  3  0  0  0  0  0  0
   42.6930   83.3630   56.0650 C   0  0  0  0  0  0  0  0  0  0  0  0
   43.3970   82.2460   56.4760 C   0  0  0  0  0  0  0  0  0  0  0  0
   43.4400   81.9660   57.5220 H   0  0  0  0  0  0  0  0  0  0  0  0
   44.0490   81.4860   55.5230 C   0  0  0  0  0  0  0  0  0  0  0  0
   44.8010   80.3640   55.6130 N   0  0  0  0  0  0  0  0  0  0  0  0
   45.0200   79.8590   56.4980 H   0  0  0  0  0  0  0  0  0  0  0  0
   45.2090   80.0130   54.4080 N   0  0  0  0  0  0  0  0  0  0  0  0
   44.7540   80.8730   53.4800 C   0  0  0  0  0  0  0  0  0  0  0  0
   44.9090   80.8640   52.4160 H   0  0  0  0  0  0  0  0  0  0  0  0
   44.0240   81.7990   54.1800 C   0  0  0  0  0  0  0  0  0  0  0  0
   43.3090   82.9240   53.8120 C   0  0  0  0  0  3  0  0  0  0  0  0
   41.8260   84.2350   61.5590 C   0  0  0  0  0  0  0  0  0  0  0  0
   41.4810   83.9040   62.8640 C   0  0  0  0  0  0  0  0  0  0  0  0
   40.2080   83.4800   63.2010 C   0  0  0  0  0  0  0  0  0  0  0  0
   39.2380   83.3780   62.2080 C   0  0  0  0  0  0  0  0  0  0  0  0
   39.5750   83.7080   60.8970 C   0  0  0  0  0  0  0  0  0  0  0  0
   40.8480   84.1300   60.5720 C   0  0  0  0  0  0  0  0  0  0  0  0
   42.2490   83.9870   63.6350 H   0  0  0  0  0  0  0  0  0  0  0  0
   39.9660   83.2280   64.2260 H   0  0  0  0  0  0  0  0  0  0  0  0
   38.2450   83.0490   62.4610 H   0  0  0  0  0  0  0  0  0  0  0  0
   38.8060   83.6220   60.1440 H   0  0  0  0  0  0  0  0  0  0  0  0
   45.3450   84.1570   60.5990 C   0  0  0  0  0  0  0  0  0  0  0  0
   45.7230   85.4960   60.6990 C   0  0  0  0  0  0  0  0  0  0  0  0
   44.7560   86.4390   61.1010 C   0  0  0  0  0  0  0  0  0  0  0  0
   43.5040   85.9880   61.3710 N   0  0  0  0  0  0  0  0  0  0  0  0
   43.1690   84.6710   61.2640 C   0  0  0  0  0  0  0  0  0  0  0  0
   44.0860   83.8030   60.8850 N   0  0  0  0  0  0  0  0  0  0  0  0
   46.1120   83.4800   60.2920 H   0  0  0  0  0  0  0  0  0  0  0  0
   46.7210   85.8550   60.4840 H   0  0  0  0  0  0  0  0  0  0  0  0
   44.9700   87.5110   61.2050 H   0  0  0  0  0  0  0  0  0  0  0  0
  1 26  1  0  0  0  0
  2  1  1  0  0  0  0
  2  7  1  0  0  0  0
  3  2  2  0  0  0  0
  4  5  2  0  0  0  0
  4  3  1  0  0  0  0
  5  6  1  0  0  0  0
  6  1  2  0  0  0  0
  8  3  1  0  0  0  0
  9 10  1  0  0  0  0
 10 11  2  0  0  0  0
 10  5  1  0  0  0  0
 11 12  1  0  0  0  0
 13 14  1  0  0  0  0
 13 11  1  0  0  0  0
 14 15  1  0  0  0  0
 16 14  1  0  0  0  0
 17 19  1  0  0  0  0
 17 16  2  0  0  0  0
 18 17  1  0  0  0  0
 19 13  2  0  0  0  0
 20 19  1  0  0  0  0
 20  9  2  0  0  0  0
 21 22  1  0  0  0  0
 22 23  2  0  0  0  0
 22 27  1  0  0  0  0
 23 28  1  0  0  0  0
 24 29  1  0  0  0  0
 24 23  1  0  0  0  0
 25 24  2  0  0  0  0
 26 25  1  0  0  0  0
 26 21  2  0  0  0  0
 30 25  1  0  0  0  0
 31 32  2  0  0  0  0
 31 36  1  0  0  0  0
 32 33  1  0  0  0  0
 33 39  1  0  0  0  0
 33 34  2  0  0  0  0
 35 34  1  0  0  0  0
 35 21  1  0  0  0  0
 36 35  2  0  0  0  0
 37 31  1  0  0  0  0
 38 32  1  0  0  0  0
M  END
>  <minimizedAffinity>
-5.46460962

>  <minimizedRMSD>
0.374385148

$$$$
