
 OpenBabel03212520043D

 44 49  0  0  0  0  0  0  0  0999 V2000
   40.7240   81.7580   57.1190 C   0  0  0  0  0  0  0  0  0  0  0  0
   41.8010   82.3340   56.4280 C   0  0  0  0  0  0  0  0  0  0  0  0
   42.5850   83.2480   57.1150 C   0  0  0  0  0  0  0  0  0  0  0  0
   42.3000   83.5490   58.4020 N   0  0  0  0  0  0  0  0  0  0  0  0
   41.2490   82.9710   59.0440 C   0  0  0  0  0  0  0  0  0  0  0  0
   40.4540   82.0710   58.4030 N   0  0  0  0  0  0  0  0  0  0  0  0
   40.0280   81.0380   56.7200 H   0  0  0  0  0  0  0  0  0  0  0  0
   41.8480   81.9160   55.4530 H   0  0  0  0  0  0  0  0  0  0  0  0
   39.6790   83.0910   60.9160 C   0  0  0  0  0  0  0  0  0  0  0  0
   40.9810   83.2780   60.4410 C   0  0  0  0  0  0  0  0  0  0  0  0
   42.0010   83.7300   61.2800 C   0  0  0  0  0  0  0  0  0  0  0  0
   41.7580   84.0110   62.6130 C   0  0  0  0  0  0  0  0  0  0  0  0
   42.4610   84.4450   63.6720 N   0  0  0  0  0  0  0  0  0  0  0  0
   41.6790   84.5360   64.7590 C   0  0  0  0  0  0  0  0  0  0  0  0
   40.4670   84.1440   64.3380 N   0  0  0  0  0  0  0  0  0  0  0  0
   40.4750   83.8150   63.0340 C   0  0  0  0  0  0  0  0  0  0  0  0
   39.4290   83.3730   62.2630 C   0  0  0  0  0  0  0  0  0  0  0  0
   38.8700   82.7410   60.2890 H   0  0  0  0  0  0  0  0  0  0  0  0
   43.0120   83.8740   60.9060 H   0  0  0  0  0  0  0  0  0  0  0  0
   43.4880   84.6660   63.5910 H   0  0  0  0  0  0  0  0  0  0  0  0
   41.9980   84.8610   65.7470 H   0  0  0  0  0  0  0  0  0  0  0  0
   38.4470   83.2490   62.6820 H   0  0  0  0  0  0  0  0  0  0  0  0
   42.3400   83.6230   54.1640 Cl  0  0  0  0  0  0  0  0  0  0  0  0
   43.7440   84.1080   55.1060 C   0  0  0  0  0  0  0  0  0  0  0  0
   43.7030   83.8850   56.4570 C   0  0  0  0  0  0  0  0  0  0  0  0
   44.8400   84.3260   57.1330 C   0  0  0  0  0  0  0  0  0  0  0  0
   45.9170   84.9300   56.5310 C   0  0  0  0  0  0  0  0  0  0  0  0
   45.8830   85.1220   55.1500 C   0  0  0  0  0  0  0  0  0  0  0  0
   47.2260   85.8850   54.3290 Cl  0  0  0  0  0  0  0  0  0  0  0  0
   44.7800   84.7020   54.4350 C   0  0  0  0  0  0  0  0  0  0  0  0
   44.9030   84.1960   58.2000 H   0  0  0  0  0  0  0  0  0  0  0  0
   46.7670   85.2480   57.1180 H   0  0  0  0  0  0  0  0  0  0  0  0
   45.3130   83.8250   52.2980 C   0  0  0  0  0  0  0  0  0  0  0  0
   44.7850   84.9210   52.9900 C   0  0  0  0  0  0  0  0  0  0  0  0
   44.3550   86.0160   52.2670 C   0  0  0  0  0  0  0  0  0  0  0  0
   43.9700   86.7930   52.8790 H   0  0  0  0  0  0  0  0  0  0  0  0
   44.4670   85.9800   50.8930 C   0  0  0  0  0  0  0  0  0  0  0  0
   44.1150   86.9220   50.0050 N   0  0  0  0  0  0  0  0  0  0  0  0
   43.6940   87.8490   50.2090 H   0  0  0  0  0  0  0  0  0  0  0  0
   44.4010   86.4640   48.7970 N   0  0  0  0  0  0  0  0  0  0  0  0
   44.9360   85.2350   48.8600 C   0  0  0  0  0  0  0  0  0  0  0  0
   45.2950   84.5360   48.1180 H   0  0  0  0  0  0  0  0  0  0  0  0
   44.9870   84.9050   50.2030 C   0  0  0  0  0  0  0  0  0  0  0  0
   45.4120   83.8200   50.9350 C   0  0  0  0  0  0  0  0  0  0  0  0
  1  6  1  0  0  0  0
  2  3  1  0  0  0  0
  2  1  2  0  0  0  0
  3  4  2  0  0  0  0
  4  5  1  0  0  0  0
  5 10  1  0  0  0  0
  6  5  2  0  0  0  0
  7  1  1  0  0  0  0
  8  2  1  0  0  0  0
  9 17  1  0  0  0  0
 10  9  2  0  0  0  0
 10 11  1  0  0  0  0
 11 12  2  0  0  0  0
 12 16  1  0  0  0  0
 12 13  1  0  0  0  0
 13 14  1  0  0  0  0
 14 21  1  0  0  0  0
 15 14  2  0  0  0  0
 16 15  1  0  0  0  0
 17 22  1  0  0  0  0
 17 16  2  0  0  0  0
 18  9  1  0  0  0  0
 19 11  1  0  0  0  0
 20 13  1  0  0  0  0
 23 24  1  0  0  0  0
 24 25  1  0  0  0  0
 25  3  1  0  0  0  0
 25 26  2  0  0  0  0
 26 31  1  0  0  0  0
 27 32  1  0  0  0  0
 27 26  1  0  0  0  0
 28 27  2  0  0  0  0
 29 28  1  0  0  0  0
 30 24  2  0  0  0  0
 30 28  1  0  0  0  0
 33 34  1  0  0  0  0
 34 30  1  0  0  0  0
 35 36  1  0  0  0  0
 35 34  2  0  0  0  0
 37 35  1  0  0  0  0
 38 39  1  0  0  0  0
 38 37  1  0  0  0  0
 40 41  2  0  0  0  0
 40 38  1  0  0  0  0
 41 43  1  0  0  0  0
 42 41  1  0  0  0  0
 43 37  2  0  0  0  0
 43 44  1  0  0  0  0
 44 33  2  0  0  0  0
M  END
>  <minimizedAffinity>
-5.1649332

>  <minimizedRMSD>
0.284972459

$$$$
