
 OpenBabel03212520263D

 31 34  0  0  0  0  0  0  0  0999 V2000
   42.6220   84.7410   61.2100 C   0  0  0  0  0  0  0  0  0  0  0  0
   43.8100   84.7960   61.9300 C   0  0  0  0  0  0  0  0  0  0  0  0
   44.4680   85.8610   61.2850 C   0  0  0  0  0  0  0  0  0  0  0  0
   43.7080   86.3670   60.2760 N   0  0  0  0  0  0  0  0  0  0  0  0
   42.5720   85.6680   60.2410 N   0  0  0  0  0  0  0  0  0  0  0  0
   44.1540   84.2130   62.7450 H   0  0  0  0  0  0  0  0  0  0  0  0
   45.4690   86.1880   61.6080 H   0  0  0  0  0  0  0  0  0  0  0  0
   40.7840   81.5590   61.8170 C   0  0  0  0  0  0  0  0  0  0  0  0
   41.8290   82.4350   61.5680 C   0  0  0  0  0  0  0  0  0  0  0  0
   41.5550   83.7940   61.4700 C   0  0  0  0  0  0  0  0  0  0  0  0
   40.2740   84.2070   61.6210 N   0  0  0  0  0  0  0  0  0  0  0  0
   39.2730   83.3140   61.8660 C   0  0  0  0  0  0  0  0  0  0  0  0
   39.5280   82.0100   61.9610 N   0  0  0  0  0  0  0  0  0  0  0  0
   41.0770   80.5190   61.8790 H   0  0  0  0  0  0  0  0  0  0  0  0
   42.8470   82.0880   61.4490 H   0  0  0  0  0  0  0  0  0  0  0  0
   38.2520   83.6380   61.9870 H   0  0  0  0  0  0  0  0  0  0  0  0
   44.0730   87.4580   59.4130 C   0  0  0  0  0  0  0  0  0  0  0  0
   43.1120   87.9410   59.0990 H   0  0  0  0  0  0  0  0  0  0  0  0
   44.6260   88.2600   59.9530 H   0  0  0  0  0  0  0  0  0  0  0  0
   45.6410   87.8210   57.5310 C   0  0  0  0  0  0  0  0  0  0  0  0
   44.7690   86.9950   58.2070 C   0  0  0  0  0  0  0  0  0  0  0  0
   44.6080   85.7170   57.6640 C   0  0  0  0  0  0  0  0  0  0  0  0
   43.9360   85.0230   58.1520 H   0  0  0  0  0  0  0  0  0  0  0  0
   45.2850   85.3170   56.5200 C   0  0  0  0  0  0  0  0  0  0  0  0
   45.3410   84.2010   55.7830 N   0  0  0  0  0  0  0  0  0  0  0  0
   44.8100   83.3370   55.9800 H   0  0  0  0  0  0  0  0  0  0  0  0
   46.1790   84.3670   54.7600 N   0  0  0  0  0  0  0  0  0  0  0  0
   46.7130   85.5900   54.7700 C   0  0  0  0  0  0  0  0  0  0  0  0
   47.4200   85.9670   54.0460 H   0  0  0  0  0  0  0  0  0  0  0  0
   46.1510   86.2010   55.8850 C   0  0  0  0  0  0  0  0  0  0  0  0
   46.3460   87.4870   56.3880 C   0  0  0  0  0  0  0  0  0  0  0  0
  1 10  1  0  0  0  0
  1  2  1  0  0  0  0
  2  6  1  0  0  0  0
  3  7  1  0  0  0  0
  3  2  2  0  0  0  0
  4  3  1  0  0  0  0
  5  4  1  0  0  0  0
  5  1  2  0  0  0  0
  8 14  1  0  0  0  0
  8 13  1  0  0  0  0
  9  8  2  0  0  0  0
 10  9  1  0  0  0  0
 10 11  2  0  0  0  0
 11 12  1  0  0  0  0
 12 13  2  0  0  0  0
 12 16  1  0  0  0  0
 15  9  1  0  0  0  0
 17 19  1  0  0  0  0
 17  4  1  0  0  0  0
 18 17  1  0  0  0  0
 20 21  1  0  0  0  0
 21 17  1  0  0  0  0
 22 23  1  0  0  0  0
 22 21  2  0  0  0  0
 24 22  1  0  0  0  0
 25 26  1  0  0  0  0
 25 24  1  0  0  0  0
 27 28  2  0  0  0  0
 27 25  1  0  0  0  0
 28 30  1  0  0  0  0
 29 28  1  0  0  0  0
 30 31  1  0  0  0  0
 30 24  2  0  0  0  0
 31 20  2  0  0  0  0
M  END
>  <minimizedAffinity>
-4.39846087

>  <minimizedRMSD>
0.972371578

$$$$
