
 OpenBabel03212521063D

 39 43  0  0  0  0  0  0  0  0999 V2000
   41.1270   84.4000   59.1860 C   0  0  0  0  0  0  0  0  0  0  0  0
   40.9180   85.7460   58.8790 C   0  0  0  0  0  0  0  0  0  0  0  0
   41.1550   86.2370   57.6020 C   0  0  0  0  0  0  0  0  0  0  0  0
   41.5890   85.3710   56.6890 N   0  0  0  0  0  0  0  0  0  0  0  0
   41.7980   84.0570   56.9720 C   0  0  0  0  0  0  0  0  0  0  0  0
   41.5640   83.5860   58.2190 N   0  0  0  0  0  0  0  0  0  0  0  0
   40.5630   86.5030   59.5890 H   0  0  0  0  0  0  0  0  0  0  0  0
   40.9940   87.2900   57.3540 H   0  0  0  0  0  0  0  0  0  0  0  0
   41.5450   81.9290   55.7950 C   0  0  0  0  0  3  0  0  0  0  0  0
   42.2780   83.1090   55.9550 C   0  0  0  0  0  0  0  0  0  0  0  0
   43.4010   83.3780   55.1970 C   0  0  0  0  0  0  0  0  0  0  0  0
   43.9600   84.2950   55.3310 H   0  0  0  0  0  0  0  0  0  0  0  0
   43.8040   82.4480   54.2550 C   0  0  0  0  0  0  0  0  0  0  0  0
   44.8370   82.4250   53.3820 N   0  0  0  0  0  0  0  0  0  0  0  0
   45.5520   83.1770   53.2800 H   0  0  0  0  0  0  0  0  0  0  0  0
   44.7970   81.3050   52.6860 N   0  0  0  0  0  0  0  0  0  0  0  0
   43.7530   80.5460   53.0590 C   0  0  0  0  0  0  0  0  0  0  0  0
   43.4470   79.5850   52.6850 H   0  0  0  0  0  0  0  0  0  0  0  0
   43.1260   81.2630   54.0460 C   0  0  0  0  0  0  0  0  0  0  0  0
   42.0090   81.0340   54.8260 C   0  0  0  0  0  3  0  0  0  0  0  0
   41.8140   84.1550   61.5400 C   0  0  0  0  0  0  0  0  0  0  0  0
   41.4620   83.8500   62.8500 C   0  0  0  0  0  0  0  0  0  0  0  0
   40.1710   83.4950   63.2000 C   0  0  0  0  0  0  0  0  0  0  0  0
   39.1890   83.4390   62.2150 C   0  0  0  0  0  0  0  0  0  0  0  0
   39.5330   83.7420   60.8990 C   0  0  0  0  0  0  0  0  0  0  0  0
   40.8240   84.0950   60.5620 C   0  0  0  0  0  0  0  0  0  0  0  0
   42.2400   83.8970   63.6140 H   0  0  0  0  0  0  0  0  0  0  0  0
   39.9250   83.2620   64.2280 H   0  0  0  0  0  0  0  0  0  0  0  0
   38.1820   83.1640   62.4770 H   0  0  0  0  0  0  0  0  0  0  0  0
   38.7530   83.6930   60.1520 H   0  0  0  0  0  0  0  0  0  0  0  0
   45.2920   83.9030   60.4690 C   0  0  0  0  0  0  0  0  0  0  0  0
   45.7640   85.2040   60.6410 C   0  0  0  0  0  0  0  0  0  0  0  0
   44.8750   86.1820   61.1310 C   0  0  0  0  0  0  0  0  0  0  0  0
   43.6030   85.7990   61.4100 N   0  0  0  0  0  0  0  0  0  0  0  0
   43.1750   84.5180   61.2320 C   0  0  0  0  0  0  0  0  0  0  0  0
   44.0200   83.6160   60.7710 N   0  0  0  0  0  0  0  0  0  0  0  0
   46.0020   83.1970   60.0960 H   0  0  0  0  0  0  0  0  0  0  0  0
   46.7780   85.5080   60.4180 H   0  0  0  0  0  0  0  0  0  0  0  0
   45.1650   87.2280   61.2960 H   0  0  0  0  0  0  0  0  0  0  0  0
  1 26  1  0  0  0  0
  2  1  1  0  0  0  0
  2  7  1  0  0  0  0
  3  2  2  0  0  0  0
  4  5  2  0  0  0  0
  4  3  1  0  0  0  0
  5  6  1  0  0  0  0
  6  1  2  0  0  0  0
  8  3  1  0  0  0  0
  9 10  1  0  0  0  0
 10  5  1  0  0  0  0
 11 12  1  0  0  0  0
 11 10  2  0  0  0  0
 13 11  1  0  0  0  0
 14 13  1  0  0  0  0
 15 14  1  0  0  0  0
 16 17  2  0  0  0  0
 16 14  1  0  0  0  0
 17 19  1  0  0  0  0
 18 17  1  0  0  0  0
 19 13  2  0  0  0  0
 19 20  1  0  0  0  0
 20  9  2  0  0  0  0
 21 22  1  0  0  0  0
 22 23  2  0  0  0  0
 22 27  1  0  0  0  0
 23 28  1  0  0  0  0
 24 29  1  0  0  0  0
 24 23  1  0  0  0  0
 25 24  2  0  0  0  0
 26 25  1  0  0  0  0
 26 21  2  0  0  0  0
 30 25  1  0  0  0  0
 31 32  2  0  0  0  0
 31 36  1  0  0  0  0
 32 33  1  0  0  0  0
 33 39  1  0  0  0  0
 33 34  2  0  0  0  0
 35 34  1  0  0  0  0
 35 21  1  0  0  0  0
 36 35  2  0  0  0  0
 37 31  1  0  0  0  0
 38 32  1  0  0  0  0
M  END
>  <minimizedAffinity>
-5.57685757

>  <minimizedRMSD>
0.681949079

$$$$
