
 OpenBabel03212520203D

 39 42  0  0  0  0  0  0  0  0999 V2000
   45.7380   86.2430   58.7560 Cl  0  0  0  0  0  0  0  0  0  0  0  0
   44.2590   85.4930   58.1840 C   0  0  0  0  0  0  0  0  0  0  0  0
   44.1700   84.8240   56.9610 C   0  0  0  0  0  0  0  0  0  0  0  0
   42.9410   84.2890   56.6540 C   0  0  0  0  0  0  0  0  0  0  0  0
   41.8040   84.3500   57.4250 C   0  0  0  0  0  0  0  0  0  0  0  0
   41.9250   85.0080   58.6090 C   0  0  0  0  0  0  0  0  0  0  0  0
   40.5540   85.1630   59.6960 Cl  0  0  0  0  0  0  0  0  0  0  0  0
   43.1440   85.5780   58.9880 C   0  0  0  0  0  0  0  0  0  0  0  0
   42.9060   83.7760   55.6970 H   0  0  0  0  0  0  0  0  0  0  0  0
   40.8710   83.9060   57.1200 H   0  0  0  0  0  0  0  0  0  0  0  0
   45.8120   85.6960   55.2220 C   0  0  0  0  0  0  0  0  0  0  0  0
   45.3310   84.7450   56.1410 C   0  0  0  0  0  0  0  0  0  0  0  0
   46.0730   83.5710   56.2800 C   0  0  0  0  0  0  0  0  0  0  0  0
   47.1960   83.4590   55.5090 N   0  0  0  0  0  0  0  0  0  0  0  0
   47.6200   84.3750   54.6520 C   0  0  0  0  0  0  0  0  0  0  0  0
   46.9120   85.5310   54.5000 N   0  0  0  0  0  0  0  0  0  0  0  0
   45.2000   86.5850   55.1560 H   0  0  0  0  0  0  0  0  0  0  0  0
   45.7920   82.7740   56.9600 H   0  0  0  0  0  0  0  0  0  0  0  0
   48.8680   84.0410   53.9180 C   0  0  0  0  0  0  0  0  0  0  0  0
   49.3820   85.1020   53.2410 F   0  0  0  0  0  0  0  0  0  0  0  0
   49.8280   83.5680   54.8110 F   0  0  0  0  0  0  0  0  0  0  0  0
   48.6170   83.0520   52.9420 F   0  0  0  0  0  0  0  0  0  0  0  0
   43.2170   86.2390   60.2060 O   0  0  0  0  0  0  0  0  0  0  0  0
   44.0320   85.8020   61.2760 C   0  0  0  0  0  0  0  0  0  0  0  0
   44.6690   86.6070   61.6710 H   0  0  0  0  0  0  0  0  0  0  0  0
   44.6590   84.9630   60.9260 H   0  0  0  0  0  0  0  0  0  0  0  0
   43.1430   85.2920   62.2560 O   0  0  0  0  0  0  0  0  0  0  0  0
   41.4420   83.9300   62.9420 C   0  0  0  0  0  3  0  0  0  0  0  0
   42.6240   84.0130   62.2350 C   0  0  0  0  0  0  0  0  0  0  0  0
   43.1800   82.9320   61.6040 C   0  0  0  0  0  0  0  0  0  0  0  0
   44.0980   83.0940   61.0810 H   0  0  0  0  0  0  0  0  0  0  0  0
   42.4940   81.7480   61.7130 C   0  0  0  0  0  0  0  0  0  0  0  0
   42.8250   80.5390   61.1860 N   0  0  0  0  0  0  0  0  0  0  0  0
   43.6450   80.2700   60.6090 H   0  0  0  0  0  0  0  0  0  0  0  0
   41.8980   79.6860   61.5320 N   0  0  0  0  0  0  0  0  0  0  0  0
   40.9530   80.2890   62.2760 C   0  0  0  0  0  0  0  0  0  0  0  0
   40.0620   79.8400   62.7060 H   0  0  0  0  0  0  0  0  0  0  0  0
   41.3060   81.6210   62.4120 C   0  0  0  0  0  0  0  0  0  0  0  0
   40.7500   82.7230   63.0490 C   0  0  0  0  0  3  0  0  0  0  0  0
  2  1  1  0  0  0  0
  2  8  1  0  0  0  0
  3  2  2  0  0  0  0
  4  3  1  0  0  0  0
  4  5  2  0  0  0  0
  5  6  1  0  0  0  0
  6  8  2  0  0  0  0
  6  7  1  0  0  0  0
  8 23  1  0  0  0  0
  9  4  1  0  0  0  0
 10  5  1  0  0  0  0
 11 12  1  0  0  0  0
 12 13  2  0  0  0  0
 12  3  1  0  0  0  0
 13 18  1  0  0  0  0
 14 13  1  0  0  0  0
 15 14  2  0  0  0  0
 16 15  1  0  0  0  0
 16 11  2  0  0  0  0
 17 11  1  0  0  0  0
 19 15  1  0  0  0  0
 19 21  1  0  0  0  0
 20 19  1  0  0  0  0
 22 19  1  0  0  0  0
 23 24  1  0  0  0  0
 24 25  1  0  0  0  0
 24 27  1  0  0  0  0
 26 24  1  0  0  0  0
 28 39  1  0  0  0  0
 29 27  1  0  0  0  0
 29 28  2  0  0  0  0
 30 32  2  0  0  0  0
 30 29  1  0  0  0  0
 31 30  1  0  0  0  0
 32 38  1  0  0  0  0
 33 35  1  0  0  0  0
 33 32  1  0  0  0  0
 34 33  1  0  0  0  0
 35 36  2  0  0  0  0
 36 38  1  0  0  0  0
 36 37  1  0  0  0  0
 38 39  2  0  0  0  0
M  END
>  <minimizedAffinity>
-4.13923073

>  <minimizedRMSD>
9.29360771

$$$$
