
 OpenBabel03212520153D

 35 38  0  0  0  0  0  0  0  0999 V2000
   42.1170   84.1540   58.3740 Cl  0  0  0  0  0  0  0  0  0  0  0  0
   41.2260   82.6560   58.2050 C   0  0  0  0  0  0  0  0  0  0  0  0
   40.7050   81.9670   59.2890 C   0  0  0  0  0  0  0  0  0  0  0  0
   40.0240   80.7960   58.9830 C   0  0  0  0  0  0  0  0  0  0  0  0
   39.8230   80.2680   57.7300 C   0  0  0  0  0  0  0  0  0  0  0  0
   40.3560   80.9830   56.6860 C   0  0  0  0  0  0  0  0  0  0  0  0
   40.1660   80.4110   55.0370 Cl  0  0  0  0  0  0  0  0  0  0  0  0
   41.0500   82.1690   56.9330 C   0  0  0  0  0  0  0  0  0  0  0  0
   39.6240   80.2700   59.8510 H   0  0  0  0  0  0  0  0  0  0  0  0
   39.2780   79.3470   57.6010 H   0  0  0  0  0  0  0  0  0  0  0  0
   41.9640   82.2250   61.4780 C   0  0  0  0  0  0  0  0  0  0  0  0
   40.8950   82.4850   60.6000 C   0  0  0  0  0  0  0  0  0  0  0  0
   39.8920   83.3450   61.0430 C   0  0  0  0  0  0  0  0  0  0  0  0
   40.0180   83.8720   62.2900 N   0  0  0  0  0  0  0  0  0  0  0  0
   41.0530   83.6040   63.1060 C   0  0  0  0  0  0  0  0  0  0  0  0
   42.0290   82.7760   62.6950 N   0  0  0  0  0  0  0  0  0  0  0  0
   42.7180   81.5450   61.0800 H   0  0  0  0  0  0  0  0  0  0  0  0
   39.0150   83.6370   60.4820 H   0  0  0  0  0  0  0  0  0  0  0  0
   41.0310   84.2670   64.4340 C   0  0  0  0  0  0  0  0  0  0  0  0
   40.7280   85.6190   64.3240 F   0  0  0  0  0  0  0  0  0  0  0  0
   40.0780   83.6740   65.2480 F   0  0  0  0  0  0  0  0  0  0  0  0
   42.2820   84.2340   65.0400 F   0  0  0  0  0  0  0  0  0  0  0  0
   41.5630   82.8420   55.8320 O   0  0  0  0  0  0  0  0  0  0  0  0
   43.6850   84.0090   55.2260 C   0  0  0  0  0  3  0  0  0  0  0  0
   42.9200   82.9300   55.5600 C   0  0  0  0  0  0  0  0  0  0  0  0
   43.5130   81.6670   55.6690 C   0  0  0  0  0  0  0  0  0  0  0  0
   43.0130   80.7250   55.9290 H   0  0  0  0  0  0  0  0  0  0  0  0
   44.8730   81.4800   55.4440 C   0  0  0  0  0  0  0  0  0  0  0  0
   45.7220   80.4370   55.4660 N   0  0  0  0  0  0  0  0  0  0  0  0
   45.4330   79.4580   55.6930 H   0  0  0  0  0  0  0  0  0  0  0  0
   46.9510   80.8440   55.1620 N   0  0  0  0  0  0  0  0  0  0  0  0
   46.9420   82.1820   54.9300 C   0  0  0  0  0  0  0  0  0  0  0  0
   47.7990   82.7820   54.6630 H   0  0  0  0  0  0  0  0  0  0  0  0
   45.6270   82.5860   55.1080 C   0  0  0  0  0  0  0  0  0  0  0  0
   45.0470   83.8270   55.0000 C   0  0  0  0  0  3  0  0  0  0  0  0
  2  1  1  0  0  0  0
  2  3  1  0  0  0  0
  3 12  1  0  0  0  0
  4  3  2  0  0  0  0
  4  9  1  0  0  0  0
  5  4  1  0  0  0  0
  6  8  1  0  0  0  0
  6  5  2  0  0  0  0
  7  6  1  0  0  0  0
  8  2  2  0  0  0  0
 10  5  1  0  0  0  0
 11 16  1  0  0  0  0
 12 13  1  0  0  0  0
 12 11  2  0  0  0  0
 13 14  2  0  0  0  0
 14 15  1  0  0  0  0
 15 19  1  0  0  0  0
 16 15  2  0  0  0  0
 17 11  1  0  0  0  0
 18 13  1  0  0  0  0
 19 22  1  0  0  0  0
 19 21  1  0  0  0  0
 20 19  1  0  0  0  0
 23  8  1  0  0  0  0
 24 25  1  0  0  0  0
 25 26  2  0  0  0  0
 25 23  1  0  0  0  0
 26 27  1  0  0  0  0
 28 29  1  0  0  0  0
 28 26  1  0  0  0  0
 29 30  1  0  0  0  0
 31 29  1  0  0  0  0
 32 34  1  0  0  0  0
 32 31  2  0  0  0  0
 33 32  1  0  0  0  0
 34 28  2  0  0  0  0
 35 34  1  0  0  0  0
 35 24  2  0  0  0  0
M  END
>  <minimizedAffinity>
-5.08261347

>  <minimizedRMSD>
0.836527586

$$$$
