
 OpenBabel03212520263D

 31 34  0  0  0  0  0  0  0  0999 V2000
   42.4310   84.8060   61.2750 C   0  0  0  0  0  0  0  0  0  0  0  0
   43.2660   85.2870   62.2760 C   0  0  0  0  0  0  0  0  0  0  0  0
   44.0830   86.1720   61.5460 C   0  0  0  0  0  0  0  0  0  0  0  0
   43.7350   86.1870   60.2300 N   0  0  0  0  0  0  0  0  0  0  0  0
   42.7140   85.3410   60.0760 N   0  0  0  0  0  0  0  0  0  0  0  0
   43.3020   85.0690   63.3120 H   0  0  0  0  0  0  0  0  0  0  0  0
   44.8830   86.7450   62.0410 H   0  0  0  0  0  0  0  0  0  0  0  0
   40.6160   81.5800   61.6820 C   0  0  0  0  0  0  0  0  0  0  0  0
   41.6520   82.4770   61.4720 C   0  0  0  0  0  0  0  0  0  0  0  0
   41.3730   83.8370   61.4910 C   0  0  0  0  0  0  0  0  0  0  0  0
   40.0980   84.2320   61.7140 N   0  0  0  0  0  0  0  0  0  0  0  0
   39.1050   83.3190   61.9180 C   0  0  0  0  0  0  0  0  0  0  0  0
   39.3650   82.0130   61.9000 N   0  0  0  0  0  0  0  0  0  0  0  0
   40.9110   80.5380   61.6520 H   0  0  0  0  0  0  0  0  0  0  0  0
   42.6660   82.1430   61.2940 H   0  0  0  0  0  0  0  0  0  0  0  0
   38.0880   83.6290   62.0960 H   0  0  0  0  0  0  0  0  0  0  0  0
   44.3590   86.9760   59.2030 C   0  0  0  0  0  0  0  0  0  0  0  0
   43.5490   87.2320   58.4720 H   0  0  0  0  0  0  0  0  0  0  0  0
   44.7140   87.9620   59.5820 H   0  0  0  0  0  0  0  0  0  0  0  0
   45.2860   85.9620   57.1420 C   0  0  0  0  0  3  0  0  0  0  0  0
   45.4000   86.2270   58.4910 C   0  0  0  0  0  0  0  0  0  0  0  0
   46.5560   85.7350   59.1050 C   0  0  0  0  0  0  0  0  0  0  0  0
   46.7010   85.9110   60.1620 H   0  0  0  0  0  0  0  0  0  0  0  0
   47.5170   85.0300   58.3960 C   0  0  0  0  0  0  0  0  0  0  0  0
   48.6880   84.4510   58.6860 N   0  0  0  0  0  0  0  0  0  0  0  0
   49.1220   84.4380   59.6240 H   0  0  0  0  0  0  0  0  0  0  0  0
   49.2130   83.8950   57.5960 N   0  0  0  0  0  0  0  0  0  0  0  0
   48.4200   84.0780   56.5360 C   0  0  0  0  0  0  0  0  0  0  0  0
   48.6240   83.7220   55.5370 H   0  0  0  0  0  0  0  0  0  0  0  0
   47.3410   84.7970   57.0340 C   0  0  0  0  0  0  0  0  0  0  0  0
   46.2050   85.2670   56.3770 C   0  0  0  0  0  3  0  0  0  0  0  0
  1 10  1  0  0  0  0
  1  2  1  0  0  0  0
  2  6  1  0  0  0  0
  3  7  1  0  0  0  0
  3  2  2  0  0  0  0
  4  3  1  0  0  0  0
  5  4  1  0  0  0  0
  5  1  2  0  0  0  0
  8 13  1  0  0  0  0
  9 10  1  0  0  0  0
  9  8  2  0  0  0  0
 10 11  2  0  0  0  0
 11 12  1  0  0  0  0
 12 16  1  0  0  0  0
 13 12  2  0  0  0  0
 14  8  1  0  0  0  0
 15  9  1  0  0  0  0
 17 19  1  0  0  0  0
 17  4  1  0  0  0  0
 18 17  1  0  0  0  0
 20 21  1  0  0  0  0
 21 22  2  0  0  0  0
 21 17  1  0  0  0  0
 22 23  1  0  0  0  0
 24 25  1  0  0  0  0
 24 22  1  0  0  0  0
 25 26  1  0  0  0  0
 27 25  1  0  0  0  0
 28 30  1  0  0  0  0
 28 27  2  0  0  0  0
 29 28  1  0  0  0  0
 30 24  2  0  0  0  0
 31 30  1  0  0  0  0
 31 20  2  0  0  0  0
M  END
>  <minimizedAffinity>
-4.12626219

>  <minimizedRMSD>
0.584998488

$$$$
