
 OpenBabel03212520153D

 35 38  0  0  0  0  0  0  0  0999 V2000
   42.1880   84.0490   58.3460 Cl  0  0  0  0  0  0  0  0  0  0  0  0
   41.2340   82.5900   58.1850 C   0  0  0  0  0  0  0  0  0  0  0  0
   40.6770   81.9340   59.2710 C   0  0  0  0  0  0  0  0  0  0  0  0
   39.9490   80.7900   58.9720 C   0  0  0  0  0  0  0  0  0  0  0  0
   39.7330   80.2590   57.7220 C   0  0  0  0  0  0  0  0  0  0  0  0
   40.3040   80.9410   56.6750 C   0  0  0  0  0  0  0  0  0  0  0  0
   40.1000   80.3620   55.0300 Cl  0  0  0  0  0  0  0  0  0  0  0  0
   41.0460   82.0980   56.9160 C   0  0  0  0  0  0  0  0  0  0  0  0
   39.5210   80.2900   59.8410 H   0  0  0  0  0  0  0  0  0  0  0  0
   39.1500   79.3610   57.5970 H   0  0  0  0  0  0  0  0  0  0  0  0
   41.9500   82.1860   61.4520 C   0  0  0  0  0  0  0  0  0  0  0  0
   40.8800   82.4550   60.5790 C   0  0  0  0  0  0  0  0  0  0  0  0
   39.8910   83.3310   61.0230 C   0  0  0  0  0  0  0  0  0  0  0  0
   40.0300   83.8620   62.2660 N   0  0  0  0  0  0  0  0  0  0  0  0
   41.0650   83.5850   63.0790 C   0  0  0  0  0  0  0  0  0  0  0  0
   42.0280   82.7420   62.6670 N   0  0  0  0  0  0  0  0  0  0  0  0
   42.6940   81.4940   61.0540 H   0  0  0  0  0  0  0  0  0  0  0  0
   39.0140   83.6310   60.4650 H   0  0  0  0  0  0  0  0  0  0  0  0
   41.0580   84.2540   64.4030 C   0  0  0  0  0  0  0  0  0  0  0  0
   40.7590   85.6070   64.2900 F   0  0  0  0  0  0  0  0  0  0  0  0
   40.1100   83.6680   65.2290 F   0  0  0  0  0  0  0  0  0  0  0  0
   42.3150   84.2190   64.9970 F   0  0  0  0  0  0  0  0  0  0  0  0
   41.5950   82.7380   55.8130 O   0  0  0  0  0  0  0  0  0  0  0  0
   43.5400   82.9930   54.2680 C   0  0  0  0  0  3  0  0  0  0  0  0
   42.8620   82.4570   55.3230 C   0  0  0  0  0  0  0  0  0  0  0  0
   43.4620   81.4570   56.0970 C   0  0  0  0  0  0  0  0  0  0  0  0
   43.0290   80.9470   56.9670 H   0  0  0  0  0  0  0  0  0  0  0  0
   44.7410   80.9910   55.8170 C   0  0  0  0  0  0  0  0  0  0  0  0
   45.5730   80.0740   56.3440 N   0  0  0  0  0  0  0  0  0  0  0  0
   45.3380   79.4870   57.1760 H   0  0  0  0  0  0  0  0  0  0  0  0
   46.7100   80.0400   55.6530 N   0  0  0  0  0  0  0  0  0  0  0  0
   46.6540   80.9450   54.6410 C   0  0  0  0  0  0  0  0  0  0  0  0
   47.4340   81.1340   53.9210 H   0  0  0  0  0  0  0  0  0  0  0  0
   45.4080   81.5470   54.7440 C   0  0  0  0  0  0  0  0  0  0  0  0
   44.8210   82.5290   53.9830 C   0  0  0  0  0  3  0  0  0  0  0  0
  2  1  1  0  0  0  0
  2  3  1  0  0  0  0
  3 12  1  0  0  0  0
  4  3  2  0  0  0  0
  4  9  1  0  0  0  0
  5  4  1  0  0  0  0
  6  8  1  0  0  0  0
  6  5  2  0  0  0  0
  7  6  1  0  0  0  0
  8  2  2  0  0  0  0
 10  5  1  0  0  0  0
 11 16  1  0  0  0  0
 12 13  1  0  0  0  0
 12 11  2  0  0  0  0
 13 14  2  0  0  0  0
 14 15  1  0  0  0  0
 15 19  1  0  0  0  0
 16 15  2  0  0  0  0
 17 11  1  0  0  0  0
 18 13  1  0  0  0  0
 19 22  1  0  0  0  0
 19 21  1  0  0  0  0
 20 19  1  0  0  0  0
 23  8  1  0  0  0  0
 24 25  1  0  0  0  0
 25 23  1  0  0  0  0
 25 26  2  0  0  0  0
 26 27  1  0  0  0  0
 28 26  1  0  0  0  0
 28 29  1  0  0  0  0
 29 30  1  0  0  0  0
 31 29  1  0  0  0  0
 32 34  1  0  0  0  0
 32 31  2  0  0  0  0
 33 32  1  0  0  0  0
 34 28  2  0  0  0  0
 35 24  2  0  0  0  0
 35 34  1  0  0  0  0
M  END
>  <minimizedAffinity>
-5.01672316

>  <minimizedRMSD>
0.0914786905

$$$$
