
 OpenBabel03212520263D

 31 34  0  0  0  0  0  0  0  0999 V2000
   42.6520   84.7690   61.1510 C   0  0  0  0  0  0  0  0  0  0  0  0
   43.8380   84.9410   61.8550 C   0  0  0  0  0  0  0  0  0  0  0  0
   44.4220   86.0080   61.1450 C   0  0  0  0  0  0  0  0  0  0  0  0
   43.6250   86.4060   60.1160 N   0  0  0  0  0  0  0  0  0  0  0  0
   42.5360   85.6340   60.1310 N   0  0  0  0  0  0  0  0  0  0  0  0
   44.2230   84.4290   62.6980 H   0  0  0  0  0  0  0  0  0  0  0  0
   45.4010   86.4170   61.4390 H   0  0  0  0  0  0  0  0  0  0  0  0
   41.0450   81.5570   62.1360 C   0  0  0  0  0  0  0  0  0  0  0  0
   42.0300   82.4840   61.8340 C   0  0  0  0  0  0  0  0  0  0  0  0
   41.6500   83.7710   61.4730 C   0  0  0  0  0  0  0  0  0  0  0  0
   40.3300   84.0660   61.4300 N   0  0  0  0  0  0  0  0  0  0  0  0
   39.3900   83.1260   61.7350 C   0  0  0  0  0  0  0  0  0  0  0  0
   39.7470   81.8900   62.0810 N   0  0  0  0  0  0  0  0  0  0  0  0
   41.4200   80.5780   62.4070 H   0  0  0  0  0  0  0  0  0  0  0  0
   43.0820   82.2310   61.8730 H   0  0  0  0  0  0  0  0  0  0  0  0
   38.3370   83.3560   61.7020 H   0  0  0  0  0  0  0  0  0  0  0  0
   43.9130   87.4670   59.1890 C   0  0  0  0  0  0  0  0  0  0  0  0
   42.9430   87.7100   58.6820 H   0  0  0  0  0  0  0  0  0  0  0  0
   44.2040   88.4120   59.7020 H   0  0  0  0  0  0  0  0  0  0  0  0
   45.9140   87.8790   57.7900 C   0  0  0  0  0  3  0  0  0  0  0  0
   44.8760   87.0530   58.1620 C   0  0  0  0  0  0  0  0  0  0  0  0
   44.8180   85.8220   57.5000 C   0  0  0  0  0  0  0  0  0  0  0  0
   44.0260   85.1300   57.7500 H   0  0  0  0  0  0  0  0  0  0  0  0
   45.7500   85.4670   56.5340 C   0  0  0  0  0  0  0  0  0  0  0  0
   45.9580   84.4020   55.7510 N   0  0  0  0  0  0  0  0  0  0  0  0
   45.3690   83.5530   55.7440 H   0  0  0  0  0  0  0  0  0  0  0  0
   47.0310   84.5950   54.9850 N   0  0  0  0  0  0  0  0  0  0  0  0
   47.5810   85.7880   55.2220 C   0  0  0  0  0  0  0  0  0  0  0  0
   48.4590   86.1770   54.7280 H   0  0  0  0  0  0  0  0  0  0  0  0
   46.7760   86.3490   56.2050 C   0  0  0  0  0  0  0  0  0  0  0  0
   46.8740   87.5880   56.8360 C   0  0  0  0  0  3  0  0  0  0  0  0
  1 10  1  0  0  0  0
  1  2  1  0  0  0  0
  2  6  1  0  0  0  0
  3  7  1  0  0  0  0
  3  2  2  0  0  0  0
  4  5  1  0  0  0  0
  4  3  1  0  0  0  0
  5  1  2  0  0  0  0
  8 14  1  0  0  0  0
  9 15  1  0  0  0  0
  9  8  2  0  0  0  0
 10  9  1  0  0  0  0
 11 10  2  0  0  0  0
 11 12  1  0  0  0  0
 12 13  2  0  0  0  0
 13  8  1  0  0  0  0
 16 12  1  0  0  0  0
 17 19  1  0  0  0  0
 17  4  1  0  0  0  0
 18 17  1  0  0  0  0
 20 21  1  0  0  0  0
 21 17  1  0  0  0  0
 22 23  1  0  0  0  0
 22 21  2  0  0  0  0
 24 22  1  0  0  0  0
 25 24  1  0  0  0  0
 26 25  1  0  0  0  0
 27 28  2  0  0  0  0
 27 25  1  0  0  0  0
 28 30  1  0  0  0  0
 29 28  1  0  0  0  0
 30 24  2  0  0  0  0
 30 31  1  0  0  0  0
 31 20  2  0  0  0  0
M  END
>  <minimizedAffinity>
-4.26238394

>  <minimizedRMSD>
1.05925715

$$$$
