
 OpenBabel03212520263D

 31 34  0  0  0  0  0  0  0  0999 V2000
   42.5190   84.8850   61.2250 C   0  0  0  0  0  0  0  0  0  0  0  0
   43.4540   85.2750   62.1760 C   0  0  0  0  0  0  0  0  0  0  0  0
   44.1520   86.2770   61.4750 C   0  0  0  0  0  0  0  0  0  0  0  0
   43.6490   86.4380   60.2210 N   0  0  0  0  0  0  0  0  0  0  0  0
   42.6420   85.5740   60.0800 N   0  0  0  0  0  0  0  0  0  0  0  0
   43.6200   84.9340   63.1660 H   0  0  0  0  0  0  0  0  0  0  0  0
   44.9890   86.8190   61.9430 H   0  0  0  0  0  0  0  0  0  0  0  0
   40.9180   81.5560   61.7020 C   0  0  0  0  0  0  0  0  0  0  0  0
   41.8980   82.5160   61.4980 C   0  0  0  0  0  0  0  0  0  0  0  0
   41.5230   83.8520   61.4370 C   0  0  0  0  0  0  0  0  0  0  0  0
   40.2130   84.1620   61.5780 N   0  0  0  0  0  0  0  0  0  0  0  0
   39.2780   83.1890   61.7780 C   0  0  0  0  0  0  0  0  0  0  0  0
   39.6300   81.9060   61.8380 N   0  0  0  0  0  0  0  0  0  0  0  0
   41.2880   80.5390   61.7380 H   0  0  0  0  0  0  0  0  0  0  0  0
   42.9410   82.2500   61.3870 H   0  0  0  0  0  0  0  0  0  0  0  0
   38.2340   83.4320   61.8910 H   0  0  0  0  0  0  0  0  0  0  0  0
   44.1230   87.3730   59.2370 C   0  0  0  0  0  0  0  0  0  0  0  0
   43.2510   87.5890   58.5670 H   0  0  0  0  0  0  0  0  0  0  0  0
   44.3860   88.3610   59.6820 H   0  0  0  0  0  0  0  0  0  0  0  0
   45.6570   87.4670   57.2950 C   0  0  0  0  0  3  0  0  0  0  0  0
   45.2010   86.8090   58.4180 C   0  0  0  0  0  0  0  0  0  0  0  0
   45.8330   85.5950   58.7010 C   0  0  0  0  0  0  0  0  0  0  0  0
   45.5170   85.0320   59.5690 H   0  0  0  0  0  0  0  0  0  0  0  0
   46.8500   85.0940   57.9010 C   0  0  0  0  0  0  0  0  0  0  0  0
   47.6240   84.0020   57.9060 N   0  0  0  0  0  0  0  0  0  0  0  0
   47.5760   83.2510   58.6130 H   0  0  0  0  0  0  0  0  0  0  0  0
   48.4610   84.0250   56.8710 N   0  0  0  0  0  0  0  0  0  0  0  0
   48.2850   85.1240   56.1340 C   0  0  0  0  0  0  0  0  0  0  0  0
   48.8420   85.3720   55.2430 H   0  0  0  0  0  0  0  0  0  0  0  0
   47.2640   85.8090   56.7790 C   0  0  0  0  0  0  0  0  0  0  0  0
   46.6640   87.0260   56.4550 C   0  0  0  0  0  3  0  0  0  0  0  0
  1 10  1  0  0  0  0
  1  2  1  0  0  0  0
  2  6  1  0  0  0  0
  3  7  1  0  0  0  0
  3  2  2  0  0  0  0
  4  3  1  0  0  0  0
  5  4  1  0  0  0  0
  5  1  2  0  0  0  0
  8 14  1  0  0  0  0
  8 13  1  0  0  0  0
  9  8  2  0  0  0  0
 10  9  1  0  0  0  0
 10 11  2  0  0  0  0
 11 12  1  0  0  0  0
 12 13  2  0  0  0  0
 12 16  1  0  0  0  0
 15  9  1  0  0  0  0
 17 19  1  0  0  0  0
 17  4  1  0  0  0  0
 18 17  1  0  0  0  0
 20 21  1  0  0  0  0
 21 22  2  0  0  0  0
 21 17  1  0  0  0  0
 22 23  1  0  0  0  0
 24 25  1  0  0  0  0
 24 22  1  0  0  0  0
 25 26  1  0  0  0  0
 27 25  1  0  0  0  0
 28 30  1  0  0  0  0
 28 27  2  0  0  0  0
 29 28  1  0  0  0  0
 30 24  2  0  0  0  0
 31 30  1  0  0  0  0
 31 20  2  0  0  0  0
M  END
>  <minimizedAffinity>
-4.18604326

>  <minimizedRMSD>
0.393855363

$$$$
