
 OpenBabel03212521063D

 39 43  0  0  0  0  0  0  0  0999 V2000
   41.1390   84.4090   59.1990 C   0  0  0  0  0  0  0  0  0  0  0  0
   40.8780   85.7420   58.8780 C   0  0  0  0  0  0  0  0  0  0  0  0
   41.1030   86.2310   57.5970 C   0  0  0  0  0  0  0  0  0  0  0  0
   41.5760   85.3730   56.6950 N   0  0  0  0  0  0  0  0  0  0  0  0
   41.8360   84.0710   56.9910 C   0  0  0  0  0  0  0  0  0  0  0  0
   41.6140   83.6030   58.2420 N   0  0  0  0  0  0  0  0  0  0  0  0
   40.4900   86.4910   59.5780 H   0  0  0  0  0  0  0  0  0  0  0  0
   40.9010   87.2740   57.3380 H   0  0  0  0  0  0  0  0  0  0  0  0
   41.6080   81.9780   55.7480 C   0  0  0  0  0  3  0  0  0  0  0  0
   42.3580   83.1340   55.9860 C   0  0  0  0  0  0  0  0  0  0  0  0
   43.5380   83.3880   55.3120 C   0  0  0  0  0  0  0  0  0  0  0  0
   44.1100   84.2870   55.5060 H   0  0  0  0  0  0  0  0  0  0  0  0
   43.9790   82.4680   54.3780 C   0  0  0  0  0  0  0  0  0  0  0  0
   45.0680   82.4370   53.5770 N   0  0  0  0  0  0  0  0  0  0  0  0
   45.8070   83.1720   53.5400 H   0  0  0  0  0  0  0  0  0  0  0  0
   45.0470   81.3340   52.8510 N   0  0  0  0  0  0  0  0  0  0  0  0
   43.9590   80.5970   53.1350 C   0  0  0  0  0  0  0  0  0  0  0  0
   43.6550   79.6540   52.7180 H   0  0  0  0  0  0  0  0  0  0  0  0
   43.2860   81.3080   54.0950 C   0  0  0  0  0  0  0  0  0  0  0  0
   42.1120   81.0930   54.7920 C   0  0  0  0  0  3  0  0  0  0  0  0
   41.8200   84.2220   61.5600 C   0  0  0  0  0  0  0  0  0  0  0  0
   41.4740   83.9160   62.8710 C   0  0  0  0  0  0  0  0  0  0  0  0
   40.1990   83.5050   63.2160 C   0  0  0  0  0  0  0  0  0  0  0  0
   39.2270   83.3910   62.2260 C   0  0  0  0  0  0  0  0  0  0  0  0
   39.5660   83.6960   60.9080 C   0  0  0  0  0  0  0  0  0  0  0  0
   40.8410   84.1050   60.5760 C   0  0  0  0  0  0  0  0  0  0  0  0
   42.2430   84.0080   63.6400 H   0  0  0  0  0  0  0  0  0  0  0  0
   39.9560   83.2720   64.2460 H   0  0  0  0  0  0  0  0  0  0  0  0
   38.2330   83.0710   62.4840 H   0  0  0  0  0  0  0  0  0  0  0  0
   38.7950   83.6000   60.1570 H   0  0  0  0  0  0  0  0  0  0  0  0
   45.3120   84.1250   60.5090 C   0  0  0  0  0  0  0  0  0  0  0  0
   45.7230   85.4480   60.6750 C   0  0  0  0  0  0  0  0  0  0  0  0
   44.7870   86.3860   61.1550 C   0  0  0  0  0  0  0  0  0  0  0  0
   43.5320   85.9470   61.4290 N   0  0  0  0  0  0  0  0  0  0  0  0
   43.1640   84.6460   61.2560 C   0  0  0  0  0  0  0  0  0  0  0  0
   44.0530   83.7820   60.8060 N   0  0  0  0  0  0  0  0  0  0  0  0
   46.0560   83.4500   60.1440 H   0  0  0  0  0  0  0  0  0  0  0  0
   46.7230   85.7970   60.4560 H   0  0  0  0  0  0  0  0  0  0  0  0
   45.0270   87.4460   61.3140 H   0  0  0  0  0  0  0  0  0  0  0  0
  1 26  1  0  0  0  0
  2  1  1  0  0  0  0
  2  7  1  0  0  0  0
  3  2  2  0  0  0  0
  4  5  2  0  0  0  0
  4  3  1  0  0  0  0
  5  6  1  0  0  0  0
  6  1  2  0  0  0  0
  8  3  1  0  0  0  0
  9 10  1  0  0  0  0
 10  5  1  0  0  0  0
 11 12  1  0  0  0  0
 11 10  2  0  0  0  0
 13 11  1  0  0  0  0
 14 13  1  0  0  0  0
 15 14  1  0  0  0  0
 16 17  2  0  0  0  0
 16 14  1  0  0  0  0
 17 19  1  0  0  0  0
 18 17  1  0  0  0  0
 19 13  2  0  0  0  0
 19 20  1  0  0  0  0
 20  9  2  0  0  0  0
 21 22  1  0  0  0  0
 22 23  2  0  0  0  0
 22 27  1  0  0  0  0
 23 28  1  0  0  0  0
 24 29  1  0  0  0  0
 24 23  1  0  0  0  0
 25 24  2  0  0  0  0
 26 25  1  0  0  0  0
 26 21  2  0  0  0  0
 30 25  1  0  0  0  0
 31 32  2  0  0  0  0
 31 36  1  0  0  0  0
 32 33  1  0  0  0  0
 33 39  1  0  0  0  0
 33 34  2  0  0  0  0
 35 34  1  0  0  0  0
 35 21  1  0  0  0  0
 36 35  2  0  0  0  0
 37 31  1  0  0  0  0
 38 32  1  0  0  0  0
M  END
>  <minimizedAffinity>
-5.59242201

>  <minimizedRMSD>
0.666491747

$$$$
