
 OpenBabel03212520153D

 35 38  0  0  0  0  0  0  0  0999 V2000
   42.1120   84.0470   58.3480 Cl  0  0  0  0  0  0  0  0  0  0  0  0
   41.1950   82.5620   58.2060 C   0  0  0  0  0  0  0  0  0  0  0  0
   40.6710   81.8970   59.3030 C   0  0  0  0  0  0  0  0  0  0  0  0
   39.9690   80.7330   59.0190 C   0  0  0  0  0  0  0  0  0  0  0  0
   39.7500   80.1910   57.7740 C   0  0  0  0  0  0  0  0  0  0  0  0
   40.2880   80.8820   56.7170 C   0  0  0  0  0  0  0  0  0  0  0  0
   40.0770   80.2910   55.0770 Cl  0  0  0  0  0  0  0  0  0  0  0  0
   41.0030   82.0600   56.9420 C   0  0  0  0  0  0  0  0  0  0  0  0
   39.5670   80.2260   59.8960 H   0  0  0  0  0  0  0  0  0  0  0  0
   39.1890   79.2780   57.6610 H   0  0  0  0  0  0  0  0  0  0  0  0
   41.9730   82.2020   61.4600 C   0  0  0  0  0  0  0  0  0  0  0  0
   40.8780   82.4290   60.6060 C   0  0  0  0  0  0  0  0  0  0  0  0
   39.8660   83.2700   61.0650 C   0  0  0  0  0  0  0  0  0  0  0  0
   40.0080   83.8100   62.3040 N   0  0  0  0  0  0  0  0  0  0  0  0
   41.0670   83.5730   63.0990 C   0  0  0  0  0  0  0  0  0  0  0  0
   42.0520   82.7640   62.6720 N   0  0  0  0  0  0  0  0  0  0  0  0
   42.7340   81.5360   61.0510 H   0  0  0  0  0  0  0  0  0  0  0  0
   38.9690   83.5360   60.5220 H   0  0  0  0  0  0  0  0  0  0  0  0
   41.0590   84.2460   64.4210 C   0  0  0  0  0  0  0  0  0  0  0  0
   40.7550   85.5970   64.3050 F   0  0  0  0  0  0  0  0  0  0  0  0
   40.1150   83.6590   65.2500 F   0  0  0  0  0  0  0  0  0  0  0  0
   42.3180   84.2170   65.0140 F   0  0  0  0  0  0  0  0  0  0  0  0
   41.5190   82.7090   55.8290 O   0  0  0  0  0  0  0  0  0  0  0  0
   43.8220   81.7490   55.7710 C   0  0  0  0  0  3  0  0  0  0  0  0
   42.7280   82.3680   55.2420 C   0  0  0  0  0  0  0  0  0  0  0  0
   42.7350   82.7570   53.8980 C   0  0  0  0  0  0  0  0  0  0  0  0
   41.9260   83.2590   53.3530 H   0  0  0  0  0  0  0  0  0  0  0  0
   43.8360   82.5290   53.0800 C   0  0  0  0  0  0  0  0  0  0  0  0
   44.1530   82.7700   51.7960 N   0  0  0  0  0  0  0  0  0  0  0  0
   43.5100   83.2410   51.1170 H   0  0  0  0  0  0  0  0  0  0  0  0
   45.3800   82.3250   51.5370 N   0  0  0  0  0  0  0  0  0  0  0  0
   45.9080   81.7730   52.6600 C   0  0  0  0  0  0  0  0  0  0  0  0
   46.8890   81.3320   52.7440 H   0  0  0  0  0  0  0  0  0  0  0  0
   44.9310   81.9020   53.6380 C   0  0  0  0  0  0  0  0  0  0  0  0
   44.9280   81.5180   54.9570 C   0  0  0  0  0  3  0  0  0  0  0  0
  2  1  1  0  0  0  0
  2  3  1  0  0  0  0
  3 12  1  0  0  0  0
  4  3  2  0  0  0  0
  4  9  1  0  0  0  0
  5  4  1  0  0  0  0
  6  8  1  0  0  0  0
  6  5  2  0  0  0  0
  7  6  1  0  0  0  0
  8  2  2  0  0  0  0
 10  5  1  0  0  0  0
 11 16  1  0  0  0  0
 12 13  1  0  0  0  0
 12 11  2  0  0  0  0
 13 14  2  0  0  0  0
 14 15  1  0  0  0  0
 15 19  1  0  0  0  0
 16 15  2  0  0  0  0
 17 11  1  0  0  0  0
 18 13  1  0  0  0  0
 19 22  1  0  0  0  0
 19 21  1  0  0  0  0
 20 19  1  0  0  0  0
 23  8  1  0  0  0  0
 25 24  1  0  0  0  0
 25 23  1  0  0  0  0
 26 25  2  0  0  0  0
 27 26  1  0  0  0  0
 28 34  2  0  0  0  0
 28 26  1  0  0  0  0
 29 28  1  0  0  0  0
 30 29  1  0  0  0  0
 31 29  1  0  0  0  0
 31 32  2  0  0  0  0
 32 33  1  0  0  0  0
 32 34  1  0  0  0  0
 34 35  1  0  0  0  0
 35 24  2  0  0  0  0
M  END
>  <minimizedAffinity>
-5.14562321

>  <minimizedRMSD>
0.549605072

$$$$
