
 OpenBabel03212520263D

 31 34  0  0  0  0  0  0  0  0999 V2000
   42.5530   84.9250   60.9730 C   0  0  0  0  0  0  0  0  0  0  0  0
   43.6160   85.4280   61.7120 C   0  0  0  0  0  0  0  0  0  0  0  0
   44.1140   86.4120   60.8370 C   0  0  0  0  0  0  0  0  0  0  0  0
   43.3860   86.4590   59.6880 N   0  0  0  0  0  0  0  0  0  0  0  0
   42.4260   85.5370   59.7850 N   0  0  0  0  0  0  0  0  0  0  0  0
   43.9770   85.1670   62.6740 H   0  0  0  0  0  0  0  0  0  0  0  0
   44.9850   87.0280   61.1110 H   0  0  0  0  0  0  0  0  0  0  0  0
   41.3360   81.7310   62.4530 C   0  0  0  0  0  0  0  0  0  0  0  0
   42.2030   82.7280   62.0340 C   0  0  0  0  0  0  0  0  0  0  0  0
   41.6770   83.8600   61.4240 C   0  0  0  0  0  0  0  0  0  0  0  0
   40.3350   83.9430   61.2640 N   0  0  0  0  0  0  0  0  0  0  0  0
   39.5140   82.9410   61.6910 C   0  0  0  0  0  0  0  0  0  0  0  0
   40.0120   81.8520   62.2750 N   0  0  0  0  0  0  0  0  0  0  0  0
   41.8210   80.8820   62.9180 H   0  0  0  0  0  0  0  0  0  0  0  0
   43.2740   82.6460   62.1700 H   0  0  0  0  0  0  0  0  0  0  0  0
   38.4450   83.0020   61.5640 H   0  0  0  0  0  0  0  0  0  0  0  0
   43.6170   87.3450   58.5790 C   0  0  0  0  0  0  0  0  0  0  0  0
   42.8110   87.1260   57.8320 H   0  0  0  0  0  0  0  0  0  0  0  0
   43.4630   88.4140   58.8510 H   0  0  0  0  0  0  0  0  0  0  0  0
   45.2120   85.8690   57.3930 C   0  0  0  0  0  3  0  0  0  0  0  0
   44.9140   87.0980   57.9400 C   0  0  0  0  0  0  0  0  0  0  0  0
   45.9220   88.0630   57.8360 C   0  0  0  0  0  0  0  0  0  0  0  0
   45.7460   89.0480   58.2470 H   0  0  0  0  0  0  0  0  0  0  0  0
   47.1360   87.7900   57.2240 C   0  0  0  0  0  0  0  0  0  0  0  0
   48.2590   88.4740   56.9750 N   0  0  0  0  0  0  0  0  0  0  0  0
   48.4180   89.4590   57.2430 H   0  0  0  0  0  0  0  0  0  0  0  0
   49.1380   87.7040   56.3370 N   0  0  0  0  0  0  0  0  0  0  0  0
   48.6440   86.4810   56.1320 C   0  0  0  0  0  0  0  0  0  0  0  0
   49.1640   85.6750   55.6350 H   0  0  0  0  0  0  0  0  0  0  0  0
   47.3740   86.5240   56.6910 C   0  0  0  0  0  0  0  0  0  0  0  0
   46.4010   85.5300   56.7690 C   0  0  0  0  0  3  0  0  0  0  0  0
  1 10  1  0  0  0  0
  1  2  1  0  0  0  0
  2  6  1  0  0  0  0
  3  7  1  0  0  0  0
  3  2  2  0  0  0  0
  4  5  1  0  0  0  0
  4  3  1  0  0  0  0
  5  1  2  0  0  0  0
  8 14  1  0  0  0  0
  9 15  1  0  0  0  0
  9  8  2  0  0  0  0
 10  9  1  0  0  0  0
 11 10  2  0  0  0  0
 11 12  1  0  0  0  0
 12 13  2  0  0  0  0
 13  8  1  0  0  0  0
 16 12  1  0  0  0  0
 17 19  1  0  0  0  0
 17  4  1  0  0  0  0
 18 17  1  0  0  0  0
 20 21  1  0  0  0  0
 21 17  1  0  0  0  0
 22 21  2  0  0  0  0
 22 23  1  0  0  0  0
 24 22  1  0  0  0  0
 25 24  1  0  0  0  0
 25 26  1  0  0  0  0
 27 25  1  0  0  0  0
 28 27  2  0  0  0  0
 28 30  1  0  0  0  0
 29 28  1  0  0  0  0
 30 31  1  0  0  0  0
 30 24  2  0  0  0  0
 31 20  2  0  0  0  0
M  END
>  <minimizedAffinity>
-4.27388525

>  <minimizedRMSD>
1.2062571

$$$$
