
 OpenBabel03212520063D

 44 49  0  0  0  0  0  0  0  0999 V2000
   43.7510   70.3190   58.1180 C   0  0  0  0  0  0  0  0  0  0  0  0
   42.9720   71.4560   57.8570 C   0  0  0  0  0  0  0  0  0  0  0  0
   41.8220   71.6280   58.6110 C   0  0  0  0  0  0  0  0  0  0  0  0
   41.4910   70.7200   59.5570 N   0  0  0  0  0  0  0  0  0  0  0  0
   42.2700   69.6290   59.7870 C   0  0  0  0  0  0  0  0  0  0  0  0
   43.4060   69.4230   59.0650 N   0  0  0  0  0  0  0  0  0  0  0  0
   44.6650   70.0480   57.6150 H   0  0  0  0  0  0  0  0  0  0  0  0
   43.4490   72.0360   57.1060 H   0  0  0  0  0  0  0  0  0  0  0  0
   41.5510   67.3890   60.4550 C   0  0  0  0  0  0  0  0  0  0  0  0
   41.9200   68.6830   60.8360 C   0  0  0  0  0  0  0  0  0  0  0  0
   41.9670   69.0580   62.1790 C   0  0  0  0  0  0  0  0  0  0  0  0
   41.6490   68.1610   63.1840 C   0  0  0  0  0  0  0  0  0  0  0  0
   41.5860   68.1660   64.5250 N   0  0  0  0  0  0  0  0  0  0  0  0
   41.2040   66.9660   64.9890 C   0  0  0  0  0  0  0  0  0  0  0  0
   41.0330   66.2160   63.8900 N   0  0  0  0  0  0  0  0  0  0  0  0
   41.2960   66.9100   62.7690 C   0  0  0  0  0  0  0  0  0  0  0  0
   41.2290   66.4780   61.4680 C   0  0  0  0  0  0  0  0  0  0  0  0
   41.5060   67.0700   59.4230 H   0  0  0  0  0  0  0  0  0  0  0  0
   42.2550   70.0660   62.4700 H   0  0  0  0  0  0  0  0  0  0  0  0
   41.8190   69.0320   65.0790 H   0  0  0  0  0  0  0  0  0  0  0  0
   41.0750   66.7010   66.0370 H   0  0  0  0  0  0  0  0  0  0  0  0
   40.9380   65.4700   61.2340 H   0  0  0  0  0  0  0  0  0  0  0  0
   42.1210   73.8970   60.5270 Cl  0  0  0  0  0  0  0  0  0  0  0  0
   40.9800   73.8820   59.1890 C   0  0  0  0  0  0  0  0  0  0  0  0
   40.9690   72.7740   58.3830 C   0  0  0  0  0  0  0  0  0  0  0  0
   40.0600   72.8550   57.3300 C   0  0  0  0  0  0  0  0  0  0  0  0
   39.2370   73.9300   57.0950 C   0  0  0  0  0  0  0  0  0  0  0  0
   39.3060   75.0210   57.9610 C   0  0  0  0  0  0  0  0  0  0  0  0
   38.2830   76.4160   57.7110 Cl  0  0  0  0  0  0  0  0  0  0  0  0
   40.1910   74.9890   59.0200 C   0  0  0  0  0  0  0  0  0  0  0  0
   39.9770   72.0330   56.6390 H   0  0  0  0  0  0  0  0  0  0  0  0
   38.5550   73.9260   56.2560 H   0  0  0  0  0  0  0  0  0  0  0  0
   40.9990   77.1900   59.3650 C   0  0  0  0  0  3  0  0  0  0  0  0
   40.2320   76.1510   59.9040 C   0  0  0  0  0  0  0  0  0  0  0  0
   39.6390   76.3370   61.1360 C   0  0  0  0  0  0  0  0  0  0  0  0
   39.0790   75.4960   61.4590 H   0  0  0  0  0  0  0  0  0  0  0  0
   39.8300   77.5410   61.7820 C   0  0  0  0  0  0  0  0  0  0  0  0
   39.3520   77.9310   62.9730 N   0  0  0  0  0  0  0  0  0  0  0  0
   38.7490   77.3820   63.6160 H   0  0  0  0  0  0  0  0  0  0  0  0
   39.7860   79.1610   63.1980 N   0  0  0  0  0  0  0  0  0  0  0  0
   40.5440   79.5990   62.1820 C   0  0  0  0  0  0  0  0  0  0  0  0
   41.0710   80.5220   61.9860 H   0  0  0  0  0  0  0  0  0  0  0  0
   40.5850   78.5700   61.2580 C   0  0  0  0  0  0  0  0  0  0  0  0
   41.1720   78.3720   60.0290 C   0  0  0  0  0  3  0  0  0  0  0  0
  1  6  1  0  0  0  0
  2  1  2  0  0  0  0
  2  3  1  0  0  0  0
  3  4  2  0  0  0  0
  4  5  1  0  0  0  0
  5 10  1  0  0  0  0
  6  5  2  0  0  0  0
  7  1  1  0  0  0  0
  8  2  1  0  0  0  0
  9 10  2  0  0  0  0
  9 17  1  0  0  0  0
 10 11  1  0  0  0  0
 11 19  1  0  0  0  0
 11 12  2  0  0  0  0
 12 13  1  0  0  0  0
 13 14  1  0  0  0  0
 13 20  1  0  0  0  0
 14 21  1  0  0  0  0
 15 14  2  0  0  0  0
 16 12  1  0  0  0  0
 16 15  1  0  0  0  0
 17 16  2  0  0  0  0
 18  9  1  0  0  0  0
 22 17  1  0  0  0  0
 24 23  1  0  0  0  0
 25  3  1  0  0  0  0
 25 24  2  0  0  0  0
 26 25  1  0  0  0  0
 27 26  2  0  0  0  0
 27 28  1  0  0  0  0
 28 30  2  0  0  0  0
 29 28  1  0  0  0  0
 30 24  1  0  0  0  0
 30 34  1  0  0  0  0
 31 26  1  0  0  0  0
 32 27  1  0  0  0  0
 33 34  2  0  0  0  0
 33 44  1  0  0  0  0
 34 35  1  0  0  0  0
 35 36  1  0  0  0  0
 35 37  2  0  0  0  0
 37 38  1  0  0  0  0
 38 40  1  0  0  0  0
 38 39  1  0  0  0  0
 41 40  2  0  0  0  0
 42 41  1  0  0  0  0
 43 37  1  0  0  0  0
 43 41  1  0  0  0  0
 44 43  2  0  0  0  0
M  END
>  <minimizedAffinity>
-8.68772221

$$$$

 OpenBabel03212520063D

 44 49  0  0  0  0  0  0  0  0999 V2000
   44.3830   68.9290   60.3160 C   0  0  0  0  0  0  0  0  0  0  0  0
   43.7800   69.9610   59.5820 C   0  0  0  0  0  0  0  0  0  0  0  0
   42.4740   70.2950   59.9030 C   0  0  0  0  0  0  0  0  0  0  0  0
   41.8330   69.6360   60.8950 N   0  0  0  0  0  0  0  0  0  0  0  0
   42.4460   68.6410   61.5900 C   0  0  0  0  0  0  0  0  0  0  0  0
   43.7270   68.2820   61.3020 N   0  0  0  0  0  0  0  0  0  0  0  0
   45.3850   68.5560   60.1810 H   0  0  0  0  0  0  0  0  0  0  0  0
   44.4860   70.3500   58.8910 H   0  0  0  0  0  0  0  0  0  0  0  0
   41.5200   68.6930   63.8530 C   0  0  0  0  0  0  0  0  0  0  0  0
   41.7540   67.9690   62.6800 C   0  0  0  0  0  0  0  0  0  0  0  0
   41.3270   66.6470   62.5460 C   0  0  0  0  0  0  0  0  0  0  0  0
   40.6560   66.0050   63.5710 C   0  0  0  0  0  0  0  0  0  0  0  0
   40.1190   64.7940   63.7900 N   0  0  0  0  0  0  0  0  0  0  0  0
   39.5740   64.7280   65.0150 C   0  0  0  0  0  0  0  0  0  0  0  0
   39.7900   65.9400   65.5470 N   0  0  0  0  0  0  0  0  0  0  0  0
   40.4480   66.7470   64.6970 C   0  0  0  0  0  0  0  0  0  0  0  0
   40.8400   68.0480   64.8930 C   0  0  0  0  0  0  0  0  0  0  0  0
   41.8380   69.7180   63.9850 H   0  0  0  0  0  0  0  0  0  0  0  0
   41.5120   66.0880   61.6310 H   0  0  0  0  0  0  0  0  0  0  0  0
   40.1560   64.0400   63.0550 H   0  0  0  0  0  0  0  0  0  0  0  0
   39.0740   63.8620   65.4420 H   0  0  0  0  0  0  0  0  0  0  0  0
   40.6330   68.5550   65.8170 H   0  0  0  0  0  0  0  0  0  0  0  0
   42.4490   72.9900   61.1860 Cl  0  0  0  0  0  0  0  0  0  0  0  0
   41.6820   72.6250   59.6470 C   0  0  0  0  0  0  0  0  0  0  0  0
   41.7930   71.3430   59.1770 C   0  0  0  0  0  0  0  0  0  0  0  0
   41.1850   71.1450   57.9380 C   0  0  0  0  0  0  0  0  0  0  0  0
   40.5290   72.1220   57.2290 C   0  0  0  0  0  0  0  0  0  0  0  0
   40.4580   73.4040   57.7760 C   0  0  0  0  0  0  0  0  0  0  0  0
   39.6350   74.6880   56.9190 Cl  0  0  0  0  0  0  0  0  0  0  0  0
   41.0450   73.6510   59.0010 C   0  0  0  0  0  0  0  0  0  0  0  0
   41.2180   70.1690   57.4830 H   0  0  0  0  0  0  0  0  0  0  0  0
   40.0800   71.8990   56.2720 H   0  0  0  0  0  0  0  0  0  0  0  0
   39.8770   75.1380   60.4290 C   0  0  0  0  0  3  0  0  0  0  0  0
   40.9480   75.0060   59.5380 C   0  0  0  0  0  0  0  0  0  0  0  0
   41.7400   76.1080   59.2860 C   0  0  0  0  0  0  0  0  0  0  0  0
   42.5240   75.9080   58.5990 H   0  0  0  0  0  0  0  0  0  0  0  0
   41.4400   77.2920   59.9260 C   0  0  0  0  0  0  0  0  0  0  0  0
   42.0690   78.4720   59.8300 N   0  0  0  0  0  0  0  0  0  0  0  0
   42.9010   78.6930   59.2480 H   0  0  0  0  0  0  0  0  0  0  0  0
   41.4410   79.3300   60.6170 N   0  0  0  0  0  0  0  0  0  0  0  0
   40.4040   78.7470   61.2370 C   0  0  0  0  0  0  0  0  0  0  0  0
   39.6620   79.0930   61.9420 H   0  0  0  0  0  0  0  0  0  0  0  0
   40.3860   77.4320   60.8050 C   0  0  0  0  0  0  0  0  0  0  0  0
   39.6030   76.3260   61.0480 C   0  0  0  0  0  3  0  0  0  0  0  0
  1  6  1  0  0  0  0
  2  3  1  0  0  0  0
  2  1  2  0  0  0  0
  3  4  2  0  0  0  0
  4  5  1  0  0  0  0
  5 10  1  0  0  0  0
  6  5  2  0  0  0  0
  7  1  1  0  0  0  0
  8  2  1  0  0  0  0
  9 18  1  0  0  0  0
  9 17  1  0  0  0  0
 10  9  2  0  0  0  0
 11 10  1  0  0  0  0
 11 12  2  0  0  0  0
 12 13  1  0  0  0  0
 12 16  1  0  0  0  0
 13 14  1  0  0  0  0
 14 21  1  0  0  0  0
 14 15  2  0  0  0  0
 16 17  2  0  0  0  0
 16 15  1  0  0  0  0
 17 22  1  0  0  0  0
 19 11  1  0  0  0  0
 20 13  1  0  0  0  0
 24 23  1  0  0  0  0
 25 24  1  0  0  0  0
 25  3  1  0  0  0  0
 26 25  2  0  0  0  0
 27 28  2  0  0  0  0
 27 26  1  0  0  0  0
 28 30  1  0  0  0  0
 29 28  1  0  0  0  0
 30 34  1  0  0  0  0
 30 24  2  0  0  0  0
 31 26  1  0  0  0  0
 32 27  1  0  0  0  0
 33 44  1  0  0  0  0
 34 33  2  0  0  0  0
 35 34  1  0  0  0  0
 35 37  2  0  0  0  0
 36 35  1  0  0  0  0
 37 43  1  0  0  0  0
 38 37  1  0  0  0  0
 38 40  1  0  0  0  0
 39 38  1  0  0  0  0
 40 41  2  0  0  0  0
 41 42  1  0  0  0  0
 43 44  2  0  0  0  0
 43 41  1  0  0  0  0
M  END
>  <minimizedAffinity>
-8.43872166

$$$$

 OpenBabel03212520063D

 44 49  0  0  0  0  0  0  0  0999 V2000
   44.8010   73.7710   58.9610 C   0  0  0  0  0  0  0  0  0  0  0  0
   43.9980   74.8880   58.6830 C   0  0  0  0  0  0  0  0  0  0  0  0
   42.7240   74.9090   59.2250 C   0  0  0  0  0  0  0  0  0  0  0  0
   42.2980   73.8810   59.9930 N   0  0  0  0  0  0  0  0  0  0  0  0
   43.1020   72.8120   60.2460 C   0  0  0  0  0  0  0  0  0  0  0  0
   44.3590   72.7530   59.7280 N   0  0  0  0  0  0  0  0  0  0  0  0
   45.8070   73.6100   58.6100 H   0  0  0  0  0  0  0  0  0  0  0  0
   44.5580   75.5760   58.0990 H   0  0  0  0  0  0  0  0  0  0  0  0
   42.1350   72.0680   62.3650 C   0  0  0  0  0  0  0  0  0  0  0  0
   42.6410   71.7320   61.1050 C   0  0  0  0  0  0  0  0  0  0  0  0
   42.6930   70.4060   60.6740 C   0  0  0  0  0  0  0  0  0  0  0  0
   42.2450   69.3740   61.4790 C   0  0  0  0  0  0  0  0  0  0  0  0
   42.1430   68.0370   61.4020 N   0  0  0  0  0  0  0  0  0  0  0  0
   41.6100   67.5340   62.5260 C   0  0  0  0  0  0  0  0  0  0  0  0
   41.3840   68.6030   63.3030 N   0  0  0  0  0  0  0  0  0  0  0  0
   41.7580   69.7450   62.6990 C   0  0  0  0  0  0  0  0  0  0  0  0
   41.6790   71.0270   63.1830 C   0  0  0  0  0  0  0  0  0  0  0  0
   42.0820   73.0860   62.7250 H   0  0  0  0  0  0  0  0  0  0  0  0
   43.0880   70.1510   59.6930 H   0  0  0  0  0  0  0  0  0  0  0  0
   42.4590   67.5160   60.5420 H   0  0  0  0  0  0  0  0  0  0  0  0
   41.4200   66.4810   62.7230 H   0  0  0  0  0  0  0  0  0  0  0  0
   41.2800   71.2260   64.1610 H   0  0  0  0  0  0  0  0  0  0  0  0
   40.9210   74.6530   56.8600 Cl  0  0  0  0  0  0  0  0  0  0  0  0
   40.9740   76.0620   57.9090 C   0  0  0  0  0  0  0  0  0  0  0  0
   41.8440   76.0270   58.9670 C   0  0  0  0  0  0  0  0  0  0  0  0
   41.8020   77.1690   59.7660 C   0  0  0  0  0  0  0  0  0  0  0  0
   40.9780   78.2450   59.5410 C   0  0  0  0  0  0  0  0  0  0  0  0
   40.1210   78.2060   58.4410 C   0  0  0  0  0  0  0  0  0  0  0  0
   39.0500   79.5480   58.1050 Cl  0  0  0  0  0  0  0  0  0  0  0  0
   40.1250   77.0980   57.6190 C   0  0  0  0  0  0  0  0  0  0  0  0
   42.4480   77.2370   60.6250 H   0  0  0  0  0  0  0  0  0  0  0  0
   40.9970   79.1000   60.2040 H   0  0  0  0  0  0  0  0  0  0  0  0
   37.9680   76.5460   56.8060 C   0  0  0  0  0  3  0  0  0  0  0  0
   39.2130   77.0970   56.4780 C   0  0  0  0  0  0  0  0  0  0  0  0
   39.4180   77.5480   55.1900 C   0  0  0  0  0  0  0  0  0  0  0  0
   40.3890   77.9480   55.0410 H   0  0  0  0  0  0  0  0  0  0  0  0
   38.3860   77.4350   54.2820 C   0  0  0  0  0  0  0  0  0  0  0  0
   38.3680   77.8050   52.9930 N   0  0  0  0  0  0  0  0  0  0  0  0
   39.1410   78.2450   52.4570 H   0  0  0  0  0  0  0  0  0  0  0  0
   37.1740   77.5100   52.5050 N   0  0  0  0  0  0  0  0  0  0  0  0
   36.3940   76.9500   53.4430 C   0  0  0  0  0  0  0  0  0  0  0  0
   35.3800   76.5770   53.4480 H   0  0  0  0  0  0  0  0  0  0  0  0
   37.1570   76.8930   54.5960 C   0  0  0  0  0  0  0  0  0  0  0  0
   36.9640   76.4460   55.8830 C   0  0  0  0  0  3  0  0  0  0  0  0
  1  6  1  0  0  0  0
  2  1  2  0  0  0  0
  2  3  1  0  0  0  0
  3  4  2  0  0  0  0
  4  5  1  0  0  0  0
  5 10  1  0  0  0  0
  6  5  2  0  0  0  0
  7  1  1  0  0  0  0
  8  2  1  0  0  0  0
  9 18  1  0  0  0  0
  9 17  1  0  0  0  0
 10  9  2  0  0  0  0
 11 10  1  0  0  0  0
 11 12  2  0  0  0  0
 12 16  1  0  0  0  0
 13 12  1  0  0  0  0
 13 14  1  0  0  0  0
 14 21  1  0  0  0  0
 14 15  2  0  0  0  0
 16 17  2  0  0  0  0
 16 15  1  0  0  0  0
 17 22  1  0  0  0  0
 19 11  1  0  0  0  0
 20 13  1  0  0  0  0
 23 24  1  0  0  0  0
 24 25  1  0  0  0  0
 25  3  1  0  0  0  0
 25 26  2  0  0  0  0
 26 31  1  0  0  0  0
 27 26  1  0  0  0  0
 27 32  1  0  0  0  0
 28 27  2  0  0  0  0
 29 28  1  0  0  0  0
 30 24  2  0  0  0  0
 30 28  1  0  0  0  0
 34 33  1  0  0  0  0
 34 30  1  0  0  0  0
 35 34  2  0  0  0  0
 36 35  1  0  0  0  0
 37 43  2  0  0  0  0
 37 35  1  0  0  0  0
 38 37  1  0  0  0  0
 39 38  1  0  0  0  0
 40 38  1  0  0  0  0
 40 41  2  0  0  0  0
 41 42  1  0  0  0  0
 41 43  1  0  0  0  0
 43 44  1  0  0  0  0
 44 33  2  0  0  0  0
M  END
>  <minimizedAffinity>
-8.05512142

$$$$

 OpenBabel03212520063D

 44 49  0  0  0  0  0  0  0  0999 V2000
   43.1340   69.3490   56.8450 C   0  0  0  0  0  0  0  0  0  0  0  0
   42.2900   70.4650   56.7380 C   0  0  0  0  0  0  0  0  0  0  0  0
   41.2780   70.5930   57.6760 C   0  0  0  0  0  0  0  0  0  0  0  0
   41.1370   69.6640   58.6490 N   0  0  0  0  0  0  0  0  0  0  0  0
   41.9740   68.5950   58.7270 C   0  0  0  0  0  0  0  0  0  0  0  0
   42.9770   68.4320   57.8220 N   0  0  0  0  0  0  0  0  0  0  0  0
   43.9570   69.1130   56.1920 H   0  0  0  0  0  0  0  0  0  0  0  0
   42.6170   71.0680   55.9280 H   0  0  0  0  0  0  0  0  0  0  0  0
   42.5580   66.4350   59.7140 C   0  0  0  0  0  0  0  0  0  0  0  0
   41.8320   67.6260   59.8040 C   0  0  0  0  0  0  0  0  0  0  0  0
   41.0040   67.8900   60.8960 C   0  0  0  0  0  0  0  0  0  0  0  0
   40.8730   66.9810   61.9310 C   0  0  0  0  0  0  0  0  0  0  0  0
   40.2010   66.8980   63.0900 N   0  0  0  0  0  0  0  0  0  0  0  0
   40.4660   65.7400   63.7140 C   0  0  0  0  0  0  0  0  0  0  0  0
   41.3270   65.1080   62.9030 N   0  0  0  0  0  0  0  0  0  0  0  0
   41.6000   65.8330   61.8040 C   0  0  0  0  0  0  0  0  0  0  0  0
   42.4300   65.5120   60.7590 C   0  0  0  0  0  0  0  0  0  0  0  0
   43.2070   66.2030   58.8800 H   0  0  0  0  0  0  0  0  0  0  0  0
   40.4410   68.8180   60.9610 H   0  0  0  0  0  0  0  0  0  0  0  0
   39.5650   67.6760   63.4090 H   0  0  0  0  0  0  0  0  0  0  0  0
   40.0530   65.4230   64.6690 H   0  0  0  0  0  0  0  0  0  0  0  0
   42.9650   64.5800   60.7430 H   0  0  0  0  0  0  0  0  0  0  0  0
   42.0510   73.0090   59.2510 Cl  0  0  0  0  0  0  0  0  0  0  0  0
   40.5790   72.8840   58.2980 C   0  0  0  0  0  0  0  0  0  0  0  0
   40.3680   71.7150   57.6150 C   0  0  0  0  0  0  0  0  0  0  0  0
   39.1960   71.7100   56.8610 C   0  0  0  0  0  0  0  0  0  0  0  0
   38.3140   72.7600   56.7880 C   0  0  0  0  0  0  0  0  0  0  0  0
   38.5980   73.9170   57.5130 C   0  0  0  0  0  0  0  0  0  0  0  0
   37.5110   75.2860   57.4600 Cl  0  0  0  0  0  0  0  0  0  0  0  0
   39.7470   73.9720   58.2760 C   0  0  0  0  0  0  0  0  0  0  0  0
   38.9410   70.8350   56.2860 H   0  0  0  0  0  0  0  0  0  0  0  0
   37.4220   72.6870   56.1810 H   0  0  0  0  0  0  0  0  0  0  0  0
   39.3750   75.1990   60.2690 C   0  0  0  0  0  3  0  0  0  0  0  0
   40.0080   75.2010   59.0210 C   0  0  0  0  0  0  0  0  0  0  0  0
   40.7610   76.3010   58.6620 C   0  0  0  0  0  0  0  0  0  0  0  0
   41.2000   76.2090   57.7010 H   0  0  0  0  0  0  0  0  0  0  0  0
   40.8540   77.3510   59.5530 C   0  0  0  0  0  0  0  0  0  0  0  0
   41.5250   78.5040   59.4110 N   0  0  0  0  0  0  0  0  0  0  0  0
   42.0930   78.8020   58.5940 H   0  0  0  0  0  0  0  0  0  0  0  0
   41.3380   79.2170   60.5100 N   0  0  0  0  0  0  0  0  0  0  0  0
   40.5560   78.5630   61.3820 C   0  0  0  0  0  0  0  0  0  0  0  0
   40.1770   78.7950   62.3680 H   0  0  0  0  0  0  0  0  0  0  0  0
   40.2330   77.3570   60.7840 C   0  0  0  0  0  0  0  0  0  0  0  0
   39.4860   76.2550   61.1300 C   0  0  0  0  0  3  0  0  0  0  0  0
  1  6  1  0  0  0  0
  2  1  2  0  0  0  0
  2  3  1  0  0  0  0
  3  4  2  0  0  0  0
  4  5  1  0  0  0  0
  5 10  1  0  0  0  0
  6  5  2  0  0  0  0
  7  1  1  0  0  0  0
  8  2  1  0  0  0  0
  9 10  2  0  0  0  0
  9 17  1  0  0  0  0
 10 11  1  0  0  0  0
 11 19  1  0  0  0  0
 11 12  2  0  0  0  0
 12 13  1  0  0  0  0
 13 20  1  0  0  0  0
 13 14  1  0  0  0  0
 14 21  1  0  0  0  0
 15 14  2  0  0  0  0
 16 12  1  0  0  0  0
 16 15  1  0  0  0  0
 17 16  2  0  0  0  0
 18  9  1  0  0  0  0
 22 17  1  0  0  0  0
 24 23  1  0  0  0  0
 25  3  1  0  0  0  0
 25 24  2  0  0  0  0
 26 25  1  0  0  0  0
 27 26  2  0  0  0  0
 27 28  1  0  0  0  0
 28 30  2  0  0  0  0
 29 28  1  0  0  0  0
 30 24  1  0  0  0  0
 30 34  1  0  0  0  0
 31 26  1  0  0  0  0
 32 27  1  0  0  0  0
 33 44  1  0  0  0  0
 34 33  2  0  0  0  0
 35 34  1  0  0  0  0
 35 37  2  0  0  0  0
 36 35  1  0  0  0  0
 37 43  1  0  0  0  0
 38 37  1  0  0  0  0
 38 40  1  0  0  0  0
 39 38  1  0  0  0  0
 40 41  2  0  0  0  0
 41 42  1  0  0  0  0
 43 44  2  0  0  0  0
 43 41  1  0  0  0  0
M  END
>  <minimizedAffinity>
-7.98275661

$$$$

 OpenBabel03212520063D

 44 49  0  0  0  0  0  0  0  0999 V2000
   42.8780   71.5760   57.1110 C   0  0  0  0  0  0  0  0  0  0  0  0
   42.4190   72.9010   57.1730 C   0  0  0  0  0  0  0  0  0  0  0  0
   41.7740   73.3000   58.3320 C   0  0  0  0  0  0  0  0  0  0  0  0
   41.6110   72.4250   59.3500 N   0  0  0  0  0  0  0  0  0  0  0  0
   42.0700   71.1480   59.2610 C   0  0  0  0  0  0  0  0  0  0  0  0
   42.7060   70.7170   58.1370 N   0  0  0  0  0  0  0  0  0  0  0  0
   43.3910   71.1210   56.2800 H   0  0  0  0  0  0  0  0  0  0  0  0
   42.6940   73.4020   56.2780 H   0  0  0  0  0  0  0  0  0  0  0  0
   41.9240   68.8600   60.1120 C   0  0  0  0  0  0  0  0  0  0  0  0
   41.9210   70.2310   60.3810 C   0  0  0  0  0  0  0  0  0  0  0  0
   41.7940   70.7140   61.6850 C   0  0  0  0  0  0  0  0  0  0  0  0
   41.6660   69.8510   62.7580 C   0  0  0  0  0  0  0  0  0  0  0  0
   41.5290   69.9480   64.0900 N   0  0  0  0  0  0  0  0  0  0  0  0
   41.4480   68.7320   64.6520 C   0  0  0  0  0  0  0  0  0  0  0  0
   41.5400   67.8770   63.6230 N   0  0  0  0  0  0  0  0  0  0  0  0
   41.6750   68.5210   62.4500 C   0  0  0  0  0  0  0  0  0  0  0  0
   41.7960   67.9820   61.1940 C   0  0  0  0  0  0  0  0  0  0  0  0
   42.0210   68.4570   59.1130 H   0  0  0  0  0  0  0  0  0  0  0  0
   41.7920   71.7820   61.8890 H   0  0  0  0  0  0  0  0  0  0  0  0
   41.4970   70.8870   64.5670 H   0  0  0  0  0  0  0  0  0  0  0  0
   41.3340   68.5290   65.7150 H   0  0  0  0  0  0  0  0  0  0  0  0
   41.7910   66.9170   61.0460 H   0  0  0  0  0  0  0  0  0  0  0  0
   40.0080   74.2520   56.1220 Cl  0  0  0  0  0  0  0  0  0  0  0  0
   40.4620   75.2300   57.5100 C   0  0  0  0  0  0  0  0  0  0  0  0
   41.2680   74.6490   58.4540 C   0  0  0  0  0  0  0  0  0  0  0  0
   41.5550   75.4800   59.5360 C   0  0  0  0  0  0  0  0  0  0  0  0
   41.0900   76.7650   59.6740 C   0  0  0  0  0  0  0  0  0  0  0  0
   40.2750   77.2870   58.6690 C   0  0  0  0  0  0  0  0  0  0  0  0
   39.6540   78.9170   58.7900 Cl  0  0  0  0  0  0  0  0  0  0  0  0
   39.9610   76.5030   57.5770 C   0  0  0  0  0  0  0  0  0  0  0  0
   42.1810   75.1130   60.3320 H   0  0  0  0  0  0  0  0  0  0  0  0
   41.3520   77.3540   60.5420 H   0  0  0  0  0  0  0  0  0  0  0  0
   37.7790   76.6550   56.6640 C   0  0  0  0  0  3  0  0  0  0  0  0
   39.1050   77.0880   56.5470 C   0  0  0  0  0  0  0  0  0  0  0  0
   39.4280   77.9650   55.5320 C   0  0  0  0  0  0  0  0  0  0  0  0
   40.4540   78.2350   55.5260 H   0  0  0  0  0  0  0  0  0  0  0  0
   38.4270   78.3760   54.6760 C   0  0  0  0  0  0  0  0  0  0  0  0
   38.5170   79.2150   53.6330 N   0  0  0  0  0  0  0  0  0  0  0  0
   39.3690   79.7020   53.2920 H   0  0  0  0  0  0  0  0  0  0  0  0
   37.3120   79.3230   53.0970 N   0  0  0  0  0  0  0  0  0  0  0  0
   36.4200   78.5730   53.7610 C   0  0  0  0  0  0  0  0  0  0  0  0
   35.3610   78.3910   53.6450 H   0  0  0  0  0  0  0  0  0  0  0  0
   37.1190   77.9540   54.7830 C   0  0  0  0  0  0  0  0  0  0  0  0
   36.8090   77.0800   55.8000 C   0  0  0  0  0  3  0  0  0  0  0  0
  1  2  2  0  0  0  0
  1  6  1  0  0  0  0
  2  3  1  0  0  0  0
  3 25  1  0  0  0  0
  3  4  2  0  0  0  0
  5  4  1  0  0  0  0
  5 10  1  0  0  0  0
  6  5  2  0  0  0  0
  7  1  1  0  0  0  0
  8  2  1  0  0  0  0
  9 10  2  0  0  0  0
  9 17  1  0  0  0  0
 10 11  1  0  0  0  0
 11 19  1  0  0  0  0
 11 12  2  0  0  0  0
 12 13  1  0  0  0  0
 13 20  1  0  0  0  0
 13 14  1  0  0  0  0
 14 21  1  0  0  0  0
 15 14  2  0  0  0  0
 16 12  1  0  0  0  0
 16 15  1  0  0  0  0
 17 16  2  0  0  0  0
 18  9  1  0  0  0  0
 22 17  1  0  0  0  0
 23 24  1  0  0  0  0
 24 30  2  0  0  0  0
 24 25  1  0  0  0  0
 25 26  2  0  0  0  0
 26 27  1  0  0  0  0
 26 31  1  0  0  0  0
 27 32  1  0  0  0  0
 28 29  1  0  0  0  0
 28 27  2  0  0  0  0
 30 28  1  0  0  0  0
 34 33  1  0  0  0  0
 34 30  1  0  0  0  0
 35 34  2  0  0  0  0
 36 35  1  0  0  0  0
 37 43  2  0  0  0  0
 37 35  1  0  0  0  0
 38 37  1  0  0  0  0
 39 38  1  0  0  0  0
 40 38  1  0  0  0  0
 40 41  2  0  0  0  0
 41 43  1  0  0  0  0
 42 41  1  0  0  0  0
 43 44  1  0  0  0  0
 44 33  2  0  0  0  0
M  END
>  <minimizedAffinity>
-7.92289829

$$$$

 OpenBabel03212520063D

 44 49  0  0  0  0  0  0  0  0999 V2000
   43.6820   74.2370   59.8860 C   0  0  0  0  0  0  0  0  0  0  0  0
   43.6170   73.0720   60.6650 C   0  0  0  0  0  0  0  0  0  0  0  0
   42.3810   72.4600   60.7960 C   0  0  0  0  0  0  0  0  0  0  0  0
   41.2980   72.9860   60.1810 N   0  0  0  0  0  0  0  0  0  0  0  0
   41.3940   74.1160   59.4300 C   0  0  0  0  0  0  0  0  0  0  0  0
   42.5910   74.7490   59.2810 N   0  0  0  0  0  0  0  0  0  0  0  0
   44.5660   74.8240   59.6960 H   0  0  0  0  0  0  0  0  0  0  0  0
   44.5930   72.8330   61.0090 H   0  0  0  0  0  0  0  0  0  0  0  0
   40.0490   76.0330   58.7260 C   0  0  0  0  0  0  0  0  0  0  0  0
   40.2260   74.6470   58.7440 C   0  0  0  0  0  0  0  0  0  0  0  0
   39.3210   73.7920   58.1130 C   0  0  0  0  0  0  0  0  0  0  0  0
   38.2140   74.2870   57.4460 C   0  0  0  0  0  0  0  0  0  0  0  0
   37.1760   73.7910   56.7550 N   0  0  0  0  0  0  0  0  0  0  0  0
   36.3790   74.7770   56.3160 C   0  0  0  0  0  0  0  0  0  0  0  0
   36.9580   75.9030   56.7590 N   0  0  0  0  0  0  0  0  0  0  0  0
   38.0810   75.6460   57.4530 C   0  0  0  0  0  0  0  0  0  0  0  0
   38.9320   76.5400   58.0520 C   0  0  0  0  0  0  0  0  0  0  0  0
   40.7340   76.7190   59.2060 H   0  0  0  0  0  0  0  0  0  0  0  0
   39.4630   72.7140   58.1300 H   0  0  0  0  0  0  0  0  0  0  0  0
   37.0640   72.7520   56.6120 H   0  0  0  0  0  0  0  0  0  0  0  0
   35.4710   74.6470   55.7310 H   0  0  0  0  0  0  0  0  0  0  0  0
   38.7450   77.5980   58.0060 H   0  0  0  0  0  0  0  0  0  0  0  0
   43.3010   69.9180   59.5300 Cl  0  0  0  0  0  0  0  0  0  0  0  0
   42.6070   70.0200   61.1420 C   0  0  0  0  0  0  0  0  0  0  0  0
   42.2450   71.2620   61.5940 C   0  0  0  0  0  0  0  0  0  0  0  0
   41.7320   71.2590   62.8910 C   0  0  0  0  0  0  0  0  0  0  0  0
   41.5900   70.1360   63.6680 C   0  0  0  0  0  0  0  0  0  0  0  0
   41.9800   68.9070   63.1350 C   0  0  0  0  0  0  0  0  0  0  0  0
   41.8210   67.4420   64.0780 Cl  0  0  0  0  0  0  0  0  0  0  0  0
   42.4940   68.8560   61.8550 C   0  0  0  0  0  0  0  0  0  0  0  0
   41.4200   72.1890   63.3370 H   0  0  0  0  0  0  0  0  0  0  0  0
   41.1850   70.2070   64.6680 H   0  0  0  0  0  0  0  0  0  0  0  0
   41.8550   66.9370   60.6210 C   0  0  0  0  0  3  0  0  0  0  0  0
   42.8900   67.5500   61.3350 C   0  0  0  0  0  0  0  0  0  0  0  0
   44.0940   66.8860   61.4560 C   0  0  0  0  0  0  0  0  0  0  0  0
   44.8150   67.4310   62.0120 H   0  0  0  0  0  0  0  0  0  0  0  0
   44.2220   65.6450   60.8660 C   0  0  0  0  0  0  0  0  0  0  0  0
   45.2900   64.8340   60.8590 N   0  0  0  0  0  0  0  0  0  0  0  0
   46.2130   65.0090   61.3030 H   0  0  0  0  0  0  0  0  0  0  0  0
   44.9670   63.7480   60.1760 N   0  0  0  0  0  0  0  0  0  0  0  0
   43.7050   63.8180   59.7270 C   0  0  0  0  0  0  0  0  0  0  0  0
   43.0800   63.1550   59.1460 H   0  0  0  0  0  0  0  0  0  0  0  0
   43.2070   65.0340   60.1620 C   0  0  0  0  0  0  0  0  0  0  0  0
   42.0110   65.7050   60.0480 C   0  0  0  0  0  3  0  0  0  0  0  0
  1  2  1  0  0  0  0
  2  3  2  0  0  0  0
  2  8  1  0  0  0  0
  3 25  1  0  0  0  0
  4  3  1  0  0  0  0
  5  4  2  0  0  0  0
  6  5  1  0  0  0  0
  6  1  2  0  0  0  0
  7  1  1  0  0  0  0
  9 10  1  0  0  0  0
  9 18  1  0  0  0  0
 10  5  1  0  0  0  0
 11 19  1  0  0  0  0
 11 10  2  0  0  0  0
 12 16  2  0  0  0  0
 12 11  1  0  0  0  0
 13 12  1  0  0  0  0
 14 13  1  0  0  0  0
 14 15  2  0  0  0  0
 15 16  1  0  0  0  0
 16 17  1  0  0  0  0
 17  9  2  0  0  0  0
 20 13  1  0  0  0  0
 21 14  1  0  0  0  0
 22 17  1  0  0  0  0
 23 24  1  0  0  0  0
 24 25  2  0  0  0  0
 24 30  1  0  0  0  0
 25 26  1  0  0  0  0
 26 31  1  0  0  0  0
 26 27  2  0  0  0  0
 27 32  1  0  0  0  0
 28 27  1  0  0  0  0
 28 29  1  0  0  0  0
 30 28  2  0  0  0  0
 33 34  1  0  0  0  0
 34 35  2  0  0  0  0
 34 30  1  0  0  0  0
 35 36  1  0  0  0  0
 37 35  1  0  0  0  0
 38 37  1  0  0  0  0
 38 39  1  0  0  0  0
 40 38  1  0  0  0  0
 41 43  1  0  0  0  0
 41 40  2  0  0  0  0
 42 41  1  0  0  0  0
 43 37  2  0  0  0  0
 44 43  1  0  0  0  0
 44 33  2  0  0  0  0
M  END
>  <minimizedAffinity>
-7.90994549

$$$$

 OpenBabel03212520063D

 44 49  0  0  0  0  0  0  0  0999 V2000
   39.9780   76.5780   60.6180 C   0  0  0  0  0  0  0  0  0  0  0  0
   40.8410   75.4770   60.7240 C   0  0  0  0  0  0  0  0  0  0  0  0
   40.9260   74.6240   59.6360 C   0  0  0  0  0  0  0  0  0  0  0  0
   40.1960   74.8720   58.5250 N   0  0  0  0  0  0  0  0  0  0  0  0
   39.3690   75.9500   58.4520 C   0  0  0  0  0  0  0  0  0  0  0  0
   39.2560   76.8090   59.5020 N   0  0  0  0  0  0  0  0  0  0  0  0
   39.8040   77.3230   61.3770 H   0  0  0  0  0  0  0  0  0  0  0  0
   41.3320   75.5140   61.6650 H   0  0  0  0  0  0  0  0  0  0  0  0
   38.3880   77.5580   56.8920 C   0  0  0  0  0  0  0  0  0  0  0  0
   38.6210   76.2220   57.2340 C   0  0  0  0  0  0  0  0  0  0  0  0
   38.1640   75.1770   56.4290 C   0  0  0  0  0  0  0  0  0  0  0  0
   37.4630   75.4270   55.2630 C   0  0  0  0  0  0  0  0  0  0  0  0
   36.8950   74.7080   54.2810 N   0  0  0  0  0  0  0  0  0  0  0  0
   36.3320   75.5110   53.3650 C   0  0  0  0  0  0  0  0  0  0  0  0
   36.5710   76.7530   53.8110 N   0  0  0  0  0  0  0  0  0  0  0  0
   37.2590   76.7430   54.9660 C   0  0  0  0  0  0  0  0  0  0  0  0
   37.6810   77.8160   55.7130 C   0  0  0  0  0  0  0  0  0  0  0  0
   38.7300   78.3870   57.4960 H   0  0  0  0  0  0  0  0  0  0  0  0
   38.3470   74.1400   56.7000 H   0  0  0  0  0  0  0  0  0  0  0  0
   36.9240   73.6540   54.2910 H   0  0  0  0  0  0  0  0  0  0  0  0
   35.8070   75.1840   52.4700 H   0  0  0  0  0  0  0  0  0  0  0  0
   37.4720   78.8230   55.4000 H   0  0  0  0  0  0  0  0  0  0  0  0
   40.2250   72.5430   61.6570 Cl  0  0  0  0  0  0  0  0  0  0  0  0
   41.6050   72.4370   60.5730 C   0  0  0  0  0  0  0  0  0  0  0  0
   41.7890   73.4660   59.6860 C   0  0  0  0  0  0  0  0  0  0  0  0
   42.8860   73.2900   58.8440 C   0  0  0  0  0  0  0  0  0  0  0  0
   43.7230   72.2010   58.8740 C   0  0  0  0  0  0  0  0  0  0  0  0
   43.4700   71.1960   59.8070 C   0  0  0  0  0  0  0  0  0  0  0  0
   44.5030   69.7860   59.8920 Cl  0  0  0  0  0  0  0  0  0  0  0  0
   42.3960   71.3220   60.6640 C   0  0  0  0  0  0  0  0  0  0  0  0
   43.1140   74.0450   58.1100 H   0  0  0  0  0  0  0  0  0  0  0  0
   44.5560   72.1300   58.1890 H   0  0  0  0  0  0  0  0  0  0  0  0
   41.7310   69.0730   61.0020 C   0  0  0  0  0  3  0  0  0  0  0  0
   42.1660   70.2470   61.6260 C   0  0  0  0  0  0  0  0  0  0  0  0
   42.3190   70.2510   62.9980 C   0  0  0  0  0  0  0  0  0  0  0  0
   42.6530   71.1840   63.3770 H   0  0  0  0  0  0  0  0  0  0  0  0
   42.0340   69.0930   63.6930 C   0  0  0  0  0  0  0  0  0  0  0  0
   42.1120   68.8760   65.0140 N   0  0  0  0  0  0  0  0  0  0  0  0
   42.4050   69.5550   65.7450 H   0  0  0  0  0  0  0  0  0  0  0  0
   41.7450   67.6250   65.2400 N   0  0  0  0  0  0  0  0  0  0  0  0
   41.4240   67.0020   64.0960 C   0  0  0  0  0  0  0  0  0  0  0  0
   41.0860   66.0040   63.8560 H   0  0  0  0  0  0  0  0  0  0  0  0
   41.6030   67.9320   63.0860 C   0  0  0  0  0  0  0  0  0  0  0  0
   41.4550   67.9410   61.7180 C   0  0  0  0  0  3  0  0  0  0  0  0
  1  2  1  0  0  0  0
  1  7  1  0  0  0  0
  2  8  1  0  0  0  0
  3 25  1  0  0  0  0
  3  2  2  0  0  0  0
  4  3  1  0  0  0  0
  5  4  2  0  0  0  0
  5  6  1  0  0  0  0
  6  1  2  0  0  0  0
  9 10  1  0  0  0  0
  9 18  1  0  0  0  0
 10  5  1  0  0  0  0
 11 19  1  0  0  0  0
 11 10  2  0  0  0  0
 12 11  1  0  0  0  0
 13 20  1  0  0  0  0
 13 12  1  0  0  0  0
 14 15  2  0  0  0  0
 14 13  1  0  0  0  0
 15 16  1  0  0  0  0
 16 12  2  0  0  0  0
 16 17  1  0  0  0  0
 17  9  2  0  0  0  0
 21 14  1  0  0  0  0
 22 17  1  0  0  0  0
 24 30  1  0  0  0  0
 24 23  1  0  0  0  0
 25 24  2  0  0  0  0
 26 27  2  0  0  0  0
 26 25  1  0  0  0  0
 27 28  1  0  0  0  0
 28 29  1  0  0  0  0
 28 30  2  0  0  0  0
 30 34  1  0  0  0  0
 31 26  1  0  0  0  0
 32 27  1  0  0  0  0
 33 34  2  0  0  0  0
 33 44  1  0  0  0  0
 34 35  1  0  0  0  0
 35 36  1  0  0  0  0
 35 37  2  0  0  0  0
 37 38  1  0  0  0  0
 38 40  1  0  0  0  0
 38 39  1  0  0  0  0
 41 40  2  0  0  0  0
 42 41  1  0  0  0  0
 43 37  1  0  0  0  0
 43 41  1  0  0  0  0
 44 43  2  0  0  0  0
M  END
>  <minimizedAffinity>
-7.74774408

$$$$

 OpenBabel03212520063D

 44 49  0  0  0  0  0  0  0  0999 V2000
   44.2130   74.0730   60.1690 C   0  0  0  0  0  0  0  0  0  0  0  0
   43.2500   74.8190   59.4730 C   0  0  0  0  0  0  0  0  0  0  0  0
   41.9640   74.3080   59.4170 C   0  0  0  0  0  0  0  0  0  0  0  0
   41.6770   73.1340   60.0230 N   0  0  0  0  0  0  0  0  0  0  0  0
   42.6330   72.4350   60.6930 C   0  0  0  0  0  0  0  0  0  0  0  0
   43.9090   72.9040   60.7670 N   0  0  0  0  0  0  0  0  0  0  0  0
   45.2500   74.3380   60.2950 H   0  0  0  0  0  0  0  0  0  0  0  0
   43.6980   75.7150   59.1200 H   0  0  0  0  0  0  0  0  0  0  0  0
   42.3030   70.0130   60.6230 C   0  0  0  0  0  0  0  0  0  0  0  0
   42.2970   71.1930   61.3730 C   0  0  0  0  0  0  0  0  0  0  0  0
   41.9930   71.1860   62.7350 C   0  0  0  0  0  0  0  0  0  0  0  0
   41.6860   70.0080   63.3930 C   0  0  0  0  0  0  0  0  0  0  0  0
   41.3570   69.6330   64.6400 N   0  0  0  0  0  0  0  0  0  0  0  0
   41.1630   68.3060   64.7030 C   0  0  0  0  0  0  0  0  0  0  0  0
   41.3820   67.8720   63.4530 N   0  0  0  0  0  0  0  0  0  0  0  0
   41.7040   68.8810   62.6240 C   0  0  0  0  0  0  0  0  0  0  0  0
   41.9940   68.8190   61.2840 C   0  0  0  0  0  0  0  0  0  0  0  0
   42.5350   69.9890   59.5670 H   0  0  0  0  0  0  0  0  0  0  0  0
   41.9890   72.1070   63.3130 H   0  0  0  0  0  0  0  0  0  0  0  0
   41.2800   70.3380   65.4190 H   0  0  0  0  0  0  0  0  0  0  0  0
   40.8890   67.7460   65.5940 H   0  0  0  0  0  0  0  0  0  0  0  0
   41.9830   67.8820   60.7580 H   0  0  0  0  0  0  0  0  0  0  0  0
   41.9460   74.0000   56.4480 Cl  0  0  0  0  0  0  0  0  0  0  0  0
   40.8040   74.9930   57.3410 C   0  0  0  0  0  0  0  0  0  0  0  0
   40.9280   75.0230   58.7060 C   0  0  0  0  0  0  0  0  0  0  0  0
   39.9660   75.8080   59.3390 C   0  0  0  0  0  0  0  0  0  0  0  0
   38.9740   76.5000   58.6870 C   0  0  0  0  0  0  0  0  0  0  0  0
   38.9150   76.4210   57.2960 C   0  0  0  0  0  0  0  0  0  0  0  0
   37.6750   77.2810   56.4120 Cl  0  0  0  0  0  0  0  0  0  0  0  0
   39.8450   75.6560   56.6210 C   0  0  0  0  0  0  0  0  0  0  0  0
   39.9780   75.8950   60.4130 H   0  0  0  0  0  0  0  0  0  0  0  0
   38.2590   77.0900   59.2430 H   0  0  0  0  0  0  0  0  0  0  0  0
   40.5330   76.5820   54.5510 C   0  0  0  0  0  3  0  0  0  0  0  0
   39.7480   75.5990   55.1650 C   0  0  0  0  0  0  0  0  0  0  0  0
   39.0180   74.7420   54.3670 C   0  0  0  0  0  0  0  0  0  0  0  0
   38.4570   74.0340   54.9230 H   0  0  0  0  0  0  0  0  0  0  0  0
   39.0940   74.8940   52.9980 C   0  0  0  0  0  0  0  0  0  0  0  0
   38.4760   74.1800   52.0460 N   0  0  0  0  0  0  0  0  0  0  0  0
   37.8260   73.3810   52.1850 H   0  0  0  0  0  0  0  0  0  0  0  0
   38.8380   74.6720   50.8720 N   0  0  0  0  0  0  0  0  0  0  0  0
   39.6860   75.7010   51.0220 C   0  0  0  0  0  0  0  0  0  0  0  0
   40.1980   76.3550   50.3310 H   0  0  0  0  0  0  0  0  0  0  0  0
   39.8640   75.8600   52.3850 C   0  0  0  0  0  0  0  0  0  0  0  0
   40.5880   76.7090   53.1910 C   0  0  0  0  0  3  0  0  0  0  0  0
  1  7  1  0  0  0  0
  1  6  1  0  0  0  0
  2  1  2  0  0  0  0
  3  2  1  0  0  0  0
  3  4  2  0  0  0  0
  4  5  1  0  0  0  0
  5  6  2  0  0  0  0
  5 10  1  0  0  0  0
  8  2  1  0  0  0  0
  9 17  2  0  0  0  0
  9 10  1  0  0  0  0
 10 11  2  0  0  0  0
 11 19  1  0  0  0  0
 11 12  1  0  0  0  0
 12 13  1  0  0  0  0
 13 14  1  0  0  0  0
 13 20  1  0  0  0  0
 14 21  1  0  0  0  0
 15 14  2  0  0  0  0
 16 12  2  0  0  0  0
 16 15  1  0  0  0  0
 17 16  1  0  0  0  0
 18  9  1  0  0  0  0
 22 17  1  0  0  0  0
 23 24  1  0  0  0  0
 24 25  1  0  0  0  0
 25 26  2  0  0  0  0
 25  3  1  0  0  0  0
 26 31  1  0  0  0  0
 27 32  1  0  0  0  0
 27 26  1  0  0  0  0
 28 27  2  0  0  0  0
 29 28  1  0  0  0  0
 30 28  1  0  0  0  0
 30 24  2  0  0  0  0
 33 34  1  0  0  0  0
 34 30  1  0  0  0  0
 35 36  1  0  0  0  0
 35 34  2  0  0  0  0
 37 35  1  0  0  0  0
 38 39  1  0  0  0  0
 38 37  1  0  0  0  0
 40 41  2  0  0  0  0
 40 38  1  0  0  0  0
 41 43  1  0  0  0  0
 42 41  1  0  0  0  0
 43 37  2  0  0  0  0
 43 44  1  0  0  0  0
 44 33  2  0  0  0  0
M  END
>  <minimizedAffinity>
-7.72234726

$$$$

 OpenBabel03212520063D

 44 49  0  0  0  0  0  0  0  0999 V2000
   43.6800   75.1260   59.2570 C   0  0  0  0  0  0  0  0  0  0  0  0
   44.0770   73.8230   59.5960 C   0  0  0  0  0  0  0  0  0  0  0  0
   43.1430   72.8110   59.4430 C   0  0  0  0  0  0  0  0  0  0  0  0
   41.9060   73.0980   58.9780 N   0  0  0  0  0  0  0  0  0  0  0  0
   41.5530   74.3710   58.6560 C   0  0  0  0  0  0  0  0  0  0  0  0
   42.4410   75.3930   58.7960 N   0  0  0  0  0  0  0  0  0  0  0  0
   44.2900   76.0120   59.3250 H   0  0  0  0  0  0  0  0  0  0  0  0
   45.0960   73.8410   59.8960 H   0  0  0  0  0  0  0  0  0  0  0  0
   39.1680   73.8460   58.5350 C   0  0  0  0  0  0  0  0  0  0  0  0
   40.2300   74.6550   58.1210 C   0  0  0  0  0  0  0  0  0  0  0  0
   40.0330   75.7130   57.2320 C   0  0  0  0  0  0  0  0  0  0  0  0
   38.7760   75.9990   56.7290 C   0  0  0  0  0  0  0  0  0  0  0  0
   38.2300   76.8970   55.8930 N   0  0  0  0  0  0  0  0  0  0  0  0
   36.9100   76.6930   55.7680 C   0  0  0  0  0  0  0  0  0  0  0  0
   36.6550   75.6380   56.5560 N   0  0  0  0  0  0  0  0  0  0  0  0
   37.7680   75.1860   57.1590 C   0  0  0  0  0  0  0  0  0  0  0  0
   37.8940   74.1320   58.0290 C   0  0  0  0  0  0  0  0  0  0  0  0
   39.2910   73.0200   59.2220 H   0  0  0  0  0  0  0  0  0  0  0  0
   40.8630   76.3390   56.9130 H   0  0  0  0  0  0  0  0  0  0  0  0
   38.8190   77.6390   55.4300 H   0  0  0  0  0  0  0  0  0  0  0  0
   36.2310   77.2790   55.1520 H   0  0  0  0  0  0  0  0  0  0  0  0
   37.0410   73.5430   58.3130 H   0  0  0  0  0  0  0  0  0  0  0  0
   41.5920   71.5790   61.6750 Cl  0  0  0  0  0  0  0  0  0  0  0  0
   42.8750   70.7580   60.7980 C   0  0  0  0  0  0  0  0  0  0  0  0
   43.4870   71.4490   59.7850 C   0  0  0  0  0  0  0  0  0  0  0  0
   44.4700   70.7170   59.1210 C   0  0  0  0  0  0  0  0  0  0  0  0
   44.8170   69.4240   59.4280 C   0  0  0  0  0  0  0  0  0  0  0  0
   44.1480   68.7880   60.4740 C   0  0  0  0  0  0  0  0  0  0  0  0
   44.5480   67.1430   60.9110 Cl  0  0  0  0  0  0  0  0  0  0  0  0
   43.1660   69.4710   61.1630 C   0  0  0  0  0  0  0  0  0  0  0  0
   45.0080   71.1730   58.3070 H   0  0  0  0  0  0  0  0  0  0  0  0
   45.5900   68.9150   58.8690 H   0  0  0  0  0  0  0  0  0  0  0  0
   43.1330   68.9690   63.4790 C   0  0  0  0  0  3  0  0  0  0  0  0
   42.4910   68.7690   62.2520 C   0  0  0  0  0  0  0  0  0  0  0  0
   41.3590   67.9790   62.2180 C   0  0  0  0  0  0  0  0  0  0  0  0
   40.9440   67.8890   61.2460 H   0  0  0  0  0  0  0  0  0  0  0  0
   40.9130   67.4200   63.3980 C   0  0  0  0  0  0  0  0  0  0  0  0
   39.8470   66.6300   63.5930 N   0  0  0  0  0  0  0  0  0  0  0  0
   39.1710   66.3020   62.8760 H   0  0  0  0  0  0  0  0  0  0  0  0
   39.7980   66.3280   64.8800 N   0  0  0  0  0  0  0  0  0  0  0  0
   40.8100   66.9020   65.5490 C   0  0  0  0  0  0  0  0  0  0  0  0
   41.1170   66.9030   66.5850 H   0  0  0  0  0  0  0  0  0  0  0  0
   41.5400   67.6110   64.6110 C   0  0  0  0  0  0  0  0  0  0  0  0
   42.6670   68.4000   64.6320 C   0  0  0  0  0  3  0  0  0  0  0  0
  1  7  1  0  0  0  0
  1  2  1  0  0  0  0
  2  8  1  0  0  0  0
  3  2  2  0  0  0  0
  3 25  1  0  0  0  0
  4  3  1  0  0  0  0
  5  6  1  0  0  0  0
  5  4  2  0  0  0  0
  6  1  2  0  0  0  0
  9 18  1  0  0  0  0
 10  9  1  0  0  0  0
 10  5  1  0  0  0  0
 11 10  2  0  0  0  0
 12 16  2  0  0  0  0
 12 11  1  0  0  0  0
 13 12  1  0  0  0  0
 14 13  1  0  0  0  0
 14 15  2  0  0  0  0
 15 16  1  0  0  0  0
 16 17  1  0  0  0  0
 17 22  1  0  0  0  0
 17  9  2  0  0  0  0
 19 11  1  0  0  0  0
 20 13  1  0  0  0  0
 21 14  1  0  0  0  0
 24 30  1  0  0  0  0
 24 23  1  0  0  0  0
 25 24  2  0  0  0  0
 26 27  2  0  0  0  0
 26 25  1  0  0  0  0
 27 28  1  0  0  0  0
 28 29  1  0  0  0  0
 28 30  2  0  0  0  0
 30 34  1  0  0  0  0
 31 26  1  0  0  0  0
 32 27  1  0  0  0  0
 33 44  1  0  0  0  0
 34 33  2  0  0  0  0
 35 34  1  0  0  0  0
 35 37  2  0  0  0  0
 36 35  1  0  0  0  0
 37 38  1  0  0  0  0
 37 43  1  0  0  0  0
 38 40  1  0  0  0  0
 39 38  1  0  0  0  0
 40 41  2  0  0  0  0
 41 42  1  0  0  0  0
 43 44  2  0  0  0  0
 43 41  1  0  0  0  0
M  END
>  <minimizedAffinity>
-7.72045374

$$$$
