
 OpenBabel03212520263D

 31 34  0  0  0  0  0  0  0  0999 V2000
   42.3920   84.8760   60.8830 C   0  0  0  0  0  0  0  0  0  0  0  0
   43.4650   85.2920   61.6620 C   0  0  0  0  0  0  0  0  0  0  0  0
   44.0440   86.2670   60.8260 C   0  0  0  0  0  0  0  0  0  0  0  0
   43.3490   86.3900   59.6630 N   0  0  0  0  0  0  0  0  0  0  0  0
   42.3320   85.5270   59.7110 N   0  0  0  0  0  0  0  0  0  0  0  0
   43.7850   84.9820   62.6230 H   0  0  0  0  0  0  0  0  0  0  0  0
   44.9450   86.8200   61.1380 H   0  0  0  0  0  0  0  0  0  0  0  0
   40.9200   81.5970   61.8570 C   0  0  0  0  0  0  0  0  0  0  0  0
   41.8560   82.5450   61.4750 C   0  0  0  0  0  0  0  0  0  0  0  0
   41.4410   83.8560   61.2840 C   0  0  0  0  0  0  0  0  0  0  0  0
   40.1350   84.1560   61.4790 N   0  0  0  0  0  0  0  0  0  0  0  0
   39.2440   83.1950   61.8570 C   0  0  0  0  0  0  0  0  0  0  0  0
   39.6350   81.9350   62.0410 N   0  0  0  0  0  0  0  0  0  0  0  0
   41.3190   80.5980   61.9860 H   0  0  0  0  0  0  0  0  0  0  0  0
   42.8970   82.2880   61.3220 H   0  0  0  0  0  0  0  0  0  0  0  0
   38.2030   83.4280   62.0130 H   0  0  0  0  0  0  0  0  0  0  0  0
   43.6620   87.2900   58.5850 C   0  0  0  0  0  0  0  0  0  0  0  0
   42.8310   87.1860   57.8420 H   0  0  0  0  0  0  0  0  0  0  0  0
   43.6240   88.3580   58.9010 H   0  0  0  0  0  0  0  0  0  0  0  0
   45.0820   85.7010   57.3260 C   0  0  0  0  0  3  0  0  0  0  0  0
   44.9200   86.9340   57.9200 C   0  0  0  0  0  0  0  0  0  0  0  0
   46.0220   87.7910   57.8370 C   0  0  0  0  0  0  0  0  0  0  0  0
   45.9540   88.7740   58.2850 H   0  0  0  0  0  0  0  0  0  0  0  0
   47.1940   87.4160   57.1980 C   0  0  0  0  0  0  0  0  0  0  0  0
   48.3800   87.9900   56.9590 N   0  0  0  0  0  0  0  0  0  0  0  0
   48.6440   88.9410   57.2590 H   0  0  0  0  0  0  0  0  0  0  0  0
   49.1670   87.1550   56.2810 N   0  0  0  0  0  0  0  0  0  0  0  0
   48.5470   85.9990   56.0400 C   0  0  0  0  0  0  0  0  0  0  0  0
   48.9750   85.1630   55.5080 H   0  0  0  0  0  0  0  0  0  0  0  0
   47.2930   86.1540   56.6180 C   0  0  0  0  0  0  0  0  0  0  0  0
   46.2220   85.2630   56.6740 C   0  0  0  0  0  3  0  0  0  0  0  0
  1 10  1  0  0  0  0
  1  2  1  0  0  0  0
  2  6  1  0  0  0  0
  3  7  1  0  0  0  0
  3  2  2  0  0  0  0
  4  5  1  0  0  0  0
  4  3  1  0  0  0  0
  5  1  2  0  0  0  0
  8 14  1  0  0  0  0
  8 13  1  0  0  0  0
  9  8  2  0  0  0  0
 10  9  1  0  0  0  0
 10 11  2  0  0  0  0
 11 12  1  0  0  0  0
 12 16  1  0  0  0  0
 12 13  2  0  0  0  0
 15  9  1  0  0  0  0
 17 19  1  0  0  0  0
 17  4  1  0  0  0  0
 18 17  1  0  0  0  0
 20 21  1  0  0  0  0
 21 17  1  0  0  0  0
 22 21  2  0  0  0  0
 22 23  1  0  0  0  0
 24 22  1  0  0  0  0
 25 24  1  0  0  0  0
 25 26  1  0  0  0  0
 27 25  1  0  0  0  0
 28 27  2  0  0  0  0
 28 30  1  0  0  0  0
 29 28  1  0  0  0  0
 30 31  1  0  0  0  0
 30 24  2  0  0  0  0
 31 20  2  0  0  0  0
M  END
>  <minimizedAffinity>
-4.26771688

>  <minimizedRMSD>
0.749599814

$$$$
