
 OpenBabel03212521053D

 39 43  0  0  0  0  0  0  0  0999 V2000
   41.1370   84.4320   59.1880 C   0  0  0  0  0  0  0  0  0  0  0  0
   40.8100   85.7480   58.8560 C   0  0  0  0  0  0  0  0  0  0  0  0
   41.0240   86.2410   57.5750 C   0  0  0  0  0  0  0  0  0  0  0  0
   41.5510   85.4050   56.6830 N   0  0  0  0  0  0  0  0  0  0  0  0
   41.8760   84.1200   56.9900 C   0  0  0  0  0  0  0  0  0  0  0  0
   41.6650   83.6480   58.2400 N   0  0  0  0  0  0  0  0  0  0  0  0
   40.3760   86.4790   59.5480 H   0  0  0  0  0  0  0  0  0  0  0  0
   40.7700   87.2710   57.3080 H   0  0  0  0  0  0  0  0  0  0  0  0
   42.8830   81.9570   56.4580 C   0  0  0  0  0  3  0  0  0  0  0  0
   42.4580   83.2060   55.9960 C   0  0  0  0  0  0  0  0  0  0  0  0
   42.5770   83.5710   54.6690 C   0  0  0  0  0  0  0  0  0  0  0  0
   42.2450   84.5420   54.3230 H   0  0  0  0  0  0  0  0  0  0  0  0
   43.1330   82.6690   53.7800 C   0  0  0  0  0  0  0  0  0  0  0  0
   43.3770   82.7340   52.4510 N   0  0  0  0  0  0  0  0  0  0  0  0
   43.1630   83.5510   51.8410 H   0  0  0  0  0  0  0  0  0  0  0  0
   43.9290   81.6020   52.0520 N   0  0  0  0  0  0  0  0  0  0  0  0
   44.0720   80.7510   53.0820 C   0  0  0  0  0  0  0  0  0  0  0  0
   44.4830   79.7580   53.0850 H   0  0  0  0  0  0  0  0  0  0  0  0
   43.5720   81.4200   54.1700 C   0  0  0  0  0  0  0  0  0  0  0  0
   43.4340   81.0950   55.5060 C   0  0  0  0  0  3  0  0  0  0  0  0
   41.8180   84.2350   61.5480 C   0  0  0  0  0  0  0  0  0  0  0  0
   41.4720   83.9200   62.8570 C   0  0  0  0  0  0  0  0  0  0  0  0
   40.1990   83.5030   63.2000 C   0  0  0  0  0  0  0  0  0  0  0  0
   39.2280   83.3920   62.2080 C   0  0  0  0  0  0  0  0  0  0  0  0
   39.5650   83.7050   60.8930 C   0  0  0  0  0  0  0  0  0  0  0  0
   40.8390   84.1200   60.5630 C   0  0  0  0  0  0  0  0  0  0  0  0
   42.2410   84.0110   63.6270 H   0  0  0  0  0  0  0  0  0  0  0  0
   39.9570   83.2640   64.2280 H   0  0  0  0  0  0  0  0  0  0  0  0
   38.2340   83.0680   62.4650 H   0  0  0  0  0  0  0  0  0  0  0  0
   38.7950   83.6120   60.1410 H   0  0  0  0  0  0  0  0  0  0  0  0
   45.3210   84.1450   60.5350 C   0  0  0  0  0  0  0  0  0  0  0  0
   45.7180   85.4760   60.6710 C   0  0  0  0  0  0  0  0  0  0  0  0
   44.7670   86.4170   61.1160 C   0  0  0  0  0  0  0  0  0  0  0  0
   43.5140   85.9730   61.3900 N   0  0  0  0  0  0  0  0  0  0  0  0
   43.1610   84.6640   61.2470 C   0  0  0  0  0  0  0  0  0  0  0  0
   44.0630   83.7980   60.8280 N   0  0  0  0  0  0  0  0  0  0  0  0
   46.0760   83.4690   60.1950 H   0  0  0  0  0  0  0  0  0  0  0  0
   46.7170   85.8290   60.4520 H   0  0  0  0  0  0  0  0  0  0  0  0
   44.9960   87.4830   61.2500 H   0  0  0  0  0  0  0  0  0  0  0  0
  1 26  1  0  0  0  0
  2  1  1  0  0  0  0
  2  7  1  0  0  0  0
  3  2  2  0  0  0  0
  4  5  2  0  0  0  0
  4  3  1  0  0  0  0
  5  6  1  0  0  0  0
  6  1  2  0  0  0  0
  8  3  1  0  0  0  0
 10  9  1  0  0  0  0
 10  5  1  0  0  0  0
 11 10  2  0  0  0  0
 12 11  1  0  0  0  0
 13 19  2  0  0  0  0
 13 11  1  0  0  0  0
 14 13  1  0  0  0  0
 15 14  1  0  0  0  0
 16 14  1  0  0  0  0
 16 17  2  0  0  0  0
 17 18  1  0  0  0  0
 17 19  1  0  0  0  0
 19 20  1  0  0  0  0
 20  9  2  0  0  0  0
 21 22  1  0  0  0  0
 22 23  2  0  0  0  0
 22 27  1  0  0  0  0
 23 28  1  0  0  0  0
 24 29  1  0  0  0  0
 24 23  1  0  0  0  0
 25 24  2  0  0  0  0
 26 25  1  0  0  0  0
 26 21  2  0  0  0  0
 30 25  1  0  0  0  0
 31 32  2  0  0  0  0
 31 36  1  0  0  0  0
 32 33  1  0  0  0  0
 33 39  1  0  0  0  0
 33 34  2  0  0  0  0
 35 34  1  0  0  0  0
 35 21  1  0  0  0  0
 36 35  2  0  0  0  0
 37 31  1  0  0  0  0
 38 32  1  0  0  0  0
M  END
>  <minimizedAffinity>
-5.53337669

>  <minimizedRMSD>
0.610848725

$$$$
