
 OpenBabel03212520263D

 31 34  0  0  0  0  0  0  0  0999 V2000
   42.6310   84.7550   61.1770 C   0  0  0  0  0  0  0  0  0  0  0  0
   43.8190   84.8440   61.8920 C   0  0  0  0  0  0  0  0  0  0  0  0
   44.4590   85.9050   61.2230 C   0  0  0  0  0  0  0  0  0  0  0  0
   43.6890   86.3780   60.2060 N   0  0  0  0  0  0  0  0  0  0  0  0
   42.5640   85.6600   60.1880 N   0  0  0  0  0  0  0  0  0  0  0  0
   44.1740   84.2840   62.7190 H   0  0  0  0  0  0  0  0  0  0  0  0
   45.4550   86.2560   61.5370 H   0  0  0  0  0  0  0  0  0  0  0  0
   40.8580   81.5710   61.9480 C   0  0  0  0  0  0  0  0  0  0  0  0
   41.8880   82.4590   61.6810 C   0  0  0  0  0  0  0  0  0  0  0  0
   41.5800   83.7960   61.4590 C   0  0  0  0  0  0  0  0  0  0  0  0
   40.2820   84.1760   61.5130 N   0  0  0  0  0  0  0  0  0  0  0  0
   39.2950   83.2720   61.7790 C   0  0  0  0  0  0  0  0  0  0  0  0
   39.5840   81.9900   61.9920 N   0  0  0  0  0  0  0  0  0  0  0  0
   41.1770   80.5490   62.1090 H   0  0  0  0  0  0  0  0  0  0  0  0
   42.9210   82.1380   61.6410 H   0  0  0  0  0  0  0  0  0  0  0  0
   38.2610   83.5710   61.8220 H   0  0  0  0  0  0  0  0  0  0  0  0
   44.0340   87.4560   59.3180 C   0  0  0  0  0  0  0  0  0  0  0  0
   43.0640   87.8690   58.9390 H   0  0  0  0  0  0  0  0  0  0  0  0
   44.5110   88.3090   59.8530 H   0  0  0  0  0  0  0  0  0  0  0  0
   45.7470   87.8100   57.5660 C   0  0  0  0  0  3  0  0  0  0  0  0
   44.8160   86.9910   58.1680 C   0  0  0  0  0  0  0  0  0  0  0  0
   44.6830   85.7160   57.6070 C   0  0  0  0  0  0  0  0  0  0  0  0
   43.9680   85.0280   58.0370 H   0  0  0  0  0  0  0  0  0  0  0  0
   45.4420   85.3140   56.5170 C   0  0  0  0  0  0  0  0  0  0  0  0
   45.5440   84.2030   55.7790 N   0  0  0  0  0  0  0  0  0  0  0  0
   44.9900   83.3440   55.9300 H   0  0  0  0  0  0  0  0  0  0  0  0
   46.4600   84.3630   54.8260 N   0  0  0  0  0  0  0  0  0  0  0  0
   47.0060   85.5800   54.8850 C   0  0  0  0  0  0  0  0  0  0  0  0
   47.7720   85.9510   54.2200 H   0  0  0  0  0  0  0  0  0  0  0  0
   46.3660   86.1920   55.9560 C   0  0  0  0  0  0  0  0  0  0  0  0
   46.5350   87.4730   56.4780 C   0  0  0  0  0  3  0  0  0  0  0  0
  1 10  1  0  0  0  0
  1  2  1  0  0  0  0
  2  6  1  0  0  0  0
  3  7  1  0  0  0  0
  3  2  2  0  0  0  0
  4  3  1  0  0  0  0
  5  4  1  0  0  0  0
  5  1  2  0  0  0  0
  8 13  1  0  0  0  0
  8 14  1  0  0  0  0
  9  8  2  0  0  0  0
 10 11  2  0  0  0  0
 10  9  1  0  0  0  0
 11 12  1  0  0  0  0
 12 16  1  0  0  0  0
 12 13  2  0  0  0  0
 15  9  1  0  0  0  0
 17 19  1  0  0  0  0
 17  4  1  0  0  0  0
 18 17  1  0  0  0  0
 20 21  1  0  0  0  0
 21 17  1  0  0  0  0
 22 23  1  0  0  0  0
 22 21  2  0  0  0  0
 24 22  1  0  0  0  0
 25 26  1  0  0  0  0
 25 24  1  0  0  0  0
 27 28  2  0  0  0  0
 27 25  1  0  0  0  0
 28 30  1  0  0  0  0
 29 28  1  0  0  0  0
 30 31  1  0  0  0  0
 30 24  2  0  0  0  0
 31 20  2  0  0  0  0
M  END
>  <minimizedAffinity>
-4.33199024

>  <minimizedRMSD>
0.792119086

$$$$
