
 OpenBabel03212521053D

 39 43  0  0  0  0  0  0  0  0999 V2000
   41.1420   84.3730   59.1870 C   0  0  0  0  0  0  0  0  0  0  0  0
   40.9440   85.7160   58.8630 C   0  0  0  0  0  0  0  0  0  0  0  0
   41.1940   86.1910   57.5820 C   0  0  0  0  0  0  0  0  0  0  0  0
   41.6300   85.3110   56.6830 N   0  0  0  0  0  0  0  0  0  0  0  0
   41.8280   83.9990   56.9820 C   0  0  0  0  0  0  0  0  0  0  0  0
   41.5820   83.5440   58.2330 N   0  0  0  0  0  0  0  0  0  0  0  0
   40.5890   86.4830   59.5610 H   0  0  0  0  0  0  0  0  0  0  0  0
   41.0410   87.2420   57.3210 H   0  0  0  0  0  0  0  0  0  0  0  0
   41.5110   81.9130   55.7470 C   0  0  0  0  0  3  0  0  0  0  0  0
   42.3090   83.0370   55.9800 C   0  0  0  0  0  0  0  0  0  0  0  0
   43.4980   83.2380   55.3040 C   0  0  0  0  0  0  0  0  0  0  0  0
   44.1090   84.1140   55.4950 H   0  0  0  0  0  0  0  0  0  0  0  0
   43.8990   82.2970   54.3740 C   0  0  0  0  0  0  0  0  0  0  0  0
   44.9850   82.2180   53.5710 N   0  0  0  0  0  0  0  0  0  0  0  0
   45.7560   82.9210   53.5320 H   0  0  0  0  0  0  0  0  0  0  0  0
   44.9170   81.1140   52.8500 N   0  0  0  0  0  0  0  0  0  0  0  0
   43.8000   80.4240   53.1370 C   0  0  0  0  0  0  0  0  0  0  0  0
   43.4560   79.4930   52.7250 H   0  0  0  0  0  0  0  0  0  0  0  0
   43.1580   81.1670   54.0950 C   0  0  0  0  0  0  0  0  0  0  0  0
   41.9770   81.0040   54.7940 C   0  0  0  0  0  3  0  0  0  0  0  0
   41.8080   84.1550   61.5500 C   0  0  0  0  0  0  0  0  0  0  0  0
   41.4440   83.8670   62.8600 C   0  0  0  0  0  0  0  0  0  0  0  0
   40.1500   83.5200   63.2040 C   0  0  0  0  0  0  0  0  0  0  0  0
   39.1760   83.4540   62.2110 C   0  0  0  0  0  0  0  0  0  0  0  0
   39.5310   83.7400   60.8940 C   0  0  0  0  0  0  0  0  0  0  0  0
   40.8260   84.0860   60.5640 C   0  0  0  0  0  0  0  0  0  0  0  0
   42.2150   83.9220   63.6310 H   0  0  0  0  0  0  0  0  0  0  0  0
   39.8940   83.3010   64.2320 H   0  0  0  0  0  0  0  0  0  0  0  0
   38.1660   83.1850   62.4680 H   0  0  0  0  0  0  0  0  0  0  0  0
   38.7580   83.6830   60.1420 H   0  0  0  0  0  0  0  0  0  0  0  0
   45.2920   83.8830   60.5040 C   0  0  0  0  0  0  0  0  0  0  0  0
   45.7690   85.1830   60.6720 C   0  0  0  0  0  0  0  0  0  0  0  0
   44.8800   86.1670   61.1510 C   0  0  0  0  0  0  0  0  0  0  0  0
   43.6050   85.7910   61.4240 N   0  0  0  0  0  0  0  0  0  0  0  0
   43.1720   84.5110   61.2490 C   0  0  0  0  0  0  0  0  0  0  0  0
   44.0170   83.6030   60.7990 N   0  0  0  0  0  0  0  0  0  0  0  0
   46.0020   83.1720   60.1390 H   0  0  0  0  0  0  0  0  0  0  0  0
   46.7850   85.4810   60.4540 H   0  0  0  0  0  0  0  0  0  0  0  0
   45.1740   87.2120   61.3120 H   0  0  0  0  0  0  0  0  0  0  0  0
  1 26  1  0  0  0  0
  2  1  1  0  0  0  0
  2  7  1  0  0  0  0
  3  2  2  0  0  0  0
  4  5  2  0  0  0  0
  4  3  1  0  0  0  0
  5  6  1  0  0  0  0
  6  1  2  0  0  0  0
  8  3  1  0  0  0  0
  9 10  1  0  0  0  0
 10  5  1  0  0  0  0
 11 12  1  0  0  0  0
 11 10  2  0  0  0  0
 13 11  1  0  0  0  0
 14 13  1  0  0  0  0
 15 14  1  0  0  0  0
 16 17  2  0  0  0  0
 16 14  1  0  0  0  0
 17 19  1  0  0  0  0
 18 17  1  0  0  0  0
 19 13  2  0  0  0  0
 19 20  1  0  0  0  0
 20  9  2  0  0  0  0
 21 22  1  0  0  0  0
 22 23  2  0  0  0  0
 22 27  1  0  0  0  0
 23 28  1  0  0  0  0
 24 29  1  0  0  0  0
 24 23  1  0  0  0  0
 25 24  2  0  0  0  0
 26 25  1  0  0  0  0
 26 21  2  0  0  0  0
 30 25  1  0  0  0  0
 31 32  2  0  0  0  0
 31 36  1  0  0  0  0
 32 33  1  0  0  0  0
 33 39  1  0  0  0  0
 33 34  2  0  0  0  0
 35 34  1  0  0  0  0
 35 21  1  0  0  0  0
 36 35  2  0  0  0  0
 37 31  1  0  0  0  0
 38 32  1  0  0  0  0
M  END
>  <minimizedAffinity>
-5.58031654

>  <minimizedRMSD>
0.886019826

$$$$
