
 OpenBabel03212520153D

 35 38  0  0  0  0  0  0  0  0999 V2000
   41.7250   84.0140   58.2630 Cl  0  0  0  0  0  0  0  0  0  0  0  0
   40.9880   82.4270   58.2100 C   0  0  0  0  0  0  0  0  0  0  0  0
   40.6190   81.7320   59.3510 C   0  0  0  0  0  0  0  0  0  0  0  0
   40.0470   80.4850   59.1350 C   0  0  0  0  0  0  0  0  0  0  0  0
   39.8170   79.8890   57.9180 C   0  0  0  0  0  0  0  0  0  0  0  0
   40.1990   80.6120   56.8150 C   0  0  0  0  0  0  0  0  0  0  0  0
   39.9570   79.9560   55.2040 Cl  0  0  0  0  0  0  0  0  0  0  0  0
   40.7780   81.8720   56.9710 C   0  0  0  0  0  0  0  0  0  0  0  0
   39.7660   79.9570   60.0460 H   0  0  0  0  0  0  0  0  0  0  0  0
   39.3660   78.9120   57.8590 H   0  0  0  0  0  0  0  0  0  0  0  0
   42.0140   82.2600   61.4050 C   0  0  0  0  0  0  0  0  0  0  0  0
   40.8420   82.3190   60.6270 C   0  0  0  0  0  0  0  0  0  0  0  0
   39.7610   83.0300   61.1440 C   0  0  0  0  0  0  0  0  0  0  0  0
   39.9150   83.6150   62.3620 N   0  0  0  0  0  0  0  0  0  0  0  0
   41.0480   83.5400   63.0820 C   0  0  0  0  0  0  0  0  0  0  0  0
   42.1010   82.8580   62.5990 N   0  0  0  0  0  0  0  0  0  0  0  0
   42.8270   81.6920   60.9520 H   0  0  0  0  0  0  0  0  0  0  0  0
   38.8010   83.1620   60.6630 H   0  0  0  0  0  0  0  0  0  0  0  0
   41.0410   84.2380   64.3910 C   0  0  0  0  0  0  0  0  0  0  0  0
   40.7570   85.5910   64.2470 F   0  0  0  0  0  0  0  0  0  0  0  0
   40.0840   83.6810   65.2260 F   0  0  0  0  0  0  0  0  0  0  0  0
   42.2960   84.2040   64.9920 F   0  0  0  0  0  0  0  0  0  0  0  0
   41.1400   82.5490   55.8140 O   0  0  0  0  0  0  0  0  0  0  0  0
   43.5160   81.8360   55.5310 C   0  0  0  0  0  3  0  0  0  0  0  0
   42.4530   82.6800   55.3890 C   0  0  0  0  0  0  0  0  0  0  0  0
   42.6210   83.8990   54.7220 C   0  0  0  0  0  0  0  0  0  0  0  0
   41.8530   84.6620   54.5420 H   0  0  0  0  0  0  0  0  0  0  0  0
   43.8490   84.2770   54.1940 C   0  0  0  0  0  0  0  0  0  0  0  0
   44.3290   85.3390   53.5220 N   0  0  0  0  0  0  0  0  0  0  0  0
   43.7490   86.1680   53.2570 H   0  0  0  0  0  0  0  0  0  0  0  0
   45.6220   85.1660   53.2580 N   0  0  0  0  0  0  0  0  0  0  0  0
   46.0310   83.9710   53.7560 C   0  0  0  0  0  0  0  0  0  0  0  0
   47.0300   83.5700   53.6900 H   0  0  0  0  0  0  0  0  0  0  0  0
   44.9100   83.4070   54.3490 C   0  0  0  0  0  0  0  0  0  0  0  0
   44.7490   82.2100   55.0030 C   0  0  0  0  0  3  0  0  0  0  0  0
  2  1  1  0  0  0  0
  2  3  1  0  0  0  0
  3 12  1  0  0  0  0
  4  3  2  0  0  0  0
  4  9  1  0  0  0  0
  5  4  1  0  0  0  0
  6  8  1  0  0  0  0
  6  5  2  0  0  0  0
  7  6  1  0  0  0  0
  8  2  2  0  0  0  0
 10  5  1  0  0  0  0
 11 16  1  0  0  0  0
 12 13  1  0  0  0  0
 12 11  2  0  0  0  0
 13 14  2  0  0  0  0
 14 15  1  0  0  0  0
 15 19  1  0  0  0  0
 16 15  2  0  0  0  0
 17 11  1  0  0  0  0
 18 13  1  0  0  0  0
 19 22  1  0  0  0  0
 19 21  1  0  0  0  0
 20 19  1  0  0  0  0
 23  8  1  0  0  0  0
 25 24  1  0  0  0  0
 25 23  1  0  0  0  0
 26 25  2  0  0  0  0
 27 26  1  0  0  0  0
 28 34  2  0  0  0  0
 28 26  1  0  0  0  0
 29 28  1  0  0  0  0
 30 29  1  0  0  0  0
 31 29  1  0  0  0  0
 31 32  2  0  0  0  0
 32 34  1  0  0  0  0
 33 32  1  0  0  0  0
 34 35  1  0  0  0  0
 35 24  2  0  0  0  0
M  END
>  <minimizedAffinity>
-5.51774836

>  <minimizedRMSD>
0.892228961

$$$$
