
 OpenBabel03212521053D

 39 43  0  0  0  0  0  0  0  0999 V2000
   41.1520   84.4200   59.1930 C   0  0  0  0  0  0  0  0  0  0  0  0
   40.7400   85.6990   58.8170 C   0  0  0  0  0  0  0  0  0  0  0  0
   40.9510   86.1730   57.5280 C   0  0  0  0  0  0  0  0  0  0  0  0
   41.5610   85.3540   56.6730 N   0  0  0  0  0  0  0  0  0  0  0  0
   41.9690   84.1050   57.0240 C   0  0  0  0  0  0  0  0  0  0  0  0
   41.7600   83.6520   58.2820 N   0  0  0  0  0  0  0  0  0  0  0  0
   40.2350   86.4150   59.4770 H   0  0  0  0  0  0  0  0  0  0  0  0
   40.6310   87.1740   57.2250 H   0  0  0  0  0  0  0  0  0  0  0  0
   41.8540   82.2340   55.4540 C   0  0  0  0  0  3  0  0  0  0  0  0
   42.6430   83.2100   56.0710 C   0  0  0  0  0  0  0  0  0  0  0  0
   43.9930   83.3330   55.8020 C   0  0  0  0  0  0  0  0  0  0  0  0
   44.5930   84.0940   56.2880 H   0  0  0  0  0  0  0  0  0  0  0  0
   44.5700   82.4610   54.8970 C   0  0  0  0  0  0  0  0  0  0  0  0
   45.8370   82.3340   54.4380 N   0  0  0  0  0  0  0  0  0  0  0  0
   46.6420   82.9310   54.7260 H   0  0  0  0  0  0  0  0  0  0  0  0
   45.8910   81.3410   53.5710 N   0  0  0  0  0  0  0  0  0  0  0  0
   44.6820   80.7720   53.4200 C   0  0  0  0  0  0  0  0  0  0  0  0
   44.3960   79.9470   52.7930 H   0  0  0  0  0  0  0  0  0  0  0  0
   43.8500   81.4770   54.2530 C   0  0  0  0  0  0  0  0  0  0  0  0
   42.5030   81.3880   54.5510 C   0  0  0  0  0  3  0  0  0  0  0  0
   41.8110   84.2460   61.5620 C   0  0  0  0  0  0  0  0  0  0  0  0
   41.4530   83.9460   62.8710 C   0  0  0  0  0  0  0  0  0  0  0  0
   40.1750   83.5360   63.2060 C   0  0  0  0  0  0  0  0  0  0  0  0
   39.2130   83.4170   62.2070 C   0  0  0  0  0  0  0  0  0  0  0  0
   39.5630   83.7150   60.8920 C   0  0  0  0  0  0  0  0  0  0  0  0
   40.8410   84.1230   60.5690 C   0  0  0  0  0  0  0  0  0  0  0  0
   42.2150   84.0440   63.6460 H   0  0  0  0  0  0  0  0  0  0  0  0
   39.9230   83.3090   64.2350 H   0  0  0  0  0  0  0  0  0  0  0  0
   38.2160   83.0980   62.4590 H   0  0  0  0  0  0  0  0  0  0  0  0
   38.8000   83.6150   60.1340 H   0  0  0  0  0  0  0  0  0  0  0  0
   45.3290   84.1340   60.6030 C   0  0  0  0  0  0  0  0  0  0  0  0
   45.7210   85.4690   60.7060 C   0  0  0  0  0  0  0  0  0  0  0  0
   44.7630   86.4210   61.1110 C   0  0  0  0  0  0  0  0  0  0  0  0
   43.5070   85.9820   61.3780 N   0  0  0  0  0  0  0  0  0  0  0  0
   43.1580   84.6690   61.2680 C   0  0  0  0  0  0  0  0  0  0  0  0
   44.0670   83.7930   60.8880 N   0  0  0  0  0  0  0  0  0  0  0  0
   46.0900   83.4500   60.2940 H   0  0  0  0  0  0  0  0  0  0  0  0
   46.7230   85.8180   60.4930 H   0  0  0  0  0  0  0  0  0  0  0  0
   44.9890   87.4900   61.2170 H   0  0  0  0  0  0  0  0  0  0  0  0
  1 26  1  0  0  0  0
  2  1  1  0  0  0  0
  2  7  1  0  0  0  0
  3  2  2  0  0  0  0
  4  5  2  0  0  0  0
  4  3  1  0  0  0  0
  5  6  1  0  0  0  0
  6  1  2  0  0  0  0
  8  3  1  0  0  0  0
  9 10  1  0  0  0  0
 10  5  1  0  0  0  0
 11 10  2  0  0  0  0
 11 12  1  0  0  0  0
 13 11  1  0  0  0  0
 14 15  1  0  0  0  0
 14 13  1  0  0  0  0
 16 14  1  0  0  0  0
 17 16  2  0  0  0  0
 17 19  1  0  0  0  0
 18 17  1  0  0  0  0
 19 20  1  0  0  0  0
 19 13  2  0  0  0  0
 20  9  2  0  0  0  0
 21 22  1  0  0  0  0
 22 23  2  0  0  0  0
 22 27  1  0  0  0  0
 23 28  1  0  0  0  0
 24 29  1  0  0  0  0
 24 23  1  0  0  0  0
 25 24  2  0  0  0  0
 26 25  1  0  0  0  0
 26 21  2  0  0  0  0
 30 25  1  0  0  0  0
 31 32  2  0  0  0  0
 31 36  1  0  0  0  0
 32 33  1  0  0  0  0
 33 39  1  0  0  0  0
 33 34  2  0  0  0  0
 35 34  1  0  0  0  0
 35 21  1  0  0  0  0
 36 35  2  0  0  0  0
 37 31  1  0  0  0  0
 38 32  1  0  0  0  0
M  END
>  <minimizedAffinity>
-5.51828384

>  <minimizedRMSD>
0.326382339

$$$$
