
 OpenBabel03212520203D

 39 42  0  0  0  0  0  0  0  0999 V2000
   45.6470   84.2010   57.7230 Cl  0  0  0  0  0  0  0  0  0  0  0  0
   45.8380   82.6290   56.9670 C   0  0  0  0  0  0  0  0  0  0  0  0
   45.7270   82.4310   55.5890 C   0  0  0  0  0  0  0  0  0  0  0  0
   45.9020   81.1400   55.1490 C   0  0  0  0  0  0  0  0  0  0  0  0
   46.1730   80.0380   55.9260 C   0  0  0  0  0  0  0  0  0  0  0  0
   46.2760   80.2660   57.2630 C   0  0  0  0  0  0  0  0  0  0  0  0
   46.6200   78.9510   58.3750 Cl  0  0  0  0  0  0  0  0  0  0  0  0
   46.1090   81.5530   57.7830 C   0  0  0  0  0  0  0  0  0  0  0  0
   45.8090   81.0200   54.0730 H   0  0  0  0  0  0  0  0  0  0  0  0
   46.3000   79.0520   55.5110 H   0  0  0  0  0  0  0  0  0  0  0  0
   44.1920   84.1040   54.4360 C   0  0  0  0  0  0  0  0  0  0  0  0
   45.4460   83.5530   54.7590 C   0  0  0  0  0  0  0  0  0  0  0  0
   46.5670   84.1720   54.2050 C   0  0  0  0  0  0  0  0  0  0  0  0
   46.3380   85.2540   53.4020 N   0  0  0  0  0  0  0  0  0  0  0  0
   45.1420   85.7470   53.1200 C   0  0  0  0  0  0  0  0  0  0  0  0
   44.0320   85.1590   53.6500 N   0  0  0  0  0  0  0  0  0  0  0  0
   43.3600   83.5860   54.8930 H   0  0  0  0  0  0  0  0  0  0  0  0
   47.5800   83.8290   54.3880 H   0  0  0  0  0  0  0  0  0  0  0  0
   45.1290   86.9320   52.2220 C   0  0  0  0  0  0  0  0  0  0  0  0
   46.0290   86.8350   51.2080 F   0  0  0  0  0  0  0  0  0  0  0  0
   43.8550   87.1000   51.6830 F   0  0  0  0  0  0  0  0  0  0  0  0
   45.4850   88.0970   52.9380 F   0  0  0  0  0  0  0  0  0  0  0  0
   46.2230   81.7340   59.1540 O   0  0  0  0  0  0  0  0  0  0  0  0
   47.4620   81.9310   59.8070 C   0  0  0  0  0  0  0  0  0  0  0  0
   48.2810   82.1240   59.1000 H   0  0  0  0  0  0  0  0  0  0  0  0
   47.6910   81.0380   60.4140 H   0  0  0  0  0  0  0  0  0  0  0  0
   47.2600   83.0140   60.7000 O   0  0  0  0  0  0  0  0  0  0  0  0
   45.8300   82.1520   62.2600 C   0  0  0  0  0  3  0  0  0  0  0  0
   46.0980   83.2140   61.4200 C   0  0  0  0  0  0  0  0  0  0  0  0
   45.2850   84.3120   61.3430 C   0  0  0  0  0  0  0  0  0  0  0  0
   45.5750   85.0840   60.6630 H   0  0  0  0  0  0  0  0  0  0  0  0
   44.1760   84.3030   62.1520 C   0  0  0  0  0  0  0  0  0  0  0  0
   43.2160   85.2600   62.2650 N   0  0  0  0  0  0  0  0  0  0  0  0
   43.1290   86.1720   61.7750 H   0  0  0  0  0  0  0  0  0  0  0  0
   42.3450   84.8480   63.1470 N   0  0  0  0  0  0  0  0  0  0  0  0
   42.6920   83.6410   63.6290 C   0  0  0  0  0  0  0  0  0  0  0  0
   42.1650   83.0480   64.3710 H   0  0  0  0  0  0  0  0  0  0  0  0
   43.8690   83.2600   63.0080 C   0  0  0  0  0  0  0  0  0  0  0  0
   44.7010   82.1500   63.0800 C   0  0  0  0  0  3  0  0  0  0  0  0
  2  1  1  0  0  0  0
  2  8  1  0  0  0  0
  3  2  2  0  0  0  0
  4  3  1  0  0  0  0
  4  5  2  0  0  0  0
  5  6  1  0  0  0  0
  6  8  2  0  0  0  0
  6  7  1  0  0  0  0
  8 23  1  0  0  0  0
  9  4  1  0  0  0  0
 10  5  1  0  0  0  0
 11 12  1  0  0  0  0
 11 17  1  0  0  0  0
 12  3  1  0  0  0  0
 13 18  1  0  0  0  0
 13 12  2  0  0  0  0
 14 13  1  0  0  0  0
 15 14  2  0  0  0  0
 15 16  1  0  0  0  0
 16 11  2  0  0  0  0
 19 22  1  0  0  0  0
 19 15  1  0  0  0  0
 20 19  1  0  0  0  0
 21 19  1  0  0  0  0
 23 24  1  0  0  0  0
 24 26  1  0  0  0  0
 24 27  1  0  0  0  0
 25 24  1  0  0  0  0
 27 29  1  0  0  0  0
 28 39  1  0  0  0  0
 29 28  2  0  0  0  0
 30 29  1  0  0  0  0
 30 32  2  0  0  0  0
 31 30  1  0  0  0  0
 32 33  1  0  0  0  0
 32 38  1  0  0  0  0
 33 35  1  0  0  0  0
 34 33  1  0  0  0  0
 35 36  2  0  0  0  0
 36 37  1  0  0  0  0
 38 39  2  0  0  0  0
 38 36  1  0  0  0  0
M  END
>  <minimizedAffinity>
-3.28599048

>  <minimizedRMSD>
9.25773525

$$$$
