
 OpenBabel03212520153D

 35 38  0  0  0  0  0  0  0  0999 V2000
   42.1180   84.1560   58.3730 Cl  0  0  0  0  0  0  0  0  0  0  0  0
   41.2260   82.6580   58.2040 C   0  0  0  0  0  0  0  0  0  0  0  0
   40.7060   81.9680   59.2870 C   0  0  0  0  0  0  0  0  0  0  0  0
   40.0250   80.7970   58.9820 C   0  0  0  0  0  0  0  0  0  0  0  0
   39.8240   80.2700   57.7280 C   0  0  0  0  0  0  0  0  0  0  0  0
   40.3570   80.9850   56.6840 C   0  0  0  0  0  0  0  0  0  0  0  0
   40.1660   80.4130   55.0350 Cl  0  0  0  0  0  0  0  0  0  0  0  0
   41.0510   82.1700   56.9320 C   0  0  0  0  0  0  0  0  0  0  0  0
   39.6250   80.2710   59.8490 H   0  0  0  0  0  0  0  0  0  0  0  0
   39.2780   79.3490   57.5990 H   0  0  0  0  0  0  0  0  0  0  0  0
   41.9650   82.2270   61.4760 C   0  0  0  0  0  0  0  0  0  0  0  0
   40.8950   82.4860   60.5990 C   0  0  0  0  0  0  0  0  0  0  0  0
   39.8920   83.3450   61.0430 C   0  0  0  0  0  0  0  0  0  0  0  0
   40.0180   83.8710   62.2900 N   0  0  0  0  0  0  0  0  0  0  0  0
   41.0530   83.6050   63.1050 C   0  0  0  0  0  0  0  0  0  0  0  0
   42.0300   82.7780   62.6940 N   0  0  0  0  0  0  0  0  0  0  0  0
   42.7210   81.5480   61.0770 H   0  0  0  0  0  0  0  0  0  0  0  0
   39.0130   83.6350   60.4820 H   0  0  0  0  0  0  0  0  0  0  0  0
   41.0310   84.2670   64.4330 C   0  0  0  0  0  0  0  0  0  0  0  0
   40.7290   85.6200   64.3240 F   0  0  0  0  0  0  0  0  0  0  0  0
   40.0770   83.6740   65.2460 F   0  0  0  0  0  0  0  0  0  0  0  0
   42.2820   84.2330   65.0400 F   0  0  0  0  0  0  0  0  0  0  0  0
   41.5640   82.8440   55.8310 O   0  0  0  0  0  0  0  0  0  0  0  0
   43.6850   84.0110   55.2250 C   0  0  0  0  0  3  0  0  0  0  0  0
   42.9210   82.9320   55.5590 C   0  0  0  0  0  0  0  0  0  0  0  0
   43.5140   81.6700   55.6670 C   0  0  0  0  0  0  0  0  0  0  0  0
   43.0140   80.7270   55.9270 H   0  0  0  0  0  0  0  0  0  0  0  0
   44.8730   81.4830   55.4430 C   0  0  0  0  0  0  0  0  0  0  0  0
   45.7230   80.4400   55.4650 N   0  0  0  0  0  0  0  0  0  0  0  0
   45.4340   79.4610   55.6920 H   0  0  0  0  0  0  0  0  0  0  0  0
   46.9520   80.8470   55.1620 N   0  0  0  0  0  0  0  0  0  0  0  0
   46.9430   82.1840   54.9290 C   0  0  0  0  0  0  0  0  0  0  0  0
   47.8000   82.7840   54.6630 H   0  0  0  0  0  0  0  0  0  0  0  0
   45.6270   82.5880   55.1070 C   0  0  0  0  0  0  0  0  0  0  0  0
   45.0470   83.8290   55.0000 C   0  0  0  0  0  3  0  0  0  0  0  0
  2  1  1  0  0  0  0
  2  3  1  0  0  0  0
  3 12  1  0  0  0  0
  4  3  2  0  0  0  0
  4  9  1  0  0  0  0
  5  4  1  0  0  0  0
  6  8  1  0  0  0  0
  6  5  2  0  0  0  0
  7  6  1  0  0  0  0
  8  2  2  0  0  0  0
 10  5  1  0  0  0  0
 11 16  1  0  0  0  0
 12 13  1  0  0  0  0
 12 11  2  0  0  0  0
 13 14  2  0  0  0  0
 14 15  1  0  0  0  0
 15 19  1  0  0  0  0
 16 15  2  0  0  0  0
 17 11  1  0  0  0  0
 18 13  1  0  0  0  0
 19 22  1  0  0  0  0
 19 21  1  0  0  0  0
 20 19  1  0  0  0  0
 23  8  1  0  0  0  0
 24 25  1  0  0  0  0
 25 26  2  0  0  0  0
 25 23  1  0  0  0  0
 26 27  1  0  0  0  0
 28 29  1  0  0  0  0
 28 26  1  0  0  0  0
 29 30  1  0  0  0  0
 31 29  1  0  0  0  0
 32 34  1  0  0  0  0
 32 31  2  0  0  0  0
 33 32  1  0  0  0  0
 34 28  2  0  0  0  0
 35 34  1  0  0  0  0
 35 24  2  0  0  0  0
M  END
>  <minimizedAffinity>
-5.08009434

>  <minimizedRMSD>
1.05475211

$$$$
