
 OpenBabel03212520153D

 35 38  0  0  0  0  0  0  0  0999 V2000
   42.1550   84.1140   58.3510 Cl  0  0  0  0  0  0  0  0  0  0  0  0
   41.2370   82.6320   58.1850 C   0  0  0  0  0  0  0  0  0  0  0  0
   40.7010   81.9560   59.2700 C   0  0  0  0  0  0  0  0  0  0  0  0
   40.0000   80.7960   58.9670 C   0  0  0  0  0  0  0  0  0  0  0  0
   39.7930   80.2670   57.7150 C   0  0  0  0  0  0  0  0  0  0  0  0
   40.3420   80.9680   56.6700 C   0  0  0  0  0  0  0  0  0  0  0  0
   40.1460   80.3930   55.0230 Cl  0  0  0  0  0  0  0  0  0  0  0  0
   41.0570   82.1420   56.9150 C   0  0  0  0  0  0  0  0  0  0  0  0
   39.5880   80.2820   59.8360 H   0  0  0  0  0  0  0  0  0  0  0  0
   39.2310   79.3560   57.5880 H   0  0  0  0  0  0  0  0  0  0  0  0
   41.9730   82.2250   61.4500 C   0  0  0  0  0  0  0  0  0  0  0  0
   40.8950   82.4760   60.5800 C   0  0  0  0  0  0  0  0  0  0  0  0
   39.8900   83.3290   61.0300 C   0  0  0  0  0  0  0  0  0  0  0  0
   40.0200   83.8570   62.2760 N   0  0  0  0  0  0  0  0  0  0  0  0
   41.0630   83.5970   63.0840 C   0  0  0  0  0  0  0  0  0  0  0  0
   42.0430   82.7770   62.6670 N   0  0  0  0  0  0  0  0  0  0  0  0
   42.7300   81.5510   61.0470 H   0  0  0  0  0  0  0  0  0  0  0  0
   39.0050   83.6130   60.4750 H   0  0  0  0  0  0  0  0  0  0  0  0
   41.0450   84.2600   64.4120 C   0  0  0  0  0  0  0  0  0  0  0  0
   40.7470   85.6130   64.3030 F   0  0  0  0  0  0  0  0  0  0  0  0
   40.0910   83.6700   65.2270 F   0  0  0  0  0  0  0  0  0  0  0  0
   42.2980   84.2220   65.0160 F   0  0  0  0  0  0  0  0  0  0  0  0
   41.5850   82.8020   55.8130 O   0  0  0  0  0  0  0  0  0  0  0  0
   43.7390   83.8910   55.1740 C   0  0  0  0  0  3  0  0  0  0  0  0
   42.9420   82.8420   55.5300 C   0  0  0  0  0  0  0  0  0  0  0  0
   43.4950   81.5630   55.6550 C   0  0  0  0  0  0  0  0  0  0  0  0
   42.9680   80.6420   55.9330 H   0  0  0  0  0  0  0  0  0  0  0  0
   44.8450   81.3280   55.4250 C   0  0  0  0  0  0  0  0  0  0  0  0
   45.6600   80.2590   55.4590 N   0  0  0  0  0  0  0  0  0  0  0  0
   45.3420   79.2930   55.7020 H   0  0  0  0  0  0  0  0  0  0  0  0
   46.9010   80.6210   55.1400 N   0  0  0  0  0  0  0  0  0  0  0  0
   46.9340   81.9540   54.8860 C   0  0  0  0  0  0  0  0  0  0  0  0
   47.8070   82.5220   54.6040 H   0  0  0  0  0  0  0  0  0  0  0  0
   45.6330   82.4030   55.0660 C   0  0  0  0  0  0  0  0  0  0  0  0
   45.0930   83.6600   54.9420 C   0  0  0  0  0  3  0  0  0  0  0  0
  2  1  1  0  0  0  0
  2  3  1  0  0  0  0
  3 12  1  0  0  0  0
  4  3  2  0  0  0  0
  4  9  1  0  0  0  0
  5  4  1  0  0  0  0
  6  8  1  0  0  0  0
  6  5  2  0  0  0  0
  7  6  1  0  0  0  0
  8  2  2  0  0  0  0
 10  5  1  0  0  0  0
 11 16  1  0  0  0  0
 12 13  1  0  0  0  0
 12 11  2  0  0  0  0
 13 14  2  0  0  0  0
 14 15  1  0  0  0  0
 15 19  1  0  0  0  0
 16 15  2  0  0  0  0
 17 11  1  0  0  0  0
 18 13  1  0  0  0  0
 19 22  1  0  0  0  0
 19 21  1  0  0  0  0
 20 19  1  0  0  0  0
 23  8  1  0  0  0  0
 24 25  1  0  0  0  0
 25 26  2  0  0  0  0
 25 23  1  0  0  0  0
 26 27  1  0  0  0  0
 28 29  1  0  0  0  0
 28 26  1  0  0  0  0
 29 30  1  0  0  0  0
 31 29  1  0  0  0  0
 32 34  1  0  0  0  0
 32 31  2  0  0  0  0
 33 32  1  0  0  0  0
 34 28  2  0  0  0  0
 35 34  1  0  0  0  0
 35 24  2  0  0  0  0
M  END
>  <minimizedAffinity>
-5.06794882

>  <minimizedRMSD>
0.64762038

$$$$
