
 OpenBabel03212520283D

 31 34  0  0  0  0  0  0  0  0999 V2000
   41.7000   72.6230   61.0670 C   0  0  0  0  0  0  0  0  0  0  0  0
   42.4110   73.1770   60.0100 C   0  0  0  0  0  0  0  0  0  0  0  0
   41.6630   74.3440   59.7630 C   0  0  0  0  0  0  0  0  0  0  0  0
   40.6070   74.4400   60.6170 N   0  0  0  0  0  0  0  0  0  0  0  0
   40.6420   73.3710   61.4170 N   0  0  0  0  0  0  0  0  0  0  0  0
   43.2810   72.8400   59.5080 H   0  0  0  0  0  0  0  0  0  0  0  0
   41.9520   75.0460   58.9640 H   0  0  0  0  0  0  0  0  0  0  0  0
   43.3540   69.3780   61.8480 C   0  0  0  0  0  0  0  0  0  0  0  0
   43.0440   70.5610   61.1940 C   0  0  0  0  0  0  0  0  0  0  0  0
   42.0520   71.3770   61.7230 C   0  0  0  0  0  0  0  0  0  0  0  0
   41.4280   70.9840   62.8580 N   0  0  0  0  0  0  0  0  0  0  0  0
   41.7620   69.8120   63.4730 C   0  0  0  0  0  0  0  0  0  0  0  0
   42.7110   69.0240   62.9710 N   0  0  0  0  0  0  0  0  0  0  0  0
   44.1360   68.7970   61.3750 H   0  0  0  0  0  0  0  0  0  0  0  0
   43.5530   70.8600   60.2870 H   0  0  0  0  0  0  0  0  0  0  0  0
   41.2670   69.4950   64.3760 H   0  0  0  0  0  0  0  0  0  0  0  0
   39.6390   75.5030   60.6450 C   0  0  0  0  0  0  0  0  0  0  0  0
   38.8630   75.1970   61.3930 H   0  0  0  0  0  0  0  0  0  0  0  0
   40.0610   76.4510   61.0510 H   0  0  0  0  0  0  0  0  0  0  0  0
   39.1320   76.8450   58.6270 C   0  0  0  0  0  3  0  0  0  0  0  0
   38.9810   75.6790   59.3460 C   0  0  0  0  0  0  0  0  0  0  0  0
   38.1690   74.7070   58.7510 C   0  0  0  0  0  0  0  0  0  0  0  0
   38.0130   73.7700   59.2680 H   0  0  0  0  0  0  0  0  0  0  0  0
   37.5630   74.9130   57.5200 C   0  0  0  0  0  0  0  0  0  0  0  0
   36.7600   74.2030   56.7190 N   0  0  0  0  0  0  0  0  0  0  0  0
   36.4170   73.2510   56.9230 H   0  0  0  0  0  0  0  0  0  0  0  0
   36.4690   74.9020   55.6220 N   0  0  0  0  0  0  0  0  0  0  0  0
   37.0610   76.0980   55.6440 C   0  0  0  0  0  0  0  0  0  0  0  0
   36.9790   76.8470   54.8700 H   0  0  0  0  0  0  0  0  0  0  0  0
   37.7580   76.1150   56.8460 C   0  0  0  0  0  0  0  0  0  0  0  0
   38.5570   77.1150   57.3970 C   0  0  0  0  0  3  0  0  0  0  0  0
  1  5  2  0  0  0  0
  1 10  1  0  0  0  0
  2  1  1  0  0  0  0
  3  2  2  0  0  0  0
  3  4  1  0  0  0  0
  4 17  1  0  0  0  0
  4  5  1  0  0  0  0
  6  2  1  0  0  0  0
  7  3  1  0  0  0  0
  8 13  1  0  0  0  0
  9 10  1  0  0  0  0
  9  8  2  0  0  0  0
 10 11  2  0  0  0  0
 11 12  1  0  0  0  0
 12 16  1  0  0  0  0
 13 12  2  0  0  0  0
 14  8  1  0  0  0  0
 15  9  1  0  0  0  0
 17 19  1  0  0  0  0
 17 18  1  0  0  0  0
 20 21  1  0  0  0  0
 21 17  1  0  0  0  0
 22 23  1  0  0  0  0
 22 21  2  0  0  0  0
 24 22  1  0  0  0  0
 25 26  1  0  0  0  0
 25 24  1  0  0  0  0
 27 28  2  0  0  0  0
 27 25  1  0  0  0  0
 28 30  1  0  0  0  0
 29 28  1  0  0  0  0
 30 31  1  0  0  0  0
 30 24  2  0  0  0  0
 31 20  2  0  0  0  0
M  END
>  <minimizedAffinity>
-6.14430475

$$$$

 OpenBabel03212520283D

 31 34  0  0  0  0  0  0  0  0999 V2000
   42.1650   69.3080   62.0530 C   0  0  0  0  0  0  0  0  0  0  0  0
   43.2150   69.7170   61.2400 C   0  0  0  0  0  0  0  0  0  0  0  0
   43.0690   71.1170   61.2920 C   0  0  0  0  0  0  0  0  0  0  0  0
   42.0140   71.4700   62.0750 N   0  0  0  0  0  0  0  0  0  0  0  0
   41.4650   70.3450   62.5390 N   0  0  0  0  0  0  0  0  0  0  0  0
   43.9430   69.1550   60.7140 H   0  0  0  0  0  0  0  0  0  0  0  0
   43.7560   71.7800   60.7430 H   0  0  0  0  0  0  0  0  0  0  0  0
   42.3170   65.5880   62.1420 C   0  0  0  0  0  0  0  0  0  0  0  0
   42.6450   66.9010   61.8390 C   0  0  0  0  0  0  0  0  0  0  0  0
   41.8530   67.9220   62.3470 C   0  0  0  0  0  0  0  0  0  0  0  0
   40.7900   67.5930   63.1180 N   0  0  0  0  0  0  0  0  0  0  0  0
   40.4990   66.2890   63.3930 C   0  0  0  0  0  0  0  0  0  0  0  0
   41.2540   65.3040   62.9090 N   0  0  0  0  0  0  0  0  0  0  0  0
   42.9810   64.8490   61.7100 H   0  0  0  0  0  0  0  0  0  0  0  0
   43.4990   67.1460   61.2210 H   0  0  0  0  0  0  0  0  0  0  0  0
   39.6530   66.0220   64.0060 H   0  0  0  0  0  0  0  0  0  0  0  0
   41.5790   72.8140   62.3470 C   0  0  0  0  0  0  0  0  0  0  0  0
   40.8160   72.7350   63.1640 H   0  0  0  0  0  0  0  0  0  0  0  0
   42.3910   73.4420   62.7820 H   0  0  0  0  0  0  0  0  0  0  0  0
   41.6940   74.0200   60.1870 C   0  0  0  0  0  3  0  0  0  0  0  0
   40.9400   73.4310   61.1800 C   0  0  0  0  0  0  0  0  0  0  0  0
   39.5550   73.4720   60.9870 C   0  0  0  0  0  0  0  0  0  0  0  0
   38.9110   73.0250   61.7330 H   0  0  0  0  0  0  0  0  0  0  0  0
   38.9890   74.0660   59.8690 C   0  0  0  0  0  0  0  0  0  0  0  0
   37.7450   74.2580   59.4150 N   0  0  0  0  0  0  0  0  0  0  0  0
   36.8870   73.9480   59.8980 H   0  0  0  0  0  0  0  0  0  0  0  0
   37.7750   74.9070   58.2500 N   0  0  0  0  0  0  0  0  0  0  0  0
   39.0300   75.1730   57.8810 C   0  0  0  0  0  0  0  0  0  0  0  0
   39.3160   75.6900   56.9780 H   0  0  0  0  0  0  0  0  0  0  0  0
   39.8080   74.6430   58.9030 C   0  0  0  0  0  0  0  0  0  0  0  0
   41.1940   74.6290   59.0490 C   0  0  0  0  0  3  0  0  0  0  0  0
  1 10  1  0  0  0  0
  1  5  2  0  0  0  0
  2  3  2  0  0  0  0
  2  1  1  0  0  0  0
  3  4  1  0  0  0  0
  4 17  1  0  0  0  0
  4  5  1  0  0  0  0
  6  2  1  0  0  0  0
  7  3  1  0  0  0  0
  8 13  1  0  0  0  0
  9  8  2  0  0  0  0
  9 10  1  0  0  0  0
 10 11  2  0  0  0  0
 11 12  1  0  0  0  0
 12 16  1  0  0  0  0
 13 12  2  0  0  0  0
 14  8  1  0  0  0  0
 15  9  1  0  0  0  0
 17 19  1  0  0  0  0
 17 18  1  0  0  0  0
 20 21  1  0  0  0  0
 21 17  1  0  0  0  0
 22 21  2  0  0  0  0
 22 23  1  0  0  0  0
 24 22  1  0  0  0  0
 25 24  1  0  0  0  0
 25 26  1  0  0  0  0
 27 25  1  0  0  0  0
 28 27  2  0  0  0  0
 28 30  1  0  0  0  0
 29 28  1  0  0  0  0
 30 31  1  0  0  0  0
 30 24  2  0  0  0  0
 31 20  2  0  0  0  0
M  END
>  <minimizedAffinity>
-5.90941572

$$$$

 OpenBabel03212520283D

 31 34  0  0  0  0  0  0  0  0999 V2000
   39.0880   74.6630   59.3390 C   0  0  0  0  0  0  0  0  0  0  0  0
   38.4770   74.2220   60.5070 C   0  0  0  0  0  0  0  0  0  0  0  0
   39.5780   73.6860   61.2030 C   0  0  0  0  0  0  0  0  0  0  0  0
   40.7240   73.8140   60.4800 N   0  0  0  0  0  0  0  0  0  0  0  0
   40.4080   74.4180   59.3320 N   0  0  0  0  0  0  0  0  0  0  0  0
   37.4650   74.2650   60.8190 H   0  0  0  0  0  0  0  0  0  0  0  0
   39.4540   73.2350   62.2010 H   0  0  0  0  0  0  0  0  0  0  0  0
   38.0010   77.2090   56.8480 C   0  0  0  0  0  0  0  0  0  0  0  0
   38.6910   76.6210   57.8960 C   0  0  0  0  0  0  0  0  0  0  0  0
   38.3870   75.3120   58.2480 C   0  0  0  0  0  0  0  0  0  0  0  0
   37.4260   74.6620   57.5490 N   0  0  0  0  0  0  0  0  0  0  0  0
   36.7690   75.2750   56.5230 C   0  0  0  0  0  0  0  0  0  0  0  0
   37.0550   76.5300   56.1810 N   0  0  0  0  0  0  0  0  0  0  0  0
   38.2940   78.2290   56.6350 H   0  0  0  0  0  0  0  0  0  0  0  0
   39.4570   77.1550   58.4440 H   0  0  0  0  0  0  0  0  0  0  0  0
   36.0030   74.7610   55.9650 H   0  0  0  0  0  0  0  0  0  0  0  0
   42.0310   73.3750   60.8880 C   0  0  0  0  0  0  0  0  0  0  0  0
   42.6860   73.4630   59.9830 H   0  0  0  0  0  0  0  0  0  0  0  0
   42.4940   74.0590   61.6360 H   0  0  0  0  0  0  0  0  0  0  0  0
   42.1030   71.6400   62.6540 C   0  0  0  0  0  3  0  0  0  0  0  0
   42.0300   71.9720   61.3180 C   0  0  0  0  0  0  0  0  0  0  0  0
   41.9580   70.8920   60.4330 C   0  0  0  0  0  0  0  0  0  0  0  0
   41.8980   71.0900   59.3710 H   0  0  0  0  0  0  0  0  0  0  0  0
   41.9600   69.5780   60.8800 C   0  0  0  0  0  0  0  0  0  0  0  0
   41.9030   68.3720   60.3040 N   0  0  0  0  0  0  0  0  0  0  0  0
   41.8400   68.2070   59.2860 H   0  0  0  0  0  0  0  0  0  0  0  0
   41.9410   67.4160   61.2320 N   0  0  0  0  0  0  0  0  0  0  0  0
   42.0230   67.9390   62.4570 C   0  0  0  0  0  0  0  0  0  0  0  0
   42.0670   67.3710   63.3750 H   0  0  0  0  0  0  0  0  0  0  0  0
   42.0360   69.3120   62.2440 C   0  0  0  0  0  0  0  0  0  0  0  0
   42.1100   70.3550   63.1660 C   0  0  0  0  0  3  0  0  0  0  0  0
  1  2  1  0  0  0  0
  2  6  1  0  0  0  0
  2  3  2  0  0  0  0
  3  7  1  0  0  0  0
  4 17  1  0  0  0  0
  4  3  1  0  0  0  0
  5  1  2  0  0  0  0
  5  4  1  0  0  0  0
  8  9  1  0  0  0  0
  9 10  2  0  0  0  0
  9 15  1  0  0  0  0
 10  1  1  0  0  0  0
 11 10  1  0  0  0  0
 12 11  2  0  0  0  0
 13 12  1  0  0  0  0
 13  8  2  0  0  0  0
 14  8  1  0  0  0  0
 16 12  1  0  0  0  0
 17 21  1  0  0  0  0
 17 19  1  0  0  0  0
 18 17  1  0  0  0  0
 20 31  1  0  0  0  0
 21 20  2  0  0  0  0
 22 24  2  0  0  0  0
 22 21  1  0  0  0  0
 23 22  1  0  0  0  0
 24 30  1  0  0  0  0
 25 24  1  0  0  0  0
 25 27  1  0  0  0  0
 26 25  1  0  0  0  0
 27 28  2  0  0  0  0
 28 29  1  0  0  0  0
 30 28  1  0  0  0  0
 30 31  2  0  0  0  0
M  END
>  <minimizedAffinity>
-5.8373642

$$$$

 OpenBabel03212520283D

 31 34  0  0  0  0  0  0  0  0999 V2000
   42.0460   69.3380   62.2350 C   0  0  0  0  0  0  0  0  0  0  0  0
   41.9320   70.3150   63.2180 C   0  0  0  0  0  0  0  0  0  0  0  0
   42.2950   71.4690   62.4970 C   0  0  0  0  0  0  0  0  0  0  0  0
   42.5930   71.1650   61.2040 N   0  0  0  0  0  0  0  0  0  0  0  0
   42.4350   69.8470   61.0560 N   0  0  0  0  0  0  0  0  0  0  0  0
   41.6490   70.2430   64.2360 H   0  0  0  0  0  0  0  0  0  0  0  0
   42.3140   72.4580   62.9810 H   0  0  0  0  0  0  0  0  0  0  0  0
   40.4070   66.1700   63.3060 C   0  0  0  0  0  0  0  0  0  0  0  0
   40.6290   67.5260   63.1180 C   0  0  0  0  0  0  0  0  0  0  0  0
   41.7790   67.9290   62.4510 C   0  0  0  0  0  0  0  0  0  0  0  0
   42.6380   66.9790   62.0120 N   0  0  0  0  0  0  0  0  0  0  0  0
   42.3840   65.6540   62.2160 C   0  0  0  0  0  0  0  0  0  0  0  0
   41.2830   65.2610   62.8550 N   0  0  0  0  0  0  0  0  0  0  0  0
   39.4910   65.9350   63.8340 H   0  0  0  0  0  0  0  0  0  0  0  0
   39.9320   68.2720   63.4760 H   0  0  0  0  0  0  0  0  0  0  0  0
   43.0650   64.8950   61.8680 H   0  0  0  0  0  0  0  0  0  0  0  0
   43.0010   72.1000   60.1910 C   0  0  0  0  0  0  0  0  0  0  0  0
   43.8370   72.6980   60.6380 H   0  0  0  0  0  0  0  0  0  0  0  0
   43.4580   71.5970   59.3080 H   0  0  0  0  0  0  0  0  0  0  0  0
   42.0690   74.3850   59.9830 C   0  0  0  0  0  3  0  0  0  0  0  0
   41.9200   73.0230   59.8290 C   0  0  0  0  0  0  0  0  0  0  0  0
   40.6880   72.6080   59.3140 C   0  0  0  0  0  0  0  0  0  0  0  0
   40.5130   71.5500   59.1690 H   0  0  0  0  0  0  0  0  0  0  0  0
   39.6900   73.5130   58.9830 C   0  0  0  0  0  0  0  0  0  0  0  0
   38.4500   73.4310   58.4880 N   0  0  0  0  0  0  0  0  0  0  0  0
   37.9730   72.5500   58.2380 H   0  0  0  0  0  0  0  0  0  0  0  0
   37.9210   74.6490   58.3650 N   0  0  0  0  0  0  0  0  0  0  0  0
   38.7790   75.5870   58.7700 C   0  0  0  0  0  0  0  0  0  0  0  0
   38.5850   76.6500   58.7690 H   0  0  0  0  0  0  0  0  0  0  0  0
   39.9050   74.8760   59.1640 C   0  0  0  0  0  0  0  0  0  0  0  0
   41.1170   75.3400   59.6750 C   0  0  0  0  0  3  0  0  0  0  0  0
  1 10  1  0  0  0  0
  1  2  1  0  0  0  0
  2  6  1  0  0  0  0
  3  7  1  0  0  0  0
  3  2  2  0  0  0  0
  4  3  1  0  0  0  0
  5  4  1  0  0  0  0
  5  1  2  0  0  0  0
  8 14  1  0  0  0  0
  9  8  1  0  0  0  0
  9 15  1  0  0  0  0
 10  9  2  0  0  0  0
 11 12  2  0  0  0  0
 11 10  1  0  0  0  0
 12 13  1  0  0  0  0
 13  8  2  0  0  0  0
 16 12  1  0  0  0  0
 17 18  1  0  0  0  0
 17  4  1  0  0  0  0
 19 17  1  0  0  0  0
 21 20  1  0  0  0  0
 21 17  1  0  0  0  0
 22 21  2  0  0  0  0
 23 22  1  0  0  0  0
 24 30  2  0  0  0  0
 24 22  1  0  0  0  0
 25 24  1  0  0  0  0
 26 25  1  0  0  0  0
 27 25  1  0  0  0  0
 27 28  2  0  0  0  0
 28 30  1  0  0  0  0
 29 28  1  0  0  0  0
 30 31  1  0  0  0  0
 31 20  2  0  0  0  0
M  END
>  <minimizedAffinity>
-5.65139675

$$$$

 OpenBabel03212520283D

 31 34  0  0  0  0  0  0  0  0999 V2000
   40.2120   74.3020   60.3270 C   0  0  0  0  0  0  0  0  0  0  0  0
   39.4080   73.6270   61.2370 C   0  0  0  0  0  0  0  0  0  0  0  0
   40.3320   72.7250   61.7990 C   0  0  0  0  0  0  0  0  0  0  0  0
   41.5650   72.8800   61.2440 N   0  0  0  0  0  0  0  0  0  0  0  0
   41.4780   73.8560   60.3380 N   0  0  0  0  0  0  0  0  0  0  0  0
   38.3800   73.7390   61.4700 H   0  0  0  0  0  0  0  0  0  0  0  0
   40.0270   72.0130   62.5820 H   0  0  0  0  0  0  0  0  0  0  0  0
   39.8120   77.6350   58.7140 C   0  0  0  0  0  0  0  0  0  0  0  0
   40.2840   76.6430   59.5590 C   0  0  0  0  0  0  0  0  0  0  0  0
   39.7450   75.3670   59.4590 C   0  0  0  0  0  0  0  0  0  0  0  0
   38.7790   75.1440   58.5370 N   0  0  0  0  0  0  0  0  0  0  0  0
   38.3420   76.1470   57.7220 C   0  0  0  0  0  0  0  0  0  0  0  0
   38.8530   77.3730   57.8130 N   0  0  0  0  0  0  0  0  0  0  0  0
   40.2800   78.6020   58.8520 H   0  0  0  0  0  0  0  0  0  0  0  0
   41.0570   76.8390   60.2910 H   0  0  0  0  0  0  0  0  0  0  0  0
   37.5720   75.9740   56.9870 H   0  0  0  0  0  0  0  0  0  0  0  0
   42.7420   72.1240   61.5820 C   0  0  0  0  0  0  0  0  0  0  0  0
   43.4160   72.1820   60.6890 H   0  0  0  0  0  0  0  0  0  0  0  0
   43.3270   72.5960   62.4050 H   0  0  0  0  0  0  0  0  0  0  0  0
   42.4650   70.1970   63.1120 C   0  0  0  0  0  3  0  0  0  0  0  0
   42.4340   70.7120   61.8340 C   0  0  0  0  0  0  0  0  0  0  0  0
   42.0950   69.8030   60.8270 C   0  0  0  0  0  0  0  0  0  0  0  0
   42.0540   70.1490   59.8030 H   0  0  0  0  0  0  0  0  0  0  0  0
   41.8100   68.4740   61.1070 C   0  0  0  0  0  0  0  0  0  0  0  0
   41.4660   67.3980   60.3900 N   0  0  0  0  0  0  0  0  0  0  0  0
   41.3400   67.3890   59.3650 H   0  0  0  0  0  0  0  0  0  0  0  0
   41.3100   66.3420   61.1890 N   0  0  0  0  0  0  0  0  0  0  0  0
   41.5410   66.6660   62.4630 C   0  0  0  0  0  0  0  0  0  0  0  0
   41.4800   65.9850   63.2990 H   0  0  0  0  0  0  0  0  0  0  0  0
   41.8600   68.0180   62.4210 C   0  0  0  0  0  0  0  0  0  0  0  0
   42.1930   68.8860   63.4600 C   0  0  0  0  0  3  0  0  0  0  0  0
  1  5  2  0  0  0  0
  1  2  1  0  0  0  0
  2  6  1  0  0  0  0
  2  3  2  0  0  0  0
  3  7  1  0  0  0  0
  4 17  1  0  0  0  0
  4  3  1  0  0  0  0
  5  4  1  0  0  0  0
  8 14  1  0  0  0  0
  8  9  1  0  0  0  0
  9 15  1  0  0  0  0
 10  9  2  0  0  0  0
 10  1  1  0  0  0  0
 11 10  1  0  0  0  0
 12 13  1  0  0  0  0
 12 11  2  0  0  0  0
 13  8  2  0  0  0  0
 16 12  1  0  0  0  0
 17 21  1  0  0  0  0
 17 19  1  0  0  0  0
 18 17  1  0  0  0  0
 20 31  1  0  0  0  0
 21 20  2  0  0  0  0
 22 24  2  0  0  0  0
 22 21  1  0  0  0  0
 23 22  1  0  0  0  0
 24 30  1  0  0  0  0
 25 24  1  0  0  0  0
 25 27  1  0  0  0  0
 26 25  1  0  0  0  0
 27 28  2  0  0  0  0
 28 29  1  0  0  0  0
 30 28  1  0  0  0  0
 30 31  2  0  0  0  0
M  END
>  <minimizedAffinity>
-5.64039612

$$$$

 OpenBabel03212520283D

 31 34  0  0  0  0  0  0  0  0999 V2000
   41.9050   69.3540   62.2750 C   0  0  0  0  0  0  0  0  0  0  0  0
   41.7850   70.3280   63.2590 C   0  0  0  0  0  0  0  0  0  0  0  0
   42.1440   71.4850   62.5400 C   0  0  0  0  0  0  0  0  0  0  0  0
   42.4450   71.1840   61.2470 N   0  0  0  0  0  0  0  0  0  0  0  0
   42.2920   69.8660   61.0960 N   0  0  0  0  0  0  0  0  0  0  0  0
   41.5030   70.2540   64.2770 H   0  0  0  0  0  0  0  0  0  0  0  0
   42.1590   72.4740   63.0250 H   0  0  0  0  0  0  0  0  0  0  0  0
   42.2840   65.6490   62.3070 C   0  0  0  0  0  0  0  0  0  0  0  0
   42.5680   66.9880   62.0860 C   0  0  0  0  0  0  0  0  0  0  0  0
   41.6430   67.9430   62.4890 C   0  0  0  0  0  0  0  0  0  0  0  0
   40.5000   67.5260   63.0810 N   0  0  0  0  0  0  0  0  0  0  0  0
   40.2570   66.1990   63.2820 C   0  0  0  0  0  0  0  0  0  0  0  0
   41.1390   65.2770   62.8980 N   0  0  0  0  0  0  0  0  0  0  0  0
   43.0520   64.9660   61.9650 H   0  0  0  0  0  0  0  0  0  0  0  0
   43.4870   67.3040   61.6100 H   0  0  0  0  0  0  0  0  0  0  0  0
   39.3470   65.8620   63.7530 H   0  0  0  0  0  0  0  0  0  0  0  0
   42.8500   72.1230   60.2360 C   0  0  0  0  0  0  0  0  0  0  0  0
   43.6410   72.7630   60.7040 H   0  0  0  0  0  0  0  0  0  0  0  0
   43.3610   71.6280   59.3780 H   0  0  0  0  0  0  0  0  0  0  0  0
   40.6850   72.4940   59.0920 C   0  0  0  0  0  3  0  0  0  0  0  0
   41.7440   72.9920   59.8190 C   0  0  0  0  0  0  0  0  0  0  0  0
   41.6780   74.3570   60.1180 C   0  0  0  0  0  0  0  0  0  0  0  0
   42.4810   74.8060   60.6880 H   0  0  0  0  0  0  0  0  0  0  0  0
   40.6140   75.1470   59.7060 C   0  0  0  0  0  0  0  0  0  0  0  0
   40.2740   76.4350   59.8300 N   0  0  0  0  0  0  0  0  0  0  0  0
   40.8350   77.1470   60.3250 H   0  0  0  0  0  0  0  0  0  0  0  0
   39.1100   76.6650   59.2220 N   0  0  0  0  0  0  0  0  0  0  0  0
   38.6280   75.5490   58.6710 C   0  0  0  0  0  0  0  0  0  0  0  0
   37.7000   75.4770   58.1230 H   0  0  0  0  0  0  0  0  0  0  0  0
   39.5760   74.5790   58.9730 C   0  0  0  0  0  0  0  0  0  0  0  0
   39.5950   73.2230   58.6500 C   0  0  0  0  0  3  0  0  0  0  0  0
  1 10  1  0  0  0  0
  1  2  1  0  0  0  0
  2  6  1  0  0  0  0
  3  7  1  0  0  0  0
  3  2  2  0  0  0  0
  4  3  1  0  0  0  0
  5  4  1  0  0  0  0
  5  1  2  0  0  0  0
  8 13  1  0  0  0  0
  9  8  2  0  0  0  0
  9 10  1  0  0  0  0
 10 11  2  0  0  0  0
 11 12  1  0  0  0  0
 12 16  1  0  0  0  0
 13 12  2  0  0  0  0
 14  8  1  0  0  0  0
 15  9  1  0  0  0  0
 17 18  1  0  0  0  0
 17  4  1  0  0  0  0
 19 17  1  0  0  0  0
 20 21  1  0  0  0  0
 21 22  2  0  0  0  0
 21 17  1  0  0  0  0
 22 23  1  0  0  0  0
 24 25  1  0  0  0  0
 24 22  1  0  0  0  0
 25 26  1  0  0  0  0
 27 25  1  0  0  0  0
 28 30  1  0  0  0  0
 28 27  2  0  0  0  0
 29 28  1  0  0  0  0
 30 24  2  0  0  0  0
 31 30  1  0  0  0  0
 31 20  2  0  0  0  0
M  END
>  <minimizedAffinity>
-5.61699677

$$$$

 OpenBabel03212520283D

 31 34  0  0  0  0  0  0  0  0999 V2000
   42.3340   69.2530   60.7670 C   0  0  0  0  0  0  0  0  0  0  0  0
   43.1990   70.2020   61.2980 C   0  0  0  0  0  0  0  0  0  0  0  0
   42.8540   71.3370   60.5400 C   0  0  0  0  0  0  0  0  0  0  0  0
   41.8700   71.0480   59.6460 N   0  0  0  0  0  0  0  0  0  0  0  0
   41.5570   69.7600   59.7970 N   0  0  0  0  0  0  0  0  0  0  0  0
   43.9260   70.1250   62.0650 H   0  0  0  0  0  0  0  0  0  0  0  0
   43.3590   72.3030   60.7010 H   0  0  0  0  0  0  0  0  0  0  0  0
   42.4850   65.5310   60.7700 C   0  0  0  0  0  0  0  0  0  0  0  0
   42.5540   66.8400   60.3170 C   0  0  0  0  0  0  0  0  0  0  0  0
   42.2720   67.8710   61.2040 C   0  0  0  0  0  0  0  0  0  0  0  0
   41.9410   67.5540   62.4780 N   0  0  0  0  0  0  0  0  0  0  0  0
   41.8840   66.2540   62.8860 C   0  0  0  0  0  0  0  0  0  0  0  0
   42.1530   65.2600   62.0410 N   0  0  0  0  0  0  0  0  0  0  0  0
   42.7180   64.7850   60.0200 H   0  0  0  0  0  0  0  0  0  0  0  0
   42.8210   67.0750   59.2940 H   0  0  0  0  0  0  0  0  0  0  0  0
   41.6200   65.9980   63.8990 H   0  0  0  0  0  0  0  0  0  0  0  0
   41.2800   71.9720   58.7150 C   0  0  0  0  0  0  0  0  0  0  0  0
   42.0900   72.2440   57.9900 H   0  0  0  0  0  0  0  0  0  0  0  0
   40.4910   71.4960   58.0870 H   0  0  0  0  0  0  0  0  0  0  0  0
   39.8130   73.1680   60.3120 C   0  0  0  0  0  3  0  0  0  0  0  0
   40.8230   73.2000   59.3740 C   0  0  0  0  0  0  0  0  0  0  0  0
   41.3590   74.4650   59.1120 C   0  0  0  0  0  0  0  0  0  0  0  0
   42.1550   74.5540   58.3850 H   0  0  0  0  0  0  0  0  0  0  0  0
   40.8980   75.6040   59.7580 C   0  0  0  0  0  0  0  0  0  0  0  0
   41.1960   76.9080   59.7250 N   0  0  0  0  0  0  0  0  0  0  0  0
   41.9230   77.3320   59.1260 H   0  0  0  0  0  0  0  0  0  0  0  0
   40.4200   77.5780   60.5770 N   0  0  0  0  0  0  0  0  0  0  0  0
   39.5790   76.7570   61.2090 C   0  0  0  0  0  0  0  0  0  0  0  0
   38.8500   77.0600   61.9460 H   0  0  0  0  0  0  0  0  0  0  0  0
   39.8750   75.5010   60.6950 C   0  0  0  0  0  0  0  0  0  0  0  0
   39.3070   74.2620   60.9910 C   0  0  0  0  0  3  0  0  0  0  0  0
  1 10  1  0  0  0  0
  1  2  1  0  0  0  0
  2  6  1  0  0  0  0
  3  7  1  0  0  0  0
  3  2  2  0  0  0  0
  4  5  1  0  0  0  0
  4  3  1  0  0  0  0
  5  1  2  0  0  0  0
  8 13  1  0  0  0  0
  9  8  2  0  0  0  0
  9 10  1  0  0  0  0
 10 11  2  0  0  0  0
 11 12  1  0  0  0  0
 12 16  1  0  0  0  0
 13 12  2  0  0  0  0
 14  8  1  0  0  0  0
 15  9  1  0  0  0  0
 17 21  1  0  0  0  0
 17  4  1  0  0  0  0
 18 17  1  0  0  0  0
 19 17  1  0  0  0  0
 20 31  1  0  0  0  0
 21 20  2  0  0  0  0
 22 21  1  0  0  0  0
 22 24  2  0  0  0  0
 23 22  1  0  0  0  0
 24 30  1  0  0  0  0
 25 24  1  0  0  0  0
 25 27  1  0  0  0  0
 26 25  1  0  0  0  0
 27 28  2  0  0  0  0
 28 29  1  0  0  0  0
 30 31  2  0  0  0  0
 30 28  1  0  0  0  0
M  END
>  <minimizedAffinity>
-5.49056482

$$$$

 OpenBabel03212520283D

 31 34  0  0  0  0  0  0  0  0999 V2000
   41.5500   74.2920   60.0660 C   0  0  0  0  0  0  0  0  0  0  0  0
   42.4520   75.0270   59.3060 C   0  0  0  0  0  0  0  0  0  0  0  0
   41.6310   76.0770   58.8520 C   0  0  0  0  0  0  0  0  0  0  0  0
   40.3610   75.9430   59.3210 N   0  0  0  0  0  0  0  0  0  0  0  0
   40.3240   74.8380   60.0690 N   0  0  0  0  0  0  0  0  0  0  0  0
   43.4810   74.8680   59.1050 H   0  0  0  0  0  0  0  0  0  0  0  0
   42.0330   76.8720   58.2030 H   0  0  0  0  0  0  0  0  0  0  0  0
   42.9570   70.9390   60.8740 C   0  0  0  0  0  0  0  0  0  0  0  0
   42.6550   72.0910   60.1640 C   0  0  0  0  0  0  0  0  0  0  0  0
   41.8870   73.0730   60.7770 C   0  0  0  0  0  0  0  0  0  0  0  0
   41.4640   72.8640   62.0460 N   0  0  0  0  0  0  0  0  0  0  0  0
   41.7820   71.7170   62.7120 C   0  0  0  0  0  0  0  0  0  0  0  0
   42.5180   70.7710   62.1300 N   0  0  0  0  0  0  0  0  0  0  0  0
   43.5580   70.2220   60.3300 H   0  0  0  0  0  0  0  0  0  0  0  0
   43.0020   72.2420   59.1500 H   0  0  0  0  0  0  0  0  0  0  0  0
   41.4470   71.5470   63.7220 H   0  0  0  0  0  0  0  0  0  0  0  0
   39.2660   76.8360   59.0540 C   0  0  0  0  0  0  0  0  0  0  0  0
   38.5650   76.7380   59.9230 H   0  0  0  0  0  0  0  0  0  0  0  0
   39.5780   77.9060   59.0660 H   0  0  0  0  0  0  0  0  0  0  0  0
   37.9350   75.2320   57.7170 C   0  0  0  0  0  3  0  0  0  0  0  0
   38.5390   76.4650   57.8350 C   0  0  0  0  0  0  0  0  0  0  0  0
   38.4060   77.3080   56.7270 C   0  0  0  0  0  0  0  0  0  0  0  0
   38.8590   78.2900   56.7600 H   0  0  0  0  0  0  0  0  0  0  0  0
   37.7110   76.9200   55.5900 C   0  0  0  0  0  0  0  0  0  0  0  0
   37.4180   77.4790   54.4100 N   0  0  0  0  0  0  0  0  0  0  0  0
   37.7070   78.4260   54.1190 H   0  0  0  0  0  0  0  0  0  0  0  0
   36.7010   76.6360   53.6670 N   0  0  0  0  0  0  0  0  0  0  0  0
   36.4860   75.4880   54.3140 C   0  0  0  0  0  0  0  0  0  0  0  0
   35.9330   74.6480   53.9230 H   0  0  0  0  0  0  0  0  0  0  0  0
   37.1240   75.6590   55.5360 C   0  0  0  0  0  0  0  0  0  0  0  0
   37.2290   74.7820   56.6150 C   0  0  0  0  0  3  0  0  0  0  0  0
  1  5  2  0  0  0  0
  1 10  1  0  0  0  0
  2  1  1  0  0  0  0
  3  2  2  0  0  0  0
  3  4  1  0  0  0  0
  4  5  1  0  0  0  0
  6  2  1  0  0  0  0
  7  3  1  0  0  0  0
  8 13  1  0  0  0  0
  9 10  1  0  0  0  0
  9  8  2  0  0  0  0
 10 11  2  0  0  0  0
 11 12  1  0  0  0  0
 12 16  1  0  0  0  0
 13 12  2  0  0  0  0
 14  8  1  0  0  0  0
 15  9  1  0  0  0  0
 17 19  1  0  0  0  0
 17  4  1  0  0  0  0
 17 18  1  0  0  0  0
 20 21  1  0  0  0  0
 21 17  1  0  0  0  0
 22 23  1  0  0  0  0
 22 21  2  0  0  0  0
 24 22  1  0  0  0  0
 25 24  1  0  0  0  0
 26 25  1  0  0  0  0
 27 28  2  0  0  0  0
 27 25  1  0  0  0  0
 28 30  1  0  0  0  0
 29 28  1  0  0  0  0
 30 24  2  0  0  0  0
 30 31  1  0  0  0  0
 31 20  2  0  0  0  0
M  END
>  <minimizedAffinity>
-5.46031475

$$$$

 OpenBabel03212520283D

 31 34  0  0  0  0  0  0  0  0999 V2000
   41.2550   72.8900   60.9850 C   0  0  0  0  0  0  0  0  0  0  0  0
   42.0610   72.0710   60.2050 C   0  0  0  0  0  0  0  0  0  0  0  0
   42.2830   70.9930   61.0840 C   0  0  0  0  0  0  0  0  0  0  0  0
   41.6480   71.1910   62.2720 N   0  0  0  0  0  0  0  0  0  0  0  0
   41.0180   72.3650   62.1970 N   0  0  0  0  0  0  0  0  0  0  0  0
   42.4260   72.1930   59.2180 H   0  0  0  0  0  0  0  0  0  0  0  0
   42.9010   70.1320   60.7830 H   0  0  0  0  0  0  0  0  0  0  0  0
   40.8100   76.0870   59.1270 C   0  0  0  0  0  0  0  0  0  0  0  0
   41.3430   74.8690   59.5190 C   0  0  0  0  0  0  0  0  0  0  0  0
   40.7260   74.1680   60.5480 C   0  0  0  0  0  0  0  0  0  0  0  0
   39.6270   74.7060   61.1270 N   0  0  0  0  0  0  0  0  0  0  0  0
   39.1320   75.9080   60.7130 C   0  0  0  0  0  0  0  0  0  0  0  0
   39.7190   76.5850   59.7280 N   0  0  0  0  0  0  0  0  0  0  0  0
   41.3450   76.5720   58.3200 H   0  0  0  0  0  0  0  0  0  0  0  0
   42.2230   74.4530   59.0440 H   0  0  0  0  0  0  0  0  0  0  0  0
   38.2580   76.3400   61.1720 H   0  0  0  0  0  0  0  0  0  0  0  0
   41.6610   70.2920   63.3940 C   0  0  0  0  0  0  0  0  0  0  0  0
   42.2140   70.8230   64.2120 H   0  0  0  0  0  0  0  0  0  0  0  0
   40.6420   70.1200   63.8120 H   0  0  0  0  0  0  0  0  0  0  0  0
   41.7580   68.0270   62.4000 C   0  0  0  0  0  3  0  0  0  0  0  0
   42.3740   69.0470   63.0920 C   0  0  0  0  0  0  0  0  0  0  0  0
   43.6980   68.8020   63.4710 C   0  0  0  0  0  0  0  0  0  0  0  0
   44.2350   69.5660   64.0170 H   0  0  0  0  0  0  0  0  0  0  0  0
   44.3380   67.6090   63.1660 C   0  0  0  0  0  0  0  0  0  0  0  0
   45.5540   67.0930   63.3820 N   0  0  0  0  0  0  0  0  0  0  0  0
   46.3170   67.5750   63.8840 H   0  0  0  0  0  0  0  0  0  0  0  0
   45.6360   65.8700   62.8570 N   0  0  0  0  0  0  0  0  0  0  0  0
   44.4880   65.5210   62.2730 C   0  0  0  0  0  0  0  0  0  0  0  0
   44.3030   64.5800   61.7780 H   0  0  0  0  0  0  0  0  0  0  0  0
   43.6570   66.6190   62.4640 C   0  0  0  0  0  0  0  0  0  0  0  0
   42.3360   66.8150   62.0640 C   0  0  0  0  0  3  0  0  0  0  0  0
  1  5  2  0  0  0  0
  2  1  1  0  0  0  0
  2  3  2  0  0  0  0
  3  4  1  0  0  0  0
  4 17  1  0  0  0  0
  5  4  1  0  0  0  0
  6  2  1  0  0  0  0
  7  3  1  0  0  0  0
  8  9  2  0  0  0  0
  8 13  1  0  0  0  0
  9 10  1  0  0  0  0
 10  1  1  0  0  0  0
 10 11  2  0  0  0  0
 12 11  1  0  0  0  0
 12 16  1  0  0  0  0
 13 12  2  0  0  0  0
 14  8  1  0  0  0  0
 15  9  1  0  0  0  0
 17 19  1  0  0  0  0
 17 18  1  0  0  0  0
 20 21  1  0  0  0  0
 21 17  1  0  0  0  0
 21 22  2  0  0  0  0
 22 23  1  0  0  0  0
 24 25  1  0  0  0  0
 24 22  1  0  0  0  0
 25 26  1  0  0  0  0
 27 25  1  0  0  0  0
 28 30  1  0  0  0  0
 28 27  2  0  0  0  0
 29 28  1  0  0  0  0
 30 24  2  0  0  0  0
 31 20  2  0  0  0  0
 31 30  1  0  0  0  0
M  END
>  <minimizedAffinity>
-5.39137554

$$$$
