
 OpenBabel03212521063D

 39 43  0  0  0  0  0  0  0  0999 V2000
   41.2100   84.3790   59.1920 C   0  0  0  0  0  0  0  0  0  0  0  0
   40.7570   85.6310   58.7710 C   0  0  0  0  0  0  0  0  0  0  0  0
   40.9860   86.0810   57.4770 C   0  0  0  0  0  0  0  0  0  0  0  0
   41.6540   85.2680   56.6610 N   0  0  0  0  0  0  0  0  0  0  0  0
   42.1020   84.0450   57.0550 C   0  0  0  0  0  0  0  0  0  0  0  0
   41.8750   83.6150   58.3180 N   0  0  0  0  0  0  0  0  0  0  0  0
   40.2040   86.3410   59.3980 H   0  0  0  0  0  0  0  0  0  0  0  0
   40.6340   87.0600   57.1400 H   0  0  0  0  0  0  0  0  0  0  0  0
   42.3250   83.0040   54.8550 C   0  0  0  0  0  3  0  0  0  0  0  0
   42.8390   83.1560   56.1450 C   0  0  0  0  0  0  0  0  0  0  0  0
   43.9860   82.5020   56.5540 C   0  0  0  0  0  0  0  0  0  0  0  0
   44.3750   82.6280   57.5580 H   0  0  0  0  0  0  0  0  0  0  0  0
   44.6360   81.6780   55.6530 C   0  0  0  0  0  0  0  0  0  0  0  0
   45.7540   80.9230   55.7550 N   0  0  0  0  0  0  0  0  0  0  0  0
   46.3480   80.8410   56.6070 H   0  0  0  0  0  0  0  0  0  0  0  0
   45.9710   80.3080   54.6070 N   0  0  0  0  0  0  0  0  0  0  0  0
   45.0240   80.6230   53.7090 C   0  0  0  0  0  0  0  0  0  0  0  0
   44.9190   80.2890   52.6910 H   0  0  0  0  0  0  0  0  0  0  0  0
   44.1820   81.4850   54.3640 C   0  0  0  0  0  0  0  0  0  0  0  0
   43.0320   82.1570   53.9970 C   0  0  0  0  0  3  0  0  0  0  0  0
   41.8200   84.2410   61.5750 C   0  0  0  0  0  0  0  0  0  0  0  0
   41.4360   83.9610   62.8810 C   0  0  0  0  0  0  0  0  0  0  0  0
   40.1510   83.5580   63.1970 C   0  0  0  0  0  0  0  0  0  0  0  0
   39.2090   83.4240   62.1810 C   0  0  0  0  0  0  0  0  0  0  0  0
   39.5860   83.7010   60.8680 C   0  0  0  0  0  0  0  0  0  0  0  0
   40.8700   84.1040   60.5650 C   0  0  0  0  0  0  0  0  0  0  0  0
   42.1820   84.0690   63.6700 H   0  0  0  0  0  0  0  0  0  0  0  0
   39.8780   83.3460   64.2240 H   0  0  0  0  0  0  0  0  0  0  0  0
   38.2070   83.1100   62.4170 H   0  0  0  0  0  0  0  0  0  0  0  0
   38.8370   83.5910   60.0970 H   0  0  0  0  0  0  0  0  0  0  0  0
   45.3680   84.1050   60.7370 C   0  0  0  0  0  0  0  0  0  0  0  0
   45.7490   85.4470   60.7810 C   0  0  0  0  0  0  0  0  0  0  0  0
   44.7730   86.4110   61.1020 C   0  0  0  0  0  0  0  0  0  0  0  0
   43.5110   85.9780   61.3530 N   0  0  0  0  0  0  0  0  0  0  0  0
   43.1730   84.6580   61.3020 C   0  0  0  0  0  0  0  0  0  0  0  0
   44.0990   83.7700   60.9990 N   0  0  0  0  0  0  0  0  0  0  0  0
   46.1420   83.4110   60.4890 H   0  0  0  0  0  0  0  0  0  0  0  0
   46.7550   85.7910   60.5800 H   0  0  0  0  0  0  0  0  0  0  0  0
   44.9880   87.4860   61.1580 H   0  0  0  0  0  0  0  0  0  0  0  0
  1 26  1  0  0  0  0
  2  1  1  0  0  0  0
  2  7  1  0  0  0  0
  3  2  2  0  0  0  0
  4  5  2  0  0  0  0
  4  3  1  0  0  0  0
  5  6  1  0  0  0  0
  6  1  2  0  0  0  0
  8  3  1  0  0  0  0
  9 10  1  0  0  0  0
 10 11  2  0  0  0  0
 10  5  1  0  0  0  0
 11 12  1  0  0  0  0
 13 14  1  0  0  0  0
 13 11  1  0  0  0  0
 14 15  1  0  0  0  0
 16 14  1  0  0  0  0
 17 19  1  0  0  0  0
 17 16  2  0  0  0  0
 18 17  1  0  0  0  0
 19 13  2  0  0  0  0
 20 19  1  0  0  0  0
 20  9  2  0  0  0  0
 21 22  1  0  0  0  0
 22 23  2  0  0  0  0
 22 27  1  0  0  0  0
 23 28  1  0  0  0  0
 24 29  1  0  0  0  0
 24 23  1  0  0  0  0
 25 24  2  0  0  0  0
 26 25  1  0  0  0  0
 26 21  2  0  0  0  0
 30 25  1  0  0  0  0
 31 32  2  0  0  0  0
 31 36  1  0  0  0  0
 32 33  1  0  0  0  0
 33 39  1  0  0  0  0
 33 34  2  0  0  0  0
 35 34  1  0  0  0  0
 35 21  1  0  0  0  0
 36 35  2  0  0  0  0
 37 31  1  0  0  0  0
 38 32  1  0  0  0  0
M  END
>  <minimizedAffinity>
-5.41990471

>  <minimizedRMSD>
0.0928612649

$$$$
