
 OpenBabel03212520263D

 31 34  0  0  0  0  0  0  0  0999 V2000
   42.3720   84.8620   60.8920 C   0  0  0  0  0  0  0  0  0  0  0  0
   43.4500   85.2570   61.6750 C   0  0  0  0  0  0  0  0  0  0  0  0
   44.0420   86.2320   60.8500 C   0  0  0  0  0  0  0  0  0  0  0  0
   43.3500   86.3750   59.6870 N   0  0  0  0  0  0  0  0  0  0  0  0
   42.3220   85.5240   59.7250 N   0  0  0  0  0  0  0  0  0  0  0  0
   43.7640   84.9350   62.6340 H   0  0  0  0  0  0  0  0  0  0  0  0
   44.9490   86.7710   61.1680 H   0  0  0  0  0  0  0  0  0  0  0  0
   40.8510   81.5860   61.7990 C   0  0  0  0  0  0  0  0  0  0  0  0
   41.7990   82.5250   61.4250 C   0  0  0  0  0  0  0  0  0  0  0  0
   41.4080   83.8510   61.2820 C   0  0  0  0  0  0  0  0  0  0  0  0
   40.1130   84.1710   61.5130 N   0  0  0  0  0  0  0  0  0  0  0  0
   39.2090   83.2180   61.8800 C   0  0  0  0  0  0  0  0  0  0  0  0
   39.5770   81.9450   62.0190 N   0  0  0  0  0  0  0  0  0  0  0  0
   41.2310   80.5760   61.8900 H   0  0  0  0  0  0  0  0  0  0  0  0
   42.8310   82.2520   61.2440 H   0  0  0  0  0  0  0  0  0  0  0  0
   38.1770   83.4680   62.0650 H   0  0  0  0  0  0  0  0  0  0  0  0
   43.6760   87.2810   58.6180 C   0  0  0  0  0  0  0  0  0  0  0  0
   42.8300   87.2160   57.8870 H   0  0  0  0  0  0  0  0  0  0  0  0
   43.6780   88.3450   58.9500 H   0  0  0  0  0  0  0  0  0  0  0  0
   45.0200   85.6670   57.3060 C   0  0  0  0  0  3  0  0  0  0  0  0
   44.9100   86.8940   57.9270 C   0  0  0  0  0  0  0  0  0  0  0  0
   46.0410   87.7130   57.8450 C   0  0  0  0  0  0  0  0  0  0  0  0
   46.0150   88.6870   58.3130 H   0  0  0  0  0  0  0  0  0  0  0  0
   47.1910   87.3090   57.1820 C   0  0  0  0  0  0  0  0  0  0  0  0
   48.3930   87.8440   56.9360 N   0  0  0  0  0  0  0  0  0  0  0  0
   48.6950   88.7800   57.2510 H   0  0  0  0  0  0  0  0  0  0  0  0
   49.1390   86.9970   56.2310 N   0  0  0  0  0  0  0  0  0  0  0  0
   48.4740   85.8670   55.9760 C   0  0  0  0  0  0  0  0  0  0  0  0
   48.8640   85.0270   55.4200 H   0  0  0  0  0  0  0  0  0  0  0  0
   47.2350   86.0560   56.5750 C   0  0  0  0  0  0  0  0  0  0  0  0
   46.1340   85.2030   56.6290 C   0  0  0  0  0  3  0  0  0  0  0  0
  1 10  1  0  0  0  0
  1  2  1  0  0  0  0
  2  6  1  0  0  0  0
  3  7  1  0  0  0  0
  3  2  2  0  0  0  0
  4  5  1  0  0  0  0
  4  3  1  0  0  0  0
  5  1  2  0  0  0  0
  8 14  1  0  0  0  0
  8 13  1  0  0  0  0
  9  8  2  0  0  0  0
 10  9  1  0  0  0  0
 10 11  2  0  0  0  0
 11 12  1  0  0  0  0
 12 13  2  0  0  0  0
 12 16  1  0  0  0  0
 15  9  1  0  0  0  0
 17 19  1  0  0  0  0
 17  4  1  0  0  0  0
 18 17  1  0  0  0  0
 20 21  1  0  0  0  0
 21 17  1  0  0  0  0
 22 21  2  0  0  0  0
 22 23  1  0  0  0  0
 24 22  1  0  0  0  0
 25 24  1  0  0  0  0
 25 26  1  0  0  0  0
 27 25  1  0  0  0  0
 28 27  2  0  0  0  0
 28 30  1  0  0  0  0
 29 28  1  0  0  0  0
 30 31  1  0  0  0  0
 30 24  2  0  0  0  0
 31 20  2  0  0  0  0
M  END
>  <minimizedAffinity>
-4.27341175

>  <minimizedRMSD>
0.91849196

$$$$
