
 OpenBabel03212520153D

 35 38  0  0  0  0  0  0  0  0999 V2000
   42.1200   84.1580   58.3730 Cl  0  0  0  0  0  0  0  0  0  0  0  0
   41.2280   82.6610   58.2030 C   0  0  0  0  0  0  0  0  0  0  0  0
   40.7070   81.9710   59.2860 C   0  0  0  0  0  0  0  0  0  0  0  0
   40.0260   80.7990   58.9800 C   0  0  0  0  0  0  0  0  0  0  0  0
   39.8250   80.2720   57.7260 C   0  0  0  0  0  0  0  0  0  0  0  0
   40.3590   80.9880   56.6830 C   0  0  0  0  0  0  0  0  0  0  0  0
   40.1680   80.4170   55.0330 Cl  0  0  0  0  0  0  0  0  0  0  0  0
   41.0530   82.1730   56.9310 C   0  0  0  0  0  0  0  0  0  0  0  0
   39.6260   80.2730   59.8470 H   0  0  0  0  0  0  0  0  0  0  0  0
   39.2800   79.3520   57.5960 H   0  0  0  0  0  0  0  0  0  0  0  0
   41.9660   82.2280   61.4750 C   0  0  0  0  0  0  0  0  0  0  0  0
   40.8960   82.4870   60.5990 C   0  0  0  0  0  0  0  0  0  0  0  0
   39.8930   83.3470   61.0420 C   0  0  0  0  0  0  0  0  0  0  0  0
   40.0190   83.8730   62.2890 N   0  0  0  0  0  0  0  0  0  0  0  0
   41.0530   83.6050   63.1050 C   0  0  0  0  0  0  0  0  0  0  0  0
   42.0300   82.7790   62.6940 N   0  0  0  0  0  0  0  0  0  0  0  0
   42.7210   81.5490   61.0770 H   0  0  0  0  0  0  0  0  0  0  0  0
   39.0150   83.6380   60.4810 H   0  0  0  0  0  0  0  0  0  0  0  0
   41.0310   84.2670   64.4330 C   0  0  0  0  0  0  0  0  0  0  0  0
   40.7280   85.6200   64.3240 F   0  0  0  0  0  0  0  0  0  0  0  0
   40.0770   83.6730   65.2460 F   0  0  0  0  0  0  0  0  0  0  0  0
   42.2820   84.2330   65.0400 F   0  0  0  0  0  0  0  0  0  0  0  0
   41.5660   82.8470   55.8310 O   0  0  0  0  0  0  0  0  0  0  0  0
   43.6890   84.0140   55.2250 C   0  0  0  0  0  3  0  0  0  0  0  0
   42.9230   82.9350   55.5580 C   0  0  0  0  0  0  0  0  0  0  0  0
   43.5150   81.6730   55.6680 C   0  0  0  0  0  0  0  0  0  0  0  0
   43.0160   80.7300   55.9270 H   0  0  0  0  0  0  0  0  0  0  0  0
   44.8750   81.4840   55.4440 C   0  0  0  0  0  0  0  0  0  0  0  0
   45.7240   80.4410   55.4660 N   0  0  0  0  0  0  0  0  0  0  0  0
   45.4340   79.4630   55.6930 H   0  0  0  0  0  0  0  0  0  0  0  0
   46.9540   80.8480   55.1620 N   0  0  0  0  0  0  0  0  0  0  0  0
   46.9450   82.1860   54.9290 C   0  0  0  0  0  0  0  0  0  0  0  0
   47.8020   82.7850   54.6620 H   0  0  0  0  0  0  0  0  0  0  0  0
   45.6290   82.5900   55.1070 C   0  0  0  0  0  0  0  0  0  0  0  0
   45.0500   83.8300   54.9990 C   0  0  0  0  0  3  0  0  0  0  0  0
  2  1  1  0  0  0  0
  2  3  1  0  0  0  0
  3 12  1  0  0  0  0
  4  3  2  0  0  0  0
  4  9  1  0  0  0  0
  5  4  1  0  0  0  0
  6  8  1  0  0  0  0
  6  5  2  0  0  0  0
  7  6  1  0  0  0  0
  8  2  2  0  0  0  0
 10  5  1  0  0  0  0
 11 16  1  0  0  0  0
 12 13  1  0  0  0  0
 12 11  2  0  0  0  0
 13 14  2  0  0  0  0
 14 15  1  0  0  0  0
 15 19  1  0  0  0  0
 16 15  2  0  0  0  0
 17 11  1  0  0  0  0
 18 13  1  0  0  0  0
 19 22  1  0  0  0  0
 19 21  1  0  0  0  0
 20 19  1  0  0  0  0
 23  8  1  0  0  0  0
 24 25  1  0  0  0  0
 25 26  2  0  0  0  0
 25 23  1  0  0  0  0
 26 27  1  0  0  0  0
 28 29  1  0  0  0  0
 28 26  1  0  0  0  0
 29 30  1  0  0  0  0
 31 29  1  0  0  0  0
 32 34  1  0  0  0  0
 32 31  2  0  0  0  0
 33 32  1  0  0  0  0
 34 28  2  0  0  0  0
 35 34  1  0  0  0  0
 35 24  2  0  0  0  0
M  END
>  <minimizedAffinity>
-5.08000851

>  <minimizedRMSD>
0.945001006

$$$$
