
 OpenBabel03212520163D

 35 38  0  0  0  0  0  0  0  0999 V2000
   42.1030   84.0750   58.3600 Cl  0  0  0  0  0  0  0  0  0  0  0  0
   41.1970   82.5840   58.2150 C   0  0  0  0  0  0  0  0  0  0  0  0
   40.6790   81.9110   59.3100 C   0  0  0  0  0  0  0  0  0  0  0  0
   39.9850   80.7420   59.0230 C   0  0  0  0  0  0  0  0  0  0  0  0
   39.7700   80.2020   57.7780 C   0  0  0  0  0  0  0  0  0  0  0  0
   40.3020   80.9010   56.7220 C   0  0  0  0  0  0  0  0  0  0  0  0
   40.0940   80.3120   55.0800 Cl  0  0  0  0  0  0  0  0  0  0  0  0
   41.0080   82.0830   56.9500 C   0  0  0  0  0  0  0  0  0  0  0  0
   39.5880   80.2300   59.9000 H   0  0  0  0  0  0  0  0  0  0  0  0
   39.2170   79.2850   57.6620 H   0  0  0  0  0  0  0  0  0  0  0  0
   41.9780   82.2190   61.4690 C   0  0  0  0  0  0  0  0  0  0  0  0
   40.8820   82.4420   60.6150 C   0  0  0  0  0  0  0  0  0  0  0  0
   39.8650   83.2750   61.0750 C   0  0  0  0  0  0  0  0  0  0  0  0
   40.0040   83.8130   62.3160 N   0  0  0  0  0  0  0  0  0  0  0  0
   41.0640   83.5800   63.1100 C   0  0  0  0  0  0  0  0  0  0  0  0
   42.0540   82.7790   62.6820 N   0  0  0  0  0  0  0  0  0  0  0  0
   42.7430   81.5590   61.0580 H   0  0  0  0  0  0  0  0  0  0  0  0
   38.9670   83.5370   60.5330 H   0  0  0  0  0  0  0  0  0  0  0  0
   41.0520   84.2500   64.4340 C   0  0  0  0  0  0  0  0  0  0  0  0
   40.7450   85.6010   64.3210 F   0  0  0  0  0  0  0  0  0  0  0  0
   40.1070   83.6590   65.2600 F   0  0  0  0  0  0  0  0  0  0  0  0
   42.3090   84.2220   65.0300 F   0  0  0  0  0  0  0  0  0  0  0  0
   41.5190   82.7390   55.8380 O   0  0  0  0  0  0  0  0  0  0  0  0
   43.8060   81.7410   55.7740 C   0  0  0  0  0  3  0  0  0  0  0  0
   42.7410   82.4240   55.2640 C   0  0  0  0  0  0  0  0  0  0  0  0
   42.8000   82.9250   53.9600 C   0  0  0  0  0  0  0  0  0  0  0  0
   42.0190   83.4890   53.4330 H   0  0  0  0  0  0  0  0  0  0  0  0
   43.9240   82.7460   53.1610 C   0  0  0  0  0  0  0  0  0  0  0  0
   44.2880   83.0890   51.9120 N   0  0  0  0  0  0  0  0  0  0  0  0
   43.6780   83.6280   51.2560 H   0  0  0  0  0  0  0  0  0  0  0  0
   45.5160   82.6430   51.6570 N   0  0  0  0  0  0  0  0  0  0  0  0
   45.9960   81.9860   52.7440 C   0  0  0  0  0  0  0  0  0  0  0  0
   46.9660   81.5210   52.8230 H   0  0  0  0  0  0  0  0  0  0  0  0
   44.9890   82.0520   53.6970 C   0  0  0  0  0  0  0  0  0  0  0  0
   44.9340   81.5580   54.9790 C   0  0  0  0  0  3  0  0  0  0  0  0
  2  1  1  0  0  0  0
  2  3  1  0  0  0  0
  3 12  1  0  0  0  0
  4  3  2  0  0  0  0
  4  9  1  0  0  0  0
  5  4  1  0  0  0  0
  6  8  1  0  0  0  0
  6  5  2  0  0  0  0
  7  6  1  0  0  0  0
  8  2  2  0  0  0  0
 10  5  1  0  0  0  0
 11 16  1  0  0  0  0
 12 13  1  0  0  0  0
 12 11  2  0  0  0  0
 13 14  2  0  0  0  0
 14 15  1  0  0  0  0
 15 19  1  0  0  0  0
 16 15  2  0  0  0  0
 17 11  1  0  0  0  0
 18 13  1  0  0  0  0
 19 22  1  0  0  0  0
 19 21  1  0  0  0  0
 20 19  1  0  0  0  0
 23  8  1  0  0  0  0
 25 24  1  0  0  0  0
 25 23  1  0  0  0  0
 26 25  2  0  0  0  0
 27 26  1  0  0  0  0
 28 34  2  0  0  0  0
 28 26  1  0  0  0  0
 29 28  1  0  0  0  0
 30 29  1  0  0  0  0
 31 29  1  0  0  0  0
 31 32  2  0  0  0  0
 32 33  1  0  0  0  0
 32 34  1  0  0  0  0
 34 35  1  0  0  0  0
 35 24  2  0  0  0  0
M  END
>  <minimizedAffinity>
-5.16299915

>  <minimizedRMSD>
0.255260229

$$$$
