
 OpenBabel03212520263D

 31 34  0  0  0  0  0  0  0  0999 V2000
   42.4250   84.8500   60.9930 C   0  0  0  0  0  0  0  0  0  0  0  0
   43.4990   85.1980   61.8040 C   0  0  0  0  0  0  0  0  0  0  0  0
   44.1290   86.1790   61.0150 C   0  0  0  0  0  0  0  0  0  0  0  0
   43.4600   86.3690   59.8450 N   0  0  0  0  0  0  0  0  0  0  0  0
   42.4110   85.5440   59.8440 N   0  0  0  0  0  0  0  0  0  0  0  0
   43.7890   84.8420   62.7590 H   0  0  0  0  0  0  0  0  0  0  0  0
   45.0430   86.6870   61.3620 H   0  0  0  0  0  0  0  0  0  0  0  0
   40.8130   81.5920   61.8020 C   0  0  0  0  0  0  0  0  0  0  0  0
   41.7900   82.5170   61.4690 C   0  0  0  0  0  0  0  0  0  0  0  0
   41.4310   83.8530   61.3400 C   0  0  0  0  0  0  0  0  0  0  0  0
   40.1370   84.1970   61.5440 N   0  0  0  0  0  0  0  0  0  0  0  0
   39.2040   83.2570   61.8710 C   0  0  0  0  0  0  0  0  0  0  0  0
   39.5420   81.9740   61.9970 N   0  0  0  0  0  0  0  0  0  0  0  0
   41.1700   80.5730   61.8840 H   0  0  0  0  0  0  0  0  0  0  0  0
   42.8200   82.2250   61.3090 H   0  0  0  0  0  0  0  0  0  0  0  0
   38.1730   83.5260   62.0340 H   0  0  0  0  0  0  0  0  0  0  0  0
   43.8260   87.2950   58.8060 C   0  0  0  0  0  0  0  0  0  0  0  0
   42.9170   87.4130   58.1610 H   0  0  0  0  0  0  0  0  0  0  0  0
   44.0230   88.3180   59.2010 H   0  0  0  0  0  0  0  0  0  0  0  0
   46.0730   87.5110   57.7890 C   0  0  0  0  0  3  0  0  0  0  0  0
   44.9180   86.7810   57.9730 C   0  0  0  0  0  0  0  0  0  0  0  0
   44.8740   85.5460   57.3160 C   0  0  0  0  0  0  0  0  0  0  0  0
   43.9930   84.9300   57.4220 H   0  0  0  0  0  0  0  0  0  0  0  0
   45.9290   85.0960   56.5350 C   0  0  0  0  0  0  0  0  0  0  0  0
   46.1820   84.0030   55.8070 N   0  0  0  0  0  0  0  0  0  0  0  0
   45.5340   83.2060   55.6970 H   0  0  0  0  0  0  0  0  0  0  0  0
   47.3880   84.0890   55.2460 N   0  0  0  0  0  0  0  0  0  0  0  0
   47.9870   85.2360   55.5730 C   0  0  0  0  0  0  0  0  0  0  0  0
   48.9690   85.5410   55.2440 H   0  0  0  0  0  0  0  0  0  0  0  0
   47.0690   85.8830   56.3920 C   0  0  0  0  0  0  0  0  0  0  0  0
   47.1610   87.1210   57.0260 C   0  0  0  0  0  3  0  0  0  0  0  0
  1 10  1  0  0  0  0
  1  2  1  0  0  0  0
  2  6  1  0  0  0  0
  3  7  1  0  0  0  0
  3  2  2  0  0  0  0
  4  3  1  0  0  0  0
  5  4  1  0  0  0  0
  5  1  2  0  0  0  0
  8 14  1  0  0  0  0
  8 13  1  0  0  0  0
  9  8  2  0  0  0  0
 10  9  1  0  0  0  0
 10 11  2  0  0  0  0
 11 12  1  0  0  0  0
 12 13  2  0  0  0  0
 12 16  1  0  0  0  0
 15  9  1  0  0  0  0
 17 19  1  0  0  0  0
 17  4  1  0  0  0  0
 18 17  1  0  0  0  0
 20 21  1  0  0  0  0
 21 17  1  0  0  0  0
 22 23  1  0  0  0  0
 22 21  2  0  0  0  0
 24 22  1  0  0  0  0
 25 24  1  0  0  0  0
 26 25  1  0  0  0  0
 27 28  2  0  0  0  0
 27 25  1  0  0  0  0
 28 30  1  0  0  0  0
 29 28  1  0  0  0  0
 30 24  2  0  0  0  0
 30 31  1  0  0  0  0
 31 20  2  0  0  0  0
M  END
>  <minimizedAffinity>
-4.27168941

>  <minimizedRMSD>
0.379588783

$$$$
