
 OpenBabel03212521053D

 39 43  0  0  0  0  0  0  0  0999 V2000
   41.1360   84.4340   59.1920 C   0  0  0  0  0  0  0  0  0  0  0  0
   40.7920   85.7440   58.8530 C   0  0  0  0  0  0  0  0  0  0  0  0
   41.0050   86.2330   57.5700 C   0  0  0  0  0  0  0  0  0  0  0  0
   41.5480   85.4000   56.6850 N   0  0  0  0  0  0  0  0  0  0  0  0
   41.8890   84.1210   57.0000 C   0  0  0  0  0  0  0  0  0  0  0  0
   41.6780   83.6520   58.2510 N   0  0  0  0  0  0  0  0  0  0  0  0
   40.3440   86.4720   59.5390 H   0  0  0  0  0  0  0  0  0  0  0  0
   40.7390   87.2580   57.2960 H   0  0  0  0  0  0  0  0  0  0  0  0
   42.6090   83.6850   54.7040 C   0  0  0  0  0  3  0  0  0  0  0  0
   42.4880   83.2100   56.0130 C   0  0  0  0  0  0  0  0  0  0  0  0
   42.9110   81.9430   56.3710 C   0  0  0  0  0  0  0  0  0  0  0  0
   42.8110   81.5870   57.3890 H   0  0  0  0  0  0  0  0  0  0  0  0
   43.4670   81.1310   55.3990 C   0  0  0  0  0  0  0  0  0  0  0  0
   43.9610   79.8730   55.4400 N   0  0  0  0  0  0  0  0  0  0  0  0
   44.0010   79.2700   56.2900 H   0  0  0  0  0  0  0  0  0  0  0  0
   44.3850   79.5300   54.2370 N   0  0  0  0  0  0  0  0  0  0  0  0
   44.1930   80.5300   53.3600 C   0  0  0  0  0  0  0  0  0  0  0  0
   44.4290   80.5640   52.3120 H   0  0  0  0  0  0  0  0  0  0  0  0
   43.6150   81.5380   54.0890 C   0  0  0  0  0  0  0  0  0  0  0  0
   43.1800   82.8120   53.7750 C   0  0  0  0  0  3  0  0  0  0  0  0
   41.8130   84.2390   61.5540 C   0  0  0  0  0  0  0  0  0  0  0  0
   41.4650   83.9270   62.8630 C   0  0  0  0  0  0  0  0  0  0  0  0
   40.1910   83.5130   63.2050 C   0  0  0  0  0  0  0  0  0  0  0  0
   39.2210   83.4020   62.2120 C   0  0  0  0  0  0  0  0  0  0  0  0
   39.5600   83.7120   60.8970 C   0  0  0  0  0  0  0  0  0  0  0  0
   40.8360   84.1250   60.5670 C   0  0  0  0  0  0  0  0  0  0  0  0
   42.2340   84.0170   63.6330 H   0  0  0  0  0  0  0  0  0  0  0  0
   39.9470   83.2760   64.2330 H   0  0  0  0  0  0  0  0  0  0  0  0
   38.2260   83.0810   62.4690 H   0  0  0  0  0  0  0  0  0  0  0  0
   38.7910   83.6200   60.1440 H   0  0  0  0  0  0  0  0  0  0  0  0
   45.3200   84.1390   60.5530 C   0  0  0  0  0  0  0  0  0  0  0  0
   45.7160   85.4710   60.6790 C   0  0  0  0  0  0  0  0  0  0  0  0
   44.7650   86.4160   61.1130 C   0  0  0  0  0  0  0  0  0  0  0  0
   43.5110   85.9750   61.3860 N   0  0  0  0  0  0  0  0  0  0  0  0
   43.1580   84.6650   61.2530 C   0  0  0  0  0  0  0  0  0  0  0  0
   44.0600   83.7940   60.8450 N   0  0  0  0  0  0  0  0  0  0  0  0
   46.0750   83.4590   60.2210 H   0  0  0  0  0  0  0  0  0  0  0  0
   46.7160   85.8210   60.4610 H   0  0  0  0  0  0  0  0  0  0  0  0
   44.9940   87.4820   61.2390 H   0  0  0  0  0  0  0  0  0  0  0  0
  1 26  1  0  0  0  0
  2  1  1  0  0  0  0
  2  7  1  0  0  0  0
  3  2  2  0  0  0  0
  4  5  2  0  0  0  0
  4  3  1  0  0  0  0
  5  6  1  0  0  0  0
  6  1  2  0  0  0  0
  8  3  1  0  0  0  0
  9 10  1  0  0  0  0
 10 11  2  0  0  0  0
 10  5  1  0  0  0  0
 11 12  1  0  0  0  0
 13 14  1  0  0  0  0
 13 11  1  0  0  0  0
 14 15  1  0  0  0  0
 16 14  1  0  0  0  0
 17 19  1  0  0  0  0
 17 16  2  0  0  0  0
 18 17  1  0  0  0  0
 19 13  2  0  0  0  0
 20 19  1  0  0  0  0
 20  9  2  0  0  0  0
 21 22  1  0  0  0  0
 22 23  2  0  0  0  0
 22 27  1  0  0  0  0
 23 28  1  0  0  0  0
 24 29  1  0  0  0  0
 24 23  1  0  0  0  0
 25 24  2  0  0  0  0
 26 25  1  0  0  0  0
 26 21  2  0  0  0  0
 30 25  1  0  0  0  0
 31 32  2  0  0  0  0
 31 36  1  0  0  0  0
 32 33  1  0  0  0  0
 33 39  1  0  0  0  0
 33 34  2  0  0  0  0
 35 34  1  0  0  0  0
 35 21  1  0  0  0  0
 36 35  2  0  0  0  0
 37 31  1  0  0  0  0
 38 32  1  0  0  0  0
M  END
>  <minimizedAffinity>
-5.48373365

>  <minimizedRMSD>
0.432572663

$$$$
