
 OpenBabel03212520263D

 31 34  0  0  0  0  0  0  0  0999 V2000
   42.3910   84.8760   60.8830 C   0  0  0  0  0  0  0  0  0  0  0  0
   43.4650   85.2920   61.6620 C   0  0  0  0  0  0  0  0  0  0  0  0
   44.0440   86.2670   60.8260 C   0  0  0  0  0  0  0  0  0  0  0  0
   43.3490   86.3900   59.6630 N   0  0  0  0  0  0  0  0  0  0  0  0
   42.3320   85.5270   59.7110 N   0  0  0  0  0  0  0  0  0  0  0  0
   43.7850   84.9820   62.6230 H   0  0  0  0  0  0  0  0  0  0  0  0
   44.9440   86.8200   61.1380 H   0  0  0  0  0  0  0  0  0  0  0  0
   40.9200   81.5960   61.8580 C   0  0  0  0  0  0  0  0  0  0  0  0
   41.8570   82.5440   61.4760 C   0  0  0  0  0  0  0  0  0  0  0  0
   41.4410   83.8560   61.2840 C   0  0  0  0  0  0  0  0  0  0  0  0
   40.1350   84.1550   61.4780 N   0  0  0  0  0  0  0  0  0  0  0  0
   39.2430   83.1940   61.8560 C   0  0  0  0  0  0  0  0  0  0  0  0
   39.6350   81.9340   62.0410 N   0  0  0  0  0  0  0  0  0  0  0  0
   41.3200   80.5980   61.9880 H   0  0  0  0  0  0  0  0  0  0  0  0
   42.8970   82.2880   61.3240 H   0  0  0  0  0  0  0  0  0  0  0  0
   38.2030   83.4270   62.0110 H   0  0  0  0  0  0  0  0  0  0  0  0
   43.6620   87.2900   58.5850 C   0  0  0  0  0  0  0  0  0  0  0  0
   42.8300   87.1860   57.8410 H   0  0  0  0  0  0  0  0  0  0  0  0
   43.6230   88.3580   58.9010 H   0  0  0  0  0  0  0  0  0  0  0  0
   45.0830   85.7010   57.3270 C   0  0  0  0  0  3  0  0  0  0  0  0
   44.9200   86.9340   57.9210 C   0  0  0  0  0  0  0  0  0  0  0  0
   46.0210   87.7920   57.8380 C   0  0  0  0  0  0  0  0  0  0  0  0
   45.9530   88.7750   58.2850 H   0  0  0  0  0  0  0  0  0  0  0  0
   47.1950   87.4180   57.1980 C   0  0  0  0  0  0  0  0  0  0  0  0
   48.3790   87.9910   56.9600 N   0  0  0  0  0  0  0  0  0  0  0  0
   48.6430   88.9430   57.2590 H   0  0  0  0  0  0  0  0  0  0  0  0
   49.1680   87.1570   56.2820 N   0  0  0  0  0  0  0  0  0  0  0  0
   48.5470   86.0000   56.0410 C   0  0  0  0  0  0  0  0  0  0  0  0
   48.9750   85.1630   55.5090 H   0  0  0  0  0  0  0  0  0  0  0  0
   47.2940   86.1550   56.6190 C   0  0  0  0  0  0  0  0  0  0  0  0
   46.2230   85.2640   56.6750 C   0  0  0  0  0  3  0  0  0  0  0  0
  1 10  1  0  0  0  0
  1  2  1  0  0  0  0
  2  6  1  0  0  0  0
  3  7  1  0  0  0  0
  3  2  2  0  0  0  0
  4  5  1  0  0  0  0
  4  3  1  0  0  0  0
  5  1  2  0  0  0  0
  8 14  1  0  0  0  0
  8 13  1  0  0  0  0
  9  8  2  0  0  0  0
 10  9  1  0  0  0  0
 10 11  2  0  0  0  0
 11 12  1  0  0  0  0
 12 16  1  0  0  0  0
 12 13  2  0  0  0  0
 15  9  1  0  0  0  0
 17 19  1  0  0  0  0
 17  4  1  0  0  0  0
 18 17  1  0  0  0  0
 20 21  1  0  0  0  0
 21 17  1  0  0  0  0
 22 21  2  0  0  0  0
 22 23  1  0  0  0  0
 24 22  1  0  0  0  0
 25 24  1  0  0  0  0
 25 26  1  0  0  0  0
 27 25  1  0  0  0  0
 28 27  2  0  0  0  0
 28 30  1  0  0  0  0
 29 28  1  0  0  0  0
 30 31  1  0  0  0  0
 30 24  2  0  0  0  0
 31 20  2  0  0  0  0
M  END
>  <minimizedAffinity>
-4.2675972

>  <minimizedRMSD>
0.786598265

$$$$
