
 OpenBabel03212520263D

 31 34  0  0  0  0  0  0  0  0999 V2000
   42.3690   84.8700   60.8780 C   0  0  0  0  0  0  0  0  0  0  0  0
   43.4430   85.2770   61.6620 C   0  0  0  0  0  0  0  0  0  0  0  0
   44.0340   86.2460   60.8290 C   0  0  0  0  0  0  0  0  0  0  0  0
   43.3450   86.3740   59.6620 N   0  0  0  0  0  0  0  0  0  0  0  0
   42.3210   85.5200   59.7050 N   0  0  0  0  0  0  0  0  0  0  0  0
   43.7550   84.9650   62.6250 H   0  0  0  0  0  0  0  0  0  0  0  0
   44.9380   86.7920   61.1440 H   0  0  0  0  0  0  0  0  0  0  0  0
   40.8560   81.5950   61.8040 C   0  0  0  0  0  0  0  0  0  0  0  0
   41.8020   82.5340   61.4240 C   0  0  0  0  0  0  0  0  0  0  0  0
   41.4080   83.8580   61.2750 C   0  0  0  0  0  0  0  0  0  0  0  0
   40.1130   84.1770   61.5070 N   0  0  0  0  0  0  0  0  0  0  0  0
   39.2120   83.2230   61.8810 C   0  0  0  0  0  0  0  0  0  0  0  0
   39.5820   81.9520   62.0250 N   0  0  0  0  0  0  0  0  0  0  0  0
   41.2390   80.5860   61.8990 H   0  0  0  0  0  0  0  0  0  0  0  0
   42.8340   82.2620   61.2420 H   0  0  0  0  0  0  0  0  0  0  0  0
   38.1800   83.4730   62.0660 H   0  0  0  0  0  0  0  0  0  0  0  0
   43.6710   87.2710   58.5850 C   0  0  0  0  0  0  0  0  0  0  0  0
   42.8420   87.1750   57.8380 H   0  0  0  0  0  0  0  0  0  0  0  0
   43.6420   88.3400   58.9000 H   0  0  0  0  0  0  0  0  0  0  0  0
   45.0720   85.6780   57.3090 C   0  0  0  0  0  3  0  0  0  0  0  0
   44.9280   86.9030   57.9250 C   0  0  0  0  0  0  0  0  0  0  0  0
   46.0470   87.7400   57.8690 C   0  0  0  0  0  0  0  0  0  0  0  0
   45.9940   88.7140   58.3350 H   0  0  0  0  0  0  0  0  0  0  0  0
   47.2190   87.3530   57.2340 C   0  0  0  0  0  0  0  0  0  0  0  0
   48.4180   87.9070   57.0180 N   0  0  0  0  0  0  0  0  0  0  0  0
   48.6980   88.8480   57.3380 H   0  0  0  0  0  0  0  0  0  0  0  0
   49.1950   87.0710   56.3310 N   0  0  0  0  0  0  0  0  0  0  0  0
   48.5540   85.9310   56.0620 C   0  0  0  0  0  0  0  0  0  0  0  0
   48.9700   85.0970   55.5170 H   0  0  0  0  0  0  0  0  0  0  0  0
   47.2980   86.1010   56.6310 C   0  0  0  0  0  0  0  0  0  0  0  0
   46.2090   85.2310   56.6590 C   0  0  0  0  0  3  0  0  0  0  0  0
  1 10  1  0  0  0  0
  1  2  1  0  0  0  0
  2  6  1  0  0  0  0
  3  7  1  0  0  0  0
  3  2  2  0  0  0  0
  4  5  1  0  0  0  0
  4  3  1  0  0  0  0
  5  1  2  0  0  0  0
  8 14  1  0  0  0  0
  8 13  1  0  0  0  0
  9  8  2  0  0  0  0
 10  9  1  0  0  0  0
 10 11  2  0  0  0  0
 11 12  1  0  0  0  0
 12 13  2  0  0  0  0
 12 16  1  0  0  0  0
 15  9  1  0  0  0  0
 17 19  1  0  0  0  0
 17  4  1  0  0  0  0
 18 17  1  0  0  0  0
 20 21  1  0  0  0  0
 21 17  1  0  0  0  0
 22 21  2  0  0  0  0
 22 23  1  0  0  0  0
 24 22  1  0  0  0  0
 25 24  1  0  0  0  0
 25 26  1  0  0  0  0
 27 25  1  0  0  0  0
 28 27  2  0  0  0  0
 28 30  1  0  0  0  0
 29 28  1  0  0  0  0
 30 31  1  0  0  0  0
 30 24  2  0  0  0  0
 31 20  2  0  0  0  0
M  END
>  <minimizedAffinity>
-4.2730999

>  <minimizedRMSD>
0.827359736

$$$$
