
 OpenBabel03212521053D

 39 43  0  0  0  0  0  0  0  0999 V2000
   41.1640   84.3590   59.2000 C   0  0  0  0  0  0  0  0  0  0  0  0
   40.8840   85.6790   58.8410 C   0  0  0  0  0  0  0  0  0  0  0  0
   41.1180   86.1380   57.5500 C   0  0  0  0  0  0  0  0  0  0  0  0
   41.6180   85.2650   56.6780 N   0  0  0  0  0  0  0  0  0  0  0  0
   41.8950   83.9760   57.0120 C   0  0  0  0  0  0  0  0  0  0  0  0
   41.6650   83.5380   58.2710 N   0  0  0  0  0  0  0  0  0  0  0  0
   40.4740   86.4390   59.5160 H   0  0  0  0  0  0  0  0  0  0  0  0
   40.9020   87.1700   57.2610 H   0  0  0  0  0  0  0  0  0  0  0  0
   43.7920   83.1770   55.6920 C   0  0  0  0  0  3  0  0  0  0  0  0
   42.4470   83.0220   56.0390 C   0  0  0  0  0  0  0  0  0  0  0  0
   41.6660   82.0180   55.4960 C   0  0  0  0  0  0  0  0  0  0  0  0
   40.6250   81.9080   55.7730 H   0  0  0  0  0  0  0  0  0  0  0  0
   42.2420   81.1510   54.5860 C   0  0  0  0  0  0  0  0  0  0  0  0
   41.7470   80.0950   53.8990 N   0  0  0  0  0  0  0  0  0  0  0  0
   40.7670   79.7450   53.9590 H   0  0  0  0  0  0  0  0  0  0  0  0
   42.7000   79.5790   53.1440 N   0  0  0  0  0  0  0  0  0  0  0  0
   43.8500   80.2600   53.2940 C   0  0  0  0  0  0  0  0  0  0  0  0
   44.8010   80.0920   52.8210 H   0  0  0  0  0  0  0  0  0  0  0  0
   43.5630   81.2490   54.2000 C   0  0  0  0  0  0  0  0  0  0  0  0
   44.3070   82.2660   54.7670 C   0  0  0  0  0  3  0  0  0  0  0  0
   41.8190   84.2330   61.5730 C   0  0  0  0  0  0  0  0  0  0  0  0
   41.4600   83.9550   62.8860 C   0  0  0  0  0  0  0  0  0  0  0  0
   40.1840   83.5450   63.2270 C   0  0  0  0  0  0  0  0  0  0  0  0
   39.2240   83.4020   62.2290 C   0  0  0  0  0  0  0  0  0  0  0  0
   39.5750   83.6770   60.9090 C   0  0  0  0  0  0  0  0  0  0  0  0
   40.8510   84.0870   60.5800 C   0  0  0  0  0  0  0  0  0  0  0  0
   42.2200   84.0710   63.6610 H   0  0  0  0  0  0  0  0  0  0  0  0
   39.9310   83.3350   64.2590 H   0  0  0  0  0  0  0  0  0  0  0  0
   38.2280   83.0830   62.4840 H   0  0  0  0  0  0  0  0  0  0  0  0
   38.8130   83.5600   60.1520 H   0  0  0  0  0  0  0  0  0  0  0  0
   45.3240   84.1310   60.5660 C   0  0  0  0  0  0  0  0  0  0  0  0
   45.7240   85.4610   60.7010 C   0  0  0  0  0  0  0  0  0  0  0  0
   44.7760   86.4050   61.1440 C   0  0  0  0  0  0  0  0  0  0  0  0
   43.5210   85.9650   61.4160 N   0  0  0  0  0  0  0  0  0  0  0  0
   43.1640   84.6580   61.2730 C   0  0  0  0  0  0  0  0  0  0  0  0
   44.0640   83.7880   60.8570 N   0  0  0  0  0  0  0  0  0  0  0  0
   46.0770   83.4520   60.2280 H   0  0  0  0  0  0  0  0  0  0  0  0
   46.7250   85.8100   60.4850 H   0  0  0  0  0  0  0  0  0  0  0  0
   45.0080   87.4700   61.2770 H   0  0  0  0  0  0  0  0  0  0  0  0
  1 26  1  0  0  0  0
  2  1  1  0  0  0  0
  2  7  1  0  0  0  0
  3  2  2  0  0  0  0
  4  5  2  0  0  0  0
  4  3  1  0  0  0  0
  5  6  1  0  0  0  0
  6  1  2  0  0  0  0
  8  3  1  0  0  0  0
  9 10  1  0  0  0  0
 10  5  1  0  0  0  0
 11 12  1  0  0  0  0
 11 10  2  0  0  0  0
 13 11  1  0  0  0  0
 14 15  1  0  0  0  0
 14 13  1  0  0  0  0
 16 17  2  0  0  0  0
 16 14  1  0  0  0  0
 17 19  1  0  0  0  0
 18 17  1  0  0  0  0
 19 13  2  0  0  0  0
 19 20  1  0  0  0  0
 20  9  2  0  0  0  0
 21 22  1  0  0  0  0
 22 23  2  0  0  0  0
 22 27  1  0  0  0  0
 23 28  1  0  0  0  0
 24 29  1  0  0  0  0
 24 23  1  0  0  0  0
 25 24  2  0  0  0  0
 26 25  1  0  0  0  0
 26 21  2  0  0  0  0
 30 25  1  0  0  0  0
 31 32  2  0  0  0  0
 31 36  1  0  0  0  0
 32 33  1  0  0  0  0
 33 39  1  0  0  0  0
 33 34  2  0  0  0  0
 35 34  1  0  0  0  0
 35 21  1  0  0  0  0
 36 35  2  0  0  0  0
 37 31  1  0  0  0  0
 38 32  1  0  0  0  0
M  END
>  <minimizedAffinity>
-5.59162855

>  <minimizedRMSD>
0.539392591

$$$$
