
 OpenBabel03212520263D

 31 34  0  0  0  0  0  0  0  0999 V2000
   42.4850   84.8160   61.1990 C   0  0  0  0  0  0  0  0  0  0  0  0
   43.3670   85.2890   62.1630 C   0  0  0  0  0  0  0  0  0  0  0  0
   44.1630   86.1630   61.3970 C   0  0  0  0  0  0  0  0  0  0  0  0
   43.7600   86.1790   60.0970 N   0  0  0  0  0  0  0  0  0  0  0  0
   42.7240   85.3440   59.9880 N   0  0  0  0  0  0  0  0  0  0  0  0
   43.4440   85.0730   63.1970 H   0  0  0  0  0  0  0  0  0  0  0  0
   44.9900   86.7280   61.8560 H   0  0  0  0  0  0  0  0  0  0  0  0
   40.6710   81.6170   61.7900 C   0  0  0  0  0  0  0  0  0  0  0  0
   41.7080   82.5020   61.5370 C   0  0  0  0  0  0  0  0  0  0  0  0
   41.4260   83.8600   61.4620 C   0  0  0  0  0  0  0  0  0  0  0  0
   40.1470   84.2650   61.6380 N   0  0  0  0  0  0  0  0  0  0  0  0
   39.1530   83.3630   61.8860 C   0  0  0  0  0  0  0  0  0  0  0  0
   39.4160   82.0590   61.9590 N   0  0  0  0  0  0  0  0  0  0  0  0
   40.9700   80.5770   61.8330 H   0  0  0  0  0  0  0  0  0  0  0  0
   42.7260   82.1610   61.3980 H   0  0  0  0  0  0  0  0  0  0  0  0
   38.1330   83.6810   62.0270 H   0  0  0  0  0  0  0  0  0  0  0  0
   44.3500   86.9590   59.0420 C   0  0  0  0  0  0  0  0  0  0  0  0
   43.5100   87.2340   58.3530 H   0  0  0  0  0  0  0  0  0  0  0  0
   44.7450   87.9350   59.4060 H   0  0  0  0  0  0  0  0  0  0  0  0
   44.9990   85.5920   57.0820 C   0  0  0  0  0  3  0  0  0  0  0  0
   45.3380   86.1900   58.2780 C   0  0  0  0  0  0  0  0  0  0  0  0
   46.6620   86.0070   58.6880 C   0  0  0  0  0  0  0  0  0  0  0  0
   46.9860   86.4520   59.6180 H   0  0  0  0  0  0  0  0  0  0  0  0
   47.5660   85.2710   57.9350 C   0  0  0  0  0  0  0  0  0  0  0  0
   48.8540   84.9270   58.0540 N   0  0  0  0  0  0  0  0  0  0  0  0
   49.4640   85.1960   58.8430 H   0  0  0  0  0  0  0  0  0  0  0  0
   49.2330   84.1890   57.0120 N   0  0  0  0  0  0  0  0  0  0  0  0
   48.2220   84.0100   56.1580 C   0  0  0  0  0  0  0  0  0  0  0  0
   48.2770   83.4480   55.2370 H   0  0  0  0  0  0  0  0  0  0  0  0
   47.1590   84.6930   56.7360 C   0  0  0  0  0  0  0  0  0  0  0  0
   45.8490   84.8470   56.2830 C   0  0  0  0  0  3  0  0  0  0  0  0
  1 10  1  0  0  0  0
  1  2  1  0  0  0  0
  2  6  1  0  0  0  0
  3  7  1  0  0  0  0
  3  2  2  0  0  0  0
  4  3  1  0  0  0  0
  5  4  1  0  0  0  0
  5  1  2  0  0  0  0
  8 14  1  0  0  0  0
  8 13  1  0  0  0  0
  9  8  2  0  0  0  0
 10  9  1  0  0  0  0
 10 11  2  0  0  0  0
 11 12  1  0  0  0  0
 12 13  2  0  0  0  0
 12 16  1  0  0  0  0
 15  9  1  0  0  0  0
 17 19  1  0  0  0  0
 17  4  1  0  0  0  0
 18 17  1  0  0  0  0
 20 21  1  0  0  0  0
 21 22  2  0  0  0  0
 21 17  1  0  0  0  0
 22 23  1  0  0  0  0
 24 25  1  0  0  0  0
 24 22  1  0  0  0  0
 25 26  1  0  0  0  0
 27 25  1  0  0  0  0
 28 30  1  0  0  0  0
 28 27  2  0  0  0  0
 29 28  1  0  0  0  0
 30 24  2  0  0  0  0
 31 30  1  0  0  0  0
 31 20  2  0  0  0  0
M  END
>  <minimizedAffinity>
-4.09733629

>  <minimizedRMSD>
0.411511272

$$$$
