
 OpenBabel03212520163D

 35 38  0  0  0  0  0  0  0  0999 V2000
   39.5860   72.9680   61.4440 Cl  0  0  0  0  0  0  0  0  0  0  0  0
   41.1640   73.3350   60.7790 C   0  0  0  0  0  0  0  0  0  0  0  0
   42.2500   72.4850   60.9120 C   0  0  0  0  0  0  0  0  0  0  0  0
   43.4310   72.9230   60.3260 C   0  0  0  0  0  0  0  0  0  0  0  0
   43.6170   74.1000   59.6400 C   0  0  0  0  0  0  0  0  0  0  0  0
   42.5150   74.9130   59.5340 C   0  0  0  0  0  0  0  0  0  0  0  0
   42.6260   76.4430   58.6810 Cl  0  0  0  0  0  0  0  0  0  0  0  0
   41.3010   74.5220   60.1020 C   0  0  0  0  0  0  0  0  0  0  0  0
   44.2710   72.2390   60.4440 H   0  0  0  0  0  0  0  0  0  0  0  0
   44.5790   74.3490   59.2220 H   0  0  0  0  0  0  0  0  0  0  0  0
   41.9290   71.0810   63.0020 C   0  0  0  0  0  0  0  0  0  0  0  0
   42.0940   71.2580   61.6160 C   0  0  0  0  0  0  0  0  0  0  0  0
   42.1070   70.1160   60.8170 C   0  0  0  0  0  0  0  0  0  0  0  0
   41.9610   68.9140   61.4330 N   0  0  0  0  0  0  0  0  0  0  0  0
   41.8060   68.7760   62.7620 C   0  0  0  0  0  0  0  0  0  0  0  0
   41.7910   69.8660   63.5470 N   0  0  0  0  0  0  0  0  0  0  0  0
   41.9270   72.0070   63.5780 H   0  0  0  0  0  0  0  0  0  0  0  0
   42.2230   70.0970   59.7410 H   0  0  0  0  0  0  0  0  0  0  0  0
   41.6600   67.3880   63.2650 C   0  0  0  0  0  0  0  0  0  0  0  0
   42.7540   67.0060   64.0340 F   0  0  0  0  0  0  0  0  0  0  0  0
   40.5210   67.2820   64.0500 F   0  0  0  0  0  0  0  0  0  0  0  0
   41.6240   66.4690   62.2220 F   0  0  0  0  0  0  0  0  0  0  0  0
   40.2270   75.3900   59.9570 O   0  0  0  0  0  0  0  0  0  0  0  0
   38.6300   74.1930   58.4560 C   0  0  0  0  0  3  0  0  0  0  0  0
   39.2970   75.2840   58.9350 C   0  0  0  0  0  0  0  0  0  0  0  0
   39.0680   76.5400   58.3630 C   0  0  0  0  0  0  0  0  0  0  0  0
   39.5360   77.4910   58.6520 H   0  0  0  0  0  0  0  0  0  0  0  0
   38.1750   76.7100   57.3120 C   0  0  0  0  0  0  0  0  0  0  0  0
   37.7430   77.7440   56.5670 N   0  0  0  0  0  0  0  0  0  0  0  0
   38.0740   78.7290   56.6930 H   0  0  0  0  0  0  0  0  0  0  0  0
   36.8550   77.3210   55.6700 N   0  0  0  0  0  0  0  0  0  0  0  0
   36.6780   75.9810   55.8050 C   0  0  0  0  0  0  0  0  0  0  0  0
   36.0160   75.3700   55.2120 H   0  0  0  0  0  0  0  0  0  0  0  0
   37.5130   75.5940   56.8450 C   0  0  0  0  0  0  0  0  0  0  0  0
   37.7340   74.3580   57.4040 C   0  0  0  0  0  3  0  0  0  0  0  0
  2  3  1  0  0  0  0
  2  1  1  0  0  0  0
  3 12  1  0  0  0  0
  4  9  1  0  0  0  0
  4  3  2  0  0  0  0
  5  4  1  0  0  0  0
  6  5  2  0  0  0  0
  6  8  1  0  0  0  0
  7  6  1  0  0  0  0
  8  2  2  0  0  0  0
 10  5  1  0  0  0  0
 11 16  1  0  0  0  0
 11 17  1  0  0  0  0
 12 11  2  0  0  0  0
 13 14  2  0  0  0  0
 13 12  1  0  0  0  0
 14 15  1  0  0  0  0
 15 19  1  0  0  0  0
 15 16  2  0  0  0  0
 18 13  1  0  0  0  0
 19 20  1  0  0  0  0
 19 21  1  0  0  0  0
 22 19  1  0  0  0  0
 23  8  1  0  0  0  0
 24 25  1  0  0  0  0
 25 23  1  0  0  0  0
 26 27  1  0  0  0  0
 26 25  2  0  0  0  0
 28 26  1  0  0  0  0
 29 30  1  0  0  0  0
 29 28  1  0  0  0  0
 31 32  2  0  0  0  0
 31 29  1  0  0  0  0
 32 34  1  0  0  0  0
 33 32  1  0  0  0  0
 34 28  2  0  0  0  0
 34 35  1  0  0  0  0
 35 24  2  0  0  0  0
M  END
>  <minimizedAffinity>
-7.21369314

$$$$

 OpenBabel03212520163D

 35 38  0  0  0  0  0  0  0  0999 V2000
   40.5410   73.1880   57.1330 Cl  0  0  0  0  0  0  0  0  0  0  0  0
   39.9430   73.4670   58.7550 C   0  0  0  0  0  0  0  0  0  0  0  0
   38.8850   74.3200   59.0280 C   0  0  0  0  0  0  0  0  0  0  0  0
   38.5340   74.4310   60.3670 C   0  0  0  0  0  0  0  0  0  0  0  0
   39.1270   73.7850   61.4260 C   0  0  0  0  0  0  0  0  0  0  0  0
   40.1710   72.9500   61.1100 C   0  0  0  0  0  0  0  0  0  0  0  0
   41.0100   72.0690   62.3760 Cl  0  0  0  0  0  0  0  0  0  0  0  0
   40.5670   72.7990   59.7800 C   0  0  0  0  0  0  0  0  0  0  0  0
   37.7010   75.1070   60.5590 H   0  0  0  0  0  0  0  0  0  0  0  0
   38.7770   73.9410   62.4330 H   0  0  0  0  0  0  0  0  0  0  0  0
   37.3410   74.4750   57.0200 C   0  0  0  0  0  0  0  0  0  0  0  0
   38.2470   75.0050   57.9570 C   0  0  0  0  0  0  0  0  0  0  0  0
   38.5740   76.3550   57.8450 C   0  0  0  0  0  0  0  0  0  0  0  0
   37.9950   77.0630   56.8390 N   0  0  0  0  0  0  0  0  0  0  0  0
   37.1320   76.5270   55.9580 C   0  0  0  0  0  0  0  0  0  0  0  0
   36.8050   75.2270   56.0510 N   0  0  0  0  0  0  0  0  0  0  0  0
   37.1220   73.4150   57.1550 H   0  0  0  0  0  0  0  0  0  0  0  0
   39.2520   76.8980   58.4890 H   0  0  0  0  0  0  0  0  0  0  0  0
   36.5940   77.4460   54.9240 C   0  0  0  0  0  0  0  0  0  0  0  0
   37.5400   78.3880   54.5360 F   0  0  0  0  0  0  0  0  0  0  0  0
   36.2110   76.7290   53.8000 F   0  0  0  0  0  0  0  0  0  0  0  0
   35.5300   78.1960   55.4130 F   0  0  0  0  0  0  0  0  0  0  0  0
   41.6290   71.9400   59.5310 O   0  0  0  0  0  0  0  0  0  0  0  0
   40.7920   69.8820   58.3910 C   0  0  0  0  0  3  0  0  0  0  0  0
   41.4750   70.5740   59.3480 C   0  0  0  0  0  0  0  0  0  0  0  0
   42.1620   69.8770   60.3480 C   0  0  0  0  0  0  0  0  0  0  0  0
   42.7460   70.3110   61.1710 H   0  0  0  0  0  0  0  0  0  0  0  0
   42.1670   68.4880   60.3960 C   0  0  0  0  0  0  0  0  0  0  0  0
   42.7080   67.5490   61.1930 N   0  0  0  0  0  0  0  0  0  0  0  0
   43.2970   67.7670   62.0300 H   0  0  0  0  0  0  0  0  0  0  0  0
   42.3780   66.3360   60.7580 N   0  0  0  0  0  0  0  0  0  0  0  0
   41.6030   66.4470   59.6470 C   0  0  0  0  0  0  0  0  0  0  0  0
   41.1910   65.6270   59.0810 H   0  0  0  0  0  0  0  0  0  0  0  0
   41.4700   67.8100   59.4180 C   0  0  0  0  0  0  0  0  0  0  0  0
   40.7940   68.4910   58.4330 C   0  0  0  0  0  3  0  0  0  0  0  0
  1  2  1  0  0  0  0
  2  3  2  0  0  0  0
  2  8  1  0  0  0  0
  3  4  1  0  0  0  0
  4  9  1  0  0  0  0
  4  5  2  0  0  0  0
  5 10  1  0  0  0  0
  6  5  1  0  0  0  0
  6  7  1  0  0  0  0
  8  6  2  0  0  0  0
 11 17  1  0  0  0  0
 11 12  1  0  0  0  0
 12  3  1  0  0  0  0
 13 12  2  0  0  0  0
 13 18  1  0  0  0  0
 14 13  1  0  0  0  0
 15 16  1  0  0  0  0
 15 14  2  0  0  0  0
 16 11  2  0  0  0  0
 19 22  1  0  0  0  0
 19 15  1  0  0  0  0
 20 19  1  0  0  0  0
 21 19  1  0  0  0  0
 23  8  1  0  0  0  0
 24 35  2  0  0  0  0
 24 25  1  0  0  0  0
 25 23  1  0  0  0  0
 25 26  2  0  0  0  0
 26 28  1  0  0  0  0
 26 27  1  0  0  0  0
 28 29  1  0  0  0  0
 29 30  1  0  0  0  0
 31 29  1  0  0  0  0
 32 31  2  0  0  0  0
 33 32  1  0  0  0  0
 34 32  1  0  0  0  0
 34 28  2  0  0  0  0
 35 34  1  0  0  0  0
M  END
>  <minimizedAffinity>
-6.8744235

$$$$

 OpenBabel03212520163D

 35 38  0  0  0  0  0  0  0  0999 V2000
   40.0550   72.8340   57.8020 Cl  0  0  0  0  0  0  0  0  0  0  0  0
   41.1760   74.0870   58.2900 C   0  0  0  0  0  0  0  0  0  0  0  0
   40.9720   75.4280   58.0050 C   0  0  0  0  0  0  0  0  0  0  0  0
   41.9560   76.2950   58.4640 C   0  0  0  0  0  0  0  0  0  0  0  0
   43.0910   75.9510   59.1600 C   0  0  0  0  0  0  0  0  0  0  0  0
   43.2530   74.6130   59.4190 C   0  0  0  0  0  0  0  0  0  0  0  0
   44.6630   74.0490   60.3010 Cl  0  0  0  0  0  0  0  0  0  0  0  0
   42.2950   73.6950   58.9840 C   0  0  0  0  0  0  0  0  0  0  0  0
   41.7760   77.3440   58.2280 H   0  0  0  0  0  0  0  0  0  0  0  0
   43.7960   76.7050   59.4710 H   0  0  0  0  0  0  0  0  0  0  0  0
   38.5050   75.9820   57.7910 C   0  0  0  0  0  0  0  0  0  0  0  0
   39.8090   75.8190   57.2870 C   0  0  0  0  0  0  0  0  0  0  0  0
   40.0100   76.0650   55.9300 C   0  0  0  0  0  0  0  0  0  0  0  0
   38.9340   76.4430   55.1910 N   0  0  0  0  0  0  0  0  0  0  0  0
   37.6990   76.5890   55.7020 C   0  0  0  0  0  0  0  0  0  0  0  0
   37.4860   76.3570   57.0090 N   0  0  0  0  0  0  0  0  0  0  0  0
   38.4050   75.7770   58.8580 H   0  0  0  0  0  0  0  0  0  0  0  0
   40.9520   75.9820   55.4050 H   0  0  0  0  0  0  0  0  0  0  0  0
   36.6400   77.0090   54.7510 C   0  0  0  0  0  0  0  0  0  0  0  0
   37.1690   77.7180   53.6780 F   0  0  0  0  0  0  0  0  0  0  0  0
   35.9790   75.8970   54.2510 F   0  0  0  0  0  0  0  0  0  0  0  0
   35.7410   77.8880   55.3460 F   0  0  0  0  0  0  0  0  0  0  0  0
   42.5210   72.3580   59.2800 O   0  0  0  0  0  0  0  0  0  0  0  0
   41.3790   72.1590   61.4920 C   0  0  0  0  0  3  0  0  0  0  0  0
   42.2770   71.8040   60.5270 C   0  0  0  0  0  0  0  0  0  0  0  0
   43.1320   70.7180   60.7440 C   0  0  0  0  0  0  0  0  0  0  0  0
   43.8940   70.3310   60.0540 H   0  0  0  0  0  0  0  0  0  0  0  0
   43.0930   69.9840   61.9240 C   0  0  0  0  0  0  0  0  0  0  0  0
   43.7520   68.9250   62.4270 N   0  0  0  0  0  0  0  0  0  0  0  0
   44.5140   68.4200   61.9180 H   0  0  0  0  0  0  0  0  0  0  0  0
   43.2910   68.6350   63.6410 N   0  0  0  0  0  0  0  0  0  0  0  0
   42.3030   69.5070   63.9710 C   0  0  0  0  0  0  0  0  0  0  0  0
   41.7480   69.5100   64.8960 H   0  0  0  0  0  0  0  0  0  0  0  0
   42.1770   70.3610   62.8840 C   0  0  0  0  0  0  0  0  0  0  0  0
   41.3350   71.4280   62.6750 C   0  0  0  0  0  3  0  0  0  0  0  0
  1  2  1  0  0  0  0
  2  8  1  0  0  0  0
  3  2  2  0  0  0  0
  3  4  1  0  0  0  0
  4  5  2  0  0  0  0
  5  6  1  0  0  0  0
  5 10  1  0  0  0  0
  6  7  1  0  0  0  0
  8 23  1  0  0  0  0
  8  6  2  0  0  0  0
  9  4  1  0  0  0  0
 11 17  1  0  0  0  0
 12 11  1  0  0  0  0
 12  3  1  0  0  0  0
 13 12  2  0  0  0  0
 14 15  2  0  0  0  0
 14 13  1  0  0  0  0
 15 16  1  0  0  0  0
 16 11  2  0  0  0  0
 18 13  1  0  0  0  0
 19 22  1  0  0  0  0
 19 15  1  0  0  0  0
 20 19  1  0  0  0  0
 21 19  1  0  0  0  0
 23 25  1  0  0  0  0
 24 35  1  0  0  0  0
 25 26  1  0  0  0  0
 25 24  2  0  0  0  0
 26 28  2  0  0  0  0
 27 26  1  0  0  0  0
 28 29  1  0  0  0  0
 28 34  1  0  0  0  0
 29 31  1  0  0  0  0
 30 29  1  0  0  0  0
 31 32  2  0  0  0  0
 32 33  1  0  0  0  0
 34 32  1  0  0  0  0
 35 34  2  0  0  0  0
M  END
>  <minimizedAffinity>
-6.63116837

$$$$

 OpenBabel03212520163D

 35 38  0  0  0  0  0  0  0  0999 V2000
   39.3770   72.9420   59.9420 Cl  0  0  0  0  0  0  0  0  0  0  0  0
   40.9400   73.7090   59.7510 C   0  0  0  0  0  0  0  0  0  0  0  0
   42.1250   72.9940   59.7010 C   0  0  0  0  0  0  0  0  0  0  0  0
   43.2780   73.7530   59.5450 C   0  0  0  0  0  0  0  0  0  0  0  0
   43.3490   75.1220   59.4390 C   0  0  0  0  0  0  0  0  0  0  0  0
   42.1510   75.7910   59.4950 C   0  0  0  0  0  0  0  0  0  0  0  0
   42.1110   77.5420   59.3700 Cl  0  0  0  0  0  0  0  0  0  0  0  0
   40.9600   75.0790   59.6490 C   0  0  0  0  0  0  0  0  0  0  0  0
   44.1980   73.1700   59.5090 H   0  0  0  0  0  0  0  0  0  0  0  0
   44.2990   75.6170   59.3210 H   0  0  0  0  0  0  0  0  0  0  0  0
   42.0510   70.8060   60.9850 C   0  0  0  0  0  0  0  0  0  0  0  0
   42.0890   71.5760   59.8070 C   0  0  0  0  0  0  0  0  0  0  0  0
   42.0920   70.8940   58.5920 C   0  0  0  0  0  0  0  0  0  0  0  0
   42.0580   69.5360   58.6300 N   0  0  0  0  0  0  0  0  0  0  0  0
   42.0220   68.8280   59.7730 C   0  0  0  0  0  0  0  0  0  0  0  0
   42.0190   69.4680   60.9540 N   0  0  0  0  0  0  0  0  0  0  0  0
   42.0510   71.3910   61.9060 H   0  0  0  0  0  0  0  0  0  0  0  0
   42.1190   71.3500   57.6110 H   0  0  0  0  0  0  0  0  0  0  0  0
   41.9880   67.3510   59.6290 C   0  0  0  0  0  0  0  0  0  0  0  0
   41.7540   66.7250   60.8490 F   0  0  0  0  0  0  0  0  0  0  0  0
   40.9810   66.9800   58.7520 F   0  0  0  0  0  0  0  0  0  0  0  0
   43.2160   66.8520   59.2060 F   0  0  0  0  0  0  0  0  0  0  0  0
   39.7840   75.8170   59.6970 O   0  0  0  0  0  0  0  0  0  0  0  0
   39.1090   77.4930   57.9730 C   0  0  0  0  0  3  0  0  0  0  0  0
   39.1200   76.2630   58.5640 C   0  0  0  0  0  0  0  0  0  0  0  0
   38.3690   75.2210   58.0090 C   0  0  0  0  0  0  0  0  0  0  0  0
   38.2920   74.1920   58.3840 H   0  0  0  0  0  0  0  0  0  0  0  0
   37.6050   75.4050   56.8630 C   0  0  0  0  0  0  0  0  0  0  0  0
   36.8000   74.6400   56.1030 N   0  0  0  0  0  0  0  0  0  0  0  0
   36.6020   73.6310   56.3000 H   0  0  0  0  0  0  0  0  0  0  0  0
   36.3120   75.3540   55.0920 N   0  0  0  0  0  0  0  0  0  0  0  0
   36.7910   76.6240   55.1610 C   0  0  0  0  0  0  0  0  0  0  0  0
   36.5630   77.4220   54.4720 H   0  0  0  0  0  0  0  0  0  0  0  0
   37.6090   76.6560   56.2820 C   0  0  0  0  0  0  0  0  0  0  0  0
   38.3460   77.6820   56.8250 C   0  0  0  0  0  3  0  0  0  0  0  0
  2  1  1  0  0  0  0
  3  2  1  0  0  0  0
  3 12  1  0  0  0  0
  4  3  2  0  0  0  0
  5  6  2  0  0  0  0
  5  4  1  0  0  0  0
  6  8  1  0  0  0  0
  7  6  1  0  0  0  0
  8 23  1  0  0  0  0
  8  2  2  0  0  0  0
  9  4  1  0  0  0  0
 10  5  1  0  0  0  0
 11 17  1  0  0  0  0
 12 11  2  0  0  0  0
 13 14  2  0  0  0  0
 13 12  1  0  0  0  0
 14 15  1  0  0  0  0
 15 16  2  0  0  0  0
 16 11  1  0  0  0  0
 18 13  1  0  0  0  0
 19 15  1  0  0  0  0
 19 20  1  0  0  0  0
 21 19  1  0  0  0  0
 22 19  1  0  0  0  0
 24 25  1  0  0  0  0
 25 23  1  0  0  0  0
 26 27  1  0  0  0  0
 26 25  2  0  0  0  0
 28 26  1  0  0  0  0
 29 30  1  0  0  0  0
 29 28  1  0  0  0  0
 31 32  2  0  0  0  0
 31 29  1  0  0  0  0
 32 34  1  0  0  0  0
 33 32  1  0  0  0  0
 34 35  1  0  0  0  0
 34 28  2  0  0  0  0
 35 24  2  0  0  0  0
M  END
>  <minimizedAffinity>
-6.61144733

$$$$

 OpenBabel03212520163D

 35 38  0  0  0  0  0  0  0  0999 V2000
   38.5120   73.2570   58.6040 Cl  0  0  0  0  0  0  0  0  0  0  0  0
   39.3840   74.7240   58.9980 C   0  0  0  0  0  0  0  0  0  0  0  0
   40.4740   74.7410   59.8540 C   0  0  0  0  0  0  0  0  0  0  0  0
   41.0540   75.9860   60.0610 C   0  0  0  0  0  0  0  0  0  0  0  0
   40.6530   77.1790   59.5070 C   0  0  0  0  0  0  0  0  0  0  0  0
   39.5690   77.1150   58.6670 C   0  0  0  0  0  0  0  0  0  0  0  0
   38.9630   78.5720   57.8980 Cl  0  0  0  0  0  0  0  0  0  0  0  0
   38.9470   75.8900   58.4200 C   0  0  0  0  0  0  0  0  0  0  0  0
   41.9090   75.9760   60.7380 H   0  0  0  0  0  0  0  0  0  0  0  0
   41.1740   78.0950   59.7350 H   0  0  0  0  0  0  0  0  0  0  0  0
   41.6380   72.4850   59.8280 C   0  0  0  0  0  0  0  0  0  0  0  0
   40.9160   73.5250   60.4450 C   0  0  0  0  0  0  0  0  0  0  0  0
   40.5850   73.3700   61.7890 C   0  0  0  0  0  0  0  0  0  0  0  0
   40.9820   72.2270   62.4090 N   0  0  0  0  0  0  0  0  0  0  0  0
   41.6700   71.2500   61.7920 C   0  0  0  0  0  0  0  0  0  0  0  0
   41.9980   71.3830   60.4960 N   0  0  0  0  0  0  0  0  0  0  0  0
   41.8690   72.6590   58.7770 H   0  0  0  0  0  0  0  0  0  0  0  0
   40.0370   74.0810   62.3920 H   0  0  0  0  0  0  0  0  0  0  0  0
   42.0220   70.0710   62.6210 C   0  0  0  0  0  0  0  0  0  0  0  0
   43.3980   69.8860   62.6890 F   0  0  0  0  0  0  0  0  0  0  0  0
   41.5430   70.2340   63.9120 F   0  0  0  0  0  0  0  0  0  0  0  0
   41.5360   68.8930   62.0620 F   0  0  0  0  0  0  0  0  0  0  0  0
   37.8560   75.8970   57.5610 O   0  0  0  0  0  0  0  0  0  0  0  0
   38.8820   75.5590   55.3090 C   0  0  0  0  0  3  0  0  0  0  0  0
   37.9710   76.0670   56.1890 C   0  0  0  0  0  0  0  0  0  0  0  0
   36.9510   76.9040   55.7240 C   0  0  0  0  0  0  0  0  0  0  0  0
   36.1600   77.3740   56.3230 H   0  0  0  0  0  0  0  0  0  0  0  0
   36.8380   77.2360   54.3790 C   0  0  0  0  0  0  0  0  0  0  0  0
   36.0060   77.9870   53.6340 N   0  0  0  0  0  0  0  0  0  0  0  0
   35.1920   78.5130   54.0260 H   0  0  0  0  0  0  0  0  0  0  0  0
   36.3790   77.9500   52.3570 N   0  0  0  0  0  0  0  0  0  0  0  0
   37.4790   77.1640   52.2280 C   0  0  0  0  0  0  0  0  0  0  0  0
   37.9980   76.9520   51.3070 H   0  0  0  0  0  0  0  0  0  0  0  0
   37.7700   76.7120   53.5080 C   0  0  0  0  0  0  0  0  0  0  0  0
   38.7730   75.8890   53.9610 C   0  0  0  0  0  3  0  0  0  0  0  0
  1  2  1  0  0  0  0
  2  3  1  0  0  0  0
  3  4  2  0  0  0  0
  3 12  1  0  0  0  0
  4  9  1  0  0  0  0
  5 10  1  0  0  0  0
  5  4  1  0  0  0  0
  6  5  2  0  0  0  0
  7  6  1  0  0  0  0
  8  6  1  0  0  0  0
  8  2  2  0  0  0  0
 11 12  2  0  0  0  0
 11 16  1  0  0  0  0
 12 13  1  0  0  0  0
 13 18  1  0  0  0  0
 13 14  2  0  0  0  0
 15 14  1  0  0  0  0
 15 19  1  0  0  0  0
 16 15  2  0  0  0  0
 17 11  1  0  0  0  0
 19 20  1  0  0  0  0
 19 21  1  0  0  0  0
 22 19  1  0  0  0  0
 23  8  1  0  0  0  0
 24 25  1  0  0  0  0
 25 23  1  0  0  0  0
 26 25  2  0  0  0  0
 26 27  1  0  0  0  0
 28 26  1  0  0  0  0
 29 30  1  0  0  0  0
 29 28  1  0  0  0  0
 31 29  1  0  0  0  0
 32 31  2  0  0  0  0
 32 34  1  0  0  0  0
 33 32  1  0  0  0  0
 34 35  1  0  0  0  0
 34 28  2  0  0  0  0
 35 24  2  0  0  0  0
M  END
>  <minimizedAffinity>
-6.58998585

$$$$

 OpenBabel03212520163D

 35 38  0  0  0  0  0  0  0  0999 V2000
   40.7390   70.6520   58.2760 Cl  0  0  0  0  0  0  0  0  0  0  0  0
   41.8080   71.6200   59.2690 C   0  0  0  0  0  0  0  0  0  0  0  0
   42.3490   71.1590   60.4590 C   0  0  0  0  0  0  0  0  0  0  0  0
   43.1780   72.0520   61.1270 C   0  0  0  0  0  0  0  0  0  0  0  0
   43.5050   73.3250   60.7230 C   0  0  0  0  0  0  0  0  0  0  0  0
   42.9460   73.7410   59.5400 C   0  0  0  0  0  0  0  0  0  0  0  0
   43.2890   75.3470   58.9190 Cl  0  0  0  0  0  0  0  0  0  0  0  0
   42.1060   72.8850   58.8250 C   0  0  0  0  0  0  0  0  0  0  0  0
   43.5910   71.6690   62.0600 H   0  0  0  0  0  0  0  0  0  0  0  0
   44.1610   73.9400   61.3170 H   0  0  0  0  0  0  0  0  0  0  0  0
   41.9780   68.6690   60.1380 C   0  0  0  0  0  0  0  0  0  0  0  0
   42.0320   69.8470   60.9070 C   0  0  0  0  0  0  0  0  0  0  0  0
   41.7480   69.7420   62.2670 C   0  0  0  0  0  0  0  0  0  0  0  0
   41.4390   68.5110   62.7540 N   0  0  0  0  0  0  0  0  0  0  0  0
   41.3940   67.4030   61.9930 C   0  0  0  0  0  0  0  0  0  0  0  0
   41.6650   67.4860   60.6790 N   0  0  0  0  0  0  0  0  0  0  0  0
   42.2080   68.8100   59.0810 H   0  0  0  0  0  0  0  0  0  0  0  0
   41.7510   70.5560   62.9790 H   0  0  0  0  0  0  0  0  0  0  0  0
   41.0380   66.1420   62.6890 C   0  0  0  0  0  0  0  0  0  0  0  0
   40.7220   66.3680   64.0240 F   0  0  0  0  0  0  0  0  0  0  0  0
   39.9430   65.5510   62.0780 F   0  0  0  0  0  0  0  0  0  0  0  0
   42.1140   65.2610   62.7270 F   0  0  0  0  0  0  0  0  0  0  0  0
   41.5750   73.3690   57.6360 O   0  0  0  0  0  0  0  0  0  0  0  0
   39.5740   74.5780   58.5130 C   0  0  0  0  0  3  0  0  0  0  0  0
   40.3320   73.9760   57.5500 C   0  0  0  0  0  0  0  0  0  0  0  0
   39.8590   73.9150   56.2350 C   0  0  0  0  0  0  0  0  0  0  0  0
   40.3670   73.4620   55.3730 H   0  0  0  0  0  0  0  0  0  0  0  0
   38.6290   74.4530   55.8770 C   0  0  0  0  0  0  0  0  0  0  0  0
   37.9100   74.5570   54.7440 N   0  0  0  0  0  0  0  0  0  0  0  0
   38.2280   74.1850   53.8200 H   0  0  0  0  0  0  0  0  0  0  0  0
   36.7650   75.1890   54.9870 N   0  0  0  0  0  0  0  0  0  0  0  0
   36.7000   75.5220   56.3020 C   0  0  0  0  0  0  0  0  0  0  0  0
   35.8860   76.0420   56.7820 H   0  0  0  0  0  0  0  0  0  0  0  0
   37.8800   75.0560   56.8660 C   0  0  0  0  0  0  0  0  0  0  0  0
   38.3410   75.1190   58.1600 C   0  0  0  0  0  3  0  0  0  0  0  0
  1  2  1  0  0  0  0
  2  3  1  0  0  0  0
  3 12  1  0  0  0  0
  3  4  2  0  0  0  0
  4  9  1  0  0  0  0
  5  4  1  0  0  0  0
  5 10  1  0  0  0  0
  6  5  2  0  0  0  0
  7  6  1  0  0  0  0
  8  2  2  0  0  0  0
  8  6  1  0  0  0  0
 11 16  2  0  0  0  0
 11 12  1  0  0  0  0
 12 13  2  0  0  0  0
 13 14  1  0  0  0  0
 13 18  1  0  0  0  0
 15 19  1  0  0  0  0
 15 14  2  0  0  0  0
 16 15  1  0  0  0  0
 17 11  1  0  0  0  0
 19 22  1  0  0  0  0
 19 20  1  0  0  0  0
 21 19  1  0  0  0  0
 23  8  1  0  0  0  0
 25 23  1  0  0  0  0
 25 24  2  0  0  0  0
 26 25  1  0  0  0  0
 27 26  1  0  0  0  0
 28 26  2  0  0  0  0
 28 34  1  0  0  0  0
 29 31  1  0  0  0  0
 29 28  1  0  0  0  0
 30 29  1  0  0  0  0
 31 32  2  0  0  0  0
 32 33  1  0  0  0  0
 32 34  1  0  0  0  0
 34 35  2  0  0  0  0
 35 24  1  0  0  0  0
M  END
>  <minimizedAffinity>
-6.57172918

$$$$

 OpenBabel03212520163D

 35 38  0  0  0  0  0  0  0  0999 V2000
   38.1470   73.3810   58.5990 Cl  0  0  0  0  0  0  0  0  0  0  0  0
   39.0320   74.8820   58.7670 C   0  0  0  0  0  0  0  0  0  0  0  0
   40.1670   75.0000   59.5540 C   0  0  0  0  0  0  0  0  0  0  0  0
   40.7510   76.2600   59.5790 C   0  0  0  0  0  0  0  0  0  0  0  0
   40.3160   77.3780   58.9080 C   0  0  0  0  0  0  0  0  0  0  0  0
   39.1880   77.2170   58.1420 C   0  0  0  0  0  0  0  0  0  0  0  0
   38.5340   78.5720   57.2370 Cl  0  0  0  0  0  0  0  0  0  0  0  0
   38.5590   75.9720   58.0780 C   0  0  0  0  0  0  0  0  0  0  0  0
   41.6410   76.3290   60.2040 H   0  0  0  0  0  0  0  0  0  0  0  0
   40.8440   78.3140   58.9960 H   0  0  0  0  0  0  0  0  0  0  0  0
   40.1900   73.3690   61.4980 C   0  0  0  0  0  0  0  0  0  0  0  0
   40.6460   73.8630   60.2620 C   0  0  0  0  0  0  0  0  0  0  0  0
   41.6840   73.1750   59.6370 C   0  0  0  0  0  0  0  0  0  0  0  0
   42.1830   72.0790   60.2660 N   0  0  0  0  0  0  0  0  0  0  0  0
   41.7270   71.6320   61.4490 C   0  0  0  0  0  0  0  0  0  0  0  0
   40.7260   72.2820   62.0660 N   0  0  0  0  0  0  0  0  0  0  0  0
   39.3770   73.9460   61.9420 H   0  0  0  0  0  0  0  0  0  0  0  0
   42.1350   73.4350   58.6880 H   0  0  0  0  0  0  0  0  0  0  0  0
   42.3870   70.4190   61.9920 C   0  0  0  0  0  0  0  0  0  0  0  0
   41.6010   69.2860   61.8120 F   0  0  0  0  0  0  0  0  0  0  0  0
   43.6010   70.2090   61.3540 F   0  0  0  0  0  0  0  0  0  0  0  0
   42.5660   70.5090   63.3680 F   0  0  0  0  0  0  0  0  0  0  0  0
   37.4240   75.8780   57.2840 O   0  0  0  0  0  0  0  0  0  0  0  0
   36.7120   76.4090   54.9500 C   0  0  0  0  0  3  0  0  0  0  0  0
   37.4690   75.7890   55.9010 C   0  0  0  0  0  0  0  0  0  0  0  0
   38.4780   74.9010   55.5110 C   0  0  0  0  0  0  0  0  0  0  0  0
   39.1530   74.3410   56.1710 H   0  0  0  0  0  0  0  0  0  0  0  0
   38.7330   74.6300   54.1720 C   0  0  0  0  0  0  0  0  0  0  0  0
   39.5960   73.8580   53.4880 N   0  0  0  0  0  0  0  0  0  0  0  0
   40.3170   73.2500   53.9430 H   0  0  0  0  0  0  0  0  0  0  0  0
   39.3880   73.9890   52.1800 N   0  0  0  0  0  0  0  0  0  0  0  0
   38.3700   74.8620   51.9680 C   0  0  0  0  0  0  0  0  0  0  0  0
   37.9850   75.1600   51.0050 H   0  0  0  0  0  0  0  0  0  0  0  0
   37.9550   75.2690   53.2280 C   0  0  0  0  0  0  0  0  0  0  0  0
   36.9630   76.1420   53.6070 C   0  0  0  0  0  3  0  0  0  0  0  0
  1  2  1  0  0  0  0
  2  3  1  0  0  0  0
  3  4  2  0  0  0  0
  3 12  1  0  0  0  0
  4  9  1  0  0  0  0
  5 10  1  0  0  0  0
  5  4  1  0  0  0  0
  6  5  2  0  0  0  0
  7  6  1  0  0  0  0
  8  6  1  0  0  0  0
  8  2  2  0  0  0  0
 11 17  1  0  0  0  0
 11 16  1  0  0  0  0
 12 11  2  0  0  0  0
 13 12  1  0  0  0  0
 13 14  2  0  0  0  0
 14 15  1  0  0  0  0
 15 19  1  0  0  0  0
 15 16  2  0  0  0  0
 18 13  1  0  0  0  0
 19 22  1  0  0  0  0
 20 19  1  0  0  0  0
 21 19  1  0  0  0  0
 23  8  1  0  0  0  0
 24 25  1  0  0  0  0
 25 23  1  0  0  0  0
 26 25  2  0  0  0  0
 26 27  1  0  0  0  0
 28 26  1  0  0  0  0
 29 30  1  0  0  0  0
 29 28  1  0  0  0  0
 31 29  1  0  0  0  0
 32 31  2  0  0  0  0
 32 34  1  0  0  0  0
 33 32  1  0  0  0  0
 34 35  1  0  0  0  0
 34 28  2  0  0  0  0
 35 24  2  0  0  0  0
M  END
>  <minimizedAffinity>
-6.55842113

$$$$

 OpenBabel03212520163D

 35 38  0  0  0  0  0  0  0  0999 V2000
   42.9730   72.1020   60.7530 Cl  0  0  0  0  0  0  0  0  0  0  0  0
   41.9510   71.5710   59.4330 C   0  0  0  0  0  0  0  0  0  0  0  0
   41.0380   72.4060   58.8080 C   0  0  0  0  0  0  0  0  0  0  0  0
   40.3050   71.8300   57.7790 C   0  0  0  0  0  0  0  0  0  0  0  0
   40.4000   70.5330   57.3320 C   0  0  0  0  0  0  0  0  0  0  0  0
   41.3160   69.7410   57.9800 C   0  0  0  0  0  0  0  0  0  0  0  0
   41.5300   68.0660   57.4990 Cl  0  0  0  0  0  0  0  0  0  0  0  0
   42.0820   70.2670   59.0210 C   0  0  0  0  0  0  0  0  0  0  0  0
   39.5940   72.5040   57.3030 H   0  0  0  0  0  0  0  0  0  0  0  0
   39.7820   70.1830   56.5210 H   0  0  0  0  0  0  0  0  0  0  0  0
   40.0560   74.2560   60.2430 C   0  0  0  0  0  0  0  0  0  0  0  0
   40.9140   73.7540   59.2450 C   0  0  0  0  0  0  0  0  0  0  0  0
   41.7480   74.6620   58.5960 C   0  0  0  0  0  0  0  0  0  0  0  0
   41.6740   75.9670   58.9720 N   0  0  0  0  0  0  0  0  0  0  0  0
   40.8430   76.4160   59.9290 C   0  0  0  0  0  0  0  0  0  0  0  0
   40.0310   75.5540   60.5650 N   0  0  0  0  0  0  0  0  0  0  0  0
   39.4260   73.5020   60.7160 H   0  0  0  0  0  0  0  0  0  0  0  0
   42.4560   74.4240   57.8140 H   0  0  0  0  0  0  0  0  0  0  0  0
   40.8940   77.8720   60.2120 C   0  0  0  0  0  0  0  0  0  0  0  0
   42.2010   78.3460   60.2150 F   0  0  0  0  0  0  0  0  0  0  0  0
   40.1810   78.5710   59.2490 F   0  0  0  0  0  0  0  0  0  0  0  0
   40.4110   78.1600   61.4840 F   0  0  0  0  0  0  0  0  0  0  0  0
   42.9900   69.4120   59.6330 O   0  0  0  0  0  0  0  0  0  0  0  0
   43.4350   68.9600   62.0480 C   0  0  0  0  0  3  0  0  0  0  0  0
   42.7650   68.8220   60.8670 C   0  0  0  0  0  0  0  0  0  0  0  0
   41.6590   67.9680   60.7950 C   0  0  0  0  0  0  0  0  0  0  0  0
   41.0370   67.7690   59.9120 H   0  0  0  0  0  0  0  0  0  0  0  0
   41.2200   67.2490   61.9000 C   0  0  0  0  0  0  0  0  0  0  0  0
   40.2290   66.3760   62.1560 N   0  0  0  0  0  0  0  0  0  0  0  0
   39.5330   66.0630   61.4400 H   0  0  0  0  0  0  0  0  0  0  0  0
   40.2780   65.9890   63.4280 N   0  0  0  0  0  0  0  0  0  0  0  0
   41.3160   66.6060   64.0500 C   0  0  0  0  0  0  0  0  0  0  0  0
   41.5960   66.4820   65.0840 H   0  0  0  0  0  0  0  0  0  0  0  0
   41.9130   67.4040   63.0830 C   0  0  0  0  0  0  0  0  0  0  0  0
   43.0000   68.2420   63.1580 C   0  0  0  0  0  3  0  0  0  0  0  0
  2  1  1  0  0  0  0
  3 12  1  0  0  0  0
  3  2  2  0  0  0  0
  4  3  1  0  0  0  0
  5  4  2  0  0  0  0
  5  6  1  0  0  0  0
  6  8  2  0  0  0  0
  7  6  1  0  0  0  0
  8  2  1  0  0  0  0
  8 23  1  0  0  0  0
  9  4  1  0  0  0  0
 10  5  1  0  0  0  0
 11 16  1  0  0  0  0
 11 17  1  0  0  0  0
 12 11  2  0  0  0  0
 13 14  2  0  0  0  0
 13 12  1  0  0  0  0
 14 15  1  0  0  0  0
 15 19  1  0  0  0  0
 15 16  2  0  0  0  0
 18 13  1  0  0  0  0
 19 20  1  0  0  0  0
 19 22  1  0  0  0  0
 21 19  1  0  0  0  0
 23 25  1  0  0  0  0
 24 35  1  0  0  0  0
 25 24  2  0  0  0  0
 26 25  1  0  0  0  0
 26 28  2  0  0  0  0
 27 26  1  0  0  0  0
 28 29  1  0  0  0  0
 28 34  1  0  0  0  0
 29 31  1  0  0  0  0
 30 29  1  0  0  0  0
 31 32  2  0  0  0  0
 32 33  1  0  0  0  0
 34 35  2  0  0  0  0
 34 32  1  0  0  0  0
M  END
>  <minimizedAffinity>
-6.5127306

$$$$

 OpenBabel03212520163D

 35 38  0  0  0  0  0  0  0  0999 V2000
   41.5320   74.4670   57.3070 Cl  0  0  0  0  0  0  0  0  0  0  0  0
   40.6780   74.2970   58.8270 C   0  0  0  0  0  0  0  0  0  0  0  0
   39.4340   74.8620   59.0550 C   0  0  0  0  0  0  0  0  0  0  0  0
   38.8930   74.6330   60.3140 C   0  0  0  0  0  0  0  0  0  0  0  0
   39.4680   73.9110   61.3330 C   0  0  0  0  0  0  0  0  0  0  0  0
   40.7010   73.3700   61.0630 C   0  0  0  0  0  0  0  0  0  0  0  0
   41.5360   72.4260   62.2860 Cl  0  0  0  0  0  0  0  0  0  0  0  0
   41.2930   73.5670   59.8150 C   0  0  0  0  0  0  0  0  0  0  0  0
   37.9150   75.0870   60.4720 H   0  0  0  0  0  0  0  0  0  0  0  0
   38.9630   73.7920   62.2780 H   0  0  0  0  0  0  0  0  0  0  0  0
   38.9480   76.9920   57.7630 C   0  0  0  0  0  0  0  0  0  0  0  0
   38.8100   75.6160   58.0230 C   0  0  0  0  0  0  0  0  0  0  0  0
   37.9720   74.8830   57.1850 C   0  0  0  0  0  0  0  0  0  0  0  0
   37.3470   75.5500   56.1780 N   0  0  0  0  0  0  0  0  0  0  0  0
   37.4980   76.8670   55.9560 C   0  0  0  0  0  0  0  0  0  0  0  0
   38.3030   77.5890   56.7540 N   0  0  0  0  0  0  0  0  0  0  0  0
   39.6150   77.5160   58.4500 H   0  0  0  0  0  0  0  0  0  0  0  0
   37.7690   73.8230   57.2610 H   0  0  0  0  0  0  0  0  0  0  0  0
   36.7410   77.4320   54.8120 C   0  0  0  0  0  0  0  0  0  0  0  0
   36.1530   76.4310   54.0450 F   0  0  0  0  0  0  0  0  0  0  0  0
   35.7380   78.2720   55.2700 F   0  0  0  0  0  0  0  0  0  0  0  0
   37.5800   78.1050   53.9290 F   0  0  0  0  0  0  0  0  0  0  0  0
   42.5390   72.9910   59.6080 O   0  0  0  0  0  0  0  0  0  0  0  0
   43.8460   70.8720   59.4140 C   0  0  0  0  0  3  0  0  0  0  0  0
   42.7200   71.6410   59.3500 C   0  0  0  0  0  0  0  0  0  0  0  0
   41.5050   71.0590   58.9720 C   0  0  0  0  0  0  0  0  0  0  0  0
   40.5340   71.5620   58.8830 H   0  0  0  0  0  0  0  0  0  0  0  0
   41.4110   69.7090   58.6570 C   0  0  0  0  0  0  0  0  0  0  0  0
   40.4310   68.8710   58.2720 N   0  0  0  0  0  0  0  0  0  0  0  0
   39.4380   69.1660   58.1320 H   0  0  0  0  0  0  0  0  0  0  0  0
   40.9200   67.6450   58.1030 N   0  0  0  0  0  0  0  0  0  0  0  0
   42.2510   67.6450   58.3780 C   0  0  0  0  0  0  0  0  0  0  0  0
   42.9050   66.7890   58.3250 H   0  0  0  0  0  0  0  0  0  0  0  0
   42.5620   68.9510   58.7290 C   0  0  0  0  0  0  0  0  0  0  0  0
   43.7580   69.5190   59.0990 C   0  0  0  0  0  3  0  0  0  0  0  0
  1  2  1  0  0  0  0
  2  3  2  0  0  0  0
  2  8  1  0  0  0  0
  3  4  1  0  0  0  0
  4  9  1  0  0  0  0
  4  5  2  0  0  0  0
  5 10  1  0  0  0  0
  6  5  1  0  0  0  0
  6  7  1  0  0  0  0
  8  6  2  0  0  0  0
 11 12  1  0  0  0  0
 11 17  1  0  0  0  0
 12  3  1  0  0  0  0
 13 18  1  0  0  0  0
 13 12  2  0  0  0  0
 14 13  1  0  0  0  0
 15 14  2  0  0  0  0
 15 16  1  0  0  0  0
 16 11  2  0  0  0  0
 19 21  1  0  0  0  0
 19 15  1  0  0  0  0
 20 19  1  0  0  0  0
 22 19  1  0  0  0  0
 23  8  1  0  0  0  0
 25 24  1  0  0  0  0
 25 23  1  0  0  0  0
 26 25  2  0  0  0  0
 27 26  1  0  0  0  0
 28 34  2  0  0  0  0
 28 26  1  0  0  0  0
 29 28  1  0  0  0  0
 30 29  1  0  0  0  0
 31 29  1  0  0  0  0
 31 32  2  0  0  0  0
 32 34  1  0  0  0  0
 33 32  1  0  0  0  0
 34 35  1  0  0  0  0
 35 24  2  0  0  0  0
M  END
>  <minimizedAffinity>
-6.32124615

$$$$
