
 OpenBabel03212520583D

 49 54  0  0  1  0  0  0  0  0999 V2000
   36.8070   77.1480   56.7890 C   0  0  0  0  0  0  0  0  0  0  0  0
   35.7460   77.0460   57.4210 O   0  0  0  0  0  0  0  0  0  0  0  0
   39.6820   77.1250   59.0710 C   0  0  0  0  0  0  0  0  0  0  0  0
   40.4000   76.0280   58.7480 C   0  0  0  0  0  0  0  0  0  0  0  0
   39.8180   75.3030   57.6930 C   0  0  0  0  0  0  0  0  0  0  0  0
   38.6780   75.6530   57.0700 N   0  0  0  0  0  0  0  0  0  0  0  0
   38.0300   76.7860   57.4790 C   0  0  0  0  0  0  0  0  0  0  0  0
   38.5390   77.5270   58.4880 N   0  0  0  0  0  0  0  0  0  0  0  0
   41.3110   75.6990   59.2060 H   0  0  0  0  0  0  0  0  0  0  0  0
   40.2830   74.3870   57.3160 H   0  0  0  0  0  0  0  0  0  0  0  0
   40.9460   80.0900   61.5770 C   0  0  0  0  0  0  0  0  0  0  0  0
   40.9110   78.8660   62.1940 C   0  0  0  0  0  0  0  0  0  0  0  0
   40.5110   77.7990   61.4750 C   0  0  0  0  0  0  0  0  0  0  0  0
   40.1520   77.9840   60.1410 C   0  0  0  0  0  0  0  0  0  0  0  0
   40.3900   79.7840   59.8730 S   0  0  0  0  0  0  0  0  0  0  0  0
   41.1940   78.7240   63.2410 H   0  0  0  0  0  0  0  0  0  0  0  0
   40.4160   76.7620   61.7710 H   0  0  0  0  0  0  0  0  0  0  0  0
   43.0750   82.8710   62.6680 C   0  0  0  0  0  0  0  0  0  0  0  0
   42.1950   83.6640   63.4520 C   0  0  0  0  0  0  0  0  0  0  0  0
   40.8610   83.2280   63.5960 C   0  0  0  0  0  0  0  0  0  0  0  0
   40.5060   82.0890   62.9830 N   0  0  0  0  0  0  0  0  0  0  0  0
   41.3630   81.3520   62.2430 C   0  0  0  0  0  0  0  0  0  0  0  0
   42.6290   81.7480   62.0950 N   0  0  0  0  0  0  0  0  0  0  0  0
   44.0900   83.2370   62.5810 H   0  0  0  0  0  0  0  0  0  0  0  0
   42.4650   84.5770   63.9460 H   0  0  0  0  0  0  0  0  0  0  0  0
   40.1590   83.8030   64.1830 H   0  0  0  0  0  0  0  0  0  0  0  0
   36.8050   77.6210   55.3530 C   0  0  1  0  0  0  0  0  0  0  0  0
   37.3810   79.0080   55.2000 C   0  0  0  0  0  0  0  0  0  0  0  0
   38.0530   77.8300   54.6510 C   0  0  2  0  0  0  0  0  0  0  0  0
   35.7940   77.5790   54.8770 H   0  0  0  0  0  0  0  0  0  0  0  0
   37.9040   79.4800   56.0770 H   0  0  0  0  0  0  0  0  0  0  0  0
   36.8220   79.7050   54.5880 H   0  0  0  0  0  0  0  0  0  0  0  0
   39.0370   77.4850   55.0440 H   0  0  0  0  0  0  0  0  0  0  0  0
   38.0240   77.7280   53.1190 C   0  0  0  0  0  0  0  0  0  0  0  0
   38.9720   78.6850   52.5300 C   0  0  0  0  0  0  0  0  0  0  0  0
   38.5290   79.6860   51.8270 C   0  0  0  0  0  0  0  0  0  0  0  0
   39.4010   80.6160   51.2500 N   0  0  0  0  0  0  0  0  0  0  0  0
   39.7110   81.9590   50.8950 C   0  0  0  0  0  0  0  0  0  0  0  0
   38.9920   82.9410   50.5600 O   0  0  0  0  0  0  0  0  0  0  0  0
   41.1430   81.6210   51.1020 C   0  0  0  0  0  0  0  0  0  0  0  0
   41.3990   81.6970   52.1660 H   0  0  0  0  0  0  0  0  0  0  0  0
   40.6730   80.2500   50.6620 C   0  0  1  0  0  0  0  0  0  0  0  0
   41.5280   78.9780   51.5790 S   0  0  0  0  0  0  0  0  0  0  0  0
   40.3730   78.3510   52.8440 C   0  0  0  0  0  0  0  0  0  0  0  0
   40.6870   78.7910   53.8150 H   0  0  0  0  0  0  0  0  0  0  0  0
   37.0940   79.8460   51.6350 C   0  0  0  0  0  0  0  0  0  0  0  0
   36.5750   80.1460   50.5060 O   0  0  0  0  0  0  0  0  0  0  0  0
   35.7340   79.9280   51.7520 O   0  0  0  0  0  0  0  0  0  0  0  0
   35.1730   79.2590   52.3030 H   0  0  0  0  0  0  0  0  0  0  0  0
  1  2  2  0  0  0  0
  1  7  1  0  0  0  0
  3 14  1  0  0  0  0
  4  3  1  0  0  0  0
  4  9  1  0  0  0  0
  5  4  2  0  0  0  0
  6  7  2  0  0  0  0
  6  5  1  0  0  0  0
  7  8  1  0  0  0  0
  8  3  2  0  0  0  0
 10  5  1  0  0  0  0
 11 12  2  0  0  0  0
 11 22  1  0  0  0  0
 12 16  1  0  0  0  0
 13 17  1  0  0  0  0
 13 12  1  0  0  0  0
 14 13  2  0  0  0  0
 15 14  1  0  0  0  0
 15 11  1  0  0  0  0
 18 19  1  0  0  0  0
 19 20  2  0  0  0  0
 19 25  1  0  0  0  0
 20 26  1  0  0  0  0
 21 20  1  0  0  0  0
 22 21  2  0  0  0  0
 23 22  1  0  0  0  0
 23 18  2  0  0  0  0
 24 18  1  0  0  0  0
 27 30  1  6  0  0  0
 27  1  1  0  0  0  0
 28 27  1  0  0  0  0
 28 31  1  0  0  0  0
 29 33  1  1  0  0  0
 29 28  1  0  0  0  0
 29 27  1  0  0  0  0
 32 28  1  0  0  0  0
 34 29  1  0  0  0  0
 35 44  1  0  0  0  0
 35 34  1  0  0  0  0
 36 35  2  0  0  0  0
 37 36  1  0  0  0  0
 38 40  1  0  0  0  0
 38 37  1  0  0  0  0
 39 38  2  0  0  0  0
 40 41  1  0  0  0  0
 42 40  1  1  0  0  0
 42 37  1  0  0  0  0
 42 43  1  0  0  0  0
 43 44  1  0  0  0  0
 44 45  1  0  0  0  0
 46 48  1  0  0  0  0
 46 36  1  0  0  0  0
 47 46  2  0  0  0  0
 48 49  1  0  0  0  0
M  END
>  <minimizedAffinity>
-7.02484274

>  <minimizedRMSD>
2.03496528

$$$$
