
 OpenBabel03212520593D

 49 54  0  0  1  0  0  0  0  0999 V2000
   37.0030   77.4790   56.8020 C   0  0  0  0  0  0  0  0  0  0  0  0
   35.9240   76.9960   57.1760 O   0  0  0  0  0  0  0  0  0  0  0  0
   39.7960   77.3970   59.1820 C   0  0  0  0  0  0  0  0  0  0  0  0
   40.5050   76.2880   58.8800 C   0  0  0  0  0  0  0  0  0  0  0  0
   39.9460   75.5770   57.8030 C   0  0  0  0  0  0  0  0  0  0  0  0
   38.8350   75.9490   57.1430 N   0  0  0  0  0  0  0  0  0  0  0  0
   38.1950   77.0920   57.5320 C   0  0  0  0  0  0  0  0  0  0  0  0
   38.6810   77.8210   58.5610 N   0  0  0  0  0  0  0  0  0  0  0  0
   41.3930   75.9410   59.3680 H   0  0  0  0  0  0  0  0  0  0  0  0
   40.4070   74.6530   57.4400 H   0  0  0  0  0  0  0  0  0  0  0  0
   40.9810   80.3390   61.7530 C   0  0  0  0  0  0  0  0  0  0  0  0
   40.9840   79.1000   62.3410 C   0  0  0  0  0  0  0  0  0  0  0  0
   40.6140   78.0390   61.5990 C   0  0  0  0  0  0  0  0  0  0  0  0
   40.2440   78.2450   60.2710 C   0  0  0  0  0  0  0  0  0  0  0  0
   40.4290   80.0560   60.0440 S   0  0  0  0  0  0  0  0  0  0  0  0
   41.2750   78.9420   63.3840 H   0  0  0  0  0  0  0  0  0  0  0  0
   40.5490   76.9930   61.8710 H   0  0  0  0  0  0  0  0  0  0  0  0
   43.0340   83.1510   62.9080 C   0  0  0  0  0  0  0  0  0  0  0  0
   42.1320   83.9040   63.7070 C   0  0  0  0  0  0  0  0  0  0  0  0
   40.8110   83.4290   63.8390 C   0  0  0  0  0  0  0  0  0  0  0  0
   40.4870   82.2940   63.2010 N   0  0  0  0  0  0  0  0  0  0  0  0
   41.3640   81.5970   62.4470 C   0  0  0  0  0  0  0  0  0  0  0  0
   42.6190   82.0300   62.3090 N   0  0  0  0  0  0  0  0  0  0  0  0
   44.0390   83.5460   62.8300 H   0  0  0  0  0  0  0  0  0  0  0  0
   42.3780   84.8130   64.2220 H   0  0  0  0  0  0  0  0  0  0  0  0
   40.0930   83.9720   64.4380 H   0  0  0  0  0  0  0  0  0  0  0  0
   37.0560   78.4220   55.6210 C   0  0  1  0  0  0  0  0  0  0  0  0
   37.2270   79.8630   56.0380 C   0  0  0  0  0  0  0  0  0  0  0  0
   38.2740   79.1400   55.3140 C   0  0  2  0  0  0  0  0  0  0  0  0
   36.1710   78.3290   54.9440 H   0  0  0  0  0  0  0  0  0  0  0  0
   37.4720   80.0930   57.1100 H   0  0  0  0  0  0  0  0  0  0  0  0
   36.5780   80.5890   55.5650 H   0  0  0  0  0  0  0  0  0  0  0  0
   39.2540   78.9060   55.7890 H   0  0  0  0  0  0  0  0  0  0  0  0
   38.4770   79.5900   53.8590 C   0  0  0  0  0  2  0  0  0  0  0  0
   39.5400   78.7950   53.2280 C   0  0  0  0  0  0  0  0  0  0  0  0
   40.7550   79.2610   53.1800 C   0  0  0  0  0  0  0  0  0  0  0  0
   41.7940   78.5360   52.5850 N   0  0  0  0  0  0  0  0  0  0  0  0
   43.1540   78.1180   52.5720 C   0  0  0  0  0  0  0  0  0  0  0  0
   44.2200   78.6760   52.9500 O   0  0  0  0  0  0  0  0  0  0  0  0
   42.6950   76.8460   51.9540 C   0  0  0  0  0  3  0  0  0  0  0  0
   42.3460   76.1540   52.7300 H   0  0  0  0  0  0  0  0  0  0  0  0
   41.6210   77.7490   51.3820 C   0  0  1  0  0  3  0  0  0  0  0  0
   40.0560   76.8880   51.3260 S   0  0  0  0  0  0  0  0  0  0  0  0
   39.0480   77.5050   52.7150 C   0  0  0  0  0  3  0  0  0  0  0  0
   39.0680   76.7210   53.5020 H   0  0  0  0  0  0  0  0  0  0  0  0
   41.0430   80.5690   53.7530 C   0  0  0  0  0  0  0  0  0  0  0  0
   41.2800   81.6030   53.0410 O   0  0  0  0  0  0  0  0  0  0  0  0
   41.2780   81.6500   54.5590 O   0  0  0  0  0  0  0  0  0  0  0  0
   40.7310   81.8490   55.4110 H   0  0  0  0  0  0  0  0  0  0  0  0
  1  2  2  0  0  0  0
  1  7  1  0  0  0  0
  3 14  1  0  0  0  0
  4  3  1  0  0  0  0
  4  9  1  0  0  0  0
  5  4  2  0  0  0  0
  6  7  2  0  0  0  0
  6  5  1  0  0  0  0
  7  8  1  0  0  0  0
  8  3  2  0  0  0  0
 10  5  1  0  0  0  0
 11 12  2  0  0  0  0
 11 22  1  0  0  0  0
 12 16  1  0  0  0  0
 13 17  1  0  0  0  0
 13 12  1  0  0  0  0
 14 13  2  0  0  0  0
 15 14  1  0  0  0  0
 15 11  1  0  0  0  0
 18 19  1  0  0  0  0
 19 20  2  0  0  0  0
 19 25  1  0  0  0  0
 20 26  1  0  0  0  0
 21 20  1  0  0  0  0
 22 21  2  0  0  0  0
 23 22  1  0  0  0  0
 23 18  2  0  0  0  0
 24 18  1  0  0  0  0
 27 30  1  6  0  0  0
 27 28  1  0  0  0  0
 27  1  1  0  0  0  0
 28 31  1  0  0  0  0
 29 27  1  0  0  0  0
 29 33  1  1  0  0  0
 29 28  1  0  0  0  0
 32 28  1  0  0  0  0
 34 29  1  0  0  0  0
 35 34  1  0  0  0  0
 36 35  2  0  0  0  0
 36 46  1  0  0  0  0
 37 36  1  0  0  0  0
 38 37  1  0  0  0  0
 38 39  2  0  0  0  0
 40 38  1  0  0  0  0
 40 41  1  0  0  0  0
 42 43  1  1  0  0  0
 42 40  1  0  0  0  0
 42 37  1  0  0  0  0
 43 44  1  0  0  0  0
 44 35  1  0  0  0  0
 44 45  1  0  0  0  0
 46 48  1  0  0  0  0
 47 46  2  0  0  0  0
 48 49  1  0  0  0  0
M  END
>  <minimizedAffinity>
-6.38637018

>  <minimizedRMSD>
1.45507514

$$$$
