
 OpenBabel03212520593D

 49 54  0  0  1  0  0  0  0  0999 V2000
   37.0040   77.4710   56.8000 C   0  0  0  0  0  0  0  0  0  0  0  0
   35.9260   76.9840   57.1720 O   0  0  0  0  0  0  0  0  0  0  0  0
   39.7950   77.3920   59.1840 C   0  0  0  0  0  0  0  0  0  0  0  0
   40.5050   76.2830   58.8830 C   0  0  0  0  0  0  0  0  0  0  0  0
   39.9480   75.5710   57.8060 C   0  0  0  0  0  0  0  0  0  0  0  0
   38.8370   75.9430   57.1440 N   0  0  0  0  0  0  0  0  0  0  0  0
   38.1960   77.0850   57.5320 C   0  0  0  0  0  0  0  0  0  0  0  0
   38.6810   77.8150   58.5610 N   0  0  0  0  0  0  0  0  0  0  0  0
   41.3930   75.9370   59.3720 H   0  0  0  0  0  0  0  0  0  0  0  0
   40.4100   74.6470   57.4430 H   0  0  0  0  0  0  0  0  0  0  0  0
   40.9810   80.3350   61.7530 C   0  0  0  0  0  0  0  0  0  0  0  0
   40.9750   79.0980   62.3440 C   0  0  0  0  0  0  0  0  0  0  0  0
   40.6040   78.0360   61.6030 C   0  0  0  0  0  0  0  0  0  0  0  0
   40.2420   78.2400   60.2720 C   0  0  0  0  0  0  0  0  0  0  0  0
   40.4360   80.0510   60.0420 S   0  0  0  0  0  0  0  0  0  0  0  0
   41.2600   78.9410   63.3880 H   0  0  0  0  0  0  0  0  0  0  0  0
   40.5330   76.9920   61.8770 H   0  0  0  0  0  0  0  0  0  0  0  0
   43.0370   83.1480   62.9010 C   0  0  0  0  0  0  0  0  0  0  0  0
   42.1380   83.9000   63.7030 C   0  0  0  0  0  0  0  0  0  0  0  0
   40.8170   83.4250   63.8390 C   0  0  0  0  0  0  0  0  0  0  0  0
   40.4900   82.2910   63.2020 N   0  0  0  0  0  0  0  0  0  0  0  0
   41.3660   81.5930   62.4450 C   0  0  0  0  0  0  0  0  0  0  0  0
   42.6200   82.0260   62.3040 N   0  0  0  0  0  0  0  0  0  0  0  0
   44.0420   83.5430   62.8200 H   0  0  0  0  0  0  0  0  0  0  0  0
   42.3850   84.8090   64.2170 H   0  0  0  0  0  0  0  0  0  0  0  0
   40.1000   83.9680   64.4400 H   0  0  0  0  0  0  0  0  0  0  0  0
   37.0570   78.4160   55.6220 C   0  0  1  0  0  0  0  0  0  0  0  0
   37.2300   79.8560   56.0420 C   0  0  0  0  0  0  0  0  0  0  0  0
   38.2760   79.1340   55.3150 C   0  0  2  0  0  0  0  0  0  0  0  0
   36.1720   78.3260   54.9460 H   0  0  0  0  0  0  0  0  0  0  0  0
   37.4780   80.0830   57.1150 H   0  0  0  0  0  0  0  0  0  0  0  0
   36.5820   80.5840   55.5710 H   0  0  0  0  0  0  0  0  0  0  0  0
   39.2560   78.8970   55.7880 H   0  0  0  0  0  0  0  0  0  0  0  0
   38.4780   79.5860   53.8610 C   0  0  0  0  0  2  0  0  0  0  0  0
   39.5420   78.7940   53.2270 C   0  0  0  0  0  0  0  0  0  0  0  0
   40.7550   79.2620   53.1760 C   0  0  0  0  0  0  0  0  0  0  0  0
   41.7930   78.5380   52.5800 N   0  0  0  0  0  0  0  0  0  0  0  0
   43.1540   78.1220   52.5620 C   0  0  0  0  0  0  0  0  0  0  0  0
   44.2200   78.6810   52.9380 O   0  0  0  0  0  0  0  0  0  0  0  0
   42.6960   76.8490   51.9460 C   0  0  0  0  0  3  0  0  0  0  0  0
   42.3500   76.1570   52.7220 H   0  0  0  0  0  0  0  0  0  0  0  0
   41.6190   77.7500   51.3770 C   0  0  1  0  0  3  0  0  0  0  0  0
   40.0550   76.8870   51.3250 S   0  0  0  0  0  0  0  0  0  0  0  0
   39.0480   77.5030   52.7150 C   0  0  0  0  0  3  0  0  0  0  0  0
   39.0720   76.7190   53.5030 H   0  0  0  0  0  0  0  0  0  0  0  0
   41.0420   80.5700   53.7490 C   0  0  0  0  0  0  0  0  0  0  0  0
   41.2780   81.6040   53.0360 O   0  0  0  0  0  0  0  0  0  0  0  0
   41.2770   81.6500   54.5540 O   0  0  0  0  0  0  0  0  0  0  0  0
   40.7300   81.8500   55.4070 H   0  0  0  0  0  0  0  0  0  0  0  0
  1  2  2  0  0  0  0
  1  7  1  0  0  0  0
  3 14  1  0  0  0  0
  4  3  1  0  0  0  0
  4  9  1  0  0  0  0
  5  4  2  0  0  0  0
  6  7  2  0  0  0  0
  6  5  1  0  0  0  0
  7  8  1  0  0  0  0
  8  3  2  0  0  0  0
 10  5  1  0  0  0  0
 11 12  2  0  0  0  0
 11 22  1  0  0  0  0
 12 16  1  0  0  0  0
 13 17  1  0  0  0  0
 13 12  1  0  0  0  0
 14 13  2  0  0  0  0
 15 14  1  0  0  0  0
 15 11  1  0  0  0  0
 18 19  1  0  0  0  0
 19 20  2  0  0  0  0
 19 25  1  0  0  0  0
 20 26  1  0  0  0  0
 21 20  1  0  0  0  0
 22 21  2  0  0  0  0
 23 22  1  0  0  0  0
 23 18  2  0  0  0  0
 24 18  1  0  0  0  0
 27 30  1  6  0  0  0
 27 28  1  0  0  0  0
 27  1  1  0  0  0  0
 28 31  1  0  0  0  0
 29 27  1  0  0  0  0
 29 33  1  1  0  0  0
 29 28  1  0  0  0  0
 32 28  1  0  0  0  0
 34 29  1  0  0  0  0
 35 34  1  0  0  0  0
 36 35  2  0  0  0  0
 36 46  1  0  0  0  0
 37 36  1  0  0  0  0
 38 37  1  0  0  0  0
 38 39  2  0  0  0  0
 40 38  1  0  0  0  0
 40 41  1  0  0  0  0
 42 43  1  1  0  0  0
 42 40  1  0  0  0  0
 42 37  1  0  0  0  0
 43 44  1  0  0  0  0
 44 35  1  0  0  0  0
 44 45  1  0  0  0  0
 46 48  1  0  0  0  0
 47 46  2  0  0  0  0
 48 49  1  0  0  0  0
M  END
>  <minimizedAffinity>
-6.38785172

>  <minimizedRMSD>
0.991386354

$$$$
