
 OpenBabel03212521003D

 43 47  0  0  1  0  0  0  0  0999 V2000
   39.7970   77.4360   59.2900 C   0  0  0  0  0  0  0  0  0  0  0  0
   40.4730   76.2790   59.0390 C   0  0  0  0  0  0  0  0  0  0  0  0
   39.9200   75.5690   57.9660 C   0  0  0  0  0  0  0  0  0  0  0  0
   38.8470   75.9700   57.2550 N   0  0  0  0  0  0  0  0  0  0  0  0
   38.2470   77.1480   57.5920 C   0  0  0  0  0  0  0  0  0  0  0  0
   38.7280   77.8840   58.6190 N   0  0  0  0  0  0  0  0  0  0  0  0
   41.3230   75.9130   59.5670 H   0  0  0  0  0  0  0  0  0  0  0  0
   40.3600   74.6180   57.6490 H   0  0  0  0  0  0  0  0  0  0  0  0
   40.9920   80.3950   61.8280 C   0  0  0  0  0  0  0  0  0  0  0  0
   41.0070   79.1620   62.4310 C   0  0  0  0  0  0  0  0  0  0  0  0
   40.6300   78.0940   61.6910 C   0  0  0  0  0  0  0  0  0  0  0  0
   40.2500   78.2830   60.3750 C   0  0  0  0  0  0  0  0  0  0  0  0
   40.4270   80.1000   60.1290 S   0  0  0  0  0  0  0  0  0  0  0  0
   41.3060   79.0150   63.4700 H   0  0  0  0  0  0  0  0  0  0  0  0
   40.5720   77.0530   61.9760 H   0  0  0  0  0  0  0  0  0  0  0  0
   43.0440   83.2170   62.9580 C   0  0  0  0  0  0  0  0  0  0  0  0
   42.1410   83.9790   63.7470 C   0  0  0  0  0  0  0  0  0  0  0  0
   40.8230   83.5130   63.8830 C   0  0  0  0  0  0  0  0  0  0  0  0
   40.4790   82.3680   63.2570 N   0  0  0  0  0  0  0  0  0  0  0  0
   41.3750   81.6610   62.5060 C   0  0  0  0  0  0  0  0  0  0  0  0
   42.6290   82.1020   62.3750 N   0  0  0  0  0  0  0  0  0  0  0  0
   44.0490   83.6100   62.8790 H   0  0  0  0  0  0  0  0  0  0  0  0
   42.3840   84.8990   64.2610 H   0  0  0  0  0  0  0  0  0  0  0  0
   40.0650   84.0060   64.4510 H   0  0  0  0  0  0  0  0  0  0  0  0
   37.1020   77.5650   56.8100 C   0  0  0  0  0  0  0  0  0  0  0  0
   36.0070   77.0390   57.0630 O   0  0  0  0  0  0  0  0  0  0  0  0
   37.2070   78.5960   55.7090 C   0  0  1  0  0  0  0  0  0  0  0  0
   37.2640   80.0090   56.2270 C   0  0  0  0  0  0  0  0  0  0  0  0
   38.4160   79.3900   55.5840 C   0  0  2  0  0  0  0  0  0  0  0  0
   36.3320   78.5120   55.0050 H   0  0  0  0  0  0  0  0  0  0  0  0
   37.2670   80.1610   57.3370 H   0  0  0  0  0  0  0  0  0  0  0  0
   36.6500   80.7810   55.7320 H   0  0  0  0  0  0  0  0  0  0  0  0
   39.2590   79.0820   56.2550 H   0  0  0  0  0  0  0  0  0  0  0  0
   38.9050   79.7760   54.2160 C   0  0  0  0  0  3  0  0  0  0  0  0
   40.0910   79.0000   53.7590 C   0  0  0  0  0  3  0  0  0  0  0  0
   40.7310   78.7720   54.6360 H   0  0  0  0  0  0  0  0  0  0  0  0
   39.7050   77.7560   52.9930 C   0  0  0  0  0  3  0  0  0  0  0  0
   39.8200   77.8620   51.8950 H   0  0  0  0  0  0  0  0  0  0  0  0
   38.3610   77.4890   53.2370 O   0  0  0  0  0  0  0  0  0  0  0  0
   37.6160   78.4290   52.5400 C   0  0  0  0  0  3  0  0  0  0  0  0
   36.5480   78.1470   52.4540 H   0  0  0  0  0  0  0  0  0  0  0  0
   37.7430   79.7420   53.2430 C   0  0  0  0  0  3  0  0  0  0  0  0
   36.8060   79.9090   53.8500 H   0  0  0  0  0  0  0  0  0  0  0  0
  1 12  1  0  0  0  0
  2  1  1  0  0  0  0
  2  7  1  0  0  0  0
  3  2  2  0  0  0  0
  4  5  2  0  0  0  0
  4  3  1  0  0  0  0
  5  6  1  0  0  0  0
  6  1  2  0  0  0  0
  8  3  1  0  0  0  0
  9 10  2  0  0  0  0
  9 20  1  0  0  0  0
 10 14  1  0  0  0  0
 11 15  1  0  0  0  0
 11 10  1  0  0  0  0
 12 11  2  0  0  0  0
 13 12  1  0  0  0  0
 13  9  1  0  0  0  0
 16 17  1  0  0  0  0
 17 18  2  0  0  0  0
 17 23  1  0  0  0  0
 18 24  1  0  0  0  0
 19 18  1  0  0  0  0
 20 19  2  0  0  0  0
 21 20  1  0  0  0  0
 21 16  2  0  0  0  0
 22 16  1  0  0  0  0
 25 26  2  0  0  0  0
 25  5  1  0  0  0  0
 27 30  1  6  0  0  0
 27 28  1  0  0  0  0
 27 25  1  0  0  0  0
 28 31  1  0  0  0  0
 29 27  1  0  0  0  0
 29 28  1  0  0  0  0
 29 33  1  1  0  0  0
 32 28  1  0  0  0  0
 34 29  1  0  0  0  0
 35 34  1  0  0  0  0
 35 36  1  0  0  0  0
 37 39  1  0  0  0  0
 37 35  1  0  0  0  0
 38 37  1  0  0  0  0
 40 39  1  0  0  0  0
 40 42  1  0  0  0  0
 41 40  1  0  0  0  0
 42 43  1  0  0  0  0
 42 34  1  0  0  0  0
M  END
>  <minimizedAffinity>
-6.49396515

>  <minimizedRMSD>
0.416849911

$$$$
