
 OpenBabel03212521073D

 37 40  0  0  0  0  0  0  0  0999 V2000
   41.8180   84.2330   61.5710 C   0  0  0  0  0  0  0  0  0  0  0  0
   41.4610   83.9760   62.8980 C   0  0  0  0  0  0  0  0  0  0  0  0
   40.1780   83.5620   63.2320 C   0  0  0  0  0  0  0  0  0  0  0  0
   39.2300   83.4000   62.2350 C   0  0  0  0  0  0  0  0  0  0  0  0
   39.5880   83.6580   60.9210 C   0  0  0  0  0  0  0  0  0  0  0  0
   40.8650   84.0700   60.5790 C   0  0  0  0  0  0  0  0  0  0  0  0
   42.2280   84.1120   63.6560 H   0  0  0  0  0  0  0  0  0  0  0  0
   40.0250   83.3940   64.2910 H   0  0  0  0  0  0  0  0  0  0  0  0
   38.2540   83.0820   62.5260 H   0  0  0  0  0  0  0  0  0  0  0  0
   38.7950   83.5080   60.2200 H   0  0  0  0  0  0  0  0  0  0  0  0
   45.3290   84.1450   60.5880 C   0  0  0  0  0  0  0  0  0  0  0  0
   45.7230   85.4710   60.7000 C   0  0  0  0  0  0  0  0  0  0  0  0
   44.7630   86.4140   61.1220 C   0  0  0  0  0  0  0  0  0  0  0  0
   43.5060   85.9780   61.3960 N   0  0  0  0  0  0  0  0  0  0  0  0
   43.1620   84.6600   61.2720 C   0  0  0  0  0  0  0  0  0  0  0  0
   44.0720   83.7850   60.8750 N   0  0  0  0  0  0  0  0  0  0  0  0
   46.0040   83.3490   60.2700 H   0  0  0  0  0  0  0  0  0  0  0  0
   46.7370   85.7130   60.4610 H   0  0  0  0  0  0  0  0  0  0  0  0
   45.0620   87.4410   61.2100 H   0  0  0  0  0  0  0  0  0  0  0  0
   41.1810   84.3240   59.1890 C   0  0  0  0  0  0  0  0  0  0  0  0
   40.8670   85.6430   58.8280 C   0  0  0  0  0  0  0  0  0  0  0  0
   41.1000   86.0840   57.5230 C   0  0  0  0  0  0  0  0  0  0  0  0
   41.6220   85.2150   56.6590 N   0  0  0  0  0  0  0  0  0  0  0  0
   41.9240   83.9320   57.0240 C   0  0  0  0  0  0  0  0  0  0  0  0
   41.7060   83.4920   58.2770 N   0  0  0  0  0  0  0  0  0  0  0  0
   40.4420   86.3990   59.4790 H   0  0  0  0  0  0  0  0  0  0  0  0
   40.8730   87.0940   57.2000 H   0  0  0  0  0  0  0  0  0  0  0  0
   42.4980   83.0300   56.0140 C   0  0  0  0  0  3  0  0  0  0  0  0
   41.5580   81.9130   55.6890 C   0  0  0  0  0  3  0  0  0  0  0  0
   41.2170   81.4580   56.6530 H   0  0  0  0  0  0  0  0  0  0  0  0
   42.2140   80.8660   54.8480 C   0  0  0  0  0  3  0  0  0  0  0  0
   42.0380   79.8650   55.2860 H   0  0  0  0  0  0  0  0  0  0  0  0
   43.5500   81.1230   54.5890 O   0  0  0  0  0  0  0  0  0  0  0  0
   44.2980   81.3240   55.7450 C   0  0  0  0  0  3  0  0  0  0  0  0
   45.3240   81.5680   55.3930 H   0  0  0  0  0  0  0  0  0  0  0  0
   43.7930   82.4730   56.5620 C   0  0  0  0  0  3  0  0  0  0  0  0
   44.5340   83.3070   56.5910 H   0  0  0  0  0  0  0  0  0  0  0  0
  1  2  1  0  0  0  0
  2  3  2  0  0  0  0
  2  7  1  0  0  0  0
  3  8  1  0  0  0  0
  4  9  1  0  0  0  0
  4  3  1  0  0  0  0
  5  4  2  0  0  0  0
  6  5  1  0  0  0  0
  6  1  2  0  0  0  0
 10  5  1  0  0  0  0
 11 12  2  0  0  0  0
 11 16  1  0  0  0  0
 12 13  1  0  0  0  0
 13 19  1  0  0  0  0
 13 14  2  0  0  0  0
 15 14  1  0  0  0  0
 15  1  1  0  0  0  0
 16 15  2  0  0  0  0
 17 11  1  0  0  0  0
 18 12  1  0  0  0  0
 20  6  1  0  0  0  0
 21 20  1  0  0  0  0
 21 26  1  0  0  0  0
 22 21  2  0  0  0  0
 23 24  2  0  0  0  0
 23 22  1  0  0  0  0
 24 25  1  0  0  0  0
 25 20  2  0  0  0  0
 27 22  1  0  0  0  0
 28 36  1  0  0  0  0
 28 24  1  0  0  0  0
 29 28  1  0  0  0  0
 29 30  1  0  0  0  0
 31 32  1  0  0  0  0
 31 29  1  0  0  0  0
 33 31  1  0  0  0  0
 33 34  1  0  0  0  0
 34 36  1  0  0  0  0
 35 34  1  0  0  0  0
 36 37  1  0  0  0  0
M  END
>  <minimizedAffinity>
-5.46470833

>  <minimizedRMSD>
0.344678968

$$$$
