
 OpenBabel03212521003D

 43 47  0  0  1  0  0  0  0  0999 V2000
   39.7950   77.4120   59.1820 C   0  0  0  0  0  0  0  0  0  0  0  0
   40.4790   76.2620   58.9210 C   0  0  0  0  0  0  0  0  0  0  0  0
   39.9340   75.5610   57.8370 C   0  0  0  0  0  0  0  0  0  0  0  0
   38.8620   75.9630   57.1270 N   0  0  0  0  0  0  0  0  0  0  0  0
   38.2530   77.1340   57.4760 C   0  0  0  0  0  0  0  0  0  0  0  0
   38.7260   77.8610   58.5130 N   0  0  0  0  0  0  0  0  0  0  0  0
   41.3300   75.8950   59.4470 H   0  0  0  0  0  0  0  0  0  0  0  0
   40.3820   74.6170   57.5110 H   0  0  0  0  0  0  0  0  0  0  0  0
   40.9790   80.3460   61.7540 C   0  0  0  0  0  0  0  0  0  0  0  0
   40.9730   79.1110   62.3510 C   0  0  0  0  0  0  0  0  0  0  0  0
   40.5970   78.0490   61.6000 C   0  0  0  0  0  0  0  0  0  0  0  0
   40.2400   78.2490   60.2790 C   0  0  0  0  0  0  0  0  0  0  0  0
   40.4390   80.0650   60.0450 S   0  0  0  0  0  0  0  0  0  0  0  0
   41.2540   78.9550   63.3940 H   0  0  0  0  0  0  0  0  0  0  0  0
   40.5250   77.0080   61.8780 H   0  0  0  0  0  0  0  0  0  0  0  0
   43.0360   83.1520   62.9150 C   0  0  0  0  0  0  0  0  0  0  0  0
   42.1340   83.9090   63.7090 C   0  0  0  0  0  0  0  0  0  0  0  0
   40.8130   83.4460   63.8360 C   0  0  0  0  0  0  0  0  0  0  0  0
   40.4680   82.3080   63.2000 N   0  0  0  0  0  0  0  0  0  0  0  0
   41.3640   81.6050   62.4440 C   0  0  0  0  0  0  0  0  0  0  0  0
   42.6190   82.0430   62.3210 N   0  0  0  0  0  0  0  0  0  0  0  0
   44.0420   83.5430   62.8420 H   0  0  0  0  0  0  0  0  0  0  0  0
   42.3770   84.8240   64.2310 H   0  0  0  0  0  0  0  0  0  0  0  0
   40.0560   83.9360   64.4070 H   0  0  0  0  0  0  0  0  0  0  0  0
   37.1080   77.5530   56.6950 C   0  0  0  0  0  0  0  0  0  0  0  0
   35.9940   77.1200   57.0250 O   0  0  0  0  0  0  0  0  0  0  0  0
   37.2360   78.4780   55.5050 C   0  0  1  0  0  0  0  0  0  0  0  0
   37.2750   79.9340   55.8910 C   0  0  0  0  0  0  0  0  0  0  0  0
   38.4440   79.2650   55.3360 C   0  0  2  0  0  0  0  0  0  0  0  0
   36.3780   78.3230   54.7920 H   0  0  0  0  0  0  0  0  0  0  0  0
   37.2500   80.1880   56.9820 H   0  0  0  0  0  0  0  0  0  0  0  0
   36.6690   80.6520   55.3120 H   0  0  0  0  0  0  0  0  0  0  0  0
   39.2720   79.0250   56.0530 H   0  0  0  0  0  0  0  0  0  0  0  0
   38.9650   79.5250   53.9500 C   0  0  0  0  0  3  0  0  0  0  0  0
   40.3960   79.9350   53.9120 C   0  0  0  0  0  3  0  0  0  0  0  0
   40.6210   80.5420   54.8130 H   0  0  0  0  0  0  0  0  0  0  0  0
   41.3300   78.7560   53.7680 C   0  0  0  0  0  3  0  0  0  0  0  0
   41.7260   78.6310   52.7400 H   0  0  0  0  0  0  0  0  0  0  0  0
   40.6220   77.5970   54.0740 O   0  0  0  0  0  0  0  0  0  0  0  0
   39.7630   77.3400   53.0160 C   0  0  0  0  0  3  0  0  0  0  0  0
   39.3530   76.3110   53.0390 H   0  0  0  0  0  0  0  0  0  0  0  0
   38.6490   78.3340   53.0660 C   0  0  0  0  0  3  0  0  0  0  0  0
   37.7440   77.8290   53.5150 H   0  0  0  0  0  0  0  0  0  0  0  0
  1 12  1  0  0  0  0
  2  1  1  0  0  0  0
  2  7  1  0  0  0  0
  3  2  2  0  0  0  0
  4  5  2  0  0  0  0
  4  3  1  0  0  0  0
  5  6  1  0  0  0  0
  6  1  2  0  0  0  0
  8  3  1  0  0  0  0
  9 10  2  0  0  0  0
  9 20  1  0  0  0  0
 10 14  1  0  0  0  0
 11 15  1  0  0  0  0
 11 10  1  0  0  0  0
 12 11  2  0  0  0  0
 13 12  1  0  0  0  0
 13  9  1  0  0  0  0
 16 17  1  0  0  0  0
 17 18  2  0  0  0  0
 17 23  1  0  0  0  0
 18 24  1  0  0  0  0
 19 18  1  0  0  0  0
 20 19  2  0  0  0  0
 21 20  1  0  0  0  0
 21 16  2  0  0  0  0
 22 16  1  0  0  0  0
 25 26  2  0  0  0  0
 25  5  1  0  0  0  0
 27 30  1  6  0  0  0
 27 28  1  0  0  0  0
 27 25  1  0  0  0  0
 28 31  1  0  0  0  0
 29 27  1  0  0  0  0
 29 28  1  0  0  0  0
 29 33  1  1  0  0  0
 32 28  1  0  0  0  0
 34 29  1  0  0  0  0
 35 34  1  0  0  0  0
 35 36  1  0  0  0  0
 37 35  1  0  0  0  0
 37 39  1  0  0  0  0
 38 37  1  0  0  0  0
 40 41  1  0  0  0  0
 40 42  1  0  0  0  0
 40 39  1  0  0  0  0
 42 43  1  0  0  0  0
 42 34  1  0  0  0  0
M  END
>  <minimizedAffinity>
-6.24509621

>  <minimizedRMSD>
0.0953807756

$$$$
