
 OpenBabel03212520053D

 42 46  0  0  0  0  0  0  0  0999 V2000
   40.6610   81.8660   57.0680 C   0  0  0  0  0  0  0  0  0  0  0  0
   41.7970   82.3570   56.4010 C   0  0  0  0  0  0  0  0  0  0  0  0
   42.6450   83.1860   57.1250 C   0  0  0  0  0  0  0  0  0  0  0  0
   42.3680   83.4910   58.4200 N   0  0  0  0  0  0  0  0  0  0  0  0
   41.2560   82.9910   59.0300 C   0  0  0  0  0  0  0  0  0  0  0  0
   40.3960   82.1760   58.3570 N   0  0  0  0  0  0  0  0  0  0  0  0
   39.9120   81.2160   56.6410 H   0  0  0  0  0  0  0  0  0  0  0  0
   41.8230   81.9570   55.4180 H   0  0  0  0  0  0  0  0  0  0  0  0
   39.6880   83.1080   60.8980 C   0  0  0  0  0  0  0  0  0  0  0  0
   40.9890   83.2970   60.4270 C   0  0  0  0  0  0  0  0  0  0  0  0
   42.0080   83.7470   61.2700 C   0  0  0  0  0  0  0  0  0  0  0  0
   41.7630   84.0200   62.6050 C   0  0  0  0  0  0  0  0  0  0  0  0
   42.4700   84.4480   63.6570 N   0  0  0  0  0  0  0  0  0  0  0  0
   41.6750   84.5310   64.7520 C   0  0  0  0  0  0  0  0  0  0  0  0
   40.4510   84.1370   64.3250 N   0  0  0  0  0  0  0  0  0  0  0  0
   40.4660   83.8180   63.0200 C   0  0  0  0  0  0  0  0  0  0  0  0
   39.4250   83.3790   62.2400 C   0  0  0  0  0  0  0  0  0  0  0  0
   38.8890   82.7670   60.2840 H   0  0  0  0  0  0  0  0  0  0  0  0
   43.0120   83.8900   60.8900 H   0  0  0  0  0  0  0  0  0  0  0  0
   43.4870   84.6620   63.5540 H   0  0  0  0  0  0  0  0  0  0  0  0
   42.0280   84.8530   65.7160 H   0  0  0  0  0  0  0  0  0  0  0  0
   38.4480   83.2460   62.6340 H   0  0  0  0  0  0  0  0  0  0  0  0
   42.5630   83.4400   54.1510 Cl  0  0  0  0  0  0  0  0  0  0  0  0
   43.9410   83.9010   55.1480 C   0  0  0  0  0  0  0  0  0  0  0  0
   43.8280   83.7330   56.5010 C   0  0  0  0  0  0  0  0  0  0  0  0
   44.9560   84.1300   57.2130 C   0  0  0  0  0  0  0  0  0  0  0  0
   46.0930   84.6470   56.6490 C   0  0  0  0  0  0  0  0  0  0  0  0
   46.1490   84.7920   55.2710 C   0  0  0  0  0  0  0  0  0  0  0  0
   47.5510   85.4090   54.4630 Cl  0  0  0  0  0  0  0  0  0  0  0  0
   45.0570   84.4130   54.5340 C   0  0  0  0  0  0  0  0  0  0  0  0
   44.9590   84.0350   58.2940 H   0  0  0  0  0  0  0  0  0  0  0  0
   46.9310   84.9350   57.2570 H   0  0  0  0  0  0  0  0  0  0  0  0
   45.0340   84.5360   53.0730 C   0  0  0  0  0  3  0  0  0  0  0  0
   44.2230   85.7130   52.5510 C   0  0  0  0  0  3  0  0  0  0  0  0
   43.1480   85.4630   52.5650 H   0  0  0  0  0  0  0  0  0  0  0  0
   44.7000   85.8760   51.1030 C   0  0  0  0  0  3  0  0  0  0  0  0
   45.6920   86.3670   51.1210 H   0  0  0  0  0  0  0  0  0  0  0  0
   44.6400   84.7400   50.3560 O   0  0  0  0  0  0  0  0  0  0  0  0
   45.2390   83.6140   50.8600 C   0  0  0  0  0  3  0  0  0  0  0  0
   46.3290   83.6270   50.9180 H   0  0  0  0  0  0  0  0  0  0  0  0
   44.6200   83.3750   52.2580 C   0  0  0  0  0  3  0  0  0  0  0  0
   43.5230   83.4680   51.9880 H   0  0  0  0  0  0  0  0  0  0  0  0
  1  6  1  0  0  0  0
  2  1  2  0  0  0  0
  2  3  1  0  0  0  0
  3  4  2  0  0  0  0
  4  5  1  0  0  0  0
  5 10  1  0  0  0  0
  6  5  2  0  0  0  0
  7  1  1  0  0  0  0
  8  2  1  0  0  0  0
  9 17  1  0  0  0  0
 10  9  2  0  0  0  0
 10 11  1  0  0  0  0
 11 12  2  0  0  0  0
 12 16  1  0  0  0  0
 12 13  1  0  0  0  0
 13 14  1  0  0  0  0
 14 21  1  0  0  0  0
 15 14  2  0  0  0  0
 16 15  1  0  0  0  0
 17 22  1  0  0  0  0
 17 16  2  0  0  0  0
 18  9  1  0  0  0  0
 19 11  1  0  0  0  0
 20 13  1  0  0  0  0
 23 24  1  0  0  0  0
 24 25  1  0  0  0  0
 25  3  1  0  0  0  0
 25 26  2  0  0  0  0
 26 31  1  0  0  0  0
 27 26  1  0  0  0  0
 27 32  1  0  0  0  0
 28 27  2  0  0  0  0
 29 28  1  0  0  0  0
 30 24  2  0  0  0  0
 30 28  1  0  0  0  0
 33 30  1  0  0  0  0
 34 35  1  0  0  0  0
 34 33  1  0  0  0  0
 36 37  1  0  0  0  0
 36 34  1  0  0  0  0
 38 39  1  0  0  0  0
 38 36  1  0  0  0  0
 39 40  1  0  0  0  0
 39 41  1  0  0  0  0
 41 33  1  0  0  0  0
 42 41  1  0  0  0  0
M  END
>  <minimizedAffinity>
-4.90462875

>  <minimizedRMSD>
0.364638329

$$$$
