
 OpenBabel03212521083D

 37 40  0  0  0  0  0  0  0  0999 V2000
   40.1460   75.0670   58.2480 C   0  0  0  0  0  0  0  0  0  0  0  0
   39.1610   75.9650   57.8260 C   0  0  0  0  0  0  0  0  0  0  0  0
   39.0690   77.2400   58.3680 C   0  0  0  0  0  0  0  0  0  0  0  0
   39.9680   77.6350   59.3450 C   0  0  0  0  0  0  0  0  0  0  0  0
   40.9420   76.7410   59.7600 C   0  0  0  0  0  0  0  0  0  0  0  0
   41.0420   75.4690   59.2250 C   0  0  0  0  0  0  0  0  0  0  0  0
   38.4720   75.6240   57.0580 H   0  0  0  0  0  0  0  0  0  0  0  0
   38.2660   77.8410   57.9600 H   0  0  0  0  0  0  0  0  0  0  0  0
   39.8680   78.6220   59.7410 H   0  0  0  0  0  0  0  0  0  0  0  0
   41.5900   77.1310   60.5160 H   0  0  0  0  0  0  0  0  0  0  0  0
   39.4830   71.5380   57.6070 C   0  0  0  0  0  0  0  0  0  0  0  0
   40.3130   71.2500   56.5330 C   0  0  0  0  0  0  0  0  0  0  0  0
   41.1170   72.2890   56.0180 C   0  0  0  0  0  0  0  0  0  0  0  0
   41.0370   73.5150   56.5990 N   0  0  0  0  0  0  0  0  0  0  0  0
   40.2040   73.7540   57.6570 C   0  0  0  0  0  0  0  0  0  0  0  0
   39.4560   72.7710   58.1300 N   0  0  0  0  0  0  0  0  0  0  0  0
   38.8290   70.7970   58.0680 H   0  0  0  0  0  0  0  0  0  0  0  0
   40.3020   70.2530   56.1470 H   0  0  0  0  0  0  0  0  0  0  0  0
   41.7600   72.0720   55.1870 H   0  0  0  0  0  0  0  0  0  0  0  0
   42.0810   74.5790   59.6990 C   0  0  0  0  0  0  0  0  0  0  0  0
   43.3520   75.0240   59.3040 C   0  0  0  0  0  0  0  0  0  0  0  0
   44.4900   74.2980   59.6650 C   0  0  0  0  0  0  0  0  0  0  0  0
   44.3150   73.1900   60.3840 N   0  0  0  0  0  0  0  0  0  0  0  0
   43.0710   72.7660   60.7620 C   0  0  0  0  0  0  0  0  0  0  0  0
   41.9650   73.4550   60.4230 N   0  0  0  0  0  0  0  0  0  0  0  0
   43.5640   75.9130   58.7210 H   0  0  0  0  0  0  0  0  0  0  0  0
   45.4900   74.6040   59.3820 H   0  0  0  0  0  0  0  0  0  0  0  0
   42.9580   71.5330   61.5550 C   0  0  0  0  0  3  0  0  0  0  0  0
   42.5680   70.3710   60.6990 C   0  0  0  0  0  3  0  0  0  0  0  0
   41.6800   70.6750   60.0880 H   0  0  0  0  0  0  0  0  0  0  0  0
   42.2210   69.1720   61.5210 C   0  0  0  0  0  3  0  0  0  0  0  0
   41.2490   68.7580   61.1930 H   0  0  0  0  0  0  0  0  0  0  0  0
   42.2870   69.3980   62.8850 O   0  0  0  0  0  0  0  0  0  0  0  0
   41.5110   70.4790   63.2940 C   0  0  0  0  0  3  0  0  0  0  0  0
   41.6960   70.5780   64.3840 H   0  0  0  0  0  0  0  0  0  0  0  0
   41.9150   71.7590   62.6280 C   0  0  0  0  0  3  0  0  0  0  0  0
   42.3380   72.4830   63.3640 H   0  0  0  0  0  0  0  0  0  0  0  0
  1  6  1  0  0  0  0
  2  1  2  0  0  0  0
  2  3  1  0  0  0  0
  3  4  2  0  0  0  0
  4  9  1  0  0  0  0
  4  5  1  0  0  0  0
  5 10  1  0  0  0  0
  6 20  1  0  0  0  0
  6  5  2  0  0  0  0
  7  2  1  0  0  0  0
  8  3  1  0  0  0  0
 11 17  1  0  0  0  0
 11 16  1  0  0  0  0
 12 11  2  0  0  0  0
 13 12  1  0  0  0  0
 13 14  2  0  0  0  0
 14 15  1  0  0  0  0
 15 16  2  0  0  0  0
 15  1  1  0  0  0  0
 18 12  1  0  0  0  0
 19 13  1  0  0  0  0
 20 25  1  0  0  0  0
 21 22  1  0  0  0  0
 21 20  2  0  0  0  0
 22 23  2  0  0  0  0
 23 24  1  0  0  0  0
 24 28  1  0  0  0  0
 25 24  2  0  0  0  0
 26 21  1  0  0  0  0
 27 22  1  0  0  0  0
 28 36  1  0  0  0  0
 29 31  1  0  0  0  0
 29 28  1  0  0  0  0
 30 29  1  0  0  0  0
 31 33  1  0  0  0  0
 32 31  1  0  0  0  0
 33 34  1  0  0  0  0
 34 35  1  0  0  0  0
 36 34  1  0  0  0  0
 36 37  1  0  0  0  0
M  END
>  <minimizedAffinity>
-5.8834796

$$$$

 OpenBabel03212521083D

 37 40  0  0  0  0  0  0  0  0999 V2000
   40.5080   74.6340   57.5340 C   0  0  0  0  0  0  0  0  0  0  0  0
   39.7970   74.9950   56.3860 C   0  0  0  0  0  0  0  0  0  0  0  0
   40.3080   74.7570   55.1170 C   0  0  0  0  0  0  0  0  0  0  0  0
   41.5460   74.1510   54.9810 C   0  0  0  0  0  0  0  0  0  0  0  0
   42.2480   73.7950   56.1220 C   0  0  0  0  0  0  0  0  0  0  0  0
   41.7450   74.0280   57.3910 C   0  0  0  0  0  0  0  0  0  0  0  0
   38.8290   75.4690   56.5280 H   0  0  0  0  0  0  0  0  0  0  0  0
   39.6640   75.0820   54.3090 H   0  0  0  0  0  0  0  0  0  0  0  0
   41.9100   73.9840   53.9910 H   0  0  0  0  0  0  0  0  0  0  0  0
   43.1910   73.3340   55.9220 H   0  0  0  0  0  0  0  0  0  0  0  0
   39.6900   76.3140   60.6670 C   0  0  0  0  0  0  0  0  0  0  0  0
   38.8520   75.4090   61.3020 C   0  0  0  0  0  0  0  0  0  0  0  0
   38.5620   74.1960   60.6410 C   0  0  0  0  0  0  0  0  0  0  0  0
   39.1160   73.9790   59.4200 N   0  0  0  0  0  0  0  0  0  0  0  0
   39.9370   74.9000   58.8310 C   0  0  0  0  0  0  0  0  0  0  0  0
   40.2010   76.0330   59.4620 N   0  0  0  0  0  0  0  0  0  0  0  0
   39.9670   77.2740   61.1030 H   0  0  0  0  0  0  0  0  0  0  0  0
   38.4660   75.6750   62.2640 H   0  0  0  0  0  0  0  0  0  0  0  0
   37.9140   73.4920   61.1280 H   0  0  0  0  0  0  0  0  0  0  0  0
   42.5240   73.6340   58.5460 C   0  0  0  0  0  0  0  0  0  0  0  0
   43.5640   74.5430   58.7950 C   0  0  0  0  0  0  0  0  0  0  0  0
   44.4290   74.3370   59.8710 C   0  0  0  0  0  0  0  0  0  0  0  0
   44.2270   73.2630   60.6330 N   0  0  0  0  0  0  0  0  0  0  0  0
   43.2100   72.3840   60.3800 C   0  0  0  0  0  0  0  0  0  0  0  0
   42.3660   72.5690   59.3470 N   0  0  0  0  0  0  0  0  0  0  0  0
   43.7830   75.4340   58.2160 H   0  0  0  0  0  0  0  0  0  0  0  0
   45.2460   75.0130   60.1000 H   0  0  0  0  0  0  0  0  0  0  0  0
   43.0490   71.2210   61.2650 C   0  0  0  0  0  3  0  0  0  0  0  0
   42.3610   70.0950   60.5610 C   0  0  0  0  0  3  0  0  0  0  0  0
   41.4390   70.5050   60.0730 H   0  0  0  0  0  0  0  0  0  0  0  0
   41.9810   69.0020   61.5080 C   0  0  0  0  0  3  0  0  0  0  0  0
   40.9180   68.7290   61.3610 H   0  0  0  0  0  0  0  0  0  0  0  0
   42.2980   69.2770   62.8270 O   0  0  0  0  0  0  0  0  0  0  0  0
   41.7640   70.4830   63.2730 C   0  0  0  0  0  3  0  0  0  0  0  0
   42.1350   70.6020   64.3130 H   0  0  0  0  0  0  0  0  0  0  0  0
   42.2370   71.6530   62.4660 C   0  0  0  0  0  3  0  0  0  0  0  0
   42.8740   72.3360   63.0760 H   0  0  0  0  0  0  0  0  0  0  0  0
  1 15  1  0  0  0  0
  2  7  1  0  0  0  0
  2  1  2  0  0  0  0
  3  2  1  0  0  0  0
  4  3  2  0  0  0  0
  4  5  1  0  0  0  0
  5  6  2  0  0  0  0
  6  1  1  0  0  0  0
  6 20  1  0  0  0  0
  8  3  1  0  0  0  0
  9  4  1  0  0  0  0
 10  5  1  0  0  0  0
 11 17  1  0  0  0  0
 11 12  1  0  0  0  0
 12 18  1  0  0  0  0
 13 19  1  0  0  0  0
 13 12  2  0  0  0  0
 14 13  1  0  0  0  0
 15 14  2  0  0  0  0
 15 16  1  0  0  0  0
 16 11  2  0  0  0  0
 20 21  2  0  0  0  0
 20 25  1  0  0  0  0
 21 22  1  0  0  0  0
 22 27  1  0  0  0  0
 22 23  2  0  0  0  0
 24 23  1  0  0  0  0
 24 28  1  0  0  0  0
 25 24  2  0  0  0  0
 26 21  1  0  0  0  0
 28 36  1  0  0  0  0
 29 28  1  0  0  0  0
 29 31  1  0  0  0  0
 30 29  1  0  0  0  0
 31 33  1  0  0  0  0
 32 31  1  0  0  0  0
 33 34  1  0  0  0  0
 34 35  1  0  0  0  0
 36 37  1  0  0  0  0
 36 34  1  0  0  0  0
M  END
>  <minimizedAffinity>
-5.72227955

$$$$

 OpenBabel03212521083D

 37 40  0  0  0  0  0  0  0  0999 V2000
   41.6460   71.7920   59.9440 C   0  0  0  0  0  0  0  0  0  0  0  0
   41.9740   70.6830   60.7300 C   0  0  0  0  0  0  0  0  0  0  0  0
   41.9950   70.7620   62.1160 C   0  0  0  0  0  0  0  0  0  0  0  0
   41.6860   71.9620   62.7370 C   0  0  0  0  0  0  0  0  0  0  0  0
   41.3620   73.0590   61.9550 C   0  0  0  0  0  0  0  0  0  0  0  0
   41.3380   72.9880   60.5720 C   0  0  0  0  0  0  0  0  0  0  0  0
   42.2110   69.7580   60.2110 H   0  0  0  0  0  0  0  0  0  0  0  0
   42.2630   69.8380   62.6120 H   0  0  0  0  0  0  0  0  0  0  0  0
   41.7120   71.9880   63.8040 H   0  0  0  0  0  0  0  0  0  0  0  0
   41.1380   73.9390   62.5180 H   0  0  0  0  0  0  0  0  0  0  0  0
   40.4850   71.1730   56.5420 C   0  0  0  0  0  0  0  0  0  0  0  0
   41.6150   71.4160   55.7740 C   0  0  0  0  0  0  0  0  0  0  0  0
   42.7990   71.8000   56.4370 C   0  0  0  0  0  0  0  0  0  0  0  0
   42.7730   71.9120   57.7910 N   0  0  0  0  0  0  0  0  0  0  0  0
   41.6360   71.6630   58.5090 C   0  0  0  0  0  0  0  0  0  0  0  0
   40.5320   71.3040   57.8740 N   0  0  0  0  0  0  0  0  0  0  0  0
   39.5280   70.8720   56.1140 H   0  0  0  0  0  0  0  0  0  0  0  0
   41.5320   71.3000   54.7130 H   0  0  0  0  0  0  0  0  0  0  0  0
   43.6760   71.9890   55.8480 H   0  0  0  0  0  0  0  0  0  0  0  0
   40.9920   74.1670   59.8070 C   0  0  0  0  0  0  0  0  0  0  0  0
   42.0710   75.0620   59.7330 C   0  0  0  0  0  0  0  0  0  0  0  0
   41.9350   76.2640   59.0340 C   0  0  0  0  0  0  0  0  0  0  0  0
   40.7610   76.5150   58.4560 N   0  0  0  0  0  0  0  0  0  0  0  0
   39.7170   75.6350   58.5350 C   0  0  0  0  0  0  0  0  0  0  0  0
   39.8330   74.4720   59.2040 N   0  0  0  0  0  0  0  0  0  0  0  0
   43.0490   74.9190   60.1790 H   0  0  0  0  0  0  0  0  0  0  0  0
   42.7410   76.9840   58.9520 H   0  0  0  0  0  0  0  0  0  0  0  0
   38.4530   75.9810   57.8700 C   0  0  0  0  0  3  0  0  0  0  0  0
   37.8990   74.8140   57.1180 C   0  0  0  0  0  3  0  0  0  0  0  0
   38.7180   74.3930   56.4810 H   0  0  0  0  0  0  0  0  0  0  0  0
   36.7480   75.2120   56.2500 C   0  0  0  0  0  3  0  0  0  0  0  0
   36.8980   74.8250   55.2240 H   0  0  0  0  0  0  0  0  0  0  0  0
   36.4700   76.5680   56.2880 O   0  0  0  0  0  0  0  0  0  0  0  0
   37.5740   77.3570   55.9820 C   0  0  0  0  0  3  0  0  0  0  0  0
   37.2280   78.4060   56.1000 H   0  0  0  0  0  0  0  0  0  0  0  0
   38.7200   77.1290   56.9210 C   0  0  0  0  0  3  0  0  0  0  0  0
   38.9260   78.0360   57.5370 H   0  0  0  0  0  0  0  0  0  0  0  0
  1  6  2  0  0  0  0
  1  2  1  0  0  0  0
  2  3  2  0  0  0  0
  3  8  1  0  0  0  0
  3  4  1  0  0  0  0
  4  9  1  0  0  0  0
  5 10  1  0  0  0  0
  5  4  2  0  0  0  0
  6  5  1  0  0  0  0
  7  2  1  0  0  0  0
 11 16  1  0  0  0  0
 12 13  1  0  0  0  0
 12 11  2  0  0  0  0
 13 14  2  0  0  0  0
 14 15  1  0  0  0  0
 15  1  1  0  0  0  0
 16 15  2  0  0  0  0
 17 11  1  0  0  0  0
 18 12  1  0  0  0  0
 19 13  1  0  0  0  0
 20  6  1  0  0  0  0
 21 20  1  0  0  0  0
 21 26  1  0  0  0  0
 22 21  2  0  0  0  0
 23 24  2  0  0  0  0
 23 22  1  0  0  0  0
 24 25  1  0  0  0  0
 25 20  2  0  0  0  0
 27 22  1  0  0  0  0
 28 24  1  0  0  0  0
 29 28  1  0  0  0  0
 30 29  1  0  0  0  0
 31 33  1  0  0  0  0
 31 29  1  0  0  0  0
 32 31  1  0  0  0  0
 34 35  1  0  0  0  0
 34 33  1  0  0  0  0
 34 36  1  0  0  0  0
 36 37  1  0  0  0  0
 36 28  1  0  0  0  0
M  END
>  <minimizedAffinity>
-5.71491385

$$$$

 OpenBabel03212521083D

 37 40  0  0  0  0  0  0  0  0999 V2000
   42.3320   72.7000   60.3220 C   0  0  0  0  0  0  0  0  0  0  0  0
   43.0420   71.7560   61.0700 C   0  0  0  0  0  0  0  0  0  0  0  0
   42.5280   71.2380   62.2510 C   0  0  0  0  0  0  0  0  0  0  0  0
   41.2880   71.6620   62.7020 C   0  0  0  0  0  0  0  0  0  0  0  0
   40.5890   72.5990   61.9570 C   0  0  0  0  0  0  0  0  0  0  0  0
   41.0930   73.1190   60.7780 C   0  0  0  0  0  0  0  0  0  0  0  0
   44.0120   71.4450   60.6890 H   0  0  0  0  0  0  0  0  0  0  0  0
   43.1710   70.5160   62.7390 H   0  0  0  0  0  0  0  0  0  0  0  0
   40.9230   71.2450   63.6140 H   0  0  0  0  0  0  0  0  0  0  0  0
   39.6440   72.8660   62.3790 H   0  0  0  0  0  0  0  0  0  0  0  0
   44.1440   74.8400   57.9890 C   0  0  0  0  0  0  0  0  0  0  0  0
   43.9980   74.1810   56.7760 C   0  0  0  0  0  0  0  0  0  0  0  0
   43.2620   72.9780   56.7600 C   0  0  0  0  0  0  0  0  0  0  0  0
   42.7360   72.5260   57.9280 N   0  0  0  0  0  0  0  0  0  0  0  0
   42.9050   73.2090   59.1010 C   0  0  0  0  0  0  0  0  0  0  0  0
   43.5980   74.3360   59.1030 N   0  0  0  0  0  0  0  0  0  0  0  0
   44.6960   75.7750   58.0950 H   0  0  0  0  0  0  0  0  0  0  0  0
   44.4510   74.6190   55.9120 H   0  0  0  0  0  0  0  0  0  0  0  0
   43.1460   72.4640   55.8250 H   0  0  0  0  0  0  0  0  0  0  0  0
   40.3170   74.0940   60.0420 C   0  0  0  0  0  0  0  0  0  0  0  0
   40.2740   75.3250   60.7150 C   0  0  0  0  0  0  0  0  0  0  0  0
   39.5710   76.3990   60.1640 C   0  0  0  0  0  0  0  0  0  0  0  0
   38.9570   76.2040   58.9970 N   0  0  0  0  0  0  0  0  0  0  0  0
   39.0050   75.0000   58.3520 C   0  0  0  0  0  0  0  0  0  0  0  0
   39.6800   73.9560   58.8690 N   0  0  0  0  0  0  0  0  0  0  0  0
   40.7500   75.5500   61.6640 H   0  0  0  0  0  0  0  0  0  0  0  0
   39.5110   77.3670   60.6490 H   0  0  0  0  0  0  0  0  0  0  0  0
   38.3030   74.8610   57.0670 C   0  0  0  0  0  3  0  0  0  0  0  0
   39.2590   74.5620   55.9570 C   0  0  0  0  0  3  0  0  0  0  0  0
   40.0950   75.3050   56.0110 H   0  0  0  0  0  0  0  0  0  0  0  0
   38.5970   74.6520   54.6190 C   0  0  0  0  0  3  0  0  0  0  0  0
   39.2010   75.2840   53.9410 H   0  0  0  0  0  0  0  0  0  0  0  0
   37.2680   75.0340   54.6840 O   0  0  0  0  0  0  0  0  0  0  0  0
   37.0800   76.2280   55.3750 C   0  0  0  0  0  3  0  0  0  0  0  0
   35.9820   76.3860   55.3960 H   0  0  0  0  0  0  0  0  0  0  0  0
   37.5750   76.1580   56.7870 C   0  0  0  0  0  3  0  0  0  0  0  0
   36.7340   76.2370   57.5160 H   0  0  0  0  0  0  0  0  0  0  0  0
  1  6  2  0  0  0  0
  1  2  1  0  0  0  0
  2  3  2  0  0  0  0
  3  4  1  0  0  0  0
  3  8  1  0  0  0  0
  4  9  1  0  0  0  0
  5 10  1  0  0  0  0
  5  4  2  0  0  0  0
  6  5  1  0  0  0  0
  7  2  1  0  0  0  0
 11 17  1  0  0  0  0
 11 16  1  0  0  0  0
 12 11  2  0  0  0  0
 13 12  1  0  0  0  0
 13 14  2  0  0  0  0
 14 15  1  0  0  0  0
 15 16  2  0  0  0  0
 15  1  1  0  0  0  0
 18 12  1  0  0  0  0
 19 13  1  0  0  0  0
 20 21  1  0  0  0  0
 20  6  1  0  0  0  0
 21 26  1  0  0  0  0
 22 27  1  0  0  0  0
 22 21  2  0  0  0  0
 23 22  1  0  0  0  0
 24 25  1  0  0  0  0
 24 23  2  0  0  0  0
 25 20  2  0  0  0  0
 28 24  1  0  0  0  0
 29 30  1  0  0  0  0
 29 28  1  0  0  0  0
 31 33  1  0  0  0  0
 31 29  1  0  0  0  0
 32 31  1  0  0  0  0
 33 34  1  0  0  0  0
 34 35  1  0  0  0  0
 34 36  1  0  0  0  0
 36 28  1  0  0  0  0
 36 37  1  0  0  0  0
M  END
>  <minimizedAffinity>
-5.71100426

$$$$

 OpenBabel03212521083D

 37 40  0  0  0  0  0  0  0  0999 V2000
   41.4720   74.8560   59.7290 C   0  0  0  0  0  0  0  0  0  0  0  0
   40.9480   76.1180   59.4320 C   0  0  0  0  0  0  0  0  0  0  0  0
   39.7770   76.5700   60.0250 C   0  0  0  0  0  0  0  0  0  0  0  0
   39.1110   75.7590   60.9290 C   0  0  0  0  0  0  0  0  0  0  0  0
   39.6340   74.5090   61.2200 C   0  0  0  0  0  0  0  0  0  0  0  0
   40.8010   74.0500   60.6340 C   0  0  0  0  0  0  0  0  0  0  0  0
   41.4950   76.7290   58.7190 H   0  0  0  0  0  0  0  0  0  0  0  0
   39.4740   77.5620   59.7150 H   0  0  0  0  0  0  0  0  0  0  0  0
   38.2130   76.1360   61.3660 H   0  0  0  0  0  0  0  0  0  0  0  0
   39.0550   73.9530   61.9270 H   0  0  0  0  0  0  0  0  0  0  0  0
   43.7970   73.6290   57.2000 C   0  0  0  0  0  0  0  0  0  0  0  0
   45.0130   73.6150   57.8680 C   0  0  0  0  0  0  0  0  0  0  0  0
   45.0350   74.0350   59.2150 C   0  0  0  0  0  0  0  0  0  0  0  0
   43.8680   74.4320   59.7860 N   0  0  0  0  0  0  0  0  0  0  0  0
   42.6910   74.4290   59.0900 C   0  0  0  0  0  0  0  0  0  0  0  0
   42.6840   74.0330   57.8270 N   0  0  0  0  0  0  0  0  0  0  0  0
   43.6870   73.3220   56.1600 H   0  0  0  0  0  0  0  0  0  0  0  0
   45.8760   73.2860   57.3290 H   0  0  0  0  0  0  0  0  0  0  0  0
   45.9730   74.0270   59.7370 H   0  0  0  0  0  0  0  0  0  0  0  0
   41.2990   72.7350   60.9770 C   0  0  0  0  0  0  0  0  0  0  0  0
   41.6650   72.6650   62.3310 C   0  0  0  0  0  0  0  0  0  0  0  0
   42.1700   71.4740   62.8570 C   0  0  0  0  0  0  0  0  0  0  0  0
   42.2870   70.4330   62.0340 N   0  0  0  0  0  0  0  0  0  0  0  0
   41.9280   70.5140   60.7170 C   0  0  0  0  0  0  0  0  0  0  0  0
   41.4380   71.6540   60.1950 N   0  0  0  0  0  0  0  0  0  0  0  0
   41.5960   73.4720   63.0520 H   0  0  0  0  0  0  0  0  0  0  0  0
   42.4650   71.3760   63.8960 H   0  0  0  0  0  0  0  0  0  0  0  0
   42.0850   69.3220   59.8710 C   0  0  0  0  0  3  0  0  0  0  0  0
   41.1780   69.3780   58.6830 C   0  0  0  0  0  3  0  0  0  0  0  0
   40.1470   69.6210   59.0460 H   0  0  0  0  0  0  0  0  0  0  0  0
   41.1540   68.0780   57.9450 C   0  0  0  0  0  3  0  0  0  0  0  0
   40.1070   67.7650   57.7680 H   0  0  0  0  0  0  0  0  0  0  0  0
   41.9270   67.0930   58.5350 O   0  0  0  0  0  0  0  0  0  0  0  0
   41.6020   66.8740   59.8700 C   0  0  0  0  0  3  0  0  0  0  0  0
   42.3230   66.1090   60.2270 H   0  0  0  0  0  0  0  0  0  0  0  0
   41.7630   68.1050   60.7090 C   0  0  0  0  0  3  0  0  0  0  0  0
   42.5840   67.9820   61.4550 H   0  0  0  0  0  0  0  0  0  0  0  0
  1  6  1  0  0  0  0
  2  1  2  0  0  0  0
  2  3  1  0  0  0  0
  3  4  2  0  0  0  0
  4  5  1  0  0  0  0
  4  9  1  0  0  0  0
  5 10  1  0  0  0  0
  6 20  1  0  0  0  0
  6  5  2  0  0  0  0
  7  2  1  0  0  0  0
  8  3  1  0  0  0  0
 11 16  2  0  0  0  0
 11 12  1  0  0  0  0
 12 13  2  0  0  0  0
 13 19  1  0  0  0  0
 13 14  1  0  0  0  0
 15  1  1  0  0  0  0
 15 14  2  0  0  0  0
 16 15  1  0  0  0  0
 17 11  1  0  0  0  0
 18 12  1  0  0  0  0
 20 21  1  0  0  0  0
 21 22  2  0  0  0  0
 21 26  1  0  0  0  0
 22 27  1  0  0  0  0
 23 22  1  0  0  0  0
 24 23  2  0  0  0  0
 25 24  1  0  0  0  0
 25 20  2  0  0  0  0
 28 36  1  0  0  0  0
 28 24  1  0  0  0  0
 29 30  1  0  0  0  0
 29 28  1  0  0  0  0
 31 33  1  0  0  0  0
 31 29  1  0  0  0  0
 32 31  1  0  0  0  0
 33 34  1  0  0  0  0
 34 35  1  0  0  0  0
 34 36  1  0  0  0  0
 36 37  1  0  0  0  0
M  END
>  <minimizedAffinity>
-5.67663383

$$$$

 OpenBabel03212521083D

 37 40  0  0  0  0  0  0  0  0999 V2000
   41.1500   74.5900   59.9000 C   0  0  0  0  0  0  0  0  0  0  0  0
   40.5910   75.8560   60.1000 C   0  0  0  0  0  0  0  0  0  0  0  0
   39.3680   76.0110   60.7380 C   0  0  0  0  0  0  0  0  0  0  0  0
   38.6840   74.8930   61.1860 C   0  0  0  0  0  0  0  0  0  0  0  0
   39.2410   73.6400   60.9850 C   0  0  0  0  0  0  0  0  0  0  0  0
   40.4610   73.4770   60.3510 C   0  0  0  0  0  0  0  0  0  0  0  0
   41.1540   76.7120   59.7360 H   0  0  0  0  0  0  0  0  0  0  0  0
   39.0410   77.0390   60.8330 H   0  0  0  0  0  0  0  0  0  0  0  0
   37.7450   75.0470   61.6720 H   0  0  0  0  0  0  0  0  0  0  0  0
   38.6450   72.8380   61.3630 H   0  0  0  0  0  0  0  0  0  0  0  0
   44.7330   74.1890   59.3470 C   0  0  0  0  0  0  0  0  0  0  0  0
   44.8500   74.2630   57.9660 C   0  0  0  0  0  0  0  0  0  0  0  0
   43.6750   74.4550   57.2100 C   0  0  0  0  0  0  0  0  0  0  0  0
   42.4920   74.5560   57.8700 N   0  0  0  0  0  0  0  0  0  0  0  0
   42.4230   74.4780   59.2340 C   0  0  0  0  0  0  0  0  0  0  0  0
   43.5330   74.2980   59.9310 N   0  0  0  0  0  0  0  0  0  0  0  0
   45.5870   74.0430   60.0090 H   0  0  0  0  0  0  0  0  0  0  0  0
   45.8280   74.1700   57.5420 H   0  0  0  0  0  0  0  0  0  0  0  0
   43.7590   74.5120   56.1410 H   0  0  0  0  0  0  0  0  0  0  0  0
   40.9940   72.1430   60.1690 C   0  0  0  0  0  0  0  0  0  0  0  0
   40.6220   71.6100   58.9250 C   0  0  0  0  0  0  0  0  0  0  0  0
   41.0400   70.3280   58.5610 C   0  0  0  0  0  0  0  0  0  0  0  0
   41.7900   69.6510   59.4300 N   0  0  0  0  0  0  0  0  0  0  0  0
   42.1450   70.1810   60.6390 C   0  0  0  0  0  0  0  0  0  0  0  0
   41.7510   71.4160   61.0040 N   0  0  0  0  0  0  0  0  0  0  0  0
   40.0150   72.1060   58.1750 H   0  0  0  0  0  0  0  0  0  0  0  0
   40.7760   69.8770   57.6120 H   0  0  0  0  0  0  0  0  0  0  0  0
   42.9760   69.3740   61.5450 C   0  0  0  0  0  3  0  0  0  0  0  0
   44.0470   68.6470   60.7950 C   0  0  0  0  0  3  0  0  0  0  0  0
   43.5670   68.1230   59.9290 H   0  0  0  0  0  0  0  0  0  0  0  0
   44.7450   67.6470   61.6590 C   0  0  0  0  0  3  0  0  0  0  0  0
   44.7860   66.6680   61.1450 H   0  0  0  0  0  0  0  0  0  0  0  0
   44.2300   67.5700   62.9420 O   0  0  0  0  0  0  0  0  0  0  0  0
   42.8600   67.3240   62.9630 C   0  0  0  0  0  3  0  0  0  0  0  0
   42.5750   67.3390   64.0360 H   0  0  0  0  0  0  0  0  0  0  0  0
   42.0760   68.3830   62.2500 C   0  0  0  0  0  3  0  0  0  0  0  0
   41.4330   68.9570   62.9590 H   0  0  0  0  0  0  0  0  0  0  0  0
  1  2  2  0  0  0  0
  1  6  1  0  0  0  0
  2  3  1  0  0  0  0
  3  8  1  0  0  0  0
  3  4  2  0  0  0  0
  4  9  1  0  0  0  0
  5  4  1  0  0  0  0
  5 10  1  0  0  0  0
  6  5  2  0  0  0  0
  7  2  1  0  0  0  0
 11 16  1  0  0  0  0
 11 17  1  0  0  0  0
 12 11  2  0  0  0  0
 13 14  2  0  0  0  0
 13 12  1  0  0  0  0
 14 15  1  0  0  0  0
 15  1  1  0  0  0  0
 15 16  2  0  0  0  0
 18 12  1  0  0  0  0
 19 13  1  0  0  0  0
 20  6  1  0  0  0  0
 20 25  1  0  0  0  0
 21 20  2  0  0  0  0
 22 21  1  0  0  0  0
 22 23  2  0  0  0  0
 23 24  1  0  0  0  0
 24 25  2  0  0  0  0
 24 28  1  0  0  0  0
 26 21  1  0  0  0  0
 27 22  1  0  0  0  0
 28 36  1  0  0  0  0
 29 28  1  0  0  0  0
 29 31  1  0  0  0  0
 30 29  1  0  0  0  0
 31 33  1  0  0  0  0
 32 31  1  0  0  0  0
 33 34  1  0  0  0  0
 34 35  1  0  0  0  0
 36 37  1  0  0  0  0
 36 34  1  0  0  0  0
M  END
>  <minimizedAffinity>
-5.67142963

$$$$

 OpenBabel03212521083D

 37 40  0  0  0  0  0  0  0  0999 V2000
   41.3130   72.7130   61.0850 C   0  0  0  0  0  0  0  0  0  0  0  0
   41.6750   72.4210   62.4040 C   0  0  0  0  0  0  0  0  0  0  0  0
   42.1790   71.1760   62.7540 C   0  0  0  0  0  0  0  0  0  0  0  0
   42.3280   70.2000   61.7820 C   0  0  0  0  0  0  0  0  0  0  0  0
   41.9670   70.4930   60.4770 C   0  0  0  0  0  0  0  0  0  0  0  0
   41.4650   71.7320   60.1190 C   0  0  0  0  0  0  0  0  0  0  0  0
   41.5470   73.2090   63.1420 H   0  0  0  0  0  0  0  0  0  0  0  0
   42.4230   71.0720   63.8040 H   0  0  0  0  0  0  0  0  0  0  0  0
   42.7170   69.2530   62.0860 H   0  0  0  0  0  0  0  0  0  0  0  0
   42.1150   69.6820   59.7960 H   0  0  0  0  0  0  0  0  0  0  0  0
   39.0850   75.5960   60.9200 C   0  0  0  0  0  0  0  0  0  0  0  0
   39.8060   76.5100   60.1650 C   0  0  0  0  0  0  0  0  0  0  0  0
   41.0830   76.1280   59.7030 C   0  0  0  0  0  0  0  0  0  0  0  0
   41.5410   74.8890   60.0210 N   0  0  0  0  0  0  0  0  0  0  0  0
   40.7960   74.0200   60.7680 C   0  0  0  0  0  0  0  0  0  0  0  0
   39.5990   74.3900   61.1950 N   0  0  0  0  0  0  0  0  0  0  0  0
   38.0920   75.8060   61.3170 H   0  0  0  0  0  0  0  0  0  0  0  0
   39.3570   77.4610   59.9690 H   0  0  0  0  0  0  0  0  0  0  0  0
   41.6460   76.8310   59.1180 H   0  0  0  0  0  0  0  0  0  0  0  0
   41.1050   71.9810   58.7380 C   0  0  0  0  0  0  0  0  0  0  0  0
   42.0710   71.4670   57.8590 C   0  0  0  0  0  0  0  0  0  0  0  0
   41.9040   71.6070   56.4790 C   0  0  0  0  0  0  0  0  0  0  0  0
   40.8120   72.2360   56.0480 N   0  0  0  0  0  0  0  0  0  0  0  0
   39.8780   72.7330   56.9150 C   0  0  0  0  0  0  0  0  0  0  0  0
   40.0240   72.6050   58.2470 N   0  0  0  0  0  0  0  0  0  0  0  0
   42.9790   70.9460   58.1430 H   0  0  0  0  0  0  0  0  0  0  0  0
   42.6240   71.2260   55.7640 H   0  0  0  0  0  0  0  0  0  0  0  0
   38.6980   73.4150   56.3630 C   0  0  0  0  0  3  0  0  0  0  0  0
   39.0280   74.1230   55.0880 C   0  0  0  0  0  3  0  0  0  0  0  0
   39.9460   74.7410   55.2640 H   0  0  0  0  0  0  0  0  0  0  0  0
   37.9090   75.0090   54.6430 C   0  0  0  0  0  3  0  0  0  0  0  0
   38.2970   76.0180   54.4100 H   0  0  0  0  0  0  0  0  0  0  0  0
   36.8350   75.0240   55.5170 O   0  0  0  0  0  0  0  0  0  0  0  0
   37.1980   75.3570   56.8180 C   0  0  0  0  0  3  0  0  0  0  0  0
   36.2640   75.2810   57.4130 H   0  0  0  0  0  0  0  0  0  0  0  0
   38.2040   74.4070   57.3930 C   0  0  0  0  0  3  0  0  0  0  0  0
   37.7740   73.8250   58.2430 H   0  0  0  0  0  0  0  0  0  0  0  0
  1  2  1  0  0  0  0
  2  3  2  0  0  0  0
  2  7  1  0  0  0  0
  3  8  1  0  0  0  0
  4  9  1  0  0  0  0
  4  3  1  0  0  0  0
  5  4  2  0  0  0  0
  6  5  1  0  0  0  0
  6  1  2  0  0  0  0
 10  5  1  0  0  0  0
 11 16  1  0  0  0  0
 11 17  1  0  0  0  0
 12 11  2  0  0  0  0
 13 14  2  0  0  0  0
 13 12  1  0  0  0  0
 14 15  1  0  0  0  0
 15  1  1  0  0  0  0
 15 16  2  0  0  0  0
 18 12  1  0  0  0  0
 19 13  1  0  0  0  0
 20  6  1  0  0  0  0
 21 26  1  0  0  0  0
 21 20  2  0  0  0  0
 22 21  1  0  0  0  0
 23 22  2  0  0  0  0
 23 24  1  0  0  0  0
 24 25  2  0  0  0  0
 25 20  1  0  0  0  0
 27 22  1  0  0  0  0
 28 24  1  0  0  0  0
 28 36  1  0  0  0  0
 29 30  1  0  0  0  0
 29 28  1  0  0  0  0
 31 29  1  0  0  0  0
 31 33  1  0  0  0  0
 32 31  1  0  0  0  0
 33 34  1  0  0  0  0
 34 36  1  0  0  0  0
 34 35  1  0  0  0  0
 36 37  1  0  0  0  0
M  END
>  <minimizedAffinity>
-5.66349411

$$$$

 OpenBabel03212521083D

 37 40  0  0  0  0  0  0  0  0999 V2000
   42.2980   74.2870   59.1230 C   0  0  0  0  0  0  0  0  0  0  0  0
   43.5030   74.3510   59.8290 C   0  0  0  0  0  0  0  0  0  0  0  0
   44.7250   74.2080   59.1840 C   0  0  0  0  0  0  0  0  0  0  0  0
   44.7550   73.9970   57.8150 C   0  0  0  0  0  0  0  0  0  0  0  0
   43.5580   73.9330   57.1200 C   0  0  0  0  0  0  0  0  0  0  0  0
   42.3360   74.0760   57.7540 C   0  0  0  0  0  0  0  0  0  0  0  0
   43.4440   74.5180   60.9020 H   0  0  0  0  0  0  0  0  0  0  0  0
   45.5850   74.2770   59.8380 H   0  0  0  0  0  0  0  0  0  0  0  0
   45.7110   73.8900   57.3510 H   0  0  0  0  0  0  0  0  0  0  0  0
   43.6770   73.7680   56.0710 H   0  0  0  0  0  0  0  0  0  0  0  0
   39.3580   75.8220   60.6410 C   0  0  0  0  0  0  0  0  0  0  0  0
   38.6840   74.7410   61.1890 C   0  0  0  0  0  0  0  0  0  0  0  0
   39.2500   73.4580   61.0340 C   0  0  0  0  0  0  0  0  0  0  0  0
   40.4230   73.3480   60.3580 N   0  0  0  0  0  0  0  0  0  0  0  0
   41.0540   74.4420   59.8340 C   0  0  0  0  0  0  0  0  0  0  0  0
   40.5120   75.6400   59.9860 N   0  0  0  0  0  0  0  0  0  0  0  0
   38.9940   76.8480   60.7120 H   0  0  0  0  0  0  0  0  0  0  0  0
   37.7650   74.9330   61.7020 H   0  0  0  0  0  0  0  0  0  0  0  0
   38.7330   72.6180   61.4560 H   0  0  0  0  0  0  0  0  0  0  0  0
   41.1180   74.0010   56.9760 C   0  0  0  0  0  0  0  0  0  0  0  0
   40.7050   72.6710   56.8010 C   0  0  0  0  0  0  0  0  0  0  0  0
   39.5460   72.3880   56.0750 C   0  0  0  0  0  0  0  0  0  0  0  0
   38.8670   73.4160   55.5670 N   0  0  0  0  0  0  0  0  0  0  0  0
   39.2800   74.7080   55.7440 C   0  0  0  0  0  0  0  0  0  0  0  0
   40.3940   74.9970   56.4420 N   0  0  0  0  0  0  0  0  0  0  0  0
   41.2100   71.7910   57.1860 H   0  0  0  0  0  0  0  0  0  0  0  0
   39.1910   71.3770   55.9150 H   0  0  0  0  0  0  0  0  0  0  0  0
   38.4770   75.7900   55.1540 C   0  0  0  0  0  3  0  0  0  0  0  0
   37.5100   76.3500   56.1470 C   0  0  0  0  0  3  0  0  0  0  0  0
   36.9590   75.4940   56.6140 H   0  0  0  0  0  0  0  0  0  0  0  0
   36.5330   77.2800   55.5030 C   0  0  0  0  0  3  0  0  0  0  0  0
   35.5020   77.0100   55.8000 H   0  0  0  0  0  0  0  0  0  0  0  0
   36.6960   77.3900   54.1320 O   0  0  0  0  0  0  0  0  0  0  0  0
   36.6630   76.1600   53.4810 C   0  0  0  0  0  3  0  0  0  0  0  0
   36.8560   76.3880   52.4120 H   0  0  0  0  0  0  0  0  0  0  0  0
   37.7300   75.2270   53.9660 C   0  0  0  0  0  3  0  0  0  0  0  0
   38.4780   75.0160   53.1650 H   0  0  0  0  0  0  0  0  0  0  0  0
  1  2  1  0  0  0  0
  1 15  1  0  0  0  0
  2  7  1  0  0  0  0
  3  2  2  0  0  0  0
  3  8  1  0  0  0  0
  4  3  1  0  0  0  0
  5  6  1  0  0  0  0
  5  4  2  0  0  0  0
  6  1  2  0  0  0  0
  9  4  1  0  0  0  0
 10  5  1  0  0  0  0
 11 17  1  0  0  0  0
 11 12  1  0  0  0  0
 12 18  1  0  0  0  0
 13 12  2  0  0  0  0
 13 19  1  0  0  0  0
 14 13  1  0  0  0  0
 15 16  1  0  0  0  0
 15 14  2  0  0  0  0
 16 11  2  0  0  0  0
 20  6  1  0  0  0  0
 21 20  1  0  0  0  0
 21 26  1  0  0  0  0
 22 21  2  0  0  0  0
 23 24  2  0  0  0  0
 23 22  1  0  0  0  0
 24 25  1  0  0  0  0
 25 20  2  0  0  0  0
 27 22  1  0  0  0  0
 28 24  1  0  0  0  0
 28 29  1  0  0  0  0
 29 30  1  0  0  0  0
 31 32  1  0  0  0  0
 31 29  1  0  0  0  0
 33 31  1  0  0  0  0
 34 36  1  0  0  0  0
 34 33  1  0  0  0  0
 35 34  1  0  0  0  0
 36 28  1  0  0  0  0
 37 36  1  0  0  0  0
M  END
>  <minimizedAffinity>
-5.56678629

$$$$

 OpenBabel03212521083D

 37 40  0  0  0  0  0  0  0  0999 V2000
   39.9040   72.6470   59.2190 C   0  0  0  0  0  0  0  0  0  0  0  0
   39.0040   73.7150   59.1620 C   0  0  0  0  0  0  0  0  0  0  0  0
   38.0440   73.7970   58.1620 C   0  0  0  0  0  0  0  0  0  0  0  0
   37.9740   72.8030   57.1990 C   0  0  0  0  0  0  0  0  0  0  0  0
   38.8690   71.7460   57.2590 C   0  0  0  0  0  0  0  0  0  0  0  0
   39.8280   71.6570   58.2530 C   0  0  0  0  0  0  0  0  0  0  0  0
   39.0860   74.4780   59.9320 H   0  0  0  0  0  0  0  0  0  0  0  0
   37.4060   74.6690   58.2250 H   0  0  0  0  0  0  0  0  0  0  0  0
   37.2250   72.8960   56.4440 H   0  0  0  0  0  0  0  0  0  0  0  0
   38.7400   71.0280   56.4780 H   0  0  0  0  0  0  0  0  0  0  0  0
   41.4320   72.1190   62.4880 C   0  0  0  0  0  0  0  0  0  0  0  0
   42.7460   72.5210   62.2920 C   0  0  0  0  0  0  0  0  0  0  0  0
   43.1140   72.9830   61.0110 C   0  0  0  0  0  0  0  0  0  0  0  0
   42.1670   73.0100   60.0380 N   0  0  0  0  0  0  0  0  0  0  0  0
   40.8830   72.6040   60.2760 C   0  0  0  0  0  0  0  0  0  0  0  0
   40.5500   72.1730   61.4820 N   0  0  0  0  0  0  0  0  0  0  0  0
   41.0600   71.7490   63.4450 H   0  0  0  0  0  0  0  0  0  0  0  0
   43.4160   72.4600   63.1240 H   0  0  0  0  0  0  0  0  0  0  0  0
   44.1290   73.2950   60.8540 H   0  0  0  0  0  0  0  0  0  0  0  0
   40.7350   70.5290   58.2650 C   0  0  0  0  0  0  0  0  0  0  0  0
   41.7650   70.6930   57.3260 C   0  0  0  0  0  0  0  0  0  0  0  0
   42.7460   69.7080   57.1850 C   0  0  0  0  0  0  0  0  0  0  0  0
   42.6600   68.6320   57.9650 N   0  0  0  0  0  0  0  0  0  0  0  0
   41.6510   68.4840   58.8770 C   0  0  0  0  0  0  0  0  0  0  0  0
   40.6990   69.4240   59.0250 N   0  0  0  0  0  0  0  0  0  0  0  0
   41.8930   71.5410   56.6620 H   0  0  0  0  0  0  0  0  0  0  0  0
   43.5580   69.7930   56.4720 H   0  0  0  0  0  0  0  0  0  0  0  0
   41.6230   67.2680   59.7030 C   0  0  0  0  0  3  0  0  0  0  0  0
   41.4570   67.6010   61.1510 C   0  0  0  0  0  3  0  0  0  0  0  0
   42.2100   68.3870   61.4140 H   0  0  0  0  0  0  0  0  0  0  0  0
   41.6620   66.4030   62.0210 C   0  0  0  0  0  3  0  0  0  0  0  0
   42.3710   66.6440   62.8350 H   0  0  0  0  0  0  0  0  0  0  0  0
   42.0050   65.2610   61.3170 O   0  0  0  0  0  0  0  0  0  0  0  0
   43.1210   65.4390   60.5040 C   0  0  0  0  0  3  0  0  0  0  0  0
   43.2500   64.4760   59.9670 H   0  0  0  0  0  0  0  0  0  0  0  0
   42.9230   66.5240   59.4900 C   0  0  0  0  0  3  0  0  0  0  0  0
   42.9110   66.1130   58.4530 H   0  0  0  0  0  0  0  0  0  0  0  0
  1 15  1  0  0  0  0
  2  1  1  0  0  0  0
  2  7  1  0  0  0  0
  3  8  1  0  0  0  0
  3  2  2  0  0  0  0
  4  5  2  0  0  0  0
  4  3  1  0  0  0  0
  5  6  1  0  0  0  0
  6 20  1  0  0  0  0
  6  1  2  0  0  0  0
  9  4  1  0  0  0  0
 10  5  1  0  0  0  0
 11 17  1  0  0  0  0
 12 11  1  0  0  0  0
 12 18  1  0  0  0  0
 13 12  2  0  0  0  0
 14 15  2  0  0  0  0
 14 13  1  0  0  0  0
 15 16  1  0  0  0  0
 16 11  2  0  0  0  0
 19 13  1  0  0  0  0
 20 25  1  0  0  0  0
 21 20  2  0  0  0  0
 22 21  1  0  0  0  0
 22 23  2  0  0  0  0
 23 24  1  0  0  0  0
 24 25  2  0  0  0  0
 24 28  1  0  0  0  0
 26 21  1  0  0  0  0
 27 22  1  0  0  0  0
 28 29  1  0  0  0  0
 29 30  1  0  0  0  0
 29 31  1  0  0  0  0
 31 32  1  0  0  0  0
 33 31  1  0  0  0  0
 34 33  1  0  0  0  0
 35 34  1  0  0  0  0
 36 28  1  0  0  0  0
 36 34  1  0  0  0  0
 37 36  1  0  0  0  0
M  END
>  <minimizedAffinity>
-5.47222281

$$$$
