
 OpenBabel03212520503D

 29 31  0  0  0  0  0  0  0  0999 V2000
   38.5600   75.9310   57.7530 C   0  0  0  0  0  0  0  0  0  0  0  0
   39.0530   76.9520   58.5300 C   0  0  0  0  0  0  0  0  0  0  0  0
   39.6810   76.7260   59.7570 C   0  0  0  0  0  0  0  0  0  0  0  0
   39.8120   75.4600   60.2050 N   0  0  0  0  0  0  0  0  0  0  0  0
   39.3280   74.4690   59.4420 C   0  0  0  0  0  0  0  0  0  0  0  0
   38.7140   74.6810   58.2420 N   0  0  0  0  0  0  0  0  0  0  0  0
   38.9480   77.9620   58.1710 H   0  0  0  0  0  0  0  0  0  0  0  0
   40.0430   77.5810   60.3100 H   0  0  0  0  0  0  0  0  0  0  0  0
   37.4970   75.4910   54.2810 C   0  0  0  0  0  0  0  0  0  0  0  0
   36.6630   76.5980   54.0950 C   0  0  0  0  0  0  0  0  0  0  0  0
   36.4680   77.4830   55.1450 C   0  0  0  0  0  0  0  0  0  0  0  0
   37.1130   77.2160   56.3220 N   0  0  0  0  0  0  0  0  0  0  0  0
   37.9030   76.1540   56.4710 C   0  0  0  0  0  0  0  0  0  0  0  0
   38.1030   75.2900   55.4730 N   0  0  0  0  0  0  0  0  0  0  0  0
   37.6030   74.6770   53.1270 N   0  0  0  0  0  0  0  0  0  0  0  0
   36.1470   76.8220   53.1740 H   0  0  0  0  0  0  0  0  0  0  0  0
   35.8270   78.3550   55.0400 H   0  0  0  0  0  0  0  0  0  0  0  0
   37.2550   73.7610   53.4730 H   0  0  0  0  0  0  0  0  0  0  0  0
   37.9530   74.9610   52.1700 H   0  0  0  0  0  0  0  0  0  0  0  0
   39.5050   73.0960   59.9970 C   0  0  0  0  0  3  0  0  0  0  0  0
   40.5900   72.3760   59.2590 C   0  0  0  0  0  3  0  0  0  0  0  0
   40.7270   72.8960   58.2740 H   0  0  0  0  0  0  0  0  0  0  0  0
   41.9110   72.3050   59.9420 C   0  0  0  0  0  3  0  0  0  0  0  0
   42.2740   71.2440   60.0490 H   0  0  0  0  0  0  0  0  0  0  0  0
   41.9680   72.8760   61.1920 O   0  0  0  0  0  0  0  0  0  0  0  0
   40.9080   72.4470   61.9610 C   0  0  0  0  0  3  0  0  0  0  0  0
   41.0820   72.7650   63.0210 H   0  0  0  0  0  0  0  0  0  0  0  0
   39.6860   73.2040   61.4670 C   0  0  0  0  0  3  0  0  0  0  0  0
   39.8320   74.2680   61.8140 H   0  0  0  0  0  0  0  0  0  0  0  0
  1  6  2  0  0  0  0
  1  2  1  0  0  0  0
  2  3  2  0  0  0  0
  3  4  1  0  0  0  0
  3  8  1  0  0  0  0
  5 20  1  0  0  0  0
  5  4  2  0  0  0  0
  6  5  1  0  0  0  0
  7  2  1  0  0  0  0
  9 14  1  0  0  0  0
 10  9  2  0  0  0  0
 10 11  1  0  0  0  0
 11 12  2  0  0  0  0
 12 13  1  0  0  0  0
 13  1  1  0  0  0  0
 14 13  2  0  0  0  0
 15 18  1  0  0  0  0
 15  9  1  0  0  0  0
 16 10  1  0  0  0  0
 17 11  1  0  0  0  0
 19 15  1  0  0  0  0
 20 28  1  0  0  0  0
 21 23  1  0  0  0  0
 21 20  1  0  0  0  0
 22 21  1  0  0  0  0
 23 24  1  0  0  0  0
 23 25  1  0  0  0  0
 25 26  1  0  0  0  0
 26 27  1  0  0  0  0
 28 29  1  0  0  0  0
 28 26  1  0  0  0  0
M  END
>  <minimizedAffinity>
-5.71050453

$$$$

 OpenBabel03212520503D

 29 31  0  0  0  0  0  0  0  0999 V2000
   38.4040   74.3590   57.0320 C   0  0  0  0  0  0  0  0  0  0  0  0
   38.3360   72.9890   57.1210 C   0  0  0  0  0  0  0  0  0  0  0  0
   38.9400   72.2720   58.1560 C   0  0  0  0  0  0  0  0  0  0  0  0
   39.6190   72.9430   59.1110 N   0  0  0  0  0  0  0  0  0  0  0  0
   39.6820   74.2790   59.0180 C   0  0  0  0  0  0  0  0  0  0  0  0
   39.0940   74.9870   58.0100 N   0  0  0  0  0  0  0  0  0  0  0  0
   37.7940   72.4550   56.3590 H   0  0  0  0  0  0  0  0  0  0  0  0
   38.8420   71.1970   58.1570 H   0  0  0  0  0  0  0  0  0  0  0  0
   37.3390   75.4030   53.6920 C   0  0  0  0  0  0  0  0  0  0  0  0
   36.5990   76.5550   53.9760 C   0  0  0  0  0  0  0  0  0  0  0  0
   36.4670   76.9690   55.2940 C   0  0  0  0  0  0  0  0  0  0  0  0
   37.0790   76.2110   56.2550 N   0  0  0  0  0  0  0  0  0  0  0  0
   37.7780   75.1180   55.9570 C   0  0  0  0  0  0  0  0  0  0  0  0
   37.9170   74.7030   54.6950 N   0  0  0  0  0  0  0  0  0  0  0  0
   37.3890   75.1020   52.3090 N   0  0  0  0  0  0  0  0  0  0  0  0
   36.1110   77.1620   53.2290 H   0  0  0  0  0  0  0  0  0  0  0  0
   35.9000   77.8580   55.5540 H   0  0  0  0  0  0  0  0  0  0  0  0
   36.9650   74.1550   52.2760 H   0  0  0  0  0  0  0  0  0  0  0  0
   37.7690   75.7120   51.5330 H   0  0  0  0  0  0  0  0  0  0  0  0
   40.4470   74.9560   60.1040 C   0  0  0  0  0  3  0  0  0  0  0  0
   41.8320   75.2770   59.6380 C   0  0  0  0  0  3  0  0  0  0  0  0
   42.0510   74.6170   58.7590 H   0  0  0  0  0  0  0  0  0  0  0  0
   42.0780   76.6910   59.2390 C   0  0  0  0  0  3  0  0  0  0  0  0
   42.9410   77.1440   59.8030 H   0  0  0  0  0  0  0  0  0  0  0  0
   41.0100   77.5460   59.3840 O   0  0  0  0  0  0  0  0  0  0  0  0
   40.4480   77.3990   60.6340 C   0  0  0  0  0  3  0  0  0  0  0  0
   39.7160   78.2320   60.7980 H   0  0  0  0  0  0  0  0  0  0  0  0
   39.6470   76.1080   60.5940 C   0  0  0  0  0  3  0  0  0  0  0  0
   38.7530   76.3300   59.9420 H   0  0  0  0  0  0  0  0  0  0  0  0
  1  2  2  0  0  0  0
  1  6  1  0  0  0  0
  2  3  1  0  0  0  0
  3  8  1  0  0  0  0
  3  4  2  0  0  0  0
  5  4  1  0  0  0  0
  5 20  1  0  0  0  0
  6  5  2  0  0  0  0
  7  2  1  0  0  0  0
  9 10  2  0  0  0  0
  9 14  1  0  0  0  0
 10 11  1  0  0  0  0
 11 17  1  0  0  0  0
 11 12  2  0  0  0  0
 13 12  1  0  0  0  0
 13  1  1  0  0  0  0
 14 13  2  0  0  0  0
 15  9  1  0  0  0  0
 16 10  1  0  0  0  0
 18 15  1  0  0  0  0
 19 15  1  0  0  0  0
 20 28  1  0  0  0  0
 21 20  1  0  0  0  0
 22 21  1  0  0  0  0
 23 25  1  0  0  0  0
 23 21  1  0  0  0  0
 23 24  1  0  0  0  0
 25 26  1  0  0  0  0
 26 27  1  0  0  0  0
 28 26  1  0  0  0  0
 29 28  1  0  0  0  0
M  END
>  <minimizedAffinity>
-5.61218166

$$$$

 OpenBabel03212520503D

 29 31  0  0  0  0  0  0  0  0999 V2000
   40.6100   74.5870   59.9460 C   0  0  0  0  0  0  0  0  0  0  0  0
   40.2500   75.7360   60.6100 C   0  0  0  0  0  0  0  0  0  0  0  0
   39.5530   76.7750   59.9900 C   0  0  0  0  0  0  0  0  0  0  0  0
   39.2170   76.6550   58.6880 N   0  0  0  0  0  0  0  0  0  0  0  0
   39.5710   75.5320   58.0460 C   0  0  0  0  0  0  0  0  0  0  0  0
   40.2510   74.5120   58.6450 N   0  0  0  0  0  0  0  0  0  0  0  0
   40.5190   75.8300   61.6480 H   0  0  0  0  0  0  0  0  0  0  0  0
   39.3060   77.6460   60.5780 H   0  0  0  0  0  0  0  0  0  0  0  0
   41.4420   71.8240   62.1940 C   0  0  0  0  0  0  0  0  0  0  0  0
   42.7180   71.4670   61.7470 C   0  0  0  0  0  0  0  0  0  0  0  0
   43.2850   72.1640   60.6900 C   0  0  0  0  0  0  0  0  0  0  0  0
   42.5500   73.1770   60.1370 N   0  0  0  0  0  0  0  0  0  0  0  0
   41.3370   73.4960   60.5830 C   0  0  0  0  0  0  0  0  0  0  0  0
   40.7730   72.8380   61.5980 N   0  0  0  0  0  0  0  0  0  0  0  0
   40.9910   71.0300   63.2760 N   0  0  0  0  0  0  0  0  0  0  0  0
   43.3100   70.6710   62.1730 H   0  0  0  0  0  0  0  0  0  0  0  0
   44.2740   71.9160   60.3140 H   0  0  0  0  0  0  0  0  0  0  0  0
   40.1220   70.6100   62.8920 H   0  0  0  0  0  0  0  0  0  0  0  0
   41.4480   70.9150   64.2230 H   0  0  0  0  0  0  0  0  0  0  0  0
   39.1690   75.4660   56.6120 C   0  0  0  0  0  3  0  0  0  0  0  0
   38.0700   74.4680   56.4280 C   0  0  0  0  0  3  0  0  0  0  0  0
   38.0900   73.7810   57.3150 H   0  0  0  0  0  0  0  0  0  0  0  0
   36.6950   75.0220   56.2930 C   0  0  0  0  0  3  0  0  0  0  0  0
   36.1900   74.6720   55.3490 H   0  0  0  0  0  0  0  0  0  0  0  0
   36.6010   76.3950   56.3120 O   0  0  0  0  0  0  0  0  0  0  0  0
   37.5240   76.9480   55.4510 C   0  0  0  0  0  3  0  0  0  0  0  0
   37.2990   78.0400   55.3370 H   0  0  0  0  0  0  0  0  0  0  0  0
   38.8730   76.8450   56.1440 C   0  0  0  0  0  3  0  0  0  0  0  0
   38.8350   77.5950   56.9860 H   0  0  0  0  0  0  0  0  0  0  0  0
  1 13  1  0  0  0  0
  1  2  1  0  0  0  0
  2  7  1  0  0  0  0
  3  8  1  0  0  0  0
  3  2  2  0  0  0  0
  4  3  1  0  0  0  0
  5  6  1  0  0  0  0
  5  4  2  0  0  0  0
  6  1  2  0  0  0  0
  9 15  1  0  0  0  0
 10 16  1  0  0  0  0
 10  9  1  0  0  0  0
 11 10  2  0  0  0  0
 12 13  2  0  0  0  0
 12 11  1  0  0  0  0
 13 14  1  0  0  0  0
 14  9  2  0  0  0  0
 15 19  1  0  0  0  0
 17 11  1  0  0  0  0
 18 15  1  0  0  0  0
 20  5  1  0  0  0  0
 21 20  1  0  0  0  0
 21 22  1  0  0  0  0
 23 25  1  0  0  0  0
 23 21  1  0  0  0  0
 24 23  1  0  0  0  0
 26 28  1  0  0  0  0
 26 25  1  0  0  0  0
 27 26  1  0  0  0  0
 28 20  1  0  0  0  0
 28 29  1  0  0  0  0
M  END
>  <minimizedAffinity>
-5.48879147

$$$$

 OpenBabel03212520503D

 29 31  0  0  0  0  0  0  0  0999 V2000
   42.1430   72.4180   60.5470 C   0  0  0  0  0  0  0  0  0  0  0  0
   42.9170   71.8910   59.5410 C   0  0  0  0  0  0  0  0  0  0  0  0
   43.6320   70.7010   59.6890 C   0  0  0  0  0  0  0  0  0  0  0  0
   43.5660   70.0360   60.8620 N   0  0  0  0  0  0  0  0  0  0  0  0
   42.8090   70.5560   61.8390 C   0  0  0  0  0  0  0  0  0  0  0  0
   42.1070   71.7180   61.7020 N   0  0  0  0  0  0  0  0  0  0  0  0
   42.9690   72.4230   58.6060 H   0  0  0  0  0  0  0  0  0  0  0  0
   44.2180   70.3500   58.8520 H   0  0  0  0  0  0  0  0  0  0  0  0
   39.5610   74.9750   60.9700 C   0  0  0  0  0  0  0  0  0  0  0  0
   40.0180   75.9850   60.1170 C   0  0  0  0  0  0  0  0  0  0  0  0
   41.1940   75.7930   59.4070 C   0  0  0  0  0  0  0  0  0  0  0  0
   41.8500   74.6050   59.5860 N   0  0  0  0  0  0  0  0  0  0  0  0
   41.3930   73.6600   60.4040 C   0  0  0  0  0  0  0  0  0  0  0  0
   40.2640   73.8260   61.0970 N   0  0  0  0  0  0  0  0  0  0  0  0
   38.3530   75.3090   61.6280 N   0  0  0  0  0  0  0  0  0  0  0  0
   39.5120   76.9270   59.9660 H   0  0  0  0  0  0  0  0  0  0  0  0
   41.5810   76.5540   58.7350 H   0  0  0  0  0  0  0  0  0  0  0  0
   38.6250   75.2520   62.6280 H   0  0  0  0  0  0  0  0  0  0  0  0
   37.4240   75.5500   61.1820 H   0  0  0  0  0  0  0  0  0  0  0  0
   42.7810   69.7710   63.1070 C   0  0  0  0  0  3  0  0  0  0  0  0
   41.3700   69.4500   63.4850 C   0  0  0  0  0  3  0  0  0  0  0  0
   40.7050   70.1740   62.9450 H   0  0  0  0  0  0  0  0  0  0  0  0
   40.9070   68.0680   63.1810 C   0  0  0  0  0  3  0  0  0  0  0  0
   40.5080   67.5460   64.0960 H   0  0  0  0  0  0  0  0  0  0  0  0
   41.8480   67.2340   62.6220 O   0  0  0  0  0  0  0  0  0  0  0  0
   43.0240   67.2940   63.3380 C   0  0  0  0  0  3  0  0  0  0  0  0
   43.7000   66.4720   62.9870 H   0  0  0  0  0  0  0  0  0  0  0  0
   43.6900   68.6070   62.9570 C   0  0  0  0  0  3  0  0  0  0  0  0
   44.0500   68.4640   61.8970 H   0  0  0  0  0  0  0  0  0  0  0  0
  1  6  1  0  0  0  0
  2  3  1  0  0  0  0
  2  1  2  0  0  0  0
  3  4  2  0  0  0  0
  4  5  1  0  0  0  0
  5 20  1  0  0  0  0
  6  5  2  0  0  0  0
  7  2  1  0  0  0  0
  8  3  1  0  0  0  0
  9 14  1  0  0  0  0
  9 15  1  0  0  0  0
 10  9  2  0  0  0  0
 11 12  2  0  0  0  0
 11 10  1  0  0  0  0
 12 13  1  0  0  0  0
 13  1  1  0  0  0  0
 13 14  2  0  0  0  0
 15 18  1  0  0  0  0
 16 10  1  0  0  0  0
 17 11  1  0  0  0  0
 19 15  1  0  0  0  0
 20 21  1  0  0  0  0
 22 21  1  0  0  0  0
 23 21  1  0  0  0  0
 23 24  1  0  0  0  0
 25 23  1  0  0  0  0
 25 26  1  0  0  0  0
 27 26  1  0  0  0  0
 28 20  1  0  0  0  0
 28 26  1  0  0  0  0
 29 28  1  0  0  0  0
M  END
>  <minimizedAffinity>
-5.43013954

$$$$

 OpenBabel03212520503D

 29 31  0  0  0  0  0  0  0  0999 V2000
   40.4620   73.8030   60.5270 C   0  0  0  0  0  0  0  0  0  0  0  0
   39.9190   74.8180   61.2780 C   0  0  0  0  0  0  0  0  0  0  0  0
   39.2080   75.8760   60.7090 C   0  0  0  0  0  0  0  0  0  0  0  0
   39.0420   75.9120   59.3700 N   0  0  0  0  0  0  0  0  0  0  0  0
   39.5740   74.9180   58.6430 C   0  0  0  0  0  0  0  0  0  0  0  0
   40.2700   73.8800   59.1920 N   0  0  0  0  0  0  0  0  0  0  0  0
   40.0530   74.7890   62.3470 H   0  0  0  0  0  0  0  0  0  0  0  0
   38.8120   76.6370   61.3660 H   0  0  0  0  0  0  0  0  0  0  0  0
   42.8100   71.0240   60.9040 C   0  0  0  0  0  0  0  0  0  0  0  0
   42.5760   70.6300   62.2260 C   0  0  0  0  0  0  0  0  0  0  0  0
   41.6260   71.3070   62.9770 C   0  0  0  0  0  0  0  0  0  0  0  0
   40.9630   72.3390   62.3710 N   0  0  0  0  0  0  0  0  0  0  0  0
   41.2060   72.6930   61.1100 C   0  0  0  0  0  0  0  0  0  0  0  0
   42.1160   72.0550   60.3710 N   0  0  0  0  0  0  0  0  0  0  0  0
   43.8030   70.2460   60.2610 N   0  0  0  0  0  0  0  0  0  0  0  0
   43.0910   69.8180   62.7170 H   0  0  0  0  0  0  0  0  0  0  0  0
   41.4160   71.0300   64.0060 H   0  0  0  0  0  0  0  0  0  0  0  0
   44.5100   70.9620   60.0050 H   0  0  0  0  0  0  0  0  0  0  0  0
   43.7960   69.2010   60.1000 H   0  0  0  0  0  0  0  0  0  0  0  0
   39.3540   75.0190   57.1710 C   0  0  0  0  0  3  0  0  0  0  0  0
   38.1760   74.1900   56.7670 C   0  0  0  0  0  3  0  0  0  0  0  0
   38.0000   73.4380   57.5800 H   0  0  0  0  0  0  0  0  0  0  0  0
   36.9060   74.9290   56.5240 C   0  0  0  0  0  3  0  0  0  0  0  0
   36.4880   74.7230   55.4980 H   0  0  0  0  0  0  0  0  0  0  0  0
   36.9760   76.2960   56.6630 O   0  0  0  0  0  0  0  0  0  0  0  0
   38.0610   76.7900   55.9720 C   0  0  0  0  0  3  0  0  0  0  0  0
   37.9840   77.9080   55.9370 H   0  0  0  0  0  0  0  0  0  0  0  0
   39.2870   76.4570   56.8060 C   0  0  0  0  0  3  0  0  0  0  0  0
   39.2320   77.1360   57.7050 H   0  0  0  0  0  0  0  0  0  0  0  0
  1 13  1  0  0  0  0
  1  2  1  0  0  0  0
  2  7  1  0  0  0  0
  3  2  2  0  0  0  0
  3  8  1  0  0  0  0
  4  3  1  0  0  0  0
  5  6  1  0  0  0  0
  5  4  2  0  0  0  0
  6  1  2  0  0  0  0
  9 10  1  0  0  0  0
 10 16  1  0  0  0  0
 10 11  2  0  0  0  0
 11 17  1  0  0  0  0
 12 11  1  0  0  0  0
 13 12  2  0  0  0  0
 14  9  2  0  0  0  0
 14 13  1  0  0  0  0
 15  9  1  0  0  0  0
 18 15  1  0  0  0  0
 19 15  1  0  0  0  0
 20  5  1  0  0  0  0
 21 20  1  0  0  0  0
 21 22  1  0  0  0  0
 23 25  1  0  0  0  0
 23 21  1  0  0  0  0
 24 23  1  0  0  0  0
 26 25  1  0  0  0  0
 26 28  1  0  0  0  0
 27 26  1  0  0  0  0
 28 20  1  0  0  0  0
 28 29  1  0  0  0  0
M  END
>  <minimizedAffinity>
-5.29857206

$$$$

 OpenBabel03212520503D

 29 31  0  0  0  0  0  0  0  0999 V2000
   41.0500   72.1990   59.5680 C   0  0  0  0  0  0  0  0  0  0  0  0
   40.6110   71.5220   58.4550 C   0  0  0  0  0  0  0  0  0  0  0  0
   40.9040   70.1750   58.2310 C   0  0  0  0  0  0  0  0  0  0  0  0
   41.6450   69.5040   59.1380 N   0  0  0  0  0  0  0  0  0  0  0  0
   42.0690   70.1700   60.2210 C   0  0  0  0  0  0  0  0  0  0  0  0
   41.7880   71.4860   60.4480 N   0  0  0  0  0  0  0  0  0  0  0  0
   40.0200   72.0590   57.7320 H   0  0  0  0  0  0  0  0  0  0  0  0
   40.5230   69.7130   57.3320 H   0  0  0  0  0  0  0  0  0  0  0  0
   39.4860   75.2310   60.8890 C   0  0  0  0  0  0  0  0  0  0  0  0
   40.2210   76.2330   60.2480 C   0  0  0  0  0  0  0  0  0  0  0  0
   41.2370   75.8750   59.3740 C   0  0  0  0  0  0  0  0  0  0  0  0
   41.4660   74.5390   59.1890 N   0  0  0  0  0  0  0  0  0  0  0  0
   40.7510   73.6040   59.8130 C   0  0  0  0  0  0  0  0  0  0  0  0
   39.7700   73.9280   60.6580 N   0  0  0  0  0  0  0  0  0  0  0  0
   38.4840   75.7410   61.7490 N   0  0  0  0  0  0  0  0  0  0  0  0
   40.0520   77.2900   60.3840 H   0  0  0  0  0  0  0  0  0  0  0  0
   41.8300   76.6240   58.8570 H   0  0  0  0  0  0  0  0  0  0  0  0
   38.7600   75.3430   62.6680 H   0  0  0  0  0  0  0  0  0  0  0  0
   37.6730   76.3680   61.4890 H   0  0  0  0  0  0  0  0  0  0  0  0
   42.8830   69.3690   61.1810 C   0  0  0  0  0  3  0  0  0  0  0  0
   42.7640   69.9380   62.5590 C   0  0  0  0  0  3  0  0  0  0  0  0
   42.4120   70.9980   62.4560 H   0  0  0  0  0  0  0  0  0  0  0  0
   41.8430   69.2240   63.4870 C   0  0  0  0  0  3  0  0  0  0  0  0
   42.3580   68.9160   64.4400 H   0  0  0  0  0  0  0  0  0  0  0  0
   41.2380   68.0990   62.9760 O   0  0  0  0  0  0  0  0  0  0  0  0
   42.1720   67.2880   62.3700 C   0  0  0  0  0  3  0  0  0  0  0  0
   41.6960   66.3010   62.1390 H   0  0  0  0  0  0  0  0  0  0  0  0
   42.5040   67.9400   61.0370 C   0  0  0  0  0  3  0  0  0  0  0  0
   41.5900   67.7910   60.3940 H   0  0  0  0  0  0  0  0  0  0  0  0
  1 13  1  0  0  0  0
  1  6  1  0  0  0  0
  2  1  2  0  0  0  0
  3  2  1  0  0  0  0
  3  4  2  0  0  0  0
  4  5  1  0  0  0  0
  5  6  2  0  0  0  0
  5 20  1  0  0  0  0
  7  2  1  0  0  0  0
  8  3  1  0  0  0  0
  9 15  1  0  0  0  0
 10 16  1  0  0  0  0
 10  9  2  0  0  0  0
 11 10  1  0  0  0  0
 12 11  2  0  0  0  0
 12 13  1  0  0  0  0
 13 14  2  0  0  0  0
 14  9  1  0  0  0  0
 15 18  1  0  0  0  0
 17 11  1  0  0  0  0
 19 15  1  0  0  0  0
 20 21  1  0  0  0  0
 21 23  1  0  0  0  0
 22 21  1  0  0  0  0
 23 24  1  0  0  0  0
 25 23  1  0  0  0  0
 26 25  1  0  0  0  0
 27 26  1  0  0  0  0
 28 20  1  0  0  0  0
 28 26  1  0  0  0  0
 29 28  1  0  0  0  0
M  END
>  <minimizedAffinity>
-5.29175091

$$$$

 OpenBabel03212520503D

 29 31  0  0  0  0  0  0  0  0999 V2000
   40.3910   72.8950   60.2220 C   0  0  0  0  0  0  0  0  0  0  0  0
   40.5970   73.1190   61.5620 C   0  0  0  0  0  0  0  0  0  0  0  0
   41.4030   72.2910   62.3470 C   0  0  0  0  0  0  0  0  0  0  0  0
   42.0040   71.2260   61.7760 N   0  0  0  0  0  0  0  0  0  0  0  0
   41.7980   71.0130   60.4680 C   0  0  0  0  0  0  0  0  0  0  0  0
   41.0140   71.8180   59.6940 N   0  0  0  0  0  0  0  0  0  0  0  0
   40.1170   73.9690   62.0170 H   0  0  0  0  0  0  0  0  0  0  0  0
   41.5170   72.5330   63.3940 H   0  0  0  0  0  0  0  0  0  0  0  0
   37.9090   73.9850   57.7660 C   0  0  0  0  0  0  0  0  0  0  0  0
   38.0060   75.3770   57.8610 C   0  0  0  0  0  0  0  0  0  0  0  0
   38.9090   75.9340   58.7540 C   0  0  0  0  0  0  0  0  0  0  0  0
   39.6650   75.0740   59.5030 N   0  0  0  0  0  0  0  0  0  0  0  0
   39.5530   73.7520   59.3930 C   0  0  0  0  0  0  0  0  0  0  0  0
   38.6890   73.1960   58.5400 N   0  0  0  0  0  0  0  0  0  0  0  0
   36.9480   73.5590   56.8170 N   0  0  0  0  0  0  0  0  0  0  0  0
   37.4160   76.0670   57.2780 H   0  0  0  0  0  0  0  0  0  0  0  0
   39.0140   77.0100   58.8570 H   0  0  0  0  0  0  0  0  0  0  0  0
   36.2960   72.9990   57.4010 H   0  0  0  0  0  0  0  0  0  0  0  0
   36.9290   73.7750   55.7820 H   0  0  0  0  0  0  0  0  0  0  0  0
   42.4920   69.8200   59.9010 C   0  0  0  0  0  3  0  0  0  0  0  0
   42.9650   68.9260   61.0030 C   0  0  0  0  0  3  0  0  0  0  0  0
   43.0080   69.5410   61.9400 H   0  0  0  0  0  0  0  0  0  0  0  0
   42.1340   67.7190   61.2700 C   0  0  0  0  0  3  0  0  0  0  0  0
   42.7390   66.7700   61.2180 H   0  0  0  0  0  0  0  0  0  0  0  0
   41.0480   67.5480   60.4430 O   0  0  0  0  0  0  0  0  0  0  0  0
   41.4240   67.6980   59.1250 C   0  0  0  0  0  3  0  0  0  0  0  0
   40.5780   67.3640   58.4710 H   0  0  0  0  0  0  0  0  0  0  0  0
   41.5970   69.1910   58.8970 C   0  0  0  0  0  3  0  0  0  0  0  0
   40.5530   69.6190   58.9100 H   0  0  0  0  0  0  0  0  0  0  0  0
  1  2  1  0  0  0  0
  2  7  1  0  0  0  0
  2  3  2  0  0  0  0
  3  8  1  0  0  0  0
  4  3  1  0  0  0  0
  5  4  2  0  0  0  0
  6  1  2  0  0  0  0
  6  5  1  0  0  0  0
  9 10  2  0  0  0  0
  9 14  1  0  0  0  0
 10 11  1  0  0  0  0
 11 17  1  0  0  0  0
 11 12  2  0  0  0  0
 13 12  1  0  0  0  0
 13  1  1  0  0  0  0
 14 13  2  0  0  0  0
 15 18  1  0  0  0  0
 15  9  1  0  0  0  0
 16 10  1  0  0  0  0
 19 15  1  0  0  0  0
 20  5  1  0  0  0  0
 20 21  1  0  0  0  0
 21 23  1  0  0  0  0
 21 22  1  0  0  0  0
 24 23  1  0  0  0  0
 25 23  1  0  0  0  0
 26 25  1  0  0  0  0
 27 26  1  0  0  0  0
 28 29  1  0  0  0  0
 28 26  1  0  0  0  0
 28 20  1  0  0  0  0
M  END
>  <minimizedAffinity>
-5.23350763

$$$$

 OpenBabel03212520503D

 29 31  0  0  0  0  0  0  0  0999 V2000
   40.4780   71.7980   58.7770 C   0  0  0  0  0  0  0  0  0  0  0  0
   40.5530   70.6780   57.9840 C   0  0  0  0  0  0  0  0  0  0  0  0
   41.3580   69.5830   58.3050 C   0  0  0  0  0  0  0  0  0  0  0  0
   42.0930   69.6170   59.4370 N   0  0  0  0  0  0  0  0  0  0  0  0
   42.0150   70.7130   60.2060 C   0  0  0  0  0  0  0  0  0  0  0  0
   41.2310   71.7870   59.8990 N   0  0  0  0  0  0  0  0  0  0  0  0
   39.9660   70.6520   57.0810 H   0  0  0  0  0  0  0  0  0  0  0  0
   41.3640   68.7390   57.6310 H   0  0  0  0  0  0  0  0  0  0  0  0
   37.7330   73.8240   57.4570 C   0  0  0  0  0  0  0  0  0  0  0  0
   38.1060   75.1090   57.8640 C   0  0  0  0  0  0  0  0  0  0  0  0
   39.2820   75.2790   58.5790 C   0  0  0  0  0  0  0  0  0  0  0  0
   40.0210   74.1590   58.8520 N   0  0  0  0  0  0  0  0  0  0  0  0
   39.6420   72.9470   58.4520 C   0  0  0  0  0  0  0  0  0  0  0  0
   38.5130   72.7620   57.7630 N   0  0  0  0  0  0  0  0  0  0  0  0
   36.5130   73.8020   56.7380 N   0  0  0  0  0  0  0  0  0  0  0  0
   37.5340   76.0010   57.6570 H   0  0  0  0  0  0  0  0  0  0  0  0
   39.6060   76.2610   58.9120 H   0  0  0  0  0  0  0  0  0  0  0  0
   35.9260   73.1760   57.3220 H   0  0  0  0  0  0  0  0  0  0  0  0
   36.2910   74.3070   55.8360 H   0  0  0  0  0  0  0  0  0  0  0  0
   42.8530   70.6850   61.4400 C   0  0  0  0  0  3  0  0  0  0  0  0
   42.0260   71.0410   62.6340 C   0  0  0  0  0  3  0  0  0  0  0  0
   41.1170   71.5830   62.2630 H   0  0  0  0  0  0  0  0  0  0  0  0
   41.5810   69.9040   63.4870 C   0  0  0  0  0  3  0  0  0  0  0  0
   41.8890   70.0370   64.5620 H   0  0  0  0  0  0  0  0  0  0  0  0
   42.0180   68.6590   63.0960 O   0  0  0  0  0  0  0  0  0  0  0  0
   43.3730   68.6850   62.8470 C   0  0  0  0  0  3  0  0  0  0  0  0
   43.7360   67.6330   62.7240 H   0  0  0  0  0  0  0  0  0  0  0  0
   43.5480   69.3740   61.5030 C   0  0  0  0  0  3  0  0  0  0  0  0
   43.1680   68.6380   60.7380 H   0  0  0  0  0  0  0  0  0  0  0  0
  1  6  1  0  0  0  0
  2  3  1  0  0  0  0
  2  1  2  0  0  0  0
  3  4  2  0  0  0  0
  4  5  1  0  0  0  0
  5 20  1  0  0  0  0
  6  5  2  0  0  0  0
  7  2  1  0  0  0  0
  8  3  1  0  0  0  0
  9 14  2  0  0  0  0
  9 10  1  0  0  0  0
 10 11  2  0  0  0  0
 11 12  1  0  0  0  0
 11 17  1  0  0  0  0
 13  1  1  0  0  0  0
 13 12  2  0  0  0  0
 14 13  1  0  0  0  0
 15 18  1  0  0  0  0
 15  9  1  0  0  0  0
 16 10  1  0  0  0  0
 19 15  1  0  0  0  0
 20 28  1  0  0  0  0
 20 21  1  0  0  0  0
 21 23  1  0  0  0  0
 22 21  1  0  0  0  0
 23 24  1  0  0  0  0
 25 23  1  0  0  0  0
 26 25  1  0  0  0  0
 27 26  1  0  0  0  0
 28 26  1  0  0  0  0
 29 28  1  0  0  0  0
M  END
>  <minimizedAffinity>
-5.15275717

$$$$

 OpenBabel03212520503D

 29 31  0  0  0  0  0  0  0  0999 V2000
   41.9210   70.2390   61.2300 C   0  0  0  0  0  0  0  0  0  0  0  0
   42.3040   70.8200   62.4150 C   0  0  0  0  0  0  0  0  0  0  0  0
   42.2160   72.1960   62.6390 C   0  0  0  0  0  0  0  0  0  0  0  0
   41.7390   72.9930   61.6600 N   0  0  0  0  0  0  0  0  0  0  0  0
   41.3680   72.4180   60.5060 C   0  0  0  0  0  0  0  0  0  0  0  0
   41.4490   71.0760   60.2790 N   0  0  0  0  0  0  0  0  0  0  0  0
   42.6840   70.1840   63.1960 H   0  0  0  0  0  0  0  0  0  0  0  0
   42.5360   72.5780   63.5980 H   0  0  0  0  0  0  0  0  0  0  0  0
   42.3470   66.6480   61.7800 C   0  0  0  0  0  0  0  0  0  0  0  0
   42.1620   66.1380   60.4910 C   0  0  0  0  0  0  0  0  0  0  0  0
   41.8960   67.0120   59.4480 C   0  0  0  0  0  0  0  0  0  0  0  0
   41.8270   68.3460   59.7460 N   0  0  0  0  0  0  0  0  0  0  0  0
   42.0080   68.8050   60.9840 C   0  0  0  0  0  0  0  0  0  0  0  0
   42.2650   67.9800   62.0010 N   0  0  0  0  0  0  0  0  0  0  0  0
   42.6110   65.6430   62.7420 N   0  0  0  0  0  0  0  0  0  0  0  0
   42.2130   65.0890   60.2410 H   0  0  0  0  0  0  0  0  0  0  0  0
   41.7460   66.6540   58.4330 H   0  0  0  0  0  0  0  0  0  0  0  0
   41.8290   65.7710   63.4140 H   0  0  0  0  0  0  0  0  0  0  0  0
   43.4110   64.9510   62.7460 H   0  0  0  0  0  0  0  0  0  0  0  0
   40.8500   73.3560   59.4670 C   0  0  0  0  0  3  0  0  0  0  0  0
   39.3720   73.1940   59.3150 C   0  0  0  0  0  3  0  0  0  0  0  0
   39.1000   72.1880   59.7320 H   0  0  0  0  0  0  0  0  0  0  0  0
   38.5260   74.2240   59.9800 C   0  0  0  0  0  3  0  0  0  0  0  0
   37.8180   74.7190   59.2580 H   0  0  0  0  0  0  0  0  0  0  0  0
   39.2090   75.2290   60.6260 O   0  0  0  0  0  0  0  0  0  0  0  0
   40.1890   75.7430   59.8050 C   0  0  0  0  0  3  0  0  0  0  0  0
   40.5940   76.6770   60.2720 H   0  0  0  0  0  0  0  0  0  0  0  0
   41.3190   74.7260   59.7990 C   0  0  0  0  0  3  0  0  0  0  0  0
   41.7890   74.7940   60.8220 H   0  0  0  0  0  0  0  0  0  0  0  0
  1  2  1  0  0  0  0
  2  3  2  0  0  0  0
  2  7  1  0  0  0  0
  3  8  1  0  0  0  0
  4  3  1  0  0  0  0
  5  4  2  0  0  0  0
  6  5  1  0  0  0  0
  6  1  2  0  0  0  0
  9 14  1  0  0  0  0
  9 15  1  0  0  0  0
 10  9  2  0  0  0  0
 11 12  2  0  0  0  0
 11 10  1  0  0  0  0
 12 13  1  0  0  0  0
 13  1  1  0  0  0  0
 13 14  2  0  0  0  0
 15 19  1  0  0  0  0
 15 18  1  0  0  0  0
 16 10  1  0  0  0  0
 17 11  1  0  0  0  0
 20 28  1  0  0  0  0
 20  5  1  0  0  0  0
 21 20  1  0  0  0  0
 21 22  1  0  0  0  0
 21 23  1  0  0  0  0
 23 25  1  0  0  0  0
 24 23  1  0  0  0  0
 26 27  1  0  0  0  0
 26 25  1  0  0  0  0
 28 26  1  0  0  0  0
 28 29  1  0  0  0  0
M  END
>  <minimizedAffinity>
-5.12848091

$$$$
