
 OpenBabel03212521073D

 37 40  0  0  0  0  0  0  0  0999 V2000
   41.7980   84.1570   61.5600 C   0  0  0  0  0  0  0  0  0  0  0  0
   41.4340   83.8850   62.8820 C   0  0  0  0  0  0  0  0  0  0  0  0
   40.1300   83.5390   63.2140 C   0  0  0  0  0  0  0  0  0  0  0  0
   39.1680   83.4630   62.2200 C   0  0  0  0  0  0  0  0  0  0  0  0
   39.5340   83.7350   60.9110 C   0  0  0  0  0  0  0  0  0  0  0  0
   40.8310   84.0790   60.5710 C   0  0  0  0  0  0  0  0  0  0  0  0
   42.2120   83.9530   63.6380 H   0  0  0  0  0  0  0  0  0  0  0  0
   39.9730   83.3520   64.2690 H   0  0  0  0  0  0  0  0  0  0  0  0
   38.1760   83.1960   62.5090 H   0  0  0  0  0  0  0  0  0  0  0  0
   38.7290   83.6520   60.2130 H   0  0  0  0  0  0  0  0  0  0  0  0
   45.2910   83.8860   60.5480 C   0  0  0  0  0  0  0  0  0  0  0  0
   45.7650   85.1820   60.6940 C   0  0  0  0  0  0  0  0  0  0  0  0
   44.8660   86.1690   61.1490 C   0  0  0  0  0  0  0  0  0  0  0  0
   43.5860   85.8010   61.4200 N   0  0  0  0  0  0  0  0  0  0  0  0
   43.1630   84.5110   61.2620 C   0  0  0  0  0  0  0  0  0  0  0  0
   44.0160   83.5950   60.8350 N   0  0  0  0  0  0  0  0  0  0  0  0
   45.9150   83.0610   60.2030 H   0  0  0  0  0  0  0  0  0  0  0  0
   46.7900   85.3690   60.4530 H   0  0  0  0  0  0  0  0  0  0  0  0
   45.2260   87.1740   61.2640 H   0  0  0  0  0  0  0  0  0  0  0  0
   41.1540   84.3520   59.1870 C   0  0  0  0  0  0  0  0  0  0  0  0
   40.9200   85.6980   58.8640 C   0  0  0  0  0  0  0  0  0  0  0  0
   41.1720   86.1610   57.5700 C   0  0  0  0  0  0  0  0  0  0  0  0
   41.6330   85.2860   56.6780 N   0  0  0  0  0  0  0  0  0  0  0  0
   41.8570   83.9760   57.0050 C   0  0  0  0  0  0  0  0  0  0  0  0
   41.6200   83.5150   58.2470 N   0  0  0  0  0  0  0  0  0  0  0  0
   40.5460   86.4600   59.5400 H   0  0  0  0  0  0  0  0  0  0  0  0
   41.0050   87.1910   57.2780 H   0  0  0  0  0  0  0  0  0  0  0  0
   42.3680   83.0700   55.9660 C   0  0  0  0  0  3  0  0  0  0  0  0
   42.5050   83.7730   54.6530 C   0  0  0  0  0  3  0  0  0  0  0  0
   41.5410   84.3050   54.4460 H   0  0  0  0  0  0  0  0  0  0  0  0
   42.7950   82.8160   53.5420 C   0  0  0  0  0  3  0  0  0  0  0  0
   42.1030   82.9970   52.6980 H   0  0  0  0  0  0  0  0  0  0  0  0
   42.8300   81.4930   53.9470 O   0  0  0  0  0  0  0  0  0  0  0  0
   41.6720   81.0960   54.6080 C   0  0  0  0  0  3  0  0  0  0  0  0
   41.8530   80.0450   54.9180 H   0  0  0  0  0  0  0  0  0  0  0  0
   41.4020   81.9120   55.8350 C   0  0  0  0  0  3  0  0  0  0  0  0
   41.4890   81.2940   56.7600 H   0  0  0  0  0  0  0  0  0  0  0  0
  1  2  1  0  0  0  0
  2  3  2  0  0  0  0
  2  7  1  0  0  0  0
  3  8  1  0  0  0  0
  4  9  1  0  0  0  0
  4  3  1  0  0  0  0
  5  4  2  0  0  0  0
  6  5  1  0  0  0  0
  6  1  2  0  0  0  0
 10  5  1  0  0  0  0
 11 12  2  0  0  0  0
 11 16  1  0  0  0  0
 12 13  1  0  0  0  0
 13 19  1  0  0  0  0
 13 14  2  0  0  0  0
 15 14  1  0  0  0  0
 15  1  1  0  0  0  0
 16 15  2  0  0  0  0
 17 11  1  0  0  0  0
 18 12  1  0  0  0  0
 20  6  1  0  0  0  0
 21 20  1  0  0  0  0
 21 26  1  0  0  0  0
 22 21  2  0  0  0  0
 23 24  2  0  0  0  0
 23 22  1  0  0  0  0
 24 25  1  0  0  0  0
 25 20  2  0  0  0  0
 27 22  1  0  0  0  0
 28 24  1  0  0  0  0
 29 28  1  0  0  0  0
 30 29  1  0  0  0  0
 31 33  1  0  0  0  0
 31 29  1  0  0  0  0
 32 31  1  0  0  0  0
 33 34  1  0  0  0  0
 34 35  1  0  0  0  0
 34 36  1  0  0  0  0
 36 28  1  0  0  0  0
 36 37  1  0  0  0  0
M  END
>  <minimizedAffinity>
-5.69401693

>  <minimizedRMSD>
0.60503006

$$$$
