
 OpenBabel03212520493D

 29 31  0  0  0  0  0  0  0  0999 V2000
   40.7120   81.5100   57.9680 C   0  0  0  0  0  0  0  0  0  0  0  0
   42.0580   81.4740   57.6910 C   0  0  0  0  0  0  0  0  0  0  0  0
   42.9750   82.3250   58.3110 C   0  0  0  0  0  0  0  0  0  0  0  0
   42.5320   83.2200   59.2180 N   0  0  0  0  0  0  0  0  0  0  0  0
   41.2180   83.2490   59.4840 C   0  0  0  0  0  0  0  0  0  0  0  0
   40.3150   82.4220   58.8830 N   0  0  0  0  0  0  0  0  0  0  0  0
   42.4100   80.7590   56.9660 H   0  0  0  0  0  0  0  0  0  0  0  0
   44.0170   82.2360   58.0400 H   0  0  0  0  0  0  0  0  0  0  0  0
   38.6090   78.6000   57.2660 C   0  0  0  0  0  0  0  0  0  0  0  0
   37.9360   79.0070   56.1100 C   0  0  0  0  0  0  0  0  0  0  0  0
   38.2000   80.2610   55.5780 C   0  0  0  0  0  0  0  0  0  0  0  0
   39.1180   81.0400   56.2270 N   0  0  0  0  0  0  0  0  0  0  0  0
   39.7450   80.6270   57.3270 C   0  0  0  0  0  0  0  0  0  0  0  0
   39.5050   79.4250   57.8550 N   0  0  0  0  0  0  0  0  0  0  0  0
   38.2420   77.3010   57.6940 N   0  0  0  0  0  0  0  0  0  0  0  0
   37.2100   78.4040   55.5870 H   0  0  0  0  0  0  0  0  0  0  0  0
   37.6970   80.6120   54.6810 H   0  0  0  0  0  0  0  0  0  0  0  0
   37.8770   77.4810   58.6500 H   0  0  0  0  0  0  0  0  0  0  0  0
   38.3300   76.3970   57.1520 H   0  0  0  0  0  0  0  0  0  0  0  0
   40.7960   84.2620   60.4950 C   0  0  0  0  0  3  0  0  0  0  0  0
   39.3250   84.1620   60.7440 C   0  0  0  0  0  3  0  0  0  0  0  0
   38.8720   83.6320   59.8660 H   0  0  0  0  0  0  0  0  0  0  0  0
   38.9160   83.4540   61.9870 C   0  0  0  0  0  3  0  0  0  0  0  0
   38.2490   84.0890   62.6360 H   0  0  0  0  0  0  0  0  0  0  0  0
   39.9430   83.0060   62.7840 O   0  0  0  0  0  0  0  0  0  0  0  0
   40.8660   84.0100   62.9820 C   0  0  0  0  0  3  0  0  0  0  0  0
   41.5810   83.6880   63.7810 H   0  0  0  0  0  0  0  0  0  0  0  0
   41.6650   84.1180   61.6930 C   0  0  0  0  0  3  0  0  0  0  0  0
   42.3070   83.1900   61.6580 H   0  0  0  0  0  0  0  0  0  0  0  0
  1  6  1  0  0  0  0
  2  1  2  0  0  0  0
  2  3  1  0  0  0  0
  3  4  2  0  0  0  0
  4  5  1  0  0  0  0
  5 20  1  0  0  0  0
  6  5  2  0  0  0  0
  7  2  1  0  0  0  0
  8  3  1  0  0  0  0
  9 15  1  0  0  0  0
  9 14  1  0  0  0  0
 10  9  2  0  0  0  0
 11 10  1  0  0  0  0
 11 12  2  0  0  0  0
 12 13  1  0  0  0  0
 13 14  2  0  0  0  0
 13  1  1  0  0  0  0
 15 18  1  0  0  0  0
 16 10  1  0  0  0  0
 17 11  1  0  0  0  0
 19 15  1  0  0  0  0
 20 21  1  0  0  0  0
 20 28  1  0  0  0  0
 21 23  1  0  0  0  0
 22 21  1  0  0  0  0
 23 24  1  0  0  0  0
 23 25  1  0  0  0  0
 25 26  1  0  0  0  0
 26 27  1  0  0  0  0
 28 26  1  0  0  0  0
 29 28  1  0  0  0  0
M  END
>  <minimizedAffinity>
-5.02924728

>  <minimizedRMSD>
6.39348793

$$$$
