
 OpenBabel03212520323D

 42 45  0  0  0  0  0  0  0  0999 V2000
   42.4260   82.7580   61.5310 C   0  0  0  0  0  0  0  0  0  0  0  0
   42.6960   81.5580   60.9020 C   0  0  0  0  0  0  0  0  0  0  0  0
   43.7470   80.7660   61.3180 C   0  0  0  0  0  0  0  0  0  0  0  0
   44.5840   81.1210   62.3780 C   0  0  0  0  0  0  0  0  0  0  0  0
   44.3330   82.3070   63.0170 C   0  0  0  0  0  0  0  0  0  0  0  0
   43.2750   83.0980   62.5940 C   0  0  0  0  0  0  0  0  0  0  0  0
   43.9830   79.8110   60.8360 H   0  0  0  0  0  0  0  0  0  0  0  0
   45.4030   80.4920   62.6930 H   0  0  0  0  0  0  0  0  0  0  0  0
   44.9260   82.6680   63.8500 H   0  0  0  0  0  0  0  0  0  0  0  0
   43.0650   84.0460   63.0940 H   0  0  0  0  0  0  0  0  0  0  0  0
   40.1260   79.7710   58.9340 C   0  0  0  0  0  0  0  0  0  0  0  0
   40.3780   80.2460   57.6480 C   0  0  0  0  0  0  0  0  0  0  0  0
   41.4350   81.1690   57.4870 C   0  0  0  0  0  0  0  0  0  0  0  0
   42.1180   81.5170   58.6060 N   0  0  0  0  0  0  0  0  0  0  0  0
   41.8710   81.0640   59.8130 C   0  0  0  0  0  0  0  0  0  0  0  0
   40.8650   80.1840   59.9720 N   0  0  0  0  0  0  0  0  0  0  0  0
   39.3350   79.0630   59.1330 H   0  0  0  0  0  0  0  0  0  0  0  0
   41.6550   81.5570   56.4940 H   0  0  0  0  0  0  0  0  0  0  0  0
   39.5930   79.8100   56.5480 N   0  0  0  0  0  0  0  0  0  0  0  0
   38.4800   80.5240   56.3580 C   0  0  0  0  0  0  0  0  0  0  0  0
   37.6390   80.1770   55.3030 C   0  0  0  0  0  0  0  0  0  0  0  0
   37.9820   79.1090   54.4930 C   0  0  0  0  0  0  0  0  0  0  0  0
   37.3020   78.7020   53.5120 O   0  0  0  0  0  0  0  0  0  0  0  0
   39.1340   78.4250   54.7470 N   0  0  0  0  0  0  0  0  0  0  0  0
   39.9530   78.7700   55.7800 C   0  0  0  0  0  0  0  0  0  0  0  0
   41.0080   78.1540   56.0230 O   0  0  0  0  0  0  0  0  0  0  0  0
   38.1750   81.3560   56.9580 H   0  0  0  0  0  0  0  0  0  0  0  0
   36.7330   80.7000   55.0890 H   0  0  0  0  0  0  0  0  0  0  0  0
   39.4730   77.6140   54.1950 H   0  0  0  0  0  0  0  0  0  0  0  0
   41.1420   83.7880   61.0290 S   0  0  0  0  0  0  0  0  0  0  0  0
   40.5690   84.4990   62.2420 O   0  0  0  0  0  0  0  0  0  0  0  0
   39.9610   82.8860   60.6700 O   0  0  0  0  0  0  0  0  0  0  0  0
   41.4350   85.0400   59.8900 C   0  0  0  0  0  3  0  0  0  0  0  0
   40.6920   84.6500   58.5880 C   0  0  0  0  0  3  0  0  0  0  0  0
   40.7600   83.5440   58.4640 H   0  0  0  0  0  0  0  0  0  0  0  0
   41.3160   85.2830   57.3850 C   0  0  0  0  0  3  0  0  0  0  0  0
   41.9490   84.5640   56.8250 H   0  0  0  0  0  0  0  0  0  0  0  0
   41.9910   86.4380   57.7720 O   0  0  0  0  0  0  0  0  0  0  0  0
   43.1620   86.1090   58.4500 C   0  0  0  0  0  3  0  0  0  0  0  0
   43.9180   85.7540   57.7010 H   0  0  0  0  0  0  0  0  0  0  0  0
   42.9120   85.0030   59.4180 C   0  0  0  0  0  3  0  0  0  0  0  0
   43.5770   85.0540   60.2970 H   0  0  0  0  0  0  0  0  0  0  0  0
  1  6  1  0  0  0  0
  2  3  1  0  0  0  0
  2  1  2  0  0  0  0
  3  4  2  0  0  0  0
  4  8  1  0  0  0  0
  4  5  1  0  0  0  0
  5  9  1  0  0  0  0
  6  5  2  0  0  0  0
  6 10  1  0  0  0  0
  7  3  1  0  0  0  0
 11 17  1  0  0  0  0
 11 16  1  0  0  0  0
 12 11  2  0  0  0  0
 13 12  1  0  0  0  0
 13 14  2  0  0  0  0
 14 15  1  0  0  0  0
 15 16  2  0  0  0  0
 15  2  1  0  0  0  0
 18 13  1  0  0  0  0
 19 12  1  0  0  0  0
 20 19  1  0  0  0  0
 20 27  1  0  0  0  0
 21 20  2  0  0  0  0
 22 24  1  0  0  0  0
 22 21  1  0  0  0  0
 23 22  2  0  0  0  0
 24 25  1  0  0  0  0
 25 26  2  0  0  0  0
 25 19  1  0  0  0  0
 28 21  1  0  0  0  0
 29 24  1  0  0  0  0
 30  1  1  0  0  0  0
 30 31  2  0  0  0  0
 32 30  2  0  0  0  0
 33 30  1  0  0  0  0
 34 33  1  0  0  0  0
 35 34  1  0  0  0  0
 36 38  1  0  0  0  0
 36 34  1  0  0  0  0
 37 36  1  0  0  0  0
 38 39  1  0  0  0  0
 39 41  1  0  0  0  0
 40 39  1  0  0  0  0
 41 33  1  0  0  0  0
 41 42  1  0  0  0  0
M  END
>  <minimizedAffinity>
-5.76036263

>  <minimizedRMSD>
1.7668997

$$$$
