
 OpenBabel03212520323D

 42 45  0  0  0  0  0  0  0  0999 V2000
   42.3490   82.0610   62.2660 C   0  0  0  0  0  0  0  0  0  0  0  0
   42.9860   80.9270   61.8000 C   0  0  0  0  0  0  0  0  0  0  0  0
   44.3090   80.6860   62.1100 C   0  0  0  0  0  0  0  0  0  0  0  0
   45.0700   81.5550   62.8960 C   0  0  0  0  0  0  0  0  0  0  0  0
   44.4570   82.6860   63.3690 C   0  0  0  0  0  0  0  0  0  0  0  0
   43.1260   82.9220   63.0540 C   0  0  0  0  0  0  0  0  0  0  0  0
   44.8390   79.7960   61.7540 H   0  0  0  0  0  0  0  0  0  0  0  0
   46.1040   81.3540   63.1300 H   0  0  0  0  0  0  0  0  0  0  0  0
   44.9630   83.4200   63.9860 H   0  0  0  0  0  0  0  0  0  0  0  0
   42.6260   83.8200   63.4240 H   0  0  0  0  0  0  0  0  0  0  0  0
   41.1390   77.9070   60.7350 C   0  0  0  0  0  0  0  0  0  0  0  0
   40.9630   78.1510   59.3740 C   0  0  0  0  0  0  0  0  0  0  0  0
   41.4930   79.3520   58.8520 C   0  0  0  0  0  0  0  0  0  0  0  0
   42.1290   80.1700   59.7260 N   0  0  0  0  0  0  0  0  0  0  0  0
   42.2880   79.9300   61.0070 C   0  0  0  0  0  0  0  0  0  0  0  0
   41.7860   78.7870   61.5100 N   0  0  0  0  0  0  0  0  0  0  0  0
   40.7620   77.0100   61.2040 H   0  0  0  0  0  0  0  0  0  0  0  0
   41.3710   79.5700   57.7920 H   0  0  0  0  0  0  0  0  0  0  0  0
   40.2750   77.2190   58.5530 N   0  0  0  0  0  0  0  0  0  0  0  0
   38.9500   77.3900   58.5310 C   0  0  0  0  0  0  0  0  0  0  0  0
   38.1820   76.5250   57.7540 C   0  0  0  0  0  0  0  0  0  0  0  0
   38.8120   75.5240   57.0380 C   0  0  0  0  0  0  0  0  0  0  0  0
   38.2240   74.6840   56.3030 O   0  0  0  0  0  0  0  0  0  0  0  0
   40.1690   75.4100   57.1090 N   0  0  0  0  0  0  0  0  0  0  0  0
   40.9160   76.2590   57.8700 C   0  0  0  0  0  0  0  0  0  0  0  0
   42.1550   76.1650   57.9430 O   0  0  0  0  0  0  0  0  0  0  0  0
   38.4200   78.1480   59.0680 H   0  0  0  0  0  0  0  0  0  0  0  0
   37.1180   76.5990   57.6870 H   0  0  0  0  0  0  0  0  0  0  0  0
   40.7280   74.6930   56.6080 H   0  0  0  0  0  0  0  0  0  0  0  0
   40.7080   82.4140   61.8830 S   0  0  0  0  0  0  0  0  0  0  0  0
   40.1060   83.2560   62.9940 O   0  0  0  0  0  0  0  0  0  0  0  0
   39.9180   81.1190   62.0760 O   0  0  0  0  0  0  0  0  0  0  0  0
   40.3210   83.2590   60.4380 C   0  0  0  0  0  3  0  0  0  0  0  0
   41.6500   83.8210   59.8730 C   0  0  0  0  0  3  0  0  0  0  0  0
   42.2900   84.1330   60.7310 H   0  0  0  0  0  0  0  0  0  0  0  0
   41.4200   85.0240   59.0140 C   0  0  0  0  0  3  0  0  0  0  0  0
   41.6560   85.9640   59.5530 H   0  0  0  0  0  0  0  0  0  0  0  0
   40.1250   84.9830   58.5050 O   0  0  0  0  0  0  0  0  0  0  0  0
   39.2020   85.2770   59.5060 C   0  0  0  0  0  3  0  0  0  0  0  0
   39.2350   86.3810   59.7050 H   0  0  0  0  0  0  0  0  0  0  0  0
   39.5550   84.5670   60.7670 C   0  0  0  0  0  3  0  0  0  0  0  0
   38.6690   84.3240   61.3780 H   0  0  0  0  0  0  0  0  0  0  0  0
  1  6  1  0  0  0  0
  2  3  1  0  0  0  0
  2  1  2  0  0  0  0
  3  4  2  0  0  0  0
  4  8  1  0  0  0  0
  4  5  1  0  0  0  0
  5  9  1  0  0  0  0
  6  5  2  0  0  0  0
  6 10  1  0  0  0  0
  7  3  1  0  0  0  0
 11 17  1  0  0  0  0
 11 16  1  0  0  0  0
 12 11  2  0  0  0  0
 13 12  1  0  0  0  0
 13 14  2  0  0  0  0
 14 15  1  0  0  0  0
 15 16  2  0  0  0  0
 15  2  1  0  0  0  0
 18 13  1  0  0  0  0
 19 12  1  0  0  0  0
 20 19  1  0  0  0  0
 20 27  1  0  0  0  0
 21 20  2  0  0  0  0
 22 24  1  0  0  0  0
 22 21  1  0  0  0  0
 23 22  2  0  0  0  0
 24 25  1  0  0  0  0
 25 26  2  0  0  0  0
 25 19  1  0  0  0  0
 28 21  1  0  0  0  0
 29 24  1  0  0  0  0
 30 32  2  0  0  0  0
 30  1  1  0  0  0  0
 30 31  2  0  0  0  0
 33 41  1  0  0  0  0
 33 30  1  0  0  0  0
 34 33  1  0  0  0  0
 34 35  1  0  0  0  0
 36 37  1  0  0  0  0
 36 34  1  0  0  0  0
 38 36  1  0  0  0  0
 38 39  1  0  0  0  0
 39 40  1  0  0  0  0
 39 41  1  0  0  0  0
 41 42  1  0  0  0  0
M  END
>  <minimizedAffinity>
-6.39205647

>  <minimizedRMSD>
2.94056726

$$$$
