
 OpenBabel03212520053D

 42 46  0  0  0  0  0  0  0  0999 V2000
   40.7400   81.7890   57.1240 C   0  0  0  0  0  0  0  0  0  0  0  0
   41.8490   82.3230   56.4460 C   0  0  0  0  0  0  0  0  0  0  0  0
   42.6590   83.2030   57.1550 C   0  0  0  0  0  0  0  0  0  0  0  0
   42.3710   83.5140   58.4470 N   0  0  0  0  0  0  0  0  0  0  0  0
   41.2860   82.9700   59.0670 C   0  0  0  0  0  0  0  0  0  0  0  0
   40.4630   82.1060   58.4090 N   0  0  0  0  0  0  0  0  0  0  0  0
   40.0210   81.0990   56.7090 H   0  0  0  0  0  0  0  0  0  0  0  0
   41.8920   81.9100   55.4700 H   0  0  0  0  0  0  0  0  0  0  0  0
   39.7030   83.0980   60.9220 C   0  0  0  0  0  0  0  0  0  0  0  0
   41.0070   83.2840   60.4610 C   0  0  0  0  0  0  0  0  0  0  0  0
   42.0190   83.7390   61.3090 C   0  0  0  0  0  0  0  0  0  0  0  0
   41.7640   84.0200   62.6400 C   0  0  0  0  0  0  0  0  0  0  0  0
   42.4620   84.4530   63.6950 N   0  0  0  0  0  0  0  0  0  0  0  0
   41.6590   84.5430   64.7830 C   0  0  0  0  0  0  0  0  0  0  0  0
   40.4380   84.1470   64.3490 N   0  0  0  0  0  0  0  0  0  0  0  0
   40.4630   83.8200   63.0460 C   0  0  0  0  0  0  0  0  0  0  0  0
   39.4290   83.3770   62.2600 C   0  0  0  0  0  0  0  0  0  0  0  0
   38.9080   82.7540   60.3030 H   0  0  0  0  0  0  0  0  0  0  0  0
   43.0260   83.8790   60.9360 H   0  0  0  0  0  0  0  0  0  0  0  0
   43.4810   84.6670   63.5990 H   0  0  0  0  0  0  0  0  0  0  0  0
   42.0040   84.8700   65.7480 H   0  0  0  0  0  0  0  0  0  0  0  0
   38.4490   83.2470   62.6470 H   0  0  0  0  0  0  0  0  0  0  0  0
   42.3900   83.8060   54.2440 Cl  0  0  0  0  0  0  0  0  0  0  0  0
   43.8420   84.1190   55.1910 C   0  0  0  0  0  0  0  0  0  0  0  0
   43.8140   83.7950   56.5200 C   0  0  0  0  0  0  0  0  0  0  0  0
   44.9960   84.0830   57.1950 C   0  0  0  0  0  0  0  0  0  0  0  0
   46.1080   84.6400   56.6180 C   0  0  0  0  0  0  0  0  0  0  0  0
   46.0780   84.9450   55.2660 C   0  0  0  0  0  0  0  0  0  0  0  0
   47.4410   85.6240   54.4410 Cl  0  0  0  0  0  0  0  0  0  0  0  0
   44.9300   84.6770   54.5660 C   0  0  0  0  0  0  0  0  0  0  0  0
   45.0670   83.8620   58.2540 H   0  0  0  0  0  0  0  0  0  0  0  0
   46.9920   84.8380   57.1980 H   0  0  0  0  0  0  0  0  0  0  0  0
   44.8150   84.9710   53.1340 C   0  0  0  0  0  3  0  0  0  0  0  0
   45.6500   84.0710   52.2350 C   0  0  0  0  0  3  0  0  0  0  0  0
   46.7010   84.4090   52.2370 H   0  0  0  0  0  0  0  0  0  0  0  0
   45.0420   84.2740   50.8420 C   0  0  0  0  0  3  0  0  0  0  0  0
   44.0940   83.7040   50.7950 H   0  0  0  0  0  0  0  0  0  0  0  0
   44.9460   85.5740   50.4510 O   0  0  0  0  0  0  0  0  0  0  0  0
   44.3230   86.4500   51.3020 C   0  0  0  0  0  3  0  0  0  0  0  0
   43.2470   86.3160   51.4370 H   0  0  0  0  0  0  0  0  0  0  0  0
   45.0600   86.3480   52.6580 C   0  0  0  0  0  3  0  0  0  0  0  0
   46.1290   86.4410   52.2880 H   0  0  0  0  0  0  0  0  0  0  0  0
  1  6  1  0  0  0  0
  2  1  2  0  0  0  0
  2  3  1  0  0  0  0
  3  4  2  0  0  0  0
  4  5  1  0  0  0  0
  5 10  1  0  0  0  0
  6  5  2  0  0  0  0
  7  1  1  0  0  0  0
  8  2  1  0  0  0  0
  9 17  1  0  0  0  0
 10  9  2  0  0  0  0
 10 11  1  0  0  0  0
 11 12  2  0  0  0  0
 12 16  1  0  0  0  0
 12 13  1  0  0  0  0
 13 14  1  0  0  0  0
 14 21  1  0  0  0  0
 15 14  2  0  0  0  0
 16 15  1  0  0  0  0
 17 22  1  0  0  0  0
 17 16  2  0  0  0  0
 18  9  1  0  0  0  0
 19 11  1  0  0  0  0
 20 13  1  0  0  0  0
 23 24  1  0  0  0  0
 24 25  1  0  0  0  0
 25  3  1  0  0  0  0
 25 26  2  0  0  0  0
 26 31  1  0  0  0  0
 27 26  1  0  0  0  0
 27 32  1  0  0  0  0
 28 27  2  0  0  0  0
 29 28  1  0  0  0  0
 30 24  2  0  0  0  0
 30 28  1  0  0  0  0
 33 30  1  0  0  0  0
 34 35  1  0  0  0  0
 34 33  1  0  0  0  0
 36 34  1  0  0  0  0
 37 36  1  0  0  0  0
 38 36  1  0  0  0  0
 38 39  1  0  0  0  0
 39 40  1  0  0  0  0
 39 41  1  0  0  0  0
 41 33  1  0  0  0  0
 42 41  1  0  0  0  0
M  END
>  <minimizedAffinity>
-5.03589582

>  <minimizedRMSD>
0.213225216

$$$$
