
 OpenBabel03212520323D

 42 45  0  0  0  0  0  0  0  0999 V2000
   43.0820   82.4720   61.7480 C   0  0  0  0  0  0  0  0  0  0  0  0
   43.1870   81.1760   61.2820 C   0  0  0  0  0  0  0  0  0  0  0  0
   44.1780   80.3380   61.7510 C   0  0  0  0  0  0  0  0  0  0  0  0
   45.1160   80.7390   62.7050 C   0  0  0  0  0  0  0  0  0  0  0  0
   45.0300   82.0210   63.1810 C   0  0  0  0  0  0  0  0  0  0  0  0
   44.0310   82.8590   62.7060 C   0  0  0  0  0  0  0  0  0  0  0  0
   44.2840   79.3060   61.3990 H   0  0  0  0  0  0  0  0  0  0  0  0
   45.8860   80.0730   63.0630 H   0  0  0  0  0  0  0  0  0  0  0  0
   45.7110   82.4250   63.9220 H   0  0  0  0  0  0  0  0  0  0  0  0
   43.9520   83.8830   63.0760 H   0  0  0  0  0  0  0  0  0  0  0  0
   40.2830   79.4990   59.7280 C   0  0  0  0  0  0  0  0  0  0  0  0
   40.5430   79.6860   58.3720 C   0  0  0  0  0  0  0  0  0  0  0  0
   41.7210   80.3830   58.0230 C   0  0  0  0  0  0  0  0  0  0  0  0
   42.5020   80.8140   59.0450 N   0  0  0  0  0  0  0  0  0  0  0  0
   42.2450   80.6320   60.3190 C   0  0  0  0  0  0  0  0  0  0  0  0
   41.1250   79.9680   60.6570 N   0  0  0  0  0  0  0  0  0  0  0  0
   39.4020   78.9740   60.0690 H   0  0  0  0  0  0  0  0  0  0  0  0
   41.9510   80.5450   56.9710 H   0  0  0  0  0  0  0  0  0  0  0  0
   39.6490   79.1900   57.3860 N   0  0  0  0  0  0  0  0  0  0  0  0
   38.7890   80.1010   56.9250 C   0  0  0  0  0  0  0  0  0  0  0  0
   37.8680   79.7150   55.9540 C   0  0  0  0  0  0  0  0  0  0  0  0
   37.8740   78.4070   55.5030 C   0  0  0  0  0  0  0  0  0  0  0  0
   37.0910   77.9420   54.6310 O   0  0  0  0  0  0  0  0  0  0  0  0
   38.7820   77.5300   56.0200 N   0  0  0  0  0  0  0  0  0  0  0  0
   39.6810   77.9150   56.9690 C   0  0  0  0  0  0  0  0  0  0  0  0
   40.5150   77.1240   57.4490 O   0  0  0  0  0  0  0  0  0  0  0  0
   38.7470   81.1220   57.2440 H   0  0  0  0  0  0  0  0  0  0  0  0
   37.1500   80.3870   55.5380 H   0  0  0  0  0  0  0  0  0  0  0  0
   38.8620   76.5330   55.7440 H   0  0  0  0  0  0  0  0  0  0  0  0
   41.8790   83.5600   61.1720 S   0  0  0  0  0  0  0  0  0  0  0  0
   41.7970   84.7540   62.1060 O   0  0  0  0  0  0  0  0  0  0  0  0
   40.5230   82.9120   61.4540 O   0  0  0  0  0  0  0  0  0  0  0  0
   42.0130   84.2430   59.6020 C   0  0  0  0  0  3  0  0  0  0  0  0
   43.1430   85.3020   59.6640 C   0  0  0  0  0  3  0  0  0  0  0  0
   43.0960   85.8050   60.6570 H   0  0  0  0  0  0  0  0  0  0  0  0
   42.9740   86.3520   58.6120 C   0  0  0  0  0  3  0  0  0  0  0  0
   42.5510   87.2880   59.0320 H   0  0  0  0  0  0  0  0  0  0  0  0
   42.2330   85.8290   57.5560 O   0  0  0  0  0  0  0  0  0  0  0  0
   40.8950   85.7000   57.9210 C   0  0  0  0  0  3  0  0  0  0  0  0
   40.4270   86.7210   57.9230 H   0  0  0  0  0  0  0  0  0  0  0  0
   40.7810   85.1340   59.2960 C   0  0  0  0  0  3  0  0  0  0  0  0
   39.8610   84.5410   59.4320 H   0  0  0  0  0  0  0  0  0  0  0  0
  1  6  1  0  0  0  0
  2  1  2  0  0  0  0
  2  3  1  0  0  0  0
  3  4  2  0  0  0  0
  4  8  1  0  0  0  0
  4  5  1  0  0  0  0
  5  9  1  0  0  0  0
  6 10  1  0  0  0  0
  6  5  2  0  0  0  0
  7  3  1  0  0  0  0
 11 17  1  0  0  0  0
 11 16  1  0  0  0  0
 12 11  2  0  0  0  0
 13 12  1  0  0  0  0
 13 14  2  0  0  0  0
 14 15  1  0  0  0  0
 15 16  2  0  0  0  0
 15  2  1  0  0  0  0
 18 13  1  0  0  0  0
 19 12  1  0  0  0  0
 20 27  1  0  0  0  0
 20 19  1  0  0  0  0
 21 20  2  0  0  0  0
 22 21  1  0  0  0  0
 22 24  1  0  0  0  0
 23 22  2  0  0  0  0
 24 25  1  0  0  0  0
 25 19  1  0  0  0  0
 25 26  2  0  0  0  0
 28 21  1  0  0  0  0
 29 24  1  0  0  0  0
 30 32  2  0  0  0  0
 30  1  1  0  0  0  0
 30 31  2  0  0  0  0
 33 34  1  0  0  0  0
 33 30  1  0  0  0  0
 34 35  1  0  0  0  0
 36 37  1  0  0  0  0
 36 34  1  0  0  0  0
 38 39  1  0  0  0  0
 38 36  1  0  0  0  0
 39 40  1  0  0  0  0
 39 41  1  0  0  0  0
 41 42  1  0  0  0  0
 41 33  1  0  0  0  0
M  END
>  <minimizedAffinity>
-5.75674677

>  <minimizedRMSD>
2.52548361

$$$$
