
 OpenBabel03212520493D

 29 31  0  0  0  0  0  0  0  0999 V2000
   41.6110   83.9030   61.3640 C   0  0  0  0  0  0  0  0  0  0  0  0
   41.5150   84.1690   62.7090 C   0  0  0  0  0  0  0  0  0  0  0  0
   41.0120   83.2420   63.6240 C   0  0  0  0  0  0  0  0  0  0  0  0
   40.6030   82.0350   63.1790 N   0  0  0  0  0  0  0  0  0  0  0  0
   40.7000   81.7820   61.8660 C   0  0  0  0  0  0  0  0  0  0  0  0
   41.1900   82.6820   60.9650 N   0  0  0  0  0  0  0  0  0  0  0  0
   41.8420   85.1320   63.0620 H   0  0  0  0  0  0  0  0  0  0  0  0
   40.9680   83.5260   64.6650 H   0  0  0  0  0  0  0  0  0  0  0  0
   43.6880   86.4950   59.8310 C   0  0  0  0  0  0  0  0  0  0  0  0
   43.0840   86.6400   58.5780 C   0  0  0  0  0  0  0  0  0  0  0  0
   41.9800   85.8610   58.2630 C   0  0  0  0  0  0  0  0  0  0  0  0
   41.5400   84.9800   59.2130 N   0  0  0  0  0  0  0  0  0  0  0  0
   42.1340   84.8620   60.3990 C   0  0  0  0  0  0  0  0  0  0  0  0
   43.1980   85.6020   60.7210 N   0  0  0  0  0  0  0  0  0  0  0  0
   44.8010   87.3510   60.0130 N   0  0  0  0  0  0  0  0  0  0  0  0
   43.4200   87.3300   57.8190 H   0  0  0  0  0  0  0  0  0  0  0  0
   41.4840   85.9450   57.3000 H   0  0  0  0  0  0  0  0  0  0  0  0
   45.5700   86.6760   60.1920 H   0  0  0  0  0  0  0  0  0  0  0  0
   44.8110   88.4080   59.9710 H   0  0  0  0  0  0  0  0  0  0  0  0
   40.2300   80.4310   61.4430 C   0  0  0  0  0  3  0  0  0  0  0  0
   40.5250   80.2110   59.9940 C   0  0  0  0  0  3  0  0  0  0  0  0
   40.6740   81.2210   59.5260 H   0  0  0  0  0  0  0  0  0  0  0  0
   41.7130   79.3680   59.6850 C   0  0  0  0  0  3  0  0  0  0  0  0
   41.4520   78.4970   59.0200 H   0  0  0  0  0  0  0  0  0  0  0  0
   42.3790   78.8560   60.7740 O   0  0  0  0  0  0  0  0  0  0  0  0
   41.4870   78.2790   61.6510 C   0  0  0  0  0  3  0  0  0  0  0  0
   42.0600   77.7030   62.4220 H   0  0  0  0  0  0  0  0  0  0  0  0
   40.7980   79.4240   62.3770 C   0  0  0  0  0  3  0  0  0  0  0  0
   41.5800   79.8570   63.0650 H   0  0  0  0  0  0  0  0  0  0  0  0
  1  2  1  0  0  0  0
  2  7  1  0  0  0  0
  2  3  2  0  0  0  0
  3  8  1  0  0  0  0
  4  3  1  0  0  0  0
  5  4  2  0  0  0  0
  6  1  2  0  0  0  0
  6  5  1  0  0  0  0
  9 15  1  0  0  0  0
  9 14  1  0  0  0  0
 10  9  2  0  0  0  0
 11 10  1  0  0  0  0
 11 12  2  0  0  0  0
 12 13  1  0  0  0  0
 13 14  2  0  0  0  0
 13  1  1  0  0  0  0
 15 18  1  0  0  0  0
 16 10  1  0  0  0  0
 17 11  1  0  0  0  0
 19 15  1  0  0  0  0
 20  5  1  0  0  0  0
 20 28  1  0  0  0  0
 21 20  1  0  0  0  0
 22 21  1  0  0  0  0
 23 21  1  0  0  0  0
 23 25  1  0  0  0  0
 24 23  1  0  0  0  0
 25 26  1  0  0  0  0
 26 28  1  0  0  0  0
 26 27  1  0  0  0  0
 28 29  1  0  0  0  0
M  END
>  <minimizedAffinity>
-5.18364286

>  <minimizedRMSD>
1.49041331

$$$$
