
 OpenBabel03212521073D

 37 40  0  0  0  0  0  0  0  0999 V2000
   41.8080   84.2410   61.5560 C   0  0  0  0  0  0  0  0  0  0  0  0
   41.4540   83.9540   62.8770 C   0  0  0  0  0  0  0  0  0  0  0  0
   40.1690   83.5410   63.2060 C   0  0  0  0  0  0  0  0  0  0  0  0
   39.2170   83.4110   62.2080 C   0  0  0  0  0  0  0  0  0  0  0  0
   39.5720   83.6980   60.9000 C   0  0  0  0  0  0  0  0  0  0  0  0
   40.8500   84.1090   60.5640 C   0  0  0  0  0  0  0  0  0  0  0  0
   42.2240   84.0660   63.6360 H   0  0  0  0  0  0  0  0  0  0  0  0
   40.0180   83.3490   64.2610 H   0  0  0  0  0  0  0  0  0  0  0  0
   38.2390   83.0920   62.4950 H   0  0  0  0  0  0  0  0  0  0  0  0
   38.7750   83.5700   60.1990 H   0  0  0  0  0  0  0  0  0  0  0  0
   45.3240   84.1460   60.5920 C   0  0  0  0  0  0  0  0  0  0  0  0
   45.7190   85.4720   60.7010 C   0  0  0  0  0  0  0  0  0  0  0  0
   44.7570   86.4180   61.1150 C   0  0  0  0  0  0  0  0  0  0  0  0
   43.4980   85.9830   61.3830 N   0  0  0  0  0  0  0  0  0  0  0  0
   43.1530   84.6660   61.2620 C   0  0  0  0  0  0  0  0  0  0  0  0
   44.0650   83.7890   60.8730 N   0  0  0  0  0  0  0  0  0  0  0  0
   46.0000   83.3490   60.2800 H   0  0  0  0  0  0  0  0  0  0  0  0
   46.7340   85.7120   60.4660 H   0  0  0  0  0  0  0  0  0  0  0  0
   45.0560   87.4450   61.2010 H   0  0  0  0  0  0  0  0  0  0  0  0
   41.1640   84.3940   59.1790 C   0  0  0  0  0  0  0  0  0  0  0  0
   40.7780   85.6970   58.8270 C   0  0  0  0  0  0  0  0  0  0  0  0
   40.9960   86.1640   57.5290 C   0  0  0  0  0  0  0  0  0  0  0  0
   41.5750   85.3340   56.6610 N   0  0  0  0  0  0  0  0  0  0  0  0
   41.9460   84.0670   57.0170 C   0  0  0  0  0  0  0  0  0  0  0  0
   41.7430   83.6020   58.2640 N   0  0  0  0  0  0  0  0  0  0  0  0
   40.3040   86.4210   59.4820 H   0  0  0  0  0  0  0  0  0  0  0  0
   40.7140   87.1610   57.2130 H   0  0  0  0  0  0  0  0  0  0  0  0
   42.5800   83.2090   56.0050 C   0  0  0  0  0  3  0  0  0  0  0  0
   41.6920   82.0650   55.6310 C   0  0  0  0  0  3  0  0  0  0  0  0
   41.3440   81.5750   56.5770 H   0  0  0  0  0  0  0  0  0  0  0  0
   42.4090   81.0620   54.7870 C   0  0  0  0  0  3  0  0  0  0  0  0
   42.2620   80.0460   55.1980 H   0  0  0  0  0  0  0  0  0  0  0  0
   43.7400   81.3750   54.5670 O   0  0  0  0  0  0  0  0  0  0  0  0
   44.4510   81.5800   55.7460 C   0  0  0  0  0  3  0  0  0  0  0  0
   45.4750   81.8700   55.4270 H   0  0  0  0  0  0  0  0  0  0  0  0
   43.8820   82.6910   56.5740 C   0  0  0  0  0  3  0  0  0  0  0  0
   44.5890   83.5510   56.6390 H   0  0  0  0  0  0  0  0  0  0  0  0
  1  2  1  0  0  0  0
  2  3  2  0  0  0  0
  2  7  1  0  0  0  0
  3  8  1  0  0  0  0
  4  9  1  0  0  0  0
  4  3  1  0  0  0  0
  5  4  2  0  0  0  0
  6  5  1  0  0  0  0
  6  1  2  0  0  0  0
 10  5  1  0  0  0  0
 11 12  2  0  0  0  0
 11 16  1  0  0  0  0
 12 13  1  0  0  0  0
 13 19  1  0  0  0  0
 13 14  2  0  0  0  0
 15 14  1  0  0  0  0
 15  1  1  0  0  0  0
 16 15  2  0  0  0  0
 17 11  1  0  0  0  0
 18 12  1  0  0  0  0
 20  6  1  0  0  0  0
 21 20  1  0  0  0  0
 21 26  1  0  0  0  0
 22 21  2  0  0  0  0
 23 24  2  0  0  0  0
 23 22  1  0  0  0  0
 24 25  1  0  0  0  0
 25 20  2  0  0  0  0
 27 22  1  0  0  0  0
 28 36  1  0  0  0  0
 28 24  1  0  0  0  0
 29 28  1  0  0  0  0
 29 30  1  0  0  0  0
 31 32  1  0  0  0  0
 31 29  1  0  0  0  0
 33 31  1  0  0  0  0
 33 34  1  0  0  0  0
 34 36  1  0  0  0  0
 35 34  1  0  0  0  0
 36 37  1  0  0  0  0
M  END
>  <minimizedAffinity>
-5.44257164

>  <minimizedRMSD>
0.269825369

$$$$
