
 OpenBabel03212521073D

 37 40  0  0  0  0  0  0  0  0999 V2000
   41.8190   84.2330   61.5720 C   0  0  0  0  0  0  0  0  0  0  0  0
   41.4620   83.9760   62.8980 C   0  0  0  0  0  0  0  0  0  0  0  0
   40.1800   83.5620   63.2320 C   0  0  0  0  0  0  0  0  0  0  0  0
   39.2320   83.4000   62.2350 C   0  0  0  0  0  0  0  0  0  0  0  0
   39.5900   83.6570   60.9210 C   0  0  0  0  0  0  0  0  0  0  0  0
   40.8660   84.0690   60.5790 C   0  0  0  0  0  0  0  0  0  0  0  0
   42.2290   84.1120   63.6570 H   0  0  0  0  0  0  0  0  0  0  0  0
   40.0260   83.3940   64.2910 H   0  0  0  0  0  0  0  0  0  0  0  0
   38.2550   83.0810   62.5260 H   0  0  0  0  0  0  0  0  0  0  0  0
   38.7970   83.5060   60.2210 H   0  0  0  0  0  0  0  0  0  0  0  0
   45.3300   84.1460   60.5880 C   0  0  0  0  0  0  0  0  0  0  0  0
   45.7240   85.4720   60.7000 C   0  0  0  0  0  0  0  0  0  0  0  0
   44.7640   86.4150   61.1230 C   0  0  0  0  0  0  0  0  0  0  0  0
   43.5070   85.9780   61.3960 N   0  0  0  0  0  0  0  0  0  0  0  0
   43.1630   84.6600   61.2720 C   0  0  0  0  0  0  0  0  0  0  0  0
   44.0730   83.7860   60.8740 N   0  0  0  0  0  0  0  0  0  0  0  0
   46.0050   83.3510   60.2680 H   0  0  0  0  0  0  0  0  0  0  0  0
   46.7370   85.7140   60.4600 H   0  0  0  0  0  0  0  0  0  0  0  0
   45.0620   87.4420   61.2120 H   0  0  0  0  0  0  0  0  0  0  0  0
   41.1820   84.3230   59.1900 C   0  0  0  0  0  0  0  0  0  0  0  0
   40.8680   85.6420   58.8280 C   0  0  0  0  0  0  0  0  0  0  0  0
   41.1020   86.0830   57.5230 C   0  0  0  0  0  0  0  0  0  0  0  0
   41.6230   85.2130   56.6590 N   0  0  0  0  0  0  0  0  0  0  0  0
   41.9240   83.9300   57.0240 C   0  0  0  0  0  0  0  0  0  0  0  0
   41.7070   83.4900   58.2780 N   0  0  0  0  0  0  0  0  0  0  0  0
   40.4430   86.3980   59.4790 H   0  0  0  0  0  0  0  0  0  0  0  0
   40.8740   87.0920   57.2000 H   0  0  0  0  0  0  0  0  0  0  0  0
   42.4990   83.0280   56.0150 C   0  0  0  0  0  3  0  0  0  0  0  0
   41.5580   81.9120   55.6880 C   0  0  0  0  0  3  0  0  0  0  0  0
   41.2160   81.4570   56.6520 H   0  0  0  0  0  0  0  0  0  0  0  0
   42.2140   80.8640   54.8480 C   0  0  0  0  0  3  0  0  0  0  0  0
   42.0370   79.8630   55.2850 H   0  0  0  0  0  0  0  0  0  0  0  0
   43.5490   81.1210   54.5890 O   0  0  0  0  0  0  0  0  0  0  0  0
   44.2980   81.3210   55.7450 C   0  0  0  0  0  3  0  0  0  0  0  0
   45.3240   81.5640   55.3950 H   0  0  0  0  0  0  0  0  0  0  0  0
   43.7930   82.4690   56.5630 C   0  0  0  0  0  3  0  0  0  0  0  0
   44.5350   83.3030   56.5920 H   0  0  0  0  0  0  0  0  0  0  0  0
  1  2  1  0  0  0  0
  2  3  2  0  0  0  0
  2  7  1  0  0  0  0
  3  8  1  0  0  0  0
  4  9  1  0  0  0  0
  4  3  1  0  0  0  0
  5  4  2  0  0  0  0
  6  5  1  0  0  0  0
  6  1  2  0  0  0  0
 10  5  1  0  0  0  0
 11 12  2  0  0  0  0
 11 16  1  0  0  0  0
 12 13  1  0  0  0  0
 13 19  1  0  0  0  0
 13 14  2  0  0  0  0
 15 14  1  0  0  0  0
 15  1  1  0  0  0  0
 16 15  2  0  0  0  0
 17 11  1  0  0  0  0
 18 12  1  0  0  0  0
 20  6  1  0  0  0  0
 21 20  1  0  0  0  0
 21 26  1  0  0  0  0
 22 21  2  0  0  0  0
 23 24  2  0  0  0  0
 23 22  1  0  0  0  0
 24 25  1  0  0  0  0
 25 20  2  0  0  0  0
 27 22  1  0  0  0  0
 28 36  1  0  0  0  0
 28 24  1  0  0  0  0
 29 28  1  0  0  0  0
 29 30  1  0  0  0  0
 31 32  1  0  0  0  0
 31 29  1  0  0  0  0
 33 31  1  0  0  0  0
 33 34  1  0  0  0  0
 34 36  1  0  0  0  0
 35 34  1  0  0  0  0
 36 37  1  0  0  0  0
M  END
>  <minimizedAffinity>
-5.46512651

>  <minimizedRMSD>
0.30601579

$$$$
