
 OpenBabel03212521073D

 37 40  0  0  0  0  0  0  0  0999 V2000
   41.8150   84.2510   61.5330 C   0  0  0  0  0  0  0  0  0  0  0  0
   41.4810   83.8750   62.8380 C   0  0  0  0  0  0  0  0  0  0  0  0
   40.1980   83.4520   63.1600 C   0  0  0  0  0  0  0  0  0  0  0  0
   39.2270   83.4000   62.1740 C   0  0  0  0  0  0  0  0  0  0  0  0
   39.5620   83.7740   60.8820 C   0  0  0  0  0  0  0  0  0  0  0  0
   40.8390   84.1960   60.5520 C   0  0  0  0  0  0  0  0  0  0  0  0
   42.2660   83.9270   63.5880 H   0  0  0  0  0  0  0  0  0  0  0  0
   40.0640   83.1880   64.2020 H   0  0  0  0  0  0  0  0  0  0  0  0
   38.2510   83.0710   62.4550 H   0  0  0  0  0  0  0  0  0  0  0  0
   38.7520   83.7020   60.1890 H   0  0  0  0  0  0  0  0  0  0  0  0
   45.3370   84.1740   60.5890 C   0  0  0  0  0  0  0  0  0  0  0  0
   45.7220   85.5030   60.6950 C   0  0  0  0  0  0  0  0  0  0  0  0
   44.7530   86.4440   61.1000 C   0  0  0  0  0  0  0  0  0  0  0  0
   43.4950   86.0030   61.3630 N   0  0  0  0  0  0  0  0  0  0  0  0
   43.1590   84.6830   61.2450 C   0  0  0  0  0  0  0  0  0  0  0  0
   44.0780   83.8100   60.8650 N   0  0  0  0  0  0  0  0  0  0  0  0
   46.0190   83.3800   60.2840 H   0  0  0  0  0  0  0  0  0  0  0  0
   46.7370   85.7480   60.4640 H   0  0  0  0  0  0  0  0  0  0  0  0
   45.0450   87.4730   61.1830 H   0  0  0  0  0  0  0  0  0  0  0  0
   41.1300   84.5750   59.1850 C   0  0  0  0  0  0  0  0  0  0  0  0
   40.5110   85.7880   58.8490 C   0  0  0  0  0  0  0  0  0  0  0  0
   40.6730   86.3240   57.5690 C   0  0  0  0  0  0  0  0  0  0  0  0
   41.4250   85.6450   56.7030 N   0  0  0  0  0  0  0  0  0  0  0  0
   42.0220   84.4630   57.0430 C   0  0  0  0  0  0  0  0  0  0  0  0
   41.8770   83.9340   58.2730 N   0  0  0  0  0  0  0  0  0  0  0  0
   39.8890   86.3900   59.5030 H   0  0  0  0  0  0  0  0  0  0  0  0
   40.2130   87.2570   57.2660 H   0  0  0  0  0  0  0  0  0  0  0  0
   42.8380   83.7710   56.0340 C   0  0  0  0  0  3  0  0  0  0  0  0
   42.1380   82.5570   55.5110 C   0  0  0  0  0  3  0  0  0  0  0  0
   41.7850   81.9580   56.3890 H   0  0  0  0  0  0  0  0  0  0  0  0
   43.0410   81.7200   54.6660 C   0  0  0  0  0  3  0  0  0  0  0  0
   42.9960   80.6640   54.9950 H   0  0  0  0  0  0  0  0  0  0  0  0
   44.3330   82.2120   54.5810 O   0  0  0  0  0  0  0  0  0  0  0  0
   44.9190   82.4110   55.8280 C   0  0  0  0  0  3  0  0  0  0  0  0
   45.9180   82.8500   55.6180 H   0  0  0  0  0  0  0  0  0  0  0  0
   44.1490   83.3760   56.6770 C   0  0  0  0  0  3  0  0  0  0  0  0
   44.7300   84.3100   56.8600 H   0  0  0  0  0  0  0  0  0  0  0  0
  1  2  1  0  0  0  0
  2  3  2  0  0  0  0
  2  7  1  0  0  0  0
  3  8  1  0  0  0  0
  4  9  1  0  0  0  0
  4  3  1  0  0  0  0
  5  4  2  0  0  0  0
  6  5  1  0  0  0  0
  6  1  2  0  0  0  0
 10  5  1  0  0  0  0
 11 12  2  0  0  0  0
 11 16  1  0  0  0  0
 12 13  1  0  0  0  0
 13 19  1  0  0  0  0
 13 14  2  0  0  0  0
 15 14  1  0  0  0  0
 15  1  1  0  0  0  0
 16 15  2  0  0  0  0
 17 11  1  0  0  0  0
 18 12  1  0  0  0  0
 20  6  1  0  0  0  0
 21 20  1  0  0  0  0
 21 26  1  0  0  0  0
 22 21  2  0  0  0  0
 23 24  2  0  0  0  0
 23 22  1  0  0  0  0
 24 25  1  0  0  0  0
 25 20  2  0  0  0  0
 27 22  1  0  0  0  0
 28 36  1  0  0  0  0
 28 24  1  0  0  0  0
 29 28  1  0  0  0  0
 29 30  1  0  0  0  0
 31 32  1  0  0  0  0
 31 29  1  0  0  0  0
 33 31  1  0  0  0  0
 33 34  1  0  0  0  0
 34 36  1  0  0  0  0
 35 34  1  0  0  0  0
 36 37  1  0  0  0  0
M  END
>  <minimizedAffinity>
-5.39885998

>  <minimizedRMSD>
0.468671858

$$$$
