
 OpenBabel03212520053D

 42 46  0  0  0  0  0  0  0  0999 V2000
   40.7310   81.9090   57.0730 C   0  0  0  0  0  0  0  0  0  0  0  0
   41.8190   82.4850   56.3960 C   0  0  0  0  0  0  0  0  0  0  0  0
   42.6120   83.3720   57.1140 C   0  0  0  0  0  0  0  0  0  0  0  0
   42.3280   83.6490   58.4150 N   0  0  0  0  0  0  0  0  0  0  0  0
   41.2640   83.0650   59.0340 C   0  0  0  0  0  0  0  0  0  0  0  0
   40.4580   82.1920   58.3670 N   0  0  0  0  0  0  0  0  0  0  0  0
   40.0260   81.2070   56.6510 H   0  0  0  0  0  0  0  0  0  0  0  0
   41.8630   82.0930   55.4110 H   0  0  0  0  0  0  0  0  0  0  0  0
   39.6960   83.1170   60.9050 C   0  0  0  0  0  0  0  0  0  0  0  0
   40.9910   83.3430   60.4360 C   0  0  0  0  0  0  0  0  0  0  0  0
   42.0000   83.8050   61.2850 C   0  0  0  0  0  0  0  0  0  0  0  0
   41.7510   84.0520   62.6230 C   0  0  0  0  0  0  0  0  0  0  0  0
   42.4480   84.4800   63.6820 N   0  0  0  0  0  0  0  0  0  0  0  0
   41.6530   84.5290   64.7780 C   0  0  0  0  0  0  0  0  0  0  0  0
   40.4380   84.1120   64.3470 N   0  0  0  0  0  0  0  0  0  0  0  0
   40.4590   83.8130   63.0370 C   0  0  0  0  0  0  0  0  0  0  0  0
   39.4280   83.3610   62.2510 C   0  0  0  0  0  0  0  0  0  0  0  0
   38.9040   82.7660   60.2870 H   0  0  0  0  0  0  0  0  0  0  0  0
   43.0000   83.9770   60.9060 H   0  0  0  0  0  0  0  0  0  0  0  0
   43.4600   84.7200   63.5810 H   0  0  0  0  0  0  0  0  0  0  0  0
   41.9990   84.8440   65.7470 H   0  0  0  0  0  0  0  0  0  0  0  0
   38.4550   83.2000   62.6440 H   0  0  0  0  0  0  0  0  0  0  0  0
   42.6460   83.3180   54.1300 Cl  0  0  0  0  0  0  0  0  0  0  0  0
   43.9010   84.0550   55.1220 C   0  0  0  0  0  0  0  0  0  0  0  0
   43.7440   84.0070   56.4810 C   0  0  0  0  0  0  0  0  0  0  0  0
   44.7750   84.6200   57.1880 C   0  0  0  0  0  0  0  0  0  0  0  0
   45.8620   85.2250   56.6150 C   0  0  0  0  0  0  0  0  0  0  0  0
   45.9670   85.2400   55.2320 C   0  0  0  0  0  0  0  0  0  0  0  0
   47.3160   85.9560   54.4160 Cl  0  0  0  0  0  0  0  0  0  0  0  0
   44.9720   84.6480   54.4990 C   0  0  0  0  0  0  0  0  0  0  0  0
   44.7360   84.6330   58.2720 H   0  0  0  0  0  0  0  0  0  0  0  0
   46.6250   85.6810   57.2200 H   0  0  0  0  0  0  0  0  0  0  0  0
   45.0050   84.6220   53.0340 C   0  0  0  0  0  3  0  0  0  0  0  0
   44.0840   85.6290   52.3630 C   0  0  0  0  0  3  0  0  0  0  0  0
   43.0480   85.2480   52.3630 H   0  0  0  0  0  0  0  0  0  0  0  0
   44.6070   85.7090   50.9240 C   0  0  0  0  0  3  0  0  0  0  0  0
   45.5290   86.3210   50.9270 H   0  0  0  0  0  0  0  0  0  0  0  0
   44.7240   84.5050   50.2980 O   0  0  0  0  0  0  0  0  0  0  0  0
   45.4310   83.5200   50.9380 C   0  0  0  0  0  3  0  0  0  0  0  0
   46.5070   83.6780   51.0330 H   0  0  0  0  0  0  0  0  0  0  0  0
   44.7790   83.3430   52.3300 C   0  0  0  0  0  3  0  0  0  0  0  0
   43.6920   83.2690   52.0110 H   0  0  0  0  0  0  0  0  0  0  0  0
  1  6  1  0  0  0  0
  2  1  2  0  0  0  0
  2  3  1  0  0  0  0
  3  4  2  0  0  0  0
  4  5  1  0  0  0  0
  5 10  1  0  0  0  0
  6  5  2  0  0  0  0
  7  1  1  0  0  0  0
  8  2  1  0  0  0  0
  9 17  1  0  0  0  0
 10  9  2  0  0  0  0
 10 11  1  0  0  0  0
 11 12  2  0  0  0  0
 12 16  1  0  0  0  0
 12 13  1  0  0  0  0
 13 14  1  0  0  0  0
 14 21  1  0  0  0  0
 15 14  2  0  0  0  0
 16 15  1  0  0  0  0
 17 22  1  0  0  0  0
 17 16  2  0  0  0  0
 18  9  1  0  0  0  0
 19 11  1  0  0  0  0
 20 13  1  0  0  0  0
 23 24  1  0  0  0  0
 24 25  1  0  0  0  0
 25  3  1  0  0  0  0
 25 26  2  0  0  0  0
 26 31  1  0  0  0  0
 27 26  1  0  0  0  0
 27 32  1  0  0  0  0
 28 27  2  0  0  0  0
 29 28  1  0  0  0  0
 30 24  2  0  0  0  0
 30 28  1  0  0  0  0
 33 30  1  0  0  0  0
 34 33  1  0  0  0  0
 35 34  1  0  0  0  0
 36 37  1  0  0  0  0
 36 34  1  0  0  0  0
 38 36  1  0  0  0  0
 38 39  1  0  0  0  0
 39 40  1  0  0  0  0
 39 41  1  0  0  0  0
 41 33  1  0  0  0  0
 42 41  1  0  0  0  0
M  END
>  <minimizedAffinity>
-4.99107075

>  <minimizedRMSD>
0.513484657

$$$$
