
 OpenBabel03212521073D

 37 40  0  0  0  0  0  0  0  0999 V2000
   41.7950   84.1730   61.5640 C   0  0  0  0  0  0  0  0  0  0  0  0
   41.4220   83.9190   62.8880 C   0  0  0  0  0  0  0  0  0  0  0  0
   40.1190   83.5690   63.2150 C   0  0  0  0  0  0  0  0  0  0  0  0
   39.1660   83.4690   62.2150 C   0  0  0  0  0  0  0  0  0  0  0  0
   39.5390   83.7230   60.9040 C   0  0  0  0  0  0  0  0  0  0  0  0
   40.8360   84.0710   60.5690 C   0  0  0  0  0  0  0  0  0  0  0  0
   42.1940   84.0050   63.6480 H   0  0  0  0  0  0  0  0  0  0  0  0
   39.9550   83.3970   64.2710 H   0  0  0  0  0  0  0  0  0  0  0  0
   38.1730   83.2000   62.5010 H   0  0  0  0  0  0  0  0  0  0  0  0
   38.7410   83.6230   60.2010 H   0  0  0  0  0  0  0  0  0  0  0  0
   45.3010   83.9090   60.5960 C   0  0  0  0  0  0  0  0  0  0  0  0
   45.7610   85.2130   60.7130 C   0  0  0  0  0  0  0  0  0  0  0  0
   44.8480   86.2030   61.1320 C   0  0  0  0  0  0  0  0  0  0  0  0
   43.5690   85.8300   61.3990 N   0  0  0  0  0  0  0  0  0  0  0  0
   43.1600   84.5320   61.2710 C   0  0  0  0  0  0  0  0  0  0  0  0
   44.0260   83.6130   60.8770 N   0  0  0  0  0  0  0  0  0  0  0  0
   45.9370   83.0810   60.2790 H   0  0  0  0  0  0  0  0  0  0  0  0
   46.7870   85.4040   60.4780 H   0  0  0  0  0  0  0  0  0  0  0  0
   45.1980   87.2140   61.2240 H   0  0  0  0  0  0  0  0  0  0  0  0
   41.1680   84.3240   59.1830 C   0  0  0  0  0  0  0  0  0  0  0  0
   40.8830   85.6510   58.8240 C   0  0  0  0  0  0  0  0  0  0  0  0
   41.1350   86.0930   57.5230 C   0  0  0  0  0  0  0  0  0  0  0  0
   41.6460   85.2160   56.6590 N   0  0  0  0  0  0  0  0  0  0  0  0
   41.9190   83.9260   57.0210 C   0  0  0  0  0  0  0  0  0  0  0  0
   41.6830   83.4860   58.2710 N   0  0  0  0  0  0  0  0  0  0  0  0
   40.4680   86.4130   59.4760 H   0  0  0  0  0  0  0  0  0  0  0  0
   40.9300   87.1070   57.2020 H   0  0  0  0  0  0  0  0  0  0  0  0
   42.4830   83.0170   56.0120 C   0  0  0  0  0  3  0  0  0  0  0  0
   41.5320   81.9090   55.6890 C   0  0  0  0  0  3  0  0  0  0  0  0
   41.1880   81.4580   56.6550 H   0  0  0  0  0  0  0  0  0  0  0  0
   42.1770   80.8540   54.8490 C   0  0  0  0  0  3  0  0  0  0  0  0
   41.9920   79.8560   55.2880 H   0  0  0  0  0  0  0  0  0  0  0  0
   43.5140   81.0980   54.5860 O   0  0  0  0  0  0  0  0  0  0  0  0
   44.2670   81.2940   55.7410 C   0  0  0  0  0  3  0  0  0  0  0  0
   45.2940   81.5270   55.3880 H   0  0  0  0  0  0  0  0  0  0  0  0
   43.7740   82.4490   56.5590 C   0  0  0  0  0  3  0  0  0  0  0  0
   44.5220   83.2750   56.5850 H   0  0  0  0  0  0  0  0  0  0  0  0
  1  2  1  0  0  0  0
  2  3  2  0  0  0  0
  2  7  1  0  0  0  0
  3  8  1  0  0  0  0
  4  9  1  0  0  0  0
  4  3  1  0  0  0  0
  5  4  2  0  0  0  0
  6  5  1  0  0  0  0
  6  1  2  0  0  0  0
 10  5  1  0  0  0  0
 11 12  2  0  0  0  0
 11 16  1  0  0  0  0
 12 13  1  0  0  0  0
 13 19  1  0  0  0  0
 13 14  2  0  0  0  0
 15 14  1  0  0  0  0
 15  1  1  0  0  0  0
 16 15  2  0  0  0  0
 17 11  1  0  0  0  0
 18 12  1  0  0  0  0
 20  6  1  0  0  0  0
 21 20  1  0  0  0  0
 21 26  1  0  0  0  0
 22 21  2  0  0  0  0
 23 24  2  0  0  0  0
 23 22  1  0  0  0  0
 24 25  1  0  0  0  0
 25 20  2  0  0  0  0
 27 22  1  0  0  0  0
 28 36  1  0  0  0  0
 28 24  1  0  0  0  0
 29 28  1  0  0  0  0
 29 30  1  0  0  0  0
 31 32  1  0  0  0  0
 31 29  1  0  0  0  0
 33 31  1  0  0  0  0
 33 34  1  0  0  0  0
 34 36  1  0  0  0  0
 35 34  1  0  0  0  0
 36 37  1  0  0  0  0
M  END
>  <minimizedAffinity>
-5.45237303

>  <minimizedRMSD>
0.471632004

$$$$
