
 OpenBabel03212521073D

 37 40  0  0  0  0  0  0  0  0999 V2000
   41.8230   84.2160   61.5730 C   0  0  0  0  0  0  0  0  0  0  0  0
   41.4760   83.9370   62.8980 C   0  0  0  0  0  0  0  0  0  0  0  0
   40.1930   83.5280   63.2360 C   0  0  0  0  0  0  0  0  0  0  0  0
   39.2350   83.3930   62.2450 C   0  0  0  0  0  0  0  0  0  0  0  0
   39.5830   83.6710   60.9330 C   0  0  0  0  0  0  0  0  0  0  0  0
   40.8600   84.0780   60.5870 C   0  0  0  0  0  0  0  0  0  0  0  0
   42.2510   84.0530   63.6520 H   0  0  0  0  0  0  0  0  0  0  0  0
   40.0470   83.3430   64.2930 H   0  0  0  0  0  0  0  0  0  0  0  0
   38.2580   83.0780   62.5390 H   0  0  0  0  0  0  0  0  0  0  0  0
   38.7820   83.5400   60.2370 H   0  0  0  0  0  0  0  0  0  0  0  0
   45.3190   84.1190   60.5360 C   0  0  0  0  0  0  0  0  0  0  0  0
   45.7310   85.4350   60.6890 C   0  0  0  0  0  0  0  0  0  0  0  0
   44.7890   86.3750   61.1580 C   0  0  0  0  0  0  0  0  0  0  0  0
   43.5310   85.9440   61.4350 N   0  0  0  0  0  0  0  0  0  0  0  0
   43.1680   84.6360   61.2690 C   0  0  0  0  0  0  0  0  0  0  0  0
   44.0610   83.7650   60.8280 N   0  0  0  0  0  0  0  0  0  0  0  0
   45.9790   83.3270   60.1790 H   0  0  0  0  0  0  0  0  0  0  0  0
   46.7440   85.6730   60.4430 H   0  0  0  0  0  0  0  0  0  0  0  0
   45.1020   87.3940   61.2780 H   0  0  0  0  0  0  0  0  0  0  0  0
   41.1660   84.3540   59.1990 C   0  0  0  0  0  0  0  0  0  0  0  0
   40.8940   85.6920   58.8730 C   0  0  0  0  0  0  0  0  0  0  0  0
   41.1250   86.1560   57.5760 C   0  0  0  0  0  0  0  0  0  0  0  0
   41.6040   85.2890   56.6840 N   0  0  0  0  0  0  0  0  0  0  0  0
   41.8650   83.9880   57.0140 C   0  0  0  0  0  0  0  0  0  0  0  0
   41.6490   83.5260   58.2600 N   0  0  0  0  0  0  0  0  0  0  0  0
   40.5040   86.4460   59.5480 H   0  0  0  0  0  0  0  0  0  0  0  0
   40.9280   87.1800   57.2800 H   0  0  0  0  0  0  0  0  0  0  0  0
   42.3930   83.0910   55.9760 C   0  0  0  0  0  0  0  0  0  0  0  0
   42.5540   83.8070   54.6730 C   0  0  0  0  0  0  0  0  0  0  0  0
   41.5960   84.3430   54.4520 H   0  0  0  0  0  0  0  0  0  0  0  0
   42.8630   82.8600   53.5580 C   0  0  0  0  0  0  0  0  0  0  0  0
   42.1870   83.0500   52.7030 H   0  0  0  0  0  0  0  0  0  0  0  0
   42.8890   81.5330   53.9500 O   0  0  0  0  0  0  0  0  0  0  0  0
   41.7170   81.1320   54.5860 C   0  0  0  0  0  0  0  0  0  0  0  0
   41.8920   80.0790   54.8890 H   0  0  0  0  0  0  0  0  0  0  0  0
   41.4290   81.9370   55.8160 C   0  0  0  0  0  0  0  0  0  0  0  0
   41.4980   81.3100   56.7360 H   0  0  0  0  0  0  0  0  0  0  0  0
  1  2  1  0  0  0  0
  2  3  2  0  0  0  0
  2  7  1  0  0  0  0
  3  8  1  0  0  0  0
  4  9  1  0  0  0  0
  4  3  1  0  0  0  0
  5  4  2  0  0  0  0
  6  5  1  0  0  0  0
  6  1  2  0  0  0  0
 10  5  1  0  0  0  0
 11 12  2  0  0  0  0
 11 16  1  0  0  0  0
 12 13  1  0  0  0  0
 13 19  1  0  0  0  0
 13 14  2  0  0  0  0
 15 14  1  0  0  0  0
 15  1  1  0  0  0  0
 16 15  2  0  0  0  0
 17 11  1  0  0  0  0
 18 12  1  0  0  0  0
 20  6  1  0  0  0  0
 21 20  1  0  0  0  0
 21 26  1  0  0  0  0
 22 21  2  0  0  0  0
 23 24  2  0  0  0  0
 23 22  1  0  0  0  0
 24 25  1  0  0  0  0
 25 20  2  0  0  0  0
 27 22  1  0  0  0  0
 28 24  1  0  0  0  0
 29 28  1  0  0  0  0
 30 29  1  0  0  0  0
 31 33  1  0  0  0  0
 31 29  1  0  0  0  0
 32 31  1  0  0  0  0
 33 34  1  0  0  0  0
 34 35  1  0  0  0  0
 34 36  1  0  0  0  0
 36 28  1  0  0  0  0
 36 37  1  0  0  0  0
M  END
>  <minimizedAffinity>
-5.71622086

>  <minimizedRMSD>
0.444609642

$$$$
