
 OpenBabel03212521073D

 37 40  0  0  0  0  0  0  0  0999 V2000
   41.7960   84.1710   61.5550 C   0  0  0  0  0  0  0  0  0  0  0  0
   41.4310   83.8940   62.8760 C   0  0  0  0  0  0  0  0  0  0  0  0
   40.1290   83.5390   63.2040 C   0  0  0  0  0  0  0  0  0  0  0  0
   39.1700   83.4560   62.2070 C   0  0  0  0  0  0  0  0  0  0  0  0
   39.5370   83.7320   60.8990 C   0  0  0  0  0  0  0  0  0  0  0  0
   40.8330   84.0860   60.5630 C   0  0  0  0  0  0  0  0  0  0  0  0
   42.2060   83.9680   63.6340 H   0  0  0  0  0  0  0  0  0  0  0  0
   39.9700   83.3490   64.2580 H   0  0  0  0  0  0  0  0  0  0  0  0
   38.1790   83.1810   62.4930 H   0  0  0  0  0  0  0  0  0  0  0  0
   38.7350   83.6440   60.1980 H   0  0  0  0  0  0  0  0  0  0  0  0
   45.3010   83.9210   60.5760 C   0  0  0  0  0  0  0  0  0  0  0  0
   45.7580   85.2250   60.7010 C   0  0  0  0  0  0  0  0  0  0  0  0
   44.8440   86.2100   61.1300 C   0  0  0  0  0  0  0  0  0  0  0  0
   43.5670   85.8330   61.3970 N   0  0  0  0  0  0  0  0  0  0  0  0
   43.1600   84.5340   61.2610 C   0  0  0  0  0  0  0  0  0  0  0  0
   44.0270   83.6200   60.8580 N   0  0  0  0  0  0  0  0  0  0  0  0
   45.9370   83.0960   60.2520 H   0  0  0  0  0  0  0  0  0  0  0  0
   46.7830   85.4200   60.4650 H   0  0  0  0  0  0  0  0  0  0  0  0
   45.1920   87.2210   61.2270 H   0  0  0  0  0  0  0  0  0  0  0  0
   41.1580   84.3630   59.1800 C   0  0  0  0  0  0  0  0  0  0  0  0
   40.8540   85.6900   58.8400 C   0  0  0  0  0  0  0  0  0  0  0  0
   41.0960   86.1530   57.5440 C   0  0  0  0  0  0  0  0  0  0  0  0
   41.6170   85.2950   56.6670 N   0  0  0  0  0  0  0  0  0  0  0  0
   41.9080   84.0040   57.0110 C   0  0  0  0  0  0  0  0  0  0  0  0
   41.6810   83.5430   58.2550 N   0  0  0  0  0  0  0  0  0  0  0  0
   40.4300   86.4370   59.5030 H   0  0  0  0  0  0  0  0  0  0  0  0
   40.8770   87.1690   57.2380 H   0  0  0  0  0  0  0  0  0  0  0  0
   42.4810   83.1160   55.9880 C   0  0  0  0  0  3  0  0  0  0  0  0
   43.7920   82.5520   56.4330 C   0  0  0  0  0  3  0  0  0  0  0  0
   44.4270   83.4010   56.7930 H   0  0  0  0  0  0  0  0  0  0  0  0
   44.4940   81.8420   55.3210 C   0  0  0  0  0  3  0  0  0  0  0  0
   45.5400   82.1940   55.2480 H   0  0  0  0  0  0  0  0  0  0  0  0
   43.8130   81.8930   54.1160 O   0  0  0  0  0  0  0  0  0  0  0  0
   43.5130   83.1920   53.7180 C   0  0  0  0  0  3  0  0  0  0  0  0
   42.9310   83.0850   52.7780 H   0  0  0  0  0  0  0  0  0  0  0  0
   42.6650   83.9180   54.7190 C   0  0  0  0  0  3  0  0  0  0  0  0
   41.6520   84.1390   54.3070 H   0  0  0  0  0  0  0  0  0  0  0  0
  1  2  1  0  0  0  0
  2  3  2  0  0  0  0
  2  7  1  0  0  0  0
  3  8  1  0  0  0  0
  4  9  1  0  0  0  0
  4  3  1  0  0  0  0
  5  4  2  0  0  0  0
  6  5  1  0  0  0  0
  6  1  2  0  0  0  0
 10  5  1  0  0  0  0
 11 12  2  0  0  0  0
 11 16  1  0  0  0  0
 12 13  1  0  0  0  0
 13 19  1  0  0  0  0
 13 14  2  0  0  0  0
 15 14  1  0  0  0  0
 15  1  1  0  0  0  0
 16 15  2  0  0  0  0
 17 11  1  0  0  0  0
 18 12  1  0  0  0  0
 20  6  1  0  0  0  0
 21 20  1  0  0  0  0
 21 26  1  0  0  0  0
 22 21  2  0  0  0  0
 23 24  2  0  0  0  0
 23 22  1  0  0  0  0
 24 25  1  0  0  0  0
 25 20  2  0  0  0  0
 27 22  1  0  0  0  0
 28 29  1  0  0  0  0
 28 24  1  0  0  0  0
 29 30  1  0  0  0  0
 31 29  1  0  0  0  0
 32 31  1  0  0  0  0
 33 31  1  0  0  0  0
 34 33  1  0  0  0  0
 34 36  1  0  0  0  0
 35 34  1  0  0  0  0
 36 28  1  0  0  0  0
 37 36  1  0  0  0  0
M  END
>  <minimizedAffinity>
-5.42947435

>  <minimizedRMSD>
0.641497672

$$$$
