
 OpenBabel03212520323D

 42 45  0  0  0  0  0  0  0  0999 V2000
   42.4250   82.7570   61.5310 C   0  0  0  0  0  0  0  0  0  0  0  0
   42.6950   81.5570   60.9010 C   0  0  0  0  0  0  0  0  0  0  0  0
   43.7450   80.7650   61.3180 C   0  0  0  0  0  0  0  0  0  0  0  0
   44.5830   81.1200   62.3780 C   0  0  0  0  0  0  0  0  0  0  0  0
   44.3320   82.3060   63.0170 C   0  0  0  0  0  0  0  0  0  0  0  0
   43.2740   83.0970   62.5940 C   0  0  0  0  0  0  0  0  0  0  0  0
   43.9820   79.8100   60.8360 H   0  0  0  0  0  0  0  0  0  0  0  0
   45.4010   80.4910   62.6930 H   0  0  0  0  0  0  0  0  0  0  0  0
   44.9250   82.6670   63.8500 H   0  0  0  0  0  0  0  0  0  0  0  0
   43.0640   84.0450   63.0940 H   0  0  0  0  0  0  0  0  0  0  0  0
   40.1250   79.7710   58.9340 C   0  0  0  0  0  0  0  0  0  0  0  0
   40.3770   80.2450   57.6470 C   0  0  0  0  0  0  0  0  0  0  0  0
   41.4340   81.1680   57.4870 C   0  0  0  0  0  0  0  0  0  0  0  0
   42.1170   81.5160   58.6050 N   0  0  0  0  0  0  0  0  0  0  0  0
   41.8700   81.0640   59.8120 C   0  0  0  0  0  0  0  0  0  0  0  0
   40.8640   80.1840   59.9720 N   0  0  0  0  0  0  0  0  0  0  0  0
   39.3330   79.0630   59.1330 H   0  0  0  0  0  0  0  0  0  0  0  0
   41.6550   81.5560   56.4930 H   0  0  0  0  0  0  0  0  0  0  0  0
   39.5920   79.8090   56.5470 N   0  0  0  0  0  0  0  0  0  0  0  0
   38.4790   80.5240   56.3570 C   0  0  0  0  0  0  0  0  0  0  0  0
   37.6390   80.1770   55.3020 C   0  0  0  0  0  0  0  0  0  0  0  0
   37.9810   79.1090   54.4920 C   0  0  0  0  0  0  0  0  0  0  0  0
   37.3010   78.7020   53.5110 O   0  0  0  0  0  0  0  0  0  0  0  0
   39.1330   78.4240   54.7470 N   0  0  0  0  0  0  0  0  0  0  0  0
   39.9520   78.7700   55.7800 C   0  0  0  0  0  0  0  0  0  0  0  0
   41.0060   78.1530   56.0230 O   0  0  0  0  0  0  0  0  0  0  0  0
   38.1740   81.3560   56.9570 H   0  0  0  0  0  0  0  0  0  0  0  0
   36.7330   80.7000   55.0880 H   0  0  0  0  0  0  0  0  0  0  0  0
   39.4710   77.6130   54.1950 H   0  0  0  0  0  0  0  0  0  0  0  0
   41.1410   83.7880   61.0280 S   0  0  0  0  0  0  0  0  0  0  0  0
   40.5680   84.4990   62.2410 O   0  0  0  0  0  0  0  0  0  0  0  0
   39.9600   82.8860   60.6700 O   0  0  0  0  0  0  0  0  0  0  0  0
   41.4350   85.0390   59.8890 C   0  0  0  0  0  3  0  0  0  0  0  0
   40.6930   84.6480   58.5860 C   0  0  0  0  0  3  0  0  0  0  0  0
   40.7630   83.5430   58.4630 H   0  0  0  0  0  0  0  0  0  0  0  0
   41.3190   85.2810   57.3840 C   0  0  0  0  0  3  0  0  0  0  0  0
   41.9530   84.5630   56.8250 H   0  0  0  0  0  0  0  0  0  0  0  0
   41.9920   86.4370   57.7700 O   0  0  0  0  0  0  0  0  0  0  0  0
   43.1620   86.1090   58.4510 C   0  0  0  0  0  3  0  0  0  0  0  0
   43.9200   85.7540   57.7020 H   0  0  0  0  0  0  0  0  0  0  0  0
   42.9130   85.0030   59.4190 C   0  0  0  0  0  3  0  0  0  0  0  0
   43.5750   85.0550   60.2990 H   0  0  0  0  0  0  0  0  0  0  0  0
  1  6  1  0  0  0  0
  2  3  1  0  0  0  0
  2  1  2  0  0  0  0
  3  4  2  0  0  0  0
  4  8  1  0  0  0  0
  4  5  1  0  0  0  0
  5  9  1  0  0  0  0
  6  5  2  0  0  0  0
  6 10  1  0  0  0  0
  7  3  1  0  0  0  0
 11 17  1  0  0  0  0
 11 16  1  0  0  0  0
 12 11  2  0  0  0  0
 13 12  1  0  0  0  0
 13 14  2  0  0  0  0
 14 15  1  0  0  0  0
 15 16  2  0  0  0  0
 15  2  1  0  0  0  0
 18 13  1  0  0  0  0
 19 12  1  0  0  0  0
 20 19  1  0  0  0  0
 20 27  1  0  0  0  0
 21 20  2  0  0  0  0
 22 24  1  0  0  0  0
 22 21  1  0  0  0  0
 23 22  2  0  0  0  0
 24 25  1  0  0  0  0
 25 26  2  0  0  0  0
 25 19  1  0  0  0  0
 28 21  1  0  0  0  0
 29 24  1  0  0  0  0
 30  1  1  0  0  0  0
 30 31  2  0  0  0  0
 32 30  2  0  0  0  0
 33 30  1  0  0  0  0
 34 33  1  0  0  0  0
 35 34  1  0  0  0  0
 36 38  1  0  0  0  0
 36 34  1  0  0  0  0
 37 36  1  0  0  0  0
 38 39  1  0  0  0  0
 39 41  1  0  0  0  0
 40 39  1  0  0  0  0
 41 33  1  0  0  0  0
 41 42  1  0  0  0  0
M  END
>  <minimizedAffinity>
-5.75780392

>  <minimizedRMSD>
1.84837055

$$$$
