
 OpenBabel03212521073D

 37 40  0  0  0  0  0  0  0  0999 V2000
   41.7980   84.1560   61.5600 C   0  0  0  0  0  0  0  0  0  0  0  0
   41.4340   83.8830   62.8820 C   0  0  0  0  0  0  0  0  0  0  0  0
   40.1300   83.5380   63.2140 C   0  0  0  0  0  0  0  0  0  0  0  0
   39.1680   83.4620   62.2190 C   0  0  0  0  0  0  0  0  0  0  0  0
   39.5340   83.7350   60.9110 C   0  0  0  0  0  0  0  0  0  0  0  0
   40.8310   84.0790   60.5710 C   0  0  0  0  0  0  0  0  0  0  0  0
   42.2120   83.9510   63.6370 H   0  0  0  0  0  0  0  0  0  0  0  0
   39.9730   83.3500   64.2680 H   0  0  0  0  0  0  0  0  0  0  0  0
   38.1760   83.1950   62.5090 H   0  0  0  0  0  0  0  0  0  0  0  0
   38.7290   83.6520   60.2120 H   0  0  0  0  0  0  0  0  0  0  0  0
   45.2910   83.8840   60.5470 C   0  0  0  0  0  0  0  0  0  0  0  0
   45.7650   85.1800   60.6940 C   0  0  0  0  0  0  0  0  0  0  0  0
   44.8670   86.1670   61.1500 C   0  0  0  0  0  0  0  0  0  0  0  0
   43.5870   85.7990   61.4210 N   0  0  0  0  0  0  0  0  0  0  0  0
   43.1630   84.5090   61.2620 C   0  0  0  0  0  0  0  0  0  0  0  0
   44.0160   83.5930   60.8330 N   0  0  0  0  0  0  0  0  0  0  0  0
   45.9140   83.0590   60.2000 H   0  0  0  0  0  0  0  0  0  0  0  0
   46.7900   85.3670   60.4530 H   0  0  0  0  0  0  0  0  0  0  0  0
   45.2280   87.1710   61.2660 H   0  0  0  0  0  0  0  0  0  0  0  0
   41.1540   84.3520   59.1860 C   0  0  0  0  0  0  0  0  0  0  0  0
   40.9200   85.6980   58.8640 C   0  0  0  0  0  0  0  0  0  0  0  0
   41.1720   86.1610   57.5710 C   0  0  0  0  0  0  0  0  0  0  0  0
   41.6330   85.2860   56.6780 N   0  0  0  0  0  0  0  0  0  0  0  0
   41.8570   83.9770   57.0040 C   0  0  0  0  0  0  0  0  0  0  0  0
   41.6200   83.5150   58.2470 N   0  0  0  0  0  0  0  0  0  0  0  0
   40.5460   86.4600   59.5400 H   0  0  0  0  0  0  0  0  0  0  0  0
   41.0050   87.1910   57.2780 H   0  0  0  0  0  0  0  0  0  0  0  0
   42.3680   83.0700   55.9660 C   0  0  0  0  0  3  0  0  0  0  0  0
   42.5040   83.7720   54.6530 C   0  0  0  0  0  3  0  0  0  0  0  0
   41.5420   84.3040   54.4450 H   0  0  0  0  0  0  0  0  0  0  0  0
   42.7950   82.8150   53.5420 C   0  0  0  0  0  3  0  0  0  0  0  0
   42.1020   82.9950   52.6970 H   0  0  0  0  0  0  0  0  0  0  0  0
   42.8300   81.4920   53.9470 O   0  0  0  0  0  0  0  0  0  0  0  0
   41.6700   81.0950   54.6090 C   0  0  0  0  0  3  0  0  0  0  0  0
   41.8520   80.0450   54.9200 H   0  0  0  0  0  0  0  0  0  0  0  0
   41.4020   81.9120   55.8360 C   0  0  0  0  0  3  0  0  0  0  0  0
   41.4900   81.2950   56.7610 H   0  0  0  0  0  0  0  0  0  0  0  0
  1  2  1  0  0  0  0
  2  3  2  0  0  0  0
  2  7  1  0  0  0  0
  3  8  1  0  0  0  0
  4  9  1  0  0  0  0
  4  3  1  0  0  0  0
  5  4  2  0  0  0  0
  6  5  1  0  0  0  0
  6  1  2  0  0  0  0
 10  5  1  0  0  0  0
 11 12  2  0  0  0  0
 11 16  1  0  0  0  0
 12 13  1  0  0  0  0
 13 19  1  0  0  0  0
 13 14  2  0  0  0  0
 15 14  1  0  0  0  0
 15  1  1  0  0  0  0
 16 15  2  0  0  0  0
 17 11  1  0  0  0  0
 18 12  1  0  0  0  0
 20  6  1  0  0  0  0
 21 20  1  0  0  0  0
 21 26  1  0  0  0  0
 22 21  2  0  0  0  0
 23 24  2  0  0  0  0
 23 22  1  0  0  0  0
 24 25  1  0  0  0  0
 25 20  2  0  0  0  0
 27 22  1  0  0  0  0
 28 24  1  0  0  0  0
 29 28  1  0  0  0  0
 30 29  1  0  0  0  0
 31 33  1  0  0  0  0
 31 29  1  0  0  0  0
 32 31  1  0  0  0  0
 33 34  1  0  0  0  0
 34 35  1  0  0  0  0
 34 36  1  0  0  0  0
 36 28  1  0  0  0  0
 36 37  1  0  0  0  0
M  END
>  <minimizedAffinity>
-5.69717932

>  <minimizedRMSD>
0.684294701

$$$$
