
 OpenBabel03212520323D

 42 45  0  0  0  0  0  0  0  0999 V2000
   42.3170   82.0580   62.2510 C   0  0  0  0  0  0  0  0  0  0  0  0
   42.9580   80.9240   61.7900 C   0  0  0  0  0  0  0  0  0  0  0  0
   44.2810   80.6880   62.1010 C   0  0  0  0  0  0  0  0  0  0  0  0
   45.0390   81.5620   62.8860 C   0  0  0  0  0  0  0  0  0  0  0  0
   44.4220   82.6920   63.3550 C   0  0  0  0  0  0  0  0  0  0  0  0
   43.0910   82.9230   63.0380 C   0  0  0  0  0  0  0  0  0  0  0  0
   44.8140   79.7980   61.7480 H   0  0  0  0  0  0  0  0  0  0  0  0
   46.0730   81.3650   63.1210 H   0  0  0  0  0  0  0  0  0  0  0  0
   44.9250   83.4290   63.9700 H   0  0  0  0  0  0  0  0  0  0  0  0
   42.5880   83.8210   63.4050 H   0  0  0  0  0  0  0  0  0  0  0  0
   41.1150   77.8990   60.7330 C   0  0  0  0  0  0  0  0  0  0  0  0
   40.9460   78.1360   59.3690 C   0  0  0  0  0  0  0  0  0  0  0  0
   41.4790   79.3340   58.8430 C   0  0  0  0  0  0  0  0  0  0  0  0
   42.1120   80.1560   59.7160 N   0  0  0  0  0  0  0  0  0  0  0  0
   42.2640   79.9230   60.9980 C   0  0  0  0  0  0  0  0  0  0  0  0
   41.7580   78.7840   61.5050 N   0  0  0  0  0  0  0  0  0  0  0  0
   40.7350   77.0050   61.2050 H   0  0  0  0  0  0  0  0  0  0  0  0
   41.3630   79.5460   57.7810 H   0  0  0  0  0  0  0  0  0  0  0  0
   40.2610   77.1990   58.5500 N   0  0  0  0  0  0  0  0  0  0  0  0
   38.9380   77.3760   58.5120 C   0  0  0  0  0  0  0  0  0  0  0  0
   38.1740   76.5080   57.7360 C   0  0  0  0  0  0  0  0  0  0  0  0
   38.8060   75.4970   57.0360 C   0  0  0  0  0  0  0  0  0  0  0  0
   38.2220   74.6530   56.3030 O   0  0  0  0  0  0  0  0  0  0  0  0
   40.1620   75.3770   57.1220 N   0  0  0  0  0  0  0  0  0  0  0  0
   40.9050   76.2300   57.8830 C   0  0  0  0  0  0  0  0  0  0  0  0
   42.1430   76.1300   57.9700 O   0  0  0  0  0  0  0  0  0  0  0  0
   38.4060   78.1420   59.0370 H   0  0  0  0  0  0  0  0  0  0  0  0
   37.1110   76.5870   57.6570 H   0  0  0  0  0  0  0  0  0  0  0  0
   40.7220   74.6520   56.6340 H   0  0  0  0  0  0  0  0  0  0  0  0
   40.6760   82.4050   61.8660 S   0  0  0  0  0  0  0  0  0  0  0  0
   40.0690   83.2440   62.9770 O   0  0  0  0  0  0  0  0  0  0  0  0
   39.8900   81.1080   62.0570 O   0  0  0  0  0  0  0  0  0  0  0  0
   40.2880   83.2500   60.4220 C   0  0  0  0  0  3  0  0  0  0  0  0
   41.6220   83.7700   59.8290 C   0  0  0  0  0  3  0  0  0  0  0  0
   42.2850   84.0700   60.6750 H   0  0  0  0  0  0  0  0  0  0  0  0
   41.4110   84.9720   58.9650 C   0  0  0  0  0  3  0  0  0  0  0  0
   41.6840   85.9090   59.4930 H   0  0  0  0  0  0  0  0  0  0  0  0
   40.1070   84.9640   58.4780 O   0  0  0  0  0  0  0  0  0  0  0  0
   39.2110   85.2910   59.4920 C   0  0  0  0  0  3  0  0  0  0  0  0
   39.2780   86.3960   59.6820 H   0  0  0  0  0  0  0  0  0  0  0  0
   39.5650   84.5810   60.7530 C   0  0  0  0  0  3  0  0  0  0  0  0
   38.6820   84.3690   61.3800 H   0  0  0  0  0  0  0  0  0  0  0  0
  1  6  1  0  0  0  0
  2  3  1  0  0  0  0
  2  1  2  0  0  0  0
  3  4  2  0  0  0  0
  4  8  1  0  0  0  0
  4  5  1  0  0  0  0
  5  9  1  0  0  0  0
  6  5  2  0  0  0  0
  6 10  1  0  0  0  0
  7  3  1  0  0  0  0
 11 17  1  0  0  0  0
 11 16  1  0  0  0  0
 12 11  2  0  0  0  0
 13 12  1  0  0  0  0
 13 14  2  0  0  0  0
 14 15  1  0  0  0  0
 15 16  2  0  0  0  0
 15  2  1  0  0  0  0
 18 13  1  0  0  0  0
 19 12  1  0  0  0  0
 20 19  1  0  0  0  0
 20 27  1  0  0  0  0
 21 20  2  0  0  0  0
 22 24  1  0  0  0  0
 22 21  1  0  0  0  0
 23 22  2  0  0  0  0
 24 25  1  0  0  0  0
 25 26  2  0  0  0  0
 25 19  1  0  0  0  0
 28 21  1  0  0  0  0
 29 24  1  0  0  0  0
 30 32  2  0  0  0  0
 30  1  1  0  0  0  0
 30 31  2  0  0  0  0
 33 41  1  0  0  0  0
 33 30  1  0  0  0  0
 34 33  1  0  0  0  0
 34 35  1  0  0  0  0
 36 37  1  0  0  0  0
 36 34  1  0  0  0  0
 38 36  1  0  0  0  0
 38 39  1  0  0  0  0
 39 40  1  0  0  0  0
 39 41  1  0  0  0  0
 41 42  1  0  0  0  0
M  END
>  <minimizedAffinity>
-6.38312721

>  <minimizedRMSD>
2.94023299

$$$$
