
 OpenBabel03212520053D

 42 46  0  0  0  0  0  0  0  0999 V2000
   40.5270   81.6620   57.1640 C   0  0  0  0  0  0  0  0  0  0  0  0
   41.7060   82.0210   56.4890 C   0  0  0  0  0  0  0  0  0  0  0  0
   42.6260   82.7920   57.1900 C   0  0  0  0  0  0  0  0  0  0  0  0
   42.3740   83.1660   58.4730 N   0  0  0  0  0  0  0  0  0  0  0  0
   41.2180   82.7930   59.0910 C   0  0  0  0  0  0  0  0  0  0  0  0
   40.2870   82.0400   58.4400 N   0  0  0  0  0  0  0  0  0  0  0  0
   39.7210   81.0720   56.7540 H   0  0  0  0  0  0  0  0  0  0  0  0
   41.6990   81.5870   55.5210 H   0  0  0  0  0  0  0  0  0  0  0  0
   39.6690   83.0680   60.9590 C   0  0  0  0  0  0  0  0  0  0  0  0
   40.9740   83.1700   60.4750 C   0  0  0  0  0  0  0  0  0  0  0  0
   42.0200   83.6040   61.2940 C   0  0  0  0  0  0  0  0  0  0  0  0
   41.7980   83.9450   62.6170 C   0  0  0  0  0  0  0  0  0  0  0  0
   42.5310   84.3790   63.6480 N   0  0  0  0  0  0  0  0  0  0  0  0
   41.7480   84.5490   64.7410 C   0  0  0  0  0  0  0  0  0  0  0  0
   40.5030   84.2000   64.3360 N   0  0  0  0  0  0  0  0  0  0  0  0
   40.4940   83.8260   63.0460 C   0  0  0  0  0  0  0  0  0  0  0  0
   39.4280   83.4080   62.2890 C   0  0  0  0  0  0  0  0  0  0  0  0
   38.8500   82.7420   60.3630 H   0  0  0  0  0  0  0  0  0  0  0  0
   43.0270   83.6790   60.9040 H   0  0  0  0  0  0  0  0  0  0  0  0
   43.5570   84.5370   63.5320 H   0  0  0  0  0  0  0  0  0  0  0  0
   42.1230   84.8930   65.6890 H   0  0  0  0  0  0  0  0  0  0  0  0
   38.4480   83.3420   62.6920 H   0  0  0  0  0  0  0  0  0  0  0  0
   42.4660   83.3860   54.2690 Cl  0  0  0  0  0  0  0  0  0  0  0  0
   43.9410   83.5000   55.2240 C   0  0  0  0  0  0  0  0  0  0  0  0
   43.8580   83.2030   56.5570 C   0  0  0  0  0  0  0  0  0  0  0  0
   45.0650   83.3280   57.2380 C   0  0  0  0  0  0  0  0  0  0  0  0
   46.2490   83.7110   56.6640 C   0  0  0  0  0  0  0  0  0  0  0  0
   46.2720   83.9980   55.3070 C   0  0  0  0  0  0  0  0  0  0  0  0
   47.7230   84.4620   54.4850 Cl  0  0  0  0  0  0  0  0  0  0  0  0
   45.1030   83.8870   54.6010 C   0  0  0  0  0  0  0  0  0  0  0  0
   45.0970   83.1140   58.3010 H   0  0  0  0  0  0  0  0  0  0  0  0
   47.1480   83.7880   57.2480 H   0  0  0  0  0  0  0  0  0  0  0  0
   45.0400   84.1740   53.1650 C   0  0  0  0  0  3  0  0  0  0  0  0
   44.2430   85.4190   52.8040 C   0  0  0  0  0  3  0  0  0  0  0  0
   43.1630   85.1920   52.8220 H   0  0  0  0  0  0  0  0  0  0  0  0
   44.6810   85.7350   51.3690 C   0  0  0  0  0  3  0  0  0  0  0  0
   45.6850   86.2010   51.4100 H   0  0  0  0  0  0  0  0  0  0  0  0
   44.5720   84.6910   50.5020 O   0  0  0  0  0  0  0  0  0  0  0  0
   45.1580   83.5040   50.8570 C   0  0  0  0  0  3  0  0  0  0  0  0
   46.2500   83.4880   50.8820 H   0  0  0  0  0  0  0  0  0  0  0  0
   44.5750   83.1210   52.2380 C   0  0  0  0  0  3  0  0  0  0  0  0
   43.4730   83.2670   52.0150 H   0  0  0  0  0  0  0  0  0  0  0  0
  1  6  1  0  0  0  0
  2  1  2  0  0  0  0
  2  3  1  0  0  0  0
  3  4  2  0  0  0  0
  4  5  1  0  0  0  0
  5 10  1  0  0  0  0
  6  5  2  0  0  0  0
  7  1  1  0  0  0  0
  8  2  1  0  0  0  0
  9 17  1  0  0  0  0
 10  9  2  0  0  0  0
 10 11  1  0  0  0  0
 11 12  2  0  0  0  0
 12 16  1  0  0  0  0
 12 13  1  0  0  0  0
 13 14  1  0  0  0  0
 14 21  1  0  0  0  0
 15 14  2  0  0  0  0
 16 15  1  0  0  0  0
 17 22  1  0  0  0  0
 17 16  2  0  0  0  0
 18  9  1  0  0  0  0
 19 11  1  0  0  0  0
 20 13  1  0  0  0  0
 23 24  1  0  0  0  0
 24 25  1  0  0  0  0
 25  3  1  0  0  0  0
 25 26  2  0  0  0  0
 26 31  1  0  0  0  0
 27 26  1  0  0  0  0
 27 32  1  0  0  0  0
 28 27  2  0  0  0  0
 29 28  1  0  0  0  0
 30 24  2  0  0  0  0
 30 28  1  0  0  0  0
 33 30  1  0  0  0  0
 34 35  1  0  0  0  0
 34 33  1  0  0  0  0
 36 37  1  0  0  0  0
 36 34  1  0  0  0  0
 38 39  1  0  0  0  0
 38 36  1  0  0  0  0
 39 40  1  0  0  0  0
 39 41  1  0  0  0  0
 41 33  1  0  0  0  0
 42 41  1  0  0  0  0
M  END
>  <minimizedAffinity>
-4.79108143

>  <minimizedRMSD>
0.658623874

$$$$
