
 OpenBabel03212521073D

 37 40  0  0  0  0  0  0  0  0999 V2000
   41.8090   84.2390   61.5620 C   0  0  0  0  0  0  0  0  0  0  0  0
   41.4460   83.9460   62.8800 C   0  0  0  0  0  0  0  0  0  0  0  0
   40.1580   83.5360   63.1980 C   0  0  0  0  0  0  0  0  0  0  0  0
   39.2110   83.4150   62.1940 C   0  0  0  0  0  0  0  0  0  0  0  0
   39.5750   83.7080   60.8900 C   0  0  0  0  0  0  0  0  0  0  0  0
   40.8570   84.1160   60.5630 C   0  0  0  0  0  0  0  0  0  0  0  0
   42.2120   84.0500   63.6430 H   0  0  0  0  0  0  0  0  0  0  0  0
   39.9990   83.3390   64.2510 H   0  0  0  0  0  0  0  0  0  0  0  0
   38.2300   83.0990   62.4740 H   0  0  0  0  0  0  0  0  0  0  0  0
   38.7820   83.5870   60.1830 H   0  0  0  0  0  0  0  0  0  0  0  0
   45.3410   84.1280   60.6570 C   0  0  0  0  0  0  0  0  0  0  0  0
   45.7300   85.4580   60.7370 C   0  0  0  0  0  0  0  0  0  0  0  0
   44.7600   86.4110   61.1110 C   0  0  0  0  0  0  0  0  0  0  0  0
   43.4980   85.9810   61.3700 N   0  0  0  0  0  0  0  0  0  0  0  0
   43.1580   84.6590   61.2780 C   0  0  0  0  0  0  0  0  0  0  0  0
   44.0780   83.7750   60.9270 N   0  0  0  0  0  0  0  0  0  0  0  0
   46.0230   83.3250   60.3760 H   0  0  0  0  0  0  0  0  0  0  0  0
   46.7480   85.6950   60.5120 H   0  0  0  0  0  0  0  0  0  0  0  0
   45.0550   87.4410   61.1740 H   0  0  0  0  0  0  0  0  0  0  0  0
   41.1800   84.4070   59.1820 C   0  0  0  0  0  0  0  0  0  0  0  0
   40.7170   85.6780   58.8080 C   0  0  0  0  0  0  0  0  0  0  0  0
   40.9320   86.1450   57.5090 C   0  0  0  0  0  0  0  0  0  0  0  0
   41.5810   85.3470   56.6630 N   0  0  0  0  0  0  0  0  0  0  0  0
   42.0270   84.1100   57.0400 C   0  0  0  0  0  0  0  0  0  0  0  0
   41.8290   83.6460   58.2880 N   0  0  0  0  0  0  0  0  0  0  0  0
   40.1830   86.3760   59.4450 H   0  0  0  0  0  0  0  0  0  0  0  0
   40.5910   87.1190   57.1770 H   0  0  0  0  0  0  0  0  0  0  0  0
   42.7370   83.2860   56.0500 C   0  0  0  0  0  3  0  0  0  0  0  0
   44.1570   83.0540   56.4560 C   0  0  0  0  0  3  0  0  0  0  0  0
   44.6070   84.0460   56.7180 H   0  0  0  0  0  0  0  0  0  0  0  0
   44.9490   82.4230   55.3570 C   0  0  0  0  0  3  0  0  0  0  0  0
   45.8890   82.9850   55.1980 H   0  0  0  0  0  0  0  0  0  0  0  0
   44.2240   82.2290   54.1930 O   0  0  0  0  0  0  0  0  0  0  0  0
   43.6290   83.3970   53.7230 C   0  0  0  0  0  3  0  0  0  0  0  0
   43.0460   83.0910   52.8290 H   0  0  0  0  0  0  0  0  0  0  0  0
   42.6880   84.0020   54.7190 C   0  0  0  0  0  3  0  0  0  0  0  0
   41.6350   83.9670   54.3540 H   0  0  0  0  0  0  0  0  0  0  0  0
  1  2  1  0  0  0  0
  2  3  2  0  0  0  0
  2  7  1  0  0  0  0
  3  8  1  0  0  0  0
  4  9  1  0  0  0  0
  4  3  1  0  0  0  0
  5  4  2  0  0  0  0
  6  5  1  0  0  0  0
  6  1  2  0  0  0  0
 10  5  1  0  0  0  0
 11 12  2  0  0  0  0
 11 16  1  0  0  0  0
 12 13  1  0  0  0  0
 13 19  1  0  0  0  0
 13 14  2  0  0  0  0
 15 14  1  0  0  0  0
 15  1  1  0  0  0  0
 16 15  2  0  0  0  0
 17 11  1  0  0  0  0
 18 12  1  0  0  0  0
 20  6  1  0  0  0  0
 21 20  1  0  0  0  0
 21 26  1  0  0  0  0
 22 21  2  0  0  0  0
 23 24  2  0  0  0  0
 23 22  1  0  0  0  0
 24 25  1  0  0  0  0
 25 20  2  0  0  0  0
 27 22  1  0  0  0  0
 28 29  1  0  0  0  0
 28 24  1  0  0  0  0
 29 30  1  0  0  0  0
 31 29  1  0  0  0  0
 32 31  1  0  0  0  0
 33 31  1  0  0  0  0
 34 33  1  0  0  0  0
 34 36  1  0  0  0  0
 35 34  1  0  0  0  0
 36 28  1  0  0  0  0
 37 36  1  0  0  0  0
M  END
>  <minimizedAffinity>
-5.45334435

>  <minimizedRMSD>
0.549279213

$$$$
