
 OpenBabel03212521073D

 37 40  0  0  0  0  0  0  0  0999 V2000
   41.8230   84.2160   61.5730 C   0  0  0  0  0  0  0  0  0  0  0  0
   41.4750   83.9370   62.8980 C   0  0  0  0  0  0  0  0  0  0  0  0
   40.1910   83.5280   63.2350 C   0  0  0  0  0  0  0  0  0  0  0  0
   39.2340   83.3920   62.2430 C   0  0  0  0  0  0  0  0  0  0  0  0
   39.5830   83.6710   60.9310 C   0  0  0  0  0  0  0  0  0  0  0  0
   40.8600   84.0790   60.5860 C   0  0  0  0  0  0  0  0  0  0  0  0
   42.2490   84.0530   63.6520 H   0  0  0  0  0  0  0  0  0  0  0  0
   40.0450   83.3420   64.2920 H   0  0  0  0  0  0  0  0  0  0  0  0
   38.2570   83.0760   62.5370 H   0  0  0  0  0  0  0  0  0  0  0  0
   38.7830   83.5400   60.2350 H   0  0  0  0  0  0  0  0  0  0  0  0
   45.3190   84.1210   60.5400 C   0  0  0  0  0  0  0  0  0  0  0  0
   45.7300   85.4380   60.6920 C   0  0  0  0  0  0  0  0  0  0  0  0
   44.7870   86.3770   61.1580 C   0  0  0  0  0  0  0  0  0  0  0  0
   43.5280   85.9460   61.4340 N   0  0  0  0  0  0  0  0  0  0  0  0
   43.1670   84.6380   61.2700 C   0  0  0  0  0  0  0  0  0  0  0  0
   44.0610   83.7660   60.8320 N   0  0  0  0  0  0  0  0  0  0  0  0
   45.9800   83.3290   60.1860 H   0  0  0  0  0  0  0  0  0  0  0  0
   46.7440   85.6760   60.4470 H   0  0  0  0  0  0  0  0  0  0  0  0
   45.0990   87.3980   61.2770 H   0  0  0  0  0  0  0  0  0  0  0  0
   41.1670   84.3560   59.1990 C   0  0  0  0  0  0  0  0  0  0  0  0
   40.8880   85.6920   58.8720 C   0  0  0  0  0  0  0  0  0  0  0  0
   41.1180   86.1560   57.5740 C   0  0  0  0  0  0  0  0  0  0  0  0
   41.6030   85.2910   56.6840 N   0  0  0  0  0  0  0  0  0  0  0  0
   41.8700   83.9920   57.0150 C   0  0  0  0  0  0  0  0  0  0  0  0
   41.6550   83.5290   58.2610 N   0  0  0  0  0  0  0  0  0  0  0  0
   40.4940   86.4440   59.5460 H   0  0  0  0  0  0  0  0  0  0  0  0
   40.9170   87.1790   57.2780 H   0  0  0  0  0  0  0  0  0  0  0  0
   42.4050   83.0970   55.9780 C   0  0  0  0  0  3  0  0  0  0  0  0
   42.5810   83.8160   54.6790 C   0  0  0  0  0  3  0  0  0  0  0  0
   41.6270   84.3570   54.4530 H   0  0  0  0  0  0  0  0  0  0  0  0
   42.8960   82.8730   53.5640 C   0  0  0  0  0  3  0  0  0  0  0  0
   42.2290   83.0690   52.7030 H   0  0  0  0  0  0  0  0  0  0  0  0
   42.9140   81.5440   53.9520 O   0  0  0  0  0  0  0  0  0  0  0  0
   41.7350   81.1450   54.5750 C   0  0  0  0  0  3  0  0  0  0  0  0
   41.9030   80.0900   54.8760 H   0  0  0  0  0  0  0  0  0  0  0  0
   41.4370   81.9470   55.8050 C   0  0  0  0  0  3  0  0  0  0  0  0
   41.4950   81.3160   56.7230 H   0  0  0  0  0  0  0  0  0  0  0  0
  1  2  1  0  0  0  0
  2  3  2  0  0  0  0
  2  7  1  0  0  0  0
  3  8  1  0  0  0  0
  4  9  1  0  0  0  0
  4  3  1  0  0  0  0
  5  4  2  0  0  0  0
  6  5  1  0  0  0  0
  6  1  2  0  0  0  0
 10  5  1  0  0  0  0
 11 12  2  0  0  0  0
 11 16  1  0  0  0  0
 12 13  1  0  0  0  0
 13 19  1  0  0  0  0
 13 14  2  0  0  0  0
 15 14  1  0  0  0  0
 15  1  1  0  0  0  0
 16 15  2  0  0  0  0
 17 11  1  0  0  0  0
 18 12  1  0  0  0  0
 20  6  1  0  0  0  0
 21 20  1  0  0  0  0
 21 26  1  0  0  0  0
 22 21  2  0  0  0  0
 23 24  2  0  0  0  0
 23 22  1  0  0  0  0
 24 25  1  0  0  0  0
 25 20  2  0  0  0  0
 27 22  1  0  0  0  0
 28 24  1  0  0  0  0
 29 28  1  0  0  0  0
 30 29  1  0  0  0  0
 31 33  1  0  0  0  0
 31 29  1  0  0  0  0
 32 31  1  0  0  0  0
 33 34  1  0  0  0  0
 34 35  1  0  0  0  0
 34 36  1  0  0  0  0
 36 28  1  0  0  0  0
 36 37  1  0  0  0  0
M  END
>  <minimizedAffinity>
-5.70657444

>  <minimizedRMSD>
0.514527321

$$$$
