
 OpenBabel03212520053D

 42 46  0  0  0  0  0  0  0  0999 V2000
   40.7180   81.7190   57.1840 C   0  0  0  0  0  0  0  0  0  0  0  0
   41.9050   82.1150   56.5450 C   0  0  0  0  0  0  0  0  0  0  0  0
   42.7850   82.9030   57.2780 C   0  0  0  0  0  0  0  0  0  0  0  0
   42.4870   83.2580   58.5560 N   0  0  0  0  0  0  0  0  0  0  0  0
   41.3250   82.8490   59.1390 C   0  0  0  0  0  0  0  0  0  0  0  0
   40.4330   82.0780   58.4560 N   0  0  0  0  0  0  0  0  0  0  0  0
   39.9400   81.1110   56.7470 H   0  0  0  0  0  0  0  0  0  0  0  0
   41.9360   81.6900   55.5730 H   0  0  0  0  0  0  0  0  0  0  0  0
   39.7180   83.0700   60.9650 C   0  0  0  0  0  0  0  0  0  0  0  0
   41.0340   83.2070   60.5200 C   0  0  0  0  0  0  0  0  0  0  0  0
   42.0460   83.6540   61.3720 C   0  0  0  0  0  0  0  0  0  0  0  0
   41.7790   83.9770   62.6910 C   0  0  0  0  0  0  0  0  0  0  0  0
   42.4720   84.4170   63.7470 N   0  0  0  0  0  0  0  0  0  0  0  0
   41.6550   84.5580   64.8190 C   0  0  0  0  0  0  0  0  0  0  0  0
   40.4300   84.1850   64.3760 N   0  0  0  0  0  0  0  0  0  0  0  0
   40.4660   83.8250   63.0820 C   0  0  0  0  0  0  0  0  0  0  0  0
   39.4320   83.3910   62.2900 C   0  0  0  0  0  0  0  0  0  0  0  0
   38.9240   82.7330   60.3420 H   0  0  0  0  0  0  0  0  0  0  0  0
   43.0620   83.7560   61.0120 H   0  0  0  0  0  0  0  0  0  0  0  0
   43.4980   84.5980   63.6620 H   0  0  0  0  0  0  0  0  0  0  0  0
   41.9950   84.9000   65.7810 H   0  0  0  0  0  0  0  0  0  0  0  0
   38.4420   83.3000   62.6650 H   0  0  0  0  0  0  0  0  0  0  0  0
   42.5560   84.2040   54.6010 Cl  0  0  0  0  0  0  0  0  0  0  0  0
   44.0760   83.9590   55.4580 C   0  0  0  0  0  0  0  0  0  0  0  0
   44.0220   83.3530   56.6830 C   0  0  0  0  0  0  0  0  0  0  0  0
   45.2640   83.2080   57.2940 C   0  0  0  0  0  0  0  0  0  0  0  0
   46.4530   83.6200   56.7520 C   0  0  0  0  0  0  0  0  0  0  0  0
   46.4440   84.2260   55.5050 C   0  0  0  0  0  0  0  0  0  0  0  0
   47.8970   84.7550   54.7250 Cl  0  0  0  0  0  0  0  0  0  0  0  0
   45.2410   84.3890   54.8710 C   0  0  0  0  0  0  0  0  0  0  0  0
   45.3210   82.7390   58.2700 H   0  0  0  0  0  0  0  0  0  0  0  0
   47.3800   83.4770   57.2770 H   0  0  0  0  0  0  0  0  0  0  0  0
   45.1440   85.0220   53.5520 C   0  0  0  0  0  3  0  0  0  0  0  0
   45.6620   84.1710   52.4030 C   0  0  0  0  0  3  0  0  0  0  0  0
   46.7650   84.2210   52.3650 H   0  0  0  0  0  0  0  0  0  0  0  0
   45.0690   84.8340   51.1540 C   0  0  0  0  0  3  0  0  0  0  0  0
   44.0010   84.5500   51.0890 H   0  0  0  0  0  0  0  0  0  0  0  0
   45.3100   86.1700   51.0550 O   0  0  0  0  0  0  0  0  0  0  0  0
   44.9870   86.9570   52.1300 C   0  0  0  0  0  3  0  0  0  0  0  0
   43.9230   87.0730   52.3460 H   0  0  0  0  0  0  0  0  0  0  0  0
   45.7310   86.3630   53.3510 C   0  0  0  0  0  3  0  0  0  0  0  0
   46.7660   86.2640   52.8980 H   0  0  0  0  0  0  0  0  0  0  0  0
  1  6  1  0  0  0  0
  2  1  2  0  0  0  0
  2  3  1  0  0  0  0
  3  4  2  0  0  0  0
  4  5  1  0  0  0  0
  5 10  1  0  0  0  0
  6  5  2  0  0  0  0
  7  1  1  0  0  0  0
  8  2  1  0  0  0  0
  9 17  1  0  0  0  0
 10  9  2  0  0  0  0
 10 11  1  0  0  0  0
 11 12  2  0  0  0  0
 12 16  1  0  0  0  0
 12 13  1  0  0  0  0
 13 14  1  0  0  0  0
 14 21  1  0  0  0  0
 15 14  2  0  0  0  0
 16 15  1  0  0  0  0
 17 22  1  0  0  0  0
 17 16  2  0  0  0  0
 18  9  1  0  0  0  0
 19 11  1  0  0  0  0
 20 13  1  0  0  0  0
 23 24  1  0  0  0  0
 24 25  1  0  0  0  0
 25  3  1  0  0  0  0
 25 26  2  0  0  0  0
 26 31  1  0  0  0  0
 27 32  1  0  0  0  0
 27 26  1  0  0  0  0
 28 27  2  0  0  0  0
 29 28  1  0  0  0  0
 30 24  2  0  0  0  0
 30 28  1  0  0  0  0
 33 30  1  0  0  0  0
 34 33  1  0  0  0  0
 35 34  1  0  0  0  0
 36 34  1  0  0  0  0
 37 36  1  0  0  0  0
 38 36  1  0  0  0  0
 38 39  1  0  0  0  0
 39 40  1  0  0  0  0
 39 41  1  0  0  0  0
 41 33  1  0  0  0  0
 42 41  1  0  0  0  0
M  END
>  <minimizedAffinity>
-4.8868165

>  <minimizedRMSD>
0.8261621

$$$$
