
 OpenBabel03212520053D

 42 46  0  0  0  0  0  0  0  0999 V2000
   40.7350   81.9060   57.0720 C   0  0  0  0  0  0  0  0  0  0  0  0
   41.8200   82.4870   56.3930 C   0  0  0  0  0  0  0  0  0  0  0  0
   42.6100   83.3780   57.1110 C   0  0  0  0  0  0  0  0  0  0  0  0
   42.3250   83.6550   58.4110 N   0  0  0  0  0  0  0  0  0  0  0  0
   41.2650   83.0660   59.0310 C   0  0  0  0  0  0  0  0  0  0  0  0
   40.4620   82.1890   58.3650 N   0  0  0  0  0  0  0  0  0  0  0  0
   40.0340   81.2010   56.6500 H   0  0  0  0  0  0  0  0  0  0  0  0
   41.8650   82.0950   55.4080 H   0  0  0  0  0  0  0  0  0  0  0  0
   39.6960   83.1180   60.9030 C   0  0  0  0  0  0  0  0  0  0  0  0
   40.9910   83.3440   60.4340 C   0  0  0  0  0  0  0  0  0  0  0  0
   42.0000   83.8050   61.2830 C   0  0  0  0  0  0  0  0  0  0  0  0
   41.7510   84.0510   62.6210 C   0  0  0  0  0  0  0  0  0  0  0  0
   42.4480   84.4780   63.6800 N   0  0  0  0  0  0  0  0  0  0  0  0
   41.6530   84.5270   64.7770 C   0  0  0  0  0  0  0  0  0  0  0  0
   40.4380   84.1110   64.3450 N   0  0  0  0  0  0  0  0  0  0  0  0
   40.4590   83.8120   63.0350 C   0  0  0  0  0  0  0  0  0  0  0  0
   39.4280   83.3620   62.2480 C   0  0  0  0  0  0  0  0  0  0  0  0
   38.9040   82.7680   60.2830 H   0  0  0  0  0  0  0  0  0  0  0  0
   43.0010   83.9760   60.9040 H   0  0  0  0  0  0  0  0  0  0  0  0
   43.4610   84.7170   63.5800 H   0  0  0  0  0  0  0  0  0  0  0  0
   41.9990   84.8420   65.7450 H   0  0  0  0  0  0  0  0  0  0  0  0
   38.4550   83.2010   62.6410 H   0  0  0  0  0  0  0  0  0  0  0  0
   42.6480   83.3110   54.1260 Cl  0  0  0  0  0  0  0  0  0  0  0  0
   43.8960   84.0610   55.1170 C   0  0  0  0  0  0  0  0  0  0  0  0
   43.7380   84.0190   56.4750 C   0  0  0  0  0  0  0  0  0  0  0  0
   44.7620   84.6420   57.1810 C   0  0  0  0  0  0  0  0  0  0  0  0
   45.8460   85.2530   56.6070 C   0  0  0  0  0  0  0  0  0  0  0  0
   45.9530   85.2620   55.2240 C   0  0  0  0  0  0  0  0  0  0  0  0
   47.2980   85.9840   54.4060 Cl  0  0  0  0  0  0  0  0  0  0  0  0
   44.9630   84.6590   54.4930 C   0  0  0  0  0  0  0  0  0  0  0  0
   44.7220   84.6600   58.2650 H   0  0  0  0  0  0  0  0  0  0  0  0
   46.6050   85.7180   57.2110 H   0  0  0  0  0  0  0  0  0  0  0  0
   44.9990   84.6260   53.0270 C   0  0  0  0  0  3  0  0  0  0  0  0
   44.0770   85.6290   52.3510 C   0  0  0  0  0  3  0  0  0  0  0  0
   43.0420   85.2470   52.3510 H   0  0  0  0  0  0  0  0  0  0  0  0
   44.6030   85.7020   50.9120 C   0  0  0  0  0  3  0  0  0  0  0  0
   45.5240   86.3160   50.9130 H   0  0  0  0  0  0  0  0  0  0  0  0
   44.7220   84.4960   50.2920 O   0  0  0  0  0  0  0  0  0  0  0  0
   45.4290   83.5150   50.9380 C   0  0  0  0  0  3  0  0  0  0  0  0
   46.5060   83.6740   51.0340 H   0  0  0  0  0  0  0  0  0  0  0  0
   44.7750   83.3440   52.3290 C   0  0  0  0  0  3  0  0  0  0  0  0
   43.6890   83.2670   52.0090 H   0  0  0  0  0  0  0  0  0  0  0  0
  1  6  1  0  0  0  0
  2  1  2  0  0  0  0
  2  3  1  0  0  0  0
  3  4  2  0  0  0  0
  4  5  1  0  0  0  0
  5 10  1  0  0  0  0
  6  5  2  0  0  0  0
  7  1  1  0  0  0  0
  8  2  1  0  0  0  0
  9 17  1  0  0  0  0
 10  9  2  0  0  0  0
 10 11  1  0  0  0  0
 11 12  2  0  0  0  0
 12 16  1  0  0  0  0
 12 13  1  0  0  0  0
 13 14  1  0  0  0  0
 14 21  1  0  0  0  0
 15 14  2  0  0  0  0
 16 15  1  0  0  0  0
 17 22  1  0  0  0  0
 17 16  2  0  0  0  0
 18  9  1  0  0  0  0
 19 11  1  0  0  0  0
 20 13  1  0  0  0  0
 23 24  1  0  0  0  0
 24 25  1  0  0  0  0
 25  3  1  0  0  0  0
 25 26  2  0  0  0  0
 26 31  1  0  0  0  0
 27 26  1  0  0  0  0
 27 32  1  0  0  0  0
 28 27  2  0  0  0  0
 29 28  1  0  0  0  0
 30 24  2  0  0  0  0
 30 28  1  0  0  0  0
 33 30  1  0  0  0  0
 34 33  1  0  0  0  0
 35 34  1  0  0  0  0
 36 37  1  0  0  0  0
 36 34  1  0  0  0  0
 38 36  1  0  0  0  0
 38 39  1  0  0  0  0
 39 40  1  0  0  0  0
 39 41  1  0  0  0  0
 41 33  1  0  0  0  0
 42 41  1  0  0  0  0
M  END
>  <minimizedAffinity>
-5.00395107

>  <minimizedRMSD>
0.451404542

$$$$
