
 OpenBabel03212521003D

 43 47  0  0  1  0  0  0  0  0999 V2000
   39.8880   77.5630   59.1140 C   0  0  0  0  0  0  0  0  0  0  0  0
   40.6470   76.4810   58.7820 C   0  0  0  0  0  0  0  0  0  0  0  0
   40.1250   75.7890   57.6810 C   0  0  0  0  0  0  0  0  0  0  0  0
   39.0060   76.1400   57.0180 N   0  0  0  0  0  0  0  0  0  0  0  0
   38.3220   77.2450   57.4360 C   0  0  0  0  0  0  0  0  0  0  0  0
   38.7690   77.9600   58.4930 N   0  0  0  0  0  0  0  0  0  0  0  0
   41.5380   76.1560   59.2690 H   0  0  0  0  0  0  0  0  0  0  0  0
   40.6320   74.8970   57.3010 H   0  0  0  0  0  0  0  0  0  0  0  0
   40.9890   80.4550   61.7690 C   0  0  0  0  0  0  0  0  0  0  0  0
   40.9780   79.2080   62.3410 C   0  0  0  0  0  0  0  0  0  0  0  0
   40.6270   78.1590   61.5610 C   0  0  0  0  0  0  0  0  0  0  0  0
   40.3000   78.3820   60.2360 C   0  0  0  0  0  0  0  0  0  0  0  0
   40.4910   80.2030   60.0420 S   0  0  0  0  0  0  0  0  0  0  0  0
   41.2360   79.0350   63.3870 H   0  0  0  0  0  0  0  0  0  0  0  0
   40.5570   77.1120   61.8180 H   0  0  0  0  0  0  0  0  0  0  0  0
   42.9950   83.2570   63.0250 C   0  0  0  0  0  0  0  0  0  0  0  0
   42.0710   83.9880   63.8170 C   0  0  0  0  0  0  0  0  0  0  0  0
   40.7530   83.5100   63.9110 C   0  0  0  0  0  0  0  0  0  0  0  0
   40.4310   82.3810   63.2450 N   0  0  0  0  0  0  0  0  0  0  0  0
   41.3480   81.7040   62.4910 C   0  0  0  0  0  0  0  0  0  0  0  0
   42.6010   82.1560   62.4000 N   0  0  0  0  0  0  0  0  0  0  0  0
   43.9990   83.6590   62.9780 H   0  0  0  0  0  0  0  0  0  0  0  0
   42.2950   84.8950   64.3630 H   0  0  0  0  0  0  0  0  0  0  0  0
   39.9800   83.9800   64.4780 H   0  0  0  0  0  0  0  0  0  0  0  0
   37.1270   77.6110   56.7040 C   0  0  0  0  0  0  0  0  0  0  0  0
   36.0420   77.1720   57.1150 O   0  0  0  0  0  0  0  0  0  0  0  0
   37.1700   78.4870   55.4720 C   0  0  1  0  0  0  0  0  0  0  0  0
   37.3300   79.9500   55.7940 C   0  0  0  0  0  0  0  0  0  0  0  0
   38.3920   79.1960   55.1390 C   0  0  2  0  0  0  0  0  0  0  0  0
   36.2300   78.3580   54.8650 H   0  0  0  0  0  0  0  0  0  0  0  0
   37.4420   80.2410   56.8700 H   0  0  0  0  0  0  0  0  0  0  0  0
   36.7030   80.6820   55.2570 H   0  0  0  0  0  0  0  0  0  0  0  0
   39.2810   78.9330   55.7690 H   0  0  0  0  0  0  0  0  0  0  0  0
   38.7660   79.3800   53.6960 C   0  0  0  0  0  3  0  0  0  0  0  0
   40.2330   79.5090   53.4650 C   0  0  0  0  0  3  0  0  0  0  0  0
   40.6860   80.0430   54.3260 H   0  0  0  0  0  0  0  0  0  0  0  0
   40.8950   78.1750   53.2060 C   0  0  0  0  0  3  0  0  0  0  0  0
   41.1210   77.9990   52.1350 H   0  0  0  0  0  0  0  0  0  0  0  0
   40.0250   77.1670   53.6110 O   0  0  0  0  0  0  0  0  0  0  0  0
   39.0010   77.1010   52.6780 C   0  0  0  0  0  3  0  0  0  0  0  0
   38.4080   76.1680   52.7600 H   0  0  0  0  0  0  0  0  0  0  0  0
   38.1150   78.2890   52.8690 C   0  0  0  0  0  3  0  0  0  0  0  0
   37.1960   77.9560   53.4370 H   0  0  0  0  0  0  0  0  0  0  0  0
  1 12  1  0  0  0  0
  2  1  1  0  0  0  0
  2  7  1  0  0  0  0
  3  2  2  0  0  0  0
  4  5  2  0  0  0  0
  4  3  1  0  0  0  0
  5  6  1  0  0  0  0
  6  1  2  0  0  0  0
  8  3  1  0  0  0  0
  9 10  2  0  0  0  0
  9 20  1  0  0  0  0
 10 14  1  0  0  0  0
 11 15  1  0  0  0  0
 11 10  1  0  0  0  0
 12 11  2  0  0  0  0
 13 12  1  0  0  0  0
 13  9  1  0  0  0  0
 16 17  1  0  0  0  0
 17 18  2  0  0  0  0
 17 23  1  0  0  0  0
 18 24  1  0  0  0  0
 19 18  1  0  0  0  0
 20 19  2  0  0  0  0
 21 20  1  0  0  0  0
 21 16  2  0  0  0  0
 22 16  1  0  0  0  0
 25 26  2  0  0  0  0
 25  5  1  0  0  0  0
 27 30  1  6  0  0  0
 27 28  1  0  0  0  0
 27 25  1  0  0  0  0
 28 31  1  0  0  0  0
 29 27  1  0  0  0  0
 29 33  1  1  0  0  0
 29 28  1  0  0  0  0
 32 28  1  0  0  0  0
 34 29  1  0  0  0  0
 35 34  1  0  0  0  0
 35 36  1  0  0  0  0
 37 35  1  0  0  0  0
 37 39  1  0  0  0  0
 38 37  1  0  0  0  0
 40 41  1  0  0  0  0
 40 42  1  0  0  0  0
 40 39  1  0  0  0  0
 42 43  1  0  0  0  0
 42 34  1  0  0  0  0
M  END
>  <minimizedAffinity>
-6.29675722

>  <minimizedRMSD>
1.00809562

$$$$
