
 OpenBabel03212521003D

 43 47  0  0  1  0  0  0  0  0999 V2000
   39.6160   77.1130   59.1720 C   0  0  0  0  0  0  0  0  0  0  0  0
   40.2510   75.9310   58.9340 C   0  0  0  0  0  0  0  0  0  0  0  0
   39.6560   75.2160   57.8860 C   0  0  0  0  0  0  0  0  0  0  0  0
   38.5830   75.6360   57.1860 N   0  0  0  0  0  0  0  0  0  0  0  0
   38.0260   76.8400   57.5090 C   0  0  0  0  0  0  0  0  0  0  0  0
   38.5500   77.5810   58.5110 N   0  0  0  0  0  0  0  0  0  0  0  0
   41.0990   75.5480   59.4530 H   0  0  0  0  0  0  0  0  0  0  0  0
   40.0600   74.2460   57.5820 H   0  0  0  0  0  0  0  0  0  0  0  0
   40.9520   80.0840   61.6250 C   0  0  0  0  0  0  0  0  0  0  0  0
   40.9380   78.8650   62.2540 C   0  0  0  0  0  0  0  0  0  0  0  0
   40.5130   77.7940   61.5430 C   0  0  0  0  0  0  0  0  0  0  0  0
   40.1160   77.9680   60.2300 C   0  0  0  0  0  0  0  0  0  0  0  0
   40.3470   79.7720   59.9420 S   0  0  0  0  0  0  0  0  0  0  0  0
   41.2510   78.7300   63.2900 H   0  0  0  0  0  0  0  0  0  0  0  0
   40.4280   76.7620   61.8520 H   0  0  0  0  0  0  0  0  0  0  0  0
   43.1150   82.8590   62.6620 C   0  0  0  0  0  0  0  0  0  0  0  0
   42.2500   83.6690   63.4460 C   0  0  0  0  0  0  0  0  0  0  0  0
   40.9180   83.2520   63.6090 C   0  0  0  0  0  0  0  0  0  0  0  0
   40.5270   82.1060   63.0140 N   0  0  0  0  0  0  0  0  0  0  0  0
   41.3870   81.3520   62.2680 C   0  0  0  0  0  0  0  0  0  0  0  0
   42.6540   81.7450   62.1100 N   0  0  0  0  0  0  0  0  0  0  0  0
   44.1320   83.2140   62.5610 H   0  0  0  0  0  0  0  0  0  0  0  0
   42.5310   84.5910   63.9350 H   0  0  0  0  0  0  0  0  0  0  0  0
   40.1860   83.7840   64.1750 H   0  0  0  0  0  0  0  0  0  0  0  0
   36.8810   77.2760   56.7390 C   0  0  0  0  0  0  0  0  0  0  0  0
   35.7560   77.1290   57.2420 O   0  0  0  0  0  0  0  0  0  0  0  0
   37.0170   77.8860   55.3620 C   0  0  1  0  0  0  0  0  0  0  0  0
   37.4050   79.3410   55.3960 C   0  0  0  0  0  0  0  0  0  0  0  0
   38.3220   78.3230   54.8970 C   0  0  2  0  0  0  0  0  0  0  0  0
   36.0510   77.7900   54.7910 H   0  0  0  0  0  0  0  0  0  0  0  0
   37.5920   79.8110   56.3960 H   0  0  0  0  0  0  0  0  0  0  0  0
   36.8790   80.0460   54.7290 H   0  0  0  0  0  0  0  0  0  0  0  0
   39.1790   78.0510   55.5650 H   0  0  0  0  0  0  0  0  0  0  0  0
   38.6750   78.1700   53.4450 C   0  0  0  0  0  3  0  0  0  0  0  0
   38.9230   79.4620   52.7460 C   0  0  0  0  0  3  0  0  0  0  0  0
   38.2520   80.2350   53.1710 H   0  0  0  0  0  0  0  0  0  0  0  0
   40.3760   79.8750   52.7950 C   0  0  0  0  0  3  0  0  0  0  0  0
   40.9190   79.6870   51.8470 H   0  0  0  0  0  0  0  0  0  0  0  0
   41.0110   79.1260   53.7820 O   0  0  0  0  0  0  0  0  0  0  0  0
   41.1550   77.8340   53.2990 C   0  0  0  0  0  3  0  0  0  0  0  0
   41.8760   77.2350   53.8910 H   0  0  0  0  0  0  0  0  0  0  0  0
   39.8130   77.1770   53.3110 C   0  0  0  0  0  3  0  0  0  0  0  0
   39.7590   76.4990   54.2120 H   0  0  0  0  0  0  0  0  0  0  0  0
  1 12  1  0  0  0  0
  2  1  1  0  0  0  0
  2  7  1  0  0  0  0
  3  2  2  0  0  0  0
  4  5  2  0  0  0  0
  4  3  1  0  0  0  0
  5  6  1  0  0  0  0
  6  1  2  0  0  0  0
  8  3  1  0  0  0  0
  9 10  2  0  0  0  0
  9 20  1  0  0  0  0
 10 14  1  0  0  0  0
 11 15  1  0  0  0  0
 11 10  1  0  0  0  0
 12 11  2  0  0  0  0
 13 12  1  0  0  0  0
 13  9  1  0  0  0  0
 16 17  1  0  0  0  0
 17 18  2  0  0  0  0
 17 23  1  0  0  0  0
 18 24  1  0  0  0  0
 19 18  1  0  0  0  0
 20 19  2  0  0  0  0
 21 20  1  0  0  0  0
 21 16  2  0  0  0  0
 22 16  1  0  0  0  0
 25 26  2  0  0  0  0
 25  5  1  0  0  0  0
 27 30  1  6  0  0  0
 27 28  1  0  0  0  0
 27 25  1  0  0  0  0
 28 31  1  0  0  0  0
 29 27  1  0  0  0  0
 29 28  1  0  0  0  0
 29 33  1  1  0  0  0
 32 28  1  0  0  0  0
 34 29  1  0  0  0  0
 35 37  1  0  0  0  0
 35 36  1  0  0  0  0
 35 34  1  0  0  0  0
 37 39  1  0  0  0  0
 38 37  1  0  0  0  0
 40 42  1  0  0  0  0
 40 39  1  0  0  0  0
 40 41  1  0  0  0  0
 42 34  1  0  0  0  0
 42 43  1  0  0  0  0
M  END
>  <minimizedAffinity>
-6.10327196

>  <minimizedRMSD>
0.794356227

$$$$
