
 OpenBabel03212521003D

 43 47  0  0  1  0  0  0  0  0999 V2000
   39.7000   77.1640   59.0750 C   0  0  0  0  0  0  0  0  0  0  0  0
   40.4070   76.0360   58.7840 C   0  0  0  0  0  0  0  0  0  0  0  0
   39.8440   75.3230   57.7180 C   0  0  0  0  0  0  0  0  0  0  0  0
   38.7360   75.6950   57.0490 N   0  0  0  0  0  0  0  0  0  0  0  0
   38.1060   76.8470   57.4240 C   0  0  0  0  0  0  0  0  0  0  0  0
   38.5950   77.5840   58.4460 N   0  0  0  0  0  0  0  0  0  0  0  0
   41.2870   75.6920   59.2780 H   0  0  0  0  0  0  0  0  0  0  0  0
   40.3070   74.3930   57.3720 H   0  0  0  0  0  0  0  0  0  0  0  0
   40.9540   80.1130   61.5960 C   0  0  0  0  0  0  0  0  0  0  0  0
   40.8930   78.8940   62.2210 C   0  0  0  0  0  0  0  0  0  0  0  0
   40.4890   77.8300   61.4890 C   0  0  0  0  0  0  0  0  0  0  0  0
   40.1590   78.0110   60.1580 C   0  0  0  0  0  0  0  0  0  0  0  0
   40.4270   79.8120   59.8860 S   0  0  0  0  0  0  0  0  0  0  0  0
   41.1540   78.7530   63.2710 H   0  0  0  0  0  0  0  0  0  0  0  0
   40.3760   76.7980   61.7900 H   0  0  0  0  0  0  0  0  0  0  0  0
   43.0880   82.8870   62.6960 C   0  0  0  0  0  0  0  0  0  0  0  0
   42.2090   83.6790   63.4830 C   0  0  0  0  0  0  0  0  0  0  0  0
   40.8790   83.2520   63.6260 C   0  0  0  0  0  0  0  0  0  0  0  0
   40.5010   82.1110   63.0110 N   0  0  0  0  0  0  0  0  0  0  0  0
   41.3740   81.3740   62.2620 C   0  0  0  0  0  0  0  0  0  0  0  0
   42.6390   81.7780   62.1240 N   0  0  0  0  0  0  0  0  0  0  0  0
   44.1030   83.2500   62.6110 H   0  0  0  0  0  0  0  0  0  0  0  0
   42.4790   84.5960   63.9880 H   0  0  0  0  0  0  0  0  0  0  0  0
   40.1370   83.7700   64.1930 H   0  0  0  0  0  0  0  0  0  0  0  0
   36.9220   77.2350   56.6860 C   0  0  0  0  0  0  0  0  0  0  0  0
   35.8270   77.1460   57.2630 O   0  0  0  0  0  0  0  0  0  0  0  0
   36.9840   77.7250   55.2570 C   0  0  1  0  0  0  0  0  0  0  0  0
   37.2350   79.2070   55.1520 C   0  0  0  0  0  0  0  0  0  0  0  0
   38.2370   78.2370   54.7290 C   0  0  2  0  0  0  0  0  0  0  0  0
   36.0250   77.4890   54.7170 H   0  0  0  0  0  0  0  0  0  0  0  0
   37.3880   79.7820   56.1020 H   0  0  0  0  0  0  0  0  0  0  0  0
   36.6370   79.7960   54.4350 H   0  0  0  0  0  0  0  0  0  0  0  0
   39.1240   78.1080   55.4020 H   0  0  0  0  0  0  0  0  0  0  0  0
   38.5860   77.9850   53.2890 C   0  0  0  0  0  3  0  0  0  0  0  0
   37.8310   78.8350   52.3270 C   0  0  0  0  0  3  0  0  0  0  0  0
   36.8100   79.0080   52.7250 H   0  0  0  0  0  0  0  0  0  0  0  0
   38.5500   80.1280   52.0130 C   0  0  0  0  0  3  0  0  0  0  0  0
   39.0580   80.1190   51.0290 H   0  0  0  0  0  0  0  0  0  0  0  0
   39.5330   80.3290   52.9780 O   0  0  0  0  0  0  0  0  0  0  0  0
   40.5570   79.4290   52.7240 C   0  0  0  0  0  3  0  0  0  0  0  0
   41.4920   79.6820   53.2630 H   0  0  0  0  0  0  0  0  0  0  0  0
   40.0900   78.0650   53.1210 C   0  0  0  0  0  3  0  0  0  0  0  0
   40.5440   77.8160   54.1250 H   0  0  0  0  0  0  0  0  0  0  0  0
  1 12  1  0  0  0  0
  2  1  1  0  0  0  0
  2  7  1  0  0  0  0
  3  2  2  0  0  0  0
  4  5  2  0  0  0  0
  4  3  1  0  0  0  0
  5  6  1  0  0  0  0
  6  1  2  0  0  0  0
  8  3  1  0  0  0  0
  9 10  2  0  0  0  0
  9 20  1  0  0  0  0
 10 14  1  0  0  0  0
 11 15  1  0  0  0  0
 11 10  1  0  0  0  0
 12 11  2  0  0  0  0
 13 12  1  0  0  0  0
 13  9  1  0  0  0  0
 16 17  1  0  0  0  0
 17 18  2  0  0  0  0
 17 23  1  0  0  0  0
 18 24  1  0  0  0  0
 19 18  1  0  0  0  0
 20 19  2  0  0  0  0
 21 20  1  0  0  0  0
 21 16  2  0  0  0  0
 22 16  1  0  0  0  0
 25 26  2  0  0  0  0
 25  5  1  0  0  0  0
 27 30  1  6  0  0  0
 27 25  1  0  0  0  0
 28 27  1  0  0  0  0
 28 31  1  0  0  0  0
 29 28  1  0  0  0  0
 29 27  1  0  0  0  0
 29 33  1  1  0  0  0
 32 28  1  0  0  0  0
 34 29  1  0  0  0  0
 35 36  1  0  0  0  0
 35 34  1  0  0  0  0
 37 35  1  0  0  0  0
 37 39  1  0  0  0  0
 38 37  1  0  0  0  0
 40 39  1  0  0  0  0
 40 42  1  0  0  0  0
 40 41  1  0  0  0  0
 42 34  1  0  0  0  0
 42 43  1  0  0  0  0
M  END
>  <minimizedAffinity>
-6.39613056

>  <minimizedRMSD>
1.02419221

$$$$
