
 OpenBabel03212520323D

 42 45  0  0  0  0  0  0  0  0999 V2000
   42.1750   82.7320   61.2490 C   0  0  0  0  0  0  0  0  0  0  0  0
   42.4420   81.5860   60.5240 C   0  0  0  0  0  0  0  0  0  0  0  0
   43.4730   80.7460   60.8910 C   0  0  0  0  0  0  0  0  0  0  0  0
   44.2940   80.9960   61.9940 C   0  0  0  0  0  0  0  0  0  0  0  0
   44.0470   82.1280   62.7270 C   0  0  0  0  0  0  0  0  0  0  0  0
   43.0080   82.9680   62.3520 C   0  0  0  0  0  0  0  0  0  0  0  0
   43.7060   79.8320   60.3340 H   0  0  0  0  0  0  0  0  0  0  0  0
   45.0980   80.3310   62.2690 H   0  0  0  0  0  0  0  0  0  0  0  0
   44.6280   82.4070   63.5980 H   0  0  0  0  0  0  0  0  0  0  0  0
   42.8010   83.8730   62.9280 H   0  0  0  0  0  0  0  0  0  0  0  0
   39.9250   79.9700   58.3530 C   0  0  0  0  0  0  0  0  0  0  0  0
   40.1650   80.5970   57.1310 C   0  0  0  0  0  0  0  0  0  0  0  0
   41.1960   81.5610   57.0820 C   0  0  0  0  0  0  0  0  0  0  0  0
   41.8680   81.7960   58.2370 N   0  0  0  0  0  0  0  0  0  0  0  0
   41.6320   81.2000   59.3820 C   0  0  0  0  0  0  0  0  0  0  0  0
   40.6510   80.2800   59.4340 N   0  0  0  0  0  0  0  0  0  0  0  0
   39.1530   79.2220   58.4650 H   0  0  0  0  0  0  0  0  0  0  0  0
   41.4070   82.0670   56.1420 H   0  0  0  0  0  0  0  0  0  0  0  0
   39.3930   80.2700   55.9840 N   0  0  0  0  0  0  0  0  0  0  0  0
   38.0970   80.5720   56.0980 C   0  0  0  0  0  0  0  0  0  0  0  0
   37.2530   80.2910   55.0260 C   0  0  0  0  0  0  0  0  0  0  0  0
   37.7810   79.7100   53.8870 C   0  0  0  0  0  0  0  0  0  0  0  0
   37.1180   79.4090   52.8570 O   0  0  0  0  0  0  0  0  0  0  0  0
   39.1150   79.4280   53.8430 N   0  0  0  0  0  0  0  0  0  0  0  0
   39.9360   79.7070   54.8940 C   0  0  0  0  0  0  0  0  0  0  0  0
   41.1560   79.4550   54.8660 O   0  0  0  0  0  0  0  0  0  0  0  0
   37.6450   81.0210   56.9570 H   0  0  0  0  0  0  0  0  0  0  0  0
   36.2060   80.5040   55.0430 H   0  0  0  0  0  0  0  0  0  0  0  0
   39.6000   78.9950   53.0340 H   0  0  0  0  0  0  0  0  0  0  0  0
   40.9160   83.8210   60.8130 S   0  0  0  0  0  0  0  0  0  0  0  0
   40.3390   84.4470   62.0700 O   0  0  0  0  0  0  0  0  0  0  0  0
   39.7250   82.9710   60.3720 O   0  0  0  0  0  0  0  0  0  0  0  0
   41.2450   85.1510   59.7770 C   0  0  0  0  0  3  0  0  0  0  0  0
   40.4710   84.9000   58.4570 C   0  0  0  0  0  3  0  0  0  0  0  0
   40.4950   83.8070   58.2430 H   0  0  0  0  0  0  0  0  0  0  0  0
   41.1070   85.6060   57.3020 C   0  0  0  0  0  3  0  0  0  0  0  0
   41.7040   84.9130   56.6760 H   0  0  0  0  0  0  0  0  0  0  0  0
   41.8310   86.6970   57.7730 O   0  0  0  0  0  0  0  0  0  0  0  0
   42.9960   86.2690   58.4040 C   0  0  0  0  0  3  0  0  0  0  0  0
   43.7290   85.9480   57.6160 H   0  0  0  0  0  0  0  0  0  0  0  0
   42.7140   85.0960   59.2810 C   0  0  0  0  0  3  0  0  0  0  0  0
   43.3900   85.0490   60.1520 H   0  0  0  0  0  0  0  0  0  0  0  0
  1  6  1  0  0  0  0
  2  3  1  0  0  0  0
  2  1  2  0  0  0  0
  3  4  2  0  0  0  0
  4  8  1  0  0  0  0
  4  5  1  0  0  0  0
  5  9  1  0  0  0  0
  6  5  2  0  0  0  0
  6 10  1  0  0  0  0
  7  3  1  0  0  0  0
 11 17  1  0  0  0  0
 11 16  1  0  0  0  0
 12 11  2  0  0  0  0
 13 12  1  0  0  0  0
 13 14  2  0  0  0  0
 14 15  1  0  0  0  0
 15 16  2  0  0  0  0
 15  2  1  0  0  0  0
 18 13  1  0  0  0  0
 19 20  1  0  0  0  0
 19 12  1  0  0  0  0
 20 27  1  0  0  0  0
 21 28  1  0  0  0  0
 21 20  2  0  0  0  0
 22 21  1  0  0  0  0
 23 22  2  0  0  0  0
 24 22  1  0  0  0  0
 24 25  1  0  0  0  0
 25 19  1  0  0  0  0
 26 25  2  0  0  0  0
 29 24  1  0  0  0  0
 30  1  1  0  0  0  0
 30 31  2  0  0  0  0
 32 30  2  0  0  0  0
 33 30  1  0  0  0  0
 34 33  1  0  0  0  0
 35 34  1  0  0  0  0
 36 38  1  0  0  0  0
 36 34  1  0  0  0  0
 37 36  1  0  0  0  0
 38 39  1  0  0  0  0
 39 41  1  0  0  0  0
 40 39  1  0  0  0  0
 41 33  1  0  0  0  0
 41 42  1  0  0  0  0
M  END
>  <minimizedAffinity>
-5.97435188

>  <minimizedRMSD>
1.5924474

$$$$
