
 OpenBabel03212521003D

 43 47  0  0  1  0  0  0  0  0999 V2000
   39.7720   77.4090   59.1770 C   0  0  0  0  0  0  0  0  0  0  0  0
   40.4690   76.2740   58.8890 C   0  0  0  0  0  0  0  0  0  0  0  0
   39.9120   75.5740   57.8110 C   0  0  0  0  0  0  0  0  0  0  0  0
   38.8170   75.9640   57.1300 N   0  0  0  0  0  0  0  0  0  0  0  0
   38.1960   77.1200   57.5040 C   0  0  0  0  0  0  0  0  0  0  0  0
   38.6800   77.8460   58.5370 N   0  0  0  0  0  0  0  0  0  0  0  0
   41.3390   75.9170   59.3920 H   0  0  0  0  0  0  0  0  0  0  0  0
   40.3690   74.6410   57.4660 H   0  0  0  0  0  0  0  0  0  0  0  0
   40.9780   80.3370   61.7460 C   0  0  0  0  0  0  0  0  0  0  0  0
   40.9800   79.1000   62.3390 C   0  0  0  0  0  0  0  0  0  0  0  0
   40.5980   78.0410   61.5880 C   0  0  0  0  0  0  0  0  0  0  0  0
   40.2260   78.2440   60.2720 C   0  0  0  0  0  0  0  0  0  0  0  0
   40.4190   80.0610   60.0420 S   0  0  0  0  0  0  0  0  0  0  0  0
   41.2730   78.9420   63.3780 H   0  0  0  0  0  0  0  0  0  0  0  0
   40.5310   76.9980   61.8640 H   0  0  0  0  0  0  0  0  0  0  0  0
   43.0460   83.1380   62.9030 C   0  0  0  0  0  0  0  0  0  0  0  0
   42.1470   83.8970   63.6990 C   0  0  0  0  0  0  0  0  0  0  0  0
   40.8260   83.4370   63.8300 C   0  0  0  0  0  0  0  0  0  0  0  0
   40.4760   82.3000   63.1940 N   0  0  0  0  0  0  0  0  0  0  0  0
   41.3680   81.5950   62.4350 C   0  0  0  0  0  0  0  0  0  0  0  0
   42.6240   82.0300   62.3090 N   0  0  0  0  0  0  0  0  0  0  0  0
   44.0530   83.5260   62.8270 H   0  0  0  0  0  0  0  0  0  0  0  0
   42.3940   84.8110   64.2220 H   0  0  0  0  0  0  0  0  0  0  0  0
   40.0710   83.9280   64.4030 H   0  0  0  0  0  0  0  0  0  0  0  0
   37.0260   77.5260   56.7530 C   0  0  0  0  0  0  0  0  0  0  0  0
   35.9190   77.1290   57.1490 O   0  0  0  0  0  0  0  0  0  0  0  0
   37.1190   78.3950   55.5190 C   0  0  1  0  0  0  0  0  0  0  0  0
   37.3280   79.8520   55.8380 C   0  0  0  0  0  0  0  0  0  0  0  0
   38.3710   79.0580   55.2020 C   0  0  2  0  0  0  0  0  0  0  0  0
   36.1850   78.2990   54.8980 H   0  0  0  0  0  0  0  0  0  0  0  0
   37.4340   80.1440   56.9150 H   0  0  0  0  0  0  0  0  0  0  0  0
   36.7360   80.6050   55.2890 H   0  0  0  0  0  0  0  0  0  0  0  0
   39.2400   78.7650   55.8460 H   0  0  0  0  0  0  0  0  0  0  0  0
   38.7740   79.2220   53.7630 C   0  0  0  0  0  3  0  0  0  0  0  0
   40.2430   79.3610   53.5610 C   0  0  0  0  0  3  0  0  0  0  0  0
   40.6730   79.9120   54.4210 H   0  0  0  0  0  0  0  0  0  0  0  0
   40.9220   78.0290   53.3360 C   0  0  0  0  0  3  0  0  0  0  0  0
   41.1720   77.8380   52.2730 H   0  0  0  0  0  0  0  0  0  0  0  0
   40.0520   77.0200   53.7390 O   0  0  0  0  0  0  0  0  0  0  0  0
   39.0480   76.9300   52.7850 C   0  0  0  0  0  3  0  0  0  0  0  0
   38.4610   75.9940   52.8710 H   0  0  0  0  0  0  0  0  0  0  0  0
   38.1480   78.1130   52.9410 C   0  0  0  0  0  3  0  0  0  0  0  0
   37.2210   77.7820   53.4950 H   0  0  0  0  0  0  0  0  0  0  0  0
  1 12  1  0  0  0  0
  2  1  1  0  0  0  0
  2  7  1  0  0  0  0
  3  2  2  0  0  0  0
  4  5  2  0  0  0  0
  4  3  1  0  0  0  0
  5  6  1  0  0  0  0
  6  1  2  0  0  0  0
  8  3  1  0  0  0  0
  9 10  2  0  0  0  0
  9 20  1  0  0  0  0
 10 14  1  0  0  0  0
 11 15  1  0  0  0  0
 11 10  1  0  0  0  0
 12 11  2  0  0  0  0
 13 12  1  0  0  0  0
 13  9  1  0  0  0  0
 16 17  1  0  0  0  0
 17 18  2  0  0  0  0
 17 23  1  0  0  0  0
 18 24  1  0  0  0  0
 19 18  1  0  0  0  0
 20 19  2  0  0  0  0
 21 20  1  0  0  0  0
 21 16  2  0  0  0  0
 22 16  1  0  0  0  0
 25 26  2  0  0  0  0
 25  5  1  0  0  0  0
 27 30  1  6  0  0  0
 27 28  1  0  0  0  0
 27 25  1  0  0  0  0
 28 31  1  0  0  0  0
 29 27  1  0  0  0  0
 29 28  1  0  0  0  0
 29 33  1  1  0  0  0
 32 28  1  0  0  0  0
 34 29  1  0  0  0  0
 35 34  1  0  0  0  0
 35 36  1  0  0  0  0
 37 35  1  0  0  0  0
 37 39  1  0  0  0  0
 38 37  1  0  0  0  0
 40 41  1  0  0  0  0
 40 42  1  0  0  0  0
 40 39  1  0  0  0  0
 42 43  1  0  0  0  0
 42 34  1  0  0  0  0
M  END
>  <minimizedAffinity>
-6.31401014

>  <minimizedRMSD>
0.221112713

$$$$
