
 OpenBabel03212520493D

 29 31  0  0  0  0  0  0  0  0999 V2000
   42.0690   83.8500   61.3420 C   0  0  0  0  0  0  0  0  0  0  0  0
   41.5240   83.9480   62.6000 C   0  0  0  0  0  0  0  0  0  0  0  0
   40.9470   82.8580   63.2560 C   0  0  0  0  0  0  0  0  0  0  0  0
   40.9190   81.6590   62.6360 N   0  0  0  0  0  0  0  0  0  0  0  0
   41.4520   81.5710   61.4090 C   0  0  0  0  0  0  0  0  0  0  0  0
   42.0180   82.6310   60.7630 N   0  0  0  0  0  0  0  0  0  0  0  0
   41.5460   84.9050   63.0930 H   0  0  0  0  0  0  0  0  0  0  0  0
   40.5390   83.0140   64.2440 H   0  0  0  0  0  0  0  0  0  0  0  0
   43.9490   86.9230   60.7060 C   0  0  0  0  0  0  0  0  0  0  0  0
   43.7880   87.0750   59.3250 C   0  0  0  0  0  0  0  0  0  0  0  0
   43.0450   86.1380   58.6220 C   0  0  0  0  0  0  0  0  0  0  0  0
   42.5050   85.1010   59.3330 N   0  0  0  0  0  0  0  0  0  0  0  0
   42.6730   84.9810   60.6490 C   0  0  0  0  0  0  0  0  0  0  0  0
   43.3850   85.8710   61.3430 N   0  0  0  0  0  0  0  0  0  0  0  0
   44.7280   87.9510   61.2900 N   0  0  0  0  0  0  0  0  0  0  0  0
   44.2080   87.8870   58.7510 H   0  0  0  0  0  0  0  0  0  0  0  0
   42.8980   86.2220   57.5490 H   0  0  0  0  0  0  0  0  0  0  0  0
   45.5150   87.4180   61.7100 H   0  0  0  0  0  0  0  0  0  0  0  0
   44.5300   88.9900   61.2830 H   0  0  0  0  0  0  0  0  0  0  0  0
   41.3870   80.2180   60.7840 C   0  0  0  0  0  3  0  0  0  0  0  0
   42.7170   79.5410   60.8780 C   0  0  0  0  0  3  0  0  0  0  0  0
   43.4880   80.3390   61.0480 H   0  0  0  0  0  0  0  0  0  0  0  0
   42.8570   78.5140   61.9470 C   0  0  0  0  0  3  0  0  0  0  0  0
   43.1910   77.5190   61.5360 H   0  0  0  0  0  0  0  0  0  0  0  0
   41.7300   78.2800   62.7000 O   0  0  0  0  0  0  0  0  0  0  0  0
   40.6370   78.0990   61.8790 C   0  0  0  0  0  3  0  0  0  0  0  0
   39.7840   77.7210   62.4970 H   0  0  0  0  0  0  0  0  0  0  0  0
   40.2440   79.4810   61.3800 C   0  0  0  0  0  3  0  0  0  0  0  0
   39.8020   80.0070   62.2740 H   0  0  0  0  0  0  0  0  0  0  0  0
  1  2  1  0  0  0  0
  2  7  1  0  0  0  0
  2  3  2  0  0  0  0
  3  8  1  0  0  0  0
  4  3  1  0  0  0  0
  5  4  2  0  0  0  0
  6  1  2  0  0  0  0
  6  5  1  0  0  0  0
  9 15  1  0  0  0  0
  9 14  1  0  0  0  0
 10  9  2  0  0  0  0
 11 10  1  0  0  0  0
 11 12  2  0  0  0  0
 12 13  1  0  0  0  0
 13  1  1  0  0  0  0
 13 14  2  0  0  0  0
 15 18  1  0  0  0  0
 16 10  1  0  0  0  0
 17 11  1  0  0  0  0
 19 15  1  0  0  0  0
 20 21  1  0  0  0  0
 20 28  1  0  0  0  0
 20  5  1  0  0  0  0
 21 22  1  0  0  0  0
 21 23  1  0  0  0  0
 23 25  1  0  0  0  0
 24 23  1  0  0  0  0
 26 27  1  0  0  0  0
 26 25  1  0  0  0  0
 28 26  1  0  0  0  0
 28 29  1  0  0  0  0
M  END
>  <minimizedAffinity>
-4.89240694

>  <minimizedRMSD>
1.29655755

$$$$
