
 OpenBabel03212520053D

 42 46  0  0  0  0  0  0  0  0999 V2000
   40.7080   81.7540   57.1210 C   0  0  0  0  0  0  0  0  0  0  0  0
   41.7750   82.3340   56.4140 C   0  0  0  0  0  0  0  0  0  0  0  0
   42.5590   83.2560   57.0990 C   0  0  0  0  0  0  0  0  0  0  0  0
   42.2850   83.5630   58.3950 N   0  0  0  0  0  0  0  0  0  0  0  0
   41.2420   82.9730   59.0430 C   0  0  0  0  0  0  0  0  0  0  0  0
   40.4460   82.0670   58.4100 N   0  0  0  0  0  0  0  0  0  0  0  0
   40.0130   81.0270   56.7270 H   0  0  0  0  0  0  0  0  0  0  0  0
   41.8150   81.9160   55.4400 H   0  0  0  0  0  0  0  0  0  0  0  0
   39.6830   83.0960   60.9190 C   0  0  0  0  0  0  0  0  0  0  0  0
   40.9800   83.2840   60.4410 C   0  0  0  0  0  0  0  0  0  0  0  0
   42.0030   83.7390   61.2770 C   0  0  0  0  0  0  0  0  0  0  0  0
   41.7650   84.0170   62.6120 C   0  0  0  0  0  0  0  0  0  0  0  0
   42.4760   84.4480   63.6590 N   0  0  0  0  0  0  0  0  0  0  0  0
   41.6860   84.5350   64.7580 C   0  0  0  0  0  0  0  0  0  0  0  0
   40.4600   84.1380   64.3390 N   0  0  0  0  0  0  0  0  0  0  0  0
   40.4690   83.8140   63.0350 C   0  0  0  0  0  0  0  0  0  0  0  0
   39.4260   83.3720   62.2610 C   0  0  0  0  0  0  0  0  0  0  0  0
   38.8810   82.7520   60.3100 H   0  0  0  0  0  0  0  0  0  0  0  0
   43.0050   83.8810   60.8920 H   0  0  0  0  0  0  0  0  0  0  0  0
   43.4930   84.6630   63.5510 H   0  0  0  0  0  0  0  0  0  0  0  0
   42.0430   84.8610   65.7190 H   0  0  0  0  0  0  0  0  0  0  0  0
   38.4510   83.2400   62.6600 H   0  0  0  0  0  0  0  0  0  0  0  0
   42.3100   83.5740   54.1410 Cl  0  0  0  0  0  0  0  0  0  0  0  0
   43.7020   84.1050   55.0810 C   0  0  0  0  0  0  0  0  0  0  0  0
   43.6690   83.8970   56.4330 C   0  0  0  0  0  0  0  0  0  0  0  0
   44.8020   84.3540   57.1000 C   0  0  0  0  0  0  0  0  0  0  0  0
   45.8720   84.9610   56.4950 C   0  0  0  0  0  0  0  0  0  0  0  0
   45.8480   85.1420   55.1210 C   0  0  0  0  0  0  0  0  0  0  0  0
   47.1630   85.8730   54.2620 Cl  0  0  0  0  0  0  0  0  0  0  0  0
   44.7490   84.7070   54.4280 C   0  0  0  0  0  0  0  0  0  0  0  0
   44.8660   84.2340   58.1760 H   0  0  0  0  0  0  0  0  0  0  0  0
   46.7180   85.2920   57.0700 H   0  0  0  0  0  0  0  0  0  0  0  0
   44.6430   84.8620   52.9740 C   0  0  0  0  0  3  0  0  0  0  0  0
   45.6320   84.0240   52.1760 C   0  0  0  0  0  3  0  0  0  0  0  0
   46.6220   84.5120   52.1730 H   0  0  0  0  0  0  0  0  0  0  0  0
   45.0500   84.0200   50.7560 C   0  0  0  0  0  3  0  0  0  0  0  0
   44.1980   83.3140   50.7370 H   0  0  0  0  0  0  0  0  0  0  0  0
   44.7810   85.2550   50.2520 O   0  0  0  0  0  0  0  0  0  0  0  0
   44.0080   86.0960   51.0090 C   0  0  0  0  0  3  0  0  0  0  0  0
   42.9590   85.8170   51.1310 H   0  0  0  0  0  0  0  0  0  0  0  0
   44.7030   86.2160   52.3860 C   0  0  0  0  0  3  0  0  0  0  0  0
   45.7610   86.4350   52.0340 H   0  0  0  0  0  0  0  0  0  0  0  0
  1  6  1  0  0  0  0
  2  3  1  0  0  0  0
  2  1  2  0  0  0  0
  3  4  2  0  0  0  0
  4  5  1  0  0  0  0
  5 10  1  0  0  0  0
  6  5  2  0  0  0  0
  7  1  1  0  0  0  0
  8  2  1  0  0  0  0
  9 17  1  0  0  0  0
 10  9  2  0  0  0  0
 10 11  1  0  0  0  0
 11 12  2  0  0  0  0
 12 16  1  0  0  0  0
 12 13  1  0  0  0  0
 13 14  1  0  0  0  0
 14 21  1  0  0  0  0
 15 14  2  0  0  0  0
 16 15  1  0  0  0  0
 17 22  1  0  0  0  0
 17 16  2  0  0  0  0
 18  9  1  0  0  0  0
 19 11  1  0  0  0  0
 20 13  1  0  0  0  0
 23 24  1  0  0  0  0
 24 25  1  0  0  0  0
 25  3  1  0  0  0  0
 25 26  2  0  0  0  0
 26 31  1  0  0  0  0
 27 32  1  0  0  0  0
 27 26  1  0  0  0  0
 28 27  2  0  0  0  0
 29 28  1  0  0  0  0
 30 24  2  0  0  0  0
 30 28  1  0  0  0  0
 33 30  1  0  0  0  0
 34 33  1  0  0  0  0
 35 34  1  0  0  0  0
 36 34  1  0  0  0  0
 37 36  1  0  0  0  0
 38 36  1  0  0  0  0
 38 39  1  0  0  0  0
 39 40  1  0  0  0  0
 39 41  1  0  0  0  0
 41 33  1  0  0  0  0
 42 41  1  0  0  0  0
M  END
>  <minimizedAffinity>
-5.10426092

>  <minimizedRMSD>
0.203412056

$$$$
