
 OpenBabel03212521073D

 37 40  0  0  0  0  0  0  0  0999 V2000
   41.7980   84.1560   61.5600 C   0  0  0  0  0  0  0  0  0  0  0  0
   41.4340   83.8830   62.8820 C   0  0  0  0  0  0  0  0  0  0  0  0
   40.1310   83.5380   63.2140 C   0  0  0  0  0  0  0  0  0  0  0  0
   39.1690   83.4630   62.2200 C   0  0  0  0  0  0  0  0  0  0  0  0
   39.5340   83.7350   60.9110 C   0  0  0  0  0  0  0  0  0  0  0  0
   40.8310   84.0790   60.5710 C   0  0  0  0  0  0  0  0  0  0  0  0
   42.2120   83.9510   63.6370 H   0  0  0  0  0  0  0  0  0  0  0  0
   39.9730   83.3500   64.2690 H   0  0  0  0  0  0  0  0  0  0  0  0
   38.1760   83.1960   62.5090 H   0  0  0  0  0  0  0  0  0  0  0  0
   38.7290   83.6530   60.2130 H   0  0  0  0  0  0  0  0  0  0  0  0
   45.2910   83.8840   60.5460 C   0  0  0  0  0  0  0  0  0  0  0  0
   45.7650   85.1800   60.6930 C   0  0  0  0  0  0  0  0  0  0  0  0
   44.8670   86.1670   61.1500 C   0  0  0  0  0  0  0  0  0  0  0  0
   43.5870   85.8000   61.4210 N   0  0  0  0  0  0  0  0  0  0  0  0
   43.1630   84.5100   61.2620 C   0  0  0  0  0  0  0  0  0  0  0  0
   44.0160   83.5930   60.8330 N   0  0  0  0  0  0  0  0  0  0  0  0
   45.9140   83.0590   60.2000 H   0  0  0  0  0  0  0  0  0  0  0  0
   46.7900   85.3670   60.4530 H   0  0  0  0  0  0  0  0  0  0  0  0
   45.2280   87.1710   61.2660 H   0  0  0  0  0  0  0  0  0  0  0  0
   41.1540   84.3520   59.1860 C   0  0  0  0  0  0  0  0  0  0  0  0
   40.9200   85.6990   58.8650 C   0  0  0  0  0  0  0  0  0  0  0  0
   41.1720   86.1610   57.5710 C   0  0  0  0  0  0  0  0  0  0  0  0
   41.6330   85.2860   56.6780 N   0  0  0  0  0  0  0  0  0  0  0  0
   41.8560   83.9770   57.0040 C   0  0  0  0  0  0  0  0  0  0  0  0
   41.6200   83.5160   58.2470 N   0  0  0  0  0  0  0  0  0  0  0  0
   40.5460   86.4600   59.5410 H   0  0  0  0  0  0  0  0  0  0  0  0
   41.0050   87.1920   57.2780 H   0  0  0  0  0  0  0  0  0  0  0  0
   42.3670   83.0710   55.9660 C   0  0  0  0  0  3  0  0  0  0  0  0
   42.5030   83.7720   54.6530 C   0  0  0  0  0  3  0  0  0  0  0  0
   41.5400   84.3040   54.4440 H   0  0  0  0  0  0  0  0  0  0  0  0
   42.7930   82.8150   53.5420 C   0  0  0  0  0  3  0  0  0  0  0  0
   42.1010   82.9950   52.6970 H   0  0  0  0  0  0  0  0  0  0  0  0
   42.8290   81.4910   53.9480 O   0  0  0  0  0  0  0  0  0  0  0  0
   41.6710   81.0950   54.6090 C   0  0  0  0  0  3  0  0  0  0  0  0
   41.8530   80.0450   54.9200 H   0  0  0  0  0  0  0  0  0  0  0  0
   41.4020   81.9120   55.8370 C   0  0  0  0  0  3  0  0  0  0  0  0
   41.4890   81.2950   56.7620 H   0  0  0  0  0  0  0  0  0  0  0  0
  1  2  1  0  0  0  0
  2  3  2  0  0  0  0
  2  7  1  0  0  0  0
  3  8  1  0  0  0  0
  4  9  1  0  0  0  0
  4  3  1  0  0  0  0
  5  4  2  0  0  0  0
  6  5  1  0  0  0  0
  6  1  2  0  0  0  0
 10  5  1  0  0  0  0
 11 12  2  0  0  0  0
 11 16  1  0  0  0  0
 12 13  1  0  0  0  0
 13 19  1  0  0  0  0
 13 14  2  0  0  0  0
 15 14  1  0  0  0  0
 15  1  1  0  0  0  0
 16 15  2  0  0  0  0
 17 11  1  0  0  0  0
 18 12  1  0  0  0  0
 20  6  1  0  0  0  0
 21 20  1  0  0  0  0
 21 26  1  0  0  0  0
 22 21  2  0  0  0  0
 23 24  2  0  0  0  0
 23 22  1  0  0  0  0
 24 25  1  0  0  0  0
 25 20  2  0  0  0  0
 27 22  1  0  0  0  0
 28 24  1  0  0  0  0
 29 28  1  0  0  0  0
 30 29  1  0  0  0  0
 31 33  1  0  0  0  0
 31 29  1  0  0  0  0
 32 31  1  0  0  0  0
 33 34  1  0  0  0  0
 34 35  1  0  0  0  0
 34 36  1  0  0  0  0
 36 28  1  0  0  0  0
 36 37  1  0  0  0  0
M  END
>  <minimizedAffinity>
-5.69406843

>  <minimizedRMSD>
0.815276861

$$$$
