
 OpenBabel03212520053D

 42 46  0  0  0  0  0  0  0  0999 V2000
   40.7210   81.7480   57.1190 C   0  0  0  0  0  0  0  0  0  0  0  0
   41.7860   82.3320   56.4120 C   0  0  0  0  0  0  0  0  0  0  0  0
   42.5660   83.2570   57.0960 C   0  0  0  0  0  0  0  0  0  0  0  0
   42.2900   83.5640   58.3920 N   0  0  0  0  0  0  0  0  0  0  0  0
   41.2490   82.9720   59.0400 C   0  0  0  0  0  0  0  0  0  0  0  0
   40.4560   82.0610   58.4080 N   0  0  0  0  0  0  0  0  0  0  0  0
   40.0290   81.0180   56.7260 H   0  0  0  0  0  0  0  0  0  0  0  0
   41.8280   81.9140   55.4380 H   0  0  0  0  0  0  0  0  0  0  0  0
   39.6870   83.0940   60.9140 C   0  0  0  0  0  0  0  0  0  0  0  0
   40.9850   83.2830   60.4380 C   0  0  0  0  0  0  0  0  0  0  0  0
   42.0060   83.7380   61.2750 C   0  0  0  0  0  0  0  0  0  0  0  0
   41.7660   84.0160   62.6090 C   0  0  0  0  0  0  0  0  0  0  0  0
   42.4760   84.4490   63.6580 N   0  0  0  0  0  0  0  0  0  0  0  0
   41.6850   84.5350   64.7550 C   0  0  0  0  0  0  0  0  0  0  0  0
   40.4600   84.1370   64.3340 N   0  0  0  0  0  0  0  0  0  0  0  0
   40.4710   83.8130   63.0310 C   0  0  0  0  0  0  0  0  0  0  0  0
   39.4280   83.3700   62.2560 C   0  0  0  0  0  0  0  0  0  0  0  0
   38.8860   82.7490   60.3040 H   0  0  0  0  0  0  0  0  0  0  0  0
   43.0090   83.8800   60.8910 H   0  0  0  0  0  0  0  0  0  0  0  0
   43.4930   84.6640   63.5500 H   0  0  0  0  0  0  0  0  0  0  0  0
   42.0400   84.8610   65.7170 H   0  0  0  0  0  0  0  0  0  0  0  0
   38.4530   83.2370   62.6540 H   0  0  0  0  0  0  0  0  0  0  0  0
   42.3160   83.5740   54.1380 Cl  0  0  0  0  0  0  0  0  0  0  0  0
   43.7060   84.1100   55.0790 C   0  0  0  0  0  0  0  0  0  0  0  0
   43.6740   83.9030   56.4310 C   0  0  0  0  0  0  0  0  0  0  0  0
   44.8050   84.3640   57.0970 C   0  0  0  0  0  0  0  0  0  0  0  0
   45.8720   84.9740   56.4930 C   0  0  0  0  0  0  0  0  0  0  0  0
   45.8480   85.1550   55.1180 C   0  0  0  0  0  0  0  0  0  0  0  0
   47.1600   85.8900   54.2600 Cl  0  0  0  0  0  0  0  0  0  0  0  0
   44.7510   84.7150   54.4250 C   0  0  0  0  0  0  0  0  0  0  0  0
   44.8690   84.2450   58.1740 H   0  0  0  0  0  0  0  0  0  0  0  0
   46.7180   85.3080   57.0670 H   0  0  0  0  0  0  0  0  0  0  0  0
   44.6450   84.8700   52.9710 C   0  0  0  0  0  3  0  0  0  0  0  0
   45.6360   84.0340   52.1740 C   0  0  0  0  0  3  0  0  0  0  0  0
   46.6240   84.5240   52.1700 H   0  0  0  0  0  0  0  0  0  0  0  0
   45.0550   84.0280   50.7540 C   0  0  0  0  0  3  0  0  0  0  0  0
   44.2030   83.3210   50.7350 H   0  0  0  0  0  0  0  0  0  0  0  0
   44.7820   85.2620   50.2490 O   0  0  0  0  0  0  0  0  0  0  0  0
   44.0070   86.1020   51.0060 C   0  0  0  0  0  3  0  0  0  0  0  0
   42.9590   85.8210   51.1270 H   0  0  0  0  0  0  0  0  0  0  0  0
   44.7030   86.2230   52.3830 C   0  0  0  0  0  3  0  0  0  0  0  0
   45.7580   86.4450   52.0310 H   0  0  0  0  0  0  0  0  0  0  0  0
  1  6  1  0  0  0  0
  2  3  1  0  0  0  0
  2  1  2  0  0  0  0
  3  4  2  0  0  0  0
  4  5  1  0  0  0  0
  5 10  1  0  0  0  0
  6  5  2  0  0  0  0
  7  1  1  0  0  0  0
  8  2  1  0  0  0  0
  9 17  1  0  0  0  0
 10  9  2  0  0  0  0
 10 11  1  0  0  0  0
 11 12  2  0  0  0  0
 12 16  1  0  0  0  0
 12 13  1  0  0  0  0
 13 14  1  0  0  0  0
 14 21  1  0  0  0  0
 15 14  2  0  0  0  0
 16 15  1  0  0  0  0
 17 22  1  0  0  0  0
 17 16  2  0  0  0  0
 18  9  1  0  0  0  0
 19 11  1  0  0  0  0
 20 13  1  0  0  0  0
 23 24  1  0  0  0  0
 24 25  1  0  0  0  0
 25  3  1  0  0  0  0
 25 26  2  0  0  0  0
 26 31  1  0  0  0  0
 27 32  1  0  0  0  0
 27 26  1  0  0  0  0
 28 27  2  0  0  0  0
 29 28  1  0  0  0  0
 30 24  2  0  0  0  0
 30 28  1  0  0  0  0
 33 30  1  0  0  0  0
 34 33  1  0  0  0  0
 35 34  1  0  0  0  0
 36 34  1  0  0  0  0
 37 36  1  0  0  0  0
 38 36  1  0  0  0  0
 38 39  1  0  0  0  0
 39 40  1  0  0  0  0
 39 41  1  0  0  0  0
 41 33  1  0  0  0  0
 42 41  1  0  0  0  0
M  END
>  <minimizedAffinity>
-5.10623217

>  <minimizedRMSD>
0.11537715

$$$$
