
 OpenBabel03212520053D

 42 46  0  0  0  0  0  0  0  0999 V2000
   40.7370   81.9050   57.0740 C   0  0  0  0  0  0  0  0  0  0  0  0
   41.8240   82.4830   56.3960 C   0  0  0  0  0  0  0  0  0  0  0  0
   42.6160   83.3710   57.1150 C   0  0  0  0  0  0  0  0  0  0  0  0
   42.3310   83.6490   58.4150 N   0  0  0  0  0  0  0  0  0  0  0  0
   41.2670   83.0630   59.0340 C   0  0  0  0  0  0  0  0  0  0  0  0
   40.4630   82.1890   58.3670 N   0  0  0  0  0  0  0  0  0  0  0  0
   40.0340   81.2020   56.6510 H   0  0  0  0  0  0  0  0  0  0  0  0
   41.8700   82.0900   55.4120 H   0  0  0  0  0  0  0  0  0  0  0  0
   39.6970   83.1170   60.9040 C   0  0  0  0  0  0  0  0  0  0  0  0
   40.9930   83.3420   60.4360 C   0  0  0  0  0  0  0  0  0  0  0  0
   42.0010   83.8030   61.2860 C   0  0  0  0  0  0  0  0  0  0  0  0
   41.7510   84.0510   62.6240 C   0  0  0  0  0  0  0  0  0  0  0  0
   42.4480   84.4780   63.6830 N   0  0  0  0  0  0  0  0  0  0  0  0
   41.6520   84.5280   64.7790 C   0  0  0  0  0  0  0  0  0  0  0  0
   40.4370   84.1120   64.3460 N   0  0  0  0  0  0  0  0  0  0  0  0
   40.4590   83.8130   63.0360 C   0  0  0  0  0  0  0  0  0  0  0  0
   39.4280   83.3620   62.2490 C   0  0  0  0  0  0  0  0  0  0  0  0
   38.9060   82.7670   60.2840 H   0  0  0  0  0  0  0  0  0  0  0  0
   43.0020   83.9740   60.9080 H   0  0  0  0  0  0  0  0  0  0  0  0
   43.4600   84.7170   63.5830 H   0  0  0  0  0  0  0  0  0  0  0  0
   41.9970   84.8430   65.7470 H   0  0  0  0  0  0  0  0  0  0  0  0
   38.4550   83.2020   62.6410 H   0  0  0  0  0  0  0  0  0  0  0  0
   42.6510   83.3160   54.1300 Cl  0  0  0  0  0  0  0  0  0  0  0  0
   43.9050   84.0550   55.1230 C   0  0  0  0  0  0  0  0  0  0  0  0
   43.7470   84.0080   56.4810 C   0  0  0  0  0  0  0  0  0  0  0  0
   44.7760   84.6230   57.1880 C   0  0  0  0  0  0  0  0  0  0  0  0
   45.8630   85.2300   56.6160 C   0  0  0  0  0  0  0  0  0  0  0  0
   45.9680   85.2440   55.2330 C   0  0  0  0  0  0  0  0  0  0  0  0
   47.3170   85.9620   54.4170 Cl  0  0  0  0  0  0  0  0  0  0  0  0
   44.9740   84.6500   54.5000 C   0  0  0  0  0  0  0  0  0  0  0  0
   44.7370   84.6370   58.2730 H   0  0  0  0  0  0  0  0  0  0  0  0
   46.6240   85.6880   57.2210 H   0  0  0  0  0  0  0  0  0  0  0  0
   45.0080   84.6230   53.0350 C   0  0  0  0  0  3  0  0  0  0  0  0
   44.0820   85.6270   52.3630 C   0  0  0  0  0  3  0  0  0  0  0  0
   43.0490   85.2420   52.3640 H   0  0  0  0  0  0  0  0  0  0  0  0
   44.6070   85.7070   50.9240 C   0  0  0  0  0  3  0  0  0  0  0  0
   45.5270   86.3220   50.9270 H   0  0  0  0  0  0  0  0  0  0  0  0
   44.7270   84.5030   50.2980 O   0  0  0  0  0  0  0  0  0  0  0  0
   45.4370   83.5210   50.9400 C   0  0  0  0  0  3  0  0  0  0  0  0
   46.5130   83.6820   51.0350 H   0  0  0  0  0  0  0  0  0  0  0  0
   44.7860   83.3420   52.3320 C   0  0  0  0  0  3  0  0  0  0  0  0
   43.7000   83.2650   52.0120 H   0  0  0  0  0  0  0  0  0  0  0  0
  1  6  1  0  0  0  0
  2  1  2  0  0  0  0
  2  3  1  0  0  0  0
  3  4  2  0  0  0  0
  4  5  1  0  0  0  0
  5 10  1  0  0  0  0
  6  5  2  0  0  0  0
  7  1  1  0  0  0  0
  8  2  1  0  0  0  0
  9 17  1  0  0  0  0
 10  9  2  0  0  0  0
 10 11  1  0  0  0  0
 11 12  2  0  0  0  0
 12 16  1  0  0  0  0
 12 13  1  0  0  0  0
 13 14  1  0  0  0  0
 14 21  1  0  0  0  0
 15 14  2  0  0  0  0
 16 15  1  0  0  0  0
 17 22  1  0  0  0  0
 17 16  2  0  0  0  0
 18  9  1  0  0  0  0
 19 11  1  0  0  0  0
 20 13  1  0  0  0  0
 23 24  1  0  0  0  0
 24 25  1  0  0  0  0
 25  3  1  0  0  0  0
 25 26  2  0  0  0  0
 26 31  1  0  0  0  0
 27 26  1  0  0  0  0
 27 32  1  0  0  0  0
 28 27  2  0  0  0  0
 29 28  1  0  0  0  0
 30 24  2  0  0  0  0
 30 28  1  0  0  0  0
 33 30  1  0  0  0  0
 34 35  1  0  0  0  0
 34 33  1  0  0  0  0
 36 37  1  0  0  0  0
 36 34  1  0  0  0  0
 38 36  1  0  0  0  0
 38 39  1  0  0  0  0
 39 40  1  0  0  0  0
 39 41  1  0  0  0  0
 41 33  1  0  0  0  0
 42 41  1  0  0  0  0
M  END
>  <minimizedAffinity>
-4.99113083

>  <minimizedRMSD>
0.523251295

$$$$
