
 OpenBabel03212521003D

 43 47  0  0  1  0  0  0  0  0999 V2000
   39.7550   77.3630   59.2410 C   0  0  0  0  0  0  0  0  0  0  0  0
   40.4070   76.1900   58.9980 C   0  0  0  0  0  0  0  0  0  0  0  0
   39.8400   75.4860   57.9280 C   0  0  0  0  0  0  0  0  0  0  0  0
   38.7770   75.9050   57.2130 N   0  0  0  0  0  0  0  0  0  0  0  0
   38.2010   77.0970   57.5430 C   0  0  0  0  0  0  0  0  0  0  0  0
   38.6960   77.8290   58.5660 N   0  0  0  0  0  0  0  0  0  0  0  0
   41.2490   75.8100   59.5280 H   0  0  0  0  0  0  0  0  0  0  0  0
   40.2610   74.5240   57.6170 H   0  0  0  0  0  0  0  0  0  0  0  0
   40.9870   80.3130   61.7710 C   0  0  0  0  0  0  0  0  0  0  0  0
   41.0130   79.0790   62.3690 C   0  0  0  0  0  0  0  0  0  0  0  0
   40.6250   78.0130   61.6310 C   0  0  0  0  0  0  0  0  0  0  0  0
   40.2240   78.2070   60.3220 C   0  0  0  0  0  0  0  0  0  0  0  0
   40.3960   80.0240   60.0800 S   0  0  0  0  0  0  0  0  0  0  0  0
   41.3290   78.9280   63.4020 H   0  0  0  0  0  0  0  0  0  0  0  0
   40.5740   76.9710   61.9130 H   0  0  0  0  0  0  0  0  0  0  0  0
   43.0590   83.1250   62.8930 C   0  0  0  0  0  0  0  0  0  0  0  0
   42.1630   83.8910   63.6850 C   0  0  0  0  0  0  0  0  0  0  0  0
   40.8430   83.4330   63.8260 C   0  0  0  0  0  0  0  0  0  0  0  0
   40.4900   82.2900   63.2020 N   0  0  0  0  0  0  0  0  0  0  0  0
   41.3790   81.5780   62.4470 C   0  0  0  0  0  0  0  0  0  0  0  0
   42.6350   82.0110   62.3110 N   0  0  0  0  0  0  0  0  0  0  0  0
   44.0660   83.5120   62.8100 H   0  0  0  0  0  0  0  0  0  0  0  0
   42.4130   84.8110   64.1980 H   0  0  0  0  0  0  0  0  0  0  0  0
   40.0900   83.9300   64.3970 H   0  0  0  0  0  0  0  0  0  0  0  0
   37.0660   77.5340   56.7570 C   0  0  0  0  0  0  0  0  0  0  0  0
   35.9660   77.0100   56.9910 O   0  0  0  0  0  0  0  0  0  0  0  0
   37.1870   78.5820   55.6740 C   0  0  1  0  0  0  0  0  0  0  0  0
   37.2530   79.9860   56.2170 C   0  0  0  0  0  0  0  0  0  0  0  0
   38.4040   79.3690   55.5710 C   0  0  2  0  0  0  0  0  0  0  0  0
   36.3170   78.5170   54.9630 H   0  0  0  0  0  0  0  0  0  0  0  0
   37.2490   80.1190   57.3290 H   0  0  0  0  0  0  0  0  0  0  0  0
   36.6480   80.7710   55.7300 H   0  0  0  0  0  0  0  0  0  0  0  0
   39.2390   79.0420   56.2430 H   0  0  0  0  0  0  0  0  0  0  0  0
   38.9060   79.7730   54.2130 C   0  0  0  0  0  3  0  0  0  0  0  0
   40.0970   79.0040   53.7570 C   0  0  0  0  0  3  0  0  0  0  0  0
   40.7290   78.7660   54.6370 H   0  0  0  0  0  0  0  0  0  0  0  0
   39.7190   77.7700   52.9700 C   0  0  0  0  0  3  0  0  0  0  0  0
   39.8450   77.8920   51.8750 H   0  0  0  0  0  0  0  0  0  0  0  0
   38.3740   77.4990   53.1980 O   0  0  0  0  0  0  0  0  0  0  0  0
   37.6330   78.4470   52.5070 C   0  0  0  0  0  3  0  0  0  0  0  0
   36.5670   78.1660   52.4070 H   0  0  0  0  0  0  0  0  0  0  0  0
   37.7530   79.7510   53.2290 C   0  0  0  0  0  3  0  0  0  0  0  0
   36.8100   79.9100   53.8290 H   0  0  0  0  0  0  0  0  0  0  0  0
  1 12  1  0  0  0  0
  2  1  1  0  0  0  0
  2  7  1  0  0  0  0
  3  2  2  0  0  0  0
  4  5  2  0  0  0  0
  4  3  1  0  0  0  0
  5  6  1  0  0  0  0
  6  1  2  0  0  0  0
  8  3  1  0  0  0  0
  9 10  2  0  0  0  0
  9 20  1  0  0  0  0
 10 14  1  0  0  0  0
 11 15  1  0  0  0  0
 11 10  1  0  0  0  0
 12 11  2  0  0  0  0
 13 12  1  0  0  0  0
 13  9  1  0  0  0  0
 16 17  1  0  0  0  0
 17 18  2  0  0  0  0
 17 23  1  0  0  0  0
 18 24  1  0  0  0  0
 19 18  1  0  0  0  0
 20 19  2  0  0  0  0
 21 20  1  0  0  0  0
 21 16  2  0  0  0  0
 22 16  1  0  0  0  0
 25 26  2  0  0  0  0
 25  5  1  0  0  0  0
 27 30  1  6  0  0  0
 27 28  1  0  0  0  0
 27 25  1  0  0  0  0
 28 31  1  0  0  0  0
 29 27  1  0  0  0  0
 29 28  1  0  0  0  0
 29 33  1  1  0  0  0
 32 28  1  0  0  0  0
 34 29  1  0  0  0  0
 35 34  1  0  0  0  0
 35 36  1  0  0  0  0
 37 39  1  0  0  0  0
 37 35  1  0  0  0  0
 38 37  1  0  0  0  0
 40 39  1  0  0  0  0
 40 42  1  0  0  0  0
 41 40  1  0  0  0  0
 42 43  1  0  0  0  0
 42 34  1  0  0  0  0
M  END
>  <minimizedAffinity>
-6.49203968

>  <minimizedRMSD>
0.946782649

$$$$
