
 OpenBabel03212520053D

 42 46  0  0  0  0  0  0  0  0999 V2000
   40.5660   81.6260   57.2100 C   0  0  0  0  0  0  0  0  0  0  0  0
   41.7670   81.9480   56.5540 C   0  0  0  0  0  0  0  0  0  0  0  0
   42.6950   82.6960   57.2680 C   0  0  0  0  0  0  0  0  0  0  0  0
   42.4300   83.0850   58.5440 N   0  0  0  0  0  0  0  0  0  0  0  0
   41.2530   82.7490   59.1430 C   0  0  0  0  0  0  0  0  0  0  0  0
   40.3130   82.0190   58.4790 N   0  0  0  0  0  0  0  0  0  0  0  0
   39.7510   81.0560   56.7890 H   0  0  0  0  0  0  0  0  0  0  0  0
   41.7640   81.5080   55.5890 H   0  0  0  0  0  0  0  0  0  0  0  0
   39.6860   83.0450   60.9920 C   0  0  0  0  0  0  0  0  0  0  0  0
   40.9960   83.1410   60.5210 C   0  0  0  0  0  0  0  0  0  0  0  0
   42.0330   83.5820   61.3460 C   0  0  0  0  0  0  0  0  0  0  0  0
   41.7980   83.9370   62.6620 C   0  0  0  0  0  0  0  0  0  0  0  0
   42.5210   84.3820   63.6960 N   0  0  0  0  0  0  0  0  0  0  0  0
   41.7270   84.5640   64.7790 C   0  0  0  0  0  0  0  0  0  0  0  0
   40.4860   84.2120   64.3650 N   0  0  0  0  0  0  0  0  0  0  0  0
   40.4900   83.8240   63.0790 C   0  0  0  0  0  0  0  0  0  0  0  0
   39.4310   83.4000   62.3150 C   0  0  0  0  0  0  0  0  0  0  0  0
   38.8720   82.7140   60.3900 H   0  0  0  0  0  0  0  0  0  0  0  0
   43.0450   83.6520   60.9660 H   0  0  0  0  0  0  0  0  0  0  0  0
   43.5490   84.5380   63.5890 H   0  0  0  0  0  0  0  0  0  0  0  0
   42.0920   84.9180   65.7280 H   0  0  0  0  0  0  0  0  0  0  0  0
   38.4470   83.3390   62.7090 H   0  0  0  0  0  0  0  0  0  0  0  0
   42.5030   84.2050   54.6990 Cl  0  0  0  0  0  0  0  0  0  0  0  0
   44.0200   83.7550   55.4740 C   0  0  0  0  0  0  0  0  0  0  0  0
   43.9490   83.0690   56.6550 C   0  0  0  0  0  0  0  0  0  0  0  0
   45.1910   82.7630   57.2030 C   0  0  0  0  0  0  0  0  0  0  0  0
   46.3960   83.0990   56.6420 C   0  0  0  0  0  0  0  0  0  0  0  0
   46.4040   83.7930   55.4420 C   0  0  0  0  0  0  0  0  0  0  0  0
   47.8730   84.2370   54.6410 Cl  0  0  0  0  0  0  0  0  0  0  0  0
   45.2000   84.1150   54.8700 C   0  0  0  0  0  0  0  0  0  0  0  0
   45.2350   82.2210   58.1410 H   0  0  0  0  0  0  0  0  0  0  0  0
   47.3220   82.8310   57.1180 H   0  0  0  0  0  0  0  0  0  0  0  0
   45.1200   84.8490   53.6040 C   0  0  0  0  0  3  0  0  0  0  0  0
   45.5410   84.0470   52.3820 C   0  0  0  0  0  3  0  0  0  0  0  0
   46.6420   84.0140   52.3130 H   0  0  0  0  0  0  0  0  0  0  0  0
   44.9700   84.8440   51.2030 C   0  0  0  0  0  3  0  0  0  0  0  0
   43.8820   84.6480   51.1500 H   0  0  0  0  0  0  0  0  0  0  0  0
   45.3140   86.1610   51.1910 O   0  0  0  0  0  0  0  0  0  0  0  0
   45.0820   86.8890   52.3300 C   0  0  0  0  0  3  0  0  0  0  0  0
   44.0360   87.0700   52.5870 H   0  0  0  0  0  0  0  0  0  0  0  0
   45.8070   86.1510   53.4800 C   0  0  0  0  0  3  0  0  0  0  0  0
   46.8200   86.0070   52.9900 H   0  0  0  0  0  0  0  0  0  0  0  0
  1  6  1  0  0  0  0
  2  1  2  0  0  0  0
  2  3  1  0  0  0  0
  3  4  2  0  0  0  0
  4  5  1  0  0  0  0
  5 10  1  0  0  0  0
  6  5  2  0  0  0  0
  7  1  1  0  0  0  0
  8  2  1  0  0  0  0
  9 17  1  0  0  0  0
 10  9  2  0  0  0  0
 10 11  1  0  0  0  0
 11 12  2  0  0  0  0
 12 16  1  0  0  0  0
 12 13  1  0  0  0  0
 13 14  1  0  0  0  0
 14 21  1  0  0  0  0
 15 14  2  0  0  0  0
 16 15  1  0  0  0  0
 17 22  1  0  0  0  0
 17 16  2  0  0  0  0
 18  9  1  0  0  0  0
 19 11  1  0  0  0  0
 20 13  1  0  0  0  0
 23 24  1  0  0  0  0
 24 25  1  0  0  0  0
 25 26  2  0  0  0  0
 25  3  1  0  0  0  0
 26 31  1  0  0  0  0
 27 32  1  0  0  0  0
 27 26  1  0  0  0  0
 28 27  2  0  0  0  0
 29 28  1  0  0  0  0
 30 28  1  0  0  0  0
 30 24  2  0  0  0  0
 33 30  1  0  0  0  0
 34 33  1  0  0  0  0
 35 34  1  0  0  0  0
 36 34  1  0  0  0  0
 37 36  1  0  0  0  0
 38 36  1  0  0  0  0
 38 39  1  0  0  0  0
 39 40  1  0  0  0  0
 39 41  1  0  0  0  0
 41 33  1  0  0  0  0
 42 41  1  0  0  0  0
M  END
>  <minimizedAffinity>
-4.82598686

>  <minimizedRMSD>
0.991580307

$$$$
