
 OpenBabel03212520053D

 42 46  0  0  0  0  0  0  0  0999 V2000
   40.7370   81.9040   57.0740 C   0  0  0  0  0  0  0  0  0  0  0  0
   41.8240   82.4820   56.3960 C   0  0  0  0  0  0  0  0  0  0  0  0
   42.6150   83.3710   57.1150 C   0  0  0  0  0  0  0  0  0  0  0  0
   42.3300   83.6490   58.4150 N   0  0  0  0  0  0  0  0  0  0  0  0
   41.2670   83.0630   59.0340 C   0  0  0  0  0  0  0  0  0  0  0  0
   40.4630   82.1880   58.3670 N   0  0  0  0  0  0  0  0  0  0  0  0
   40.0340   81.2010   56.6520 H   0  0  0  0  0  0  0  0  0  0  0  0
   41.8690   82.0890   55.4120 H   0  0  0  0  0  0  0  0  0  0  0  0
   39.6970   83.1170   60.9040 C   0  0  0  0  0  0  0  0  0  0  0  0
   40.9930   83.3420   60.4360 C   0  0  0  0  0  0  0  0  0  0  0  0
   42.0020   83.8030   61.2850 C   0  0  0  0  0  0  0  0  0  0  0  0
   41.7510   84.0510   62.6240 C   0  0  0  0  0  0  0  0  0  0  0  0
   42.4480   84.4780   63.6820 N   0  0  0  0  0  0  0  0  0  0  0  0
   41.6520   84.5280   64.7780 C   0  0  0  0  0  0  0  0  0  0  0  0
   40.4370   84.1120   64.3460 N   0  0  0  0  0  0  0  0  0  0  0  0
   40.4590   83.8130   63.0360 C   0  0  0  0  0  0  0  0  0  0  0  0
   39.4280   83.3620   62.2490 C   0  0  0  0  0  0  0  0  0  0  0  0
   38.9060   82.7670   60.2840 H   0  0  0  0  0  0  0  0  0  0  0  0
   43.0020   83.9730   60.9070 H   0  0  0  0  0  0  0  0  0  0  0  0
   43.4610   84.7170   63.5830 H   0  0  0  0  0  0  0  0  0  0  0  0
   41.9980   84.8430   65.7470 H   0  0  0  0  0  0  0  0  0  0  0  0
   38.4550   83.2020   62.6410 H   0  0  0  0  0  0  0  0  0  0  0  0
   42.6500   83.3150   54.1300 Cl  0  0  0  0  0  0  0  0  0  0  0  0
   43.9030   84.0550   55.1220 C   0  0  0  0  0  0  0  0  0  0  0  0
   43.7460   84.0080   56.4810 C   0  0  0  0  0  0  0  0  0  0  0  0
   44.7750   84.6240   57.1870 C   0  0  0  0  0  0  0  0  0  0  0  0
   45.8610   85.2310   56.6140 C   0  0  0  0  0  0  0  0  0  0  0  0
   45.9660   85.2450   55.2320 C   0  0  0  0  0  0  0  0  0  0  0  0
   47.3140   85.9630   54.4150 Cl  0  0  0  0  0  0  0  0  0  0  0  0
   44.9730   84.6500   54.4990 C   0  0  0  0  0  0  0  0  0  0  0  0
   44.7360   84.6380   58.2720 H   0  0  0  0  0  0  0  0  0  0  0  0
   46.6230   85.6900   57.2190 H   0  0  0  0  0  0  0  0  0  0  0  0
   45.0060   84.6230   53.0340 C   0  0  0  0  0  3  0  0  0  0  0  0
   44.0810   85.6260   52.3620 C   0  0  0  0  0  3  0  0  0  0  0  0
   43.0460   85.2430   52.3620 H   0  0  0  0  0  0  0  0  0  0  0  0
   44.6050   85.7060   50.9220 C   0  0  0  0  0  3  0  0  0  0  0  0
   45.5250   86.3210   50.9260 H   0  0  0  0  0  0  0  0  0  0  0  0
   44.7250   84.5020   50.2970 O   0  0  0  0  0  0  0  0  0  0  0  0
   45.4340   83.5200   50.9380 C   0  0  0  0  0  3  0  0  0  0  0  0
   46.5100   83.6810   51.0340 H   0  0  0  0  0  0  0  0  0  0  0  0
   44.7830   83.3430   52.3310 C   0  0  0  0  0  3  0  0  0  0  0  0
   43.6960   83.2650   52.0120 H   0  0  0  0  0  0  0  0  0  0  0  0
  1  6  1  0  0  0  0
  2  1  2  0  0  0  0
  2  3  1  0  0  0  0
  3  4  2  0  0  0  0
  4  5  1  0  0  0  0
  5 10  1  0  0  0  0
  6  5  2  0  0  0  0
  7  1  1  0  0  0  0
  8  2  1  0  0  0  0
  9 17  1  0  0  0  0
 10  9  2  0  0  0  0
 10 11  1  0  0  0  0
 11 12  2  0  0  0  0
 12 16  1  0  0  0  0
 12 13  1  0  0  0  0
 13 14  1  0  0  0  0
 14 21  1  0  0  0  0
 15 14  2  0  0  0  0
 16 15  1  0  0  0  0
 17 22  1  0  0  0  0
 17 16  2  0  0  0  0
 18  9  1  0  0  0  0
 19 11  1  0  0  0  0
 20 13  1  0  0  0  0
 23 24  1  0  0  0  0
 24 25  1  0  0  0  0
 25  3  1  0  0  0  0
 25 26  2  0  0  0  0
 26 31  1  0  0  0  0
 27 26  1  0  0  0  0
 27 32  1  0  0  0  0
 28 27  2  0  0  0  0
 29 28  1  0  0  0  0
 30 24  2  0  0  0  0
 30 28  1  0  0  0  0
 33 30  1  0  0  0  0
 34 33  1  0  0  0  0
 35 34  1  0  0  0  0
 36 37  1  0  0  0  0
 36 34  1  0  0  0  0
 38 36  1  0  0  0  0
 38 39  1  0  0  0  0
 39 40  1  0  0  0  0
 39 41  1  0  0  0  0
 41 33  1  0  0  0  0
 42 41  1  0  0  0  0
M  END
>  <minimizedAffinity>
-4.9886198

>  <minimizedRMSD>
0.675424039

$$$$
