
 OpenBabel03212520053D

 42 46  0  0  0  0  0  0  0  0999 V2000
   40.7170   81.7510   57.1200 C   0  0  0  0  0  0  0  0  0  0  0  0
   41.7840   82.3320   56.4140 C   0  0  0  0  0  0  0  0  0  0  0  0
   42.5650   83.2550   57.0980 C   0  0  0  0  0  0  0  0  0  0  0  0
   42.2910   83.5620   58.3940 N   0  0  0  0  0  0  0  0  0  0  0  0
   41.2470   82.9720   59.0420 C   0  0  0  0  0  0  0  0  0  0  0  0
   40.4530   82.0640   58.4090 N   0  0  0  0  0  0  0  0  0  0  0  0
   40.0230   81.0230   56.7260 H   0  0  0  0  0  0  0  0  0  0  0  0
   41.8250   81.9140   55.4390 H   0  0  0  0  0  0  0  0  0  0  0  0
   39.6850   83.0960   60.9150 C   0  0  0  0  0  0  0  0  0  0  0  0
   40.9840   83.2840   60.4390 C   0  0  0  0  0  0  0  0  0  0  0  0
   42.0060   83.7380   61.2770 C   0  0  0  0  0  0  0  0  0  0  0  0
   41.7660   84.0160   62.6110 C   0  0  0  0  0  0  0  0  0  0  0  0
   42.4760   84.4480   63.6590 N   0  0  0  0  0  0  0  0  0  0  0  0
   41.6850   84.5350   64.7570 C   0  0  0  0  0  0  0  0  0  0  0  0
   40.4590   84.1390   64.3360 N   0  0  0  0  0  0  0  0  0  0  0  0
   40.4700   83.8150   63.0320 C   0  0  0  0  0  0  0  0  0  0  0  0
   39.4270   83.3720   62.2570 C   0  0  0  0  0  0  0  0  0  0  0  0
   38.8840   82.7520   60.3050 H   0  0  0  0  0  0  0  0  0  0  0  0
   43.0080   83.8790   60.8920 H   0  0  0  0  0  0  0  0  0  0  0  0
   43.4930   84.6620   63.5520 H   0  0  0  0  0  0  0  0  0  0  0  0
   42.0410   84.8610   65.7180 H   0  0  0  0  0  0  0  0  0  0  0  0
   38.4510   83.2410   62.6550 H   0  0  0  0  0  0  0  0  0  0  0  0
   42.3150   83.5790   54.1410 Cl  0  0  0  0  0  0  0  0  0  0  0  0
   43.7070   84.1080   55.0820 C   0  0  0  0  0  0  0  0  0  0  0  0
   43.6760   83.8980   56.4330 C   0  0  0  0  0  0  0  0  0  0  0  0
   44.8090   84.3530   57.1000 C   0  0  0  0  0  0  0  0  0  0  0  0
   45.8780   84.9610   56.4960 C   0  0  0  0  0  0  0  0  0  0  0  0
   45.8540   85.1450   55.1220 C   0  0  0  0  0  0  0  0  0  0  0  0
   47.1680   85.8770   54.2640 Cl  0  0  0  0  0  0  0  0  0  0  0  0
   44.7540   84.7110   54.4290 C   0  0  0  0  0  0  0  0  0  0  0  0
   44.8740   84.2310   58.1760 H   0  0  0  0  0  0  0  0  0  0  0  0
   46.7250   85.2900   57.0710 H   0  0  0  0  0  0  0  0  0  0  0  0
   44.6480   84.8690   52.9750 C   0  0  0  0  0  3  0  0  0  0  0  0
   45.6340   84.0300   52.1750 C   0  0  0  0  0  3  0  0  0  0  0  0
   46.6250   84.5180   52.1720 H   0  0  0  0  0  0  0  0  0  0  0  0
   45.0520   84.0300   50.7550 C   0  0  0  0  0  3  0  0  0  0  0  0
   44.1980   83.3270   50.7350 H   0  0  0  0  0  0  0  0  0  0  0  0
   44.7830   85.2670   50.2540 O   0  0  0  0  0  0  0  0  0  0  0  0
   44.0130   86.1080   51.0140 C   0  0  0  0  0  3  0  0  0  0  0  0
   42.9640   85.8310   51.1350 H   0  0  0  0  0  0  0  0  0  0  0  0
   44.7100   86.2240   52.3900 C   0  0  0  0  0  3  0  0  0  0  0  0
   45.7660   86.4420   52.0370 H   0  0  0  0  0  0  0  0  0  0  0  0
  1  6  1  0  0  0  0
  2  3  1  0  0  0  0
  2  1  2  0  0  0  0
  3  4  2  0  0  0  0
  4  5  1  0  0  0  0
  5 10  1  0  0  0  0
  6  5  2  0  0  0  0
  7  1  1  0  0  0  0
  8  2  1  0  0  0  0
  9 17  1  0  0  0  0
 10  9  2  0  0  0  0
 10 11  1  0  0  0  0
 11 12  2  0  0  0  0
 12 16  1  0  0  0  0
 12 13  1  0  0  0  0
 13 14  1  0  0  0  0
 14 21  1  0  0  0  0
 15 14  2  0  0  0  0
 16 15  1  0  0  0  0
 17 22  1  0  0  0  0
 17 16  2  0  0  0  0
 18  9  1  0  0  0  0
 19 11  1  0  0  0  0
 20 13  1  0  0  0  0
 23 24  1  0  0  0  0
 24 25  1  0  0  0  0
 25  3  1  0  0  0  0
 25 26  2  0  0  0  0
 26 31  1  0  0  0  0
 27 32  1  0  0  0  0
 27 26  1  0  0  0  0
 28 27  2  0  0  0  0
 29 28  1  0  0  0  0
 30 24  2  0  0  0  0
 30 28  1  0  0  0  0
 33 30  1  0  0  0  0
 34 33  1  0  0  0  0
 35 34  1  0  0  0  0
 36 34  1  0  0  0  0
 37 36  1  0  0  0  0
 38 36  1  0  0  0  0
 38 39  1  0  0  0  0
 39 40  1  0  0  0  0
 39 41  1  0  0  0  0
 41 33  1  0  0  0  0
 42 41  1  0  0  0  0
M  END
>  <minimizedAffinity>
-5.10404396

>  <minimizedRMSD>
0.521981835

$$$$
