
 OpenBabel03212520053D

 42 46  0  0  0  0  0  0  0  0999 V2000
   40.7150   81.7500   57.1200 C   0  0  0  0  0  0  0  0  0  0  0  0
   41.7810   82.3320   56.4130 C   0  0  0  0  0  0  0  0  0  0  0  0
   42.5620   83.2560   57.0970 C   0  0  0  0  0  0  0  0  0  0  0  0
   42.2880   83.5630   58.3930 N   0  0  0  0  0  0  0  0  0  0  0  0
   41.2450   82.9720   59.0410 C   0  0  0  0  0  0  0  0  0  0  0  0
   40.4520   82.0630   58.4090 N   0  0  0  0  0  0  0  0  0  0  0  0
   40.0220   81.0210   56.7270 H   0  0  0  0  0  0  0  0  0  0  0  0
   41.8230   81.9140   55.4390 H   0  0  0  0  0  0  0  0  0  0  0  0
   39.6840   83.0960   60.9160 C   0  0  0  0  0  0  0  0  0  0  0  0
   40.9830   83.2830   60.4390 C   0  0  0  0  0  0  0  0  0  0  0  0
   42.0050   83.7370   61.2760 C   0  0  0  0  0  0  0  0  0  0  0  0
   41.7660   84.0150   62.6100 C   0  0  0  0  0  0  0  0  0  0  0  0
   42.4760   84.4470   63.6590 N   0  0  0  0  0  0  0  0  0  0  0  0
   41.6850   84.5340   64.7560 C   0  0  0  0  0  0  0  0  0  0  0  0
   40.4600   84.1380   64.3360 N   0  0  0  0  0  0  0  0  0  0  0  0
   40.4700   83.8140   63.0320 C   0  0  0  0  0  0  0  0  0  0  0  0
   39.4260   83.3720   62.2570 C   0  0  0  0  0  0  0  0  0  0  0  0
   38.8830   82.7520   60.3050 H   0  0  0  0  0  0  0  0  0  0  0  0
   43.0070   83.8780   60.8910 H   0  0  0  0  0  0  0  0  0  0  0  0
   43.4930   84.6610   63.5510 H   0  0  0  0  0  0  0  0  0  0  0  0
   42.0420   84.8600   65.7180 H   0  0  0  0  0  0  0  0  0  0  0  0
   38.4510   83.2410   62.6560 H   0  0  0  0  0  0  0  0  0  0  0  0
   42.3120   83.5740   54.1390 Cl  0  0  0  0  0  0  0  0  0  0  0  0
   43.7030   84.1080   55.0790 C   0  0  0  0  0  0  0  0  0  0  0  0
   43.6710   83.9000   56.4310 C   0  0  0  0  0  0  0  0  0  0  0  0
   44.8030   84.3600   57.0980 C   0  0  0  0  0  0  0  0  0  0  0  0
   45.8710   84.9690   56.4930 C   0  0  0  0  0  0  0  0  0  0  0  0
   45.8470   85.1500   55.1180 C   0  0  0  0  0  0  0  0  0  0  0  0
   47.1600   85.8830   54.2600 Cl  0  0  0  0  0  0  0  0  0  0  0  0
   44.7490   84.7120   54.4260 C   0  0  0  0  0  0  0  0  0  0  0  0
   44.8670   84.2400   58.1740 H   0  0  0  0  0  0  0  0  0  0  0  0
   46.7170   85.3020   57.0670 H   0  0  0  0  0  0  0  0  0  0  0  0
   44.6430   84.8660   52.9720 C   0  0  0  0  0  3  0  0  0  0  0  0
   45.6320   84.0280   52.1740 C   0  0  0  0  0  3  0  0  0  0  0  0
   46.6210   84.5170   52.1700 H   0  0  0  0  0  0  0  0  0  0  0  0
   45.0510   84.0240   50.7540 C   0  0  0  0  0  3  0  0  0  0  0  0
   44.1980   83.3180   50.7350 H   0  0  0  0  0  0  0  0  0  0  0  0
   44.7800   85.2590   50.2490 O   0  0  0  0  0  0  0  0  0  0  0  0
   44.0070   86.1000   51.0070 C   0  0  0  0  0  3  0  0  0  0  0  0
   42.9570   85.8200   51.1280 H   0  0  0  0  0  0  0  0  0  0  0  0
   44.7030   86.2200   52.3840 C   0  0  0  0  0  3  0  0  0  0  0  0
   45.7590   86.4400   52.0320 H   0  0  0  0  0  0  0  0  0  0  0  0
  1  6  1  0  0  0  0
  2  3  1  0  0  0  0
  2  1  2  0  0  0  0
  3  4  2  0  0  0  0
  4  5  1  0  0  0  0
  5 10  1  0  0  0  0
  6  5  2  0  0  0  0
  7  1  1  0  0  0  0
  8  2  1  0  0  0  0
  9 17  1  0  0  0  0
 10  9  2  0  0  0  0
 10 11  1  0  0  0  0
 11 12  2  0  0  0  0
 12 16  1  0  0  0  0
 12 13  1  0  0  0  0
 13 14  1  0  0  0  0
 14 21  1  0  0  0  0
 15 14  2  0  0  0  0
 16 15  1  0  0  0  0
 17 22  1  0  0  0  0
 17 16  2  0  0  0  0
 18  9  1  0  0  0  0
 19 11  1  0  0  0  0
 20 13  1  0  0  0  0
 23 24  1  0  0  0  0
 24 25  1  0  0  0  0
 25  3  1  0  0  0  0
 25 26  2  0  0  0  0
 26 31  1  0  0  0  0
 27 32  1  0  0  0  0
 27 26  1  0  0  0  0
 28 27  2  0  0  0  0
 29 28  1  0  0  0  0
 30 24  2  0  0  0  0
 30 28  1  0  0  0  0
 33 30  1  0  0  0  0
 34 33  1  0  0  0  0
 35 34  1  0  0  0  0
 36 34  1  0  0  0  0
 37 36  1  0  0  0  0
 38 36  1  0  0  0  0
 38 39  1  0  0  0  0
 39 40  1  0  0  0  0
 39 41  1  0  0  0  0
 41 33  1  0  0  0  0
 42 41  1  0  0  0  0
M  END
>  <minimizedAffinity>
-5.10540295

>  <minimizedRMSD>
0.310051322

$$$$
