
 OpenBabel03212521003D

 43 47  0  0  1  0  0  0  0  0999 V2000
   39.6990   77.1650   59.0770 C   0  0  0  0  0  0  0  0  0  0  0  0
   40.4070   76.0370   58.7860 C   0  0  0  0  0  0  0  0  0  0  0  0
   39.8450   75.3240   57.7200 C   0  0  0  0  0  0  0  0  0  0  0  0
   38.7370   75.6960   57.0500 N   0  0  0  0  0  0  0  0  0  0  0  0
   38.1060   76.8470   57.4250 C   0  0  0  0  0  0  0  0  0  0  0  0
   38.5940   77.5850   58.4480 N   0  0  0  0  0  0  0  0  0  0  0  0
   41.2870   75.6940   59.2800 H   0  0  0  0  0  0  0  0  0  0  0  0
   40.3080   74.3940   57.3740 H   0  0  0  0  0  0  0  0  0  0  0  0
   40.9520   80.1150   61.5980 C   0  0  0  0  0  0  0  0  0  0  0  0
   40.8880   78.8960   62.2240 C   0  0  0  0  0  0  0  0  0  0  0  0
   40.4830   77.8320   61.4920 C   0  0  0  0  0  0  0  0  0  0  0  0
   40.1570   78.0120   60.1600 C   0  0  0  0  0  0  0  0  0  0  0  0
   40.4300   79.8120   59.8860 S   0  0  0  0  0  0  0  0  0  0  0  0
   41.1450   78.7560   63.2750 H   0  0  0  0  0  0  0  0  0  0  0  0
   40.3660   76.8010   61.7940 H   0  0  0  0  0  0  0  0  0  0  0  0
   43.0880   82.8880   62.6950 C   0  0  0  0  0  0  0  0  0  0  0  0
   42.2110   83.6800   63.4830 C   0  0  0  0  0  0  0  0  0  0  0  0
   40.8810   83.2520   63.6300 C   0  0  0  0  0  0  0  0  0  0  0  0
   40.5020   82.1120   63.0150 N   0  0  0  0  0  0  0  0  0  0  0  0
   41.3740   81.3750   62.2630 C   0  0  0  0  0  0  0  0  0  0  0  0
   42.6390   81.7800   62.1220 N   0  0  0  0  0  0  0  0  0  0  0  0
   44.1030   83.2520   62.6070 H   0  0  0  0  0  0  0  0  0  0  0  0
   42.4820   84.5970   63.9890 H   0  0  0  0  0  0  0  0  0  0  0  0
   40.1410   83.7700   64.1980 H   0  0  0  0  0  0  0  0  0  0  0  0
   36.9220   77.2340   56.6860 C   0  0  0  0  0  0  0  0  0  0  0  0
   35.8270   77.1440   57.2620 O   0  0  0  0  0  0  0  0  0  0  0  0
   36.9850   77.7250   55.2580 C   0  0  1  0  0  0  0  0  0  0  0  0
   37.2370   79.2070   55.1540 C   0  0  0  0  0  0  0  0  0  0  0  0
   38.2380   78.2370   54.7300 C   0  0  2  0  0  0  0  0  0  0  0  0
   36.0260   77.4900   54.7180 H   0  0  0  0  0  0  0  0  0  0  0  0
   37.3910   79.7810   56.1040 H   0  0  0  0  0  0  0  0  0  0  0  0
   36.6400   79.7970   54.4370 H   0  0  0  0  0  0  0  0  0  0  0  0
   39.1250   78.1060   55.4030 H   0  0  0  0  0  0  0  0  0  0  0  0
   38.5870   77.9850   53.2900 C   0  0  0  0  0  3  0  0  0  0  0  0
   37.8310   78.8350   52.3290 C   0  0  0  0  0  3  0  0  0  0  0  0
   36.8100   79.0070   52.7270 H   0  0  0  0  0  0  0  0  0  0  0  0
   38.5480   80.1280   52.0140 C   0  0  0  0  0  3  0  0  0  0  0  0
   39.0570   80.1190   51.0280 H   0  0  0  0  0  0  0  0  0  0  0  0
   39.5320   80.3290   52.9770 O   0  0  0  0  0  0  0  0  0  0  0  0
   40.5560   79.4300   52.7230 C   0  0  0  0  0  3  0  0  0  0  0  0
   41.4910   79.6830   53.2620 H   0  0  0  0  0  0  0  0  0  0  0  0
   40.0920   78.0660   53.1210 C   0  0  0  0  0  3  0  0  0  0  0  0
   40.5450   77.8170   54.1250 H   0  0  0  0  0  0  0  0  0  0  0  0
  1 12  1  0  0  0  0
  2  1  1  0  0  0  0
  2  7  1  0  0  0  0
  3  2  2  0  0  0  0
  4  5  2  0  0  0  0
  4  3  1  0  0  0  0
  5  6  1  0  0  0  0
  6  1  2  0  0  0  0
  8  3  1  0  0  0  0
  9 10  2  0  0  0  0
  9 20  1  0  0  0  0
 10 14  1  0  0  0  0
 11 15  1  0  0  0  0
 11 10  1  0  0  0  0
 12 11  2  0  0  0  0
 13 12  1  0  0  0  0
 13  9  1  0  0  0  0
 16 17  1  0  0  0  0
 17 18  2  0  0  0  0
 17 23  1  0  0  0  0
 18 24  1  0  0  0  0
 19 18  1  0  0  0  0
 20 19  2  0  0  0  0
 21 20  1  0  0  0  0
 21 16  2  0  0  0  0
 22 16  1  0  0  0  0
 25 26  2  0  0  0  0
 25  5  1  0  0  0  0
 27 30  1  6  0  0  0
 27 25  1  0  0  0  0
 28 27  1  0  0  0  0
 28 31  1  0  0  0  0
 29 28  1  0  0  0  0
 29 27  1  0  0  0  0
 29 33  1  1  0  0  0
 32 28  1  0  0  0  0
 34 29  1  0  0  0  0
 35 36  1  0  0  0  0
 35 34  1  0  0  0  0
 37 35  1  0  0  0  0
 37 39  1  0  0  0  0
 38 37  1  0  0  0  0
 40 39  1  0  0  0  0
 40 42  1  0  0  0  0
 40 41  1  0  0  0  0
 42 34  1  0  0  0  0
 42 43  1  0  0  0  0
M  END
>  <minimizedAffinity>
-6.39669371

>  <minimizedRMSD>
1.18379235

$$$$
