
 OpenBabel03212521003D

 43 47  0  0  1  0  0  0  0  0999 V2000
   39.8030   77.4170   59.1740 C   0  0  0  0  0  0  0  0  0  0  0  0
   40.5040   76.2820   58.8940 C   0  0  0  0  0  0  0  0  0  0  0  0
   39.9590   75.5810   57.8110 C   0  0  0  0  0  0  0  0  0  0  0  0
   38.8710   75.9700   57.1180 N   0  0  0  0  0  0  0  0  0  0  0  0
   38.2450   77.1260   57.4850 C   0  0  0  0  0  0  0  0  0  0  0  0
   38.7170   77.8530   58.5220 N   0  0  0  0  0  0  0  0  0  0  0  0
   41.3680   75.9260   59.4060 H   0  0  0  0  0  0  0  0  0  0  0  0
   40.4200   74.6480   57.4700 H   0  0  0  0  0  0  0  0  0  0  0  0
   40.9830   80.3470   61.7520 C   0  0  0  0  0  0  0  0  0  0  0  0
   40.9750   79.1110   62.3470 C   0  0  0  0  0  0  0  0  0  0  0  0
   40.6000   78.0510   61.5940 C   0  0  0  0  0  0  0  0  0  0  0  0
   40.2460   78.2530   60.2720 C   0  0  0  0  0  0  0  0  0  0  0  0
   40.4460   80.0690   60.0420 S   0  0  0  0  0  0  0  0  0  0  0  0
   41.2540   78.9540   63.3910 H   0  0  0  0  0  0  0  0  0  0  0  0
   40.5270   77.0090   61.8710 H   0  0  0  0  0  0  0  0  0  0  0  0
   43.0390   83.1530   62.9180 C   0  0  0  0  0  0  0  0  0  0  0  0
   42.1360   83.9080   63.7130 C   0  0  0  0  0  0  0  0  0  0  0  0
   40.8160   83.4430   63.8410 C   0  0  0  0  0  0  0  0  0  0  0  0
   40.4710   82.3050   63.2020 N   0  0  0  0  0  0  0  0  0  0  0  0
   41.3670   81.6060   62.4450 C   0  0  0  0  0  0  0  0  0  0  0  0
   42.6220   82.0450   62.3210 N   0  0  0  0  0  0  0  0  0  0  0  0
   44.0450   83.5440   62.8450 H   0  0  0  0  0  0  0  0  0  0  0  0
   42.3790   84.8220   64.2380 H   0  0  0  0  0  0  0  0  0  0  0  0
   40.0580   83.9310   64.4130 H   0  0  0  0  0  0  0  0  0  0  0  0
   37.0820   77.5310   56.7210 C   0  0  0  0  0  0  0  0  0  0  0  0
   35.9850   77.0500   57.0410 O   0  0  0  0  0  0  0  0  0  0  0  0
   37.1730   78.4970   55.5620 C   0  0  1  0  0  0  0  0  0  0  0  0
   37.2300   79.9380   55.9970 C   0  0  0  0  0  0  0  0  0  0  0  0
   38.3780   79.2870   55.3790 C   0  0  2  0  0  0  0  0  0  0  0  0
   36.2920   78.3700   54.8730 H   0  0  0  0  0  0  0  0  0  0  0  0
   37.2420   80.1540   57.0970 H   0  0  0  0  0  0  0  0  0  0  0  0
   36.6080   80.6780   55.4640 H   0  0  0  0  0  0  0  0  0  0  0  0
   39.2280   79.0210   56.0590 H   0  0  0  0  0  0  0  0  0  0  0  0
   38.8530   79.5950   53.9870 C   0  0  0  0  0  3  0  0  0  0  0  0
   40.3160   79.8580   53.8930 C   0  0  0  0  0  3  0  0  0  0  0  0
   40.6500   80.3680   54.8190 H   0  0  0  0  0  0  0  0  0  0  0  0
   41.1100   78.6010   53.6140 C   0  0  0  0  0  3  0  0  0  0  0  0
   41.4370   78.5150   52.5580 H   0  0  0  0  0  0  0  0  0  0  0  0
   40.2990   77.5020   53.8810 O   0  0  0  0  0  0  0  0  0  0  0  0
   39.3640   77.4150   52.8590 C   0  0  0  0  0  3  0  0  0  0  0  0
   38.8490   76.4340   52.8350 H   0  0  0  0  0  0  0  0  0  0  0  0
   38.3660   78.5130   53.0440 C   0  0  0  0  0  3  0  0  0  0  0  0
   37.4370   78.0710   53.5090 H   0  0  0  0  0  0  0  0  0  0  0  0
  1 12  1  0  0  0  0
  2  1  1  0  0  0  0
  2  7  1  0  0  0  0
  3  2  2  0  0  0  0
  4  5  2  0  0  0  0
  4  3  1  0  0  0  0
  5  6  1  0  0  0  0
  6  1  2  0  0  0  0
  8  3  1  0  0  0  0
  9 10  2  0  0  0  0
  9 20  1  0  0  0  0
 10 14  1  0  0  0  0
 11 15  1  0  0  0  0
 11 10  1  0  0  0  0
 12 11  2  0  0  0  0
 13 12  1  0  0  0  0
 13  9  1  0  0  0  0
 16 17  1  0  0  0  0
 17 18  2  0  0  0  0
 17 23  1  0  0  0  0
 18 24  1  0  0  0  0
 19 18  1  0  0  0  0
 20 19  2  0  0  0  0
 21 20  1  0  0  0  0
 21 16  2  0  0  0  0
 22 16  1  0  0  0  0
 25 26  2  0  0  0  0
 25  5  1  0  0  0  0
 27 30  1  6  0  0  0
 27 28  1  0  0  0  0
 27 25  1  0  0  0  0
 28 31  1  0  0  0  0
 29 27  1  0  0  0  0
 29 28  1  0  0  0  0
 29 33  1  1  0  0  0
 32 28  1  0  0  0  0
 34 29  1  0  0  0  0
 35 34  1  0  0  0  0
 35 36  1  0  0  0  0
 37 39  1  0  0  0  0
 37 35  1  0  0  0  0
 38 37  1  0  0  0  0
 40 42  1  0  0  0  0
 40 39  1  0  0  0  0
 41 40  1  0  0  0  0
 42 43  1  0  0  0  0
 42 34  1  0  0  0  0
M  END
>  <minimizedAffinity>
-6.2860775

>  <minimizedRMSD>
1.21721733

$$$$
