
 OpenBabel03212520323D

 42 45  0  0  0  0  0  0  0  0999 V2000
   42.0830   82.4890   61.9960 C   0  0  0  0  0  0  0  0  0  0  0  0
   42.8400   81.4290   61.5370 C   0  0  0  0  0  0  0  0  0  0  0  0
   44.1740   81.3200   61.8730 C   0  0  0  0  0  0  0  0  0  0  0  0
   44.8270   82.2540   62.6810 C   0  0  0  0  0  0  0  0  0  0  0  0
   44.0940   83.3140   63.1470 C   0  0  0  0  0  0  0  0  0  0  0  0
   42.7530   83.4170   62.8060 C   0  0  0  0  0  0  0  0  0  0  0  0
   44.7980   80.4900   61.5220 H   0  0  0  0  0  0  0  0  0  0  0  0
   45.8720   82.1560   62.9350 H   0  0  0  0  0  0  0  0  0  0  0  0
   44.5110   84.0890   63.7800 H   0  0  0  0  0  0  0  0  0  0  0  0
   42.1580   84.2570   63.1710 H   0  0  0  0  0  0  0  0  0  0  0  0
   41.1100   78.3560   60.4300 C   0  0  0  0  0  0  0  0  0  0  0  0
   41.1920   78.4710   59.0430 C   0  0  0  0  0  0  0  0  0  0  0  0
   41.8500   79.6070   58.5200 C   0  0  0  0  0  0  0  0  0  0  0  0
   42.3470   80.4930   59.4190 N   0  0  0  0  0  0  0  0  0  0  0  0
   42.2620   80.3740   60.7230 C   0  0  0  0  0  0  0  0  0  0  0  0
   41.6370   79.2940   61.2270 N   0  0  0  0  0  0  0  0  0  0  0  0
   40.6230   77.5140   60.9010 H   0  0  0  0  0  0  0  0  0  0  0  0
   41.9290   79.7250   57.4410 H   0  0  0  0  0  0  0  0  0  0  0  0
   40.6310   77.4780   58.1980 N   0  0  0  0  0  0  0  0  0  0  0  0
   39.3030   77.3660   58.2980 C   0  0  0  0  0  0  0  0  0  0  0  0
   38.6550   76.4190   57.5100 C   0  0  0  0  0  0  0  0  0  0  0  0
   39.4020   75.6290   56.6550 C   0  0  0  0  0  0  0  0  0  0  0  0
   38.9290   74.7400   55.8960 O   0  0  0  0  0  0  0  0  0  0  0  0
   40.7550   75.7980   56.6060 N   0  0  0  0  0  0  0  0  0  0  0  0
   41.3840   76.7280   57.3790 C   0  0  0  0  0  0  0  0  0  0  0  0
   42.6170   76.8930   57.3440 O   0  0  0  0  0  0  0  0  0  0  0  0
   38.6850   77.9540   58.9440 H   0  0  0  0  0  0  0  0  0  0  0  0
   37.5970   76.2720   57.5350 H   0  0  0  0  0  0  0  0  0  0  0  0
   41.3960   75.2550   55.9980 H   0  0  0  0  0  0  0  0  0  0  0  0
   40.4230   82.6790   61.5810 S   0  0  0  0  0  0  0  0  0  0  0  0
   39.6660   83.2120   62.7840 O   0  0  0  0  0  0  0  0  0  0  0  0
   39.8230   81.2750   61.4940 O   0  0  0  0  0  0  0  0  0  0  0  0
   39.9700   83.7140   60.2870 C   0  0  0  0  0  3  0  0  0  0  0  0
   40.4690   83.0480   58.9800 C   0  0  0  0  0  3  0  0  0  0  0  0
   41.4480   82.5570   59.1900 H   0  0  0  0  0  0  0  0  0  0  0  0
   40.6870   84.0570   57.8960 C   0  0  0  0  0  3  0  0  0  0  0  0
   41.7620   84.2980   57.7720 H   0  0  0  0  0  0  0  0  0  0  0  0
   39.8880   85.1710   58.1380 O   0  0  0  0  0  0  0  0  0  0  0  0
   40.4000   85.9100   59.2000 C   0  0  0  0  0  3  0  0  0  0  0  0
   41.3070   86.4680   58.8400 H   0  0  0  0  0  0  0  0  0  0  0  0
   40.8210   85.0110   60.3110 C   0  0  0  0  0  3  0  0  0  0  0  0
   40.7270   85.4890   61.3000 H   0  0  0  0  0  0  0  0  0  0  0  0
  1  6  1  0  0  0  0
  2  3  1  0  0  0  0
  2  1  2  0  0  0  0
  3  4  2  0  0  0  0
  4  8  1  0  0  0  0
  4  5  1  0  0  0  0
  5  9  1  0  0  0  0
  6  5  2  0  0  0  0
  6 10  1  0  0  0  0
  7  3  1  0  0  0  0
 11 17  1  0  0  0  0
 11 16  1  0  0  0  0
 12 11  2  0  0  0  0
 13 12  1  0  0  0  0
 13 14  2  0  0  0  0
 14 15  1  0  0  0  0
 15 16  2  0  0  0  0
 15  2  1  0  0  0  0
 18 13  1  0  0  0  0
 19 20  1  0  0  0  0
 19 12  1  0  0  0  0
 20 27  1  0  0  0  0
 21 28  1  0  0  0  0
 21 20  2  0  0  0  0
 22 21  1  0  0  0  0
 23 22  2  0  0  0  0
 24 22  1  0  0  0  0
 24 25  1  0  0  0  0
 25 19  1  0  0  0  0
 26 25  2  0  0  0  0
 29 24  1  0  0  0  0
 30  1  1  0  0  0  0
 30 31  2  0  0  0  0
 32 30  2  0  0  0  0
 33 41  1  0  0  0  0
 33 30  1  0  0  0  0
 34 35  1  0  0  0  0
 34 33  1  0  0  0  0
 36 38  1  0  0  0  0
 36 34  1  0  0  0  0
 37 36  1  0  0  0  0
 38 39  1  0  0  0  0
 39 41  1  0  0  0  0
 40 39  1  0  0  0  0
 41 42  1  0  0  0  0
M  END
>  <minimizedAffinity>
-4.51288891

>  <minimizedRMSD>
2.67495441

$$$$
