
 OpenBabel03212520053D

 42 46  0  0  0  0  0  0  0  0999 V2000
   41.0130   82.1840   57.0290 C   0  0  0  0  0  0  0  0  0  0  0  0
   42.2900   82.4960   56.5340 C   0  0  0  0  0  0  0  0  0  0  0  0
   43.1720   83.1180   57.4110 C   0  0  0  0  0  0  0  0  0  0  0  0
   42.7910   83.3990   58.6850 N   0  0  0  0  0  0  0  0  0  0  0  0
   41.5420   83.0760   59.1250 C   0  0  0  0  0  0  0  0  0  0  0  0
   40.6440   82.4670   58.2990 N   0  0  0  0  0  0  0  0  0  0  0  0
   40.2210   81.7040   56.4720 H   0  0  0  0  0  0  0  0  0  0  0  0
   42.3700   82.1510   55.5340 H   0  0  0  0  0  0  0  0  0  0  0  0
   39.8340   83.1020   60.8700 C   0  0  0  0  0  0  0  0  0  0  0  0
   41.1570   83.3500   60.5020 C   0  0  0  0  0  0  0  0  0  0  0  0
   42.0910   83.8280   61.4240 C   0  0  0  0  0  0  0  0  0  0  0  0
   41.7360   84.0710   62.7400 C   0  0  0  0  0  0  0  0  0  0  0  0
   42.3430   84.5100   63.8470 N   0  0  0  0  0  0  0  0  0  0  0  0
   41.4650   84.5450   64.8800 C   0  0  0  0  0  0  0  0  0  0  0  0
   40.2940   84.1090   64.3570 N   0  0  0  0  0  0  0  0  0  0  0  0
   40.4200   83.8100   63.0530 C   0  0  0  0  0  0  0  0  0  0  0  0
   39.4600   83.3420   62.1910 C   0  0  0  0  0  0  0  0  0  0  0  0
   39.0980   82.7390   60.1930 H   0  0  0  0  0  0  0  0  0  0  0  0
   43.1140   84.0150   61.1230 H   0  0  0  0  0  0  0  0  0  0  0  0
   43.3560   84.7660   63.8250 H   0  0  0  0  0  0  0  0  0  0  0  0
   41.7310   84.8660   65.8720 H   0  0  0  0  0  0  0  0  0  0  0  0
   38.4620   83.1650   62.5090 H   0  0  0  0  0  0  0  0  0  0  0  0
   43.3860   84.2080   54.6400 Cl  0  0  0  0  0  0  0  0  0  0  0  0
   44.7560   83.9780   55.7230 C   0  0  0  0  0  0  0  0  0  0  0  0
   44.5010   83.4740   56.9690 C   0  0  0  0  0  0  0  0  0  0  0  0
   45.6350   83.3340   57.7620 C   0  0  0  0  0  0  0  0  0  0  0  0
   46.9070   83.6580   57.3690 C   0  0  0  0  0  0  0  0  0  0  0  0
   47.1040   84.1630   56.0930 C   0  0  0  0  0  0  0  0  0  0  0  0
   48.6760   84.5760   55.4950 Cl  0  0  0  0  0  0  0  0  0  0  0  0
   46.0110   84.3180   55.2810 C   0  0  0  0  0  0  0  0  0  0  0  0
   45.5310   82.9430   58.7690 H   0  0  0  0  0  0  0  0  0  0  0  0
   47.7430   83.5250   58.0330 H   0  0  0  0  0  0  0  0  0  0  0  0
   46.1310   84.8470   53.9190 C   0  0  0  0  0  3  0  0  0  0  0  0
   45.7350   86.3080   53.7720 C   0  0  0  0  0  3  0  0  0  0  0  0
   44.6360   86.3960   53.7260 H   0  0  0  0  0  0  0  0  0  0  0  0
   46.3450   86.7220   52.4260 C   0  0  0  0  0  3  0  0  0  0  0  0
   47.4320   86.8710   52.5730 H   0  0  0  0  0  0  0  0  0  0  0  0
   46.0150   85.9130   51.3830 O   0  0  0  0  0  0  0  0  0  0  0  0
   46.2260   84.5670   51.5320 C   0  0  0  0  0  3  0  0  0  0  0  0
   47.2660   84.2390   51.5760 H   0  0  0  0  0  0  0  0  0  0  0  0
   45.4630   84.1390   52.8080 C   0  0  0  0  0  3  0  0  0  0  0  0
   44.4620   84.6260   52.5900 H   0  0  0  0  0  0  0  0  0  0  0  0
  1  6  1  0  0  0  0
  2  1  2  0  0  0  0
  2  3  1  0  0  0  0
  3  4  2  0  0  0  0
  4  5  1  0  0  0  0
  5 10  1  0  0  0  0
  6  5  2  0  0  0  0
  7  1  1  0  0  0  0
  8  2  1  0  0  0  0
  9 17  1  0  0  0  0
 10  9  2  0  0  0  0
 10 11  1  0  0  0  0
 11 12  2  0  0  0  0
 12 16  1  0  0  0  0
 12 13  1  0  0  0  0
 13 14  1  0  0  0  0
 14 21  1  0  0  0  0
 15 14  2  0  0  0  0
 16 15  1  0  0  0  0
 17 22  1  0  0  0  0
 17 16  2  0  0  0  0
 18  9  1  0  0  0  0
 19 11  1  0  0  0  0
 20 13  1  0  0  0  0
 23 24  1  0  0  0  0
 24 25  1  0  0  0  0
 25  3  1  0  0  0  0
 25 26  2  0  0  0  0
 26 31  1  0  0  0  0
 27 26  1  0  0  0  0
 27 32  1  0  0  0  0
 28 27  2  0  0  0  0
 29 28  1  0  0  0  0
 30 24  2  0  0  0  0
 30 28  1  0  0  0  0
 33 30  1  0  0  0  0
 34 33  1  0  0  0  0
 35 34  1  0  0  0  0
 36 37  1  0  0  0  0
 36 34  1  0  0  0  0
 38 39  1  0  0  0  0
 38 36  1  0  0  0  0
 39 40  1  0  0  0  0
 39 41  1  0  0  0  0
 41 33  1  0  0  0  0
 42 41  1  0  0  0  0
M  END
>  <minimizedAffinity>
-4.61316729

>  <minimizedRMSD>
1.25899124

$$$$
