
 OpenBabel03212520053D

 42 46  0  0  0  0  0  0  0  0999 V2000
   40.7710   81.7690   57.1920 C   0  0  0  0  0  0  0  0  0  0  0  0
   41.9570   82.1880   56.5650 C   0  0  0  0  0  0  0  0  0  0  0  0
   42.8180   82.9850   57.3100 C   0  0  0  0  0  0  0  0  0  0  0  0
   42.5050   83.3280   58.5880 N   0  0  0  0  0  0  0  0  0  0  0  0
   41.3450   82.8960   59.1590 C   0  0  0  0  0  0  0  0  0  0  0  0
   40.4700   82.1160   58.4640 N   0  0  0  0  0  0  0  0  0  0  0  0
   40.0060   81.1520   56.7450 H   0  0  0  0  0  0  0  0  0  0  0  0
   42.0020   81.7700   55.5910 H   0  0  0  0  0  0  0  0  0  0  0  0
   39.7220   83.0710   60.9750 C   0  0  0  0  0  0  0  0  0  0  0  0
   41.0370   83.2410   60.5390 C   0  0  0  0  0  0  0  0  0  0  0  0
   42.0330   83.7080   61.4000 C   0  0  0  0  0  0  0  0  0  0  0  0
   41.7500   84.0180   62.7190 C   0  0  0  0  0  0  0  0  0  0  0  0
   42.4270   84.4700   63.7800 N   0  0  0  0  0  0  0  0  0  0  0  0
   41.6000   84.5870   64.8480 C   0  0  0  0  0  0  0  0  0  0  0  0
   40.3870   84.1870   64.3950 N   0  0  0  0  0  0  0  0  0  0  0  0
   40.4400   83.8340   63.1000 C   0  0  0  0  0  0  0  0  0  0  0  0
   39.4200   83.3800   62.3010 C   0  0  0  0  0  0  0  0  0  0  0  0
   38.9400   82.7180   60.3460 H   0  0  0  0  0  0  0  0  0  0  0  0
   43.0490   83.8350   61.0460 H   0  0  0  0  0  0  0  0  0  0  0  0
   43.4490   84.6760   63.7020 H   0  0  0  0  0  0  0  0  0  0  0  0
   41.9260   84.9320   65.8130 H   0  0  0  0  0  0  0  0  0  0  0  0
   38.4310   83.2630   62.6690 H   0  0  0  0  0  0  0  0  0  0  0  0
   42.6030   84.2110   54.5960 Cl  0  0  0  0  0  0  0  0  0  0  0  0
   44.1120   84.0350   55.4880 C   0  0  0  0  0  0  0  0  0  0  0  0
   44.0520   83.4580   56.7270 C   0  0  0  0  0  0  0  0  0  0  0  0
   45.2860   83.3670   57.3650 C   0  0  0  0  0  0  0  0  0  0  0  0
   46.4720   83.8020   56.8360 C   0  0  0  0  0  0  0  0  0  0  0  0
   46.4700   84.3760   55.5740 C   0  0  0  0  0  0  0  0  0  0  0  0
   47.9220   84.9310   54.8090 Cl  0  0  0  0  0  0  0  0  0  0  0  0
   45.2750   84.4860   54.9130 C   0  0  0  0  0  0  0  0  0  0  0  0
   45.3370   82.9250   58.3550 H   0  0  0  0  0  0  0  0  0  0  0  0
   47.3920   83.7020   57.3830 H   0  0  0  0  0  0  0  0  0  0  0  0
   45.1850   85.0820   53.5770 C   0  0  0  0  0  3  0  0  0  0  0  0
   45.7490   84.2170   52.4590 C   0  0  0  0  0  3  0  0  0  0  0  0
   46.8500   84.2990   52.4400 H   0  0  0  0  0  0  0  0  0  0  0  0
   45.1600   84.8310   51.1840 C   0  0  0  0  0  3  0  0  0  0  0  0
   44.1030   84.5150   51.1060 H   0  0  0  0  0  0  0  0  0  0  0  0
   45.3650   86.1710   51.0540 O   0  0  0  0  0  0  0  0  0  0  0  0
   45.0010   86.9750   52.1030 C   0  0  0  0  0  3  0  0  0  0  0  0
   43.9290   87.0640   52.2970 H   0  0  0  0  0  0  0  0  0  0  0  0
   45.7380   86.4330   53.3510 C   0  0  0  0  0  3  0  0  0  0  0  0
   46.7840   86.3540   52.9200 H   0  0  0  0  0  0  0  0  0  0  0  0
  1  6  1  0  0  0  0
  2  1  2  0  0  0  0
  2  3  1  0  0  0  0
  3  4  2  0  0  0  0
  4  5  1  0  0  0  0
  5 10  1  0  0  0  0
  6  5  2  0  0  0  0
  7  1  1  0  0  0  0
  8  2  1  0  0  0  0
  9 17  1  0  0  0  0
 10  9  2  0  0  0  0
 10 11  1  0  0  0  0
 11 12  2  0  0  0  0
 12 16  1  0  0  0  0
 12 13  1  0  0  0  0
 13 14  1  0  0  0  0
 14 21  1  0  0  0  0
 15 14  2  0  0  0  0
 16 15  1  0  0  0  0
 17 22  1  0  0  0  0
 17 16  2  0  0  0  0
 18  9  1  0  0  0  0
 19 11  1  0  0  0  0
 20 13  1  0  0  0  0
 23 24  1  0  0  0  0
 24 25  1  0  0  0  0
 25  3  1  0  0  0  0
 25 26  2  0  0  0  0
 26 31  1  0  0  0  0
 27 26  1  0  0  0  0
 27 32  1  0  0  0  0
 28 27  2  0  0  0  0
 29 28  1  0  0  0  0
 30 24  2  0  0  0  0
 30 28  1  0  0  0  0
 33 30  1  0  0  0  0
 34 33  1  0  0  0  0
 35 34  1  0  0  0  0
 36 34  1  0  0  0  0
 37 36  1  0  0  0  0
 38 36  1  0  0  0  0
 38 39  1  0  0  0  0
 39 40  1  0  0  0  0
 39 41  1  0  0  0  0
 41 33  1  0  0  0  0
 42 41  1  0  0  0  0
M  END
>  <minimizedAffinity>
-4.92936134

>  <minimizedRMSD>
0.981602252

$$$$
