
 OpenBabel03212520143D

 32 34  0  0  0  0  0  0  0  0999 V2000
   42.9280   83.5840   58.4930 Cl  0  0  0  0  0  0  0  0  0  0  0  0
   41.6740   82.3830   58.2110 C   0  0  0  0  0  0  0  0  0  0  0  0
   40.8470   81.9440   59.2260 C   0  0  0  0  0  0  0  0  0  0  0  0
   39.8870   81.0150   58.8440 C   0  0  0  0  0  0  0  0  0  0  0  0
   39.6950   80.5070   57.5730 C   0  0  0  0  0  0  0  0  0  0  0  0
   40.5520   80.9860   56.6160 C   0  0  0  0  0  0  0  0  0  0  0  0
   40.3880   80.3980   54.9580 Cl  0  0  0  0  0  0  0  0  0  0  0  0
   41.5450   81.9250   56.9290 C   0  0  0  0  0  0  0  0  0  0  0  0
   39.2330   80.6640   59.6290 H   0  0  0  0  0  0  0  0  0  0  0  0
   38.9130   79.7850   57.3950 H   0  0  0  0  0  0  0  0  0  0  0  0
   42.4420   82.3630   55.8230 C   0  0  0  0  0  3  0  0  0  0  0  0
   42.4130   83.8460   55.5730 C   0  0  0  0  0  3  0  0  0  0  0  0
   41.6370   84.1390   54.8380 H   0  0  0  0  0  0  0  0  0  0  0  0
   43.7180   84.3930   55.0930 C   0  0  0  0  0  3  0  0  0  0  0  0
   44.2450   84.9260   55.9320 H   0  0  0  0  0  0  0  0  0  0  0  0
   44.5570   83.4240   54.5530 O   0  0  0  0  0  0  0  0  0  0  0  0
   44.9350   82.5910   55.5840 C   0  0  0  0  0  3  0  0  0  0  0  0
   45.3470   83.1590   56.4380 H   0  0  0  0  0  0  0  0  0  0  0  0
   43.7690   81.7300   55.9780 C   0  0  0  0  0  3  0  0  0  0  0  0
   43.8670   80.8050   55.3180 H   0  0  0  0  0  0  0  0  0  0  0  0
   41.9400   82.0230   61.5090 C   0  0  0  0  0  0  0  0  0  0  0  0
   41.0140   82.4460   60.5500 C   0  0  0  0  0  0  0  0  0  0  0  0
   40.1210   83.4880   60.8930 C   0  0  0  0  0  0  0  0  0  0  0  0
   40.2340   84.0080   62.1460 N   0  0  0  0  0  0  0  0  0  0  0  0
   41.1270   83.5850   63.0400 C   0  0  0  0  0  0  0  0  0  0  0  0
   41.9820   82.5920   62.7230 N   0  0  0  0  0  0  0  0  0  0  0  0
   42.5900   81.2260   61.1830 H   0  0  0  0  0  0  0  0  0  0  0  0
   39.3760   83.8850   60.2330 H   0  0  0  0  0  0  0  0  0  0  0  0
   41.1150   84.2620   64.3640 C   0  0  0  0  0  0  0  0  0  0  0  0
   40.7960   85.5950   64.2560 F   0  0  0  0  0  0  0  0  0  0  0  0
   40.1600   83.6660   65.1740 F   0  0  0  0  0  0  0  0  0  0  0  0
   42.3510   84.2230   64.9790 F   0  0  0  0  0  0  0  0  0  0  0  0
  2  1  1  0  0  0  0
  2  3  1  0  0  0  0
  3 22  1  0  0  0  0
  4  3  2  0  0  0  0
  4  9  1  0  0  0  0
  5  4  1  0  0  0  0
  6  8  1  0  0  0  0
  6  5  2  0  0  0  0
  7  6  1  0  0  0  0
  8  2  2  0  0  0  0
 10  5  1  0  0  0  0
 11 19  1  0  0  0  0
 11  8  1  0  0  0  0
 12 11  1  0  0  0  0
 13 12  1  0  0  0  0
 14 12  1  0  0  0  0
 14 15  1  0  0  0  0
 16 14  1  0  0  0  0
 16 17  1  0  0  0  0
 17 19  1  0  0  0  0
 17 18  1  0  0  0  0
 20 19  1  0  0  0  0
 21 26  1  0  0  0  0
 22 23  1  0  0  0  0
 22 21  2  0  0  0  0
 23 24  2  0  0  0  0
 24 25  1  0  0  0  0
 25 29  1  0  0  0  0
 26 25  2  0  0  0  0
 27 21  1  0  0  0  0
 28 23  1  0  0  0  0
 29 32  1  0  0  0  0
 29 31  1  0  0  0  0
 30 29  1  0  0  0  0
M  END
>  <minimizedAffinity>
-5.12843513

>  <minimizedRMSD>
1.21060669

$$$$
