
 OpenBabel03212521073D

 37 40  0  0  0  0  0  0  0  0999 V2000
   41.8100   84.2390   61.5620 C   0  0  0  0  0  0  0  0  0  0  0  0
   41.4470   83.9460   62.8800 C   0  0  0  0  0  0  0  0  0  0  0  0
   40.1580   83.5370   63.1980 C   0  0  0  0  0  0  0  0  0  0  0  0
   39.2110   83.4150   62.1950 C   0  0  0  0  0  0  0  0  0  0  0  0
   39.5760   83.7080   60.8900 C   0  0  0  0  0  0  0  0  0  0  0  0
   40.8570   84.1150   60.5630 C   0  0  0  0  0  0  0  0  0  0  0  0
   42.2130   84.0510   63.6430 H   0  0  0  0  0  0  0  0  0  0  0  0
   40.0000   83.3400   64.2510 H   0  0  0  0  0  0  0  0  0  0  0  0
   38.2300   83.1000   62.4740 H   0  0  0  0  0  0  0  0  0  0  0  0
   38.7820   83.5870   60.1840 H   0  0  0  0  0  0  0  0  0  0  0  0
   45.3410   84.1290   60.6560 C   0  0  0  0  0  0  0  0  0  0  0  0
   45.7300   85.4580   60.7360 C   0  0  0  0  0  0  0  0  0  0  0  0
   44.7600   86.4120   61.1100 C   0  0  0  0  0  0  0  0  0  0  0  0
   43.4980   85.9810   61.3700 N   0  0  0  0  0  0  0  0  0  0  0  0
   43.1590   84.6600   61.2780 C   0  0  0  0  0  0  0  0  0  0  0  0
   44.0780   83.7750   60.9270 N   0  0  0  0  0  0  0  0  0  0  0  0
   46.0240   83.3250   60.3760 H   0  0  0  0  0  0  0  0  0  0  0  0
   46.7490   85.6950   60.5110 H   0  0  0  0  0  0  0  0  0  0  0  0
   45.0550   87.4420   61.1730 H   0  0  0  0  0  0  0  0  0  0  0  0
   41.1800   84.4070   59.1820 C   0  0  0  0  0  0  0  0  0  0  0  0
   40.7180   85.6780   58.8080 C   0  0  0  0  0  0  0  0  0  0  0  0
   40.9330   86.1450   57.5090 C   0  0  0  0  0  0  0  0  0  0  0  0
   41.5810   85.3460   56.6630 N   0  0  0  0  0  0  0  0  0  0  0  0
   42.0260   84.1090   57.0400 C   0  0  0  0  0  0  0  0  0  0  0  0
   41.8280   83.6450   58.2880 N   0  0  0  0  0  0  0  0  0  0  0  0
   40.1850   86.3760   59.4450 H   0  0  0  0  0  0  0  0  0  0  0  0
   40.5930   87.1190   57.1760 H   0  0  0  0  0  0  0  0  0  0  0  0
   42.7350   83.2840   56.0500 C   0  0  0  0  0  3  0  0  0  0  0  0
   44.1540   83.0490   56.4550 C   0  0  0  0  0  3  0  0  0  0  0  0
   44.6060   84.0400   56.7180 H   0  0  0  0  0  0  0  0  0  0  0  0
   44.9450   82.4180   55.3560 C   0  0  0  0  0  3  0  0  0  0  0  0
   45.8870   82.9770   55.1970 H   0  0  0  0  0  0  0  0  0  0  0  0
   44.2200   82.2250   54.1920 O   0  0  0  0  0  0  0  0  0  0  0  0
   43.6290   83.3950   53.7230 C   0  0  0  0  0  3  0  0  0  0  0  0
   43.0440   83.0910   52.8280 H   0  0  0  0  0  0  0  0  0  0  0  0
   42.6870   84.0010   54.7190 C   0  0  0  0  0  3  0  0  0  0  0  0
   41.6350   83.9680   54.3530 H   0  0  0  0  0  0  0  0  0  0  0  0
  1  2  1  0  0  0  0
  2  3  2  0  0  0  0
  2  7  1  0  0  0  0
  3  8  1  0  0  0  0
  4  9  1  0  0  0  0
  4  3  1  0  0  0  0
  5  4  2  0  0  0  0
  6  5  1  0  0  0  0
  6  1  2  0  0  0  0
 10  5  1  0  0  0  0
 11 12  2  0  0  0  0
 11 16  1  0  0  0  0
 12 13  1  0  0  0  0
 13 19  1  0  0  0  0
 13 14  2  0  0  0  0
 15 14  1  0  0  0  0
 15  1  1  0  0  0  0
 16 15  2  0  0  0  0
 17 11  1  0  0  0  0
 18 12  1  0  0  0  0
 20  6  1  0  0  0  0
 21 20  1  0  0  0  0
 21 26  1  0  0  0  0
 22 21  2  0  0  0  0
 23 24  2  0  0  0  0
 23 22  1  0  0  0  0
 24 25  1  0  0  0  0
 25 20  2  0  0  0  0
 27 22  1  0  0  0  0
 28 29  1  0  0  0  0
 28 24  1  0  0  0  0
 29 30  1  0  0  0  0
 31 29  1  0  0  0  0
 32 31  1  0  0  0  0
 33 31  1  0  0  0  0
 34 33  1  0  0  0  0
 34 36  1  0  0  0  0
 35 34  1  0  0  0  0
 36 28  1  0  0  0  0
 37 36  1  0  0  0  0
M  END
>  <minimizedAffinity>
-5.4533515

>  <minimizedRMSD>
0.274711162

$$$$
