
 OpenBabel03212521003D

 43 47  0  0  1  0  0  0  0  0999 V2000
   39.7740   77.4150   59.1710 C   0  0  0  0  0  0  0  0  0  0  0  0
   40.4700   76.2790   58.8850 C   0  0  0  0  0  0  0  0  0  0  0  0
   39.9150   75.5800   57.8050 C   0  0  0  0  0  0  0  0  0  0  0  0
   38.8230   75.9720   57.1200 N   0  0  0  0  0  0  0  0  0  0  0  0
   38.2030   77.1300   57.4920 C   0  0  0  0  0  0  0  0  0  0  0  0
   38.6850   77.8540   58.5270 N   0  0  0  0  0  0  0  0  0  0  0  0
   41.3370   75.9200   59.3910 H   0  0  0  0  0  0  0  0  0  0  0  0
   40.3710   74.6460   57.4610 H   0  0  0  0  0  0  0  0  0  0  0  0
   40.9760   80.3410   61.7440 C   0  0  0  0  0  0  0  0  0  0  0  0
   40.9760   79.1030   62.3360 C   0  0  0  0  0  0  0  0  0  0  0  0
   40.5940   78.0450   61.5840 C   0  0  0  0  0  0  0  0  0  0  0  0
   40.2260   78.2490   60.2670 C   0  0  0  0  0  0  0  0  0  0  0  0
   40.4220   80.0660   60.0380 S   0  0  0  0  0  0  0  0  0  0  0  0
   41.2660   78.9440   63.3760 H   0  0  0  0  0  0  0  0  0  0  0  0
   40.5250   77.0020   61.8590 H   0  0  0  0  0  0  0  0  0  0  0  0
   43.0430   83.1400   62.9060 C   0  0  0  0  0  0  0  0  0  0  0  0
   42.1440   83.8980   63.7030 C   0  0  0  0  0  0  0  0  0  0  0  0
   40.8220   83.4380   63.8320 C   0  0  0  0  0  0  0  0  0  0  0  0
   40.4730   82.3010   63.1940 N   0  0  0  0  0  0  0  0  0  0  0  0
   41.3650   81.5980   62.4360 C   0  0  0  0  0  0  0  0  0  0  0  0
   42.6220   82.0330   62.3100 N   0  0  0  0  0  0  0  0  0  0  0  0
   44.0500   83.5280   62.8320 H   0  0  0  0  0  0  0  0  0  0  0  0
   42.3910   84.8110   64.2270 H   0  0  0  0  0  0  0  0  0  0  0  0
   40.0670   83.9290   64.4050 H   0  0  0  0  0  0  0  0  0  0  0  0
   37.0360   77.5380   56.7370 C   0  0  0  0  0  0  0  0  0  0  0  0
   35.9290   77.1360   57.1240 O   0  0  0  0  0  0  0  0  0  0  0  0
   37.1340   78.4160   55.5100 C   0  0  1  0  0  0  0  0  0  0  0  0
   37.3400   79.8710   55.8400 C   0  0  0  0  0  0  0  0  0  0  0  0
   38.3880   79.0830   55.2030 C   0  0  2  0  0  0  0  0  0  0  0  0
   36.2040   78.3220   54.8840 H   0  0  0  0  0  0  0  0  0  0  0  0
   37.4410   80.1550   56.9190 H   0  0  0  0  0  0  0  0  0  0  0  0
   36.7500   80.6270   55.2930 H   0  0  0  0  0  0  0  0  0  0  0  0
   39.2540   78.7860   55.8500 H   0  0  0  0  0  0  0  0  0  0  0  0
   38.7970   79.2570   53.7680 C   0  0  0  0  0  3  0  0  0  0  0  0
   40.2690   79.3750   53.5710 C   0  0  0  0  0  3  0  0  0  0  0  0
   40.7050   79.9110   54.4390 H   0  0  0  0  0  0  0  0  0  0  0  0
   40.9290   78.0360   53.3320 C   0  0  0  0  0  3  0  0  0  0  0  0
   41.1780   77.8530   52.2680 H   0  0  0  0  0  0  0  0  0  0  0  0
   40.0410   77.0360   53.7210 O   0  0  0  0  0  0  0  0  0  0  0  0
   39.0390   76.9720   52.7650 C   0  0  0  0  0  3  0  0  0  0  0  0
   38.4380   76.0440   52.8380 H   0  0  0  0  0  0  0  0  0  0  0  0
   38.1570   78.1670   52.9310 C   0  0  0  0  0  3  0  0  0  0  0  0
   37.2240   77.8430   53.4780 H   0  0  0  0  0  0  0  0  0  0  0  0
  1 12  1  0  0  0  0
  2  1  1  0  0  0  0
  2  7  1  0  0  0  0
  3  2  2  0  0  0  0
  4  5  2  0  0  0  0
  4  3  1  0  0  0  0
  5  6  1  0  0  0  0
  6  1  2  0  0  0  0
  8  3  1  0  0  0  0
  9 10  2  0  0  0  0
  9 20  1  0  0  0  0
 10 14  1  0  0  0  0
 11 15  1  0  0  0  0
 11 10  1  0  0  0  0
 12 11  2  0  0  0  0
 13 12  1  0  0  0  0
 13  9  1  0  0  0  0
 16 17  1  0  0  0  0
 17 18  2  0  0  0  0
 17 23  1  0  0  0  0
 18 24  1  0  0  0  0
 19 18  1  0  0  0  0
 20 19  2  0  0  0  0
 21 20  1  0  0  0  0
 21 16  2  0  0  0  0
 22 16  1  0  0  0  0
 25 26  2  0  0  0  0
 25  5  1  0  0  0  0
 27 30  1  6  0  0  0
 27 28  1  0  0  0  0
 27 25  1  0  0  0  0
 28 31  1  0  0  0  0
 29 27  1  0  0  0  0
 29 28  1  0  0  0  0
 29 33  1  1  0  0  0
 32 28  1  0  0  0  0
 34 29  1  0  0  0  0
 35 34  1  0  0  0  0
 35 36  1  0  0  0  0
 37 35  1  0  0  0  0
 37 39  1  0  0  0  0
 38 37  1  0  0  0  0
 40 41  1  0  0  0  0
 40 42  1  0  0  0  0
 40 39  1  0  0  0  0
 42 43  1  0  0  0  0
 42 34  1  0  0  0  0
M  END
>  <minimizedAffinity>
-6.31041288

>  <minimizedRMSD>
0.377657115

$$$$
