
 OpenBabel03212520313D

 39 42  0  0  0  0  0  0  0  0999 V2000
   42.0340   82.4130   61.7820 C   0  0  0  0  0  0  0  0  0  0  0  0
   42.5450   81.6450   60.7430 C   0  0  0  0  0  0  0  0  0  0  0  0
   43.8430   81.1790   60.7690 C   0  0  0  0  0  0  0  0  0  0  0  0
   44.7150   81.4430   61.8280 C   0  0  0  0  0  0  0  0  0  0  0  0
   44.2360   82.2010   62.8740 C   0  0  0  0  0  0  0  0  0  0  0  0
   42.9320   82.6660   62.8410 C   0  0  0  0  0  0  0  0  0  0  0  0
   44.2050   80.5820   59.9340 H   0  0  0  0  0  0  0  0  0  0  0  0
   45.7090   81.0320   61.7500 H   0  0  0  0  0  0  0  0  0  0  0  0
   44.8850   82.4130   63.6910 H   0  0  0  0  0  0  0  0  0  0  0  0
   42.6020   83.2540   63.6800 H   0  0  0  0  0  0  0  0  0  0  0  0
   40.2310   79.8900   58.4580 C   0  0  0  0  0  0  0  0  0  0  0  0
   40.1880   80.7360   57.3690 C   0  0  0  0  0  0  0  0  0  0  0  0
   40.9610   81.8960   57.4480 C   0  0  0  0  0  0  0  0  0  0  0  0
   41.6950   82.1160   58.5720 N   0  0  0  0  0  0  0  0  0  0  0  0
   41.7170   81.2870   59.5980 C   0  0  0  0  0  0  0  0  0  0  0  0
   40.9830   80.1830   59.5250 N   0  0  0  0  0  0  0  0  0  0  0  0
   39.6270   78.9890   58.3860 H   0  0  0  0  0  0  0  0  0  0  0  0
   40.9770   82.6040   56.6370 H   0  0  0  0  0  0  0  0  0  0  0  0
   39.3980   80.4440   56.2280 N   0  0  0  0  0  0  0  0  0  0  0  0
   38.0820   80.4120   56.4910 C   0  0  0  0  0  0  0  0  0  0  0  0
   37.2090   80.1250   55.4370 C   0  0  0  0  0  0  0  0  0  0  0  0
   37.7360   79.8860   54.1630 C   0  0  0  0  0  0  0  0  0  0  0  0
   37.0550   79.6190   53.1420 O   0  0  0  0  0  0  0  0  0  0  0  0
   39.0960   79.9390   53.9840 N   0  0  0  0  0  0  0  0  0  0  0  0
   39.9370   80.2190   55.0140 C   0  0  0  0  0  0  0  0  0  0  0  0
   41.1700   80.2710   54.8670 O   0  0  0  0  0  0  0  0  0  0  0  0
   37.6410   80.5890   57.4520 H   0  0  0  0  0  0  0  0  0  0  0  0
   36.1490   80.0780   55.5500 H   0  0  0  0  0  0  0  0  0  0  0  0
   39.5570   79.7720   53.0660 H   0  0  0  0  0  0  0  0  0  0  0  0
   40.4230   83.0190   61.7740 S   0  0  0  0  0  0  0  0  0  0  0  0
   40.0950   83.6300   63.1200 O   0  0  0  0  0  0  0  0  0  0  0  0
   39.4960   81.7900   61.7390 O   0  0  0  0  0  0  0  0  0  0  0  0
   39.9810   84.1650   60.5730 C   0  0  0  0  0  0  0  0  0  0  0  0
   38.9310   84.6840   59.9190 N   0  0  0  0  0  0  0  0  0  0  0  0
   39.3590   85.5710   59.0410 C   0  0  0  0  0  0  0  0  0  0  0  0
   38.5950   86.0740   58.4320 H   0  0  0  0  0  0  0  0  0  0  0  0
   40.6810   85.6650   59.0860 N   0  0  0  0  0  0  0  0  0  0  0  0
   41.2170   86.3110   58.4700 H   0  0  0  0  0  0  0  0  0  0  0  0
   41.0480   84.8120   60.0140 N   0  0  0  0  0  0  0  0  0  0  0  0
  1  6  1  0  0  0  0
  2  3  1  0  0  0  0
  2  1  2  0  0  0  0
  3  4  2  0  0  0  0
  4  5  1  0  0  0  0
  5  9  1  0  0  0  0
  6  5  2  0  0  0  0
  6 10  1  0  0  0  0
  7  3  1  0  0  0  0
  8  4  1  0  0  0  0
 11 16  1  0  0  0  0
 12 13  1  0  0  0  0
 12 11  2  0  0  0  0
 13 14  2  0  0  0  0
 14 15  1  0  0  0  0
 15  2  1  0  0  0  0
 16 15  2  0  0  0  0
 17 11  1  0  0  0  0
 18 13  1  0  0  0  0
 19 20  1  0  0  0  0
 19 12  1  0  0  0  0
 20 27  1  0  0  0  0
 21 28  1  0  0  0  0
 21 20  2  0  0  0  0
 22 21  1  0  0  0  0
 23 22  2  0  0  0  0
 24 22  1  0  0  0  0
 24 25  1  0  0  0  0
 25 19  1  0  0  0  0
 26 25  2  0  0  0  0
 29 24  1  0  0  0  0
 30  1  1  0  0  0  0
 30 31  2  0  0  0  0
 32 30  2  0  0  0  0
 33 30  1  0  0  0  0
 34 33  1  0  0  0  0
 35 37  1  0  0  0  0
 35 34  2  0  0  0  0
 36 35  1  0  0  0  0
 37 39  1  0  0  0  0
 38 37  1  0  0  0  0
 39 33  2  0  0  0  0
M  END
>  <minimizedAffinity>
-6.35195971

>  <minimizedRMSD>
0.600805521

$$$$
