
 OpenBabel03212520353D

 34 37  0  0  0  0  0  0  0  0999 V2000
   41.6190   81.2850   59.4680 C   0  0  0  0  0  0  0  0  0  0  0  0
   41.8640   80.1760   60.3150 C   0  0  0  0  0  0  0  0  0  0  0  0
   42.4640   80.2730   61.5380 C   0  0  0  0  0  0  0  0  0  0  0  0
   42.8610   81.5130   61.9940 C   0  0  0  0  0  0  0  0  0  0  0  0
   42.6340   82.6130   61.1870 C   0  0  0  0  0  0  0  0  0  0  0  0
   42.9730   83.8960   61.5530 C   0  0  0  0  0  0  0  0  0  0  0  0
   42.7160   84.9800   60.7190 C   0  0  0  0  0  0  0  0  0  0  0  0
   42.1090   84.8210   59.4800 C   0  0  0  0  0  0  0  0  0  0  0  0
   41.7700   83.5350   59.1110 C   0  0  0  0  0  0  0  0  0  0  0  0
   42.0270   82.5020   59.9470 C   0  0  0  0  0  0  0  0  0  0  0  0
   41.6140   79.1420   60.1320 H   0  0  0  0  0  0  0  0  0  0  0  0
   42.6740   79.4700   62.2210 H   0  0  0  0  0  0  0  0  0  0  0  0
   43.3430   81.7190   62.9400 H   0  0  0  0  0  0  0  0  0  0  0  0
   43.4510   84.0100   62.5290 H   0  0  0  0  0  0  0  0  0  0  0  0
   43.0360   85.9300   61.1430 H   0  0  0  0  0  0  0  0  0  0  0  0
   41.9610   85.7290   58.9210 H   0  0  0  0  0  0  0  0  0  0  0  0
   41.3830   83.5590   58.1240 H   0  0  0  0  0  0  0  0  0  0  0  0
   39.5640   81.0900   57.9210 C   0  0  0  0  0  0  0  0  0  0  0  0
   40.9160   80.9490   58.2450 C   0  0  0  0  0  0  0  0  0  0  0  0
   41.8090   80.3600   57.2700 C   0  0  0  0  0  0  0  0  0  0  0  0
   41.2770   79.9690   56.0750 N   0  0  0  0  0  0  0  0  0  0  0  0
   39.9210   80.1460   55.8260 C   0  0  0  0  0  0  0  0  0  0  0  0
   39.0860   80.7010   56.7460 N   0  0  0  0  0  0  0  0  0  0  0  0
   38.8560   81.4410   58.6200 H   0  0  0  0  0  0  0  0  0  0  0  0
   42.8410   80.1660   57.2810 H   0  0  0  0  0  0  0  0  0  0  0  0
   39.3210   79.7040   54.5620 C   0  0  0  0  0  0  0  0  0  0  0  0
   39.6230   80.2290   53.4790 O   0  0  0  0  0  0  0  0  0  0  0  0
   38.3250   78.6090   54.5220 C   0  0  0  0  0  0  0  0  0  0  0  0
   37.3750   78.5170   53.6090 N   0  0  0  0  0  0  0  0  0  0  0  0
   36.6660   77.3900   53.9030 C   0  0  0  0  0  0  0  0  0  0  0  0
   35.8130   77.0760   53.2940 H   0  0  0  0  0  0  0  0  0  0  0  0
   37.1940   76.8010   55.0020 N   0  0  0  0  0  0  0  0  0  0  0  0
   36.7700   75.9380   55.3520 H   0  0  0  0  0  0  0  0  0  0  0  0
   38.2230   77.5580   55.3850 N   0  0  0  0  0  0  0  0  0  0  0  0
  1 10  2  0  0  0  0
  1  2  1  0  0  0  0
  2  3  2  0  0  0  0
  3  4  1  0  0  0  0
  3 12  1  0  0  0  0
  4 13  1  0  0  0  0
  5  6  1  0  0  0  0
  5  4  2  0  0  0  0
  6 14  1  0  0  0  0
  7 15  1  0  0  0  0
  7  6  2  0  0  0  0
  8  7  1  0  0  0  0
  9  8  2  0  0  0  0
  9 10  1  0  0  0  0
 10  5  1  0  0  0  0
 11  2  1  0  0  0  0
 16  8  1  0  0  0  0
 17  9  1  0  0  0  0
 18 19  1  0  0  0  0
 18 24  1  0  0  0  0
 19  1  1  0  0  0  0
 20 25  1  0  0  0  0
 20 19  2  0  0  0  0
 21 20  1  0  0  0  0
 22 21  2  0  0  0  0
 22 23  1  0  0  0  0
 23 18  2  0  0  0  0
 26 22  1  0  0  0  0
 27 26  2  0  0  0  0
 28 26  1  0  0  0  0
 28 34  2  0  0  0  0
 29 30  2  0  0  0  0
 29 28  1  0  0  0  0
 30 32  1  0  0  0  0
 31 30  1  0  0  0  0
 32 33  1  0  0  0  0
 32 34  1  0  0  0  0
M  END
>  <minimizedAffinity>
-4.50528431

>  <minimizedRMSD>
8.57003117

$$$$
