
 OpenBabel03212520583D

 40 44  0  0  1  0  0  0  0  0999 V2000
   39.8070   77.3950   59.1810 C   0  0  0  0  0  0  0  0  0  0  0  0
   40.5050   76.2590   58.9120 C   0  0  0  0  0  0  0  0  0  0  0  0
   39.9650   75.5540   57.8250 C   0  0  0  0  0  0  0  0  0  0  0  0
   38.8840   75.9460   57.1230 N   0  0  0  0  0  0  0  0  0  0  0  0
   38.2600   77.1060   57.4800 C   0  0  0  0  0  0  0  0  0  0  0  0
   38.7240   77.8390   58.5190 N   0  0  0  0  0  0  0  0  0  0  0  0
   41.3600   75.9020   59.4290 H   0  0  0  0  0  0  0  0  0  0  0  0
   40.4070   74.6210   57.4780 H   0  0  0  0  0  0  0  0  0  0  0  0
   40.9800   80.3350   61.7530 C   0  0  0  0  0  0  0  0  0  0  0  0
   40.9580   79.1020   62.3530 C   0  0  0  0  0  0  0  0  0  0  0  0
   40.5870   78.0410   61.6090 C   0  0  0  0  0  0  0  0  0  0  0  0
   40.2440   78.2350   60.2770 C   0  0  0  0  0  0  0  0  0  0  0  0
   40.4560   80.0480   60.0370 S   0  0  0  0  0  0  0  0  0  0  0  0
   41.2270   78.9510   63.4000 H   0  0  0  0  0  0  0  0  0  0  0  0
   40.5040   76.9990   61.8870 H   0  0  0  0  0  0  0  0  0  0  0  0
   43.0380   83.1470   62.9140 C   0  0  0  0  0  0  0  0  0  0  0  0
   42.1330   83.8990   63.7010 C   0  0  0  0  0  0  0  0  0  0  0  0
   40.8140   83.4390   63.8290 C   0  0  0  0  0  0  0  0  0  0  0  0
   40.4680   82.2990   63.1940 N   0  0  0  0  0  0  0  0  0  0  0  0
   41.3650   81.5970   62.4410 C   0  0  0  0  0  0  0  0  0  0  0  0
   42.6210   82.0280   62.3140 N   0  0  0  0  0  0  0  0  0  0  0  0
   44.0660   83.4590   62.7820 H   0  0  0  0  0  0  0  0  0  0  0  0
   42.4570   84.7970   64.1840 H   0  0  0  0  0  0  0  0  0  0  0  0
   40.0850   83.9780   64.4200 H   0  0  0  0  0  0  0  0  0  0  0  0
   37.1050   77.5110   56.7040 C   0  0  0  0  0  0  0  0  0  0  0  0
   36.0020   77.0430   57.0320 O   0  0  0  0  0  0  0  0  0  0  0  0
   37.2110   78.4550   55.5330 C   0  0  1  0  0  0  0  0  0  0  0  0
   37.2840   79.9030   55.9500 C   0  0  0  0  0  0  0  0  0  0  0  0
   38.4230   79.2230   55.3320 C   0  0  2  0  0  0  0  0  0  0  0  0
   36.3360   78.2990   54.8420 H   0  0  0  0  0  0  0  0  0  0  0  0
   37.3040   80.1520   57.0360 H   0  0  0  0  0  0  0  0  0  0  0  0
   36.7270   80.6340   55.3470 H   0  0  0  0  0  0  0  0  0  0  0  0
   39.3080   78.9130   55.9550 H   0  0  0  0  0  0  0  0  0  0  0  0
   38.8640   79.6980   53.9990 C   0  0  0  0  0  0  0  0  0  0  0  0
   40.1260   79.6020   53.5010 N   0  0  0  0  0  0  0  0  0  0  0  0
   40.1810   80.1330   52.2600 C   0  0  0  0  0  0  0  0  0  0  0  0
   41.1500   80.0980   51.7890 H   0  0  0  0  0  0  0  0  0  0  0  0
   38.9420   80.5620   51.9850 N   0  0  0  0  0  0  0  0  0  0  0  0
   38.7680   81.0130   51.0610 H   0  0  0  0  0  0  0  0  0  0  0  0
   38.1630   80.2950   53.0380 N   0  0  0  0  0  0  0  0  0  0  0  0
  1 12  1  0  0  0  0
  2  1  1  0  0  0  0
  2  7  1  0  0  0  0
  3  2  2  0  0  0  0
  4  5  2  0  0  0  0
  4  3  1  0  0  0  0
  5  6  1  0  0  0  0
  6  1  2  0  0  0  0
  8  3  1  0  0  0  0
  9 10  2  0  0  0  0
  9 20  1  0  0  0  0
 10 14  1  0  0  0  0
 11 15  1  0  0  0  0
 11 10  1  0  0  0  0
 12 11  2  0  0  0  0
 13 12  1  0  0  0  0
 13  9  1  0  0  0  0
 16 17  1  0  0  0  0
 17 18  2  0  0  0  0
 17 23  1  0  0  0  0
 18 24  1  0  0  0  0
 19 18  1  0  0  0  0
 20 19  2  0  0  0  0
 21 20  1  0  0  0  0
 21 16  2  0  0  0  0
 22 16  1  0  0  0  0
 25 26  2  0  0  0  0
 25  5  1  0  0  0  0
 27 30  1  6  0  0  0
 27 28  1  0  0  0  0
 27 25  1  0  0  0  0
 28 31  1  0  0  0  0
 29 27  1  0  0  0  0
 29 28  1  0  0  0  0
 29 33  1  1  0  0  0
 32 28  1  0  0  0  0
 34 29  1  0  0  0  0
 35 34  1  0  0  0  0
 36 35  2  0  0  0  0
 37 36  1  0  0  0  0
 38 36  1  0  0  0  0
 38 40  1  0  0  0  0
 39 38  1  0  0  0  0
 40 34  2  0  0  0  0
M  END
>  <minimizedAffinity>
-6.53866863

>  <minimizedRMSD>
0.126364559

$$$$
