
 OpenBabel03212520593D

 40 44  0  0  1  0  0  0  0  0999 V2000
   39.7780   77.4150   59.1720 C   0  0  0  0  0  0  0  0  0  0  0  0
   40.4610   76.2710   58.9040 C   0  0  0  0  0  0  0  0  0  0  0  0
   39.9130   75.5720   57.8170 C   0  0  0  0  0  0  0  0  0  0  0  0
   38.8380   75.9770   57.1150 N   0  0  0  0  0  0  0  0  0  0  0  0
   38.2270   77.1440   57.4720 C   0  0  0  0  0  0  0  0  0  0  0  0
   38.6990   77.8720   58.5100 N   0  0  0  0  0  0  0  0  0  0  0  0
   41.3120   75.9040   59.4210 H   0  0  0  0  0  0  0  0  0  0  0  0
   40.3440   74.6340   57.4710 H   0  0  0  0  0  0  0  0  0  0  0  0
   40.9720   80.3440   61.7470 C   0  0  0  0  0  0  0  0  0  0  0  0
   40.9590   79.1090   62.3400 C   0  0  0  0  0  0  0  0  0  0  0  0
   40.5830   78.0500   61.5950 C   0  0  0  0  0  0  0  0  0  0  0  0
   40.2250   78.2510   60.2680 C   0  0  0  0  0  0  0  0  0  0  0  0
   40.4310   80.0650   60.0350 S   0  0  0  0  0  0  0  0  0  0  0  0
   41.2400   78.9530   63.3830 H   0  0  0  0  0  0  0  0  0  0  0  0
   40.5050   77.0070   61.8680 H   0  0  0  0  0  0  0  0  0  0  0  0
   43.0400   83.1490   62.9090 C   0  0  0  0  0  0  0  0  0  0  0  0
   42.1390   83.9000   63.7010 C   0  0  0  0  0  0  0  0  0  0  0  0
   40.8190   83.4440   63.8320 C   0  0  0  0  0  0  0  0  0  0  0  0
   40.4690   82.3060   63.1950 N   0  0  0  0  0  0  0  0  0  0  0  0
   41.3620   81.6030   62.4370 C   0  0  0  0  0  0  0  0  0  0  0  0
   42.6190   82.0320   62.3080 N   0  0  0  0  0  0  0  0  0  0  0  0
   44.0690   83.4580   62.7760 H   0  0  0  0  0  0  0  0  0  0  0  0
   42.4670   84.7970   64.1860 H   0  0  0  0  0  0  0  0  0  0  0  0
   40.0930   83.9820   64.4260 H   0  0  0  0  0  0  0  0  0  0  0  0
   37.0770   77.5630   56.6960 C   0  0  0  0  0  0  0  0  0  0  0  0
   35.9600   77.1740   57.0730 O   0  0  0  0  0  0  0  0  0  0  0  0
   37.2050   78.4290   55.4670 C   0  0  1  0  0  0  0  0  0  0  0  0
   37.3740   79.8910   55.7950 C   0  0  0  0  0  0  0  0  0  0  0  0
   38.4530   79.1100   55.1900 C   0  0  2  0  0  0  0  0  0  0  0  0
   36.3020   78.2850   54.8090 H   0  0  0  0  0  0  0  0  0  0  0  0
   37.4400   80.2020   56.8630 H   0  0  0  0  0  0  0  0  0  0  0  0
   36.8440   80.6180   55.1630 H   0  0  0  0  0  0  0  0  0  0  0  0
   39.3360   78.7830   55.8080 H   0  0  0  0  0  0  0  0  0  0  0  0
   38.8830   79.4780   53.8200 C   0  0  0  0  0  0  0  0  0  0  0  0
   38.1270   80.1400   52.9030 N   0  0  0  0  0  0  0  0  0  0  0  0
   38.8240   80.3140   51.7600 C   0  0  0  0  0  0  0  0  0  0  0  0
   38.2980   80.8330   50.9750 H   0  0  0  0  0  0  0  0  0  0  0  0
   40.0240   79.7540   51.9680 N   0  0  0  0  0  0  0  0  0  0  0  0
   40.7230   79.7810   51.1960 H   0  0  0  0  0  0  0  0  0  0  0  0
   40.0440   79.2570   53.2090 N   0  0  0  0  0  0  0  0  0  0  0  0
  1 12  1  0  0  0  0
  2  1  1  0  0  0  0
  2  7  1  0  0  0  0
  3  2  2  0  0  0  0
  4  5  2  0  0  0  0
  4  3  1  0  0  0  0
  5  6  1  0  0  0  0
  6  1  2  0  0  0  0
  8  3  1  0  0  0  0
  9 10  2  0  0  0  0
  9 20  1  0  0  0  0
 10 14  1  0  0  0  0
 11 15  1  0  0  0  0
 11 10  1  0  0  0  0
 12 11  2  0  0  0  0
 13 12  1  0  0  0  0
 13  9  1  0  0  0  0
 16 17  1  0  0  0  0
 17 18  2  0  0  0  0
 17 23  1  0  0  0  0
 18 24  1  0  0  0  0
 19 18  1  0  0  0  0
 20 19  2  0  0  0  0
 21 20  1  0  0  0  0
 21 16  2  0  0  0  0
 22 16  1  0  0  0  0
 25 26  2  0  0  0  0
 25  5  1  0  0  0  0
 27 30  1  6  0  0  0
 27 28  1  0  0  0  0
 27 25  1  0  0  0  0
 28 31  1  0  0  0  0
 29 27  1  0  0  0  0
 29 28  1  0  0  0  0
 29 33  1  1  0  0  0
 32 28  1  0  0  0  0
 34 29  1  0  0  0  0
 35 34  1  0  0  0  0
 36 38  1  0  0  0  0
 36 35  2  0  0  0  0
 37 36  1  0  0  0  0
 38 40  1  0  0  0  0
 39 38  1  0  0  0  0
 40 34  2  0  0  0  0
M  END
>  <minimizedAffinity>
-6.34907579

>  <minimizedRMSD>
0.171905831

$$$$
