
 OpenBabel03212520313D

 39 42  0  0  0  0  0  0  0  0999 V2000
   42.0170   82.4730   62.2870 C   0  0  0  0  0  0  0  0  0  0  0  0
   42.5590   81.3890   61.6080 C   0  0  0  0  0  0  0  0  0  0  0  0
   43.8810   81.0310   61.7710 C   0  0  0  0  0  0  0  0  0  0  0  0
   44.7480   81.7240   62.6180 C   0  0  0  0  0  0  0  0  0  0  0  0
   44.2390   82.8040   63.3050 C   0  0  0  0  0  0  0  0  0  0  0  0
   42.9120   83.1580   63.1370 C   0  0  0  0  0  0  0  0  0  0  0  0
   44.2660   80.1750   61.2200 H   0  0  0  0  0  0  0  0  0  0  0  0
   45.7630   81.3620   62.6730 H   0  0  0  0  0  0  0  0  0  0  0  0
   44.8840   83.3460   63.9560 H   0  0  0  0  0  0  0  0  0  0  0  0
   42.5580   84.0090   63.6950 H   0  0  0  0  0  0  0  0  0  0  0  0
   40.3480   78.7600   60.2440 C   0  0  0  0  0  0  0  0  0  0  0  0
   40.2140   79.1380   58.9240 C   0  0  0  0  0  0  0  0  0  0  0  0
   40.8910   80.2950   58.5340 C   0  0  0  0  0  0  0  0  0  0  0  0
   41.6290   80.9640   59.4610 N   0  0  0  0  0  0  0  0  0  0  0  0
   41.7380   80.5770   60.7170 C   0  0  0  0  0  0  0  0  0  0  0  0
   41.0950   79.4770   61.0920 N   0  0  0  0  0  0  0  0  0  0  0  0
   39.8170   77.8580   60.5380 H   0  0  0  0  0  0  0  0  0  0  0  0
   40.8340   80.6510   57.5200 H   0  0  0  0  0  0  0  0  0  0  0  0
   39.4270   78.3920   58.0110 N   0  0  0  0  0  0  0  0  0  0  0  0
   38.5240   79.1400   57.3570 C   0  0  0  0  0  0  0  0  0  0  0  0
   37.6880   78.5030   56.4350 C   0  0  0  0  0  0  0  0  0  0  0  0
   37.8250   77.1250   56.2310 C   0  0  0  0  0  0  0  0  0  0  0  0
   37.1350   76.4450   55.4320 O   0  0  0  0  0  0  0  0  0  0  0  0
   38.7760   76.4380   56.9430 N   0  0  0  0  0  0  0  0  0  0  0  0
   39.5850   77.0650   57.8370 C   0  0  0  0  0  0  0  0  0  0  0  0
   40.4500   76.4560   58.4880 O   0  0  0  0  0  0  0  0  0  0  0  0
   38.3890   80.1960   57.4860 H   0  0  0  0  0  0  0  0  0  0  0  0
   36.9410   79.0140   55.8690 H   0  0  0  0  0  0  0  0  0  0  0  0
   38.9340   75.4140   56.8430 H   0  0  0  0  0  0  0  0  0  0  0  0
   40.3740   82.9530   62.0970 S   0  0  0  0  0  0  0  0  0  0  0  0
   39.8620   83.5610   63.3860 O   0  0  0  0  0  0  0  0  0  0  0  0
   39.5510   81.6560   61.9990 O   0  0  0  0  0  0  0  0  0  0  0  0
   39.9760   84.0390   60.8280 C   0  0  0  0  0  0  0  0  0  0  0  0
   38.9560   84.7020   60.2620 N   0  0  0  0  0  0  0  0  0  0  0  0
   39.4000   85.3820   59.2230 C   0  0  0  0  0  0  0  0  0  0  0  0
   38.6600   85.9730   58.6640 H   0  0  0  0  0  0  0  0  0  0  0  0
   40.7040   85.1950   59.0710 N   0  0  0  0  0  0  0  0  0  0  0  0
   41.2480   85.6450   58.3070 H   0  0  0  0  0  0  0  0  0  0  0  0
   41.0430   84.3830   60.0460 N   0  0  0  0  0  0  0  0  0  0  0  0
  1  6  1  0  0  0  0
  2  3  1  0  0  0  0
  2  1  2  0  0  0  0
  3  4  2  0  0  0  0
  4  8  1  0  0  0  0
  4  5  1  0  0  0  0
  5  9  1  0  0  0  0
  6  5  2  0  0  0  0
  6 10  1  0  0  0  0
  7  3  1  0  0  0  0
 11 17  1  0  0  0  0
 11 16  1  0  0  0  0
 12 11  2  0  0  0  0
 13 12  1  0  0  0  0
 13 14  2  0  0  0  0
 14 15  1  0  0  0  0
 15 16  2  0  0  0  0
 15  2  1  0  0  0  0
 18 13  1  0  0  0  0
 19 12  1  0  0  0  0
 20 27  1  0  0  0  0
 20 19  1  0  0  0  0
 21 20  2  0  0  0  0
 22 21  1  0  0  0  0
 22 24  1  0  0  0  0
 23 22  2  0  0  0  0
 24 25  1  0  0  0  0
 25 19  1  0  0  0  0
 25 26  2  0  0  0  0
 28 21  1  0  0  0  0
 29 24  1  0  0  0  0
 30  1  1  0  0  0  0
 30 31  2  0  0  0  0
 32 30  2  0  0  0  0
 33 30  1  0  0  0  0
 34 33  1  0  0  0  0
 35 34  2  0  0  0  0
 36 35  1  0  0  0  0
 37 35  1  0  0  0  0
 37 39  1  0  0  0  0
 38 37  1  0  0  0  0
 39 33  2  0  0  0  0
M  END
>  <minimizedAffinity>
-6.83387661

>  <minimizedRMSD>
2.12435555

$$$$
