
 OpenBabel03212520593D

 40 44  0  0  1  0  0  0  0  0999 V2000
   39.7570   77.3410   59.2220 C   0  0  0  0  0  0  0  0  0  0  0  0
   40.4100   76.1720   58.9900 C   0  0  0  0  0  0  0  0  0  0  0  0
   39.8550   75.4640   57.9120 C   0  0  0  0  0  0  0  0  0  0  0  0
   38.8020   75.8840   57.1860 N   0  0  0  0  0  0  0  0  0  0  0  0
   38.2210   77.0760   57.5080 C   0  0  0  0  0  0  0  0  0  0  0  0
   38.7020   77.8140   58.5350 N   0  0  0  0  0  0  0  0  0  0  0  0
   41.2430   75.7920   59.5260 H   0  0  0  0  0  0  0  0  0  0  0  0
   40.2630   74.5050   57.5930 H   0  0  0  0  0  0  0  0  0  0  0  0
   40.9750   80.2990   61.7530 C   0  0  0  0  0  0  0  0  0  0  0  0
   40.9700   79.0700   62.3600 C   0  0  0  0  0  0  0  0  0  0  0  0
   40.5860   78.0030   61.6300 C   0  0  0  0  0  0  0  0  0  0  0  0
   40.2150   78.1890   60.3040 C   0  0  0  0  0  0  0  0  0  0  0  0
   40.4160   80.0010   60.0500 S   0  0  0  0  0  0  0  0  0  0  0  0
   41.2610   78.9250   63.4020 H   0  0  0  0  0  0  0  0  0  0  0  0
   40.5120   76.9630   61.9150 H   0  0  0  0  0  0  0  0  0  0  0  0
   43.0540   83.1120   62.8730 C   0  0  0  0  0  0  0  0  0  0  0  0
   42.1580   83.8760   63.6580 C   0  0  0  0  0  0  0  0  0  0  0  0
   40.8380   83.4250   63.7990 C   0  0  0  0  0  0  0  0  0  0  0  0
   40.4820   82.2800   63.1780 N   0  0  0  0  0  0  0  0  0  0  0  0
   41.3710   81.5660   62.4260 C   0  0  0  0  0  0  0  0  0  0  0  0
   42.6290   81.9890   62.2870 N   0  0  0  0  0  0  0  0  0  0  0  0
   44.0840   83.4170   62.7310 H   0  0  0  0  0  0  0  0  0  0  0  0
   42.4900   84.7780   64.1300 H   0  0  0  0  0  0  0  0  0  0  0  0
   40.1150   83.9730   64.3890 H   0  0  0  0  0  0  0  0  0  0  0  0
   37.0940   77.5100   56.7060 C   0  0  0  0  0  0  0  0  0  0  0  0
   35.9740   77.0690   57.0080 O   0  0  0  0  0  0  0  0  0  0  0  0
   37.2500   78.4530   55.5390 C   0  0  1  0  0  0  0  0  0  0  0  0
   37.2890   79.9020   55.9560 C   0  0  0  0  0  0  0  0  0  0  0  0
   38.4630   79.2320   55.3970 C   0  0  2  0  0  0  0  0  0  0  0  0
   36.4110   78.2880   54.8060 H   0  0  0  0  0  0  0  0  0  0  0  0
   37.2540   80.1530   57.0410 H   0  0  0  0  0  0  0  0  0  0  0  0
   36.7560   80.6280   55.3250 H   0  0  0  0  0  0  0  0  0  0  0  0
   39.3190   78.9300   56.0630 H   0  0  0  0  0  0  0  0  0  0  0  0
   38.9650   79.7080   54.0850 C   0  0  0  0  0  0  0  0  0  0  0  0
   40.2560   79.6500   53.6620 N   0  0  0  0  0  0  0  0  0  0  0  0
   40.3670   80.1700   52.4220 C   0  0  0  0  0  0  0  0  0  0  0  0
   41.3610   80.1630   52.0070 H   0  0  0  0  0  0  0  0  0  0  0  0
   39.1320   80.5560   52.0700 N   0  0  0  0  0  0  0  0  0  0  0  0
   38.9970   80.9900   51.1320 H   0  0  0  0  0  0  0  0  0  0  0  0
   38.3020   80.2730   53.0790 N   0  0  0  0  0  0  0  0  0  0  0  0
  1 12  1  0  0  0  0
  2  1  1  0  0  0  0
  2  7  1  0  0  0  0
  3  2  2  0  0  0  0
  4  5  2  0  0  0  0
  4  3  1  0  0  0  0
  5  6  1  0  0  0  0
  6  1  2  0  0  0  0
  8  3  1  0  0  0  0
  9 10  2  0  0  0  0
  9 20  1  0  0  0  0
 10 14  1  0  0  0  0
 11 15  1  0  0  0  0
 11 10  1  0  0  0  0
 12 11  2  0  0  0  0
 13 12  1  0  0  0  0
 13  9  1  0  0  0  0
 16 17  1  0  0  0  0
 17 18  2  0  0  0  0
 17 23  1  0  0  0  0
 18 24  1  0  0  0  0
 19 18  1  0  0  0  0
 20 19  2  0  0  0  0
 21 20  1  0  0  0  0
 21 16  2  0  0  0  0
 22 16  1  0  0  0  0
 25 26  2  0  0  0  0
 25  5  1  0  0  0  0
 27 30  1  6  0  0  0
 27 28  1  0  0  0  0
 27 25  1  0  0  0  0
 28 31  1  0  0  0  0
 29 27  1  0  0  0  0
 29 28  1  0  0  0  0
 29 33  1  1  0  0  0
 32 28  1  0  0  0  0
 34 29  1  0  0  0  0
 35 34  1  0  0  0  0
 36 35  2  0  0  0  0
 37 36  1  0  0  0  0
 38 36  1  0  0  0  0
 38 40  1  0  0  0  0
 39 38  1  0  0  0  0
 40 34  2  0  0  0  0
M  END
>  <minimizedAffinity>
-6.5303421

>  <minimizedRMSD>
0.090403311

$$$$
