
 OpenBabel03212520593D

 40 44  0  0  1  0  0  0  0  0999 V2000
   39.8140   77.3910   59.1780 C   0  0  0  0  0  0  0  0  0  0  0  0
   40.4930   76.2390   58.9330 C   0  0  0  0  0  0  0  0  0  0  0  0
   39.9600   75.5350   57.8420 C   0  0  0  0  0  0  0  0  0  0  0  0
   38.9020   75.9420   57.1150 N   0  0  0  0  0  0  0  0  0  0  0  0
   38.2950   77.1170   57.4500 C   0  0  0  0  0  0  0  0  0  0  0  0
   38.7530   77.8500   58.4910 N   0  0  0  0  0  0  0  0  0  0  0  0
   41.3310   75.8700   59.4690 H   0  0  0  0  0  0  0  0  0  0  0  0
   40.3890   74.5890   57.5130 H   0  0  0  0  0  0  0  0  0  0  0  0
   40.9780   80.3350   61.7500 C   0  0  0  0  0  0  0  0  0  0  0  0
   40.9530   79.1030   62.3510 C   0  0  0  0  0  0  0  0  0  0  0  0
   40.5840   78.0410   61.6080 C   0  0  0  0  0  0  0  0  0  0  0  0
   40.2470   78.2330   60.2740 C   0  0  0  0  0  0  0  0  0  0  0  0
   40.4610   80.0450   60.0320 S   0  0  0  0  0  0  0  0  0  0  0  0
   41.2180   78.9540   63.3990 H   0  0  0  0  0  0  0  0  0  0  0  0
   40.4990   77.0000   61.8870 H   0  0  0  0  0  0  0  0  0  0  0  0
   43.0320   83.1490   62.9110 C   0  0  0  0  0  0  0  0  0  0  0  0
   42.1240   83.9020   63.6960 C   0  0  0  0  0  0  0  0  0  0  0  0
   40.8060   83.4420   63.8220 C   0  0  0  0  0  0  0  0  0  0  0  0
   40.4620   82.3010   63.1870 N   0  0  0  0  0  0  0  0  0  0  0  0
   41.3600   81.5980   62.4370 C   0  0  0  0  0  0  0  0  0  0  0  0
   42.6170   82.0290   62.3120 N   0  0  0  0  0  0  0  0  0  0  0  0
   44.0600   83.4610   62.7820 H   0  0  0  0  0  0  0  0  0  0  0  0
   42.4470   84.8010   64.1790 H   0  0  0  0  0  0  0  0  0  0  0  0
   40.0750   83.9810   64.4100 H   0  0  0  0  0  0  0  0  0  0  0  0
   37.1630   77.5380   56.6470 C   0  0  0  0  0  0  0  0  0  0  0  0
   36.0510   77.0670   56.9350 O   0  0  0  0  0  0  0  0  0  0  0  0
   37.3050   78.5030   55.4960 C   0  0  1  0  0  0  0  0  0  0  0  0
   37.2790   79.9470   55.9340 C   0  0  0  0  0  0  0  0  0  0  0  0
   38.4890   79.3300   55.3900 C   0  0  2  0  0  0  0  0  0  0  0  0
   36.4880   78.3150   54.7440 H   0  0  0  0  0  0  0  0  0  0  0  0
   37.2120   80.1810   57.0210 H   0  0  0  0  0  0  0  0  0  0  0  0
   36.7300   80.6590   55.3010 H   0  0  0  0  0  0  0  0  0  0  0  0
   39.3430   79.0530   56.0690 H   0  0  0  0  0  0  0  0  0  0  0  0
   38.9990   79.8450   54.0960 C   0  0  0  0  0  0  0  0  0  0  0  0
   40.2970   80.1400   53.8150 N   0  0  0  0  0  0  0  0  0  0  0  0
   40.4120   80.5850   52.5460 C   0  0  0  0  0  0  0  0  0  0  0  0
   41.4120   80.8430   52.2390 H   0  0  0  0  0  0  0  0  0  0  0  0
   39.1740   80.5670   52.0330 N   0  0  0  0  0  0  0  0  0  0  0  0
   39.0430   80.8790   51.0470 H   0  0  0  0  0  0  0  0  0  0  0  0
   38.3370   80.1200   52.9750 N   0  0  0  0  0  0  0  0  0  0  0  0
  1 12  1  0  0  0  0
  2  1  1  0  0  0  0
  2  7  1  0  0  0  0
  3  2  2  0  0  0  0
  4  5  2  0  0  0  0
  4  3  1  0  0  0  0
  5  6  1  0  0  0  0
  6  1  2  0  0  0  0
  8  3  1  0  0  0  0
  9 10  2  0  0  0  0
  9 20  1  0  0  0  0
 10 14  1  0  0  0  0
 11 15  1  0  0  0  0
 11 10  1  0  0  0  0
 12 11  2  0  0  0  0
 13 12  1  0  0  0  0
 13  9  1  0  0  0  0
 16 17  1  0  0  0  0
 17 18  2  0  0  0  0
 17 23  1  0  0  0  0
 18 24  1  0  0  0  0
 19 18  1  0  0  0  0
 20 19  2  0  0  0  0
 21 20  1  0  0  0  0
 21 16  2  0  0  0  0
 22 16  1  0  0  0  0
 25 26  2  0  0  0  0
 25  5  1  0  0  0  0
 27 30  1  6  0  0  0
 27 28  1  0  0  0  0
 27 25  1  0  0  0  0
 28 31  1  0  0  0  0
 29 27  1  0  0  0  0
 29 28  1  0  0  0  0
 29 33  1  1  0  0  0
 32 28  1  0  0  0  0
 34 29  1  0  0  0  0
 35 34  1  0  0  0  0
 36 35  2  0  0  0  0
 37 36  1  0  0  0  0
 38 36  1  0  0  0  0
 38 40  1  0  0  0  0
 39 38  1  0  0  0  0
 40 34  2  0  0  0  0
M  END
>  <minimizedAffinity>
-6.48576641

>  <minimizedRMSD>
0.144278049

$$$$
