
 OpenBabel03212520353D

 34 37  0  0  0  0  0  0  0  0999 V2000
   40.7790   80.5690   60.0990 C   0  0  0  0  0  0  0  0  0  0  0  0
   41.0990   80.5460   61.4780 C   0  0  0  0  0  0  0  0  0  0  0  0
   40.9360   79.4500   62.2770 C   0  0  0  0  0  0  0  0  0  0  0  0
   40.4330   78.2880   61.7270 C   0  0  0  0  0  0  0  0  0  0  0  0
   40.1110   78.2840   60.3820 C   0  0  0  0  0  0  0  0  0  0  0  0
   39.6220   77.1750   59.7300 C   0  0  0  0  0  0  0  0  0  0  0  0
   39.3220   77.2050   58.3710 C   0  0  0  0  0  0  0  0  0  0  0  0
   39.5000   78.3520   57.6100 C   0  0  0  0  0  0  0  0  0  0  0  0
   39.9900   79.4650   58.2620 C   0  0  0  0  0  0  0  0  0  0  0  0
   40.2780   79.4030   59.5830 C   0  0  0  0  0  0  0  0  0  0  0  0
   41.5100   81.3480   62.0710 H   0  0  0  0  0  0  0  0  0  0  0  0
   41.1620   79.3730   63.3240 H   0  0  0  0  0  0  0  0  0  0  0  0
   40.2610   77.3580   62.2520 H   0  0  0  0  0  0  0  0  0  0  0  0
   39.4840   76.2780   60.3400 H   0  0  0  0  0  0  0  0  0  0  0  0
   38.9470   76.2550   57.9960 H   0  0  0  0  0  0  0  0  0  0  0  0
   39.2340   78.2610   56.5710 H   0  0  0  0  0  0  0  0  0  0  0  0
   40.0080   80.2760   57.5780 H   0  0  0  0  0  0  0  0  0  0  0  0
   42.1590   82.1540   58.6040 C   0  0  0  0  0  0  0  0  0  0  0  0
   41.0910   81.8240   59.4420 C   0  0  0  0  0  0  0  0  0  0  0  0
   40.1220   82.8470   59.7740 C   0  0  0  0  0  0  0  0  0  0  0  0
   40.3060   84.0920   59.2450 N   0  0  0  0  0  0  0  0  0  0  0  0
   41.3930   84.3420   58.4160 C   0  0  0  0  0  0  0  0  0  0  0  0
   42.3000   83.3760   58.1060 N   0  0  0  0  0  0  0  0  0  0  0  0
   42.9350   81.4710   58.3910 H   0  0  0  0  0  0  0  0  0  0  0  0
   39.2520   82.8350   60.3610 H   0  0  0  0  0  0  0  0  0  0  0  0
   41.6280   85.6800   57.8620 C   0  0  0  0  0  0  0  0  0  0  0  0
   40.9890   86.1050   56.8870 O   0  0  0  0  0  0  0  0  0  0  0  0
   42.6440   86.5870   58.4440 C   0  0  0  0  0  0  0  0  0  0  0  0
   43.0160   87.7250   57.8840 N   0  0  0  0  0  0  0  0  0  0  0  0
   43.9570   88.2700   58.7070 C   0  0  0  0  0  0  0  0  0  0  0  0
   44.4370   89.2250   58.4740 H   0  0  0  0  0  0  0  0  0  0  0  0
   44.1510   87.4540   59.7690 N   0  0  0  0  0  0  0  0  0  0  0  0
   44.8320   87.7260   60.4840 H   0  0  0  0  0  0  0  0  0  0  0  0
   43.3360   86.4100   59.6050 N   0  0  0  0  0  0  0  0  0  0  0  0
  1  2  1  0  0  0  0
  2 11  1  0  0  0  0
  2  3  2  0  0  0  0
  3 12  1  0  0  0  0
  4 13  1  0  0  0  0
  4  3  1  0  0  0  0
  5  4  2  0  0  0  0
  6 14  1  0  0  0  0
  6  5  1  0  0  0  0
  7  6  2  0  0  0  0
  8  9  2  0  0  0  0
  8  7  1  0  0  0  0
  9 10  1  0  0  0  0
 10  1  2  0  0  0  0
 10  5  1  0  0  0  0
 15  7  1  0  0  0  0
 16  8  1  0  0  0  0
 17  9  1  0  0  0  0
 18 19  1  0  0  0  0
 19 20  2  0  0  0  0
 19  1  1  0  0  0  0
 20 25  1  0  0  0  0
 21 20  1  0  0  0  0
 22 21  2  0  0  0  0
 23 22  1  0  0  0  0
 23 18  2  0  0  0  0
 24 18  1  0  0  0  0
 26 22  1  0  0  0  0
 26 28  1  0  0  0  0
 27 26  2  0  0  0  0
 28 34  2  0  0  0  0
 29 28  1  0  0  0  0
 29 30  2  0  0  0  0
 30 32  1  0  0  0  0
 31 30  1  0  0  0  0
 32 33  1  0  0  0  0
 34 32  1  0  0  0  0
M  END
>  <minimizedAffinity>
-5.74791765

>  <minimizedRMSD>
5.34038353

$$$$
