
 OpenBabel03212520353D

 34 37  0  0  0  0  0  0  0  0999 V2000
   42.3540   81.5070   60.0980 C   0  0  0  0  0  0  0  0  0  0  0  0
   42.8500   80.4060   60.8390 C   0  0  0  0  0  0  0  0  0  0  0  0
   43.6180   80.5310   61.9610 C   0  0  0  0  0  0  0  0  0  0  0  0
   43.9390   81.7920   62.4170 C   0  0  0  0  0  0  0  0  0  0  0  0
   43.4690   82.8860   61.7120 C   0  0  0  0  0  0  0  0  0  0  0  0
   43.7150   84.1860   62.0910 C   0  0  0  0  0  0  0  0  0  0  0  0
   43.2120   85.2610   61.3630 C   0  0  0  0  0  0  0  0  0  0  0  0
   42.4430   85.0740   60.2220 C   0  0  0  0  0  0  0  0  0  0  0  0
   42.1970   83.7710   59.8410 C   0  0  0  0  0  0  0  0  0  0  0  0
   42.6930   82.7460   60.5730 C   0  0  0  0  0  0  0  0  0  0  0  0
   42.6920   79.3570   60.6410 H   0  0  0  0  0  0  0  0  0  0  0  0
   44.0190   79.7360   62.5620 H   0  0  0  0  0  0  0  0  0  0  0  0
   44.5350   82.0210   63.2910 H   0  0  0  0  0  0  0  0  0  0  0  0
   44.3230   84.3210   62.9890 H   0  0  0  0  0  0  0  0  0  0  0  0
   43.4870   86.2260   61.7830 H   0  0  0  0  0  0  0  0  0  0  0  0
   42.1090   85.9770   59.7390 H   0  0  0  0  0  0  0  0  0  0  0  0
   41.6610   83.7830   58.9260 H   0  0  0  0  0  0  0  0  0  0  0  0
   40.1220   81.0210   58.9010 C   0  0  0  0  0  0  0  0  0  0  0  0
   41.5120   81.1330   58.9780 C   0  0  0  0  0  0  0  0  0  0  0  0
   42.3040   80.8180   57.8070 C   0  0  0  0  0  0  0  0  0  0  0  0
   41.6430   80.4240   56.6800 N   0  0  0  0  0  0  0  0  0  0  0  0
   40.2550   80.3390   56.6810 C   0  0  0  0  0  0  0  0  0  0  0  0
   39.5160   80.6370   57.7840 N   0  0  0  0  0  0  0  0  0  0  0  0
   39.5020   81.1630   59.7430 H   0  0  0  0  0  0  0  0  0  0  0  0
   43.3380   80.8390   57.6250 H   0  0  0  0  0  0  0  0  0  0  0  0
   39.5260   79.8860   55.4920 C   0  0  0  0  0  0  0  0  0  0  0  0
   39.6470   80.4560   54.3960 O   0  0  0  0  0  0  0  0  0  0  0  0
   38.6070   78.7260   55.5460 C   0  0  0  0  0  0  0  0  0  0  0  0
   39.0070   77.4860   55.7670 N   0  0  0  0  0  0  0  0  0  0  0  0
   37.8860   76.7100   55.7450 C   0  0  0  0  0  0  0  0  0  0  0  0
   37.9350   75.6280   55.9030 H   0  0  0  0  0  0  0  0  0  0  0  0
   36.8050   77.4900   55.5090 N   0  0  0  0  0  0  0  0  0  0  0  0
   35.8810   77.0510   55.4620 H   0  0  0  0  0  0  0  0  0  0  0  0
   37.2540   78.7390   55.3860 N   0  0  0  0  0  0  0  0  0  0  0  0
  1 10  2  0  0  0  0
  1  2  1  0  0  0  0
  2  3  2  0  0  0  0
  3  4  1  0  0  0  0
  3 12  1  0  0  0  0
  4 13  1  0  0  0  0
  5  6  1  0  0  0  0
  5  4  2  0  0  0  0
  6 14  1  0  0  0  0
  7 15  1  0  0  0  0
  7  6  2  0  0  0  0
  8  7  1  0  0  0  0
  9  8  2  0  0  0  0
  9 10  1  0  0  0  0
 10  5  1  0  0  0  0
 11  2  1  0  0  0  0
 16  8  1  0  0  0  0
 17  9  1  0  0  0  0
 18 19  1  0  0  0  0
 18 24  1  0  0  0  0
 19  1  1  0  0  0  0
 20 19  2  0  0  0  0
 21 22  2  0  0  0  0
 21 20  1  0  0  0  0
 22 23  1  0  0  0  0
 23 18  2  0  0  0  0
 25 20  1  0  0  0  0
 26 28  1  0  0  0  0
 26 22  1  0  0  0  0
 27 26  2  0  0  0  0
 28 29  1  0  0  0  0
 30 29  2  0  0  0  0
 30 31  1  0  0  0  0
 32 30  1  0  0  0  0
 33 32  1  0  0  0  0
 34 32  1  0  0  0  0
 34 28  2  0  0  0  0
M  END
>  <minimizedAffinity>
-4.57448149

>  <minimizedRMSD>
8.20806694

$$$$
