
 OpenBabel03212520593D

 40 44  0  0  1  0  0  0  0  0999 V2000
   39.7510   77.3820   59.2170 C   0  0  0  0  0  0  0  0  0  0  0  0
   40.4000   76.2130   58.9730 C   0  0  0  0  0  0  0  0  0  0  0  0
   39.8430   75.5180   57.8880 C   0  0  0  0  0  0  0  0  0  0  0  0
   38.7920   75.9480   57.1650 N   0  0  0  0  0  0  0  0  0  0  0  0
   38.2150   77.1400   57.4990 C   0  0  0  0  0  0  0  0  0  0  0  0
   38.6980   77.8650   58.5350 N   0  0  0  0  0  0  0  0  0  0  0  0
   41.2310   75.8250   59.5060 H   0  0  0  0  0  0  0  0  0  0  0  0
   40.2470   74.5610   57.5600 H   0  0  0  0  0  0  0  0  0  0  0  0
   40.9800   80.3090   61.7780 C   0  0  0  0  0  0  0  0  0  0  0  0
   40.9660   79.0740   62.3740 C   0  0  0  0  0  0  0  0  0  0  0  0
   40.5780   78.0170   61.6330 C   0  0  0  0  0  0  0  0  0  0  0  0
   40.2110   78.2170   60.3080 C   0  0  0  0  0  0  0  0  0  0  0  0
   40.4230   80.0300   60.0710 S   0  0  0  0  0  0  0  0  0  0  0  0
   41.2550   78.9180   63.4140 H   0  0  0  0  0  0  0  0  0  0  0  0
   40.4980   76.9740   61.9080 H   0  0  0  0  0  0  0  0  0  0  0  0
   43.0680   83.1090   62.9140 C   0  0  0  0  0  0  0  0  0  0  0  0
   42.1790   83.8620   63.7180 C   0  0  0  0  0  0  0  0  0  0  0  0
   40.8600   83.4080   63.8650 C   0  0  0  0  0  0  0  0  0  0  0  0
   40.4990   82.2720   63.2330 N   0  0  0  0  0  0  0  0  0  0  0  0
   41.3810   81.5670   62.4640 C   0  0  0  0  0  0  0  0  0  0  0  0
   42.6370   81.9930   62.3180 N   0  0  0  0  0  0  0  0  0  0  0  0
   44.0950   83.4170   62.7670 H   0  0  0  0  0  0  0  0  0  0  0  0
   42.5150   84.7580   64.1980 H   0  0  0  0  0  0  0  0  0  0  0  0
   40.1430   83.9480   64.4690 H   0  0  0  0  0  0  0  0  0  0  0  0
   37.0900   77.5860   56.7020 C   0  0  0  0  0  0  0  0  0  0  0  0
   35.9630   77.1720   57.0190 O   0  0  0  0  0  0  0  0  0  0  0  0
   37.2550   78.5090   55.5200 C   0  0  1  0  0  0  0  0  0  0  0  0
   37.3250   79.9630   55.9170 C   0  0  0  0  0  0  0  0  0  0  0  0
   38.4810   79.2620   55.3570 C   0  0  2  0  0  0  0  0  0  0  0  0
   36.4060   78.3500   54.7970 H   0  0  0  0  0  0  0  0  0  0  0  0
   37.3040   80.2300   56.9980 H   0  0  0  0  0  0  0  0  0  0  0  0
   36.8010   80.6900   55.2800 H   0  0  0  0  0  0  0  0  0  0  0  0
   39.3370   78.9530   56.0210 H   0  0  0  0  0  0  0  0  0  0  0  0
   38.9820   79.7100   54.0350 C   0  0  0  0  0  0  0  0  0  0  0  0
   38.2280   79.8750   52.9170 N   0  0  0  0  0  0  0  0  0  0  0  0
   38.9980   80.2930   51.8890 C   0  0  0  0  0  0  0  0  0  0  0  0
   38.4780   80.4490   50.9580 H   0  0  0  0  0  0  0  0  0  0  0  0
   40.2430   80.3890   52.3760 N   0  0  0  0  0  0  0  0  0  0  0  0
   41.0030   80.7020   51.7330 H   0  0  0  0  0  0  0  0  0  0  0  0
   40.2180   80.0370   53.6650 N   0  0  0  0  0  0  0  0  0  0  0  0
  1 12  1  0  0  0  0
  2  1  1  0  0  0  0
  2  7  1  0  0  0  0
  3  2  2  0  0  0  0
  4  5  2  0  0  0  0
  4  3  1  0  0  0  0
  5  6  1  0  0  0  0
  6  1  2  0  0  0  0
  8  3  1  0  0  0  0
  9 10  2  0  0  0  0
  9 20  1  0  0  0  0
 10 14  1  0  0  0  0
 11 15  1  0  0  0  0
 11 10  1  0  0  0  0
 12 11  2  0  0  0  0
 13 12  1  0  0  0  0
 13  9  1  0  0  0  0
 16 17  1  0  0  0  0
 17 18  2  0  0  0  0
 17 23  1  0  0  0  0
 18 24  1  0  0  0  0
 19 18  1  0  0  0  0
 20 19  2  0  0  0  0
 21 20  1  0  0  0  0
 21 16  2  0  0  0  0
 22 16  1  0  0  0  0
 25 26  2  0  0  0  0
 25  5  1  0  0  0  0
 27 30  1  6  0  0  0
 27 28  1  0  0  0  0
 27 25  1  0  0  0  0
 28 31  1  0  0  0  0
 29 27  1  0  0  0  0
 29 28  1  0  0  0  0
 29 33  1  1  0  0  0
 32 28  1  0  0  0  0
 34 29  1  0  0  0  0
 35 34  1  0  0  0  0
 36 38  1  0  0  0  0
 36 35  2  0  0  0  0
 37 36  1  0  0  0  0
 38 40  1  0  0  0  0
 39 38  1  0  0  0  0
 40 34  2  0  0  0  0
M  END
>  <minimizedAffinity>
-6.36655664

>  <minimizedRMSD>
0.0549440831

$$$$
