
 OpenBabel03212521013D

 40 44  0  0  1  0  0  0  0  0999 V2000
   42.5240   73.3420   60.5790 C   0  0  0  0  0  0  0  0  0  0  0  0
   43.7790   73.5760   60.1110 C   0  0  0  0  0  0  0  0  0  0  0  0
   43.8460   74.7530   59.3480 C   0  0  0  0  0  0  0  0  0  0  0  0
   42.7990   75.5630   59.1030 N   0  0  0  0  0  0  0  0  0  0  0  0
   41.5810   75.2310   59.6240 C   0  0  0  0  0  0  0  0  0  0  0  0
   41.4400   74.1110   60.3690 N   0  0  0  0  0  0  0  0  0  0  0  0
   44.6390   72.9760   60.2720 H   0  0  0  0  0  0  0  0  0  0  0  0
   44.7810   75.0850   58.9000 H   0  0  0  0  0  0  0  0  0  0  0  0
   41.8610   69.6510   62.1820 C   0  0  0  0  0  0  0  0  0  0  0  0
   41.9480   70.6230   63.1440 C   0  0  0  0  0  0  0  0  0  0  0  0
   42.1660   71.8930   62.7450 C   0  0  0  0  0  0  0  0  0  0  0  0
   42.2930   72.1640   61.3880 C   0  0  0  0  0  0  0  0  0  0  0  0
   42.0920   70.5130   60.5990 S   0  0  0  0  0  0  0  0  0  0  0  0
   41.8480   70.4100   64.2090 H   0  0  0  0  0  0  0  0  0  0  0  0
   42.2660   72.7930   63.3350 H   0  0  0  0  0  0  0  0  0  0  0  0
   40.3860   66.6080   63.6140 C   0  0  0  0  0  0  0  0  0  0  0  0
   41.1630   65.5760   63.0360 C   0  0  0  0  0  0  0  0  0  0  0  0
   42.1930   65.9270   62.1510 C   0  0  0  0  0  0  0  0  0  0  0  0
   42.3950   67.2360   61.8910 N   0  0  0  0  0  0  0  0  0  0  0  0
   41.6260   68.2090   62.4640 C   0  0  0  0  0  0  0  0  0  0  0  0
   40.6450   67.8820   63.3070 N   0  0  0  0  0  0  0  0  0  0  0  0
   39.5790   66.3890   64.3020 H   0  0  0  0  0  0  0  0  0  0  0  0
   40.9630   64.5520   63.2750 H   0  0  0  0  0  0  0  0  0  0  0  0
   42.8150   65.1760   61.6840 H   0  0  0  0  0  0  0  0  0  0  0  0
   40.4720   76.1230   59.3520 C   0  0  0  0  0  0  0  0  0  0  0  0
   39.9660   76.7180   60.3180 O   0  0  0  0  0  0  0  0  0  0  0  0
   39.9260   76.3320   57.9610 C   0  0  1  0  0  0  0  0  0  0  0  0
   39.2490   75.1040   57.4060 C   0  0  0  0  0  0  0  0  0  0  0  0
   38.4950   76.3140   57.7370 C   0  0  2  0  0  0  0  0  0  0  0  0
   40.7580   76.6550   57.2750 H   0  0  0  0  0  0  0  0  0  0  0  0
   39.1610   74.1980   58.0480 H   0  0  0  0  0  0  0  0  0  0  0  0
   39.4140   74.8700   56.3440 H   0  0  0  0  0  0  0  0  0  0  0  0
   37.8540   76.3510   58.6610 H   0  0  0  0  0  0  0  0  0  0  0  0
   37.8460   77.0440   56.6220 C   0  0  0  0  0  0  0  0  0  0  0  0
   38.3590   78.1240   55.9750 N   0  0  0  0  0  0  0  0  0  0  0  0
   37.5100   78.5420   55.0120 C   0  0  0  0  0  0  0  0  0  0  0  0
   37.8410   79.3970   54.4470 H   0  0  0  0  0  0  0  0  0  0  0  0
   36.4580   77.7120   55.0620 N   0  0  0  0  0  0  0  0  0  0  0  0
   35.6760   77.8650   54.3890 H   0  0  0  0  0  0  0  0  0  0  0  0
   36.6740   76.8190   56.0320 N   0  0  0  0  0  0  0  0  0  0  0  0
  1 12  1  0  0  0  0
  2  7  1  0  0  0  0
  2  1  2  0  0  0  0
  3  2  1  0  0  0  0
  4  3  2  0  0  0  0
  4  5  1  0  0  0  0
  5  6  2  0  0  0  0
  6  1  1  0  0  0  0
  8  3  1  0  0  0  0
  9 20  1  0  0  0  0
  9 10  2  0  0  0  0
 10 14  1  0  0  0  0
 11 10  1  0  0  0  0
 11 15  1  0  0  0  0
 12 11  2  0  0  0  0
 13 12  1  0  0  0  0
 13  9  1  0  0  0  0
 16 22  1  0  0  0  0
 17 23  1  0  0  0  0
 17 16  2  0  0  0  0
 18 17  1  0  0  0  0
 19 18  2  0  0  0  0
 19 20  1  0  0  0  0
 20 21  2  0  0  0  0
 21 16  1  0  0  0  0
 24 18  1  0  0  0  0
 25  5  1  0  0  0  0
 25 26  2  0  0  0  0
 27 30  1  6  0  0  0
 27 25  1  0  0  0  0
 28 29  1  0  0  0  0
 28 27  1  0  0  0  0
 28 31  1  0  0  0  0
 29 27  1  0  0  0  0
 29 33  1  1  0  0  0
 32 28  1  0  0  0  0
 34 29  1  0  0  0  0
 35 34  1  0  0  0  0
 36 38  1  0  0  0  0
 36 35  2  0  0  0  0
 37 36  1  0  0  0  0
 38 40  1  0  0  0  0
 39 38  1  0  0  0  0
 40 34  2  0  0  0  0
M  END
>  <minimizedAffinity>
-6.83542824

$$$$

 OpenBabel03212521013D

 40 44  0  0  1  0  0  0  0  0999 V2000
   39.1320   76.3320   58.7580 C   0  0  0  0  0  0  0  0  0  0  0  0
   39.7380   77.5240   59.0010 C   0  0  0  0  0  0  0  0  0  0  0  0
   39.3780   78.5000   58.0590 C   0  0  0  0  0  0  0  0  0  0  0  0
   38.5320   78.2930   57.0320 N   0  0  0  0  0  0  0  0  0  0  0  0
   37.9790   77.0540   56.8820 C   0  0  0  0  0  0  0  0  0  0  0  0
   38.2810   76.0630   57.7520 N   0  0  0  0  0  0  0  0  0  0  0  0
   40.4100   77.7450   59.7920 H   0  0  0  0  0  0  0  0  0  0  0  0
   39.7760   79.5130   58.1110 H   0  0  0  0  0  0  0  0  0  0  0  0
   40.5720   73.1750   60.9030 C   0  0  0  0  0  0  0  0  0  0  0  0
   39.3070   73.5310   61.2940 C   0  0  0  0  0  0  0  0  0  0  0  0
   38.7140   74.5640   60.6610 C   0  0  0  0  0  0  0  0  0  0  0  0
   39.4010   75.2210   59.6480 C   0  0  0  0  0  0  0  0  0  0  0  0
   41.0080   74.3270   59.5660 S   0  0  0  0  0  0  0  0  0  0  0  0
   38.7690   73.0140   62.0900 H   0  0  0  0  0  0  0  0  0  0  0  0
   37.7360   74.9970   60.8160 H   0  0  0  0  0  0  0  0  0  0  0  0
   41.7180   70.6860   63.3480 C   0  0  0  0  0  0  0  0  0  0  0  0
   42.7740   70.0350   62.6660 C   0  0  0  0  0  0  0  0  0  0  0  0
   43.0880   70.4500   61.3650 C   0  0  0  0  0  0  0  0  0  0  0  0
   42.3680   71.4530   60.8200 N   0  0  0  0  0  0  0  0  0  0  0  0
   41.3540   72.0620   61.5040 C   0  0  0  0  0  0  0  0  0  0  0  0
   41.0490   71.6720   62.7430 N   0  0  0  0  0  0  0  0  0  0  0  0
   41.4350   70.4030   64.3540 H   0  0  0  0  0  0  0  0  0  0  0  0
   43.3150   69.2430   63.1430 H   0  0  0  0  0  0  0  0  0  0  0  0
   43.8870   69.9840   60.8020 H   0  0  0  0  0  0  0  0  0  0  0  0
   37.0660   76.8580   55.7740 C   0  0  0  0  0  0  0  0  0  0  0  0
   36.1110   77.6450   55.6740 O   0  0  0  0  0  0  0  0  0  0  0  0
   37.2410   75.7440   54.7720 C   0  0  1  0  0  0  0  0  0  0  0  0
   37.4850   76.2470   53.3710 C   0  0  0  0  0  0  0  0  0  0  0  0
   38.5230   75.5460   54.1280 C   0  0  2  0  0  0  0  0  0  0  0  0
   36.3330   75.0780   54.7870 H   0  0  0  0  0  0  0  0  0  0  0  0
   37.5660   77.3440   53.1980 H   0  0  0  0  0  0  0  0  0  0  0  0
   36.9940   75.7110   52.5460 H   0  0  0  0  0  0  0  0  0  0  0  0
   39.3870   76.1150   54.5730 H   0  0  0  0  0  0  0  0  0  0  0  0
   38.9740   74.2290   53.6180 C   0  0  0  0  0  0  0  0  0  0  0  0
   39.3770   73.1790   54.3810 N   0  0  0  0  0  0  0  0  0  0  0  0
   39.7200   72.1340   53.5980 C   0  0  0  0  0  0  0  0  0  0  0  0
   40.0520   71.2550   54.1240 H   0  0  0  0  0  0  0  0  0  0  0  0
   39.5270   72.5400   52.3350 N   0  0  0  0  0  0  0  0  0  0  0  0
   39.7370   71.8710   51.5630 H   0  0  0  0  0  0  0  0  0  0  0  0
   39.0790   73.7990   52.3630 N   0  0  0  0  0  0  0  0  0  0  0  0
  1  2  1  0  0  0  0
  1 12  1  0  0  0  0
  2  7  1  0  0  0  0
  3  8  1  0  0  0  0
  3  2  2  0  0  0  0
  4  3  1  0  0  0  0
  5  4  2  0  0  0  0
  5  6  1  0  0  0  0
  6  1  2  0  0  0  0
  9 10  2  0  0  0  0
  9 20  1  0  0  0  0
 10 14  1  0  0  0  0
 11 15  1  0  0  0  0
 11 10  1  0  0  0  0
 12 11  2  0  0  0  0
 13 12  1  0  0  0  0
 13  9  1  0  0  0  0
 16 22  1  0  0  0  0
 17 23  1  0  0  0  0
 17 16  2  0  0  0  0
 18 17  1  0  0  0  0
 19 18  2  0  0  0  0
 19 20  1  0  0  0  0
 20 21  2  0  0  0  0
 21 16  1  0  0  0  0
 24 18  1  0  0  0  0
 25  5  1  0  0  0  0
 26 25  2  0  0  0  0
 27 30  1  1  0  0  0
 27 25  1  0  0  0  0
 28 29  1  0  0  0  0
 28 27  1  0  0  0  0
 29 33  1  1  0  0  0
 29 27  1  0  0  0  0
 31 28  1  0  0  0  0
 32 28  1  0  0  0  0
 34 29  1  0  0  0  0
 34 35  1  0  0  0  0
 36 37  1  0  0  0  0
 36 35  2  0  0  0  0
 38 40  1  0  0  0  0
 38 36  1  0  0  0  0
 39 38  1  0  0  0  0
 40 34  2  0  0  0  0
M  END
>  <minimizedAffinity>
-6.81015491

$$$$

 OpenBabel03212521013D

 40 44  0  0  1  0  0  0  0  0999 V2000
   42.4160   73.6780   60.4160 C   0  0  0  0  0  0  0  0  0  0  0  0
   43.5480   73.7890   59.6730 C   0  0  0  0  0  0  0  0  0  0  0  0
   43.6010   75.0040   58.9710 C   0  0  0  0  0  0  0  0  0  0  0  0
   42.6480   75.9550   59.0200 N   0  0  0  0  0  0  0  0  0  0  0  0
   41.5500   75.7380   59.8010 C   0  0  0  0  0  0  0  0  0  0  0  0
   41.4300   74.5900   60.5070 N   0  0  0  0  0  0  0  0  0  0  0  0
   44.3300   73.0760   59.5960 H   0  0  0  0  0  0  0  0  0  0  0  0
   44.4440   75.2510   58.3270 H   0  0  0  0  0  0  0  0  0  0  0  0
   41.9040   69.9350   61.9530 C   0  0  0  0  0  0  0  0  0  0  0  0
   41.8720   70.9010   62.9250 C   0  0  0  0  0  0  0  0  0  0  0  0
   42.0290   72.1860   62.5480 C   0  0  0  0  0  0  0  0  0  0  0  0
   42.2160   72.4790   61.2030 C   0  0  0  0  0  0  0  0  0  0  0  0
   42.1680   70.8270   60.3920 S   0  0  0  0  0  0  0  0  0  0  0  0
   41.7260   70.6700   63.9820 H   0  0  0  0  0  0  0  0  0  0  0  0
   42.0360   73.0850   63.1490 H   0  0  0  0  0  0  0  0  0  0  0  0
   40.9930   66.8060   63.6470 C   0  0  0  0  0  0  0  0  0  0  0  0
   41.4520   65.8140   62.7490 C   0  0  0  0  0  0  0  0  0  0  0  0
   42.0720   66.2210   61.5590 C   0  0  0  0  0  0  0  0  0  0  0  0
   42.2020   67.5440   61.3250 N   0  0  0  0  0  0  0  0  0  0  0  0
   41.7480   68.4780   62.2120 C   0  0  0  0  0  0  0  0  0  0  0  0
   41.1560   68.0980   63.3460 N   0  0  0  0  0  0  0  0  0  0  0  0
   40.5070   66.5440   64.5790 H   0  0  0  0  0  0  0  0  0  0  0  0
   41.3250   64.7760   62.9810 H   0  0  0  0  0  0  0  0  0  0  0  0
   42.4400   65.5010   60.8400 H   0  0  0  0  0  0  0  0  0  0  0  0
   40.5430   76.7800   59.8440 C   0  0  0  0  0  0  0  0  0  0  0  0
   40.7570   77.7520   60.5860 O   0  0  0  0  0  0  0  0  0  0  0  0
   39.2710   76.7060   59.0360 C   0  0  1  0  0  0  0  0  0  0  0  0
   39.3120   77.5660   57.7970 C   0  0  0  0  0  0  0  0  0  0  0  0
   39.2870   76.1050   57.7180 C   0  0  2  0  0  0  0  0  0  0  0  0
   38.3980   77.0030   59.6810 H   0  0  0  0  0  0  0  0  0  0  0  0
   40.2470   78.1220   57.5560 H   0  0  0  0  0  0  0  0  0  0  0  0
   38.3980   78.1150   57.5300 H   0  0  0  0  0  0  0  0  0  0  0  0
   40.2190   75.5320   57.4530 H   0  0  0  0  0  0  0  0  0  0  0  0
   38.0940   75.4710   57.1070 C   0  0  0  0  0  0  0  0  0  0  0  0
   37.2650   76.0510   56.2000 N   0  0  0  0  0  0  0  0  0  0  0  0
   36.2790   75.1970   55.8510 C   0  0  0  0  0  0  0  0  0  0  0  0
   35.5740   75.5780   55.1320 H   0  0  0  0  0  0  0  0  0  0  0  0
   36.4990   74.0750   56.5500 N   0  0  0  0  0  0  0  0  0  0  0  0
   35.8400   73.2770   56.4240 H   0  0  0  0  0  0  0  0  0  0  0  0
   37.5910   74.2530   57.2990 N   0  0  0  0  0  0  0  0  0  0  0  0
  1  6  1  0  0  0  0
  1 12  1  0  0  0  0
  2  1  2  0  0  0  0
  3  4  2  0  0  0  0
  3  2  1  0  0  0  0
  4  5  1  0  0  0  0
  5 25  1  0  0  0  0
  5  6  2  0  0  0  0
  7  2  1  0  0  0  0
  8  3  1  0  0  0  0
  9 20  1  0  0  0  0
  9 10  2  0  0  0  0
 10 14  1  0  0  0  0
 11 10  1  0  0  0  0
 11 15  1  0  0  0  0
 12 11  2  0  0  0  0
 13 12  1  0  0  0  0
 13  9  1  0  0  0  0
 16 22  1  0  0  0  0
 17 23  1  0  0  0  0
 17 16  2  0  0  0  0
 18 17  1  0  0  0  0
 19 18  2  0  0  0  0
 19 20  1  0  0  0  0
 20 21  2  0  0  0  0
 21 16  1  0  0  0  0
 24 18  1  0  0  0  0
 25 26  2  0  0  0  0
 27 30  1  1  0  0  0
 27 25  1  0  0  0  0
 28 27  1  0  0  0  0
 29 33  1  6  0  0  0
 29 28  1  0  0  0  0
 29 27  1  0  0  0  0
 31 28  1  0  0  0  0
 32 28  1  0  0  0  0
 34 40  2  0  0  0  0
 34 29  1  0  0  0  0
 35 34  1  0  0  0  0
 36 35  2  0  0  0  0
 36 38  1  0  0  0  0
 37 36  1  0  0  0  0
 38 40  1  0  0  0  0
 39 38  1  0  0  0  0
M  END
>  <minimizedAffinity>
-6.7042222

$$$$

 OpenBabel03212521013D

 40 44  0  0  1  0  0  0  0  0999 V2000
   42.1060   74.7260   59.5190 C   0  0  0  0  0  0  0  0  0  0  0  0
   43.3720   75.0920   59.1880 C   0  0  0  0  0  0  0  0  0  0  0  0
   44.3350   74.2810   59.8100 C   0  0  0  0  0  0  0  0  0  0  0  0
   44.0500   73.2590   60.6390 N   0  0  0  0  0  0  0  0  0  0  0  0
   42.7400   72.9790   60.9030 C   0  0  0  0  0  0  0  0  0  0  0  0
   41.7570   73.7180   60.3390 N   0  0  0  0  0  0  0  0  0  0  0  0
   43.6560   75.8850   58.5420 H   0  0  0  0  0  0  0  0  0  0  0  0
   45.4000   74.4410   59.6500 H   0  0  0  0  0  0  0  0  0  0  0  0
   39.3330   76.6740   57.2490 C   0  0  0  0  0  0  0  0  0  0  0  0
   39.0280   76.7150   58.5850 C   0  0  0  0  0  0  0  0  0  0  0  0
   39.8670   76.1070   59.4470 C   0  0  0  0  0  0  0  0  0  0  0  0
   40.9980   75.4680   58.9530 C   0  0  0  0  0  0  0  0  0  0  0  0
   40.8860   75.7370   57.1350 S   0  0  0  0  0  0  0  0  0  0  0  0
   38.1390   77.2160   58.9720 H   0  0  0  0  0  0  0  0  0  0  0  0
   39.8100   76.0230   60.5230 H   0  0  0  0  0  0  0  0  0  0  0  0
   36.3800   77.6710   55.3070 C   0  0  0  0  0  0  0  0  0  0  0  0
   36.9400   78.4000   54.2300 C   0  0  0  0  0  0  0  0  0  0  0  0
   38.3330   78.5500   54.1740 C   0  0  0  0  0  0  0  0  0  0  0  0
   39.0770   77.9930   55.1530 N   0  0  0  0  0  0  0  0  0  0  0  0
   38.5060   77.2960   56.1800 C   0  0  0  0  0  0  0  0  0  0  0  0
   37.1810   77.1490   56.2390 N   0  0  0  0  0  0  0  0  0  0  0  0
   35.3100   77.5270   55.3960 H   0  0  0  0  0  0  0  0  0  0  0  0
   36.3050   78.8220   53.4780 H   0  0  0  0  0  0  0  0  0  0  0  0
   38.8090   79.0970   53.3710 H   0  0  0  0  0  0  0  0  0  0  0  0
   42.4590   71.8690   61.7910 C   0  0  0  0  0  0  0  0  0  0  0  0
   42.3990   72.1100   63.0080 O   0  0  0  0  0  0  0  0  0  0  0  0
   42.2520   70.4630   61.2840 C   0  0  1  0  0  0  0  0  0  0  0  0
   43.5440   69.7040   61.1150 C   0  0  0  0  0  0  0  0  0  0  0  0
   42.5650   69.3350   62.1370 C   0  0  2  0  0  0  0  0  0  0  0  0
   41.6940   70.4930   60.3070 H   0  0  0  0  0  0  0  0  0  0  0  0
   44.5010   70.1930   61.4100 H   0  0  0  0  0  0  0  0  0  0  0  0
   43.6420   69.0560   60.2320 H   0  0  0  0  0  0  0  0  0  0  0  0
   42.7520   69.5770   63.2210 H   0  0  0  0  0  0  0  0  0  0  0  0
   41.8990   68.0160   62.0050 C   0  0  0  0  0  0  0  0  0  0  0  0
   41.5690   67.1880   63.0320 N   0  0  0  0  0  0  0  0  0  0  0  0
   40.9760   66.0700   62.5620 C   0  0  0  0  0  0  0  0  0  0  0  0
   40.6810   65.3570   63.3120 H   0  0  0  0  0  0  0  0  0  0  0  0
   40.9380   66.2060   61.2280 N   0  0  0  0  0  0  0  0  0  0  0  0
   40.5120   65.4390   60.6660 H   0  0  0  0  0  0  0  0  0  0  0  0
   41.4950   67.3780   60.9090 N   0  0  0  0  0  0  0  0  0  0  0  0
  1  6  1  0  0  0  0
  2  1  2  0  0  0  0
  2  3  1  0  0  0  0
  3  4  2  0  0  0  0
  4  5  1  0  0  0  0
  5 25  1  0  0  0  0
  6  5  2  0  0  0  0
  7  2  1  0  0  0  0
  8  3  1  0  0  0  0
  9 10  2  0  0  0  0
 10 14  1  0  0  0  0
 10 11  1  0  0  0  0
 11 15  1  0  0  0  0
 12 11  2  0  0  0  0
 12  1  1  0  0  0  0
 13  9  1  0  0  0  0
 13 12  1  0  0  0  0
 16 22  1  0  0  0  0
 16 21  1  0  0  0  0
 17 16  2  0  0  0  0
 18 17  1  0  0  0  0
 18 19  2  0  0  0  0
 19 20  1  0  0  0  0
 20 21  2  0  0  0  0
 20  9  1  0  0  0  0
 23 17  1  0  0  0  0
 24 18  1  0  0  0  0
 25 26  2  0  0  0  0
 27 30  1  6  0  0  0
 27 25  1  0  0  0  0
 27 29  1  0  0  0  0
 28 27  1  0  0  0  0
 28 31  1  0  0  0  0
 28 29  1  0  0  0  0
 29 33  1  1  0  0  0
 32 28  1  0  0  0  0
 34 29  1  0  0  0  0
 34 35  1  0  0  0  0
 36 35  2  0  0  0  0
 36 37  1  0  0  0  0
 38 36  1  0  0  0  0
 39 38  1  0  0  0  0
 40 38  1  0  0  0  0
 40 34  2  0  0  0  0
M  END
>  <minimizedAffinity>
-6.66447973

$$$$

 OpenBabel03212521013D

 40 44  0  0  1  0  0  0  0  0999 V2000
   39.4190   76.3200   59.1100 C   0  0  0  0  0  0  0  0  0  0  0  0
   39.9180   77.5130   59.5310 C   0  0  0  0  0  0  0  0  0  0  0  0
   39.6290   78.5520   58.6320 C   0  0  0  0  0  0  0  0  0  0  0  0
   38.9400   78.3990   57.4860 N   0  0  0  0  0  0  0  0  0  0  0  0
   38.4840   77.1540   57.1600 C   0  0  0  0  0  0  0  0  0  0  0  0
   38.7250   76.1030   57.9780 N   0  0  0  0  0  0  0  0  0  0  0  0
   40.4660   77.6930   60.4220 H   0  0  0  0  0  0  0  0  0  0  0  0
   39.9580   79.5730   58.8220 H   0  0  0  0  0  0  0  0  0  0  0  0
   40.7300   73.0240   61.1230 C   0  0  0  0  0  0  0  0  0  0  0  0
   39.4330   73.3380   61.4350 C   0  0  0  0  0  0  0  0  0  0  0  0
   38.8770   74.4100   60.8350 C   0  0  0  0  0  0  0  0  0  0  0  0
   39.6330   75.1480   59.9330 C   0  0  0  0  0  0  0  0  0  0  0  0
   41.2550   74.2780   59.9170 S   0  0  0  0  0  0  0  0  0  0  0  0
   38.8400   72.7570   62.1430 H   0  0  0  0  0  0  0  0  0  0  0  0
   37.8830   74.8210   60.9410 H   0  0  0  0  0  0  0  0  0  0  0  0
   43.1390   70.2670   61.4160 C   0  0  0  0  0  0  0  0  0  0  0  0
   42.8730   69.7490   62.7060 C   0  0  0  0  0  0  0  0  0  0  0  0
   41.8670   70.3500   63.4760 C   0  0  0  0  0  0  0  0  0  0  0  0
   41.1980   71.3980   62.9500 N   0  0  0  0  0  0  0  0  0  0  0  0
   41.4790   71.8760   61.7010 C   0  0  0  0  0  0  0  0  0  0  0  0
   42.4350   71.3080   60.9630 N   0  0  0  0  0  0  0  0  0  0  0  0
   43.9050   69.8390   60.7820 H   0  0  0  0  0  0  0  0  0  0  0  0
   43.4320   68.9150   63.0770 H   0  0  0  0  0  0  0  0  0  0  0  0
   41.6260   69.9910   64.4670 H   0  0  0  0  0  0  0  0  0  0  0  0
   37.7380   77.0160   55.9260 C   0  0  0  0  0  0  0  0  0  0  0  0
   36.5000   76.9670   56.0080 O   0  0  0  0  0  0  0  0  0  0  0  0
   38.4140   76.9240   54.5800 C   0  0  1  0  0  0  0  0  0  0  0  0
   39.3550   75.7490   54.4750 C   0  0  0  0  0  0  0  0  0  0  0  0
   38.1170   75.8150   53.6970 C   0  0  2  0  0  0  0  0  0  0  0  0
   38.9700   77.8810   54.3720 H   0  0  0  0  0  0  0  0  0  0  0  0
   39.4370   75.0450   55.3340 H   0  0  0  0  0  0  0  0  0  0  0  0
   40.3070   75.9070   53.9490 H   0  0  0  0  0  0  0  0  0  0  0  0
   37.2290   75.1850   53.9840 H   0  0  0  0  0  0  0  0  0  0  0  0
   38.2380   75.9050   52.2220 C   0  0  0  0  0  0  0  0  0  0  0  0
   38.6650   74.9110   51.4000 N   0  0  0  0  0  0  0  0  0  0  0  0
   38.6540   75.3270   50.1150 C   0  0  0  0  0  0  0  0  0  0  0  0
   38.9790   74.5970   49.3930 H   0  0  0  0  0  0  0  0  0  0  0  0
   38.2140   76.5930   50.1410 N   0  0  0  0  0  0  0  0  0  0  0  0
   38.1300   77.1060   49.2370 H   0  0  0  0  0  0  0  0  0  0  0  0
   37.9680   76.9260   51.4120 N   0  0  0  0  0  0  0  0  0  0  0  0
  1  2  1  0  0  0  0
  1 12  1  0  0  0  0
  2  7  1  0  0  0  0
  3  8  1  0  0  0  0
  3  2  2  0  0  0  0
  4  3  1  0  0  0  0
  5  4  2  0  0  0  0
  5  6  1  0  0  0  0
  6  1  2  0  0  0  0
  9 10  2  0  0  0  0
  9 20  1  0  0  0  0
 10 14  1  0  0  0  0
 11 15  1  0  0  0  0
 11 10  1  0  0  0  0
 12 11  2  0  0  0  0
 13 12  1  0  0  0  0
 13  9  1  0  0  0  0
 16 17  1  0  0  0  0
 17 23  1  0  0  0  0
 17 18  2  0  0  0  0
 18 24  1  0  0  0  0
 19 18  1  0  0  0  0
 20 19  2  0  0  0  0
 21 16  2  0  0  0  0
 21 20  1  0  0  0  0
 22 16  1  0  0  0  0
 25 26  2  0  0  0  0
 25  5  1  0  0  0  0
 27 30  1  6  0  0  0
 27 25  1  0  0  0  0
 28 27  1  0  0  0  0
 28 31  1  0  0  0  0
 29 33  1  1  0  0  0
 29 28  1  0  0  0  0
 29 27  1  0  0  0  0
 32 28  1  0  0  0  0
 34 29  1  0  0  0  0
 35 34  1  0  0  0  0
 36 38  1  0  0  0  0
 36 35  2  0  0  0  0
 37 36  1  0  0  0  0
 38 40  1  0  0  0  0
 39 38  1  0  0  0  0
 40 34  2  0  0  0  0
M  END
>  <minimizedAffinity>
-6.49431181

$$$$

 OpenBabel03212521013D

 40 44  0  0  1  0  0  0  0  0999 V2000
   41.2490   72.2050   59.6200 C   0  0  0  0  0  0  0  0  0  0  0  0
   42.2940   72.6170   60.3850 C   0  0  0  0  0  0  0  0  0  0  0  0
   43.1820   71.5680   60.6730 C   0  0  0  0  0  0  0  0  0  0  0  0
   43.0280   70.3000   60.2470 N   0  0  0  0  0  0  0  0  0  0  0  0
   41.9390   69.9970   59.4830 C   0  0  0  0  0  0  0  0  0  0  0  0
   41.0390   70.9570   59.1650 N   0  0  0  0  0  0  0  0  0  0  0  0
   42.4680   73.5990   60.7480 H   0  0  0  0  0  0  0  0  0  0  0  0
   44.0750   71.7300   61.2760 H   0  0  0  0  0  0  0  0  0  0  0  0
   38.8920   75.0790   57.9400 C   0  0  0  0  0  0  0  0  0  0  0  0
   38.3430   74.5660   59.0860 C   0  0  0  0  0  0  0  0  0  0  0  0
   39.0250   73.6050   59.7420 C   0  0  0  0  0  0  0  0  0  0  0  0
   40.2450   73.1760   59.2350 C   0  0  0  0  0  0  0  0  0  0  0  0
   40.4650   74.1960   57.7180 S   0  0  0  0  0  0  0  0  0  0  0  0
   37.3840   74.9030   59.4830 H   0  0  0  0  0  0  0  0  0  0  0  0
   38.7710   73.0760   60.6500 H   0  0  0  0  0  0  0  0  0  0  0  0
   38.2450   78.3740   56.4530 C   0  0  0  0  0  0  0  0  0  0  0  0
   37.1280   78.1310   55.6170 C   0  0  0  0  0  0  0  0  0  0  0  0
   36.6010   76.8330   55.5630 C   0  0  0  0  0  0  0  0  0  0  0  0
   37.1840   75.8730   56.3120 N   0  0  0  0  0  0  0  0  0  0  0  0
   38.2610   76.1390   57.1080 C   0  0  0  0  0  0  0  0  0  0  0  0
   38.7690   77.3720   57.1650 N   0  0  0  0  0  0  0  0  0  0  0  0
   38.6900   79.3580   56.5290 H   0  0  0  0  0  0  0  0  0  0  0  0
   36.7030   78.9280   55.0420 H   0  0  0  0  0  0  0  0  0  0  0  0
   35.7490   76.5970   54.9400 H   0  0  0  0  0  0  0  0  0  0  0  0
   41.7990   68.6270   59.0290 C   0  0  0  0  0  0  0  0  0  0  0  0
   42.2230   68.3540   57.8950 O   0  0  0  0  0  0  0  0  0  0  0  0
   41.1590   67.5580   59.8790 C   0  0  1  0  0  0  0  0  0  0  0  0
   41.9760   66.2920   59.9440 C   0  0  0  0  0  0  0  0  0  0  0  0
   41.7880   67.1460   61.1170 C   0  0  2  0  0  0  0  0  0  0  0  0
   40.1290   67.3300   59.4840 H   0  0  0  0  0  0  0  0  0  0  0  0
   42.9640   66.2590   59.4300 H   0  0  0  0  0  0  0  0  0  0  0  0
   41.4350   65.3350   59.9070 H   0  0  0  0  0  0  0  0  0  0  0  0
   42.6250   67.8040   61.4830 H   0  0  0  0  0  0  0  0  0  0  0  0
   41.0270   66.5850   62.2600 C   0  0  0  0  0  0  0  0  0  0  0  0
   41.1010   65.3040   62.7080 N   0  0  0  0  0  0  0  0  0  0  0  0
   40.2780   65.1290   63.7640 C   0  0  0  0  0  0  0  0  0  0  0  0
   40.2740   64.1370   64.1840 H   0  0  0  0  0  0  0  0  0  0  0  0
   39.6880   66.3140   63.9730 N   0  0  0  0  0  0  0  0  0  0  0  0
   39.0050   66.3950   64.7560 H   0  0  0  0  0  0  0  0  0  0  0  0
   40.1480   67.1780   63.0630 N   0  0  0  0  0  0  0  0  0  0  0  0
  1  2  1  0  0  0  0
  2  3  2  0  0  0  0
  2  7  1  0  0  0  0
  3  8  1  0  0  0  0
  4  3  1  0  0  0  0
  5  4  2  0  0  0  0
  6  5  1  0  0  0  0
  6  1  2  0  0  0  0
  9 10  2  0  0  0  0
 10 14  1  0  0  0  0
 10 11  1  0  0  0  0
 11 15  1  0  0  0  0
 12  1  1  0  0  0  0
 12 11  2  0  0  0  0
 13  9  1  0  0  0  0
 13 12  1  0  0  0  0
 16 22  1  0  0  0  0
 16 21  1  0  0  0  0
 17 16  2  0  0  0  0
 18 17  1  0  0  0  0
 18 19  2  0  0  0  0
 19 20  1  0  0  0  0
 20 21  2  0  0  0  0
 20  9  1  0  0  0  0
 23 17  1  0  0  0  0
 24 18  1  0  0  0  0
 25  5  1  0  0  0  0
 25 27  1  0  0  0  0
 26 25  2  0  0  0  0
 27 30  1  6  0  0  0
 27 28  1  0  0  0  0
 27 29  1  0  0  0  0
 28 29  1  0  0  0  0
 29 33  1  1  0  0  0
 29 34  1  0  0  0  0
 31 28  1  0  0  0  0
 32 28  1  0  0  0  0
 34 35  1  0  0  0  0
 34 40  2  0  0  0  0
 35 36  2  0  0  0  0
 36 38  1  0  0  0  0
 36 37  1  0  0  0  0
 38 39  1  0  0  0  0
 40 38  1  0  0  0  0
M  END
>  <minimizedAffinity>
-6.38649321

$$$$

 OpenBabel03212521013D

 40 44  0  0  1  0  0  0  0  0999 V2000
   40.1580   73.1880   59.5050 C   0  0  0  0  0  0  0  0  0  0  0  0
   39.5990   73.5460   60.6910 C   0  0  0  0  0  0  0  0  0  0  0  0
   40.2500   72.9480   61.7820 C   0  0  0  0  0  0  0  0  0  0  0  0
   41.3050   72.1170   61.6790 N   0  0  0  0  0  0  0  0  0  0  0  0
   41.7860   71.8270   60.4350 C   0  0  0  0  0  0  0  0  0  0  0  0
   41.2090   72.3660   59.3360 N   0  0  0  0  0  0  0  0  0  0  0  0
   38.7700   74.1940   60.8330 H   0  0  0  0  0  0  0  0  0  0  0  0
   39.9250   73.1310   62.8050 H   0  0  0  0  0  0  0  0  0  0  0  0
   38.2880   75.2510   56.5240 C   0  0  0  0  0  0  0  0  0  0  0  0
   38.9570   74.1520   56.0510 C   0  0  0  0  0  0  0  0  0  0  0  0
   39.6190   73.3820   56.9370 C   0  0  0  0  0  0  0  0  0  0  0  0
   39.5990   73.7270   58.2830 C   0  0  0  0  0  0  0  0  0  0  0  0
   38.5700   75.2540   58.3190 S   0  0  0  0  0  0  0  0  0  0  0  0
   38.9730   73.8820   54.9940 H   0  0  0  0  0  0  0  0  0  0  0  0
   40.2000   72.4850   56.7720 H   0  0  0  0  0  0  0  0  0  0  0  0
   36.6320   76.6750   53.5710 C   0  0  0  0  0  0  0  0  0  0  0  0
   36.1210   77.9030   54.0560 C   0  0  0  0  0  0  0  0  0  0  0  0
   36.3440   78.2390   55.3990 C   0  0  0  0  0  0  0  0  0  0  0  0
   37.0360   77.3740   56.1690 N   0  0  0  0  0  0  0  0  0  0  0  0
   37.5160   76.1960   55.6720 C   0  0  0  0  0  0  0  0  0  0  0  0
   37.3080   75.8690   54.3950 N   0  0  0  0  0  0  0  0  0  0  0  0
   36.4860   76.3690   52.5430 H   0  0  0  0  0  0  0  0  0  0  0  0
   35.5780   78.5550   53.4030 H   0  0  0  0  0  0  0  0  0  0  0  0
   35.9740   79.1660   55.8160 H   0  0  0  0  0  0  0  0  0  0  0  0
   42.9280   70.9370   60.3500 C   0  0  0  0  0  0  0  0  0  0  0  0
   44.0280   71.4430   60.0760 O   0  0  0  0  0  0  0  0  0  0  0  0
   42.8090   69.4500   60.5720 C   0  0  1  0  0  0  0  0  0  0  0  0
   44.0970   68.8230   61.0470 C   0  0  0  0  0  0  0  0  0  0  0  0
   42.9190   68.9090   61.9110 C   0  0  2  0  0  0  0  0  0  0  0  0
   42.4690   68.9530   59.6210 H   0  0  0  0  0  0  0  0  0  0  0  0
   44.9780   69.4770   61.2380 H   0  0  0  0  0  0  0  0  0  0  0  0
   44.3660   67.8400   60.6340 H   0  0  0  0  0  0  0  0  0  0  0  0
   42.8800   69.6610   62.7480 H   0  0  0  0  0  0  0  0  0  0  0  0
   42.2750   67.6380   62.3220 C   0  0  0  0  0  0  0  0  0  0  0  0
   40.9670   67.3170   62.1410 N   0  0  0  0  0  0  0  0  0  0  0  0
   40.7130   66.0850   62.6310 C   0  0  0  0  0  0  0  0  0  0  0  0
   39.6950   65.7500   62.5280 H   0  0  0  0  0  0  0  0  0  0  0  0
   41.8780   65.6360   63.1220 N   0  0  0  0  0  0  0  0  0  0  0  0
   41.8990   64.6870   63.5530 H   0  0  0  0  0  0  0  0  0  0  0  0
   42.8050   66.5790   62.9290 N   0  0  0  0  0  0  0  0  0  0  0  0
  1  2  1  0  0  0  0
  2  7  1  0  0  0  0
  2  3  2  0  0  0  0
  3  8  1  0  0  0  0
  4  3  1  0  0  0  0
  5  4  2  0  0  0  0
  6  1  2  0  0  0  0
  6  5  1  0  0  0  0
  9 13  1  0  0  0  0
 10  9  2  0  0  0  0
 10 11  1  0  0  0  0
 11 12  2  0  0  0  0
 12 13  1  0  0  0  0
 12  1  1  0  0  0  0
 14 10  1  0  0  0  0
 15 11  1  0  0  0  0
 16 17  2  0  0  0  0
 16 21  1  0  0  0  0
 17 18  1  0  0  0  0
 18 24  1  0  0  0  0
 18 19  2  0  0  0  0
 20 19  1  0  0  0  0
 20  9  1  0  0  0  0
 21 20  2  0  0  0  0
 22 16  1  0  0  0  0
 23 17  1  0  0  0  0
 25  5  1  0  0  0  0
 25 27  1  0  0  0  0
 26 25  2  0  0  0  0
 27 30  1  6  0  0  0
 27 28  1  0  0  0  0
 27 29  1  0  0  0  0
 28 31  1  0  0  0  0
 28 29  1  0  0  0  0
 29 34  1  0  0  0  0
 29 33  1  1  0  0  0
 32 28  1  0  0  0  0
 34 40  2  0  0  0  0
 35 34  1  0  0  0  0
 35 36  2  0  0  0  0
 36 38  1  0  0  0  0
 37 36  1  0  0  0  0
 38 39  1  0  0  0  0
 40 38  1  0  0  0  0
M  END
>  <minimizedAffinity>
-6.2164216

$$$$

 OpenBabel03212521013D

 40 44  0  0  1  0  0  0  0  0999 V2000
   41.2390   73.3230   60.8180 C   0  0  0  0  0  0  0  0  0  0  0  0
   40.9890   72.9990   62.1140 C   0  0  0  0  0  0  0  0  0  0  0  0
   41.8010   71.9450   62.5610 C   0  0  0  0  0  0  0  0  0  0  0  0
   42.7230   71.3200   61.8040 N   0  0  0  0  0  0  0  0  0  0  0  0
   42.8910   71.7270   60.5120 C   0  0  0  0  0  0  0  0  0  0  0  0
   42.1430   72.7380   60.0120 N   0  0  0  0  0  0  0  0  0  0  0  0
   40.2780   73.4560   62.7570 H   0  0  0  0  0  0  0  0  0  0  0  0
   41.7270   71.5640   63.5780 H   0  0  0  0  0  0  0  0  0  0  0  0
   39.1660   75.9300   58.4640 C   0  0  0  0  0  0  0  0  0  0  0  0
   39.2630   76.3690   59.7600 C   0  0  0  0  0  0  0  0  0  0  0  0
   39.9270   75.5960   60.6430 C   0  0  0  0  0  0  0  0  0  0  0  0
   40.4810   74.3980   60.2120 C   0  0  0  0  0  0  0  0  0  0  0  0
   40.0430   74.3390   58.4240 S   0  0  0  0  0  0  0  0  0  0  0  0
   38.8270   77.3100   60.0980 H   0  0  0  0  0  0  0  0  0  0  0  0
   40.1140   75.7570   61.6960 H   0  0  0  0  0  0  0  0  0  0  0  0
   36.7270   76.7040   55.8300 C   0  0  0  0  0  0  0  0  0  0  0  0
   37.1540   77.9700   55.3640 C   0  0  0  0  0  0  0  0  0  0  0  0
   38.2790   78.5590   55.9590 C   0  0  0  0  0  0  0  0  0  0  0  0
   38.9030   77.8890   56.9510 N   0  0  0  0  0  0  0  0  0  0  0  0
   38.4660   76.6680   57.3780 C   0  0  0  0  0  0  0  0  0  0  0  0
   37.3960   76.1020   56.8170 N   0  0  0  0  0  0  0  0  0  0  0  0
   35.8640   76.2070   55.4050 H   0  0  0  0  0  0  0  0  0  0  0  0
   36.6230   78.4600   54.5740 H   0  0  0  0  0  0  0  0  0  0  0  0
   38.6450   79.5250   55.6380 H   0  0  0  0  0  0  0  0  0  0  0  0
   43.8960   71.0450   59.7200 C   0  0  0  0  0  0  0  0  0  0  0  0
   44.7650   71.7430   59.1730 O   0  0  0  0  0  0  0  0  0  0  0  0
   43.9020   69.5470   59.5440 C   0  0  1  0  0  0  0  0  0  0  0  0
   45.2860   68.9520   59.6240 C   0  0  0  0  0  0  0  0  0  0  0  0
   44.2770   68.6910   60.6500 C   0  0  2  0  0  0  0  0  0  0  0  0
   43.4270   69.2820   58.5580 H   0  0  0  0  0  0  0  0  0  0  0  0
   46.1490   69.6200   59.8470 H   0  0  0  0  0  0  0  0  0  0  0  0
   45.5330   68.1430   58.9210 H   0  0  0  0  0  0  0  0  0  0  0  0
   44.3430   69.1920   61.6560 H   0  0  0  0  0  0  0  0  0  0  0  0
   43.7880   67.2980   60.7930 C   0  0  0  0  0  0  0  0  0  0  0  0
   43.2580   66.7560   61.9210 N   0  0  0  0  0  0  0  0  0  0  0  0
   42.9150   65.4680   61.7070 C   0  0  0  0  0  0  0  0  0  0  0  0
   42.4840   64.9600   62.5530 H   0  0  0  0  0  0  0  0  0  0  0  0
   43.2360   65.2080   60.4310 N   0  0  0  0  0  0  0  0  0  0  0  0
   43.0490   64.2520   60.0590 H   0  0  0  0  0  0  0  0  0  0  0  0
   43.7580   66.3150   59.8960 N   0  0  0  0  0  0  0  0  0  0  0  0
  1  2  1  0  0  0  0
  2  3  2  0  0  0  0
  2  7  1  0  0  0  0
  3  8  1  0  0  0  0
  4  3  1  0  0  0  0
  5  4  2  0  0  0  0
  6  5  1  0  0  0  0
  6  1  2  0  0  0  0
  9 10  2  0  0  0  0
 10 14  1  0  0  0  0
 10 11  1  0  0  0  0
 11 15  1  0  0  0  0
 12 11  2  0  0  0  0
 12  1  1  0  0  0  0
 13  9  1  0  0  0  0
 13 12  1  0  0  0  0
 16 21  1  0  0  0  0
 17 16  2  0  0  0  0
 17 18  1  0  0  0  0
 18 19  2  0  0  0  0
 19 20  1  0  0  0  0
 20  9  1  0  0  0  0
 21 20  2  0  0  0  0
 22 16  1  0  0  0  0
 23 17  1  0  0  0  0
 24 18  1  0  0  0  0
 25  5  1  0  0  0  0
 26 25  2  0  0  0  0
 27 30  1  6  0  0  0
 27 28  1  0  0  0  0
 27 25  1  0  0  0  0
 27 29  1  0  0  0  0
 28 31  1  0  0  0  0
 28 29  1  0  0  0  0
 29 34  1  0  0  0  0
 29 33  1  1  0  0  0
 32 28  1  0  0  0  0
 34 35  1  0  0  0  0
 36 35  2  0  0  0  0
 36 37  1  0  0  0  0
 38 36  1  0  0  0  0
 39 38  1  0  0  0  0
 40 38  1  0  0  0  0
 40 34  2  0  0  0  0
M  END
>  <minimizedAffinity>
-5.97749186

$$$$

 OpenBabel03212521013D

 40 44  0  0  1  0  0  0  0  0999 V2000
   41.9450   74.6280   59.5280 C   0  0  0  0  0  0  0  0  0  0  0  0
   43.1990   75.0310   59.1940 C   0  0  0  0  0  0  0  0  0  0  0  0
   44.1860   74.3070   59.8800 C   0  0  0  0  0  0  0  0  0  0  0  0
   43.9330   73.3250   60.7670 N   0  0  0  0  0  0  0  0  0  0  0  0
   42.6330   73.0010   61.0280 C   0  0  0  0  0  0  0  0  0  0  0  0
   41.6280   73.6570   60.4040 N   0  0  0  0  0  0  0  0  0  0  0  0
   43.4570   75.7950   58.5040 H   0  0  0  0  0  0  0  0  0  0  0  0
   45.2460   74.5060   59.7260 H   0  0  0  0  0  0  0  0  0  0  0  0
   38.9770   76.0700   57.1300 C   0  0  0  0  0  0  0  0  0  0  0  0
   38.9080   76.5790   58.4010 C   0  0  0  0  0  0  0  0  0  0  0  0
   39.8350   76.1820   59.2950 C   0  0  0  0  0  0  0  0  0  0  0  0
   40.8140   75.2800   58.8990 C   0  0  0  0  0  0  0  0  0  0  0  0
   40.4140   74.9570   57.1320 S   0  0  0  0  0  0  0  0  0  0  0  0
   38.1370   77.2870   58.7110 H   0  0  0  0  0  0  0  0  0  0  0  0
   39.9550   76.4600   60.3330 H   0  0  0  0  0  0  0  0  0  0  0  0
   37.1100   75.8260   53.9760 C   0  0  0  0  0  0  0  0  0  0  0  0
   36.3160   76.9980   53.9860 C   0  0  0  0  0  0  0  0  0  0  0  0
   36.4210   77.8690   55.0790 C   0  0  0  0  0  0  0  0  0  0  0  0
   37.2760   77.5490   56.0740 N   0  0  0  0  0  0  0  0  0  0  0  0
   38.0280   76.4110   56.0360 C   0  0  0  0  0  0  0  0  0  0  0  0
   37.9340   75.5760   54.9980 N   0  0  0  0  0  0  0  0  0  0  0  0
   37.0660   75.1200   53.1560 H   0  0  0  0  0  0  0  0  0  0  0  0
   35.6530   77.2060   53.1720 H   0  0  0  0  0  0  0  0  0  0  0  0
   35.8360   78.7780   55.1340 H   0  0  0  0  0  0  0  0  0  0  0  0
   42.3870   71.9360   61.9790 C   0  0  0  0  0  0  0  0  0  0  0  0
   41.6220   72.1800   62.9260 O   0  0  0  0  0  0  0  0  0  0  0  0
   43.0300   70.5770   61.8530 C   0  0  1  0  0  0  0  0  0  0  0  0
   42.0360   69.4820   61.5530 C   0  0  0  0  0  0  0  0  0  0  0  0
   43.0400   69.8990   60.5730 C   0  0  2  0  0  0  0  0  0  0  0  0
   43.5920   70.3360   62.7990 H   0  0  0  0  0  0  0  0  0  0  0  0
   40.9650   69.7510   61.4040 H   0  0  0  0  0  0  0  0  0  0  0  0
   42.1750   68.5170   62.0600 H   0  0  0  0  0  0  0  0  0  0  0  0
   42.7440   70.5250   59.6850 H   0  0  0  0  0  0  0  0  0  0  0  0
   44.0780   68.9110   60.1920 C   0  0  0  0  0  0  0  0  0  0  0  0
   45.3810   69.1930   59.9270 N   0  0  0  0  0  0  0  0  0  0  0  0
   46.0510   68.0640   59.6130 C   0  0  0  0  0  0  0  0  0  0  0  0
   47.0960   68.1970   59.3880 H   0  0  0  0  0  0  0  0  0  0  0  0
   45.1540   67.0700   59.6840 N   0  0  0  0  0  0  0  0  0  0  0  0
   45.4730   66.1000   59.4740 H   0  0  0  0  0  0  0  0  0  0  0  0
   43.9750   67.5940   60.0330 N   0  0  0  0  0  0  0  0  0  0  0  0
  1  6  1  0  0  0  0
  2  1  2  0  0  0  0
  2  3  1  0  0  0  0
  3  4  2  0  0  0  0
  4  5  1  0  0  0  0
  5 25  1  0  0  0  0
  6  5  2  0  0  0  0
  7  2  1  0  0  0  0
  8  3  1  0  0  0  0
  9 13  1  0  0  0  0
  9 10  2  0  0  0  0
 10 14  1  0  0  0  0
 10 11  1  0  0  0  0
 11 15  1  0  0  0  0
 12 11  2  0  0  0  0
 12  1  1  0  0  0  0
 13 12  1  0  0  0  0
 16 17  2  0  0  0  0
 16 21  1  0  0  0  0
 17 18  1  0  0  0  0
 18 24  1  0  0  0  0
 18 19  2  0  0  0  0
 20 19  1  0  0  0  0
 20  9  1  0  0  0  0
 21 20  2  0  0  0  0
 22 16  1  0  0  0  0
 23 17  1  0  0  0  0
 25 26  2  0  0  0  0
 27 25  1  0  0  0  0
 27 30  1  1  0  0  0
 28 27  1  0  0  0  0
 28 32  1  0  0  0  0
 29 33  1  6  0  0  0
 29 28  1  0  0  0  0
 29 27  1  0  0  0  0
 31 28  1  0  0  0  0
 34 29  1  0  0  0  0
 35 34  1  0  0  0  0
 36 38  1  0  0  0  0
 36 35  2  0  0  0  0
 37 36  1  0  0  0  0
 38 40  1  0  0  0  0
 39 38  1  0  0  0  0
 40 34  2  0  0  0  0
M  END
>  <minimizedAffinity>
-5.90879631

$$$$
