
 OpenBabel03212520353D

 34 37  0  0  0  0  0  0  0  0999 V2000
   42.6820   82.7380   60.4380 C   0  0  0  0  0  0  0  0  0  0  0  0
   43.0650   81.8120   61.4390 C   0  0  0  0  0  0  0  0  0  0  0  0
   43.8870   82.1220   62.4840 C   0  0  0  0  0  0  0  0  0  0  0  0
   44.3830   83.4050   62.5900 C   0  0  0  0  0  0  0  0  0  0  0  0
   44.0260   84.3290   61.6250 C   0  0  0  0  0  0  0  0  0  0  0  0
   44.4490   85.6380   61.6460 C   0  0  0  0  0  0  0  0  0  0  0  0
   44.0570   86.5440   60.6640 C   0  0  0  0  0  0  0  0  0  0  0  0
   43.2240   86.1700   59.6180 C   0  0  0  0  0  0  0  0  0  0  0  0
   42.8010   84.8570   59.5950 C   0  0  0  0  0  0  0  0  0  0  0  0
   43.1940   84.0020   60.5680 C   0  0  0  0  0  0  0  0  0  0  0  0
   42.7680   80.7780   61.5260 H   0  0  0  0  0  0  0  0  0  0  0  0
   44.2090   81.4640   63.2710 H   0  0  0  0  0  0  0  0  0  0  0  0
   45.0390   83.7710   63.3690 H   0  0  0  0  0  0  0  0  0  0  0  0
   45.1060   85.9210   62.4730 H   0  0  0  0  0  0  0  0  0  0  0  0
   44.4680   87.5400   60.8140 H   0  0  0  0  0  0  0  0  0  0  0  0
   42.9880   86.9520   58.9160 H   0  0  0  0  0  0  0  0  0  0  0  0
   42.2340   84.7020   58.7120 H   0  0  0  0  0  0  0  0  0  0  0  0
   40.3600   82.1270   59.4950 C   0  0  0  0  0  0  0  0  0  0  0  0
   41.7550   82.2000   59.4610 C   0  0  0  0  0  0  0  0  0  0  0  0
   42.4540   81.6510   58.3180 C   0  0  0  0  0  0  0  0  0  0  0  0
   41.7060   81.0860   57.3260 N   0  0  0  0  0  0  0  0  0  0  0  0
   40.3200   81.0530   57.4330 C   0  0  0  0  0  0  0  0  0  0  0  0
   39.6680   81.5720   58.5090 N   0  0  0  0  0  0  0  0  0  0  0  0
   39.8050   82.4410   60.3360 H   0  0  0  0  0  0  0  0  0  0  0  0
   43.4730   81.6000   58.0690 H   0  0  0  0  0  0  0  0  0  0  0  0
   39.4980   80.4210   56.3950 C   0  0  0  0  0  0  0  0  0  0  0  0
   39.5430   80.7920   55.2110 O   0  0  0  0  0  0  0  0  0  0  0  0
   38.5730   79.3100   56.7150 C   0  0  0  0  0  0  0  0  0  0  0  0
   37.3130   79.2700   56.3230 N   0  0  0  0  0  0  0  0  0  0  0  0
   36.7940   78.1060   56.8060 C   0  0  0  0  0  0  0  0  0  0  0  0
   35.7530   77.8230   56.6230 H   0  0  0  0  0  0  0  0  0  0  0  0
   37.7510   77.4410   57.4950 N   0  0  0  0  0  0  0  0  0  0  0  0
   37.5160   76.5410   57.9230 H   0  0  0  0  0  0  0  0  0  0  0  0
   38.8540   78.1890   57.4370 N   0  0  0  0  0  0  0  0  0  0  0  0
  1 10  2  0  0  0  0
  1  2  1  0  0  0  0
  2 11  1  0  0  0  0
  2  3  2  0  0  0  0
  3  4  1  0  0  0  0
  3 12  1  0  0  0  0
  4 13  1  0  0  0  0
  5  6  1  0  0  0  0
  5  4  2  0  0  0  0
  6 14  1  0  0  0  0
  7 15  1  0  0  0  0
  7  6  2  0  0  0  0
  8  7  1  0  0  0  0
  9  8  2  0  0  0  0
  9 10  1  0  0  0  0
 10  5  1  0  0  0  0
 16  8  1  0  0  0  0
 17  9  1  0  0  0  0
 18 24  1  0  0  0  0
 19 18  1  0  0  0  0
 19  1  1  0  0  0  0
 20 19  2  0  0  0  0
 21 22  2  0  0  0  0
 21 20  1  0  0  0  0
 22 23  1  0  0  0  0
 23 18  2  0  0  0  0
 25 20  1  0  0  0  0
 26 28  1  0  0  0  0
 26 22  1  0  0  0  0
 27 26  2  0  0  0  0
 28 34  2  0  0  0  0
 29 28  1  0  0  0  0
 29 30  2  0  0  0  0
 30 32  1  0  0  0  0
 31 30  1  0  0  0  0
 32 33  1  0  0  0  0
 34 32  1  0  0  0  0
M  END
>  <minimizedAffinity>
-4.95102215

>  <minimizedRMSD>
7.70020342

$$$$
