
 OpenBabel03212520593D

 40 44  0  0  1  0  0  0  0  0999 V2000
   39.7310   77.2640   59.2220 C   0  0  0  0  0  0  0  0  0  0  0  0
   40.4080   76.1160   58.9570 C   0  0  0  0  0  0  0  0  0  0  0  0
   39.8360   75.4010   57.8920 C   0  0  0  0  0  0  0  0  0  0  0  0
   38.7460   75.7960   57.2070 N   0  0  0  0  0  0  0  0  0  0  0  0
   38.1440   76.9690   57.5590 C   0  0  0  0  0  0  0  0  0  0  0  0
   38.6400   77.7120   58.5760 N   0  0  0  0  0  0  0  0  0  0  0  0
   41.2690   75.7550   59.4610 H   0  0  0  0  0  0  0  0  0  0  0  0
   40.2580   74.4560   57.5520 H   0  0  0  0  0  0  0  0  0  0  0  0
   40.9800   80.2320   61.7260 C   0  0  0  0  0  0  0  0  0  0  0  0
   40.9850   79.0050   62.3360 C   0  0  0  0  0  0  0  0  0  0  0  0
   40.5930   77.9350   61.6150 C   0  0  0  0  0  0  0  0  0  0  0  0
   40.2020   78.1160   60.2940 C   0  0  0  0  0  0  0  0  0  0  0  0
   40.3980   79.9280   60.0310 S   0  0  0  0  0  0  0  0  0  0  0  0
   41.2910   78.8640   63.3740 H   0  0  0  0  0  0  0  0  0  0  0  0
   40.5250   76.8960   61.9050 H   0  0  0  0  0  0  0  0  0  0  0  0
   43.0720   83.0490   62.8110 C   0  0  0  0  0  0  0  0  0  0  0  0
   42.1830   83.8170   63.6020 C   0  0  0  0  0  0  0  0  0  0  0  0
   40.8650   83.3670   63.7590 C   0  0  0  0  0  0  0  0  0  0  0  0
   40.5020   82.2200   63.1460 N   0  0  0  0  0  0  0  0  0  0  0  0
   41.3830   81.5020   62.3890 C   0  0  0  0  0  0  0  0  0  0  0  0
   42.6390   81.9240   62.2350 N   0  0  0  0  0  0  0  0  0  0  0  0
   44.0990   83.3530   62.6580 H   0  0  0  0  0  0  0  0  0  0  0  0
   42.5210   84.7210   64.0670 H   0  0  0  0  0  0  0  0  0  0  0  0
   40.1480   83.9190   64.3530 H   0  0  0  0  0  0  0  0  0  0  0  0
   36.9780   77.3780   56.8010 C   0  0  0  0  0  0  0  0  0  0  0  0
   35.8660   77.0380   57.2360 O   0  0  0  0  0  0  0  0  0  0  0  0
   37.0840   78.1760   55.5250 C   0  0  1  0  0  0  0  0  0  0  0  0
   37.3870   79.6340   55.7680 C   0  0  0  0  0  0  0  0  0  0  0  0
   38.3580   78.7430   55.1320 C   0  0  2  0  0  0  0  0  0  0  0  0
   36.1290   78.0750   54.9380 H   0  0  0  0  0  0  0  0  0  0  0  0
   37.5520   79.9840   56.8130 H   0  0  0  0  0  0  0  0  0  0  0  0
   36.8700   80.3720   55.1390 H   0  0  0  0  0  0  0  0  0  0  0  0
   39.2550   78.3750   55.7050 H   0  0  0  0  0  0  0  0  0  0  0  0
   38.7170   79.0160   53.7200 C   0  0  0  0  0  0  0  0  0  0  0  0
   38.6730   80.2310   53.1120 N   0  0  0  0  0  0  0  0  0  0  0  0
   39.0640   80.1250   51.8240 C   0  0  0  0  0  0  0  0  0  0  0  0
   39.0590   81.0460   51.2650 H   0  0  0  0  0  0  0  0  0  0  0  0
   39.3540   78.8310   51.6300 N   0  0  0  0  0  0  0  0  0  0  0  0
   39.6810   78.5330   50.6860 H   0  0  0  0  0  0  0  0  0  0  0  0
   39.1410   78.1780   52.7770 N   0  0  0  0  0  0  0  0  0  0  0  0
  1 12  1  0  0  0  0
  2  1  1  0  0  0  0
  2  7  1  0  0  0  0
  3  2  2  0  0  0  0
  4  5  2  0  0  0  0
  4  3  1  0  0  0  0
  5  6  1  0  0  0  0
  6  1  2  0  0  0  0
  8  3  1  0  0  0  0
  9 10  2  0  0  0  0
  9 20  1  0  0  0  0
 10 14  1  0  0  0  0
 11 15  1  0  0  0  0
 11 10  1  0  0  0  0
 12 11  2  0  0  0  0
 13 12  1  0  0  0  0
 13  9  1  0  0  0  0
 16 17  1  0  0  0  0
 17 18  2  0  0  0  0
 17 23  1  0  0  0  0
 18 24  1  0  0  0  0
 19 18  1  0  0  0  0
 20 19  2  0  0  0  0
 21 20  1  0  0  0  0
 21 16  2  0  0  0  0
 22 16  1  0  0  0  0
 25 26  2  0  0  0  0
 25  5  1  0  0  0  0
 27 30  1  6  0  0  0
 27 28  1  0  0  0  0
 27 25  1  0  0  0  0
 28 31  1  0  0  0  0
 29 27  1  0  0  0  0
 29 33  1  1  0  0  0
 29 28  1  0  0  0  0
 32 28  1  0  0  0  0
 34 29  1  0  0  0  0
 35 34  1  0  0  0  0
 36 35  2  0  0  0  0
 37 36  1  0  0  0  0
 38 36  1  0  0  0  0
 38 40  1  0  0  0  0
 39 38  1  0  0  0  0
 40 34  2  0  0  0  0
M  END
>  <minimizedAffinity>
-6.32922077

>  <minimizedRMSD>
0.448632091

$$$$
