
 OpenBabel03212520353D

 34 37  0  0  0  0  0  0  0  0999 V2000
   41.2460   81.4100   58.8590 C   0  0  0  0  0  0  0  0  0  0  0  0
   42.3970   80.6390   59.1500 C   0  0  0  0  0  0  0  0  0  0  0  0
   43.2370   80.8950   60.1960 C   0  0  0  0  0  0  0  0  0  0  0  0
   42.9660   81.9610   61.0290 C   0  0  0  0  0  0  0  0  0  0  0  0
   41.8490   82.7320   60.7660 C   0  0  0  0  0  0  0  0  0  0  0  0
   41.4770   83.8050   61.5440 C   0  0  0  0  0  0  0  0  0  0  0  0
   40.3360   84.5490   61.2560 C   0  0  0  0  0  0  0  0  0  0  0  0
   39.5220   84.2480   60.1730 C   0  0  0  0  0  0  0  0  0  0  0  0
   39.8950   83.1730   59.3910 C   0  0  0  0  0  0  0  0  0  0  0  0
   41.0050   82.4640   59.7010 C   0  0  0  0  0  0  0  0  0  0  0  0
   42.7560   79.7690   58.6210 H   0  0  0  0  0  0  0  0  0  0  0  0
   44.1200   80.3450   60.4660 H   0  0  0  0  0  0  0  0  0  0  0  0
   43.5520   82.2630   61.8860 H   0  0  0  0  0  0  0  0  0  0  0  0
   42.1260   84.0340   62.3930 H   0  0  0  0  0  0  0  0  0  0  0  0
   40.1700   85.3630   61.9580 H   0  0  0  0  0  0  0  0  0  0  0  0
   38.6690   84.8910   60.0460 H   0  0  0  0  0  0  0  0  0  0  0  0
   39.2250   83.1050   58.5710 H   0  0  0  0  0  0  0  0  0  0  0  0
   39.4220   79.9960   57.7090 C   0  0  0  0  0  0  0  0  0  0  0  0
   40.4720   80.9160   57.7360 C   0  0  0  0  0  0  0  0  0  0  0  0
   40.9340   81.4850   56.4880 C   0  0  0  0  0  0  0  0  0  0  0  0
   40.3120   81.0880   55.3390 N   0  0  0  0  0  0  0  0  0  0  0  0
   39.2700   80.1690   55.3950 C   0  0  0  0  0  0  0  0  0  0  0  0
   38.8400   79.6370   56.5710 N   0  0  0  0  0  0  0  0  0  0  0  0
   39.0960   79.4920   58.5770 H   0  0  0  0  0  0  0  0  0  0  0  0
   41.6820   82.1860   56.2630 H   0  0  0  0  0  0  0  0  0  0  0  0
   38.6090   79.7030   54.1710 C   0  0  0  0  0  0  0  0  0  0  0  0
   38.4460   80.4500   53.1930 O   0  0  0  0  0  0  0  0  0  0  0  0
   38.1040   78.3170   54.0470 C   0  0  0  0  0  0  0  0  0  0  0  0
   36.8210   78.0080   53.9750 N   0  0  0  0  0  0  0  0  0  0  0  0
   36.7560   76.6510   53.8710 C   0  0  0  0  0  0  0  0  0  0  0  0
   35.7980   76.1280   53.7940 H   0  0  0  0  0  0  0  0  0  0  0  0
   38.0090   76.1400   53.8790 N   0  0  0  0  0  0  0  0  0  0  0  0
   38.1300   75.1250   53.8070 H   0  0  0  0  0  0  0  0  0  0  0  0
   38.8440   77.1740   53.9890 N   0  0  0  0  0  0  0  0  0  0  0  0
  1  2  2  0  0  0  0
  1 10  1  0  0  0  0
  2  3  1  0  0  0  0
  3 12  1  0  0  0  0
  3  4  2  0  0  0  0
  4 13  1  0  0  0  0
  5  4  1  0  0  0  0
  5  6  1  0  0  0  0
  6 14  1  0  0  0  0
  7  6  2  0  0  0  0
  7 15  1  0  0  0  0
  8  7  1  0  0  0  0
  9 10  1  0  0  0  0
  9  8  2  0  0  0  0
 10  5  2  0  0  0  0
 11  2  1  0  0  0  0
 16  8  1  0  0  0  0
 17  9  1  0  0  0  0
 18 19  1  0  0  0  0
 18 24  1  0  0  0  0
 19  1  1  0  0  0  0
 20 19  2  0  0  0  0
 21 22  2  0  0  0  0
 21 20  1  0  0  0  0
 22 23  1  0  0  0  0
 23 18  2  0  0  0  0
 25 20  1  0  0  0  0
 26 22  1  0  0  0  0
 27 26  2  0  0  0  0
 28 26  1  0  0  0  0
 29 28  1  0  0  0  0
 30 32  1  0  0  0  0
 30 29  2  0  0  0  0
 31 30  1  0  0  0  0
 32 34  1  0  0  0  0
 33 32  1  0  0  0  0
 34 28  2  0  0  0  0
M  END
>  <minimizedAffinity>
-4.9778924

>  <minimizedRMSD>
8.76637459

$$$$
