
 OpenBabel03212520313D

 39 42  0  0  0  0  0  0  0  0999 V2000
   42.0930   82.2890   62.0280 C   0  0  0  0  0  0  0  0  0  0  0  0
   42.6100   81.3490   61.1450 C   0  0  0  0  0  0  0  0  0  0  0  0
   43.9310   80.9560   61.2120 C   0  0  0  0  0  0  0  0  0  0  0  0
   44.8200   81.4680   62.1590 C   0  0  0  0  0  0  0  0  0  0  0  0
   44.3350   82.4010   63.0490 C   0  0  0  0  0  0  0  0  0  0  0  0
   43.0100   82.7920   62.9760 C   0  0  0  0  0  0  0  0  0  0  0  0
   44.2960   80.2170   60.5010 H   0  0  0  0  0  0  0  0  0  0  0  0
   45.8310   81.0930   62.1250 H   0  0  0  0  0  0  0  0  0  0  0  0
   44.9980   82.8030   63.7790 H   0  0  0  0  0  0  0  0  0  0  0  0
   42.6760   83.5230   63.6920 H   0  0  0  0  0  0  0  0  0  0  0  0
   40.3190   79.0650   59.3580 C   0  0  0  0  0  0  0  0  0  0  0  0
   40.1990   79.6690   58.1230 C   0  0  0  0  0  0  0  0  0  0  0  0
   40.9140   80.8530   57.9350 C   0  0  0  0  0  0  0  0  0  0  0  0
   41.6710   81.3300   58.9600 N   0  0  0  0  0  0  0  0  0  0  0  0
   41.7660   80.7300   60.1310 C   0  0  0  0  0  0  0  0  0  0  0  0
   41.0870   79.6030   60.3140 N   0  0  0  0  0  0  0  0  0  0  0  0
   39.7590   78.1440   59.4960 H   0  0  0  0  0  0  0  0  0  0  0  0
   40.8700   81.3800   56.9970 H   0  0  0  0  0  0  0  0  0  0  0  0
   39.3900   79.1160   57.0990 N   0  0  0  0  0  0  0  0  0  0  0  0
   38.2310   79.7710   56.9300 C   0  0  0  0  0  0  0  0  0  0  0  0
   37.3510   79.3050   55.9470 C   0  0  0  0  0  0  0  0  0  0  0  0
   37.7110   78.1870   55.1870 C   0  0  0  0  0  0  0  0  0  0  0  0
   37.0070   77.6780   54.2800 O   0  0  0  0  0  0  0  0  0  0  0  0
   38.9180   77.5790   55.4270 N   0  0  0  0  0  0  0  0  0  0  0  0
   39.7670   78.0380   56.3840 C   0  0  0  0  0  0  0  0  0  0  0  0
   40.8620   77.4980   56.6110 O   0  0  0  0  0  0  0  0  0  0  0  0
   37.9200   80.6290   57.4920 H   0  0  0  0  0  0  0  0  0  0  0  0
   36.4070   79.7600   55.7410 H   0  0  0  0  0  0  0  0  0  0  0  0
   39.2500   76.7440   54.9010 H   0  0  0  0  0  0  0  0  0  0  0  0
   40.4530   82.8100   61.9640 S   0  0  0  0  0  0  0  0  0  0  0  0
   40.0320   83.3560   63.3110 O   0  0  0  0  0  0  0  0  0  0  0  0
   39.5970   81.5350   61.8470 O   0  0  0  0  0  0  0  0  0  0  0  0
   40.0040   83.9710   60.7800 C   0  0  0  0  0  0  0  0  0  0  0  0
   38.9520   84.6080   60.2470 N   0  0  0  0  0  0  0  0  0  0  0  0
   39.3680   85.4040   59.2800 C   0  0  0  0  0  0  0  0  0  0  0  0
   38.5990   85.9890   58.7540 H   0  0  0  0  0  0  0  0  0  0  0  0
   40.6840   85.3190   59.1470 N   0  0  0  0  0  0  0  0  0  0  0  0
   41.2100   85.8700   58.4370 H   0  0  0  0  0  0  0  0  0  0  0  0
   41.0600   84.4520   60.0570 N   0  0  0  0  0  0  0  0  0  0  0  0
  1  6  1  0  0  0  0
  2  3  1  0  0  0  0
  2  1  2  0  0  0  0
  3  4  2  0  0  0  0
  4  5  1  0  0  0  0
  5  9  1  0  0  0  0
  6  5  2  0  0  0  0
  6 10  1  0  0  0  0
  7  3  1  0  0  0  0
  8  4  1  0  0  0  0
 11 17  1  0  0  0  0
 11 16  1  0  0  0  0
 12 11  2  0  0  0  0
 13 12  1  0  0  0  0
 13 14  2  0  0  0  0
 14 15  1  0  0  0  0
 15 16  2  0  0  0  0
 15  2  1  0  0  0  0
 18 13  1  0  0  0  0
 19 12  1  0  0  0  0
 20 19  1  0  0  0  0
 20 27  1  0  0  0  0
 21 20  2  0  0  0  0
 22 24  1  0  0  0  0
 22 21  1  0  0  0  0
 23 22  2  0  0  0  0
 24 25  1  0  0  0  0
 25 26  2  0  0  0  0
 25 19  1  0  0  0  0
 28 21  1  0  0  0  0
 29 24  1  0  0  0  0
 30  1  1  0  0  0  0
 30 31  2  0  0  0  0
 32 30  2  0  0  0  0
 33 30  1  0  0  0  0
 34 33  1  0  0  0  0
 35 34  2  0  0  0  0
 36 35  1  0  0  0  0
 37 35  1  0  0  0  0
 37 39  1  0  0  0  0
 38 37  1  0  0  0  0
 39 33  2  0  0  0  0
M  END
>  <minimizedAffinity>
-6.49616814

>  <minimizedRMSD>
1.36080742

$$$$
