
 OpenBabel03212520313D

 39 42  0  0  0  0  0  0  0  0999 V2000
   42.8720   82.7180   62.3190 C   0  0  0  0  0  0  0  0  0  0  0  0
   43.2310   81.7580   61.3810 C   0  0  0  0  0  0  0  0  0  0  0  0
   44.4590   81.1320   61.4320 C   0  0  0  0  0  0  0  0  0  0  0  0
   45.4070   81.4160   62.4170 C   0  0  0  0  0  0  0  0  0  0  0  0
   45.0790   82.3640   63.3620 C   0  0  0  0  0  0  0  0  0  0  0  0
   43.8460   82.9890   63.3050 C   0  0  0  0  0  0  0  0  0  0  0  0
   44.7010   80.3860   60.6770 H   0  0  0  0  0  0  0  0  0  0  0  0
   46.3360   80.8700   62.3660 H   0  0  0  0  0  0  0  0  0  0  0  0
   45.7890   82.5950   64.1220 H   0  0  0  0  0  0  0  0  0  0  0  0
   43.6340   83.7220   64.0640 H   0  0  0  0  0  0  0  0  0  0  0  0
   40.4750   80.1780   59.4920 C   0  0  0  0  0  0  0  0  0  0  0  0
   40.6350   80.7110   58.2290 C   0  0  0  0  0  0  0  0  0  0  0  0
   41.6940   81.6040   58.0580 C   0  0  0  0  0  0  0  0  0  0  0  0
   42.4870   81.8900   59.1250 N   0  0  0  0  0  0  0  0  0  0  0  0
   42.3090   81.3650   60.3220 C   0  0  0  0  0  0  0  0  0  0  0  0
   41.3030   80.5130   60.4890 N   0  0  0  0  0  0  0  0  0  0  0  0
   39.6490   79.4830   59.6160 H   0  0  0  0  0  0  0  0  0  0  0  0
   41.8810   82.0590   57.1000 H   0  0  0  0  0  0  0  0  0  0  0  0
   39.7690   80.3680   57.1610 N   0  0  0  0  0  0  0  0  0  0  0  0
   38.8160   79.4920   57.5140 C   0  0  0  0  0  0  0  0  0  0  0  0
   37.9080   79.0790   56.5340 C   0  0  0  0  0  0  0  0  0  0  0  0
   38.0280   79.5900   55.2370 C   0  0  0  0  0  0  0  0  0  0  0  0
   37.2750   79.2950   54.2760 O   0  0  0  0  0  0  0  0  0  0  0  0
   39.0340   80.4830   54.9640 N   0  0  0  0  0  0  0  0  0  0  0  0
   39.9110   80.8800   55.9230 C   0  0  0  0  0  0  0  0  0  0  0  0
   40.8260   81.6880   55.6890 O   0  0  0  0  0  0  0  0  0  0  0  0
   38.6920   79.0770   58.4950 H   0  0  0  0  0  0  0  0  0  0  0  0
   37.1180   78.3860   56.7210 H   0  0  0  0  0  0  0  0  0  0  0  0
   39.1830   80.9040   54.0230 H   0  0  0  0  0  0  0  0  0  0  0  0
   41.3530   83.5270   62.2760 S   0  0  0  0  0  0  0  0  0  0  0  0
   41.3250   84.6270   63.3160 O   0  0  0  0  0  0  0  0  0  0  0  0
   40.3150   82.5320   62.8260 O   0  0  0  0  0  0  0  0  0  0  0  0
   40.8290   84.2150   60.7920 C   0  0  0  0  0  0  0  0  0  0  0  0
   41.1710   85.0870   59.8320 N   0  0  0  0  0  0  0  0  0  0  0  0
   40.2080   85.1490   58.9330 C   0  0  0  0  0  0  0  0  0  0  0  0
   40.3630   85.8310   58.0860 H   0  0  0  0  0  0  0  0  0  0  0  0
   39.2160   84.3330   59.2640 N   0  0  0  0  0  0  0  0  0  0  0  0
   38.3580   84.2330   58.6840 H   0  0  0  0  0  0  0  0  0  0  0  0
   39.6000   83.7740   60.3880 N   0  0  0  0  0  0  0  0  0  0  0  0
  1  6  1  0  0  0  0
  2  3  1  0  0  0  0
  2  1  2  0  0  0  0
  3  4  2  0  0  0  0
  4  5  1  0  0  0  0
  5  9  1  0  0  0  0
  6  5  2  0  0  0  0
  6 10  1  0  0  0  0
  7  3  1  0  0  0  0
  8  4  1  0  0  0  0
 11 17  1  0  0  0  0
 11 16  1  0  0  0  0
 12 11  2  0  0  0  0
 13 12  1  0  0  0  0
 13 14  2  0  0  0  0
 14 15  1  0  0  0  0
 15 16  2  0  0  0  0
 15  2  1  0  0  0  0
 18 13  1  0  0  0  0
 19 20  1  0  0  0  0
 19 12  1  0  0  0  0
 20 27  1  0  0  0  0
 21 28  1  0  0  0  0
 21 20  2  0  0  0  0
 22 21  1  0  0  0  0
 23 22  2  0  0  0  0
 24 22  1  0  0  0  0
 24 25  1  0  0  0  0
 25 19  1  0  0  0  0
 26 25  2  0  0  0  0
 29 24  1  0  0  0  0
 30  1  1  0  0  0  0
 30 32  2  0  0  0  0
 30 31  2  0  0  0  0
 33 30  1  0  0  0  0
 34 33  1  0  0  0  0
 35 37  1  0  0  0  0
 35 34  2  0  0  0  0
 36 35  1  0  0  0  0
 37 39  1  0  0  0  0
 38 37  1  0  0  0  0
 39 33  2  0  0  0  0
M  END
>  <minimizedAffinity>
-6.47578287

>  <minimizedRMSD>
1.05080259

$$$$
