
 OpenBabel03212520353D

 34 37  0  0  0  0  0  0  0  0999 V2000
   40.4330   81.1330   58.8930 C   0  0  0  0  0  0  0  0  0  0  0  0
   40.5780   79.8690   59.5160 C   0  0  0  0  0  0  0  0  0  0  0  0
   40.4030   79.6580   60.8540 C   0  0  0  0  0  0  0  0  0  0  0  0
   40.0640   80.7230   61.6620 C   0  0  0  0  0  0  0  0  0  0  0  0
   39.9170   81.9700   61.0800 C   0  0  0  0  0  0  0  0  0  0  0  0
   39.5630   83.0930   61.7910 C   0  0  0  0  0  0  0  0  0  0  0  0
   39.4110   84.3290   61.1670 C   0  0  0  0  0  0  0  0  0  0  0  0
   39.6100   84.4860   59.8020 C   0  0  0  0  0  0  0  0  0  0  0  0
   39.9670   83.3600   59.0880 C   0  0  0  0  0  0  0  0  0  0  0  0
   40.1000   82.1710   59.7220 C   0  0  0  0  0  0  0  0  0  0  0  0
   40.8240   78.9290   59.0460 H   0  0  0  0  0  0  0  0  0  0  0  0
   40.4970   78.7260   61.3800 H   0  0  0  0  0  0  0  0  0  0  0  0
   39.8980   80.6840   62.7310 H   0  0  0  0  0  0  0  0  0  0  0  0
   39.4110   82.9590   62.8650 H   0  0  0  0  0  0  0  0  0  0  0  0
   39.1280   85.1220   61.8550 H   0  0  0  0  0  0  0  0  0  0  0  0
   39.4670   85.4850   59.4280 H   0  0  0  0  0  0  0  0  0  0  0  0
   40.1500   83.6420   58.0820 H   0  0  0  0  0  0  0  0  0  0  0  0
   39.6710   80.8820   56.4420 C   0  0  0  0  0  0  0  0  0  0  0  0
   40.6080   81.1040   57.4540 C   0  0  0  0  0  0  0  0  0  0  0  0
   41.9920   81.3210   57.0880 C   0  0  0  0  0  0  0  0  0  0  0  0
   42.3110   81.2950   55.7610 N   0  0  0  0  0  0  0  0  0  0  0  0
   41.3200   81.0690   54.8120 C   0  0  0  0  0  0  0  0  0  0  0  0
   40.0200   80.8680   55.1610 N   0  0  0  0  0  0  0  0  0  0  0  0
   38.6660   80.6420   56.6540 H   0  0  0  0  0  0  0  0  0  0  0  0
   42.8530   81.5150   57.6570 H   0  0  0  0  0  0  0  0  0  0  0  0
   41.6440   81.0050   53.3830 C   0  0  0  0  0  0  0  0  0  0  0  0
   41.0050   81.6520   52.5390 O   0  0  0  0  0  0  0  0  0  0  0  0
   42.7520   80.1590   52.8810 C   0  0  0  0  0  0  0  0  0  0  0  0
   43.8770   80.6460   52.3880 N   0  0  0  0  0  0  0  0  0  0  0  0
   44.6400   79.5720   52.0380 C   0  0  0  0  0  0  0  0  0  0  0  0
   45.6340   79.6960   51.5980 H   0  0  0  0  0  0  0  0  0  0  0  0
   43.9690   78.4320   52.3220 N   0  0  0  0  0  0  0  0  0  0  0  0
   44.4120   77.5330   52.1150 H   0  0  0  0  0  0  0  0  0  0  0  0
   42.7980   78.7980   52.8460 N   0  0  0  0  0  0  0  0  0  0  0  0
  1  2  2  0  0  0  0
  1 10  1  0  0  0  0
  2  3  1  0  0  0  0
  3 12  1  0  0  0  0
  3  4  2  0  0  0  0
  4 13  1  0  0  0  0
  5  4  1  0  0  0  0
  5  6  1  0  0  0  0
  6 14  1  0  0  0  0
  7  6  2  0  0  0  0
  7 15  1  0  0  0  0
  8  7  1  0  0  0  0
  9 10  1  0  0  0  0
  9  8  2  0  0  0  0
 10  5  2  0  0  0  0
 11  2  1  0  0  0  0
 16  8  1  0  0  0  0
 17  9  1  0  0  0  0
 18 24  1  0  0  0  0
 18 19  1  0  0  0  0
 19  1  1  0  0  0  0
 20 19  2  0  0  0  0
 20 25  1  0  0  0  0
 21 20  1  0  0  0  0
 22 23  1  0  0  0  0
 22 21  2  0  0  0  0
 23 18  2  0  0  0  0
 26 22  1  0  0  0  0
 27 26  2  0  0  0  0
 28 26  1  0  0  0  0
 29 28  1  0  0  0  0
 30 32  1  0  0  0  0
 30 29  2  0  0  0  0
 31 30  1  0  0  0  0
 32 34  1  0  0  0  0
 33 32  1  0  0  0  0
 34 28  2  0  0  0  0
M  END
>  <minimizedAffinity>
-4.81954288

>  <minimizedRMSD>
8.92572689

$$$$
