
 OpenBabel03212520363D

 34 37  0  0  0  0  0  0  0  0999 V2000
   40.8150   73.4930   60.8310 C   0  0  0  0  0  0  0  0  0  0  0  0
   39.4730   73.6960   61.2370 C   0  0  0  0  0  0  0  0  0  0  0  0
   38.7530   74.8180   60.9440 C   0  0  0  0  0  0  0  0  0  0  0  0
   39.3480   75.8240   60.2120 C   0  0  0  0  0  0  0  0  0  0  0  0
   40.6590   75.6530   59.8030 C   0  0  0  0  0  0  0  0  0  0  0  0
   41.3390   76.5840   59.0530 C   0  0  0  0  0  0  0  0  0  0  0  0
   42.6540   76.3700   58.6480 C   0  0  0  0  0  0  0  0  0  0  0  0
   43.3400   75.2100   58.9830 C   0  0  0  0  0  0  0  0  0  0  0  0
   42.6590   74.2760   59.7360 C   0  0  0  0  0  0  0  0  0  0  0  0
   41.3790   74.5110   60.1090 C   0  0  0  0  0  0  0  0  0  0  0  0
   38.8480   73.0200   61.8010 H   0  0  0  0  0  0  0  0  0  0  0  0
   37.7360   75.0260   61.2230 H   0  0  0  0  0  0  0  0  0  0  0  0
   38.8850   76.7560   59.9160 H   0  0  0  0  0  0  0  0  0  0  0  0
   40.7900   77.4940   58.7970 H   0  0  0  0  0  0  0  0  0  0  0  0
   43.0590   77.1910   58.0610 H   0  0  0  0  0  0  0  0  0  0  0  0
   44.3520   75.1530   58.6170 H   0  0  0  0  0  0  0  0  0  0  0  0
   43.3240   73.4840   59.9710 H   0  0  0  0  0  0  0  0  0  0  0  0
   41.5500   71.0530   60.4330 C   0  0  0  0  0  0  0  0  0  0  0  0
   41.3560   72.2000   61.2060 C   0  0  0  0  0  0  0  0  0  0  0  0
   41.6970   72.1600   62.6120 C   0  0  0  0  0  0  0  0  0  0  0  0
   42.1960   70.9910   63.1120 N   0  0  0  0  0  0  0  0  0  0  0  0
   42.3630   69.8930   62.2770 C   0  0  0  0  0  0  0  0  0  0  0  0
   42.0410   69.9360   60.9550 N   0  0  0  0  0  0  0  0  0  0  0  0
   41.2480   71.0010   59.4230 H   0  0  0  0  0  0  0  0  0  0  0  0
   41.6500   72.8820   63.3730 H   0  0  0  0  0  0  0  0  0  0  0  0
   42.8660   68.6180   62.7990 C   0  0  0  0  0  0  0  0  0  0  0  0
   44.0700   68.4430   63.0470 O   0  0  0  0  0  0  0  0  0  0  0  0
   41.9570   67.4770   63.0550 C   0  0  0  0  0  0  0  0  0  0  0  0
   40.6680   67.6100   63.3080 N   0  0  0  0  0  0  0  0  0  0  0  0
   40.1770   66.3500   63.4870 C   0  0  0  0  0  0  0  0  0  0  0  0
   39.1220   66.1730   63.7120 H   0  0  0  0  0  0  0  0  0  0  0  0
   41.1810   65.4540   63.3400 N   0  0  0  0  0  0  0  0  0  0  0  0
   40.9720   64.4570   63.4460 H   0  0  0  0  0  0  0  0  0  0  0  0
   42.2840   66.1540   63.0730 N   0  0  0  0  0  0  0  0  0  0  0  0
  1 19  1  0  0  0  0
  1  2  1  0  0  0  0
  2 11  1  0  0  0  0
  3 12  1  0  0  0  0
  3  2  2  0  0  0  0
  4  3  1  0  0  0  0
  5 10  1  0  0  0  0
  5  4  2  0  0  0  0
  6  5  1  0  0  0  0
  7  8  1  0  0  0  0
  7  6  2  0  0  0  0
  8  9  2  0  0  0  0
  9 17  1  0  0  0  0
  9 10  1  0  0  0  0
 10  1  2  0  0  0  0
 13  4  1  0  0  0  0
 14  6  1  0  0  0  0
 15  7  1  0  0  0  0
 16  8  1  0  0  0  0
 18 23  2  0  0  0  0
 18 19  1  0  0  0  0
 19 20  2  0  0  0  0
 20 21  1  0  0  0  0
 20 25  1  0  0  0  0
 22 26  1  0  0  0  0
 22 21  2  0  0  0  0
 23 22  1  0  0  0  0
 24 18  1  0  0  0  0
 26 27  2  0  0  0  0
 26 28  1  0  0  0  0
 28 34  2  0  0  0  0
 28 29  1  0  0  0  0
 29 30  2  0  0  0  0
 30 31  1  0  0  0  0
 32 33  1  0  0  0  0
 32 30  1  0  0  0  0
 34 32  1  0  0  0  0
M  END
>  <minimizedAffinity>
-6.79052973

$$$$

 OpenBabel03212520363D

 34 37  0  0  0  0  0  0  0  0999 V2000
   40.6440   73.3450   60.4870 C   0  0  0  0  0  0  0  0  0  0  0  0
   39.3380   73.4160   61.0290 C   0  0  0  0  0  0  0  0  0  0  0  0
   38.6270   74.5760   61.1480 C   0  0  0  0  0  0  0  0  0  0  0  0
   39.1960   75.7580   60.7210 C   0  0  0  0  0  0  0  0  0  0  0  0
   40.4720   75.7180   60.1880 C   0  0  0  0  0  0  0  0  0  0  0  0
   41.1240   76.8340   59.7150 C   0  0  0  0  0  0  0  0  0  0  0  0
   42.4040   76.7510   59.1730 C   0  0  0  0  0  0  0  0  0  0  0  0
   43.0830   75.5440   59.0850 C   0  0  0  0  0  0  0  0  0  0  0  0
   42.4310   74.4240   59.5600 C   0  0  0  0  0  0  0  0  0  0  0  0
   41.1840   74.5350   60.0760 C   0  0  0  0  0  0  0  0  0  0  0  0
   38.7350   72.6000   61.3990 H   0  0  0  0  0  0  0  0  0  0  0  0
   37.6360   74.6900   61.5470 H   0  0  0  0  0  0  0  0  0  0  0  0
   38.7370   76.7360   60.7600 H   0  0  0  0  0  0  0  0  0  0  0  0
   40.5810   77.7790   59.7910 H   0  0  0  0  0  0  0  0  0  0  0  0
   42.7880   77.7130   58.8410 H   0  0  0  0  0  0  0  0  0  0  0  0
   44.0660   75.6000   58.6500 H   0  0  0  0  0  0  0  0  0  0  0  0
   43.0900   73.5960   59.4920 H   0  0  0  0  0  0  0  0  0  0  0  0
   41.2780   71.1400   59.3090 C   0  0  0  0  0  0  0  0  0  0  0  0
   41.1780   71.9990   60.4060 C   0  0  0  0  0  0  0  0  0  0  0  0
   41.6290   71.5330   61.7000 C   0  0  0  0  0  0  0  0  0  0  0  0
   42.1340   70.2670   61.7790 N   0  0  0  0  0  0  0  0  0  0  0  0
   42.2030   69.4730   60.6400 C   0  0  0  0  0  0  0  0  0  0  0  0
   41.7780   69.9160   59.4260 N   0  0  0  0  0  0  0  0  0  0  0  0
   40.8940   71.3980   58.3600 H   0  0  0  0  0  0  0  0  0  0  0  0
   41.6640   71.9900   62.6450 H   0  0  0  0  0  0  0  0  0  0  0  0
   42.7110   68.0990   60.7080 C   0  0  0  0  0  0  0  0  0  0  0  0
   43.6700   67.7230   60.0160 O   0  0  0  0  0  0  0  0  0  0  0  0
   42.0990   67.0940   61.6080 C   0  0  0  0  0  0  0  0  0  0  0  0
   40.8570   66.6630   61.4860 N   0  0  0  0  0  0  0  0  0  0  0  0
   40.6640   65.7560   62.4870 C   0  0  0  0  0  0  0  0  0  0  0  0
   39.7070   65.2410   62.6150 H   0  0  0  0  0  0  0  0  0  0  0  0
   41.8000   65.6430   63.2140 N   0  0  0  0  0  0  0  0  0  0  0  0
   41.8150   64.9960   64.0080 H   0  0  0  0  0  0  0  0  0  0  0  0
   42.6890   66.4730   62.6690 N   0  0  0  0  0  0  0  0  0  0  0  0
  1  2  1  0  0  0  0
  2  3  2  0  0  0  0
  2 11  1  0  0  0  0
  3 12  1  0  0  0  0
  4 13  1  0  0  0  0
  4  3  1  0  0  0  0
  5  4  2  0  0  0  0
  6 14  1  0  0  0  0
  6  5  1  0  0  0  0
  7  6  2  0  0  0  0
  8  7  1  0  0  0  0
  8  9  2  0  0  0  0
  9 10  1  0  0  0  0
 10  5  1  0  0  0  0
 10  1  2  0  0  0  0
 15  7  1  0  0  0  0
 16  8  1  0  0  0  0
 17  9  1  0  0  0  0
 18 23  2  0  0  0  0
 18 19  1  0  0  0  0
 19  1  1  0  0  0  0
 19 20  2  0  0  0  0
 20 21  1  0  0  0  0
 20 25  1  0  0  0  0
 22 26  1  0  0  0  0
 22 21  2  0  0  0  0
 23 22  1  0  0  0  0
 24 18  1  0  0  0  0
 26 28  1  0  0  0  0
 27 26  2  0  0  0  0
 28 34  2  0  0  0  0
 29 28  1  0  0  0  0
 29 30  2  0  0  0  0
 30 31  1  0  0  0  0
 30 32  1  0  0  0  0
 32 33  1  0  0  0  0
 34 32  1  0  0  0  0
M  END
>  <minimizedAffinity>
-6.60838652

$$$$

 OpenBabel03212520363D

 34 37  0  0  0  0  0  0  0  0999 V2000
   42.1880   73.3270   60.5770 C   0  0  0  0  0  0  0  0  0  0  0  0
   43.4730   73.5660   60.0320 C   0  0  0  0  0  0  0  0  0  0  0  0
   43.8150   74.7080   59.3670 C   0  0  0  0  0  0  0  0  0  0  0  0
   42.8690   75.6990   59.2050 C   0  0  0  0  0  0  0  0  0  0  0  0
   41.6040   75.4910   59.7260 C   0  0  0  0  0  0  0  0  0  0  0  0
   40.5930   76.4210   59.6380 C   0  0  0  0  0  0  0  0  0  0  0  0
   39.3370   76.1800   60.1880 C   0  0  0  0  0  0  0  0  0  0  0  0
   39.0440   74.9950   60.8480 C   0  0  0  0  0  0  0  0  0  0  0  0
   40.0560   74.0620   60.9360 C   0  0  0  0  0  0  0  0  0  0  0  0
   41.2690   74.3260   60.3970 C   0  0  0  0  0  0  0  0  0  0  0  0
   44.3350   72.9170   60.0720 H   0  0  0  0  0  0  0  0  0  0  0  0
   44.7700   74.9450   58.9350 H   0  0  0  0  0  0  0  0  0  0  0  0
   43.0160   76.6440   58.7010 H   0  0  0  0  0  0  0  0  0  0  0  0
   40.8350   77.3490   59.1150 H   0  0  0  0  0  0  0  0  0  0  0  0
   38.6430   77.0050   60.0410 H   0  0  0  0  0  0  0  0  0  0  0  0
   38.0400   74.9180   61.2310 H   0  0  0  0  0  0  0  0  0  0  0  0
   39.6700   73.1890   61.4010 H   0  0  0  0  0  0  0  0  0  0  0  0
   42.0170   71.8240   62.6660 C   0  0  0  0  0  0  0  0  0  0  0  0
   42.0750   72.0700   61.2920 C   0  0  0  0  0  0  0  0  0  0  0  0
   42.0500   70.9460   60.3800 C   0  0  0  0  0  0  0  0  0  0  0  0
   41.9720   69.6930   60.9170 N   0  0  0  0  0  0  0  0  0  0  0  0
   41.9160   69.5300   62.2960 C   0  0  0  0  0  0  0  0  0  0  0  0
   41.9380   70.5900   63.1490 N   0  0  0  0  0  0  0  0  0  0  0  0
   42.1090   72.5980   63.3770 H   0  0  0  0  0  0  0  0  0  0  0  0
   42.0710   70.8840   59.3320 H   0  0  0  0  0  0  0  0  0  0  0  0
   41.8640   68.1920   62.8960 C   0  0  0  0  0  0  0  0  0  0  0  0
   40.8270   67.7490   63.4140 O   0  0  0  0  0  0  0  0  0  0  0  0
   43.0520   67.3080   62.9130 C   0  0  0  0  0  0  0  0  0  0  0  0
   44.2540   67.7040   63.2930 N   0  0  0  0  0  0  0  0  0  0  0  0
   45.0730   66.6210   63.1700 C   0  0  0  0  0  0  0  0  0  0  0  0
   46.1360   66.6750   63.4230 H   0  0  0  0  0  0  0  0  0  0  0  0
   44.3570   65.5670   62.7110 N   0  0  0  0  0  0  0  0  0  0  0  0
   44.8340   64.6730   62.5640 H   0  0  0  0  0  0  0  0  0  0  0  0
   43.1050   65.9950   62.5520 N   0  0  0  0  0  0  0  0  0  0  0  0
  1 19  1  0  0  0  0
  2 11  1  0  0  0  0
  2  1  2  0  0  0  0
  3  2  1  0  0  0  0
  4  3  2  0  0  0  0
  4  5  1  0  0  0  0
  5 10  1  0  0  0  0
  6  5  2  0  0  0  0
  6  7  1  0  0  0  0
  7  8  2  0  0  0  0
  8  9  1  0  0  0  0
  8 16  1  0  0  0  0
  9 17  1  0  0  0  0
 10  1  1  0  0  0  0
 10  9  2  0  0  0  0
 12  3  1  0  0  0  0
 13  4  1  0  0  0  0
 14  6  1  0  0  0  0
 15  7  1  0  0  0  0
 18 23  1  0  0  0  0
 18 24  1  0  0  0  0
 19 18  2  0  0  0  0
 20 21  2  0  0  0  0
 20 19  1  0  0  0  0
 21 22  1  0  0  0  0
 22 26  1  0  0  0  0
 22 23  2  0  0  0  0
 25 20  1  0  0  0  0
 26 28  1  0  0  0  0
 26 27  2  0  0  0  0
 28 29  1  0  0  0  0
 30 29  2  0  0  0  0
 30 31  1  0  0  0  0
 32 30  1  0  0  0  0
 33 32  1  0  0  0  0
 34 32  1  0  0  0  0
 34 28  2  0  0  0  0
M  END
>  <minimizedAffinity>
-6.44664192

$$$$

 OpenBabel03212520363D

 34 37  0  0  0  0  0  0  0  0999 V2000
   42.2000   72.9970   60.4860 C   0  0  0  0  0  0  0  0  0  0  0  0
   43.3890   73.4650   59.8750 C   0  0  0  0  0  0  0  0  0  0  0  0
   43.5190   74.7070   59.3210 C   0  0  0  0  0  0  0  0  0  0  0  0
   42.4430   75.5690   59.3480 C   0  0  0  0  0  0  0  0  0  0  0  0
   41.2680   75.1370   59.9370 C   0  0  0  0  0  0  0  0  0  0  0  0
   40.1430   75.9230   60.0340 C   0  0  0  0  0  0  0  0  0  0  0  0
   38.9840   75.4570   60.6480 C   0  0  0  0  0  0  0  0  0  0  0  0
   38.9060   74.1800   61.1880 C   0  0  0  0  0  0  0  0  0  0  0  0
   40.0330   73.3910   61.0900 C   0  0  0  0  0  0  0  0  0  0  0  0
   41.1480   73.8740   60.4940 C   0  0  0  0  0  0  0  0  0  0  0  0
   44.3260   72.9400   59.7730 H   0  0  0  0  0  0  0  0  0  0  0  0
   44.3930   75.1160   58.8480 H   0  0  0  0  0  0  0  0  0  0  0  0
   42.4220   76.5730   58.9460 H   0  0  0  0  0  0  0  0  0  0  0  0
   40.2150   76.9250   59.6040 H   0  0  0  0  0  0  0  0  0  0  0  0
   38.1790   76.1890   60.6510 H   0  0  0  0  0  0  0  0  0  0  0  0
   37.9600   73.9270   61.6360 H   0  0  0  0  0  0  0  0  0  0  0  0
   39.8070   72.4300   61.4790 H   0  0  0  0  0  0  0  0  0  0  0  0
   42.5400   71.2810   62.3810 C   0  0  0  0  0  0  0  0  0  0  0  0
   42.3150   71.6690   61.0580 C   0  0  0  0  0  0  0  0  0  0  0  0
   42.1940   70.6460   60.0410 C   0  0  0  0  0  0  0  0  0  0  0  0
   42.3080   69.3430   60.4340 N   0  0  0  0  0  0  0  0  0  0  0  0
   42.5290   69.0370   61.7720 C   0  0  0  0  0  0  0  0  0  0  0  0
   42.6410   70.0030   62.7240 N   0  0  0  0  0  0  0  0  0  0  0  0
   42.7120   71.9840   63.1490 H   0  0  0  0  0  0  0  0  0  0  0  0
   42.0170   70.6920   59.0080 H   0  0  0  0  0  0  0  0  0  0  0  0
   42.6880   67.6460   62.2110 C   0  0  0  0  0  0  0  0  0  0  0  0
   43.7920   67.0780   62.1950 O   0  0  0  0  0  0  0  0  0  0  0  0
   41.5340   66.8530   62.6940 C   0  0  0  0  0  0  0  0  0  0  0  0
   40.4110   67.3900   63.1360 N   0  0  0  0  0  0  0  0  0  0  0  0
   39.5990   66.3510   63.4870 C   0  0  0  0  0  0  0  0  0  0  0  0
   38.5960   66.5190   63.8890 H   0  0  0  0  0  0  0  0  0  0  0  0
   40.2410   65.1820   63.2530 N   0  0  0  0  0  0  0  0  0  0  0  0
   39.7600   64.3040   63.4670 H   0  0  0  0  0  0  0  0  0  0  0  0
   41.4400   65.4950   62.7620 N   0  0  0  0  0  0  0  0  0  0  0  0
  1 10  1  0  0  0  0
  1 19  1  0  0  0  0
  2  1  2  0  0  0  0
  3  4  2  0  0  0  0
  3  2  1  0  0  0  0
  4  5  1  0  0  0  0
  5  6  2  0  0  0  0
  5 10  1  0  0  0  0
  6  7  1  0  0  0  0
  7 15  1  0  0  0  0
  7  8  2  0  0  0  0
  8 16  1  0  0  0  0
  9  8  1  0  0  0  0
  9 17  1  0  0  0  0
 10  9  2  0  0  0  0
 11  2  1  0  0  0  0
 12  3  1  0  0  0  0
 13  4  1  0  0  0  0
 14  6  1  0  0  0  0
 18 23  1  0  0  0  0
 18 24  1  0  0  0  0
 19 18  2  0  0  0  0
 20 21  2  0  0  0  0
 20 19  1  0  0  0  0
 21 22  1  0  0  0  0
 22 26  1  0  0  0  0
 22 23  2  0  0  0  0
 25 20  1  0  0  0  0
 26 28  1  0  0  0  0
 27 26  2  0  0  0  0
 28 34  2  0  0  0  0
 28 29  1  0  0  0  0
 29 30  2  0  0  0  0
 30 31  1  0  0  0  0
 32 33  1  0  0  0  0
 32 30  1  0  0  0  0
 34 32  1  0  0  0  0
M  END
>  <minimizedAffinity>
-6.44436407

$$$$

 OpenBabel03212520363D

 34 37  0  0  0  0  0  0  0  0999 V2000
   40.7610   73.3140   60.8880 C   0  0  0  0  0  0  0  0  0  0  0  0
   39.4140   73.5200   61.2710 C   0  0  0  0  0  0  0  0  0  0  0  0
   38.7310   74.6820   61.0490 C   0  0  0  0  0  0  0  0  0  0  0  0
   39.3730   75.7260   60.4140 C   0  0  0  0  0  0  0  0  0  0  0  0
   40.6900   75.5510   60.0290 C   0  0  0  0  0  0  0  0  0  0  0  0
   41.4150   76.5200   59.3740 C   0  0  0  0  0  0  0  0  0  0  0  0
   42.7360   76.3010   58.9900 C   0  0  0  0  0  0  0  0  0  0  0  0
   43.3830   75.1010   59.2510 C   0  0  0  0  0  0  0  0  0  0  0  0
   42.6570   74.1300   59.9090 C   0  0  0  0  0  0  0  0  0  0  0  0
   41.3730   74.3690   60.2640 C   0  0  0  0  0  0  0  0  0  0  0  0
   38.7560   72.8200   61.7620 H   0  0  0  0  0  0  0  0  0  0  0  0
   37.7120   74.8950   61.3150 H   0  0  0  0  0  0  0  0  0  0  0  0
   38.9420   76.6900   60.1810 H   0  0  0  0  0  0  0  0  0  0  0  0
   40.8970   77.4610   59.1760 H   0  0  0  0  0  0  0  0  0  0  0  0
   43.1780   77.1550   58.4810 H   0  0  0  0  0  0  0  0  0  0  0  0
   44.4030   75.0450   58.9100 H   0  0  0  0  0  0  0  0  0  0  0  0
   43.2940   73.3030   60.0980 H   0  0  0  0  0  0  0  0  0  0  0  0
   41.6320   70.9580   60.2980 C   0  0  0  0  0  0  0  0  0  0  0  0
   41.2580   71.9810   61.1730 C   0  0  0  0  0  0  0  0  0  0  0  0
   41.3240   71.7390   62.5990 C   0  0  0  0  0  0  0  0  0  0  0  0
   41.7520   70.5110   63.0160 N   0  0  0  0  0  0  0  0  0  0  0  0
   42.1090   69.5450   62.0820 C   0  0  0  0  0  0  0  0  0  0  0  0
   42.0460   69.7790   60.7430 N   0  0  0  0  0  0  0  0  0  0  0  0
   41.5310   71.0530   59.2520 H   0  0  0  0  0  0  0  0  0  0  0  0
   41.1100   72.3430   63.4310 H   0  0  0  0  0  0  0  0  0  0  0  0
   42.5400   68.2080   62.5060 C   0  0  0  0  0  0  0  0  0  0  0  0
   41.7460   67.3950   63.0060 O   0  0  0  0  0  0  0  0  0  0  0  0
   43.9460   67.7680   62.3590 C   0  0  0  0  0  0  0  0  0  0  0  0
   44.5870   67.0510   63.2640 N   0  0  0  0  0  0  0  0  0  0  0  0
   45.8440   66.8480   62.7750 C   0  0  0  0  0  0  0  0  0  0  0  0
   46.5900   66.2760   63.3340 H   0  0  0  0  0  0  0  0  0  0  0  0
   45.9580   67.4500   61.5680 N   0  0  0  0  0  0  0  0  0  0  0  0
   46.8500   67.3880   61.0680 H   0  0  0  0  0  0  0  0  0  0  0  0
   44.7810   68.0200   61.3110 N   0  0  0  0  0  0  0  0  0  0  0  0
  1 19  1  0  0  0  0
  1  2  1  0  0  0  0
  2 11  1  0  0  0  0
  3  2  2  0  0  0  0
  3 12  1  0  0  0  0
  4  3  1  0  0  0  0
  5 10  1  0  0  0  0
  5  4  2  0  0  0  0
  6  5  1  0  0  0  0
  7  8  1  0  0  0  0
  7  6  2  0  0  0  0
  8  9  2  0  0  0  0
  9 17  1  0  0  0  0
  9 10  1  0  0  0  0
 10  1  2  0  0  0  0
 13  4  1  0  0  0  0
 14  6  1  0  0  0  0
 15  7  1  0  0  0  0
 16  8  1  0  0  0  0
 18 23  2  0  0  0  0
 18 19  1  0  0  0  0
 19 20  2  0  0  0  0
 20 21  1  0  0  0  0
 20 25  1  0  0  0  0
 22 26  1  0  0  0  0
 22 21  2  0  0  0  0
 23 22  1  0  0  0  0
 24 18  1  0  0  0  0
 26 27  2  0  0  0  0
 28 26  1  0  0  0  0
 28 29  1  0  0  0  0
 30 29  2  0  0  0  0
 30 31  1  0  0  0  0
 32 30  1  0  0  0  0
 33 32  1  0  0  0  0
 34 32  1  0  0  0  0
 34 28  2  0  0  0  0
M  END
>  <minimizedAffinity>
-6.33866644

$$$$

 OpenBabel03212520363D

 34 37  0  0  0  0  0  0  0  0999 V2000
   41.6730   74.7100   59.2480 C   0  0  0  0  0  0  0  0  0  0  0  0
   42.9730   75.0610   58.8080 C   0  0  0  0  0  0  0  0  0  0  0  0
   44.1210   74.5960   59.3830 C   0  0  0  0  0  0  0  0  0  0  0  0
   44.0310   73.7330   60.4560 C   0  0  0  0  0  0  0  0  0  0  0  0
   42.7740   73.3740   60.9080 C   0  0  0  0  0  0  0  0  0  0  0  0
   42.5730   72.5070   61.9560 C   0  0  0  0  0  0  0  0  0  0  0  0
   41.2910   72.1580   62.3740 C   0  0  0  0  0  0  0  0  0  0  0  0
   40.1580   72.6700   61.7550 C   0  0  0  0  0  0  0  0  0  0  0  0
   40.3590   73.5410   60.7040 C   0  0  0  0  0  0  0  0  0  0  0  0
   41.6170   73.8550   60.3170 C   0  0  0  0  0  0  0  0  0  0  0  0
   43.2350   75.7070   57.9840 H   0  0  0  0  0  0  0  0  0  0  0  0
   45.1290   74.8250   59.0920 H   0  0  0  0  0  0  0  0  0  0  0  0
   44.8630   73.2970   60.9930 H   0  0  0  0  0  0  0  0  0  0  0  0
   43.4710   72.1120   62.4370 H   0  0  0  0  0  0  0  0  0  0  0  0
   41.2890   71.4640   63.2110 H   0  0  0  0  0  0  0  0  0  0  0  0
   39.2200   72.3320   62.1620 H   0  0  0  0  0  0  0  0  0  0  0  0
   39.4150   73.8990   60.3790 H   0  0  0  0  0  0  0  0  0  0  0  0
   39.6570   76.2480   58.7790 C   0  0  0  0  0  0  0  0  0  0  0  0
   40.6050   75.2770   58.4480 C   0  0  0  0  0  0  0  0  0  0  0  0
   40.5620   74.6800   57.1290 C   0  0  0  0  0  0  0  0  0  0  0  0
   39.5860   75.1020   56.2730 N   0  0  0  0  0  0  0  0  0  0  0  0
   38.6790   76.0750   56.6760 C   0  0  0  0  0  0  0  0  0  0  0  0
   38.7250   76.6330   57.9160 N   0  0  0  0  0  0  0  0  0  0  0  0
   39.5930   76.6590   59.7490 H   0  0  0  0  0  0  0  0  0  0  0  0
   41.1610   73.9580   56.6590 H   0  0  0  0  0  0  0  0  0  0  0  0
   37.6030   76.5190   55.7840 C   0  0  0  0  0  0  0  0  0  0  0  0
   36.6380   77.1780   56.2030 O   0  0  0  0  0  0  0  0  0  0  0  0
   37.6180   76.1990   54.3380 C   0  0  0  0  0  0  0  0  0  0  0  0
   38.3390   76.8580   53.4500 N   0  0  0  0  0  0  0  0  0  0  0  0
   38.0890   76.2770   52.2420 C   0  0  0  0  0  0  0  0  0  0  0  0
   38.5650   76.6350   51.3240 H   0  0  0  0  0  0  0  0  0  0  0  0
   37.2100   75.2600   52.4070 N   0  0  0  0  0  0  0  0  0  0  0  0
   36.9190   74.7210   51.5870 H   0  0  0  0  0  0  0  0  0  0  0  0
   36.9190   75.2140   53.7070 N   0  0  0  0  0  0  0  0  0  0  0  0
  1 10  1  0  0  0  0
  2  1  2  0  0  0  0
  2  3  1  0  0  0  0
  3  4  2  0  0  0  0
  4  5  1  0  0  0  0
  4 13  1  0  0  0  0
  5  6  1  0  0  0  0
  6  7  2  0  0  0  0
  6 14  1  0  0  0  0
  7 15  1  0  0  0  0
  8 16  1  0  0  0  0
  8  7  1  0  0  0  0
  9  8  2  0  0  0  0
 10  9  1  0  0  0  0
 10  5  2  0  0  0  0
 11  2  1  0  0  0  0
 12  3  1  0  0  0  0
 17  9  1  0  0  0  0
 18 24  1  0  0  0  0
 19 18  1  0  0  0  0
 19  1  1  0  0  0  0
 20 19  2  0  0  0  0
 21 22  2  0  0  0  0
 21 20  1  0  0  0  0
 22 23  1  0  0  0  0
 23 18  2  0  0  0  0
 25 20  1  0  0  0  0
 26 27  2  0  0  0  0
 26 22  1  0  0  0  0
 28 26  1  0  0  0  0
 29 28  1  0  0  0  0
 30 32  1  0  0  0  0
 30 29  2  0  0  0  0
 31 30  1  0  0  0  0
 32 34  1  0  0  0  0
 33 32  1  0  0  0  0
 34 28  2  0  0  0  0
M  END
>  <minimizedAffinity>
-6.27603054

$$$$

 OpenBabel03212520363D

 34 37  0  0  0  0  0  0  0  0999 V2000
   42.6850   68.4930   61.8900 C   0  0  0  0  0  0  0  0  0  0  0  0
   43.9490   68.0370   61.4430 C   0  0  0  0  0  0  0  0  0  0  0  0
   44.3600   66.7370   61.5260 C   0  0  0  0  0  0  0  0  0  0  0  0
   43.5090   65.7990   62.0730 C   0  0  0  0  0  0  0  0  0  0  0  0
   42.2680   66.2170   62.5190 C   0  0  0  0  0  0  0  0  0  0  0  0
   41.3380   65.3610   63.0620 C   0  0  0  0  0  0  0  0  0  0  0  0
   40.0930   65.8170   63.4870 C   0  0  0  0  0  0  0  0  0  0  0  0
   39.7330   67.1540   63.3860 C   0  0  0  0  0  0  0  0  0  0  0  0
   40.6650   68.0130   62.8420 C   0  0  0  0  0  0  0  0  0  0  0  0
   41.8650   67.5390   62.4320 C   0  0  0  0  0  0  0  0  0  0  0  0
   44.7320   68.6190   60.9820 H   0  0  0  0  0  0  0  0  0  0  0  0
   45.3020   66.3340   61.2030 H   0  0  0  0  0  0  0  0  0  0  0  0
   43.7170   64.7440   62.1920 H   0  0  0  0  0  0  0  0  0  0  0  0
   41.6330   64.3110   63.1390 H   0  0  0  0  0  0  0  0  0  0  0  0
   39.4650   65.0270   63.8920 H   0  0  0  0  0  0  0  0  0  0  0  0
   38.7470   67.3930   63.7470 H   0  0  0  0  0  0  0  0  0  0  0  0
   40.2820   69.0010   62.8910 H   0  0  0  0  0  0  0  0  0  0  0  0
   42.4410   70.9780   62.5370 C   0  0  0  0  0  0  0  0  0  0  0  0
   42.4460   69.9020   61.6460 C   0  0  0  0  0  0  0  0  0  0  0  0
   42.1470   70.1500   60.2510 C   0  0  0  0  0  0  0  0  0  0  0  0
   41.8740   71.4350   59.8780 N   0  0  0  0  0  0  0  0  0  0  0  0
   41.8920   72.4530   60.8250 C   0  0  0  0  0  0  0  0  0  0  0  0
   42.1740   72.2140   62.1350 N   0  0  0  0  0  0  0  0  0  0  0  0
   42.5750   70.8440   63.5750 H   0  0  0  0  0  0  0  0  0  0  0  0
   42.1030   69.5190   59.4130 H   0  0  0  0  0  0  0  0  0  0  0  0
   41.5700   73.8350   60.4540 C   0  0  0  0  0  0  0  0  0  0  0  0
   42.3950   74.5670   59.8850 O   0  0  0  0  0  0  0  0  0  0  0  0
   40.2410   74.4210   60.7420 C   0  0  0  0  0  0  0  0  0  0  0  0
   39.1730   73.7030   61.0420 N   0  0  0  0  0  0  0  0  0  0  0  0
   38.1550   74.5890   61.2370 C   0  0  0  0  0  0  0  0  0  0  0  0
   37.1480   74.2550   61.5010 H   0  0  0  0  0  0  0  0  0  0  0  0
   38.6160   75.8490   61.0530 N   0  0  0  0  0  0  0  0  0  0  0  0
   37.9670   76.6330   61.1640 H   0  0  0  0  0  0  0  0  0  0  0  0
   39.9090   75.7430   60.7460 N   0  0  0  0  0  0  0  0  0  0  0  0
  1 10  1  0  0  0  0
  2  3  1  0  0  0  0
  2  1  2  0  0  0  0
  3  4  2  0  0  0  0
  4 13  1  0  0  0  0
  4  5  1  0  0  0  0
  5  6  1  0  0  0  0
  6 14  1  0  0  0  0
  6  7  2  0  0  0  0
  7 15  1  0  0  0  0
  8  7  1  0  0  0  0
  8 16  1  0  0  0  0
  9 17  1  0  0  0  0
  9  8  2  0  0  0  0
 10  5  2  0  0  0  0
 10  9  1  0  0  0  0
 11  2  1  0  0  0  0
 12  3  1  0  0  0  0
 18 24  1  0  0  0  0
 19  1  1  0  0  0  0
 19 18  2  0  0  0  0
 20 19  1  0  0  0  0
 21 20  2  0  0  0  0
 21 22  1  0  0  0  0
 22 23  2  0  0  0  0
 23 18  1  0  0  0  0
 25 20  1  0  0  0  0
 26 28  1  0  0  0  0
 26 22  1  0  0  0  0
 27 26  2  0  0  0  0
 28 34  2  0  0  0  0
 28 29  1  0  0  0  0
 29 30  2  0  0  0  0
 30 31  1  0  0  0  0
 32 33  1  0  0  0  0
 32 30  1  0  0  0  0
 34 32  1  0  0  0  0
M  END
>  <minimizedAffinity>
-6.04436398

$$$$

 OpenBabel03212520363D

 34 37  0  0  0  0  0  0  0  0999 V2000
   41.2520   71.4610   58.8860 C   0  0  0  0  0  0  0  0  0  0  0  0
   41.6070   70.4090   58.0060 C   0  0  0  0  0  0  0  0  0  0  0  0
   42.2550   69.2740   58.4030 C   0  0  0  0  0  0  0  0  0  0  0  0
   42.5920   69.1240   59.7320 C   0  0  0  0  0  0  0  0  0  0  0  0
   42.2590   70.1370   60.6130 C   0  0  0  0  0  0  0  0  0  0  0  0
   42.5310   70.0800   61.9610 C   0  0  0  0  0  0  0  0  0  0  0  0
   42.1660   71.1150   62.8190 C   0  0  0  0  0  0  0  0  0  0  0  0
   41.5140   72.2500   62.3570 C   0  0  0  0  0  0  0  0  0  0  0  0
   41.2420   72.3090   61.0060 C   0  0  0  0  0  0  0  0  0  0  0  0
   41.6030   71.2850   60.1980 C   0  0  0  0  0  0  0  0  0  0  0  0
   41.4150   70.3460   56.9460 H   0  0  0  0  0  0  0  0  0  0  0  0
   42.5480   68.4460   57.7840 H   0  0  0  0  0  0  0  0  0  0  0  0
   43.1040   68.2760   60.1670 H   0  0  0  0  0  0  0  0  0  0  0  0
   43.0460   69.1830   62.3130 H   0  0  0  0  0  0  0  0  0  0  0  0
   42.4450   70.9280   63.8530 H   0  0  0  0  0  0  0  0  0  0  0  0
   41.2820   72.9850   63.1090 H   0  0  0  0  0  0  0  0  0  0  0  0
   40.8080   73.2530   60.7910 H   0  0  0  0  0  0  0  0  0  0  0  0
   40.9090   73.8480   57.9720 C   0  0  0  0  0  0  0  0  0  0  0  0
   40.5150   72.5370   58.2510 C   0  0  0  0  0  0  0  0  0  0  0  0
   39.1710   72.1240   57.9080 C   0  0  0  0  0  0  0  0  0  0  0  0
   38.3520   73.0480   57.3250 N   0  0  0  0  0  0  0  0  0  0  0  0
   38.8190   74.3330   57.0770 C   0  0  0  0  0  0  0  0  0  0  0  0
   40.0840   74.7160   57.4000 N   0  0  0  0  0  0  0  0  0  0  0  0
   41.8490   74.2250   58.2700 H   0  0  0  0  0  0  0  0  0  0  0  0
   38.6630   71.2110   58.0080 H   0  0  0  0  0  0  0  0  0  0  0  0
   37.9460   75.3510   56.4810 C   0  0  0  0  0  0  0  0  0  0  0  0
   37.5100   76.3060   57.1440 O   0  0  0  0  0  0  0  0  0  0  0  0
   37.5430   75.2840   55.0580 C   0  0  0  0  0  0  0  0  0  0  0  0
   38.3950   75.3610   54.0510 N   0  0  0  0  0  0  0  0  0  0  0  0
   37.6540   75.2630   52.9110 C   0  0  0  0  0  0  0  0  0  0  0  0
   38.1190   75.2980   51.9210 H   0  0  0  0  0  0  0  0  0  0  0  0
   36.3460   75.1280   53.2360 N   0  0  0  0  0  0  0  0  0  0  0  0
   35.6570   75.0420   52.4830 H   0  0  0  0  0  0  0  0  0  0  0  0
   36.2790   75.1410   54.5670 N   0  0  0  0  0  0  0  0  0  0  0  0
  1 10  1  0  0  0  0
  2  3  1  0  0  0  0
  2  1  2  0  0  0  0
  3  4  2  0  0  0  0
  4 13  1  0  0  0  0
  4  5  1  0  0  0  0
  5  6  1  0  0  0  0
  6 14  1  0  0  0  0
  6  7  2  0  0  0  0
  7 15  1  0  0  0  0
  8  7  1  0  0  0  0
  8 16  1  0  0  0  0
  9  8  2  0  0  0  0
 10  5  2  0  0  0  0
 10  9  1  0  0  0  0
 11  2  1  0  0  0  0
 12  3  1  0  0  0  0
 17  9  1  0  0  0  0
 18 19  1  0  0  0  0
 18 24  1  0  0  0  0
 19  1  1  0  0  0  0
 20 25  1  0  0  0  0
 20 19  2  0  0  0  0
 21 20  1  0  0  0  0
 22 21  2  0  0  0  0
 22 23  1  0  0  0  0
 23 18  2  0  0  0  0
 26 22  1  0  0  0  0
 26 27  2  0  0  0  0
 28 26  1  0  0  0  0
 29 28  1  0  0  0  0
 30 32  1  0  0  0  0
 30 29  2  0  0  0  0
 31 30  1  0  0  0  0
 32 34  1  0  0  0  0
 33 32  1  0  0  0  0
 34 28  2  0  0  0  0
M  END
>  <minimizedAffinity>
-5.87029839

$$$$

 OpenBabel03212520363D

 34 37  0  0  0  0  0  0  0  0999 V2000
   43.0800   69.0510   60.7010 C   0  0  0  0  0  0  0  0  0  0  0  0
   44.4140   69.1860   60.2450 C   0  0  0  0  0  0  0  0  0  0  0  0
   45.3540   68.2010   60.3460 C   0  0  0  0  0  0  0  0  0  0  0  0
   45.0050   66.9970   60.9220 C   0  0  0  0  0  0  0  0  0  0  0  0
   43.7080   66.8380   61.3770 C   0  0  0  0  0  0  0  0  0  0  0  0
   43.2510   65.6730   61.9490 C   0  0  0  0  0  0  0  0  0  0  0  0
   41.9340   65.5460   62.3830 C   0  0  0  0  0  0  0  0  0  0  0  0
   41.0220   66.5860   62.2620 C   0  0  0  0  0  0  0  0  0  0  0  0
   41.4800   67.7550   61.6900 C   0  0  0  0  0  0  0  0  0  0  0  0
   42.7640   67.8460   61.2710 C   0  0  0  0  0  0  0  0  0  0  0  0
   44.8590   70.0430   59.7620 H   0  0  0  0  0  0  0  0  0  0  0  0
   46.3760   68.2460   60.0180 H   0  0  0  0  0  0  0  0  0  0  0  0
   45.6550   66.1440   61.0570 H   0  0  0  0  0  0  0  0  0  0  0  0
   43.9770   64.8610   62.0410 H   0  0  0  0  0  0  0  0  0  0  0  0
   41.7180   64.5690   62.8100 H   0  0  0  0  0  0  0  0  0  0  0  0
   40.0330   66.3760   62.6320 H   0  0  0  0  0  0  0  0  0  0  0  0
   40.7020   68.4750   61.7260 H   0  0  0  0  0  0  0  0  0  0  0  0
   41.8900   71.2670   61.2710 C   0  0  0  0  0  0  0  0  0  0  0  0
   42.2450   70.2070   60.4340 C   0  0  0  0  0  0  0  0  0  0  0  0
   41.7140   70.1710   59.0870 C   0  0  0  0  0  0  0  0  0  0  0  0
   40.8870   71.1880   58.7040 N   0  0  0  0  0  0  0  0  0  0  0  0
   40.5820   72.2100   59.5950 C   0  0  0  0  0  0  0  0  0  0  0  0
   41.0840   72.2390   60.8590 N   0  0  0  0  0  0  0  0  0  0  0  0
   42.1840   71.3030   62.2830 H   0  0  0  0  0  0  0  0  0  0  0  0
   41.8440   69.4990   58.2920 H   0  0  0  0  0  0  0  0  0  0  0  0
   39.6690   73.2940   59.2150 C   0  0  0  0  0  0  0  0  0  0  0  0
   39.0850   73.3020   58.1200 O   0  0  0  0  0  0  0  0  0  0  0  0
   39.4050   74.4330   60.1240 C   0  0  0  0  0  0  0  0  0  0  0  0
   40.1130   75.5480   60.1250 N   0  0  0  0  0  0  0  0  0  0  0  0
   39.5730   76.3470   61.0900 C   0  0  0  0  0  0  0  0  0  0  0  0
   39.9760   77.3420   61.3010 H   0  0  0  0  0  0  0  0  0  0  0  0
   38.5320   75.7060   61.6710 N   0  0  0  0  0  0  0  0  0  0  0  0
   38.0180   76.1780   62.4210 H   0  0  0  0  0  0  0  0  0  0  0  0
   38.4300   74.5200   61.0720 N   0  0  0  0  0  0  0  0  0  0  0  0
  1 10  1  0  0  0  0
  2  3  1  0  0  0  0
  2  1  2  0  0  0  0
  3  4  2  0  0  0  0
  4 13  1  0  0  0  0
  4  5  1  0  0  0  0
  5  6  1  0  0  0  0
  6 14  1  0  0  0  0
  6  7  2  0  0  0  0
  7 15  1  0  0  0  0
  8  7  1  0  0  0  0
  8 16  1  0  0  0  0
  9 17  1  0  0  0  0
  9  8  2  0  0  0  0
 10  5  2  0  0  0  0
 10  9  1  0  0  0  0
 11  2  1  0  0  0  0
 12  3  1  0  0  0  0
 18 24  1  0  0  0  0
 19  1  1  0  0  0  0
 19 18  2  0  0  0  0
 20 19  1  0  0  0  0
 21 20  2  0  0  0  0
 21 22  1  0  0  0  0
 22 23  2  0  0  0  0
 23 18  1  0  0  0  0
 25 20  1  0  0  0  0
 26 22  1  0  0  0  0
 26 28  1  0  0  0  0
 27 26  2  0  0  0  0
 28 29  1  0  0  0  0
 28 34  2  0  0  0  0
 29 30  2  0  0  0  0
 30 31  1  0  0  0  0
 30 32  1  0  0  0  0
 32 33  1  0  0  0  0
 34 32  1  0  0  0  0
M  END
>  <minimizedAffinity>
-5.8479805

$$$$
