
 OpenBabel03212520593D

 40 44  0  0  1  0  0  0  0  0999 V2000
   39.7820   77.4080   59.1750 C   0  0  0  0  0  0  0  0  0  0  0  0
   40.4770   76.2740   58.8960 C   0  0  0  0  0  0  0  0  0  0  0  0
   39.9270   75.5720   57.8110 C   0  0  0  0  0  0  0  0  0  0  0  0
   38.8400   75.9670   57.1200 N   0  0  0  0  0  0  0  0  0  0  0  0
   38.2190   77.1260   57.4870 C   0  0  0  0  0  0  0  0  0  0  0  0
   38.6930   77.8550   58.5240 N   0  0  0  0  0  0  0  0  0  0  0  0
   41.3360   75.9150   59.4040 H   0  0  0  0  0  0  0  0  0  0  0  0
   40.3650   74.6400   57.4580 H   0  0  0  0  0  0  0  0  0  0  0  0
   40.9770   80.3400   61.7470 C   0  0  0  0  0  0  0  0  0  0  0  0
   40.9630   79.1050   62.3410 C   0  0  0  0  0  0  0  0  0  0  0  0
   40.5860   78.0460   61.5970 C   0  0  0  0  0  0  0  0  0  0  0  0
   40.2290   78.2450   60.2690 C   0  0  0  0  0  0  0  0  0  0  0  0
   40.4350   80.0590   60.0350 S   0  0  0  0  0  0  0  0  0  0  0  0
   41.2440   78.9500   63.3850 H   0  0  0  0  0  0  0  0  0  0  0  0
   40.5080   77.0030   61.8710 H   0  0  0  0  0  0  0  0  0  0  0  0
   43.0450   83.1460   62.9060 C   0  0  0  0  0  0  0  0  0  0  0  0
   42.1440   83.8980   63.6970 C   0  0  0  0  0  0  0  0  0  0  0  0
   40.8240   83.4410   63.8290 C   0  0  0  0  0  0  0  0  0  0  0  0
   40.4740   82.3030   63.1930 N   0  0  0  0  0  0  0  0  0  0  0  0
   41.3670   81.6000   62.4360 C   0  0  0  0  0  0  0  0  0  0  0  0
   42.6240   82.0280   62.3050 N   0  0  0  0  0  0  0  0  0  0  0  0
   44.0730   83.4550   62.7710 H   0  0  0  0  0  0  0  0  0  0  0  0
   42.4720   84.7950   64.1810 H   0  0  0  0  0  0  0  0  0  0  0  0
   40.0980   83.9800   64.4230 H   0  0  0  0  0  0  0  0  0  0  0  0
   37.0570   77.5340   56.7230 C   0  0  0  0  0  0  0  0  0  0  0  0
   35.9480   77.1330   57.1100 O   0  0  0  0  0  0  0  0  0  0  0  0
   37.1640   78.4040   55.4950 C   0  0  1  0  0  0  0  0  0  0  0  0
   37.3380   79.8650   55.8240 C   0  0  0  0  0  0  0  0  0  0  0  0
   38.4070   79.0860   55.2000 C   0  0  2  0  0  0  0  0  0  0  0  0
   36.2510   78.2610   54.8520 H   0  0  0  0  0  0  0  0  0  0  0  0
   37.4210   80.1730   56.8920 H   0  0  0  0  0  0  0  0  0  0  0  0
   36.7960   80.5940   55.2040 H   0  0  0  0  0  0  0  0  0  0  0  0
   39.3010   78.7590   55.8020 H   0  0  0  0  0  0  0  0  0  0  0  0
   38.8150   79.4590   53.8240 C   0  0  0  0  0  0  0  0  0  0  0  0
   39.9180   80.1810   53.4920 N   0  0  0  0  0  0  0  0  0  0  0  0
   39.9900   80.3400   52.1540 C   0  0  0  0  0  0  0  0  0  0  0  0
   40.8390   80.9030   51.8020 H   0  0  0  0  0  0  0  0  0  0  0  0
   38.9190   79.7110   51.6490 N   0  0  0  0  0  0  0  0  0  0  0  0
   38.7850   79.7150   50.6150 H   0  0  0  0  0  0  0  0  0  0  0  0
   38.2230   79.1880   52.6630 N   0  0  0  0  0  0  0  0  0  0  0  0
  1 12  1  0  0  0  0
  2  1  1  0  0  0  0
  2  7  1  0  0  0  0
  3  2  2  0  0  0  0
  4  5  2  0  0  0  0
  4  3  1  0  0  0  0
  5  6  1  0  0  0  0
  6  1  2  0  0  0  0
  8  3  1  0  0  0  0
  9 10  2  0  0  0  0
  9 20  1  0  0  0  0
 10 14  1  0  0  0  0
 11 15  1  0  0  0  0
 11 10  1  0  0  0  0
 12 11  2  0  0  0  0
 13 12  1  0  0  0  0
 13  9  1  0  0  0  0
 16 17  1  0  0  0  0
 17 18  2  0  0  0  0
 17 23  1  0  0  0  0
 18 24  1  0  0  0  0
 19 18  1  0  0  0  0
 20 19  2  0  0  0  0
 21 20  1  0  0  0  0
 21 16  2  0  0  0  0
 22 16  1  0  0  0  0
 25 26  2  0  0  0  0
 25  5  1  0  0  0  0
 27 30  1  6  0  0  0
 27 28  1  0  0  0  0
 27 25  1  0  0  0  0
 28 31  1  0  0  0  0
 29 27  1  0  0  0  0
 29 33  1  1  0  0  0
 29 28  1  0  0  0  0
 32 28  1  0  0  0  0
 34 29  1  0  0  0  0
 35 34  1  0  0  0  0
 36 35  2  0  0  0  0
 37 36  1  0  0  0  0
 38 36  1  0  0  0  0
 38 40  1  0  0  0  0
 39 38  1  0  0  0  0
 40 34  2  0  0  0  0
M  END
>  <minimizedAffinity>
-6.35024452

>  <minimizedRMSD>
0.209449649

$$$$
