
 OpenBabel03212520313D

 39 42  0  0  0  0  0  0  0  0999 V2000
   42.0260   82.1470   62.0340 C   0  0  0  0  0  0  0  0  0  0  0  0
   42.5460   81.1470   61.2220 C   0  0  0  0  0  0  0  0  0  0  0  0
   43.8790   80.7950   61.2860 C   0  0  0  0  0  0  0  0  0  0  0  0
   44.7780   81.4110   62.1600 C   0  0  0  0  0  0  0  0  0  0  0  0
   44.2900   82.4060   62.9780 C   0  0  0  0  0  0  0  0  0  0  0  0
   42.9520   82.7550   62.9090 C   0  0  0  0  0  0  0  0  0  0  0  0
   44.2460   80.0060   60.6320 H   0  0  0  0  0  0  0  0  0  0  0  0
   45.7970   81.0610   62.1300 H   0  0  0  0  0  0  0  0  0  0  0  0
   44.9590   82.8880   63.6510 H   0  0  0  0  0  0  0  0  0  0  0  0
   42.6170   83.5380   63.5670 H   0  0  0  0  0  0  0  0  0  0  0  0
   40.1840   78.7240   59.7380 C   0  0  0  0  0  0  0  0  0  0  0  0
   40.1180   79.1380   58.4230 C   0  0  0  0  0  0  0  0  0  0  0  0
   40.8940   80.2460   58.0780 C   0  0  0  0  0  0  0  0  0  0  0  0
   41.6520   80.8380   59.0400 N   0  0  0  0  0  0  0  0  0  0  0  0
   41.6940   80.4190   60.2900 C   0  0  0  0  0  0  0  0  0  0  0  0
   40.9570   79.3650   60.6220 N   0  0  0  0  0  0  0  0  0  0  0  0
   39.5760   77.8600   59.9970 H   0  0  0  0  0  0  0  0  0  0  0  0
   40.8950   80.6260   57.0700 H   0  0  0  0  0  0  0  0  0  0  0  0
   39.3050   78.4730   57.4710 N   0  0  0  0  0  0  0  0  0  0  0  0
   38.2220   79.1810   57.1150 C   0  0  0  0  0  0  0  0  0  0  0  0
   37.3450   78.6160   56.1840 C   0  0  0  0  0  0  0  0  0  0  0  0
   37.6270   77.3470   55.6670 C   0  0  0  0  0  0  0  0  0  0  0  0
   36.9180   76.7380   54.8290 O   0  0  0  0  0  0  0  0  0  0  0  0
   38.7590   76.6930   56.0870 N   0  0  0  0  0  0  0  0  0  0  0  0
   39.6060   77.2500   56.9910 C   0  0  0  0  0  0  0  0  0  0  0  0
   40.6340   76.6700   57.3810 O   0  0  0  0  0  0  0  0  0  0  0  0
   37.9710   80.1540   57.4890 H   0  0  0  0  0  0  0  0  0  0  0  0
   36.4590   79.1030   55.8410 H   0  0  0  0  0  0  0  0  0  0  0  0
   39.0320   75.7480   55.7450 H   0  0  0  0  0  0  0  0  0  0  0  0
   40.3710   82.6180   61.9700 S   0  0  0  0  0  0  0  0  0  0  0  0
   39.9360   83.1580   63.3170 O   0  0  0  0  0  0  0  0  0  0  0  0
   39.5530   81.3180   61.8610 O   0  0  0  0  0  0  0  0  0  0  0  0
   39.8850   83.7600   60.7820 C   0  0  0  0  0  0  0  0  0  0  0  0
   39.3900   84.9950   60.6190 N   0  0  0  0  0  0  0  0  0  0  0  0
   39.2230   85.2330   59.3330 C   0  0  0  0  0  0  0  0  0  0  0  0
   38.8190   86.2180   59.0590 H   0  0  0  0  0  0  0  0  0  0  0  0
   39.5950   84.1820   58.6170 N   0  0  0  0  0  0  0  0  0  0  0  0
   39.5430   84.1660   57.5790 H   0  0  0  0  0  0  0  0  0  0  0  0
   39.9950   83.2960   59.5010 N   0  0  0  0  0  0  0  0  0  0  0  0
  1  6  1  0  0  0  0
  2  3  1  0  0  0  0
  2  1  2  0  0  0  0
  3  4  2  0  0  0  0
  4  5  1  0  0  0  0
  5  9  1  0  0  0  0
  6  5  2  0  0  0  0
  6 10  1  0  0  0  0
  7  3  1  0  0  0  0
  8  4  1  0  0  0  0
 11 17  1  0  0  0  0
 11 16  1  0  0  0  0
 12 11  2  0  0  0  0
 13 12  1  0  0  0  0
 13 14  2  0  0  0  0
 14 15  1  0  0  0  0
 15 16  2  0  0  0  0
 15  2  1  0  0  0  0
 18 13  1  0  0  0  0
 19 12  1  0  0  0  0
 20 19  1  0  0  0  0
 20 27  1  0  0  0  0
 21 20  2  0  0  0  0
 22 24  1  0  0  0  0
 22 21  1  0  0  0  0
 23 22  2  0  0  0  0
 24 25  1  0  0  0  0
 25 26  2  0  0  0  0
 25 19  1  0  0  0  0
 28 21  1  0  0  0  0
 29 24  1  0  0  0  0
 30  1  1  0  0  0  0
 30 31  2  0  0  0  0
 32 30  2  0  0  0  0
 33 30  1  0  0  0  0
 34 33  1  0  0  0  0
 35 34  2  0  0  0  0
 36 35  1  0  0  0  0
 37 35  1  0  0  0  0
 37 39  1  0  0  0  0
 38 37  1  0  0  0  0
 39 33  2  0  0  0  0
M  END
>  <minimizedAffinity>
-6.40510654

>  <minimizedRMSD>
1.85518253

$$$$
