
 OpenBabel03212520593D

 40 44  0  0  1  0  0  0  0  0999 V2000
   39.7630   77.3450   59.2190 C   0  0  0  0  0  0  0  0  0  0  0  0
   40.4200   76.1770   58.9870 C   0  0  0  0  0  0  0  0  0  0  0  0
   39.8700   75.4690   57.9060 C   0  0  0  0  0  0  0  0  0  0  0  0
   38.8160   75.8860   57.1790 N   0  0  0  0  0  0  0  0  0  0  0  0
   38.2320   77.0770   57.5000 C   0  0  0  0  0  0  0  0  0  0  0  0
   38.7080   77.8150   58.5300 N   0  0  0  0  0  0  0  0  0  0  0  0
   41.2530   75.7990   59.5250 H   0  0  0  0  0  0  0  0  0  0  0  0
   40.2800   74.5120   57.5880 H   0  0  0  0  0  0  0  0  0  0  0  0
   40.9740   80.3020   61.7540 C   0  0  0  0  0  0  0  0  0  0  0  0
   40.9590   79.0740   62.3630 C   0  0  0  0  0  0  0  0  0  0  0  0
   40.5760   78.0070   61.6320 C   0  0  0  0  0  0  0  0  0  0  0  0
   40.2160   78.1920   60.3030 C   0  0  0  0  0  0  0  0  0  0  0  0
   40.4280   80.0030   60.0470 S   0  0  0  0  0  0  0  0  0  0  0  0
   41.2420   78.9300   63.4070 H   0  0  0  0  0  0  0  0  0  0  0  0
   40.4960   76.9680   61.9180 H   0  0  0  0  0  0  0  0  0  0  0  0
   43.0540   83.1150   62.8720 C   0  0  0  0  0  0  0  0  0  0  0  0
   42.1580   83.8780   63.6600 C   0  0  0  0  0  0  0  0  0  0  0  0
   40.8390   83.4260   63.8030 C   0  0  0  0  0  0  0  0  0  0  0  0
   40.4830   82.2820   63.1810 N   0  0  0  0  0  0  0  0  0  0  0  0
   41.3700   81.5680   62.4270 C   0  0  0  0  0  0  0  0  0  0  0  0
   42.6280   81.9930   62.2860 N   0  0  0  0  0  0  0  0  0  0  0  0
   44.0820   83.4210   62.7300 H   0  0  0  0  0  0  0  0  0  0  0  0
   42.4900   84.7790   64.1330 H   0  0  0  0  0  0  0  0  0  0  0  0
   40.1160   83.9730   64.3950 H   0  0  0  0  0  0  0  0  0  0  0  0
   37.1060   77.5090   56.6970 C   0  0  0  0  0  0  0  0  0  0  0  0
   35.9860   77.0620   56.9940 O   0  0  0  0  0  0  0  0  0  0  0  0
   37.2610   78.4570   55.5330 C   0  0  1  0  0  0  0  0  0  0  0  0
   37.2960   79.9040   55.9560 C   0  0  0  0  0  0  0  0  0  0  0  0
   38.4720   79.2380   55.3960 C   0  0  2  0  0  0  0  0  0  0  0  0
   36.4230   78.2920   54.7990 H   0  0  0  0  0  0  0  0  0  0  0  0
   37.2590   80.1510   57.0420 H   0  0  0  0  0  0  0  0  0  0  0  0
   36.7620   80.6310   55.3270 H   0  0  0  0  0  0  0  0  0  0  0  0
   39.3280   78.9360   56.0620 H   0  0  0  0  0  0  0  0  0  0  0  0
   38.9760   79.7210   54.0870 C   0  0  0  0  0  0  0  0  0  0  0  0
   38.3880   79.4980   52.8810 N   0  0  0  0  0  0  0  0  0  0  0  0
   39.1060   80.0770   51.8950 C   0  0  0  0  0  0  0  0  0  0  0  0
   38.7100   79.9490   50.9020 H   0  0  0  0  0  0  0  0  0  0  0  0
   40.1500   80.6660   52.4960 N   0  0  0  0  0  0  0  0  0  0  0  0
   40.8390   81.1770   51.9030 H   0  0  0  0  0  0  0  0  0  0  0  0
   40.0590   80.4430   53.8100 N   0  0  0  0  0  0  0  0  0  0  0  0
  1 12  1  0  0  0  0
  2  1  1  0  0  0  0
  2  7  1  0  0  0  0
  3  2  2  0  0  0  0
  4  5  2  0  0  0  0
  4  3  1  0  0  0  0
  5  6  1  0  0  0  0
  6  1  2  0  0  0  0
  8  3  1  0  0  0  0
  9 10  2  0  0  0  0
  9 20  1  0  0  0  0
 10 14  1  0  0  0  0
 11 15  1  0  0  0  0
 11 10  1  0  0  0  0
 12 11  2  0  0  0  0
 13 12  1  0  0  0  0
 13  9  1  0  0  0  0
 16 17  1  0  0  0  0
 17 18  2  0  0  0  0
 17 23  1  0  0  0  0
 18 24  1  0  0  0  0
 19 18  1  0  0  0  0
 20 19  2  0  0  0  0
 21 20  1  0  0  0  0
 21 16  2  0  0  0  0
 22 16  1  0  0  0  0
 25 26  2  0  0  0  0
 25  5  1  0  0  0  0
 27 30  1  6  0  0  0
 27 28  1  0  0  0  0
 27 25  1  0  0  0  0
 28 31  1  0  0  0  0
 29 27  1  0  0  0  0
 29 28  1  0  0  0  0
 29 33  1  1  0  0  0
 32 28  1  0  0  0  0
 34 29  1  0  0  0  0
 35 34  1  0  0  0  0
 36 38  1  0  0  0  0
 36 35  2  0  0  0  0
 37 36  1  0  0  0  0
 38 40  1  0  0  0  0
 39 38  1  0  0  0  0
 40 34  2  0  0  0  0
M  END
>  <minimizedAffinity>
-6.5583992

>  <minimizedRMSD>
0.0968809351

$$$$
