
 OpenBabel03212520333D

 39 42  0  0  0  0  0  0  0  0999 V2000
   38.1700   75.1460   54.9710 C   0  0  0  0  0  0  0  0  0  0  0  0
   39.0790   74.0980   55.0590 C   0  0  0  0  0  0  0  0  0  0  0  0
   39.6350   73.5370   53.9280 C   0  0  0  0  0  0  0  0  0  0  0  0
   39.3260   73.9790   52.6400 C   0  0  0  0  0  0  0  0  0  0  0  0
   38.4280   75.0170   52.5220 C   0  0  0  0  0  0  0  0  0  0  0  0
   37.8740   75.5760   53.6600 C   0  0  0  0  0  0  0  0  0  0  0  0
   40.3420   72.7170   54.0410 H   0  0  0  0  0  0  0  0  0  0  0  0
   39.8160   73.4720   51.8240 H   0  0  0  0  0  0  0  0  0  0  0  0
   38.1800   75.3690   51.5480 H   0  0  0  0  0  0  0  0  0  0  0  0
   37.1770   76.3850   53.5180 H   0  0  0  0  0  0  0  0  0  0  0  0
   39.2160   72.2150   58.2360 C   0  0  0  0  0  0  0  0  0  0  0  0
   40.3970   72.6590   58.7950 C   0  0  0  0  0  0  0  0  0  0  0  0
   41.1210   73.6000   58.0610 C   0  0  0  0  0  0  0  0  0  0  0  0
   40.6260   74.0150   56.8630 N   0  0  0  0  0  0  0  0  0  0  0  0
   39.4930   73.5720   56.3540 C   0  0  0  0  0  0  0  0  0  0  0  0
   38.8020   72.6770   57.0500 N   0  0  0  0  0  0  0  0  0  0  0  0
   38.6600   71.4830   58.8150 H   0  0  0  0  0  0  0  0  0  0  0  0
   42.0510   73.9930   58.4330 H   0  0  0  0  0  0  0  0  0  0  0  0
   40.8540   72.1820   60.0500 N   0  0  0  0  0  0  0  0  0  0  0  0
   41.6740   71.1250   59.9470 C   0  0  0  0  0  0  0  0  0  0  0  0
   42.1790   70.5680   61.1260 C   0  0  0  0  0  0  0  0  0  0  0  0
   41.8130   71.1300   62.3540 C   0  0  0  0  0  0  0  0  0  0  0  0
   42.2010   70.7200   63.4760 O   0  0  0  0  0  0  0  0  0  0  0  0
   40.9690   72.2120   62.3660 N   0  0  0  0  0  0  0  0  0  0  0  0
   40.4830   72.7470   61.2160 C   0  0  0  0  0  0  0  0  0  0  0  0
   39.7180   73.7270   61.2120 O   0  0  0  0  0  0  0  0  0  0  0  0
   41.9760   70.6660   59.0250 H   0  0  0  0  0  0  0  0  0  0  0  0
   42.8360   69.7270   61.1430 H   0  0  0  0  0  0  0  0  0  0  0  0
   40.6550   72.6810   63.2420 H   0  0  0  0  0  0  0  0  0  0  0  0
   37.4490   75.8600   56.3620 S   0  0  0  0  0  0  0  0  0  0  0  0
   36.4670   74.8940   56.9880 O   0  0  0  0  0  0  0  0  0  0  0  0
   36.5240   76.9780   55.8460 O   0  0  0  0  0  0  0  0  0  0  0  0
   38.4730   76.4320   57.6180 C   0  0  0  0  0  0  0  0  0  0  0  0
   39.4350   77.3230   57.8970 N   0  0  0  0  0  0  0  0  0  0  0  0
   39.8180   77.1750   59.1500 C   0  0  0  0  0  0  0  0  0  0  0  0
   40.6080   77.8490   59.5100 H   0  0  0  0  0  0  0  0  0  0  0  0
   39.1330   76.2000   59.7300 N   0  0  0  0  0  0  0  0  0  0  0  0
   39.2840   75.9230   60.7210 H   0  0  0  0  0  0  0  0  0  0  0  0
   38.3220   75.7570   58.7970 N   0  0  0  0  0  0  0  0  0  0  0  0
  1  2  1  0  0  0  0
  1 30  1  0  0  0  0
  2 15  1  0  0  0  0
  3  7  1  0  0  0  0
  3  2  2  0  0  0  0
  4  3  1  0  0  0  0
  5  4  2  0  0  0  0
  5  6  1  0  0  0  0
  6  1  2  0  0  0  0
  8  4  1  0  0  0  0
  9  5  1  0  0  0  0
 10  6  1  0  0  0  0
 11 12  1  0  0  0  0
 11 17  1  0  0  0  0
 12 19  1  0  0  0  0
 13 18  1  0  0  0  0
 13 12  2  0  0  0  0
 14 13  1  0  0  0  0
 15 14  2  0  0  0  0
 15 16  1  0  0  0  0
 16 11  2  0  0  0  0
 19 25  1  0  0  0  0
 20 19  1  0  0  0  0
 20 21  2  0  0  0  0
 21 28  1  0  0  0  0
 21 22  1  0  0  0  0
 22 24  1  0  0  0  0
 22 23  2  0  0  0  0
 24 29  1  0  0  0  0
 25 24  1  0  0  0  0
 26 25  2  0  0  0  0
 27 20  1  0  0  0  0
 30 31  2  0  0  0  0
 30 33  1  0  0  0  0
 32 30  2  0  0  0  0
 33 34  1  0  0  0  0
 33 39  2  0  0  0  0
 34 35  2  0  0  0  0
 35 36  1  0  0  0  0
 35 37  1  0  0  0  0
 37 38  1  0  0  0  0
 39 37  1  0  0  0  0
M  END
>  <minimizedAffinity>
-6.5457902

$$$$

 OpenBabel03212520333D

 39 42  0  0  0  0  0  0  0  0999 V2000
   41.6980   71.3140   60.3180 C   0  0  0  0  0  0  0  0  0  0  0  0
   41.1930   71.0430   59.0520 C   0  0  0  0  0  0  0  0  0  0  0  0
   41.2930   69.7840   58.4960 C   0  0  0  0  0  0  0  0  0  0  0  0
   41.8970   68.7150   59.1610 C   0  0  0  0  0  0  0  0  0  0  0  0
   42.4060   68.9540   60.4190 C   0  0  0  0  0  0  0  0  0  0  0  0
   42.3030   70.2190   60.9700 C   0  0  0  0  0  0  0  0  0  0  0  0
   40.8850   69.6150   57.5010 H   0  0  0  0  0  0  0  0  0  0  0  0
   41.9220   67.7730   58.6380 H   0  0  0  0  0  0  0  0  0  0  0  0
   42.8700   68.1510   60.9430 H   0  0  0  0  0  0  0  0  0  0  0  0
   42.7160   70.3580   61.9560 H   0  0  0  0  0  0  0  0  0  0  0  0
   40.4960   73.9820   56.9210 C   0  0  0  0  0  0  0  0  0  0  0  0
   39.1180   73.9720   56.8420 C   0  0  0  0  0  0  0  0  0  0  0  0
   38.4600   72.9500   57.5290 C   0  0  0  0  0  0  0  0  0  0  0  0
   39.2020   72.0440   58.2200 N   0  0  0  0  0  0  0  0  0  0  0  0
   40.5200   72.0780   58.2770 C   0  0  0  0  0  0  0  0  0  0  0  0
   41.1490   73.0500   57.6250 N   0  0  0  0  0  0  0  0  0  0  0  0
   40.9990   74.7810   56.3840 H   0  0  0  0  0  0  0  0  0  0  0  0
   37.3860   72.8790   57.5140 H   0  0  0  0  0  0  0  0  0  0  0  0
   38.4070   74.9500   56.1020 N   0  0  0  0  0  0  0  0  0  0  0  0
   38.3390   74.6730   54.7900 C   0  0  0  0  0  0  0  0  0  0  0  0
   37.6650   75.5760   53.9630 C   0  0  0  0  0  0  0  0  0  0  0  0
   37.0940   76.7220   54.5280 C   0  0  0  0  0  0  0  0  0  0  0  0
   36.4670   77.6020   53.8900 O   0  0  0  0  0  0  0  0  0  0  0  0
   37.2120   76.9260   55.8810 N   0  0  0  0  0  0  0  0  0  0  0  0
   37.8690   76.0430   56.6780 C   0  0  0  0  0  0  0  0  0  0  0  0
   37.9830   76.2150   57.9030 O   0  0  0  0  0  0  0  0  0  0  0  0
   38.7630   73.8070   54.3200 H   0  0  0  0  0  0  0  0  0  0  0  0
   37.5590   75.4400   52.9090 H   0  0  0  0  0  0  0  0  0  0  0  0
   36.8140   77.7550   56.3690 H   0  0  0  0  0  0  0  0  0  0  0  0
   41.6010   72.8770   61.0340 S   0  0  0  0  0  0  0  0  0  0  0  0
   42.5950   73.8090   60.3760 O   0  0  0  0  0  0  0  0  0  0  0  0
   42.1750   72.7390   62.4560 O   0  0  0  0  0  0  0  0  0  0  0  0
   40.0830   73.6810   61.0530 C   0  0  0  0  0  0  0  0  0  0  0  0
   38.7850   73.5190   61.3520 N   0  0  0  0  0  0  0  0  0  0  0  0
   38.1290   74.6270   61.0670 C   0  0  0  0  0  0  0  0  0  0  0  0
   37.0490   74.6290   61.2670 H   0  0  0  0  0  0  0  0  0  0  0  0
   38.9570   75.5410   60.5790 N   0  0  0  0  0  0  0  0  0  0  0  0
   38.6370   76.4880   60.2910 H   0  0  0  0  0  0  0  0  0  0  0  0
   40.1350   74.9600   60.5750 N   0  0  0  0  0  0  0  0  0  0  0  0
  1  6  1  0  0  0  0
  1 30  1  0  0  0  0
  2  1  2  0  0  0  0
  3  2  1  0  0  0  0
  3  4  2  0  0  0  0
  4  5  1  0  0  0  0
  5  9  1  0  0  0  0
  5  6  2  0  0  0  0
  6 10  1  0  0  0  0
  7  3  1  0  0  0  0
  8  4  1  0  0  0  0
 11 16  1  0  0  0  0
 12 11  2  0  0  0  0
 12 13  1  0  0  0  0
 13 14  2  0  0  0  0
 14 15  1  0  0  0  0
 15  2  1  0  0  0  0
 16 15  2  0  0  0  0
 17 11  1  0  0  0  0
 18 13  1  0  0  0  0
 19 25  1  0  0  0  0
 19 12  1  0  0  0  0
 20 19  1  0  0  0  0
 21 22  1  0  0  0  0
 21 20  2  0  0  0  0
 22 24  1  0  0  0  0
 23 22  2  0  0  0  0
 24 29  1  0  0  0  0
 24 25  1  0  0  0  0
 25 26  2  0  0  0  0
 27 20  1  0  0  0  0
 28 21  1  0  0  0  0
 30 33  1  0  0  0  0
 30 32  2  0  0  0  0
 31 30  2  0  0  0  0
 33 34  1  0  0  0  0
 35 36  1  0  0  0  0
 35 34  2  0  0  0  0
 37 35  1  0  0  0  0
 38 37  1  0  0  0  0
 39 37  1  0  0  0  0
 39 33  2  0  0  0  0
M  END
>  <minimizedAffinity>
-6.31537628

$$$$

 OpenBabel03212520333D

 39 42  0  0  0  0  0  0  0  0999 V2000
   41.9320   71.1480   60.6440 C   0  0  0  0  0  0  0  0  0  0  0  0
   41.4010   70.8520   59.3950 C   0  0  0  0  0  0  0  0  0  0  0  0
   41.4050   69.5630   58.9030 C   0  0  0  0  0  0  0  0  0  0  0  0
   41.9340   68.4870   59.6190 C   0  0  0  0  0  0  0  0  0  0  0  0
   42.4670   68.7500   60.8620 C   0  0  0  0  0  0  0  0  0  0  0  0
   42.4610   70.0450   61.3490 C   0  0  0  0  0  0  0  0  0  0  0  0
   40.9790   69.3750   57.9190 H   0  0  0  0  0  0  0  0  0  0  0  0
   41.8870   67.5200   59.1430 H   0  0  0  0  0  0  0  0  0  0  0  0
   42.8750   67.9430   61.4230 H   0  0  0  0  0  0  0  0  0  0  0  0
   42.8880   70.2020   62.3250 H   0  0  0  0  0  0  0  0  0  0  0  0
   40.9040   73.7650   57.1760 C   0  0  0  0  0  0  0  0  0  0  0  0
   39.5310   73.8060   57.0400 C   0  0  0  0  0  0  0  0  0  0  0  0
   38.8070   72.8250   57.7200 C   0  0  0  0  0  0  0  0  0  0  0  0
   39.4860   71.9080   58.4600 N   0  0  0  0  0  0  0  0  0  0  0  0
   40.8000   71.8940   58.5710 C   0  0  0  0  0  0  0  0  0  0  0  0
   41.4920   72.8260   57.9260 N   0  0  0  0  0  0  0  0  0  0  0  0
   41.4590   74.5330   56.6430 H   0  0  0  0  0  0  0  0  0  0  0  0
   37.7320   72.7940   57.6620 H   0  0  0  0  0  0  0  0  0  0  0  0
   38.8890   74.7930   56.2500 N   0  0  0  0  0  0  0  0  0  0  0  0
   38.4910   75.8610   56.9600 C   0  0  0  0  0  0  0  0  0  0  0  0
   37.8390   76.8950   56.2800 C   0  0  0  0  0  0  0  0  0  0  0  0
   37.6300   76.7760   54.9020 C   0  0  0  0  0  0  0  0  0  0  0  0
   37.0580   77.6350   54.1860 O   0  0  0  0  0  0  0  0  0  0  0  0
   38.0700   75.6480   54.2560 N   0  0  0  0  0  0  0  0  0  0  0  0
   38.7030   74.6490   54.9240 C   0  0  0  0  0  0  0  0  0  0  0  0
   39.1070   73.6220   54.3520 O   0  0  0  0  0  0  0  0  0  0  0  0
   38.6330   75.9880   58.0150 H   0  0  0  0  0  0  0  0  0  0  0  0
   37.4880   77.7810   56.7600 H   0  0  0  0  0  0  0  0  0  0  0  0
   37.9480   75.4930   53.2340 H   0  0  0  0  0  0  0  0  0  0  0  0
   41.9540   72.7470   61.2820 S   0  0  0  0  0  0  0  0  0  0  0  0
   43.1620   73.4950   60.7590 O   0  0  0  0  0  0  0  0  0  0  0  0
   42.2780   72.6130   62.7810 O   0  0  0  0  0  0  0  0  0  0  0  0
   40.5830   73.7520   61.0310 C   0  0  0  0  0  0  0  0  0  0  0  0
   40.1970   74.9380   60.5370 N   0  0  0  0  0  0  0  0  0  0  0  0
   38.8990   75.0840   60.7160 C   0  0  0  0  0  0  0  0  0  0  0  0
   38.4510   76.0200   60.3540 H   0  0  0  0  0  0  0  0  0  0  0  0
   38.3940   74.0180   61.3210 N   0  0  0  0  0  0  0  0  0  0  0  0
   37.3830   73.9340   61.5540 H   0  0  0  0  0  0  0  0  0  0  0  0
   39.4190   73.2180   61.5060 N   0  0  0  0  0  0  0  0  0  0  0  0
  1 30  1  0  0  0  0
  1  6  1  0  0  0  0
  2  1  2  0  0  0  0
  3  2  1  0  0  0  0
  3  4  2  0  0  0  0
  4  5  1  0  0  0  0
  5  6  2  0  0  0  0
  5  9  1  0  0  0  0
  6 10  1  0  0  0  0
  7  3  1  0  0  0  0
  8  4  1  0  0  0  0
 11 16  1  0  0  0  0
 12 11  2  0  0  0  0
 12 13  1  0  0  0  0
 13 14  2  0  0  0  0
 14 15  1  0  0  0  0
 15  2  1  0  0  0  0
 16 15  2  0  0  0  0
 17 11  1  0  0  0  0
 18 13  1  0  0  0  0
 19 20  1  0  0  0  0
 19 12  1  0  0  0  0
 20 27  1  0  0  0  0
 21 28  1  0  0  0  0
 21 20  2  0  0  0  0
 22 21  1  0  0  0  0
 23 22  2  0  0  0  0
 24 22  1  0  0  0  0
 24 25  1  0  0  0  0
 25 19  1  0  0  0  0
 26 25  2  0  0  0  0
 29 24  1  0  0  0  0
 30 32  2  0  0  0  0
 31 30  2  0  0  0  0
 33 30  1  0  0  0  0
 33 39  2  0  0  0  0
 34 35  2  0  0  0  0
 34 33  1  0  0  0  0
 35 37  1  0  0  0  0
 36 35  1  0  0  0  0
 37 39  1  0  0  0  0
 37 38  1  0  0  0  0
M  END
>  <minimizedAffinity>
-6.12501383

$$$$

 OpenBabel03212520333D

 39 42  0  0  0  0  0  0  0  0999 V2000
   40.3530   73.7560   60.5670 C   0  0  0  0  0  0  0  0  0  0  0  0
   40.9620   73.0590   59.5300 C   0  0  0  0  0  0  0  0  0  0  0  0
   41.9910   72.1730   59.7720 C   0  0  0  0  0  0  0  0  0  0  0  0
   42.4810   71.9210   61.0560 C   0  0  0  0  0  0  0  0  0  0  0  0
   41.8960   72.5970   62.1040 C   0  0  0  0  0  0  0  0  0  0  0  0
   40.8640   73.4850   61.8550 C   0  0  0  0  0  0  0  0  0  0  0  0
   42.4420   71.6480   58.9310 H   0  0  0  0  0  0  0  0  0  0  0  0
   43.2880   71.2100   61.1350 H   0  0  0  0  0  0  0  0  0  0  0  0
   42.2540   72.4180   63.0910 H   0  0  0  0  0  0  0  0  0  0  0  0
   40.4370   73.9900   62.7050 H   0  0  0  0  0  0  0  0  0  0  0  0
   39.0850   72.7840   56.3590 C   0  0  0  0  0  0  0  0  0  0  0  0
   39.7790   73.6380   55.5260 C   0  0  0  0  0  0  0  0  0  0  0  0
   40.8820   74.2900   56.0800 C   0  0  0  0  0  0  0  0  0  0  0  0
   41.1990   74.0480   57.3810 N   0  0  0  0  0  0  0  0  0  0  0  0
   40.5160   73.2260   58.1530 C   0  0  0  0  0  0  0  0  0  0  0  0
   39.4660   72.6030   57.6290 N   0  0  0  0  0  0  0  0  0  0  0  0
   38.2280   72.2800   55.9200 H   0  0  0  0  0  0  0  0  0  0  0  0
   41.4720   74.9710   55.4910 H   0  0  0  0  0  0  0  0  0  0  0  0
   39.3910   73.8430   54.1790 N   0  0  0  0  0  0  0  0  0  0  0  0
   40.1090   73.1180   53.3060 C   0  0  0  0  0  0  0  0  0  0  0  0
   39.8140   73.2480   51.9450 C   0  0  0  0  0  0  0  0  0  0  0  0
   38.7930   74.1200   51.5510 C   0  0  0  0  0  0  0  0  0  0  0  0
   38.4390   74.3200   50.3630 O   0  0  0  0  0  0  0  0  0  0  0  0
   38.1090   74.8220   52.5110 N   0  0  0  0  0  0  0  0  0  0  0  0
   38.4020   74.6890   53.8320 C   0  0  0  0  0  0  0  0  0  0  0  0
   37.7910   75.3190   54.7120 O   0  0  0  0  0  0  0  0  0  0  0  0
   40.8980   72.4410   53.5690 H   0  0  0  0  0  0  0  0  0  0  0  0
   40.3310   72.7130   51.1790 H   0  0  0  0  0  0  0  0  0  0  0  0
   37.3390   75.4870   52.2910 H   0  0  0  0  0  0  0  0  0  0  0  0
   39.0750   74.8780   60.2980 S   0  0  0  0  0  0  0  0  0  0  0  0
   38.7410   75.5980   61.5880 O   0  0  0  0  0  0  0  0  0  0  0  0
   37.8060   74.0400   60.0550 O   0  0  0  0  0  0  0  0  0  0  0  0
   39.2720   76.0750   59.0820 C   0  0  0  0  0  0  0  0  0  0  0  0
   40.0240   77.1250   58.7210 N   0  0  0  0  0  0  0  0  0  0  0  0
   39.5540   77.6340   57.5990 C   0  0  0  0  0  0  0  0  0  0  0  0
   40.0830   78.5060   57.1900 H   0  0  0  0  0  0  0  0  0  0  0  0
   38.4950   76.9490   57.1890 N   0  0  0  0  0  0  0  0  0  0  0  0
   37.9750   77.1900   56.3210 H   0  0  0  0  0  0  0  0  0  0  0  0
   38.3330   76.0080   58.0910 N   0  0  0  0  0  0  0  0  0  0  0  0
  1  6  1  0  0  0  0
  2  3  1  0  0  0  0
  2  1  2  0  0  0  0
  3  4  2  0  0  0  0
  4  8  1  0  0  0  0
  4  5  1  0  0  0  0
  5  9  1  0  0  0  0
  6  5  2  0  0  0  0
  6 10  1  0  0  0  0
  7  3  1  0  0  0  0
 11 16  1  0  0  0  0
 12 13  1  0  0  0  0
 12 11  2  0  0  0  0
 13 14  2  0  0  0  0
 14 15  1  0  0  0  0
 15  2  1  0  0  0  0
 16 15  2  0  0  0  0
 17 11  1  0  0  0  0
 18 13  1  0  0  0  0
 19 12  1  0  0  0  0
 20 27  1  0  0  0  0
 20 19  1  0  0  0  0
 21 20  2  0  0  0  0
 22 21  1  0  0  0  0
 22 24  1  0  0  0  0
 23 22  2  0  0  0  0
 24 25  1  0  0  0  0
 25 19  1  0  0  0  0
 25 26  2  0  0  0  0
 28 21  1  0  0  0  0
 29 24  1  0  0  0  0
 30  1  1  0  0  0  0
 30 31  2  0  0  0  0
 32 30  2  0  0  0  0
 33 30  1  0  0  0  0
 34 33  1  0  0  0  0
 35 34  2  0  0  0  0
 36 35  1  0  0  0  0
 37 35  1  0  0  0  0
 37 39  1  0  0  0  0
 38 37  1  0  0  0  0
 39 33  2  0  0  0  0
M  END
>  <minimizedAffinity>
-5.85122299

$$$$

 OpenBabel03212520333D

 39 42  0  0  0  0  0  0  0  0999 V2000
   38.9690   75.8330   55.0360 C   0  0  0  0  0  0  0  0  0  0  0  0
   40.1760   75.1460   55.0920 C   0  0  0  0  0  0  0  0  0  0  0  0
   41.0050   75.0670   53.9920 C   0  0  0  0  0  0  0  0  0  0  0  0
   40.6910   75.6640   52.7690 C   0  0  0  0  0  0  0  0  0  0  0  0
   39.5010   76.3530   52.6850 C   0  0  0  0  0  0  0  0  0  0  0  0
   38.6730   76.4280   53.7910 C   0  0  0  0  0  0  0  0  0  0  0  0
   41.9410   74.5180   54.0780 H   0  0  0  0  0  0  0  0  0  0  0  0
   41.4080   75.5420   51.9730 H   0  0  0  0  0  0  0  0  0  0  0  0
   39.2430   76.8160   51.7610 H   0  0  0  0  0  0  0  0  0  0  0  0
   37.7540   76.9770   53.6780 H   0  0  0  0  0  0  0  0  0  0  0  0
   41.9200   74.3870   58.2610 C   0  0  0  0  0  0  0  0  0  0  0  0
   41.3520   73.1860   58.6330 C   0  0  0  0  0  0  0  0  0  0  0  0
   40.3790   72.6630   57.7790 C   0  0  0  0  0  0  0  0  0  0  0  0
   40.0560   73.3570   56.6550 N   0  0  0  0  0  0  0  0  0  0  0  0
   40.6170   74.5050   56.3250 C   0  0  0  0  0  0  0  0  0  0  0  0
   41.5430   75.0050   57.1350 N   0  0  0  0  0  0  0  0  0  0  0  0
   42.6770   74.7860   58.9310 H   0  0  0  0  0  0  0  0  0  0  0  0
   39.8930   71.7290   58.0040 H   0  0  0  0  0  0  0  0  0  0  0  0
   41.7370   72.5160   59.8220 N   0  0  0  0  0  0  0  0  0  0  0  0
   40.8990   72.7360   60.8470 C   0  0  0  0  0  0  0  0  0  0  0  0
   41.1880   72.1290   62.0730 C   0  0  0  0  0  0  0  0  0  0  0  0
   42.3270   71.3230   62.1810 C   0  0  0  0  0  0  0  0  0  0  0  0
   42.6890   70.7270   63.2260 O   0  0  0  0  0  0  0  0  0  0  0  0
   43.1290   71.1530   61.0810 N   0  0  0  0  0  0  0  0  0  0  0  0
   42.8410   71.7470   59.8930 C   0  0  0  0  0  0  0  0  0  0  0  0
   43.5580   71.6000   58.8880 O   0  0  0  0  0  0  0  0  0  0  0  0
   40.0190   73.3470   60.8030 H   0  0  0  0  0  0  0  0  0  0  0  0
   40.5810   72.2460   62.9430 H   0  0  0  0  0  0  0  0  0  0  0  0
   43.9910   70.5680   61.0890 H   0  0  0  0  0  0  0  0  0  0  0  0
   37.9060   75.9400   56.3870 S   0  0  0  0  0  0  0  0  0  0  0  0
   37.1230   74.6530   56.5300 O   0  0  0  0  0  0  0  0  0  0  0  0
   36.8090   76.9480   55.9970 O   0  0  0  0  0  0  0  0  0  0  0  0
   38.5690   76.3090   57.9280 C   0  0  0  0  0  0  0  0  0  0  0  0
   39.3050   77.2120   58.5920 N   0  0  0  0  0  0  0  0  0  0  0  0
   39.4640   76.8150   59.8400 C   0  0  0  0  0  0  0  0  0  0  0  0
   40.0520   77.4690   60.4980 H   0  0  0  0  0  0  0  0  0  0  0  0
   38.8470   75.6570   60.0370 N   0  0  0  0  0  0  0  0  0  0  0  0
   38.8500   75.1720   60.9570 H   0  0  0  0  0  0  0  0  0  0  0  0
   38.3090   75.3600   58.8770 N   0  0  0  0  0  0  0  0  0  0  0  0
  1  2  1  0  0  0  0
  1 30  1  0  0  0  0
  2 15  1  0  0  0  0
  3  7  1  0  0  0  0
  3  2  2  0  0  0  0
  4  3  1  0  0  0  0
  5  4  2  0  0  0  0
  5  6  1  0  0  0  0
  6  1  2  0  0  0  0
  8  4  1  0  0  0  0
  9  5  1  0  0  0  0
 10  6  1  0  0  0  0
 11 12  1  0  0  0  0
 11 17  1  0  0  0  0
 12 19  1  0  0  0  0
 13 18  1  0  0  0  0
 13 12  2  0  0  0  0
 14 13  1  0  0  0  0
 15 14  2  0  0  0  0
 15 16  1  0  0  0  0
 16 11  2  0  0  0  0
 19 25  1  0  0  0  0
 19 20  1  0  0  0  0
 20 21  2  0  0  0  0
 21 22  1  0  0  0  0
 21 28  1  0  0  0  0
 22 23  2  0  0  0  0
 24 29  1  0  0  0  0
 24 22  1  0  0  0  0
 25 24  1  0  0  0  0
 26 25  2  0  0  0  0
 27 20  1  0  0  0  0
 30 31  2  0  0  0  0
 30 33  1  0  0  0  0
 32 30  2  0  0  0  0
 33 34  1  0  0  0  0
 33 39  2  0  0  0  0
 34 35  2  0  0  0  0
 35 37  1  0  0  0  0
 35 36  1  0  0  0  0
 37 38  1  0  0  0  0
 39 37  1  0  0  0  0
M  END
>  <minimizedAffinity>
-5.8309803

$$$$

 OpenBabel03212520333D

 39 42  0  0  0  0  0  0  0  0999 V2000
   40.3650   73.5240   60.5880 C   0  0  0  0  0  0  0  0  0  0  0  0
   40.8040   72.6460   59.6040 C   0  0  0  0  0  0  0  0  0  0  0  0
   41.5940   71.5590   59.9170 C   0  0  0  0  0  0  0  0  0  0  0  0
   41.9960   71.2730   61.2230 C   0  0  0  0  0  0  0  0  0  0  0  0
   41.5760   72.1250   62.2200 C   0  0  0  0  0  0  0  0  0  0  0  0
   40.7840   73.2150   61.9000 C   0  0  0  0  0  0  0  0  0  0  0  0
   41.9170   70.8960   59.1150 H   0  0  0  0  0  0  0  0  0  0  0  0
   42.6140   70.3990   61.3580 H   0  0  0  0  0  0  0  0  0  0  0  0
   41.8720   71.9240   63.2230 H   0  0  0  0  0  0  0  0  0  0  0  0
   40.4790   73.8530   62.7120 H   0  0  0  0  0  0  0  0  0  0  0  0
   38.9100   72.7350   56.4320 C   0  0  0  0  0  0  0  0  0  0  0  0
   39.8370   73.2440   55.5450 C   0  0  0  0  0  0  0  0  0  0  0  0
   41.0970   73.5440   56.0640 C   0  0  0  0  0  0  0  0  0  0  0  0
   41.3300   73.3210   57.3860 N   0  0  0  0  0  0  0  0  0  0  0  0
   40.4230   72.8340   58.2100 C   0  0  0  0  0  0  0  0  0  0  0  0
   39.2230   72.5460   57.7200 N   0  0  0  0  0  0  0  0  0  0  0  0
   37.9310   72.5040   56.0200 H   0  0  0  0  0  0  0  0  0  0  0  0
   41.8720   73.9440   55.4320 H   0  0  0  0  0  0  0  0  0  0  0  0
   39.5240   73.4510   54.1780 N   0  0  0  0  0  0  0  0  0  0  0  0
   39.0550   74.6830   53.9250 C   0  0  0  0  0  0  0  0  0  0  0  0
   38.7080   74.9950   52.6070 C   0  0  0  0  0  0  0  0  0  0  0  0
   38.8630   74.0210   51.6140 C   0  0  0  0  0  0  0  0  0  0  0  0
   38.5860   74.1820   50.4000 O   0  0  0  0  0  0  0  0  0  0  0  0
   39.3510   72.7860   51.9630 N   0  0  0  0  0  0  0  0  0  0  0  0
   39.6860   72.4920   53.2470 C   0  0  0  0  0  0  0  0  0  0  0  0
   40.1290   71.3780   53.5770 O   0  0  0  0  0  0  0  0  0  0  0  0
   38.9220   75.4550   54.6570 H   0  0  0  0  0  0  0  0  0  0  0  0
   38.3260   75.9460   52.3100 H   0  0  0  0  0  0  0  0  0  0  0  0
   39.4910   72.0140   51.2780 H   0  0  0  0  0  0  0  0  0  0  0  0
   39.3880   74.8960   60.2310 S   0  0  0  0  0  0  0  0  0  0  0  0
   39.2910   75.7910   61.4480 O   0  0  0  0  0  0  0  0  0  0  0  0
   37.9450   74.3780   60.0910 O   0  0  0  0  0  0  0  0  0  0  0  0
   39.8230   75.8910   58.8990 C   0  0  0  0  0  0  0  0  0  0  0  0
   39.3880   76.3540   57.7180 N   0  0  0  0  0  0  0  0  0  0  0  0
   40.3240   77.1050   57.1720 C   0  0  0  0  0  0  0  0  0  0  0  0
   40.0950   77.5500   56.1930 H   0  0  0  0  0  0  0  0  0  0  0  0
   41.3890   77.1620   57.9610 N   0  0  0  0  0  0  0  0  0  0  0  0
   42.2400   77.7050   57.7120 H   0  0  0  0  0  0  0  0  0  0  0  0
   41.0760   76.4260   59.0020 N   0  0  0  0  0  0  0  0  0  0  0  0
  1  6  1  0  0  0  0
  2  3  1  0  0  0  0
  2  1  2  0  0  0  0
  3  4  2  0  0  0  0
  4  8  1  0  0  0  0
  4  5  1  0  0  0  0
  5  9  1  0  0  0  0
  6  5  2  0  0  0  0
  6 10  1  0  0  0  0
  7  3  1  0  0  0  0
 11 16  1  0  0  0  0
 12 13  1  0  0  0  0
 12 11  2  0  0  0  0
 13 14  2  0  0  0  0
 14 15  1  0  0  0  0
 15  2  1  0  0  0  0
 16 15  2  0  0  0  0
 17 11  1  0  0  0  0
 18 13  1  0  0  0  0
 19 12  1  0  0  0  0
 20 19  1  0  0  0  0
 20 27  1  0  0  0  0
 21 20  2  0  0  0  0
 22 24  1  0  0  0  0
 22 21  1  0  0  0  0
 23 22  2  0  0  0  0
 24 25  1  0  0  0  0
 25 26  2  0  0  0  0
 25 19  1  0  0  0  0
 28 21  1  0  0  0  0
 29 24  1  0  0  0  0
 30  1  1  0  0  0  0
 30 31  2  0  0  0  0
 32 30  2  0  0  0  0
 33 39  2  0  0  0  0
 33 30  1  0  0  0  0
 34 33  1  0  0  0  0
 35 34  2  0  0  0  0
 35 37  1  0  0  0  0
 36 35  1  0  0  0  0
 37 39  1  0  0  0  0
 38 37  1  0  0  0  0
M  END
>  <minimizedAffinity>
-5.7680583

$$$$

 OpenBabel03212520333D

 39 42  0  0  0  0  0  0  0  0999 V2000
   39.0870   76.1210   57.7270 C   0  0  0  0  0  0  0  0  0  0  0  0
   40.0410   75.1500   58.0090 C   0  0  0  0  0  0  0  0  0  0  0  0
   40.9310   75.3030   59.0520 C   0  0  0  0  0  0  0  0  0  0  0  0
   40.9320   76.4280   59.8800 C   0  0  0  0  0  0  0  0  0  0  0  0
   39.9980   77.4070   59.6250 C   0  0  0  0  0  0  0  0  0  0  0  0
   39.1070   77.2480   58.5780 C   0  0  0  0  0  0  0  0  0  0  0  0
   41.6630   74.5190   59.2380 H   0  0  0  0  0  0  0  0  0  0  0  0
   41.6710   76.4490   60.6660 H   0  0  0  0  0  0  0  0  0  0  0  0
   39.9820   78.2720   60.2460 H   0  0  0  0  0  0  0  0  0  0  0  0
   38.3950   78.0390   58.4170 H   0  0  0  0  0  0  0  0  0  0  0  0
   39.3700   71.7950   56.6120 C   0  0  0  0  0  0  0  0  0  0  0  0
   40.3680   71.6600   55.6690 C   0  0  0  0  0  0  0  0  0  0  0  0
   41.2530   72.7320   55.5380 C   0  0  0  0  0  0  0  0  0  0  0  0
   41.0800   73.8230   56.3320 N   0  0  0  0  0  0  0  0  0  0  0  0
   40.1150   73.9240   57.2250 C   0  0  0  0  0  0  0  0  0  0  0  0
   39.2710   72.9050   57.3530 N   0  0  0  0  0  0  0  0  0  0  0  0
   38.6870   70.9550   56.7070 H   0  0  0  0  0  0  0  0  0  0  0  0
   42.0570   72.6980   54.8230 H   0  0  0  0  0  0  0  0  0  0  0  0
   40.4900   70.4920   54.8740 N   0  0  0  0  0  0  0  0  0  0  0  0
   41.0590   69.4660   55.5250 C   0  0  0  0  0  0  0  0  0  0  0  0
   41.2340   68.2640   54.8320 C   0  0  0  0  0  0  0  0  0  0  0  0
   40.8130   68.1800   53.5010 C   0  0  0  0  0  0  0  0  0  0  0  0
   40.9170   67.1580   52.7780 O   0  0  0  0  0  0  0  0  0  0  0  0
   40.2390   69.2790   52.9130 N   0  0  0  0  0  0  0  0  0  0  0  0
   40.0730   70.4430   53.5940 C   0  0  0  0  0  0  0  0  0  0  0  0
   39.5550   71.4460   53.0740 O   0  0  0  0  0  0  0  0  0  0  0  0
   41.3950   69.4930   56.5440 H   0  0  0  0  0  0  0  0  0  0  0  0
   41.6770   67.3960   55.2670 H   0  0  0  0  0  0  0  0  0  0  0  0
   39.9030   69.2880   51.9270 H   0  0  0  0  0  0  0  0  0  0  0  0
   37.9690   75.9660   56.4270 S   0  0  0  0  0  0  0  0  0  0  0  0
   37.1620   77.2390   56.2870 O   0  0  0  0  0  0  0  0  0  0  0  0
   36.9040   74.9540   56.8890 O   0  0  0  0  0  0  0  0  0  0  0  0
   38.5700   75.5680   54.8680 C   0  0  0  0  0  0  0  0  0  0  0  0
   39.4320   75.9590   53.9180 N   0  0  0  0  0  0  0  0  0  0  0  0
   39.3450   75.1420   52.8860 C   0  0  0  0  0  0  0  0  0  0  0  0
   40.0030   75.3510   52.0310 H   0  0  0  0  0  0  0  0  0  0  0  0
   38.4410   74.2000   53.1180 N   0  0  0  0  0  0  0  0  0  0  0  0
   38.2210   73.4540   52.4270 H   0  0  0  0  0  0  0  0  0  0  0  0
   37.9790   74.4660   54.3180 N   0  0  0  0  0  0  0  0  0  0  0  0
  1  2  2  0  0  0  0
  1  6  1  0  0  0  0
  2  3  1  0  0  0  0
  3  7  1  0  0  0  0
  3  4  2  0  0  0  0
  4  8  1  0  0  0  0
  5  4  1  0  0  0  0
  5  9  1  0  0  0  0
  6  5  2  0  0  0  0
 10  6  1  0  0  0  0
 11 17  1  0  0  0  0
 11 16  1  0  0  0  0
 12 11  2  0  0  0  0
 13 12  1  0  0  0  0
 13 14  2  0  0  0  0
 14 15  1  0  0  0  0
 15 16  2  0  0  0  0
 15  2  1  0  0  0  0
 18 13  1  0  0  0  0
 19 20  1  0  0  0  0
 19 12  1  0  0  0  0
 20 27  1  0  0  0  0
 21 28  1  0  0  0  0
 21 20  2  0  0  0  0
 22 21  1  0  0  0  0
 23 22  2  0  0  0  0
 24 22  1  0  0  0  0
 24 25  1  0  0  0  0
 25 19  1  0  0  0  0
 26 25  2  0  0  0  0
 29 24  1  0  0  0  0
 30 32  2  0  0  0  0
 30  1  1  0  0  0  0
 31 30  2  0  0  0  0
 33 30  1  0  0  0  0
 34 33  1  0  0  0  0
 35 37  1  0  0  0  0
 35 34  2  0  0  0  0
 36 35  1  0  0  0  0
 37 39  1  0  0  0  0
 38 37  1  0  0  0  0
 39 33  2  0  0  0  0
M  END
>  <minimizedAffinity>
-5.75853348

$$$$

 OpenBabel03212520333D

 39 42  0  0  0  0  0  0  0  0999 V2000
   39.4910   75.2710   58.7770 C   0  0  0  0  0  0  0  0  0  0  0  0
   39.7370   73.9040   58.8090 C   0  0  0  0  0  0  0  0  0  0  0  0
   39.8440   73.2240   60.0040 C   0  0  0  0  0  0  0  0  0  0  0  0
   39.7120   73.8560   61.2430 C   0  0  0  0  0  0  0  0  0  0  0  0
   39.4670   75.2110   61.2430 C   0  0  0  0  0  0  0  0  0  0  0  0
   39.3610   75.8880   60.0400 C   0  0  0  0  0  0  0  0  0  0  0  0
   40.0390   72.1530   59.9840 H   0  0  0  0  0  0  0  0  0  0  0  0
   39.8140   73.2320   62.1170 H   0  0  0  0  0  0  0  0  0  0  0  0
   39.3620   75.7110   62.1770 H   0  0  0  0  0  0  0  0  0  0  0  0
   39.1680   76.9460   60.0890 H   0  0  0  0  0  0  0  0  0  0  0  0
   41.0690   72.3390   55.7370 C   0  0  0  0  0  0  0  0  0  0  0  0
   39.9770   71.6440   55.2580 C   0  0  0  0  0  0  0  0  0  0  0  0
   38.8030   71.7330   56.0090 C   0  0  0  0  0  0  0  0  0  0  0  0
   38.8070   72.4840   57.1430 N   0  0  0  0  0  0  0  0  0  0  0  0
   39.8680   73.1370   57.5750 C   0  0  0  0  0  0  0  0  0  0  0  0
   40.9870   73.0560   56.8640 N   0  0  0  0  0  0  0  0  0  0  0  0
   41.9780   72.2650   55.1460 H   0  0  0  0  0  0  0  0  0  0  0  0
   37.9100   71.2180   55.6970 H   0  0  0  0  0  0  0  0  0  0  0  0
   40.0440   70.8790   54.0670 N   0  0  0  0  0  0  0  0  0  0  0  0
   40.3860   69.5990   54.2790 C   0  0  0  0  0  0  0  0  0  0  0  0
   40.4890   68.7540   53.1700 C   0  0  0  0  0  0  0  0  0  0  0  0
   40.2330   69.2710   51.8950 C   0  0  0  0  0  0  0  0  0  0  0  0
   40.2930   68.6120   50.8270 O   0  0  0  0  0  0  0  0  0  0  0  0
   39.8880   70.5930   51.7700 N   0  0  0  0  0  0  0  0  0  0  0  0
   39.7900   71.4070   52.8530 C   0  0  0  0  0  0  0  0  0  0  0  0
   39.4790   72.6060   52.7550 O   0  0  0  0  0  0  0  0  0  0  0  0
   40.5910   69.1670   55.2390 H   0  0  0  0  0  0  0  0  0  0  0  0
   40.7550   67.7220   53.2410 H   0  0  0  0  0  0  0  0  0  0  0  0
   39.6840   71.0450   50.8540 H   0  0  0  0  0  0  0  0  0  0  0  0
   39.3640   76.1510   57.3020 S   0  0  0  0  0  0  0  0  0  0  0  0
   40.6880   76.1230   56.5690 O   0  0  0  0  0  0  0  0  0  0  0  0
   39.2380   77.6350   57.6920 O   0  0  0  0  0  0  0  0  0  0  0  0
   38.1470   75.6990   56.1770 C   0  0  0  0  0  0  0  0  0  0  0  0
   36.8200   75.6280   56.0000 N   0  0  0  0  0  0  0  0  0  0  0  0
   36.5630   75.1130   54.8140 C   0  0  0  0  0  0  0  0  0  0  0  0
   35.5040   74.9990   54.5410 H   0  0  0  0  0  0  0  0  0  0  0  0
   37.6920   74.8320   54.1780 N   0  0  0  0  0  0  0  0  0  0  0  0
   37.7090   74.4170   53.2240 H   0  0  0  0  0  0  0  0  0  0  0  0
   38.6440   75.1900   55.0090 N   0  0  0  0  0  0  0  0  0  0  0  0
  1  2  2  0  0  0  0
  1  6  1  0  0  0  0
  2  3  1  0  0  0  0
  3  4  2  0  0  0  0
  4  8  1  0  0  0  0
  5  4  1  0  0  0  0
  5  9  1  0  0  0  0
  6 10  1  0  0  0  0
  6  5  2  0  0  0  0
  7  3  1  0  0  0  0
 11 16  1  0  0  0  0
 12 11  2  0  0  0  0
 12 13  1  0  0  0  0
 13 14  2  0  0  0  0
 14 15  1  0  0  0  0
 15  2  1  0  0  0  0
 16 15  2  0  0  0  0
 17 11  1  0  0  0  0
 18 13  1  0  0  0  0
 19 20  1  0  0  0  0
 19 12  1  0  0  0  0
 20 27  1  0  0  0  0
 21 28  1  0  0  0  0
 21 20  2  0  0  0  0
 22 21  1  0  0  0  0
 23 22  2  0  0  0  0
 24 22  1  0  0  0  0
 24 25  1  0  0  0  0
 25 19  1  0  0  0  0
 26 25  2  0  0  0  0
 29 24  1  0  0  0  0
 30 32  2  0  0  0  0
 30  1  1  0  0  0  0
 31 30  2  0  0  0  0
 33 30  1  0  0  0  0
 34 33  1  0  0  0  0
 35 34  2  0  0  0  0
 36 35  1  0  0  0  0
 37 35  1  0  0  0  0
 37 39  1  0  0  0  0
 38 37  1  0  0  0  0
 39 33  2  0  0  0  0
M  END
>  <minimizedAffinity>
-5.74227381

$$$$

 OpenBabel03212520333D

 39 42  0  0  0  0  0  0  0  0999 V2000
   38.9870   74.4110   54.2370 C   0  0  0  0  0  0  0  0  0  0  0  0
   38.4060   74.5790   55.4880 C   0  0  0  0  0  0  0  0  0  0  0  0
   37.1910   75.2170   55.6330 C   0  0  0  0  0  0  0  0  0  0  0  0
   36.4760   75.7280   54.5480 C   0  0  0  0  0  0  0  0  0  0  0  0
   37.0280   75.5760   53.2950 C   0  0  0  0  0  0  0  0  0  0  0  0
   38.2460   74.9350   53.1560 C   0  0  0  0  0  0  0  0  0  0  0  0
   36.7710   75.3270   56.6320 H   0  0  0  0  0  0  0  0  0  0  0  0
   35.5370   76.2090   54.7710 H   0  0  0  0  0  0  0  0  0  0  0  0
   36.4980   75.9590   52.4540 H   0  0  0  0  0  0  0  0  0  0  0  0
   38.6380   74.8400   52.1570 H   0  0  0  0  0  0  0  0  0  0  0  0
   40.6090   74.1730   58.4280 C   0  0  0  0  0  0  0  0  0  0  0  0
   40.1810   72.9730   58.9580 C   0  0  0  0  0  0  0  0  0  0  0  0
   39.1400   72.3300   58.2860 C   0  0  0  0  0  0  0  0  0  0  0  0
   38.6220   72.9130   57.1730 N   0  0  0  0  0  0  0  0  0  0  0  0
   39.0520   74.0630   56.6890 C   0  0  0  0  0  0  0  0  0  0  0  0
   40.0420   74.6780   57.3250 N   0  0  0  0  0  0  0  0  0  0  0  0
   41.4200   74.6670   58.9570 H   0  0  0  0  0  0  0  0  0  0  0  0
   38.7550   71.3890   58.6410 H   0  0  0  0  0  0  0  0  0  0  0  0
   40.7680   72.4230   60.1250 N   0  0  0  0  0  0  0  0  0  0  0  0
   41.8020   71.6080   59.8620 C   0  0  0  0  0  0  0  0  0  0  0  0
   42.4530   71.0030   60.9420 C   0  0  0  0  0  0  0  0  0  0  0  0
   42.0050   71.2690   62.2410 C   0  0  0  0  0  0  0  0  0  0  0  0
   42.5060   70.7870   63.2870 O   0  0  0  0  0  0  0  0  0  0  0  0
   40.9390   72.1160   62.4180 N   0  0  0  0  0  0  0  0  0  0  0  0
   40.3130   72.6990   61.3620 C   0  0  0  0  0  0  0  0  0  0  0  0
   39.3470   73.4680   61.5080 O   0  0  0  0  0  0  0  0  0  0  0  0
   42.1740   71.3800   58.8820 H   0  0  0  0  0  0  0  0  0  0  0  0
   43.2830   70.3410   60.8310 H   0  0  0  0  0  0  0  0  0  0  0  0
   40.5530   72.3580   63.3540 H   0  0  0  0  0  0  0  0  0  0  0  0
   40.5060   73.6300   54.0230 S   0  0  0  0  0  0  0  0  0  0  0  0
   41.6270   74.5580   54.4430 O   0  0  0  0  0  0  0  0  0  0  0  0
   40.7270   73.5180   52.5040 O   0  0  0  0  0  0  0  0  0  0  0  0
   40.7740   72.1230   54.8030 C   0  0  0  0  0  0  0  0  0  0  0  0
   41.5680   71.4940   55.6810 N   0  0  0  0  0  0  0  0  0  0  0  0
   41.1870   70.2370   55.7940 C   0  0  0  0  0  0  0  0  0  0  0  0
   41.7600   69.6050   56.4880 H   0  0  0  0  0  0  0  0  0  0  0  0
   40.1460   69.9980   55.0080 N   0  0  0  0  0  0  0  0  0  0  0  0
   39.6920   69.0640   54.9500 H   0  0  0  0  0  0  0  0  0  0  0  0
   39.9030   71.1440   54.4140 N   0  0  0  0  0  0  0  0  0  0  0  0
  1  2  1  0  0  0  0
  2  3  2  0  0  0  0
  2 15  1  0  0  0  0
  3  7  1  0  0  0  0
  4  8  1  0  0  0  0
  4  3  1  0  0  0  0
  5  4  2  0  0  0  0
  6  5  1  0  0  0  0
  6  1  2  0  0  0  0
  9  5  1  0  0  0  0
 10  6  1  0  0  0  0
 11 17  1  0  0  0  0
 11 12  1  0  0  0  0
 12 19  1  0  0  0  0
 13 18  1  0  0  0  0
 13 12  2  0  0  0  0
 14 13  1  0  0  0  0
 15 14  2  0  0  0  0
 15 16  1  0  0  0  0
 16 11  2  0  0  0  0
 19 25  1  0  0  0  0
 20 19  1  0  0  0  0
 20 21  2  0  0  0  0
 21 22  1  0  0  0  0
 22 24  1  0  0  0  0
 22 23  2  0  0  0  0
 24 29  1  0  0  0  0
 25 26  2  0  0  0  0
 25 24  1  0  0  0  0
 27 20  1  0  0  0  0
 28 21  1  0  0  0  0
 30  1  1  0  0  0  0
 30 31  2  0  0  0  0
 30 33  1  0  0  0  0
 32 30  2  0  0  0  0
 33 34  1  0  0  0  0
 34 35  2  0  0  0  0
 35 36  1  0  0  0  0
 37 35  1  0  0  0  0
 38 37  1  0  0  0  0
 39 33  2  0  0  0  0
 39 37  1  0  0  0  0
M  END
>  <minimizedAffinity>
-5.70329475

$$$$
