
 OpenBabel03212520353D

 34 37  0  0  0  0  0  0  0  0999 V2000
   40.2670   80.9370   58.9370 C   0  0  0  0  0  0  0  0  0  0  0  0
   40.4380   79.6960   59.5980 C   0  0  0  0  0  0  0  0  0  0  0  0
   40.3980   79.5480   60.9550 C   0  0  0  0  0  0  0  0  0  0  0  0
   40.1800   80.6570   61.7450 C   0  0  0  0  0  0  0  0  0  0  0  0
   40.0110   81.8830   61.1250 C   0  0  0  0  0  0  0  0  0  0  0  0
   39.7680   83.0470   61.8170 C   0  0  0  0  0  0  0  0  0  0  0  0
   39.5900   84.2590   61.1560 C   0  0  0  0  0  0  0  0  0  0  0  0
   39.6490   84.3520   59.7720 C   0  0  0  0  0  0  0  0  0  0  0  0
   39.8930   83.1850   59.0770 C   0  0  0  0  0  0  0  0  0  0  0  0
   40.0560   82.0200   59.7470 C   0  0  0  0  0  0  0  0  0  0  0  0
   40.6040   78.7290   59.1480 H   0  0  0  0  0  0  0  0  0  0  0  0
   40.5190   78.6360   61.5100 H   0  0  0  0  0  0  0  0  0  0  0  0
   40.1260   80.6690   62.8250 H   0  0  0  0  0  0  0  0  0  0  0  0
   39.7260   82.9630   62.9060 H   0  0  0  0  0  0  0  0  0  0  0  0
   39.4050   85.0910   61.8330 H   0  0  0  0  0  0  0  0  0  0  0  0
   39.4970   85.3390   59.3700 H   0  0  0  0  0  0  0  0  0  0  0  0
   39.9780   83.4190   58.0460 H   0  0  0  0  0  0  0  0  0  0  0  0
   39.2330   80.7070   56.5850 C   0  0  0  0  0  0  0  0  0  0  0  0
   40.2890   80.8420   57.4890 C   0  0  0  0  0  0  0  0  0  0  0  0
   41.6440   80.8710   56.9810 C   0  0  0  0  0  0  0  0  0  0  0  0
   41.8180   80.7640   55.6310 N   0  0  0  0  0  0  0  0  0  0  0  0
   40.7150   80.6350   54.7950 C   0  0  0  0  0  0  0  0  0  0  0  0
   39.4440   80.6090   55.2780 N   0  0  0  0  0  0  0  0  0  0  0  0
   38.2330   80.6020   56.9050 H   0  0  0  0  0  0  0  0  0  0  0  0
   42.5760   80.9740   57.4530 H   0  0  0  0  0  0  0  0  0  0  0  0
   40.8810   80.4860   53.3450 C   0  0  0  0  0  0  0  0  0  0  0  0
   41.1740   81.4490   52.6190 O   0  0  0  0  0  0  0  0  0  0  0  0
   40.7040   79.1750   52.6800 C   0  0  0  0  0  0  0  0  0  0  0  0
   41.6550   78.2620   52.5960 N   0  0  0  0  0  0  0  0  0  0  0  0
   41.1180   77.2050   51.9220 C   0  0  0  0  0  0  0  0  0  0  0  0
   41.7020   76.3030   51.7130 H   0  0  0  0  0  0  0  0  0  0  0  0
   39.8350   77.4850   51.6000 N   0  0  0  0  0  0  0  0  0  0  0  0
   39.2890   76.7850   51.0870 H   0  0  0  0  0  0  0  0  0  0  0  0
   39.5780   78.7070   52.0700 N   0  0  0  0  0  0  0  0  0  0  0  0
  1  2  2  0  0  0  0
  1 10  1  0  0  0  0
  2  3  1  0  0  0  0
  3 12  1  0  0  0  0
  3  4  2  0  0  0  0
  4 13  1  0  0  0  0
  5  4  1  0  0  0  0
  5  6  1  0  0  0  0
  6 14  1  0  0  0  0
  7  6  2  0  0  0  0
  7 15  1  0  0  0  0
  8  7  1  0  0  0  0
  9 10  1  0  0  0  0
  9  8  2  0  0  0  0
 10  5  2  0  0  0  0
 11  2  1  0  0  0  0
 16  8  1  0  0  0  0
 17  9  1  0  0  0  0
 18 24  1  0  0  0  0
 18 19  1  0  0  0  0
 19  1  1  0  0  0  0
 20 25  1  0  0  0  0
 20 19  2  0  0  0  0
 21 20  1  0  0  0  0
 22 23  1  0  0  0  0
 22 21  2  0  0  0  0
 23 18  2  0  0  0  0
 26 22  1  0  0  0  0
 27 26  2  0  0  0  0
 28 26  1  0  0  0  0
 29 28  1  0  0  0  0
 30 29  2  0  0  0  0
 31 30  1  0  0  0  0
 32 30  1  0  0  0  0
 32 34  1  0  0  0  0
 33 32  1  0  0  0  0
 34 28  2  0  0  0  0
M  END
>  <minimizedAffinity>
-4.96667433

>  <minimizedRMSD>
9.17002583

$$$$
