
 OpenBabel03212520353D

 34 37  0  0  0  0  0  0  0  0999 V2000
   40.1880   81.0090   58.9250 C   0  0  0  0  0  0  0  0  0  0  0  0
   40.3810   79.8470   59.7100 C   0  0  0  0  0  0  0  0  0  0  0  0
   40.3960   79.8480   61.0760 C   0  0  0  0  0  0  0  0  0  0  0  0
   40.2140   81.0380   61.7480 C   0  0  0  0  0  0  0  0  0  0  0  0
   40.0250   82.1900   61.0050 C   0  0  0  0  0  0  0  0  0  0  0  0
   39.8150   83.4250   61.5740 C   0  0  0  0  0  0  0  0  0  0  0  0
   39.6140   84.5600   60.7930 C   0  0  0  0  0  0  0  0  0  0  0  0
   39.6170   84.5000   59.4060 C   0  0  0  0  0  0  0  0  0  0  0  0
   39.8280   83.2630   58.8340 C   0  0  0  0  0  0  0  0  0  0  0  0
   40.0140   82.1770   59.6200 C   0  0  0  0  0  0  0  0  0  0  0  0
   40.5250   78.8350   59.3630 H   0  0  0  0  0  0  0  0  0  0  0  0
   40.5360   79.0000   61.7220 H   0  0  0  0  0  0  0  0  0  0  0  0
   40.2040   81.1680   62.8220 H   0  0  0  0  0  0  0  0  0  0  0  0
   39.8170   83.4610   62.6670 H   0  0  0  0  0  0  0  0  0  0  0  0
   39.4610   85.4610   61.3820 H   0  0  0  0  0  0  0  0  0  0  0  0
   39.4530   85.4390   58.9050 H   0  0  0  0  0  0  0  0  0  0  0  0
   39.8720   83.3820   57.7810 H   0  0  0  0  0  0  0  0  0  0  0  0
   40.8020   81.4180   56.4530 C   0  0  0  0  0  0  0  0  0  0  0  0
   40.1500   80.7570   57.4970 C   0  0  0  0  0  0  0  0  0  0  0  0
   39.2620   79.6580   57.1810 C   0  0  0  0  0  0  0  0  0  0  0  0
   39.1080   79.3240   55.8650 N   0  0  0  0  0  0  0  0  0  0  0  0
   39.7940   80.0290   54.8840 C   0  0  0  0  0  0  0  0  0  0  0  0
   40.6280   81.0610   55.1870 N   0  0  0  0  0  0  0  0  0  0  0  0
   41.3990   82.2730   56.6190 H   0  0  0  0  0  0  0  0  0  0  0  0
   38.6850   79.0190   57.7800 H   0  0  0  0  0  0  0  0  0  0  0  0
   39.6180   79.7090   53.4630 C   0  0  0  0  0  0  0  0  0  0  0  0
   40.5600   79.3020   52.7640 O   0  0  0  0  0  0  0  0  0  0  0  0
   38.3050   79.8600   52.7950 C   0  0  0  0  0  0  0  0  0  0  0  0
   38.0840   80.6920   51.7940 N   0  0  0  0  0  0  0  0  0  0  0  0
   36.7710   80.5460   51.4530 C   0  0  0  0  0  0  0  0  0  0  0  0
   36.3230   81.1270   50.6420 H   0  0  0  0  0  0  0  0  0  0  0  0
   36.2010   79.6180   52.2550 N   0  0  0  0  0  0  0  0  0  0  0  0
   35.2110   79.3920   52.1240 H   0  0  0  0  0  0  0  0  0  0  0  0
   37.1530   79.1930   53.0870 N   0  0  0  0  0  0  0  0  0  0  0  0
  1 10  2  0  0  0  0
  1  2  1  0  0  0  0
  2  3  2  0  0  0  0
  3 12  1  0  0  0  0
  3  4  1  0  0  0  0
  4 13  1  0  0  0  0
  5  6  1  0  0  0  0
  5  4  2  0  0  0  0
  6 14  1  0  0  0  0
  7 15  1  0  0  0  0
  7  6  2  0  0  0  0
  8  7  1  0  0  0  0
  9  8  2  0  0  0  0
  9 10  1  0  0  0  0
 10  5  1  0  0  0  0
 11  2  1  0  0  0  0
 16  8  1  0  0  0  0
 17  9  1  0  0  0  0
 18 24  1  0  0  0  0
 18 19  1  0  0  0  0
 19  1  1  0  0  0  0
 20 19  2  0  0  0  0
 20 25  1  0  0  0  0
 21 20  1  0  0  0  0
 22 23  1  0  0  0  0
 22 21  2  0  0  0  0
 23 18  2  0  0  0  0
 26 22  1  0  0  0  0
 27 26  2  0  0  0  0
 28 34  2  0  0  0  0
 28 26  1  0  0  0  0
 29 28  1  0  0  0  0
 30 29  2  0  0  0  0
 30 32  1  0  0  0  0
 31 30  1  0  0  0  0
 32 34  1  0  0  0  0
 33 32  1  0  0  0  0
M  END
>  <minimizedAffinity>
-5.94469213

>  <minimizedRMSD>
9.01295567

$$$$
