
 OpenBabel03212520353D

 34 37  0  0  0  0  0  0  0  0999 V2000
   40.7780   81.4830   58.8910 C   0  0  0  0  0  0  0  0  0  0  0  0
   41.0350   80.1350   59.2430 C   0  0  0  0  0  0  0  0  0  0  0  0
   40.7600   79.6060   60.4710 C   0  0  0  0  0  0  0  0  0  0  0  0
   40.1990   80.4130   61.4390 C   0  0  0  0  0  0  0  0  0  0  0  0
   39.9380   81.7340   61.1230 C   0  0  0  0  0  0  0  0  0  0  0  0
   39.3630   82.6180   62.0070 C   0  0  0  0  0  0  0  0  0  0  0  0
   39.1030   83.9370   61.6470 C   0  0  0  0  0  0  0  0  0  0  0  0
   39.4120   84.4240   60.3840 C   0  0  0  0  0  0  0  0  0  0  0  0
   39.9890   83.5390   59.4980 C   0  0  0  0  0  0  0  0  0  0  0  0
   40.2240   82.2600   59.8740 C   0  0  0  0  0  0  0  0  0  0  0  0
   41.4550   79.3620   58.6180 H   0  0  0  0  0  0  0  0  0  0  0  0
   40.9310   78.5950   60.7930 H   0  0  0  0  0  0  0  0  0  0  0  0
   39.9350   80.1120   62.4440 H   0  0  0  0  0  0  0  0  0  0  0  0
   39.1260   82.2250   62.9990 H   0  0  0  0  0  0  0  0  0  0  0  0
   38.6460   84.5150   62.4480 H   0  0  0  0  0  0  0  0  0  0  0  0
   39.1680   85.4600   60.2180 H   0  0  0  0  0  0  0  0  0  0  0  0
   40.2300   84.0630   58.6070 H   0  0  0  0  0  0  0  0  0  0  0  0
   40.5680   81.2870   56.3280 C   0  0  0  0  0  0  0  0  0  0  0  0
   41.0960   81.8050   57.5130 C   0  0  0  0  0  0  0  0  0  0  0  0
   42.1460   82.7990   57.4350 C   0  0  0  0  0  0  0  0  0  0  0  0
   42.5670   83.1800   56.1930 N   0  0  0  0  0  0  0  0  0  0  0  0
   41.9890   82.6200   55.0600 C   0  0  0  0  0  0  0  0  0  0  0  0
   41.0020   81.6870   55.1400 N   0  0  0  0  0  0  0  0  0  0  0  0
   39.8570   80.5070   56.3270 H   0  0  0  0  0  0  0  0  0  0  0  0
   42.6770   83.3270   58.1690 H   0  0  0  0  0  0  0  0  0  0  0  0
   42.4490   82.9910   53.7170 C   0  0  0  0  0  0  0  0  0  0  0  0
   41.8530   82.6130   52.6950 O   0  0  0  0  0  0  0  0  0  0  0  0
   43.6500   83.8350   53.5180 C   0  0  0  0  0  0  0  0  0  0  0  0
   44.8120   83.3680   53.0960 N   0  0  0  0  0  0  0  0  0  0  0  0
   45.6590   84.4350   53.0420 C   0  0  0  0  0  0  0  0  0  0  0  0
   46.6990   84.3230   52.7200 H   0  0  0  0  0  0  0  0  0  0  0  0
   45.0020   85.5500   53.4360 N   0  0  0  0  0  0  0  0  0  0  0  0
   45.5060   86.4420   53.4500 H   0  0  0  0  0  0  0  0  0  0  0  0
   43.7570   85.1770   53.7310 N   0  0  0  0  0  0  0  0  0  0  0  0
  1  2  2  0  0  0  0
  1 10  1  0  0  0  0
  2  3  1  0  0  0  0
  3 12  1  0  0  0  0
  3  4  2  0  0  0  0
  4 13  1  0  0  0  0
  5  4  1  0  0  0  0
  5  6  1  0  0  0  0
  6 14  1  0  0  0  0
  7  6  2  0  0  0  0
  7 15  1  0  0  0  0
  8  7  1  0  0  0  0
  9 10  1  0  0  0  0
  9  8  2  0  0  0  0
 10  5  2  0  0  0  0
 11  2  1  0  0  0  0
 16  8  1  0  0  0  0
 17  9  1  0  0  0  0
 18 19  1  0  0  0  0
 19  1  1  0  0  0  0
 20 19  2  0  0  0  0
 20 25  1  0  0  0  0
 21 20  1  0  0  0  0
 22 23  1  0  0  0  0
 22 21  2  0  0  0  0
 23 18  2  0  0  0  0
 24 18  1  0  0  0  0
 26 22  1  0  0  0  0
 27 26  2  0  0  0  0
 28 26  1  0  0  0  0
 28 34  2  0  0  0  0
 29 28  1  0  0  0  0
 30 29  2  0  0  0  0
 30 32  1  0  0  0  0
 31 30  1  0  0  0  0
 32 33  1  0  0  0  0
 32 34  1  0  0  0  0
M  END
>  <minimizedAffinity>
-5.03296328

>  <minimizedRMSD>
8.0480442

$$$$
