
 OpenBabel03212520593D

 40 44  0  0  1  0  0  0  0  0999 V2000
   39.7780   77.4050   59.1690 C   0  0  0  0  0  0  0  0  0  0  0  0
   40.4690   76.2670   58.8950 C   0  0  0  0  0  0  0  0  0  0  0  0
   39.9200   75.5660   57.8090 C   0  0  0  0  0  0  0  0  0  0  0  0
   38.8380   75.9640   57.1140 N   0  0  0  0  0  0  0  0  0  0  0  0
   38.2210   77.1260   57.4770 C   0  0  0  0  0  0  0  0  0  0  0  0
   38.6930   77.8550   58.5140 N   0  0  0  0  0  0  0  0  0  0  0  0
   41.3260   75.9050   59.4060 H   0  0  0  0  0  0  0  0  0  0  0  0
   40.3560   74.6310   57.4600 H   0  0  0  0  0  0  0  0  0  0  0  0
   40.9710   80.3370   61.7420 C   0  0  0  0  0  0  0  0  0  0  0  0
   40.9610   79.1020   62.3360 C   0  0  0  0  0  0  0  0  0  0  0  0
   40.5850   78.0420   61.5910 C   0  0  0  0  0  0  0  0  0  0  0  0
   40.2250   78.2420   60.2640 C   0  0  0  0  0  0  0  0  0  0  0  0
   40.4270   80.0570   60.0310 S   0  0  0  0  0  0  0  0  0  0  0  0
   41.2440   78.9460   63.3780 H   0  0  0  0  0  0  0  0  0  0  0  0
   40.5100   76.9990   61.8650 H   0  0  0  0  0  0  0  0  0  0  0  0
   43.0360   83.1410   62.9080 C   0  0  0  0  0  0  0  0  0  0  0  0
   42.1320   83.8960   63.6940 C   0  0  0  0  0  0  0  0  0  0  0  0
   40.8120   83.4410   63.8200 C   0  0  0  0  0  0  0  0  0  0  0  0
   40.4630   82.3030   63.1830 N   0  0  0  0  0  0  0  0  0  0  0  0
   41.3580   81.5970   62.4320 C   0  0  0  0  0  0  0  0  0  0  0  0
   42.6170   82.0240   62.3070 N   0  0  0  0  0  0  0  0  0  0  0  0
   44.0660   83.4500   62.7790 H   0  0  0  0  0  0  0  0  0  0  0  0
   42.4590   84.7930   64.1790 H   0  0  0  0  0  0  0  0  0  0  0  0
   40.0830   83.9820   64.4090 H   0  0  0  0  0  0  0  0  0  0  0  0
   37.0630   77.5380   56.7080 C   0  0  0  0  0  0  0  0  0  0  0  0
   35.9490   77.1610   57.1050 O   0  0  0  0  0  0  0  0  0  0  0  0
   37.1800   78.3830   55.4640 C   0  0  1  0  0  0  0  0  0  0  0  0
   37.3700   79.8490   55.7660 C   0  0  0  0  0  0  0  0  0  0  0  0
   38.4310   79.0470   55.1570 C   0  0  2  0  0  0  0  0  0  0  0  0
   36.2660   78.2390   54.8220 H   0  0  0  0  0  0  0  0  0  0  0  0
   37.4560   80.1750   56.8270 H   0  0  0  0  0  0  0  0  0  0  0  0
   36.8370   80.5720   55.1310 H   0  0  0  0  0  0  0  0  0  0  0  0
   39.3200   78.7210   55.7660 H   0  0  0  0  0  0  0  0  0  0  0  0
   38.8430   79.3890   53.7740 C   0  0  0  0  0  0  0  0  0  0  0  0
   38.1640   80.2060   52.9250 N   0  0  0  0  0  0  0  0  0  0  0  0
   38.8160   80.3020   51.7470 C   0  0  0  0  0  0  0  0  0  0  0  0
   38.3460   80.9330   51.0100 H   0  0  0  0  0  0  0  0  0  0  0  0
   39.9120   79.5380   51.8670 N   0  0  0  0  0  0  0  0  0  0  0  0
   40.5630   79.4750   51.0540 H   0  0  0  0  0  0  0  0  0  0  0  0
   39.9140   78.9970   53.0880 N   0  0  0  0  0  0  0  0  0  0  0  0
  1 12  1  0  0  0  0
  2  1  1  0  0  0  0
  2  7  1  0  0  0  0
  3  2  2  0  0  0  0
  4  5  2  0  0  0  0
  4  3  1  0  0  0  0
  5  6  1  0  0  0  0
  6  1  2  0  0  0  0
  8  3  1  0  0  0  0
  9 10  2  0  0  0  0
  9 20  1  0  0  0  0
 10 14  1  0  0  0  0
 11 15  1  0  0  0  0
 11 10  1  0  0  0  0
 12 11  2  0  0  0  0
 13 12  1  0  0  0  0
 13  9  1  0  0  0  0
 16 17  1  0  0  0  0
 17 18  2  0  0  0  0
 17 23  1  0  0  0  0
 18 24  1  0  0  0  0
 19 18  1  0  0  0  0
 20 19  2  0  0  0  0
 21 20  1  0  0  0  0
 21 16  2  0  0  0  0
 22 16  1  0  0  0  0
 25 26  2  0  0  0  0
 25  5  1  0  0  0  0
 27 30  1  6  0  0  0
 27 28  1  0  0  0  0
 27 25  1  0  0  0  0
 28 31  1  0  0  0  0
 29 27  1  0  0  0  0
 29 33  1  1  0  0  0
 29 28  1  0  0  0  0
 32 28  1  0  0  0  0
 34 29  1  0  0  0  0
 35 34  1  0  0  0  0
 36 38  1  0  0  0  0
 36 35  2  0  0  0  0
 37 36  1  0  0  0  0
 38 40  1  0  0  0  0
 39 38  1  0  0  0  0
 40 34  2  0  0  0  0
M  END
>  <minimizedAffinity>
-6.34703732

>  <minimizedRMSD>
0.261163265

$$$$
