
 OpenBabel03212520593D

 40 44  0  0  1  0  0  0  0  0999 V2000
   39.7870   77.3750   59.1760 C   0  0  0  0  0  0  0  0  0  0  0  0
   40.4910   76.2460   58.9000 C   0  0  0  0  0  0  0  0  0  0  0  0
   39.9470   75.5380   57.8160 C   0  0  0  0  0  0  0  0  0  0  0  0
   38.8580   75.9230   57.1230 N   0  0  0  0  0  0  0  0  0  0  0  0
   38.2270   77.0770   57.4880 C   0  0  0  0  0  0  0  0  0  0  0  0
   38.6940   77.8120   58.5240 N   0  0  0  0  0  0  0  0  0  0  0  0
   41.3530   75.8950   59.4080 H   0  0  0  0  0  0  0  0  0  0  0  0
   40.3930   74.6090   57.4640 H   0  0  0  0  0  0  0  0  0  0  0  0
   40.9700   80.3190   61.7390 C   0  0  0  0  0  0  0  0  0  0  0  0
   40.9410   79.0890   62.3430 C   0  0  0  0  0  0  0  0  0  0  0  0
   40.5660   78.0270   61.6030 C   0  0  0  0  0  0  0  0  0  0  0  0
   40.2260   78.2180   60.2690 C   0  0  0  0  0  0  0  0  0  0  0  0
   40.4470   80.0290   60.0230 S   0  0  0  0  0  0  0  0  0  0  0  0
   41.2090   78.9400   63.3910 H   0  0  0  0  0  0  0  0  0  0  0  0
   40.4780   76.9870   61.8840 H   0  0  0  0  0  0  0  0  0  0  0  0
   43.0390   83.1280   62.8890 C   0  0  0  0  0  0  0  0  0  0  0  0
   42.1370   83.8850   63.6750 C   0  0  0  0  0  0  0  0  0  0  0  0
   40.8170   83.4300   63.8070 C   0  0  0  0  0  0  0  0  0  0  0  0
   40.4670   82.2900   63.1750 N   0  0  0  0  0  0  0  0  0  0  0  0
   41.3600   81.5820   62.4230 C   0  0  0  0  0  0  0  0  0  0  0  0
   42.6180   82.0080   62.2930 N   0  0  0  0  0  0  0  0  0  0  0  0
   44.0680   83.4360   62.7550 H   0  0  0  0  0  0  0  0  0  0  0  0
   42.4650   84.7840   64.1560 H   0  0  0  0  0  0  0  0  0  0  0  0
   40.0910   83.9730   64.3970 H   0  0  0  0  0  0  0  0  0  0  0  0
   37.0620   77.4740   56.7220 C   0  0  0  0  0  0  0  0  0  0  0  0
   35.9510   77.1200   57.1470 O   0  0  0  0  0  0  0  0  0  0  0  0
   37.1690   78.2780   55.4500 C   0  0  1  0  0  0  0  0  0  0  0  0
   37.3690   79.7520   55.7020 C   0  0  0  0  0  0  0  0  0  0  0  0
   38.4190   78.9250   55.1080 C   0  0  2  0  0  0  0  0  0  0  0  0
   36.2470   78.1170   54.8250 H   0  0  0  0  0  0  0  0  0  0  0  0
   37.4690   80.1120   56.7520 H   0  0  0  0  0  0  0  0  0  0  0  0
   36.8320   80.4560   55.0510 H   0  0  0  0  0  0  0  0  0  0  0  0
   39.3140   78.6150   55.7170 H   0  0  0  0  0  0  0  0  0  0  0  0
   38.8170   79.2200   53.7100 C   0  0  0  0  0  0  0  0  0  0  0  0
   39.6140   80.2480   53.3140 N   0  0  0  0  0  0  0  0  0  0  0  0
   39.7740   80.2270   51.9740 C   0  0  0  0  0  0  0  0  0  0  0  0
   40.3960   81.0100   51.5720 H   0  0  0  0  0  0  0  0  0  0  0  0
   39.0680   79.1760   51.5330 N   0  0  0  0  0  0  0  0  0  0  0  0
   39.0600   78.9790   50.5080 H   0  0  0  0  0  0  0  0  0  0  0  0
   38.5000   78.5810   52.5860 N   0  0  0  0  0  0  0  0  0  0  0  0
  1 12  1  0  0  0  0
  2  1  1  0  0  0  0
  2  7  1  0  0  0  0
  3  2  2  0  0  0  0
  4  5  2  0  0  0  0
  4  3  1  0  0  0  0
  5  6  1  0  0  0  0
  6  1  2  0  0  0  0
  8  3  1  0  0  0  0
  9 10  2  0  0  0  0
  9 20  1  0  0  0  0
 10 14  1  0  0  0  0
 11 15  1  0  0  0  0
 11 10  1  0  0  0  0
 12 11  2  0  0  0  0
 13 12  1  0  0  0  0
 13  9  1  0  0  0  0
 16 17  1  0  0  0  0
 17 18  2  0  0  0  0
 17 23  1  0  0  0  0
 18 24  1  0  0  0  0
 19 18  1  0  0  0  0
 20 19  2  0  0  0  0
 21 20  1  0  0  0  0
 21 16  2  0  0  0  0
 22 16  1  0  0  0  0
 25 26  2  0  0  0  0
 25  5  1  0  0  0  0
 27 30  1  6  0  0  0
 27 28  1  0  0  0  0
 27 25  1  0  0  0  0
 28 31  1  0  0  0  0
 29 27  1  0  0  0  0
 29 28  1  0  0  0  0
 29 33  1  1  0  0  0
 32 28  1  0  0  0  0
 34 29  1  0  0  0  0
 35 34  1  0  0  0  0
 36 35  2  0  0  0  0
 37 36  1  0  0  0  0
 38 36  1  0  0  0  0
 38 40  1  0  0  0  0
 39 38  1  0  0  0  0
 40 34  2  0  0  0  0
M  END
>  <minimizedAffinity>
-6.36361885

>  <minimizedRMSD>
0.335565507

$$$$
