
 OpenBabel03212520353D

 34 37  0  0  0  0  0  0  0  0999 V2000
   42.5730   82.0120   61.0370 C   0  0  0  0  0  0  0  0  0  0  0  0
   43.9750   81.8420   61.1470 C   0  0  0  0  0  0  0  0  0  0  0  0
   44.7220   82.3470   62.1720 C   0  0  0  0  0  0  0  0  0  0  0  0
   44.0950   83.0670   63.1680 C   0  0  0  0  0  0  0  0  0  0  0  0
   42.7270   83.2500   63.0850 C   0  0  0  0  0  0  0  0  0  0  0  0
   42.0010   83.9350   64.0320 C   0  0  0  0  0  0  0  0  0  0  0  0
   40.6220   84.0860   63.9210 C   0  0  0  0  0  0  0  0  0  0  0  0
   39.9140   83.5570   62.8500 C   0  0  0  0  0  0  0  0  0  0  0  0
   40.6400   82.8710   61.8980 C   0  0  0  0  0  0  0  0  0  0  0  0
   41.9800   82.7350   62.0380 C   0  0  0  0  0  0  0  0  0  0  0  0
   44.6260   81.3030   60.4760 H   0  0  0  0  0  0  0  0  0  0  0  0
   45.7830   82.2480   62.3090 H   0  0  0  0  0  0  0  0  0  0  0  0
   44.5750   83.5140   64.0280 H   0  0  0  0  0  0  0  0  0  0  0  0
   42.5690   84.3490   64.8700 H   0  0  0  0  0  0  0  0  0  0  0  0
   40.1870   84.6480   64.7440 H   0  0  0  0  0  0  0  0  0  0  0  0
   38.8520   83.7370   62.8670 H   0  0  0  0  0  0  0  0  0  0  0  0
   39.9850   82.5870   61.1150 H   0  0  0  0  0  0  0  0  0  0  0  0
   41.3660   80.0870   59.8170 C   0  0  0  0  0  0  0  0  0  0  0  0
   41.9840   81.3370   59.8960 C   0  0  0  0  0  0  0  0  0  0  0  0
   42.1200   82.1260   58.6900 C   0  0  0  0  0  0  0  0  0  0  0  0
   41.6320   81.6000   57.5280 N   0  0  0  0  0  0  0  0  0  0  0  0
   41.0270   80.3490   57.5320 C   0  0  0  0  0  0  0  0  0  0  0  0
   40.9010   79.6120   58.6690 N   0  0  0  0  0  0  0  0  0  0  0  0
   41.3090   79.4380   60.6470 H   0  0  0  0  0  0  0  0  0  0  0  0
   42.5290   83.0750   58.5070 H   0  0  0  0  0  0  0  0  0  0  0  0
   40.5240   79.7500   56.2900 C   0  0  0  0  0  0  0  0  0  0  0  0
   41.1860   78.9140   55.6540 O   0  0  0  0  0  0  0  0  0  0  0  0
   39.2020   80.1190   55.7360 C   0  0  0  0  0  0  0  0  0  0  0  0
   38.1060   80.2230   56.4680 N   0  0  0  0  0  0  0  0  0  0  0  0
   37.1050   80.5780   55.6130 C   0  0  0  0  0  0  0  0  0  0  0  0
   36.0790   80.7320   55.9650 H   0  0  0  0  0  0  0  0  0  0  0  0
   37.6020   80.6870   54.3590 N   0  0  0  0  0  0  0  0  0  0  0  0
   36.9690   80.9480   53.5970 H   0  0  0  0  0  0  0  0  0  0  0  0
   38.9020   80.4030   54.4370 N   0  0  0  0  0  0  0  0  0  0  0  0
  1  2  2  0  0  0  0
  1 10  1  0  0  0  0
  2  3  1  0  0  0  0
  3 12  1  0  0  0  0
  3  4  2  0  0  0  0
  4 13  1  0  0  0  0
  5  4  1  0  0  0  0
  5  6  1  0  0  0  0
  6 14  1  0  0  0  0
  7  6  2  0  0  0  0
  7 15  1  0  0  0  0
  8 16  1  0  0  0  0
  8  7  1  0  0  0  0
  9 10  1  0  0  0  0
  9  8  2  0  0  0  0
 10  5  2  0  0  0  0
 11  2  1  0  0  0  0
 17  9  1  0  0  0  0
 18 19  1  0  0  0  0
 18 24  1  0  0  0  0
 19  1  1  0  0  0  0
 20 19  2  0  0  0  0
 21 22  2  0  0  0  0
 21 20  1  0  0  0  0
 22 23  1  0  0  0  0
 23 18  2  0  0  0  0
 25 20  1  0  0  0  0
 26 22  1  0  0  0  0
 27 26  2  0  0  0  0
 28 26  1  0  0  0  0
 28 29  1  0  0  0  0
 30 31  1  0  0  0  0
 30 29  2  0  0  0  0
 32 34  1  0  0  0  0
 32 30  1  0  0  0  0
 33 32  1  0  0  0  0
 34 28  2  0  0  0  0
M  END
>  <minimizedAffinity>
-5.44327211

>  <minimizedRMSD>
7.75302362

$$$$
