
 OpenBabel03212520313D

 39 42  0  0  0  0  0  0  0  0999 V2000
   42.1690   82.6290   62.1570 C   0  0  0  0  0  0  0  0  0  0  0  0
   42.6830   81.7150   61.2450 C   0  0  0  0  0  0  0  0  0  0  0  0
   43.9970   81.2990   61.3120 C   0  0  0  0  0  0  0  0  0  0  0  0
   44.8830   81.7620   62.2880 C   0  0  0  0  0  0  0  0  0  0  0  0
   44.4010   82.6680   63.2070 C   0  0  0  0  0  0  0  0  0  0  0  0
   43.0820   83.0810   63.1340 C   0  0  0  0  0  0  0  0  0  0  0  0
   44.3600   80.5830   60.5770 H   0  0  0  0  0  0  0  0  0  0  0  0
   45.8890   81.3730   62.2510 H   0  0  0  0  0  0  0  0  0  0  0  0
   45.0610   83.0320   63.9590 H   0  0  0  0  0  0  0  0  0  0  0  0
   42.7510   83.7900   63.8730 H   0  0  0  0  0  0  0  0  0  0  0  0
   40.2990   79.5950   59.3800 C   0  0  0  0  0  0  0  0  0  0  0  0
   40.2940   80.1800   58.1300 C   0  0  0  0  0  0  0  0  0  0  0  0
   41.1170   81.2950   57.9590 C   0  0  0  0  0  0  0  0  0  0  0  0
   41.8580   81.7270   59.0140 N   0  0  0  0  0  0  0  0  0  0  0  0
   41.8420   81.1470   60.1990 C   0  0  0  0  0  0  0  0  0  0  0  0
   41.0610   80.0860   60.3650 N   0  0  0  0  0  0  0  0  0  0  0  0
   39.6560   78.7270   59.5040 H   0  0  0  0  0  0  0  0  0  0  0  0
   41.1650   81.8030   57.0110 H   0  0  0  0  0  0  0  0  0  0  0  0
   39.4950   79.6750   57.0740 N   0  0  0  0  0  0  0  0  0  0  0  0
   38.4500   80.4640   56.7790 C   0  0  0  0  0  0  0  0  0  0  0  0
   37.5890   80.0580   55.7540 C   0  0  0  0  0  0  0  0  0  0  0  0
   37.8480   78.8570   55.0850 C   0  0  0  0  0  0  0  0  0  0  0  0
   37.1490   78.3890   54.1520 O   0  0  0  0  0  0  0  0  0  0  0  0
   38.9400   78.1120   55.4520 N   0  0  0  0  0  0  0  0  0  0  0  0
   39.7720   78.5140   56.4490 C   0  0  0  0  0  0  0  0  0  0  0  0
   40.7650   77.8500   56.7910 O   0  0  0  0  0  0  0  0  0  0  0  0
   38.2180   81.3890   57.2690 H   0  0  0  0  0  0  0  0  0  0  0  0
   36.7330   80.6190   55.4500 H   0  0  0  0  0  0  0  0  0  0  0  0
   39.1940   77.2090   54.9990 H   0  0  0  0  0  0  0  0  0  0  0  0
   40.5380   83.1760   62.0940 S   0  0  0  0  0  0  0  0  0  0  0  0
   40.1870   83.8990   63.3770 O   0  0  0  0  0  0  0  0  0  0  0  0
   39.6540   81.9190   62.1750 O   0  0  0  0  0  0  0  0  0  0  0  0
   40.0600   84.1890   60.7920 C   0  0  0  0  0  0  0  0  0  0  0  0
   38.9900   84.6750   60.1460 N   0  0  0  0  0  0  0  0  0  0  0  0
   39.3920   85.4280   59.1400 C   0  0  0  0  0  0  0  0  0  0  0  0
   38.6060   85.8910   58.5240 H   0  0  0  0  0  0  0  0  0  0  0  0
   40.7150   85.4640   59.0900 N   0  0  0  0  0  0  0  0  0  0  0  0
   41.2330   86.0050   58.3670 H   0  0  0  0  0  0  0  0  0  0  0  0
   41.1120   84.7130   60.0910 N   0  0  0  0  0  0  0  0  0  0  0  0
  1  6  1  0  0  0  0
  2  3  1  0  0  0  0
  2  1  2  0  0  0  0
  3  4  2  0  0  0  0
  4  5  1  0  0  0  0
  5  9  1  0  0  0  0
  6  5  2  0  0  0  0
  6 10  1  0  0  0  0
  7  3  1  0  0  0  0
  8  4  1  0  0  0  0
 11 17  1  0  0  0  0
 11 16  1  0  0  0  0
 12 11  2  0  0  0  0
 13 12  1  0  0  0  0
 13 14  2  0  0  0  0
 14 15  1  0  0  0  0
 15 16  2  0  0  0  0
 15  2  1  0  0  0  0
 18 13  1  0  0  0  0
 19 12  1  0  0  0  0
 20 19  1  0  0  0  0
 20 27  1  0  0  0  0
 21 20  2  0  0  0  0
 22 24  1  0  0  0  0
 22 21  1  0  0  0  0
 23 22  2  0  0  0  0
 24 25  1  0  0  0  0
 25 26  2  0  0  0  0
 25 19  1  0  0  0  0
 28 21  1  0  0  0  0
 29 24  1  0  0  0  0
 30  1  1  0  0  0  0
 30 32  2  0  0  0  0
 30 31  2  0  0  0  0
 33 30  1  0  0  0  0
 34 33  1  0  0  0  0
 35 34  2  0  0  0  0
 36 35  1  0  0  0  0
 37 35  1  0  0  0  0
 37 39  1  0  0  0  0
 38 37  1  0  0  0  0
 39 33  2  0  0  0  0
M  END
>  <minimizedAffinity>
-6.42319012

>  <minimizedRMSD>
1.22525394

$$$$
