
 OpenBabel03212520313D

 39 42  0  0  0  0  0  0  0  0999 V2000
   42.1600   82.5610   61.9590 C   0  0  0  0  0  0  0  0  0  0  0  0
   42.6760   81.8010   60.9160 C   0  0  0  0  0  0  0  0  0  0  0  0
   43.9820   81.3570   60.9320 C   0  0  0  0  0  0  0  0  0  0  0  0
   44.8590   81.6380   61.9830 C   0  0  0  0  0  0  0  0  0  0  0  0
   44.3750   82.3900   63.0310 C   0  0  0  0  0  0  0  0  0  0  0  0
   43.0640   82.8320   63.0090 C   0  0  0  0  0  0  0  0  0  0  0  0
   44.3460   80.7650   60.0950 H   0  0  0  0  0  0  0  0  0  0  0  0
   45.8590   81.2440   61.8960 H   0  0  0  0  0  0  0  0  0  0  0  0
   45.0280   82.6150   63.8420 H   0  0  0  0  0  0  0  0  0  0  0  0
   42.7310   83.4160   63.8500 H   0  0  0  0  0  0  0  0  0  0  0  0
   40.3960   79.9870   58.6430 C   0  0  0  0  0  0  0  0  0  0  0  0
   40.3010   80.8460   57.5670 C   0  0  0  0  0  0  0  0  0  0  0  0
   41.0280   82.0350   57.6520 C   0  0  0  0  0  0  0  0  0  0  0  0
   41.7720   82.2680   58.7670 N   0  0  0  0  0  0  0  0  0  0  0  0
   41.8430   81.4260   59.7800 C   0  0  0  0  0  0  0  0  0  0  0  0
   41.1530   80.2940   59.7030 N   0  0  0  0  0  0  0  0  0  0  0  0
   39.8270   79.0640   58.5680 H   0  0  0  0  0  0  0  0  0  0  0  0
   41.0030   82.7540   56.8510 H   0  0  0  0  0  0  0  0  0  0  0  0
   39.5050   80.5390   56.4350 N   0  0  0  0  0  0  0  0  0  0  0  0
   38.1940   80.4620   56.7160 C   0  0  0  0  0  0  0  0  0  0  0  0
   37.3160   80.1570   55.6720 C   0  0  0  0  0  0  0  0  0  0  0  0
   37.8320   79.9460   54.3890 C   0  0  0  0  0  0  0  0  0  0  0  0
   37.1450   79.6660   53.3750 O   0  0  0  0  0  0  0  0  0  0  0  0
   39.1870   80.0450   54.1920 N   0  0  0  0  0  0  0  0  0  0  0  0
   40.0330   80.3420   55.2120 C   0  0  0  0  0  0  0  0  0  0  0  0
   41.2620   80.4350   55.0480 O   0  0  0  0  0  0  0  0  0  0  0  0
   37.7610   80.6170   57.6850 H   0  0  0  0  0  0  0  0  0  0  0  0
   36.2590   80.0750   55.8000 H   0  0  0  0  0  0  0  0  0  0  0  0
   39.6400   79.9000   53.2650 H   0  0  0  0  0  0  0  0  0  0  0  0
   40.5390   83.1400   61.9650 S   0  0  0  0  0  0  0  0  0  0  0  0
   40.2440   83.8340   63.2770 O   0  0  0  0  0  0  0  0  0  0  0  0
   39.6340   81.8960   62.0430 O   0  0  0  0  0  0  0  0  0  0  0  0
   40.0370   84.1950   60.7050 C   0  0  0  0  0  0  0  0  0  0  0  0
   38.9580   84.6550   60.0560 N   0  0  0  0  0  0  0  0  0  0  0  0
   39.3400   85.4840   59.1050 C   0  0  0  0  0  0  0  0  0  0  0  0
   38.5480   85.9350   58.4910 H   0  0  0  0  0  0  0  0  0  0  0  0
   40.6620   85.5960   59.0950 N   0  0  0  0  0  0  0  0  0  0  0  0
   41.1660   86.2050   58.4170 H   0  0  0  0  0  0  0  0  0  0  0  0
   41.0740   84.8150   60.0650 N   0  0  0  0  0  0  0  0  0  0  0  0
  1 30  1  0  0  0  0
  1  6  1  0  0  0  0
  2  3  1  0  0  0  0
  2  1  2  0  0  0  0
  3  4  2  0  0  0  0
  4  5  1  0  0  0  0
  5  9  1  0  0  0  0
  6  5  2  0  0  0  0
  6 10  1  0  0  0  0
  7  3  1  0  0  0  0
  8  4  1  0  0  0  0
 11 16  1  0  0  0  0
 12 13  1  0  0  0  0
 12 11  2  0  0  0  0
 13 14  2  0  0  0  0
 14 15  1  0  0  0  0
 15  2  1  0  0  0  0
 16 15  2  0  0  0  0
 17 11  1  0  0  0  0
 18 13  1  0  0  0  0
 19 20  1  0  0  0  0
 19 12  1  0  0  0  0
 20 27  1  0  0  0  0
 21 28  1  0  0  0  0
 21 20  2  0  0  0  0
 22 21  1  0  0  0  0
 23 22  2  0  0  0  0
 24 22  1  0  0  0  0
 24 25  1  0  0  0  0
 25 19  1  0  0  0  0
 26 25  2  0  0  0  0
 29 24  1  0  0  0  0
 30 32  2  0  0  0  0
 30 31  2  0  0  0  0
 33 30  1  0  0  0  0
 34 33  1  0  0  0  0
 35 34  2  0  0  0  0
 36 35  1  0  0  0  0
 37 35  1  0  0  0  0
 37 39  1  0  0  0  0
 38 37  1  0  0  0  0
 39 33  2  0  0  0  0
M  END
>  <minimizedAffinity>
-6.41283798

>  <minimizedRMSD>
0.556896567

$$$$
