
 OpenBabel03212520353D

 34 37  0  0  0  0  0  0  0  0999 V2000
   40.2350   80.8000   59.1240 C   0  0  0  0  0  0  0  0  0  0  0  0
   40.4560   79.7000   59.9880 C   0  0  0  0  0  0  0  0  0  0  0  0
   40.5480   79.8090   61.3460 C   0  0  0  0  0  0  0  0  0  0  0  0
   40.4190   81.0520   61.9300 C   0  0  0  0  0  0  0  0  0  0  0  0
   40.2040   82.1440   61.1090 C   0  0  0  0  0  0  0  0  0  0  0  0
   40.0430   83.4240   61.5890 C   0  0  0  0  0  0  0  0  0  0  0  0
   39.8130   84.4970   60.7320 C   0  0  0  0  0  0  0  0  0  0  0  0
   39.7380   84.3280   59.3560 C   0  0  0  0  0  0  0  0  0  0  0  0
   39.9010   83.0460   58.8740 C   0  0  0  0  0  0  0  0  0  0  0  0
   40.1160   82.0220   59.7330 C   0  0  0  0  0  0  0  0  0  0  0  0
   40.5680   78.6620   59.7150 H   0  0  0  0  0  0  0  0  0  0  0  0
   40.7120   79.0130   62.0490 H   0  0  0  0  0  0  0  0  0  0  0  0
   40.4710   81.2660   62.9890 H   0  0  0  0  0  0  0  0  0  0  0  0
   40.1060   83.5450   62.6740 H   0  0  0  0  0  0  0  0  0  0  0  0
   39.7050   85.4440   61.2550 H   0  0  0  0  0  0  0  0  0  0  0  0
   39.5590   85.2270   58.7910 H   0  0  0  0  0  0  0  0  0  0  0  0
   39.8870   83.0800   57.8130 H   0  0  0  0  0  0  0  0  0  0  0  0
   38.9720   80.2690   56.9390 C   0  0  0  0  0  0  0  0  0  0  0  0
   40.1150   80.4370   57.7250 C   0  0  0  0  0  0  0  0  0  0  0  0
   41.4130   80.2030   57.1290 C   0  0  0  0  0  0  0  0  0  0  0  0
   41.4510   79.8270   55.8170 N   0  0  0  0  0  0  0  0  0  0  0  0
   40.2690   79.6830   55.1000 C   0  0  0  0  0  0  0  0  0  0  0  0
   39.0510   79.9050   55.6650 N   0  0  0  0  0  0  0  0  0  0  0  0
   38.0000   80.3500   57.3410 H   0  0  0  0  0  0  0  0  0  0  0  0
   42.3890   80.2740   57.5070 H   0  0  0  0  0  0  0  0  0  0  0  0
   40.2840   79.2480   53.6990 C   0  0  0  0  0  0  0  0  0  0  0  0
   40.9050   78.2360   53.3370 O   0  0  0  0  0  0  0  0  0  0  0  0
   39.5600   80.0010   52.6490 C   0  0  0  0  0  0  0  0  0  0  0  0
   38.3840   79.6380   52.1680 N   0  0  0  0  0  0  0  0  0  0  0  0
   38.0480   80.5710   51.2310 C   0  0  0  0  0  0  0  0  0  0  0  0
   37.1090   80.5070   50.6720 H   0  0  0  0  0  0  0  0  0  0  0  0
   39.0280   81.5000   51.1510 N   0  0  0  0  0  0  0  0  0  0  0  0
   38.9230   82.2730   50.4870 H   0  0  0  0  0  0  0  0  0  0  0  0
   39.9660   81.1460   52.0310 N   0  0  0  0  0  0  0  0  0  0  0  0
  1 10  2  0  0  0  0
  1  2  1  0  0  0  0
  2  3  2  0  0  0  0
  3  4  1  0  0  0  0
  3 12  1  0  0  0  0
  4 13  1  0  0  0  0
  5  6  1  0  0  0  0
  5  4  2  0  0  0  0
  6 14  1  0  0  0  0
  7 15  1  0  0  0  0
  7  6  2  0  0  0  0
  8  7  1  0  0  0  0
  9  8  2  0  0  0  0
  9 10  1  0  0  0  0
 10  5  1  0  0  0  0
 11  2  1  0  0  0  0
 16  8  1  0  0  0  0
 17  9  1  0  0  0  0
 18 24  1  0  0  0  0
 18 19  1  0  0  0  0
 19  1  1  0  0  0  0
 20 25  1  0  0  0  0
 20 19  2  0  0  0  0
 21 20  1  0  0  0  0
 22 23  1  0  0  0  0
 22 21  2  0  0  0  0
 23 18  2  0  0  0  0
 26 22  1  0  0  0  0
 27 26  2  0  0  0  0
 28 26  1  0  0  0  0
 29 28  1  0  0  0  0
 30 29  2  0  0  0  0
 31 30  1  0  0  0  0
 32 30  1  0  0  0  0
 32 34  1  0  0  0  0
 33 32  1  0  0  0  0
 34 28  2  0  0  0  0
M  END
>  <minimizedAffinity>
-4.91087198

>  <minimizedRMSD>
8.88832951

$$$$
