
 OpenBabel03212520583D

 40 44  0  0  1  0  0  0  0  0999 V2000
   39.8000   77.4020   59.1870 C   0  0  0  0  0  0  0  0  0  0  0  0
   40.5020   76.2710   58.9090 C   0  0  0  0  0  0  0  0  0  0  0  0
   39.9570   75.5670   57.8240 C   0  0  0  0  0  0  0  0  0  0  0  0
   38.8690   75.9550   57.1310 N   0  0  0  0  0  0  0  0  0  0  0  0
   38.2410   77.1110   57.4980 C   0  0  0  0  0  0  0  0  0  0  0  0
   38.7090   77.8430   58.5350 N   0  0  0  0  0  0  0  0  0  0  0  0
   41.3630   75.9170   59.4180 H   0  0  0  0  0  0  0  0  0  0  0  0
   40.4010   74.6370   57.4710 H   0  0  0  0  0  0  0  0  0  0  0  0
   40.9810   80.3410   61.7580 C   0  0  0  0  0  0  0  0  0  0  0  0
   40.9650   79.1070   62.3560 C   0  0  0  0  0  0  0  0  0  0  0  0
   40.5920   78.0460   61.6120 C   0  0  0  0  0  0  0  0  0  0  0  0
   40.2410   78.2420   60.2820 C   0  0  0  0  0  0  0  0  0  0  0  0
   40.4490   80.0550   60.0440 S   0  0  0  0  0  0  0  0  0  0  0  0
   41.2400   78.9540   63.4010 H   0  0  0  0  0  0  0  0  0  0  0  0
   40.5120   77.0040   61.8880 H   0  0  0  0  0  0  0  0  0  0  0  0
   43.0410   83.1530   62.9150 C   0  0  0  0  0  0  0  0  0  0  0  0
   42.1380   83.9030   63.7060 C   0  0  0  0  0  0  0  0  0  0  0  0
   40.8200   83.4430   63.8370 C   0  0  0  0  0  0  0  0  0  0  0  0
   40.4720   82.3040   63.2020 N   0  0  0  0  0  0  0  0  0  0  0  0
   41.3670   81.6020   62.4460 C   0  0  0  0  0  0  0  0  0  0  0  0
   42.6240   82.0330   62.3160 N   0  0  0  0  0  0  0  0  0  0  0  0
   44.0690   83.4650   62.7820 H   0  0  0  0  0  0  0  0  0  0  0  0
   42.4630   84.8010   64.1890 H   0  0  0  0  0  0  0  0  0  0  0  0
   40.0920   83.9810   64.4300 H   0  0  0  0  0  0  0  0  0  0  0  0
   37.0780   77.5120   56.7320 C   0  0  0  0  0  0  0  0  0  0  0  0
   35.9770   77.0580   57.0830 O   0  0  0  0  0  0  0  0  0  0  0  0
   37.1740   78.4370   55.5440 C   0  0  1  0  0  0  0  0  0  0  0  0
   37.2850   79.8890   55.9380 C   0  0  0  0  0  0  0  0  0  0  0  0
   38.3950   79.1780   55.3030 C   0  0  2  0  0  0  0  0  0  0  0  0
   36.2800   78.2880   54.8770 H   0  0  0  0  0  0  0  0  0  0  0  0
   37.3360   80.1530   57.0190 H   0  0  0  0  0  0  0  0  0  0  0  0
   36.7270   80.6220   55.3370 H   0  0  0  0  0  0  0  0  0  0  0  0
   39.2890   78.8600   55.9090 H   0  0  0  0  0  0  0  0  0  0  0  0
   38.8140   79.6250   53.9520 C   0  0  0  0  0  0  0  0  0  0  0  0
   38.2620   79.2210   52.7780 N   0  0  0  0  0  0  0  0  0  0  0  0
   38.8800   79.8210   51.7390 C   0  0  0  0  0  0  0  0  0  0  0  0
   38.5030   79.5570   50.7640 H   0  0  0  0  0  0  0  0  0  0  0  0
   39.8260   80.6060   52.2740 N   0  0  0  0  0  0  0  0  0  0  0  0
   40.4260   81.1660   51.6310 H   0  0  0  0  0  0  0  0  0  0  0  0
   39.7740   80.4780   53.6030 N   0  0  0  0  0  0  0  0  0  0  0  0
  1 12  1  0  0  0  0
  2  1  1  0  0  0  0
  2  7  1  0  0  0  0
  3  2  2  0  0  0  0
  4  5  2  0  0  0  0
  4  3  1  0  0  0  0
  5  6  1  0  0  0  0
  6  1  2  0  0  0  0
  8  3  1  0  0  0  0
  9 10  2  0  0  0  0
  9 20  1  0  0  0  0
 10 14  1  0  0  0  0
 11 15  1  0  0  0  0
 11 10  1  0  0  0  0
 12 11  2  0  0  0  0
 13 12  1  0  0  0  0
 13  9  1  0  0  0  0
 16 17  1  0  0  0  0
 17 18  2  0  0  0  0
 17 23  1  0  0  0  0
 18 24  1  0  0  0  0
 19 18  1  0  0  0  0
 20 19  2  0  0  0  0
 21 20  1  0  0  0  0
 21 16  2  0  0  0  0
 22 16  1  0  0  0  0
 25 26  2  0  0  0  0
 25  5  1  0  0  0  0
 27 30  1  6  0  0  0
 27 28  1  0  0  0  0
 27 25  1  0  0  0  0
 28 31  1  0  0  0  0
 29 27  1  0  0  0  0
 29 33  1  1  0  0  0
 29 28  1  0  0  0  0
 32 28  1  0  0  0  0
 34 29  1  0  0  0  0
 35 34  1  0  0  0  0
 36 38  1  0  0  0  0
 36 35  2  0  0  0  0
 37 36  1  0  0  0  0
 38 40  1  0  0  0  0
 39 38  1  0  0  0  0
 40 34  2  0  0  0  0
M  END
>  <minimizedAffinity>
-6.5635066

>  <minimizedRMSD>
0.294002026

$$$$
