
 OpenBabel03212520593D

 40 44  0  0  1  0  0  0  0  0999 V2000
   39.7810   77.4070   59.1690 C   0  0  0  0  0  0  0  0  0  0  0  0
   40.4750   76.2720   58.8940 C   0  0  0  0  0  0  0  0  0  0  0  0
   39.9290   75.5700   57.8070 C   0  0  0  0  0  0  0  0  0  0  0  0
   38.8460   75.9660   57.1110 N   0  0  0  0  0  0  0  0  0  0  0  0
   38.2250   77.1250   57.4750 C   0  0  0  0  0  0  0  0  0  0  0  0
   38.6950   77.8540   58.5140 N   0  0  0  0  0  0  0  0  0  0  0  0
   41.3330   75.9120   59.4050 H   0  0  0  0  0  0  0  0  0  0  0  0
   40.3680   74.6370   57.4560 H   0  0  0  0  0  0  0  0  0  0  0  0
   40.9710   80.3390   61.7440 C   0  0  0  0  0  0  0  0  0  0  0  0
   40.9490   79.1050   62.3400 C   0  0  0  0  0  0  0  0  0  0  0  0
   40.5720   78.0460   61.5960 C   0  0  0  0  0  0  0  0  0  0  0  0
   40.2240   78.2440   60.2650 C   0  0  0  0  0  0  0  0  0  0  0  0
   40.4390   80.0570   60.0290 S   0  0  0  0  0  0  0  0  0  0  0  0
   41.2220   78.9510   63.3850 H   0  0  0  0  0  0  0  0  0  0  0  0
   40.4880   77.0040   61.8710 H   0  0  0  0  0  0  0  0  0  0  0  0
   43.0400   83.1430   62.9030 C   0  0  0  0  0  0  0  0  0  0  0  0
   42.1390   83.8960   63.6950 C   0  0  0  0  0  0  0  0  0  0  0  0
   40.8200   83.4400   63.8260 C   0  0  0  0  0  0  0  0  0  0  0  0
   40.4690   82.3020   63.1900 N   0  0  0  0  0  0  0  0  0  0  0  0
   41.3610   81.5980   62.4330 C   0  0  0  0  0  0  0  0  0  0  0  0
   42.6190   82.0260   62.3030 N   0  0  0  0  0  0  0  0  0  0  0  0
   44.0690   83.4520   62.7690 H   0  0  0  0  0  0  0  0  0  0  0  0
   42.4680   84.7920   64.1790 H   0  0  0  0  0  0  0  0  0  0  0  0
   40.0940   83.9790   64.4200 H   0  0  0  0  0  0  0  0  0  0  0  0
   37.0670   77.5340   56.7060 C   0  0  0  0  0  0  0  0  0  0  0  0
   35.9530   77.1560   57.1040 O   0  0  0  0  0  0  0  0  0  0  0  0
   37.1830   78.3780   55.4610 C   0  0  1  0  0  0  0  0  0  0  0  0
   37.3660   79.8450   55.7600 C   0  0  0  0  0  0  0  0  0  0  0  0
   38.4310   79.0450   55.1540 C   0  0  2  0  0  0  0  0  0  0  0  0
   36.2700   78.2290   54.8180 H   0  0  0  0  0  0  0  0  0  0  0  0
   37.4500   80.1730   56.8220 H   0  0  0  0  0  0  0  0  0  0  0  0
   36.8320   80.5640   55.1240 H   0  0  0  0  0  0  0  0  0  0  0  0
   39.3210   78.7230   55.7650 H   0  0  0  0  0  0  0  0  0  0  0  0
   38.8440   79.3870   53.7710 C   0  0  0  0  0  0  0  0  0  0  0  0
   38.1690   80.2080   52.9240 N   0  0  0  0  0  0  0  0  0  0  0  0
   38.8200   80.3020   51.7450 C   0  0  0  0  0  0  0  0  0  0  0  0
   38.3520   80.9360   51.0090 H   0  0  0  0  0  0  0  0  0  0  0  0
   39.9120   79.5320   51.8630 N   0  0  0  0  0  0  0  0  0  0  0  0
   40.5610   79.4660   51.0490 H   0  0  0  0  0  0  0  0  0  0  0  0
   39.9120   78.9900   53.0840 N   0  0  0  0  0  0  0  0  0  0  0  0
  1 12  1  0  0  0  0
  2  1  1  0  0  0  0
  2  7  1  0  0  0  0
  3  2  2  0  0  0  0
  4  5  2  0  0  0  0
  4  3  1  0  0  0  0
  5  6  1  0  0  0  0
  6  1  2  0  0  0  0
  8  3  1  0  0  0  0
  9 10  2  0  0  0  0
  9 20  1  0  0  0  0
 10 14  1  0  0  0  0
 11 15  1  0  0  0  0
 11 10  1  0  0  0  0
 12 11  2  0  0  0  0
 13 12  1  0  0  0  0
 13  9  1  0  0  0  0
 16 17  1  0  0  0  0
 17 18  2  0  0  0  0
 17 23  1  0  0  0  0
 18 24  1  0  0  0  0
 19 18  1  0  0  0  0
 20 19  2  0  0  0  0
 21 20  1  0  0  0  0
 21 16  2  0  0  0  0
 22 16  1  0  0  0  0
 25 26  2  0  0  0  0
 25  5  1  0  0  0  0
 27 30  1  6  0  0  0
 27 28  1  0  0  0  0
 27 25  1  0  0  0  0
 28 31  1  0  0  0  0
 29 27  1  0  0  0  0
 29 28  1  0  0  0  0
 29 33  1  1  0  0  0
 32 28  1  0  0  0  0
 34 29  1  0  0  0  0
 35 34  1  0  0  0  0
 36 38  1  0  0  0  0
 36 35  2  0  0  0  0
 37 36  1  0  0  0  0
 38 40  1  0  0  0  0
 39 38  1  0  0  0  0
 40 34  2  0  0  0  0
M  END
>  <minimizedAffinity>
-6.35042906

>  <minimizedRMSD>
0.233841315

$$$$
