
 OpenBabel03212520313D

 39 42  0  0  0  0  0  0  0  0999 V2000
   42.5080   82.5570   61.9800 C   0  0  0  0  0  0  0  0  0  0  0  0
   42.9350   81.6800   60.9900 C   0  0  0  0  0  0  0  0  0  0  0  0
   44.1800   81.0870   61.0490 C   0  0  0  0  0  0  0  0  0  0  0  0
   45.0770   81.3250   62.0920 C   0  0  0  0  0  0  0  0  0  0  0  0
   44.6800   82.1900   63.0880 C   0  0  0  0  0  0  0  0  0  0  0  0
   43.4310   82.7820   63.0230 C   0  0  0  0  0  0  0  0  0  0  0  0
   44.4760   80.4070   60.2530 H   0  0  0  0  0  0  0  0  0  0  0  0
   46.0240   80.8110   62.0420 H   0  0  0  0  0  0  0  0  0  0  0  0
   45.3500   82.3840   63.8930 H   0  0  0  0  0  0  0  0  0  0  0  0
   43.1650   83.4510   63.8240 H   0  0  0  0  0  0  0  0  0  0  0  0
   40.4360   80.0430   58.8150 C   0  0  0  0  0  0  0  0  0  0  0  0
   40.4880   80.8110   57.6700 C   0  0  0  0  0  0  0  0  0  0  0  0
   41.3880   81.8790   57.6750 C   0  0  0  0  0  0  0  0  0  0  0  0
   42.1430   82.0920   58.7860 N   0  0  0  0  0  0  0  0  0  0  0  0
   42.0710   81.3400   59.8670 C   0  0  0  0  0  0  0  0  0  0  0  0
   41.2160   80.3230   59.8660 N   0  0  0  0  0  0  0  0  0  0  0  0
   39.7330   79.2140   58.8020 H   0  0  0  0  0  0  0  0  0  0  0  0
   41.4840   82.5210   56.8160 H   0  0  0  0  0  0  0  0  0  0  0  0
   39.6700   80.5310   56.5470 N   0  0  0  0  0  0  0  0  0  0  0  0
   38.3690   80.4130   56.8570 C   0  0  0  0  0  0  0  0  0  0  0  0
   37.4710   80.1290   55.8240 C   0  0  0  0  0  0  0  0  0  0  0  0
   37.9580   79.9820   54.5200 C   0  0  0  0  0  0  0  0  0  0  0  0
   37.2520   79.7280   53.5140 O   0  0  0  0  0  0  0  0  0  0  0  0
   39.3050   80.1210   54.2930 N   0  0  0  0  0  0  0  0  0  0  0  0
   40.1710   80.3960   55.3030 C   0  0  0  0  0  0  0  0  0  0  0  0
   41.3920   80.5240   55.1120 O   0  0  0  0  0  0  0  0  0  0  0  0
   37.9590   80.5170   57.8420 H   0  0  0  0  0  0  0  0  0  0  0  0
   36.4200   80.0170   55.9740 H   0  0  0  0  0  0  0  0  0  0  0  0
   39.7370   80.0240   53.3510 H   0  0  0  0  0  0  0  0  0  0  0  0
   40.9670   83.3230   61.9300 S   0  0  0  0  0  0  0  0  0  0  0  0
   40.7940   84.2140   63.1420 O   0  0  0  0  0  0  0  0  0  0  0  0
   39.9250   82.2190   62.1870 O   0  0  0  0  0  0  0  0  0  0  0  0
   40.5550   84.2560   60.5480 C   0  0  0  0  0  0  0  0  0  0  0  0
   41.0430   85.1400   59.6650 N   0  0  0  0  0  0  0  0  0  0  0  0
   40.0900   85.4870   58.8230 C   0  0  0  0  0  0  0  0  0  0  0  0
   40.3590   86.2130   58.0410 H   0  0  0  0  0  0  0  0  0  0  0  0
   38.9610   84.8560   59.1160 N   0  0  0  0  0  0  0  0  0  0  0  0
   38.0860   84.9910   58.5690 H   0  0  0  0  0  0  0  0  0  0  0  0
   39.2520   84.1140   60.1600 N   0  0  0  0  0  0  0  0  0  0  0  0
  1  6  1  0  0  0  0
  2  3  1  0  0  0  0
  2  1  2  0  0  0  0
  3  4  2  0  0  0  0
  4  5  1  0  0  0  0
  5  9  1  0  0  0  0
  6  5  2  0  0  0  0
  6 10  1  0  0  0  0
  7  3  1  0  0  0  0
  8  4  1  0  0  0  0
 11 16  1  0  0  0  0
 12 13  1  0  0  0  0
 12 11  2  0  0  0  0
 13 14  2  0  0  0  0
 14 15  1  0  0  0  0
 15  2  1  0  0  0  0
 16 15  2  0  0  0  0
 17 11  1  0  0  0  0
 18 13  1  0  0  0  0
 19 20  1  0  0  0  0
 19 12  1  0  0  0  0
 20 27  1  0  0  0  0
 21 28  1  0  0  0  0
 21 20  2  0  0  0  0
 22 21  1  0  0  0  0
 23 22  2  0  0  0  0
 24 22  1  0  0  0  0
 24 25  1  0  0  0  0
 25 19  1  0  0  0  0
 26 25  2  0  0  0  0
 29 24  1  0  0  0  0
 30  1  1  0  0  0  0
 30 32  2  0  0  0  0
 30 31  2  0  0  0  0
 33 30  1  0  0  0  0
 34 33  1  0  0  0  0
 35 37  1  0  0  0  0
 35 34  2  0  0  0  0
 36 35  1  0  0  0  0
 37 39  1  0  0  0  0
 38 37  1  0  0  0  0
 39 33  2  0  0  0  0
M  END
>  <minimizedAffinity>
-5.97674417

>  <minimizedRMSD>
0.78568995

$$$$
