
 OpenBabel03212520353D

 34 37  0  0  0  0  0  0  0  0999 V2000
   40.4640   81.1050   58.9080 C   0  0  0  0  0  0  0  0  0  0  0  0
   40.6420   79.8280   59.4960 C   0  0  0  0  0  0  0  0  0  0  0  0
   40.4830   79.5770   60.8280 C   0  0  0  0  0  0  0  0  0  0  0  0
   40.1270   80.6130   61.6680 C   0  0  0  0  0  0  0  0  0  0  0  0
   39.9480   81.8710   61.1210 C   0  0  0  0  0  0  0  0  0  0  0  0
   39.5750   82.9670   61.8640 C   0  0  0  0  0  0  0  0  0  0  0  0
   39.3900   84.2140   61.2750 C   0  0  0  0  0  0  0  0  0  0  0  0
   39.5750   84.4130   59.9130 C   0  0  0  0  0  0  0  0  0  0  0  0
   39.9500   83.3150   59.1670 C   0  0  0  0  0  0  0  0  0  0  0  0
   40.1150   82.1130   59.7670 C   0  0  0  0  0  0  0  0  0  0  0  0
   40.9060   78.9070   58.9980 H   0  0  0  0  0  0  0  0  0  0  0  0
   40.6020   78.6340   61.3280 H   0  0  0  0  0  0  0  0  0  0  0  0
   39.9700   80.5410   62.7360 H   0  0  0  0  0  0  0  0  0  0  0  0
   39.4340   82.7990   62.9350 H   0  0  0  0  0  0  0  0  0  0  0  0
   39.0950   84.9820   61.9860 H   0  0  0  0  0  0  0  0  0  0  0  0
   39.4060   85.4190   59.5680 H   0  0  0  0  0  0  0  0  0  0  0  0
   40.1190   83.6280   58.1680 H   0  0  0  0  0  0  0  0  0  0  0  0
   39.6970   80.8700   56.4570 C   0  0  0  0  0  0  0  0  0  0  0  0
   40.6290   81.1190   57.4670 C   0  0  0  0  0  0  0  0  0  0  0  0
   41.9960   81.4190   57.0970 C   0  0  0  0  0  0  0  0  0  0  0  0
   42.3040   81.4410   55.7670 N   0  0  0  0  0  0  0  0  0  0  0  0
   41.3190   81.1840   54.8210 C   0  0  0  0  0  0  0  0  0  0  0  0
   40.0350   80.9040   55.1740 N   0  0  0  0  0  0  0  0  0  0  0  0
   38.7070   80.5710   56.6710 H   0  0  0  0  0  0  0  0  0  0  0  0
   42.8500   81.6450   57.6640 H   0  0  0  0  0  0  0  0  0  0  0  0
   41.6340   81.1700   53.3880 C   0  0  0  0  0  0  0  0  0  0  0  0
   40.7440   81.1090   52.5250 O   0  0  0  0  0  0  0  0  0  0  0  0
   43.0330   81.2250   52.9060 C   0  0  0  0  0  0  0  0  0  0  0  0
   43.7730   80.1540   52.6830 N   0  0  0  0  0  0  0  0  0  0  0  0
   44.9860   80.6060   52.2540 C   0  0  0  0  0  0  0  0  0  0  0  0
   45.7960   79.9150   51.9970 H   0  0  0  0  0  0  0  0  0  0  0  0
   44.9740   81.9590   52.2200 N   0  0  0  0  0  0  0  0  0  0  0  0
   45.8180   82.4530   51.9170 H   0  0  0  0  0  0  0  0  0  0  0  0
   43.7630   82.3410   52.6250 N   0  0  0  0  0  0  0  0  0  0  0  0
  1  2  2  0  0  0  0
  1 10  1  0  0  0  0
  2  3  1  0  0  0  0
  3 12  1  0  0  0  0
  3  4  2  0  0  0  0
  4 13  1  0  0  0  0
  5  4  1  0  0  0  0
  5  6  1  0  0  0  0
  6 14  1  0  0  0  0
  7  6  2  0  0  0  0
  7 15  1  0  0  0  0
  8  7  1  0  0  0  0
  9 10  1  0  0  0  0
  9  8  2  0  0  0  0
 10  5  2  0  0  0  0
 11  2  1  0  0  0  0
 16  8  1  0  0  0  0
 17  9  1  0  0  0  0
 18 24  1  0  0  0  0
 18 19  1  0  0  0  0
 19  1  1  0  0  0  0
 20 19  2  0  0  0  0
 20 25  1  0  0  0  0
 21 20  1  0  0  0  0
 22 23  1  0  0  0  0
 22 21  2  0  0  0  0
 23 18  2  0  0  0  0
 26 22  1  0  0  0  0
 27 26  2  0  0  0  0
 28 26  1  0  0  0  0
 29 28  1  0  0  0  0
 30 29  2  0  0  0  0
 31 30  1  0  0  0  0
 32 30  1  0  0  0  0
 32 34  1  0  0  0  0
 33 32  1  0  0  0  0
 34 28  2  0  0  0  0
M  END
>  <minimizedAffinity>
-4.83058786

>  <minimizedRMSD>
8.69485664

$$$$
