
 OpenBabel03212520353D

 34 37  0  0  0  0  0  0  0  0999 V2000
   40.2910   80.9670   58.9550 C   0  0  0  0  0  0  0  0  0  0  0  0
   40.4530   79.7260   59.6160 C   0  0  0  0  0  0  0  0  0  0  0  0
   40.3850   79.5740   60.9720 C   0  0  0  0  0  0  0  0  0  0  0  0
   40.1440   80.6800   61.7600 C   0  0  0  0  0  0  0  0  0  0  0  0
   39.9830   81.9060   61.1400 C   0  0  0  0  0  0  0  0  0  0  0  0
   39.7210   83.0680   61.8290 C   0  0  0  0  0  0  0  0  0  0  0  0
   39.5510   84.2810   61.1680 C   0  0  0  0  0  0  0  0  0  0  0  0
   39.6400   84.3780   59.7860 C   0  0  0  0  0  0  0  0  0  0  0  0
   39.9040   83.2140   59.0940 C   0  0  0  0  0  0  0  0  0  0  0  0
   40.0580   82.0480   59.7640 C   0  0  0  0  0  0  0  0  0  0  0  0
   40.6330   78.7610   59.1680 H   0  0  0  0  0  0  0  0  0  0  0  0
   40.4970   78.6600   61.5270 H   0  0  0  0  0  0  0  0  0  0  0  0
   40.0670   80.6890   62.8390 H   0  0  0  0  0  0  0  0  0  0  0  0
   39.6560   82.9800   62.9170 H   0  0  0  0  0  0  0  0  0  0  0  0
   39.3490   85.1100   61.8430 H   0  0  0  0  0  0  0  0  0  0  0  0
   39.4930   85.3660   59.3840 H   0  0  0  0  0  0  0  0  0  0  0  0
   40.0100   83.4510   58.0650 H   0  0  0  0  0  0  0  0  0  0  0  0
   39.3080   80.7480   56.5810 C   0  0  0  0  0  0  0  0  0  0  0  0
   40.3440   80.8770   57.5080 C   0  0  0  0  0  0  0  0  0  0  0  0
   41.7100   80.9030   57.0300 C   0  0  0  0  0  0  0  0  0  0  0  0
   41.9140   80.7990   55.6830 N   0  0  0  0  0  0  0  0  0  0  0  0
   40.8290   80.6770   54.8230 C   0  0  0  0  0  0  0  0  0  0  0  0
   39.5470   80.6530   55.2780 N   0  0  0  0  0  0  0  0  0  0  0  0
   38.3000   80.6450   56.8780 H   0  0  0  0  0  0  0  0  0  0  0  0
   42.6320   81.0010   57.5230 H   0  0  0  0  0  0  0  0  0  0  0  0
   41.0260   80.5310   53.3770 C   0  0  0  0  0  0  0  0  0  0  0  0
   41.0950   81.5160   52.6250 O   0  0  0  0  0  0  0  0  0  0  0  0
   41.1490   79.1970   52.7460 C   0  0  0  0  0  0  0  0  0  0  0  0
   41.4250   79.0150   51.4670 N   0  0  0  0  0  0  0  0  0  0  0  0
   41.4560   77.6660   51.2680 C   0  0  0  0  0  0  0  0  0  0  0  0
   41.6650   77.2370   50.2830 H   0  0  0  0  0  0  0  0  0  0  0  0
   41.1970   77.0340   52.4360 N   0  0  0  0  0  0  0  0  0  0  0  0
   41.1850   76.0100   52.4520 H   0  0  0  0  0  0  0  0  0  0  0  0
   41.0080   77.9830   53.3520 N   0  0  0  0  0  0  0  0  0  0  0  0
  1  2  2  0  0  0  0
  1 10  1  0  0  0  0
  2  3  1  0  0  0  0
  3 12  1  0  0  0  0
  3  4  2  0  0  0  0
  4 13  1  0  0  0  0
  5  4  1  0  0  0  0
  5  6  1  0  0  0  0
  6 14  1  0  0  0  0
  7  6  2  0  0  0  0
  7 15  1  0  0  0  0
  8  7  1  0  0  0  0
  9 10  1  0  0  0  0
  9  8  2  0  0  0  0
 10  5  2  0  0  0  0
 11  2  1  0  0  0  0
 16  8  1  0  0  0  0
 17  9  1  0  0  0  0
 18 24  1  0  0  0  0
 18 19  1  0  0  0  0
 19  1  1  0  0  0  0
 20 19  2  0  0  0  0
 20 25  1  0  0  0  0
 21 20  1  0  0  0  0
 22 23  1  0  0  0  0
 22 21  2  0  0  0  0
 23 18  2  0  0  0  0
 26 22  1  0  0  0  0
 27 26  2  0  0  0  0
 28 34  2  0  0  0  0
 28 26  1  0  0  0  0
 29 28  1  0  0  0  0
 30 29  2  0  0  0  0
 30 32  1  0  0  0  0
 31 30  1  0  0  0  0
 32 33  1  0  0  0  0
 32 34  1  0  0  0  0
M  END
>  <minimizedAffinity>
-4.94117928

>  <minimizedRMSD>
9.17677116

$$$$
