
 OpenBabel03212520353D

 34 37  0  0  0  0  0  0  0  0999 V2000
   40.6860   81.2120   59.3460 C   0  0  0  0  0  0  0  0  0  0  0  0
   40.3560   80.3050   60.3820 C   0  0  0  0  0  0  0  0  0  0  0  0
   40.5170   80.5790   61.7100 C   0  0  0  0  0  0  0  0  0  0  0  0
   41.0290   81.8040   62.0850 C   0  0  0  0  0  0  0  0  0  0  0  0
   41.3610   82.7090   61.0930 C   0  0  0  0  0  0  0  0  0  0  0  0
   41.8600   83.9630   61.3580 C   0  0  0  0  0  0  0  0  0  0  0  0
   42.1700   84.8520   60.3320 C   0  0  0  0  0  0  0  0  0  0  0  0
   41.9930   84.5160   58.9960 C   0  0  0  0  0  0  0  0  0  0  0  0
   41.4940   83.2570   58.7300 C   0  0  0  0  0  0  0  0  0  0  0  0
   41.1960   82.4180   59.7490 C   0  0  0  0  0  0  0  0  0  0  0  0
   39.9370   79.3150   60.2800 H   0  0  0  0  0  0  0  0  0  0  0  0
   40.2840   79.9330   62.5370 H   0  0  0  0  0  0  0  0  0  0  0  0
   41.2010   82.1380   63.0990 H   0  0  0  0  0  0  0  0  0  0  0  0
   41.9980   84.2170   62.4120 H   0  0  0  0  0  0  0  0  0  0  0  0
   42.5530   85.8040   60.6930 H   0  0  0  0  0  0  0  0  0  0  0  0
   42.2670   85.2800   58.2890 H   0  0  0  0  0  0  0  0  0  0  0  0
   41.4770   83.1180   57.6780 H   0  0  0  0  0  0  0  0  0  0  0  0
   39.5780   81.2970   57.0180 C   0  0  0  0  0  0  0  0  0  0  0  0
   40.3730   80.7270   58.0150 C   0  0  0  0  0  0  0  0  0  0  0  0
   40.9920   79.4420   57.7650 C   0  0  0  0  0  0  0  0  0  0  0  0
   40.7610   78.8510   56.5550 N   0  0  0  0  0  0  0  0  0  0  0  0
   39.9590   79.4840   55.6130 C   0  0  0  0  0  0  0  0  0  0  0  0
   39.3800   80.6920   55.8540 N   0  0  0  0  0  0  0  0  0  0  0  0
   39.0410   82.1920   57.1750 H   0  0  0  0  0  0  0  0  0  0  0  0
   41.6250   78.8360   58.3420 H   0  0  0  0  0  0  0  0  0  0  0  0
   39.6710   78.8520   54.3210 C   0  0  0  0  0  0  0  0  0  0  0  0
   40.5650   78.6330   53.4880 O   0  0  0  0  0  0  0  0  0  0  0  0
   38.2960   78.4470   53.9500 C   0  0  0  0  0  0  0  0  0  0  0  0
   37.7240   77.3300   54.3660 N   0  0  0  0  0  0  0  0  0  0  0  0
   36.4740   77.3110   53.8210 C   0  0  0  0  0  0  0  0  0  0  0  0
   35.7820   76.4860   54.0080 H   0  0  0  0  0  0  0  0  0  0  0  0
   36.2940   78.4240   53.0720 N   0  0  0  0  0  0  0  0  0  0  0  0
   35.3990   78.5570   52.5930 H   0  0  0  0  0  0  0  0  0  0  0  0
   37.4240   79.1270   53.1540 N   0  0  0  0  0  0  0  0  0  0  0  0
  1 10  2  0  0  0  0
  1  2  1  0  0  0  0
  2  3  2  0  0  0  0
  3  4  1  0  0  0  0
  3 12  1  0  0  0  0
  4 13  1  0  0  0  0
  5  6  1  0  0  0  0
  5  4  2  0  0  0  0
  6 14  1  0  0  0  0
  7 15  1  0  0  0  0
  7  6  2  0  0  0  0
  8  7  1  0  0  0  0
  9  8  2  0  0  0  0
  9 10  1  0  0  0  0
 10  5  1  0  0  0  0
 11  2  1  0  0  0  0
 16  8  1  0  0  0  0
 17  9  1  0  0  0  0
 18 24  1  0  0  0  0
 18 19  1  0  0  0  0
 19  1  1  0  0  0  0
 20 19  2  0  0  0  0
 20 25  1  0  0  0  0
 21 20  1  0  0  0  0
 22 23  1  0  0  0  0
 22 21  2  0  0  0  0
 23 18  2  0  0  0  0
 26 22  1  0  0  0  0
 27 26  2  0  0  0  0
 28 26  1  0  0  0  0
 28 29  1  0  0  0  0
 30 31  1  0  0  0  0
 30 29  2  0  0  0  0
 32 34  1  0  0  0  0
 32 30  1  0  0  0  0
 33 32  1  0  0  0  0
 34 28  2  0  0  0  0
M  END
>  <minimizedAffinity>
-4.93421125

>  <minimizedRMSD>
8.82400131

$$$$
