
 OpenBabel03212520313D

 39 42  0  0  0  0  0  0  0  0999 V2000
   42.6020   82.7840   62.3810 C   0  0  0  0  0  0  0  0  0  0  0  0
   42.9520   81.6500   61.6580 C   0  0  0  0  0  0  0  0  0  0  0  0
   44.1830   81.0500   61.8200 C   0  0  0  0  0  0  0  0  0  0  0  0
   45.1440   81.5350   62.7110 C   0  0  0  0  0  0  0  0  0  0  0  0
   44.8250   82.6570   63.4420 C   0  0  0  0  0  0  0  0  0  0  0  0
   43.5880   83.2550   63.2740 C   0  0  0  0  0  0  0  0  0  0  0  0
   44.4180   80.1630   61.2330 H   0  0  0  0  0  0  0  0  0  0  0  0
   46.0750   80.9910   62.7610 H   0  0  0  0  0  0  0  0  0  0  0  0
   45.5440   83.0420   64.1270 H   0  0  0  0  0  0  0  0  0  0  0  0
   43.3840   84.1300   63.8680 H   0  0  0  0  0  0  0  0  0  0  0  0
   40.2230   79.6490   60.1720 C   0  0  0  0  0  0  0  0  0  0  0  0
   40.3100   79.9730   58.8330 C   0  0  0  0  0  0  0  0  0  0  0  0
   41.3120   80.8770   58.4740 C   0  0  0  0  0  0  0  0  0  0  0  0
   42.1250   81.3720   59.4450 N   0  0  0  0  0  0  0  0  0  0  0  0
   42.0170   81.0430   60.7180 C   0  0  0  0  0  0  0  0  0  0  0  0
   41.0650   80.1840   61.0640 N   0  0  0  0  0  0  0  0  0  0  0  0
   39.4410   78.9450   60.4430 H   0  0  0  0  0  0  0  0  0  0  0  0
   41.4410   81.1760   57.4480 H   0  0  0  0  0  0  0  0  0  0  0  0
   39.4280   79.4180   57.8730 N   0  0  0  0  0  0  0  0  0  0  0  0
   38.9980   80.3140   56.9700 C   0  0  0  0  0  0  0  0  0  0  0  0
   38.1150   79.8750   55.9790 C   0  0  0  0  0  0  0  0  0  0  0  0
   37.7190   78.5330   55.9660 C   0  0  0  0  0  0  0  0  0  0  0  0
   36.9340   78.0230   55.1290 O   0  0  0  0  0  0  0  0  0  0  0  0
   38.2090   77.6860   56.9280 N   0  0  0  0  0  0  0  0  0  0  0  0
   39.0670   78.1200   57.8880 C   0  0  0  0  0  0  0  0  0  0  0  0
   39.5180   77.3640   58.7650 O   0  0  0  0  0  0  0  0  0  0  0  0
   39.2780   81.3490   56.9480 H   0  0  0  0  0  0  0  0  0  0  0  0
   37.7210   80.5140   55.2200 H   0  0  0  0  0  0  0  0  0  0  0  0
   37.9580   76.6760   56.9800 H   0  0  0  0  0  0  0  0  0  0  0  0
   41.0790   83.5640   62.1930 S   0  0  0  0  0  0  0  0  0  0  0  0
   40.9060   84.6230   63.2620 O   0  0  0  0  0  0  0  0  0  0  0  0
   40.0090   82.5280   62.5860 O   0  0  0  0  0  0  0  0  0  0  0  0
   40.7100   84.2970   60.6840 C   0  0  0  0  0  0  0  0  0  0  0  0
   41.2530   84.7100   59.5300 N   0  0  0  0  0  0  0  0  0  0  0  0
   40.3160   85.2510   58.7750 C   0  0  0  0  0  0  0  0  0  0  0  0
   40.6300   85.6330   57.7930 H   0  0  0  0  0  0  0  0  0  0  0  0
   39.1450   85.2130   59.3960 N   0  0  0  0  0  0  0  0  0  0  0  0
   38.2740   85.5900   58.9690 H   0  0  0  0  0  0  0  0  0  0  0  0
   39.3920   84.6350   60.5480 N   0  0  0  0  0  0  0  0  0  0  0  0
  1  6  1  0  0  0  0
  2  3  1  0  0  0  0
  2  1  2  0  0  0  0
  3  4  2  0  0  0  0
  4  8  1  0  0  0  0
  4  5  1  0  0  0  0
  5  9  1  0  0  0  0
  6  5  2  0  0  0  0
  6 10  1  0  0  0  0
  7  3  1  0  0  0  0
 11 17  1  0  0  0  0
 11 16  1  0  0  0  0
 12 11  2  0  0  0  0
 13 12  1  0  0  0  0
 13 14  2  0  0  0  0
 14 15  1  0  0  0  0
 15 16  2  0  0  0  0
 15  2  1  0  0  0  0
 18 13  1  0  0  0  0
 19 25  1  0  0  0  0
 19 12  1  0  0  0  0
 20 19  1  0  0  0  0
 21 20  2  0  0  0  0
 22 21  1  0  0  0  0
 22 24  1  0  0  0  0
 23 22  2  0  0  0  0
 24 29  1  0  0  0  0
 24 25  1  0  0  0  0
 25 26  2  0  0  0  0
 27 20  1  0  0  0  0
 28 21  1  0  0  0  0
 30  1  1  0  0  0  0
 30 32  2  0  0  0  0
 30 31  2  0  0  0  0
 33 30  1  0  0  0  0
 34 33  1  0  0  0  0
 35 37  1  0  0  0  0
 35 34  2  0  0  0  0
 36 35  1  0  0  0  0
 37 39  1  0  0  0  0
 38 37  1  0  0  0  0
 39 33  2  0  0  0  0
M  END
>  <minimizedAffinity>
-6.66432858

>  <minimizedRMSD>
1.86556518

$$$$
