
 OpenBabel03212520353D

 34 37  0  0  0  0  0  0  0  0999 V2000
   42.2900   81.6160   61.5950 C   0  0  0  0  0  0  0  0  0  0  0  0
   43.6740   81.3190   61.5670 C   0  0  0  0  0  0  0  0  0  0  0  0
   44.5980   81.9330   62.3630 C   0  0  0  0  0  0  0  0  0  0  0  0
   44.1800   82.9000   63.2530 C   0  0  0  0  0  0  0  0  0  0  0  0
   42.8330   83.2110   63.3010 C   0  0  0  0  0  0  0  0  0  0  0  0
   42.3080   84.1460   64.1640 C   0  0  0  0  0  0  0  0  0  0  0  0
   40.9430   84.4210   64.1920 C   0  0  0  0  0  0  0  0  0  0  0  0
   40.0500   83.7700   63.3520 C   0  0  0  0  0  0  0  0  0  0  0  0
   40.5750   82.8340   62.4850 C   0  0  0  0  0  0  0  0  0  0  0  0
   41.9050   82.5830   62.4860 C   0  0  0  0  0  0  0  0  0  0  0  0
   44.1780   80.5900   60.9510 H   0  0  0  0  0  0  0  0  0  0  0  0
   45.6570   81.7480   62.3870 H   0  0  0  0  0  0  0  0  0  0  0  0
   44.8120   83.4550   63.9350 H   0  0  0  0  0  0  0  0  0  0  0  0
   43.0200   84.6530   64.8190 H   0  0  0  0  0  0  0  0  0  0  0  0
   40.6770   85.1790   64.9250 H   0  0  0  0  0  0  0  0  0  0  0  0
   39.0200   84.0650   63.4600 H   0  0  0  0  0  0  0  0  0  0  0  0
   39.7940   82.4730   61.8650 H   0  0  0  0  0  0  0  0  0  0  0  0
   40.8540   79.5760   60.9400 C   0  0  0  0  0  0  0  0  0  0  0  0
   41.4920   80.7960   60.7040 C   0  0  0  0  0  0  0  0  0  0  0  0
   41.4130   81.3800   59.3820 C   0  0  0  0  0  0  0  0  0  0  0  0
   40.7120   80.7000   58.4270 N   0  0  0  0  0  0  0  0  0  0  0  0
   40.1020   79.4910   58.7420 C   0  0  0  0  0  0  0  0  0  0  0  0
   40.1790   78.9470   59.9860 N   0  0  0  0  0  0  0  0  0  0  0  0
   40.9440   79.0680   61.8610 H   0  0  0  0  0  0  0  0  0  0  0  0
   41.7920   82.2720   58.9770 H   0  0  0  0  0  0  0  0  0  0  0  0
   39.3710   78.7280   57.7240 C   0  0  0  0  0  0  0  0  0  0  0  0
   39.2340   77.4970   57.8060 O   0  0  0  0  0  0  0  0  0  0  0  0
   38.7650   79.3930   56.5480 C   0  0  0  0  0  0  0  0  0  0  0  0
   37.4910   79.7400   56.4810 N   0  0  0  0  0  0  0  0  0  0  0  0
   37.3140   80.3190   55.2600 C   0  0  0  0  0  0  0  0  0  0  0  0
   36.3380   80.7000   54.9430 H   0  0  0  0  0  0  0  0  0  0  0  0
   38.4890   80.3200   54.5890 N   0  0  0  0  0  0  0  0  0  0  0  0
   38.5210   80.7250   53.6480 H   0  0  0  0  0  0  0  0  0  0  0  0
   39.3870   79.7460   55.3890 N   0  0  0  0  0  0  0  0  0  0  0  0
  1 10  1  0  0  0  0
  2  1  2  0  0  0  0
  2  3  1  0  0  0  0
  3 12  1  0  0  0  0
  3  4  2  0  0  0  0
  4  5  1  0  0  0  0
  4 13  1  0  0  0  0
  5  6  1  0  0  0  0
  6  7  2  0  0  0  0
  6 14  1  0  0  0  0
  7 15  1  0  0  0  0
  8 16  1  0  0  0  0
  8  7  1  0  0  0  0
  9 10  1  0  0  0  0
  9  8  2  0  0  0  0
 10  5  2  0  0  0  0
 11  2  1  0  0  0  0
 17  9  1  0  0  0  0
 18 24  1  0  0  0  0
 19 18  1  0  0  0  0
 19  1  1  0  0  0  0
 20 19  2  0  0  0  0
 21 22  2  0  0  0  0
 21 20  1  0  0  0  0
 22 23  1  0  0  0  0
 23 18  2  0  0  0  0
 25 20  1  0  0  0  0
 26 27  2  0  0  0  0
 26 22  1  0  0  0  0
 28 26  1  0  0  0  0
 29 28  1  0  0  0  0
 30 29  2  0  0  0  0
 31 30  1  0  0  0  0
 32 30  1  0  0  0  0
 32 34  1  0  0  0  0
 33 32  1  0  0  0  0
 34 28  2  0  0  0  0
M  END
>  <minimizedAffinity>
-5.84145164

>  <minimizedRMSD>
7.7763896

$$$$
