
 OpenBabel03212520593D

 40 44  0  0  1  0  0  0  0  0999 V2000
   39.7560   77.3370   59.2330 C   0  0  0  0  0  0  0  0  0  0  0  0
   40.4090   76.1690   58.9980 C   0  0  0  0  0  0  0  0  0  0  0  0
   39.8490   75.4600   57.9230 C   0  0  0  0  0  0  0  0  0  0  0  0
   38.7910   75.8780   57.2020 N   0  0  0  0  0  0  0  0  0  0  0  0
   38.2110   77.0700   57.5270 C   0  0  0  0  0  0  0  0  0  0  0  0
   38.6960   77.8080   58.5520 N   0  0  0  0  0  0  0  0  0  0  0  0
   41.2450   75.7900   59.5300 H   0  0  0  0  0  0  0  0  0  0  0  0
   40.2560   74.5020   57.6030 H   0  0  0  0  0  0  0  0  0  0  0  0
   40.9800   80.2980   61.7580 C   0  0  0  0  0  0  0  0  0  0  0  0
   40.9850   79.0680   62.3630 C   0  0  0  0  0  0  0  0  0  0  0  0
   40.6010   78.0000   61.6350 C   0  0  0  0  0  0  0  0  0  0  0  0
   40.2180   78.1860   60.3120 C   0  0  0  0  0  0  0  0  0  0  0  0
   40.4080   79.9990   60.0590 S   0  0  0  0  0  0  0  0  0  0  0  0
   41.2870   78.9230   63.4020 H   0  0  0  0  0  0  0  0  0  0  0  0
   40.5350   76.9590   61.9190 H   0  0  0  0  0  0  0  0  0  0  0  0
   43.0570   83.1140   62.8740 C   0  0  0  0  0  0  0  0  0  0  0  0
   42.1600   83.8780   63.6580 C   0  0  0  0  0  0  0  0  0  0  0  0
   40.8400   83.4260   63.8000 C   0  0  0  0  0  0  0  0  0  0  0  0
   40.4850   82.2810   63.1800 N   0  0  0  0  0  0  0  0  0  0  0  0
   41.3740   81.5650   62.4300 C   0  0  0  0  0  0  0  0  0  0  0  0
   42.6320   81.9890   62.2900 N   0  0  0  0  0  0  0  0  0  0  0  0
   44.0860   83.4190   62.7330 H   0  0  0  0  0  0  0  0  0  0  0  0
   42.4910   84.7810   64.1300 H   0  0  0  0  0  0  0  0  0  0  0  0
   40.1170   83.9750   64.3890 H   0  0  0  0  0  0  0  0  0  0  0  0
   37.0790   77.5020   56.7320 C   0  0  0  0  0  0  0  0  0  0  0  0
   35.9600   77.0650   57.0440 O   0  0  0  0  0  0  0  0  0  0  0  0
   37.2280   78.4390   55.5580 C   0  0  1  0  0  0  0  0  0  0  0  0
   37.2700   79.8900   55.9670 C   0  0  0  0  0  0  0  0  0  0  0  0
   38.4400   79.2160   55.4050 C   0  0  2  0  0  0  0  0  0  0  0  0
   36.3850   78.2690   54.8310 H   0  0  0  0  0  0  0  0  0  0  0  0
   37.2400   80.1470   57.0510 H   0  0  0  0  0  0  0  0  0  0  0  0
   36.7330   80.6120   55.3350 H   0  0  0  0  0  0  0  0  0  0  0  0
   39.3000   78.9190   56.0680 H   0  0  0  0  0  0  0  0  0  0  0  0
   38.9360   79.6850   54.0880 C   0  0  0  0  0  0  0  0  0  0  0  0
   38.4460   79.3090   52.8770 N   0  0  0  0  0  0  0  0  0  0  0  0
   39.1250   79.9240   51.8850 C   0  0  0  0  0  0  0  0  0  0  0  0
   38.8010   79.6810   50.8870 H   0  0  0  0  0  0  0  0  0  0  0  0
   40.0460   80.6900   52.4870 N   0  0  0  0  0  0  0  0  0  0  0  0
   40.6850   81.2570   51.8900 H   0  0  0  0  0  0  0  0  0  0  0  0
   39.9200   80.5370   53.8090 N   0  0  0  0  0  0  0  0  0  0  0  0
  1 12  1  0  0  0  0
  2  1  1  0  0  0  0
  2  7  1  0  0  0  0
  3  2  2  0  0  0  0
  4  5  2  0  0  0  0
  4  3  1  0  0  0  0
  5  6  1  0  0  0  0
  6  1  2  0  0  0  0
  8  3  1  0  0  0  0
  9 10  2  0  0  0  0
  9 20  1  0  0  0  0
 10 14  1  0  0  0  0
 11 15  1  0  0  0  0
 11 10  1  0  0  0  0
 12 11  2  0  0  0  0
 13 12  1  0  0  0  0
 13  9  1  0  0  0  0
 16 17  1  0  0  0  0
 17 18  2  0  0  0  0
 17 23  1  0  0  0  0
 18 24  1  0  0  0  0
 19 18  1  0  0  0  0
 20 19  2  0  0  0  0
 21 20  1  0  0  0  0
 21 16  2  0  0  0  0
 22 16  1  0  0  0  0
 25 26  2  0  0  0  0
 25  5  1  0  0  0  0
 27 30  1  6  0  0  0
 27 28  1  0  0  0  0
 27 25  1  0  0  0  0
 28 31  1  0  0  0  0
 29 27  1  0  0  0  0
 29 28  1  0  0  0  0
 29 33  1  1  0  0  0
 32 28  1  0  0  0  0
 34 29  1  0  0  0  0
 35 34  1  0  0  0  0
 36 38  1  0  0  0  0
 36 35  2  0  0  0  0
 37 36  1  0  0  0  0
 38 40  1  0  0  0  0
 39 38  1  0  0  0  0
 40 34  2  0  0  0  0
M  END
>  <minimizedAffinity>
-6.54920626

>  <minimizedRMSD>
0.344452351

$$$$
