
 OpenBabel03212520313D

 39 42  0  0  0  0  0  0  0  0999 V2000
   42.0960   82.2270   61.8770 C   0  0  0  0  0  0  0  0  0  0  0  0
   42.6010   81.4150   60.8690 C   0  0  0  0  0  0  0  0  0  0  0  0
   43.9140   80.9930   60.8800 C   0  0  0  0  0  0  0  0  0  0  0  0
   44.8090   81.3490   61.8910 C   0  0  0  0  0  0  0  0  0  0  0  0
   44.3370   82.1540   62.9050 C   0  0  0  0  0  0  0  0  0  0  0  0
   43.0180   82.5730   62.8880 C   0  0  0  0  0  0  0  0  0  0  0  0
   44.2700   80.3580   60.0700 H   0  0  0  0  0  0  0  0  0  0  0  0
   45.8140   80.9660   61.8050 H   0  0  0  0  0  0  0  0  0  0  0  0
   45.0040   82.4360   63.6860 H   0  0  0  0  0  0  0  0  0  0  0  0
   42.6940   83.2010   63.7010 H   0  0  0  0  0  0  0  0  0  0  0  0
   40.2510   79.4670   58.7850 C   0  0  0  0  0  0  0  0  0  0  0  0
   40.1750   80.2240   57.6340 C   0  0  0  0  0  0  0  0  0  0  0  0
   40.9390   81.3910   57.6030 C   0  0  0  0  0  0  0  0  0  0  0  0
   41.6970   81.7050   58.6880 N   0  0  0  0  0  0  0  0  0  0  0  0
   41.7490   80.9610   59.7760 C   0  0  0  0  0  0  0  0  0  0  0  0
   41.0240   79.8490   59.8090 N   0  0  0  0  0  0  0  0  0  0  0  0
   39.6530   78.5590   58.8000 H   0  0  0  0  0  0  0  0  0  0  0  0
   40.9310   82.0320   56.7380 H   0  0  0  0  0  0  0  0  0  0  0  0
   39.3620   79.8360   56.5390 N   0  0  0  0  0  0  0  0  0  0  0  0
   38.1820   80.4740   56.5050 C   0  0  0  0  0  0  0  0  0  0  0  0
   37.2960   80.1620   55.4690 C   0  0  0  0  0  0  0  0  0  0  0  0
   37.6720   79.2080   54.5170 C   0  0  0  0  0  0  0  0  0  0  0  0
   36.9650   78.8460   53.5450 O   0  0  0  0  0  0  0  0  0  0  0  0
   38.9000   78.6040   54.6290 N   0  0  0  0  0  0  0  0  0  0  0  0
   39.7540   78.9130   55.6390 C   0  0  0  0  0  0  0  0  0  0  0  0
   40.8690   78.3750   55.7520 O   0  0  0  0  0  0  0  0  0  0  0  0
   37.8580   81.2100   57.2160 H   0  0  0  0  0  0  0  0  0  0  0  0
   36.3370   80.6180   55.3600 H   0  0  0  0  0  0  0  0  0  0  0  0
   39.2450   77.8860   53.9580 H   0  0  0  0  0  0  0  0  0  0  0  0
   40.4660   82.7800   61.8860 S   0  0  0  0  0  0  0  0  0  0  0  0
   40.1060   83.3010   63.2610 O   0  0  0  0  0  0  0  0  0  0  0  0
   39.5810   81.5250   61.7720 O   0  0  0  0  0  0  0  0  0  0  0  0
   39.9960   83.9770   60.7480 C   0  0  0  0  0  0  0  0  0  0  0  0
   38.9300   84.5930   60.2150 N   0  0  0  0  0  0  0  0  0  0  0  0
   39.3350   85.4530   59.3010 C   0  0  0  0  0  0  0  0  0  0  0  0
   38.5540   86.0290   58.7830 H   0  0  0  0  0  0  0  0  0  0  0  0
   40.6570   85.4340   59.2010 N   0  0  0  0  0  0  0  0  0  0  0  0
   41.1750   86.0410   58.5340 H   0  0  0  0  0  0  0  0  0  0  0  0
   41.0470   84.5400   60.0800 N   0  0  0  0  0  0  0  0  0  0  0  0
  1 30  1  0  0  0  0
  1  6  1  0  0  0  0
  2  3  1  0  0  0  0
  2  1  2  0  0  0  0
  3  4  2  0  0  0  0
  4  5  1  0  0  0  0
  5  9  1  0  0  0  0
  6  5  2  0  0  0  0
  6 10  1  0  0  0  0
  7  3  1  0  0  0  0
  8  4  1  0  0  0  0
 11 17  1  0  0  0  0
 11 16  1  0  0  0  0
 12 11  2  0  0  0  0
 13 12  1  0  0  0  0
 13 14  2  0  0  0  0
 14 15  1  0  0  0  0
 15 16  2  0  0  0  0
 15  2  1  0  0  0  0
 18 13  1  0  0  0  0
 19 12  1  0  0  0  0
 20 19  1  0  0  0  0
 20 27  1  0  0  0  0
 21 20  2  0  0  0  0
 22 24  1  0  0  0  0
 22 21  1  0  0  0  0
 23 22  2  0  0  0  0
 24 25  1  0  0  0  0
 25 26  2  0  0  0  0
 25 19  1  0  0  0  0
 28 21  1  0  0  0  0
 29 24  1  0  0  0  0
 30 31  2  0  0  0  0
 32 30  2  0  0  0  0
 33 30  1  0  0  0  0
 34 33  1  0  0  0  0
 35 34  2  0  0  0  0
 36 35  1  0  0  0  0
 37 35  1  0  0  0  0
 37 39  1  0  0  0  0
 38 37  1  0  0  0  0
 39 33  2  0  0  0  0
M  END
>  <minimizedAffinity>
-6.3431735

>  <minimizedRMSD>
0.945918024

$$$$
