
 OpenBabel03212520553D

 33 36  0  0  0  0  0  0  0  0999 V2000
   39.6800   77.1780   59.1240 C   0  0  0  0  0  0  0  0  0  0  0  0
   40.3420   76.0290   58.8530 C   0  0  0  0  0  0  0  0  0  0  0  0
   39.7690   75.3170   57.7810 C   0  0  0  0  0  0  0  0  0  0  0  0
   38.6810   75.7230   57.0930 N   0  0  0  0  0  0  0  0  0  0  0  0
   38.0910   76.8890   57.4420 C   0  0  0  0  0  0  0  0  0  0  0  0
   38.5890   77.6250   58.4650 N   0  0  0  0  0  0  0  0  0  0  0  0
   41.2060   75.6520   59.3580 H   0  0  0  0  0  0  0  0  0  0  0  0
   40.2110   74.3640   57.4570 H   0  0  0  0  0  0  0  0  0  0  0  0
   40.9440   80.1420   61.6310 C   0  0  0  0  0  0  0  0  0  0  0  0
   40.8850   78.9120   62.2580 C   0  0  0  0  0  0  0  0  0  0  0  0
   40.4820   77.8510   61.5320 C   0  0  0  0  0  0  0  0  0  0  0  0
   40.1420   78.0210   60.1970 C   0  0  0  0  0  0  0  0  0  0  0  0
   40.4100   79.8310   59.9280 S   0  0  0  0  0  0  0  0  0  0  0  0
   41.1510   78.7780   63.3050 H   0  0  0  0  0  0  0  0  0  0  0  0
   40.3710   76.8200   61.8350 H   0  0  0  0  0  0  0  0  0  0  0  0
   43.0800   82.9150   62.7220 C   0  0  0  0  0  0  0  0  0  0  0  0
   42.2150   83.7040   63.5080 C   0  0  0  0  0  0  0  0  0  0  0  0
   40.9050   83.2770   63.6560 C   0  0  0  0  0  0  0  0  0  0  0  0
   40.5220   82.1290   63.0420 N   0  0  0  0  0  0  0  0  0  0  0  0
   41.3720   81.4000   62.3000 C   0  0  0  0  0  0  0  0  0  0  0  0
   42.6290   81.7890   62.1450 N   0  0  0  0  0  0  0  0  0  0  0  0
   44.1230   83.1580   62.5420 H   0  0  0  0  0  0  0  0  0  0  0  0
   42.6160   84.6020   63.9560 H   0  0  0  0  0  0  0  0  0  0  0  0
   40.2320   83.8620   64.2490 H   0  0  0  0  0  0  0  0  0  0  0  0
   36.9270   77.3100   56.6970 C   0  0  0  0  0  0  0  0  0  0  0  0
   35.7970   77.0940   57.2290 O   0  0  0  0  0  0  0  0  0  0  0  0
   37.0450   77.9550   55.3950 C   0  0  0  0  0  0  0  0  0  0  0  0
   36.7500   77.4450   54.2020 N   0  0  0  0  0  0  0  0  0  0  0  0
   36.9900   78.3420   53.2210 C   0  0  0  0  0  0  0  0  0  0  0  0
   36.8850   78.3230   52.1440 H   0  0  0  0  0  0  0  0  0  0  0  0
   37.4540   79.4450   53.8760 N   0  0  0  0  0  0  0  0  0  0  0  0
   37.7700   80.3880   53.5520 H   0  0  0  0  0  0  0  0  0  0  0  0
   37.4820   79.1950   55.1920 N   0  0  0  0  0  0  0  0  0  0  0  0
  1 12  1  0  0  0  0
  2  1  1  0  0  0  0
  2  7  1  0  0  0  0
  3  2  2  0  0  0  0
  4  5  2  0  0  0  0
  4  3  1  0  0  0  0
  5  6  1  0  0  0  0
  6  1  2  0  0  0  0
  8  3  1  0  0  0  0
  9 10  2  0  0  0  0
  9 20  1  0  0  0  0
 10 14  1  0  0  0  0
 11 15  1  0  0  0  0
 11 10  1  0  0  0  0
 12 11  2  0  0  0  0
 13 12  1  0  0  0  0
 13  9  1  0  0  0  0
 16 17  1  0  0  0  0
 17 18  2  0  0  0  0
 17 23  1  0  0  0  0
 18 24  1  0  0  0  0
 19 18  1  0  0  0  0
 20 19  2  0  0  0  0
 21 20  1  0  0  0  0
 21 16  2  0  0  0  0
 22 16  1  0  0  0  0
 25 26  2  0  0  0  0
 25  5  1  0  0  0  0
 27 25  1  0  0  0  0
 28 27  1  0  0  0  0
 29 31  1  0  0  0  0
 29 28  2  0  0  0  0
 30 29  1  0  0  0  0
 31 33  1  0  0  0  0
 32 31  1  0  0  0  0
 33 27  2  0  0  0  0
M  END
>  <minimizedAffinity>
-6.21114969

>  <minimizedRMSD>
0.463609546

$$$$
