
 OpenBabel03212520553D

 33 36  0  0  0  0  0  0  0  0999 V2000
   39.6770   77.1720   59.1270 C   0  0  0  0  0  0  0  0  0  0  0  0
   40.3360   76.0220   58.8580 C   0  0  0  0  0  0  0  0  0  0  0  0
   39.7620   75.3090   57.7860 C   0  0  0  0  0  0  0  0  0  0  0  0
   38.6750   75.7160   57.0980 N   0  0  0  0  0  0  0  0  0  0  0  0
   38.0880   76.8840   57.4460 C   0  0  0  0  0  0  0  0  0  0  0  0
   38.5870   77.6210   58.4670 N   0  0  0  0  0  0  0  0  0  0  0  0
   41.1990   75.6440   59.3640 H   0  0  0  0  0  0  0  0  0  0  0  0
   40.2020   74.3550   57.4650 H   0  0  0  0  0  0  0  0  0  0  0  0
   40.9440   80.1380   61.6310 C   0  0  0  0  0  0  0  0  0  0  0  0
   40.8870   78.9090   62.2580 C   0  0  0  0  0  0  0  0  0  0  0  0
   40.4820   77.8470   61.5340 C   0  0  0  0  0  0  0  0  0  0  0  0
   40.1400   78.0160   60.1990 C   0  0  0  0  0  0  0  0  0  0  0  0
   40.4070   79.8260   59.9290 S   0  0  0  0  0  0  0  0  0  0  0  0
   41.1550   78.7750   63.3050 H   0  0  0  0  0  0  0  0  0  0  0  0
   40.3720   76.8160   61.8380 H   0  0  0  0  0  0  0  0  0  0  0  0
   43.0820   82.9110   62.7180 C   0  0  0  0  0  0  0  0  0  0  0  0
   42.2170   83.7010   63.5040 C   0  0  0  0  0  0  0  0  0  0  0  0
   40.9070   83.2750   63.6530 C   0  0  0  0  0  0  0  0  0  0  0  0
   40.5230   82.1260   63.0400 N   0  0  0  0  0  0  0  0  0  0  0  0
   41.3730   81.3960   62.2980 C   0  0  0  0  0  0  0  0  0  0  0  0
   42.6300   81.7850   62.1420 N   0  0  0  0  0  0  0  0  0  0  0  0
   44.1240   83.1530   62.5380 H   0  0  0  0  0  0  0  0  0  0  0  0
   42.6190   84.6000   63.9500 H   0  0  0  0  0  0  0  0  0  0  0  0
   40.2350   83.8610   64.2450 H   0  0  0  0  0  0  0  0  0  0  0  0
   36.9240   77.3070   56.7000 C   0  0  0  0  0  0  0  0  0  0  0  0
   35.7940   77.0920   57.2310 O   0  0  0  0  0  0  0  0  0  0  0  0
   37.0440   77.9510   55.3980 C   0  0  0  0  0  0  0  0  0  0  0  0
   36.7530   77.4400   54.2040 N   0  0  0  0  0  0  0  0  0  0  0  0
   36.9940   78.3370   53.2240 C   0  0  0  0  0  0  0  0  0  0  0  0
   36.8920   78.3180   52.1450 H   0  0  0  0  0  0  0  0  0  0  0  0
   37.4540   79.4410   53.8790 N   0  0  0  0  0  0  0  0  0  0  0  0
   37.7690   80.3850   53.5550 H   0  0  0  0  0  0  0  0  0  0  0  0
   37.4790   79.1910   55.1960 N   0  0  0  0  0  0  0  0  0  0  0  0
  1 12  1  0  0  0  0
  2  1  1  0  0  0  0
  2  7  1  0  0  0  0
  3  2  2  0  0  0  0
  4  5  2  0  0  0  0
  4  3  1  0  0  0  0
  5  6  1  0  0  0  0
  6  1  2  0  0  0  0
  8  3  1  0  0  0  0
  9 10  2  0  0  0  0
  9 20  1  0  0  0  0
 10 14  1  0  0  0  0
 11 15  1  0  0  0  0
 11 10  1  0  0  0  0
 12 11  2  0  0  0  0
 13 12  1  0  0  0  0
 13  9  1  0  0  0  0
 16 17  1  0  0  0  0
 17 18  2  0  0  0  0
 17 23  1  0  0  0  0
 18 24  1  0  0  0  0
 19 18  1  0  0  0  0
 20 19  2  0  0  0  0
 21 20  1  0  0  0  0
 21 16  2  0  0  0  0
 22 16  1  0  0  0  0
 25 26  2  0  0  0  0
 25  5  1  0  0  0  0
 27 25  1  0  0  0  0
 28 27  1  0  0  0  0
 29 31  1  0  0  0  0
 29 28  2  0  0  0  0
 30 29  1  0  0  0  0
 31 33  1  0  0  0  0
 32 31  1  0  0  0  0
 33 27  2  0  0  0  0
M  END
>  <minimizedAffinity>
-6.20677042

>  <minimizedRMSD>
0.426709324

$$$$
