
 OpenBabel03212520553D

 33 36  0  0  0  0  0  0  0  0999 V2000
   39.6840   77.1840   59.1180 C   0  0  0  0  0  0  0  0  0  0  0  0
   40.3470   76.0370   58.8440 C   0  0  0  0  0  0  0  0  0  0  0  0
   39.7750   75.3260   57.7700 C   0  0  0  0  0  0  0  0  0  0  0  0
   38.6860   75.7320   57.0840 N   0  0  0  0  0  0  0  0  0  0  0  0
   38.0950   76.8970   57.4360 C   0  0  0  0  0  0  0  0  0  0  0  0
   38.5920   77.6310   58.4590 N   0  0  0  0  0  0  0  0  0  0  0  0
   41.2110   75.6610   59.3490 H   0  0  0  0  0  0  0  0  0  0  0  0
   40.2180   74.3740   57.4450 H   0  0  0  0  0  0  0  0  0  0  0  0
   40.9440   80.1460   61.6300 C   0  0  0  0  0  0  0  0  0  0  0  0
   40.8860   78.9150   62.2540 C   0  0  0  0  0  0  0  0  0  0  0  0
   40.4840   77.8550   61.5270 C   0  0  0  0  0  0  0  0  0  0  0  0
   40.1450   78.0270   60.1920 C   0  0  0  0  0  0  0  0  0  0  0  0
   40.4110   79.8380   59.9260 S   0  0  0  0  0  0  0  0  0  0  0  0
   41.1530   78.7800   63.3020 H   0  0  0  0  0  0  0  0  0  0  0  0
   40.3740   76.8230   61.8280 H   0  0  0  0  0  0  0  0  0  0  0  0
   43.0780   82.9180   62.7270 C   0  0  0  0  0  0  0  0  0  0  0  0
   42.2120   83.7060   63.5130 C   0  0  0  0  0  0  0  0  0  0  0  0
   40.9020   83.2790   63.6590 C   0  0  0  0  0  0  0  0  0  0  0  0
   40.5200   82.1310   63.0430 N   0  0  0  0  0  0  0  0  0  0  0  0
   41.3710   81.4030   62.3010 C   0  0  0  0  0  0  0  0  0  0  0  0
   42.6280   81.7920   62.1480 N   0  0  0  0  0  0  0  0  0  0  0  0
   44.1210   83.1610   62.5490 H   0  0  0  0  0  0  0  0  0  0  0  0
   42.6130   84.6040   63.9620 H   0  0  0  0  0  0  0  0  0  0  0  0
   40.2280   83.8630   64.2510 H   0  0  0  0  0  0  0  0  0  0  0  0
   36.9300   77.3180   56.6920 C   0  0  0  0  0  0  0  0  0  0  0  0
   35.8000   77.1020   57.2250 O   0  0  0  0  0  0  0  0  0  0  0  0
   37.0470   77.9610   55.3890 C   0  0  0  0  0  0  0  0  0  0  0  0
   36.7500   77.4500   54.1960 N   0  0  0  0  0  0  0  0  0  0  0  0
   36.9890   78.3460   53.2150 C   0  0  0  0  0  0  0  0  0  0  0  0
   36.8830   78.3270   52.1370 H   0  0  0  0  0  0  0  0  0  0  0  0
   37.4540   79.4500   53.8690 N   0  0  0  0  0  0  0  0  0  0  0  0
   37.7710   80.3920   53.5420 H   0  0  0  0  0  0  0  0  0  0  0  0
   37.4840   79.2010   55.1850 N   0  0  0  0  0  0  0  0  0  0  0  0
  1 12  1  0  0  0  0
  2  1  1  0  0  0  0
  2  7  1  0  0  0  0
  3  2  2  0  0  0  0
  4  5  2  0  0  0  0
  4  3  1  0  0  0  0
  5  6  1  0  0  0  0
  6  1  2  0  0  0  0
  8  3  1  0  0  0  0
  9 10  2  0  0  0  0
  9 20  1  0  0  0  0
 10 14  1  0  0  0  0
 11 15  1  0  0  0  0
 11 10  1  0  0  0  0
 12 11  2  0  0  0  0
 13 12  1  0  0  0  0
 13  9  1  0  0  0  0
 16 17  1  0  0  0  0
 17 18  2  0  0  0  0
 17 23  1  0  0  0  0
 18 24  1  0  0  0  0
 19 18  1  0  0  0  0
 20 19  2  0  0  0  0
 21 20  1  0  0  0  0
 21 16  2  0  0  0  0
 22 16  1  0  0  0  0
 25 26  2  0  0  0  0
 25  5  1  0  0  0  0
 27 25  1  0  0  0  0
 28 27  1  0  0  0  0
 29 31  1  0  0  0  0
 29 28  2  0  0  0  0
 30 29  1  0  0  0  0
 31 33  1  0  0  0  0
 32 31  1  0  0  0  0
 33 27  2  0  0  0  0
M  END
>  <minimizedAffinity>
-6.21021557

>  <minimizedRMSD>
0.377201051

$$$$
