
 OpenBabel03212520553D

 33 36  0  0  0  0  0  0  0  0999 V2000
   39.6780   77.1660   59.1360 C   0  0  0  0  0  0  0  0  0  0  0  0
   40.3300   76.0100   58.8760 C   0  0  0  0  0  0  0  0  0  0  0  0
   39.7570   75.2960   57.8050 C   0  0  0  0  0  0  0  0  0  0  0  0
   38.6780   75.7080   57.1080 N   0  0  0  0  0  0  0  0  0  0  0  0
   38.0970   76.8810   57.4460 C   0  0  0  0  0  0  0  0  0  0  0  0
   38.5950   77.6190   58.4670 N   0  0  0  0  0  0  0  0  0  0  0  0
   41.1870   75.6280   59.3900 H   0  0  0  0  0  0  0  0  0  0  0  0
   40.1930   74.3370   57.4900 H   0  0  0  0  0  0  0  0  0  0  0  0
   40.9440   80.1360   61.6350 C   0  0  0  0  0  0  0  0  0  0  0  0
   40.8860   78.9080   62.2640 C   0  0  0  0  0  0  0  0  0  0  0  0
   40.4820   77.8450   61.5420 C   0  0  0  0  0  0  0  0  0  0  0  0
   40.1410   78.0120   60.2060 C   0  0  0  0  0  0  0  0  0  0  0  0
   40.4080   79.8220   59.9330 S   0  0  0  0  0  0  0  0  0  0  0  0
   41.1540   78.7770   63.3120 H   0  0  0  0  0  0  0  0  0  0  0  0
   40.3710   76.8150   61.8470 H   0  0  0  0  0  0  0  0  0  0  0  0
   43.0810   82.9120   62.7170 C   0  0  0  0  0  0  0  0  0  0  0  0
   42.2170   83.7030   63.5020 C   0  0  0  0  0  0  0  0  0  0  0  0
   40.9070   83.2770   63.6520 C   0  0  0  0  0  0  0  0  0  0  0  0
   40.5230   82.1270   63.0410 N   0  0  0  0  0  0  0  0  0  0  0  0
   41.3730   81.3960   62.3000 C   0  0  0  0  0  0  0  0  0  0  0  0
   42.6290   81.7840   62.1430 N   0  0  0  0  0  0  0  0  0  0  0  0
   44.1240   83.1540   62.5370 H   0  0  0  0  0  0  0  0  0  0  0  0
   42.6180   84.6020   63.9470 H   0  0  0  0  0  0  0  0  0  0  0  0
   40.2340   83.8640   64.2430 H   0  0  0  0  0  0  0  0  0  0  0  0
   36.9410   77.3080   56.6910 C   0  0  0  0  0  0  0  0  0  0  0  0
   35.8060   77.1100   57.2190 O   0  0  0  0  0  0  0  0  0  0  0  0
   37.0730   77.9390   55.3830 C   0  0  0  0  0  0  0  0  0  0  0  0
   36.6590   77.4750   54.2080 N   0  0  0  0  0  0  0  0  0  0  0  0
   36.9600   78.3390   53.2150 C   0  0  0  0  0  0  0  0  0  0  0  0
   36.8010   78.3390   52.1430 H   0  0  0  0  0  0  0  0  0  0  0  0
   37.5890   79.3740   53.8440 N   0  0  0  0  0  0  0  0  0  0  0  0
   38.0030   80.2710   53.5020 H   0  0  0  0  0  0  0  0  0  0  0  0
   37.6500   79.1160   55.1570 N   0  0  0  0  0  0  0  0  0  0  0  0
  1 12  1  0  0  0  0
  2  1  1  0  0  0  0
  2  7  1  0  0  0  0
  3  2  2  0  0  0  0
  4  5  2  0  0  0  0
  4  3  1  0  0  0  0
  5  6  1  0  0  0  0
  6  1  2  0  0  0  0
  8  3  1  0  0  0  0
  9 10  2  0  0  0  0
  9 20  1  0  0  0  0
 10 14  1  0  0  0  0
 11 15  1  0  0  0  0
 11 10  1  0  0  0  0
 12 11  2  0  0  0  0
 13 12  1  0  0  0  0
 13  9  1  0  0  0  0
 16 17  1  0  0  0  0
 17 18  2  0  0  0  0
 17 23  1  0  0  0  0
 18 24  1  0  0  0  0
 19 18  1  0  0  0  0
 20 19  2  0  0  0  0
 21 20  1  0  0  0  0
 21 16  2  0  0  0  0
 22 16  1  0  0  0  0
 25 26  2  0  0  0  0
 25  5  1  0  0  0  0
 27 25  1  0  0  0  0
 28 27  1  0  0  0  0
 29 31  1  0  0  0  0
 29 28  2  0  0  0  0
 30 29  1  0  0  0  0
 31 33  1  0  0  0  0
 32 31  1  0  0  0  0
 33 27  2  0  0  0  0
M  END
>  <minimizedAffinity>
-6.19840527

>  <minimizedRMSD>
0.545554996

$$$$
