
 OpenBabel03212520553D

 33 36  0  0  0  0  0  0  0  0999 V2000
   39.6800   77.1770   59.1250 C   0  0  0  0  0  0  0  0  0  0  0  0
   40.3420   76.0290   58.8530 C   0  0  0  0  0  0  0  0  0  0  0  0
   39.7690   75.3160   57.7810 C   0  0  0  0  0  0  0  0  0  0  0  0
   38.6810   75.7220   57.0940 N   0  0  0  0  0  0  0  0  0  0  0  0
   38.0910   76.8880   57.4440 C   0  0  0  0  0  0  0  0  0  0  0  0
   38.5890   77.6240   58.4660 N   0  0  0  0  0  0  0  0  0  0  0  0
   41.2060   75.6520   59.3590 H   0  0  0  0  0  0  0  0  0  0  0  0
   40.2120   74.3630   57.4580 H   0  0  0  0  0  0  0  0  0  0  0  0
   40.9440   80.1420   61.6320 C   0  0  0  0  0  0  0  0  0  0  0  0
   40.8850   78.9120   62.2580 C   0  0  0  0  0  0  0  0  0  0  0  0
   40.4820   77.8510   61.5330 C   0  0  0  0  0  0  0  0  0  0  0  0
   40.1420   78.0210   60.1980 C   0  0  0  0  0  0  0  0  0  0  0  0
   40.4100   79.8310   59.9290 S   0  0  0  0  0  0  0  0  0  0  0  0
   41.1520   78.7780   63.3060 H   0  0  0  0  0  0  0  0  0  0  0  0
   40.3710   76.8200   61.8360 H   0  0  0  0  0  0  0  0  0  0  0  0
   43.0800   82.9150   62.7220 C   0  0  0  0  0  0  0  0  0  0  0  0
   42.2150   83.7040   63.5080 C   0  0  0  0  0  0  0  0  0  0  0  0
   40.9050   83.2770   63.6560 C   0  0  0  0  0  0  0  0  0  0  0  0
   40.5220   82.1290   63.0420 N   0  0  0  0  0  0  0  0  0  0  0  0
   41.3720   81.3990   62.3000 C   0  0  0  0  0  0  0  0  0  0  0  0
   42.6290   81.7890   62.1450 N   0  0  0  0  0  0  0  0  0  0  0  0
   44.1230   83.1580   62.5420 H   0  0  0  0  0  0  0  0  0  0  0  0
   42.6170   84.6020   63.9550 H   0  0  0  0  0  0  0  0  0  0  0  0
   40.2320   83.8620   64.2490 H   0  0  0  0  0  0  0  0  0  0  0  0
   36.9270   77.3090   56.6990 C   0  0  0  0  0  0  0  0  0  0  0  0
   35.7970   77.0930   57.2310 O   0  0  0  0  0  0  0  0  0  0  0  0
   37.0450   77.9530   55.3960 C   0  0  0  0  0  0  0  0  0  0  0  0
   36.7520   77.4420   54.2030 N   0  0  0  0  0  0  0  0  0  0  0  0
   36.9910   78.3400   53.2230 C   0  0  0  0  0  0  0  0  0  0  0  0
   36.8880   78.3210   52.1440 H   0  0  0  0  0  0  0  0  0  0  0  0
   37.4530   79.4440   53.8780 N   0  0  0  0  0  0  0  0  0  0  0  0
   37.7670   80.3880   53.5530 H   0  0  0  0  0  0  0  0  0  0  0  0
   37.4790   79.1930   55.1940 N   0  0  0  0  0  0  0  0  0  0  0  0
  1 12  1  0  0  0  0
  2  1  1  0  0  0  0
  2  7  1  0  0  0  0
  3  2  2  0  0  0  0
  4  5  2  0  0  0  0
  4  3  1  0  0  0  0
  5  6  1  0  0  0  0
  6  1  2  0  0  0  0
  8  3  1  0  0  0  0
  9 10  2  0  0  0  0
  9 20  1  0  0  0  0
 10 14  1  0  0  0  0
 11 15  1  0  0  0  0
 11 10  1  0  0  0  0
 12 11  2  0  0  0  0
 13 12  1  0  0  0  0
 13  9  1  0  0  0  0
 16 17  1  0  0  0  0
 17 18  2  0  0  0  0
 17 23  1  0  0  0  0
 18 24  1  0  0  0  0
 19 18  1  0  0  0  0
 20 19  2  0  0  0  0
 21 20  1  0  0  0  0
 21 16  2  0  0  0  0
 22 16  1  0  0  0  0
 25 26  2  0  0  0  0
 25  5  1  0  0  0  0
 27 25  1  0  0  0  0
 28 27  1  0  0  0  0
 29 31  1  0  0  0  0
 29 28  2  0  0  0  0
 30 29  1  0  0  0  0
 31 33  1  0  0  0  0
 32 31  1  0  0  0  0
 33 27  2  0  0  0  0
M  END
>  <minimizedAffinity>
-6.21074581

>  <minimizedRMSD>
0.531242788

$$$$
