
 OpenBabel03212520573D

 33 36  0  0  0  0  0  0  0  0999 V2000
   39.2510   76.2210   58.7560 C   0  0  0  0  0  0  0  0  0  0  0  0
   39.9040   77.3820   58.9900 C   0  0  0  0  0  0  0  0  0  0  0  0
   39.5740   78.3850   58.0570 C   0  0  0  0  0  0  0  0  0  0  0  0
   38.7050   78.2180   57.0380 N   0  0  0  0  0  0  0  0  0  0  0  0
   38.1030   77.0170   56.8900 C   0  0  0  0  0  0  0  0  0  0  0  0
   38.3740   76.0070   57.7510 N   0  0  0  0  0  0  0  0  0  0  0  0
   40.6020   77.5770   59.7760 H   0  0  0  0  0  0  0  0  0  0  0  0
   40.0360   79.3790   58.1340 H   0  0  0  0  0  0  0  0  0  0  0  0
   40.6280   73.0390   60.9130 C   0  0  0  0  0  0  0  0  0  0  0  0
   39.3110   73.3400   61.2020 C   0  0  0  0  0  0  0  0  0  0  0  0
   38.7410   74.3730   60.5510 C   0  0  0  0  0  0  0  0  0  0  0  0
   39.4820   75.0940   59.6240 C   0  0  0  0  0  0  0  0  0  0  0  0
   41.1280   74.2520   59.6640 S   0  0  0  0  0  0  0  0  0  0  0  0
   38.7300   72.7750   61.9290 H   0  0  0  0  0  0  0  0  0  0  0  0
   37.7370   74.7620   60.6350 H   0  0  0  0  0  0  0  0  0  0  0  0
   41.7040   70.5770   63.4080 C   0  0  0  0  0  0  0  0  0  0  0  0
   42.7530   69.8930   62.7600 C   0  0  0  0  0  0  0  0  0  0  0  0
   43.0820   70.2830   61.4720 C   0  0  0  0  0  0  0  0  0  0  0  0
   42.3830   71.2970   60.9000 N   0  0  0  0  0  0  0  0  0  0  0  0
   41.3880   71.9290   61.5460 C   0  0  0  0  0  0  0  0  0  0  0  0
   41.0570   71.5730   62.7780 N   0  0  0  0  0  0  0  0  0  0  0  0
   41.3670   70.3530   64.4150 H   0  0  0  0  0  0  0  0  0  0  0  0
   43.2480   69.0990   63.3010 H   0  0  0  0  0  0  0  0  0  0  0  0
   43.8760   69.7750   60.9620 H   0  0  0  0  0  0  0  0  0  0  0  0
   37.1760   76.8540   55.7930 C   0  0  0  0  0  0  0  0  0  0  0  0
   36.0770   77.4810   55.8740 O   0  0  0  0  0  0  0  0  0  0  0  0
   37.4880   76.0090   54.6470 C   0  0  0  0  0  0  0  0  0  0  0  0
   38.6840   75.5810   54.2490 N   0  0  0  0  0  0  0  0  0  0  0  0
   38.5790   74.8150   53.1430 C   0  0  0  0  0  0  0  0  0  0  0  0
   39.2930   74.2890   52.5210 H   0  0  0  0  0  0  0  0  0  0  0  0
   37.2420   74.7910   52.8720 N   0  0  0  0  0  0  0  0  0  0  0  0
   36.6730   74.3340   52.1230 H   0  0  0  0  0  0  0  0  0  0  0  0
   36.5940   75.5180   53.7930 N   0  0  0  0  0  0  0  0  0  0  0  0
  1  2  1  0  0  0  0
  1 12  1  0  0  0  0
  2  7  1  0  0  0  0
  3  8  1  0  0  0  0
  3  2  2  0  0  0  0
  4  3  1  0  0  0  0
  5  4  2  0  0  0  0
  5  6  1  0  0  0  0
  6  1  2  0  0  0  0
  9 10  2  0  0  0  0
  9 20  1  0  0  0  0
 10 14  1  0  0  0  0
 11 15  1  0  0  0  0
 11 10  1  0  0  0  0
 12 13  1  0  0  0  0
 12 11  2  0  0  0  0
 13  9  1  0  0  0  0
 16 22  1  0  0  0  0
 17 23  1  0  0  0  0
 17 16  2  0  0  0  0
 18 17  1  0  0  0  0
 19 18  2  0  0  0  0
 19 20  1  0  0  0  0
 20 21  2  0  0  0  0
 21 16  1  0  0  0  0
 24 18  1  0  0  0  0
 25 26  2  0  0  0  0
 25  5  1  0  0  0  0
 27 25  1  0  0  0  0
 28 27  1  0  0  0  0
 29 28  2  0  0  0  0
 30 29  1  0  0  0  0
 31 29  1  0  0  0  0
 31 33  1  0  0  0  0
 32 31  1  0  0  0  0
 33 27  2  0  0  0  0
M  END
>  <minimizedAffinity>
-6.83116531

$$$$

 OpenBabel03212520573D

 33 36  0  0  0  0  0  0  0  0999 V2000
   42.1130   73.5230   60.5650 C   0  0  0  0  0  0  0  0  0  0  0  0
   43.3170   73.8850   60.0650 C   0  0  0  0  0  0  0  0  0  0  0  0
   43.2590   75.0880   59.3360 C   0  0  0  0  0  0  0  0  0  0  0  0
   42.1340   75.8100   59.1480 N   0  0  0  0  0  0  0  0  0  0  0  0
   40.9790   75.3620   59.6910 C   0  0  0  0  0  0  0  0  0  0  0  0
   40.9620   74.2110   60.4040 N   0  0  0  0  0  0  0  0  0  0  0  0
   44.2420   73.3590   60.1770 H   0  0  0  0  0  0  0  0  0  0  0  0
   44.1700   75.4950   58.8750 H   0  0  0  0  0  0  0  0  0  0  0  0
   41.8460   69.7300   62.0530 C   0  0  0  0  0  0  0  0  0  0  0  0
   41.8180   70.6880   63.0480 C   0  0  0  0  0  0  0  0  0  0  0  0
   41.8980   71.9830   62.6810 C   0  0  0  0  0  0  0  0  0  0  0  0
   42.0050   72.3100   61.3370 C   0  0  0  0  0  0  0  0  0  0  0  0
   41.9930   70.6580   60.5050 S   0  0  0  0  0  0  0  0  0  0  0  0
   41.7330   70.4320   64.1030 H   0  0  0  0  0  0  0  0  0  0  0  0
   41.8930   72.8680   63.3000 H   0  0  0  0  0  0  0  0  0  0  0  0
   41.0500   66.5500   63.6960 C   0  0  0  0  0  0  0  0  0  0  0  0
   41.5810   65.5860   62.8140 C   0  0  0  0  0  0  0  0  0  0  0  0
   42.2070   66.0350   61.6630 C   0  0  0  0  0  0  0  0  0  0  0  0
   42.2790   67.3730   61.4420 N   0  0  0  0  0  0  0  0  0  0  0  0
   41.7630   68.2660   62.3030 C   0  0  0  0  0  0  0  0  0  0  0  0
   41.1600   67.8580   63.4100 N   0  0  0  0  0  0  0  0  0  0  0  0
   40.5420   66.3050   64.6230 H   0  0  0  0  0  0  0  0  0  0  0  0
   41.4730   64.5430   63.0800 H   0  0  0  0  0  0  0  0  0  0  0  0
   42.6170   65.3190   60.9810 H   0  0  0  0  0  0  0  0  0  0  0  0
   39.7820   76.1450   59.4810 C   0  0  0  0  0  0  0  0  0  0  0  0
   39.6710   77.2130   60.1540 O   0  0  0  0  0  0  0  0  0  0  0  0
   38.7520   75.7280   58.5370 C   0  0  0  0  0  0  0  0  0  0  0  0
   38.3470   76.3580   57.4370 N   0  0  0  0  0  0  0  0  0  0  0  0
   37.3710   75.6650   56.8150 C   0  0  0  0  0  0  0  0  0  0  0  0
   36.7880   75.8270   55.9170 H   0  0  0  0  0  0  0  0  0  0  0  0
   37.1890   74.5600   57.5950 N   0  0  0  0  0  0  0  0  0  0  0  0
   36.5490   73.7350   57.5270 H   0  0  0  0  0  0  0  0  0  0  0  0
   38.0340   74.6120   58.6340 N   0  0  0  0  0  0  0  0  0  0  0  0
  1 12  1  0  0  0  0
  2  7  1  0  0  0  0
  2  1  2  0  0  0  0
  3  2  1  0  0  0  0
  4  3  2  0  0  0  0
  4  5  1  0  0  0  0
  5  6  2  0  0  0  0
  6  1  1  0  0  0  0
  8  3  1  0  0  0  0
  9 20  1  0  0  0  0
  9 10  2  0  0  0  0
 10 14  1  0  0  0  0
 11 10  1  0  0  0  0
 11 15  1  0  0  0  0
 12 11  2  0  0  0  0
 13 12  1  0  0  0  0
 13  9  1  0  0  0  0
 16 22  1  0  0  0  0
 17 23  1  0  0  0  0
 17 16  2  0  0  0  0
 18 17  1  0  0  0  0
 19 18  2  0  0  0  0
 19 20  1  0  0  0  0
 20 21  2  0  0  0  0
 21 16  1  0  0  0  0
 24 18  1  0  0  0  0
 25  5  1  0  0  0  0
 25 26  2  0  0  0  0
 27 33  2  0  0  0  0
 27 25  1  0  0  0  0
 28 27  1  0  0  0  0
 29 28  2  0  0  0  0
 29 31  1  0  0  0  0
 30 29  1  0  0  0  0
 31 33  1  0  0  0  0
 32 31  1  0  0  0  0
M  END
>  <minimizedAffinity>
-6.45692587

$$$$

 OpenBabel03212520573D

 33 36  0  0  0  0  0  0  0  0999 V2000
   40.5700   75.5190   59.3860 C   0  0  0  0  0  0  0  0  0  0  0  0
   40.9180   76.7630   59.7880 C   0  0  0  0  0  0  0  0  0  0  0  0
   40.1200   77.7640   59.2000 C   0  0  0  0  0  0  0  0  0  0  0  0
   39.1170   77.5220   58.3290 N   0  0  0  0  0  0  0  0  0  0  0  0
   38.8480   76.2410   57.9900 C   0  0  0  0  0  0  0  0  0  0  0  0
   39.5760   75.2280   58.5180 N   0  0  0  0  0  0  0  0  0  0  0  0
   41.6990   77.0200   60.4720 H   0  0  0  0  0  0  0  0  0  0  0  0
   40.2980   78.8210   59.4420 H   0  0  0  0  0  0  0  0  0  0  0  0
   41.9680   72.1670   61.2510 C   0  0  0  0  0  0  0  0  0  0  0  0
   42.8950   72.7130   60.3860 C   0  0  0  0  0  0  0  0  0  0  0  0
   42.5510   73.8260   59.7090 C   0  0  0  0  0  0  0  0  0  0  0  0
   41.2940   74.3840   59.8980 C   0  0  0  0  0  0  0  0  0  0  0  0
   40.5190   73.2480   61.1360 S   0  0  0  0  0  0  0  0  0  0  0  0
   43.8820   72.2760   60.2370 H   0  0  0  0  0  0  0  0  0  0  0  0
   43.1280   74.3970   58.9960 H   0  0  0  0  0  0  0  0  0  0  0  0
   43.4880   69.0440   62.4260 C   0  0  0  0  0  0  0  0  0  0  0  0
   42.6880   68.6860   63.5300 C   0  0  0  0  0  0  0  0  0  0  0  0
   41.6330   69.5210   63.8620 C   0  0  0  0  0  0  0  0  0  0  0  0
   41.4230   70.6340   63.1140 N   0  0  0  0  0  0  0  0  0  0  0  0
   42.2050   70.9460   62.0660 C   0  0  0  0  0  0  0  0  0  0  0  0
   43.2190   70.1630   61.7310 N   0  0  0  0  0  0  0  0  0  0  0  0
   44.3370   68.4620   62.0810 H   0  0  0  0  0  0  0  0  0  0  0  0
   42.9370   67.7790   64.0620 H   0  0  0  0  0  0  0  0  0  0  0  0
   41.0130   69.2670   64.6980 H   0  0  0  0  0  0  0  0  0  0  0  0
   37.7720   75.9980   57.0560 C   0  0  0  0  0  0  0  0  0  0  0  0
   37.0840   74.9490   57.2350 O   0  0  0  0  0  0  0  0  0  0  0  0
   37.4890   76.9170   55.9610 C   0  0  0  0  0  0  0  0  0  0  0  0
   38.2960   77.2750   54.9650 N   0  0  0  0  0  0  0  0  0  0  0  0
   37.6840   78.1470   54.1360 C   0  0  0  0  0  0  0  0  0  0  0  0
   37.9840   78.6640   53.2340 H   0  0  0  0  0  0  0  0  0  0  0  0
   36.4420   78.3140   54.6770 N   0  0  0  0  0  0  0  0  0  0  0  0
   35.6130   78.8870   54.3970 H   0  0  0  0  0  0  0  0  0  0  0  0
   36.3390   77.5610   55.7810 N   0  0  0  0  0  0  0  0  0  0  0  0
  1  2  1  0  0  0  0
  1 12  1  0  0  0  0
  2  7  1  0  0  0  0
  3  8  1  0  0  0  0
  3  2  2  0  0  0  0
  4  3  1  0  0  0  0
  5  4  2  0  0  0  0
  5  6  1  0  0  0  0
  6  1  2  0  0  0  0
  9 20  1  0  0  0  0
 10  9  2  0  0  0  0
 11 12  2  0  0  0  0
 11 10  1  0  0  0  0
 12 13  1  0  0  0  0
 13  9  1  0  0  0  0
 14 10  1  0  0  0  0
 15 11  1  0  0  0  0
 16 17  1  0  0  0  0
 17 18  2  0  0  0  0
 17 23  1  0  0  0  0
 18 24  1  0  0  0  0
 19 18  1  0  0  0  0
 20 19  2  0  0  0  0
 21 20  1  0  0  0  0
 21 16  2  0  0  0  0
 22 16  1  0  0  0  0
 25 26  2  0  0  0  0
 25  5  1  0  0  0  0
 27 25  1  0  0  0  0
 28 27  1  0  0  0  0
 29 31  1  0  0  0  0
 29 28  2  0  0  0  0
 30 29  1  0  0  0  0
 31 33  1  0  0  0  0
 32 31  1  0  0  0  0
 33 27  2  0  0  0  0
M  END
>  <minimizedAffinity>
-6.23627424

$$$$

 OpenBabel03212520573D

 33 36  0  0  0  0  0  0  0  0999 V2000
   41.5790   69.8930   58.9790 C   0  0  0  0  0  0  0  0  0  0  0  0
   41.1580   69.1390   57.9370 C   0  0  0  0  0  0  0  0  0  0  0  0
   41.1120   67.7650   58.2490 C   0  0  0  0  0  0  0  0  0  0  0  0
   41.4480   67.2460   59.4490 N   0  0  0  0  0  0  0  0  0  0  0  0
   41.8570   68.0870   60.4270 C   0  0  0  0  0  0  0  0  0  0  0  0
   41.9250   69.4190   60.1960 N   0  0  0  0  0  0  0  0  0  0  0  0
   40.8790   69.4870   56.9660 H   0  0  0  0  0  0  0  0  0  0  0  0
   40.7860   67.0410   57.4890 H   0  0  0  0  0  0  0  0  0  0  0  0
   41.5300   73.9670   59.2340 C   0  0  0  0  0  0  0  0  0  0  0  0
   42.0990   73.5200   58.0580 C   0  0  0  0  0  0  0  0  0  0  0  0
   42.1730   72.1900   57.8550 C   0  0  0  0  0  0  0  0  0  0  0  0
   41.6820   71.3210   58.8200 C   0  0  0  0  0  0  0  0  0  0  0  0
   41.0590   72.4660   60.1320 S   0  0  0  0  0  0  0  0  0  0  0  0
   42.4850   74.2020   57.3010 H   0  0  0  0  0  0  0  0  0  0  0  0
   42.5770   71.6500   57.0120 H   0  0  0  0  0  0  0  0  0  0  0  0
   40.0680   77.0510   60.5740 C   0  0  0  0  0  0  0  0  0  0  0  0
   41.0420   78.0280   60.2810 C   0  0  0  0  0  0  0  0  0  0  0  0
   42.1930   77.6190   59.6260 C   0  0  0  0  0  0  0  0  0  0  0  0
   42.3250   76.3080   59.3010 N   0  0  0  0  0  0  0  0  0  0  0  0
   41.3770   75.4020   59.5950 C   0  0  0  0  0  0  0  0  0  0  0  0
   40.2690   75.7710   60.2200 N   0  0  0  0  0  0  0  0  0  0  0  0
   39.1330   77.2640   61.0820 H   0  0  0  0  0  0  0  0  0  0  0  0
   40.8430   79.0470   60.5820 H   0  0  0  0  0  0  0  0  0  0  0  0
   42.9450   78.3460   59.3950 H   0  0  0  0  0  0  0  0  0  0  0  0
   42.2140   67.5160   61.7060 C   0  0  0  0  0  0  0  0  0  0  0  0
   43.4100   67.6790   62.0920 O   0  0  0  0  0  0  0  0  0  0  0  0
   41.2440   66.7880   62.5150 C   0  0  0  0  0  0  0  0  0  0  0  0
   41.1250   65.4700   62.6590 N   0  0  0  0  0  0  0  0  0  0  0  0
   40.1090   65.1660   63.4930 C   0  0  0  0  0  0  0  0  0  0  0  0
   39.6910   64.2380   63.8640 H   0  0  0  0  0  0  0  0  0  0  0  0
   39.5980   66.3770   63.8620 N   0  0  0  0  0  0  0  0  0  0  0  0
   38.8100   66.6580   64.4900 H   0  0  0  0  0  0  0  0  0  0  0  0
   40.2980   67.3500   63.2620 N   0  0  0  0  0  0  0  0  0  0  0  0
  1  6  1  0  0  0  0
  2  3  1  0  0  0  0
  2  1  2  0  0  0  0
  3  4  2  0  0  0  0
  4  5  1  0  0  0  0
  5 25  1  0  0  0  0
  6  5  2  0  0  0  0
  7  2  1  0  0  0  0
  8  3  1  0  0  0  0
  9 20  1  0  0  0  0
  9 13  1  0  0  0  0
 10  9  2  0  0  0  0
 11 10  1  0  0  0  0
 11 12  2  0  0  0  0
 12  1  1  0  0  0  0
 12 13  1  0  0  0  0
 14 10  1  0  0  0  0
 15 11  1  0  0  0  0
 16 22  1  0  0  0  0
 17 16  1  0  0  0  0
 17 23  1  0  0  0  0
 18 17  2  0  0  0  0
 19 20  2  0  0  0  0
 19 18  1  0  0  0  0
 20 21  1  0  0  0  0
 21 16  2  0  0  0  0
 24 18  1  0  0  0  0
 25 26  2  0  0  0  0
 25 27  1  0  0  0  0
 27 28  1  0  0  0  0
 27 33  2  0  0  0  0
 28 29  2  0  0  0  0
 29 31  1  0  0  0  0
 29 30  1  0  0  0  0
 31 32  1  0  0  0  0
 33 31  1  0  0  0  0
M  END
>  <minimizedAffinity>
-6.04622889

$$$$

 OpenBabel03212520573D

 33 36  0  0  0  0  0  0  0  0999 V2000
   42.0270   74.7250   59.4680 C   0  0  0  0  0  0  0  0  0  0  0  0
   43.3020   75.0760   59.1870 C   0  0  0  0  0  0  0  0  0  0  0  0
   44.2440   74.2920   59.8820 C   0  0  0  0  0  0  0  0  0  0  0  0
   43.9230   73.2990   60.7370 N   0  0  0  0  0  0  0  0  0  0  0  0
   42.6160   73.0250   60.9510 C   0  0  0  0  0  0  0  0  0  0  0  0
   41.6570   73.7400   60.3150 N   0  0  0  0  0  0  0  0  0  0  0  0
   43.6220   75.8510   58.5220 H   0  0  0  0  0  0  0  0  0  0  0  0
   45.3190   74.4750   59.7430 H   0  0  0  0  0  0  0  0  0  0  0  0
   39.2040   76.3780   57.0250 C   0  0  0  0  0  0  0  0  0  0  0  0
   39.0750   76.7950   58.3360 C   0  0  0  0  0  0  0  0  0  0  0  0
   39.9510   76.3180   59.2410 C   0  0  0  0  0  0  0  0  0  0  0  0
   40.9440   75.4350   58.8370 C   0  0  0  0  0  0  0  0  0  0  0  0
   40.6240   75.2530   57.0240 S   0  0  0  0  0  0  0  0  0  0  0  0
   38.2960   77.4870   58.6530 H   0  0  0  0  0  0  0  0  0  0  0  0
   40.0160   76.5200   60.3000 H   0  0  0  0  0  0  0  0  0  0  0  0
   36.3150   77.8150   55.2830 C   0  0  0  0  0  0  0  0  0  0  0  0
   36.6420   77.6540   53.9210 C   0  0  0  0  0  0  0  0  0  0  0  0
   37.8520   77.0540   53.6120 C   0  0  0  0  0  0  0  0  0  0  0  0
   38.6580   76.6530   54.6290 N   0  0  0  0  0  0  0  0  0  0  0  0
   38.3150   76.8210   55.9170 C   0  0  0  0  0  0  0  0  0  0  0  0
   37.1640   77.3920   56.2360 N   0  0  0  0  0  0  0  0  0  0  0  0
   35.3940   78.2700   55.6340 H   0  0  0  0  0  0  0  0  0  0  0  0
   35.9320   78.0060   53.1860 H   0  0  0  0  0  0  0  0  0  0  0  0
   38.1190   76.9220   52.5830 H   0  0  0  0  0  0  0  0  0  0  0  0
   42.2880   71.9590   61.8690 C   0  0  0  0  0  0  0  0  0  0  0  0
   42.1110   72.2820   63.0820 O   0  0  0  0  0  0  0  0  0  0  0  0
   42.1640   70.5760   61.4240 C   0  0  0  0  0  0  0  0  0  0  0  0
   42.0220   70.1290   60.1780 N   0  0  0  0  0  0  0  0  0  0  0  0
   41.9410   68.7820   60.1560 C   0  0  0  0  0  0  0  0  0  0  0  0
   41.8240   68.0480   59.3680 H   0  0  0  0  0  0  0  0  0  0  0  0
   42.0400   68.4130   61.4660 N   0  0  0  0  0  0  0  0  0  0  0  0
   42.0310   67.4860   61.9500 H   0  0  0  0  0  0  0  0  0  0  0  0
   42.1760   69.5120   62.2220 N   0  0  0  0  0  0  0  0  0  0  0  0
  1  6  1  0  0  0  0
  2  1  2  0  0  0  0
  2  3  1  0  0  0  0
  3  4  2  0  0  0  0
  4  5  1  0  0  0  0
  5 25  1  0  0  0  0
  6  5  2  0  0  0  0
  7  2  1  0  0  0  0
  8  3  1  0  0  0  0
  9 10  2  0  0  0  0
 10 14  1  0  0  0  0
 10 11  1  0  0  0  0
 11 15  1  0  0  0  0
 12 11  2  0  0  0  0
 12  1  1  0  0  0  0
 13  9  1  0  0  0  0
 13 12  1  0  0  0  0
 16 22  1  0  0  0  0
 16 21  1  0  0  0  0
 17 16  2  0  0  0  0
 18 17  1  0  0  0  0
 18 19  2  0  0  0  0
 19 20  1  0  0  0  0
 20 21  2  0  0  0  0
 20  9  1  0  0  0  0
 23 17  1  0  0  0  0
 24 18  1  0  0  0  0
 25 26  2  0  0  0  0
 27 25  1  0  0  0  0
 27 33  2  0  0  0  0
 28 27  1  0  0  0  0
 29 28  2  0  0  0  0
 29 31  1  0  0  0  0
 30 29  1  0  0  0  0
 31 32  1  0  0  0  0
 31 33  1  0  0  0  0
M  END
>  <minimizedAffinity>
-5.84411287

$$$$

 OpenBabel03212520573D

 33 36  0  0  0  0  0  0  0  0999 V2000
   40.3340   74.1610   60.0940 C   0  0  0  0  0  0  0  0  0  0  0  0
   39.9000   74.9110   61.1330 C   0  0  0  0  0  0  0  0  0  0  0  0
   39.3770   76.1530   60.7200 C   0  0  0  0  0  0  0  0  0  0  0  0
   39.3120   76.5610   59.4360 N   0  0  0  0  0  0  0  0  0  0  0  0
   39.7740   75.7360   58.4690 C   0  0  0  0  0  0  0  0  0  0  0  0
   40.2900   74.5270   58.7940 N   0  0  0  0  0  0  0  0  0  0  0  0
   39.9230   74.6460   62.1690 H   0  0  0  0  0  0  0  0  0  0  0  0
   38.9890   76.8590   61.4680 H   0  0  0  0  0  0  0  0  0  0  0  0
   41.7590   70.6300   61.5700 C   0  0  0  0  0  0  0  0  0  0  0  0
   41.8980   70.7220   60.1980 C   0  0  0  0  0  0  0  0  0  0  0  0
   41.4640   71.8440   59.5920 C   0  0  0  0  0  0  0  0  0  0  0  0
   40.8990   72.8600   60.3500 C   0  0  0  0  0  0  0  0  0  0  0  0
   40.9800   72.1870   62.0710 S   0  0  0  0  0  0  0  0  0  0  0  0
   42.3410   69.9250   59.6030 H   0  0  0  0  0  0  0  0  0  0  0  0
   41.4840   72.1040   58.5440 H   0  0  0  0  0  0  0  0  0  0  0  0
   43.9110   68.3830   63.5090 C   0  0  0  0  0  0  0  0  0  0  0  0
   43.0460   67.3260   63.8610 C   0  0  0  0  0  0  0  0  0  0  0  0
   41.7310   67.3940   63.4290 C   0  0  0  0  0  0  0  0  0  0  0  0
   41.3420   68.4680   62.6940 N   0  0  0  0  0  0  0  0  0  0  0  0
   42.1930   69.4580   62.3760 C   0  0  0  0  0  0  0  0  0  0  0  0
   43.4540   69.4130   62.7780 N   0  0  0  0  0  0  0  0  0  0  0  0
   44.9570   68.4270   63.7940 H   0  0  0  0  0  0  0  0  0  0  0  0
   43.4520   66.5150   64.4490 H   0  0  0  0  0  0  0  0  0  0  0  0
   41.0580   66.6010   63.6860 H   0  0  0  0  0  0  0  0  0  0  0  0
   39.6990   76.1880   57.0990 C   0  0  0  0  0  0  0  0  0  0  0  0
   40.7650   76.6440   56.5860 O   0  0  0  0  0  0  0  0  0  0  0  0
   38.4560   76.1210   56.3390 C   0  0  0  0  0  0  0  0  0  0  0  0
   38.0930   75.2050   55.4460 N   0  0  0  0  0  0  0  0  0  0  0  0
   36.8670   75.4740   54.9490 C   0  0  0  0  0  0  0  0  0  0  0  0
   36.2270   74.9910   54.2210 H   0  0  0  0  0  0  0  0  0  0  0  0
   36.4860   76.6190   55.5870 N   0  0  0  0  0  0  0  0  0  0  0  0
   35.6240   77.2100   55.5390 H   0  0  0  0  0  0  0  0  0  0  0  0
   37.4590   76.9980   56.4270 N   0  0  0  0  0  0  0  0  0  0  0  0
  1 12  1  0  0  0  0
  1  2  1  0  0  0  0
  2  7  1  0  0  0  0
  3  2  2  0  0  0  0
  3  8  1  0  0  0  0
  4  3  1  0  0  0  0
  5  6  1  0  0  0  0
  5  4  2  0  0  0  0
  6  1  2  0  0  0  0
  9 13  1  0  0  0  0
  9 20  1  0  0  0  0
 10  9  2  0  0  0  0
 11 10  1  0  0  0  0
 11 12  2  0  0  0  0
 12 13  1  0  0  0  0
 14 10  1  0  0  0  0
 15 11  1  0  0  0  0
 16 22  1  0  0  0  0
 16 17  1  0  0  0  0
 17 23  1  0  0  0  0
 18 24  1  0  0  0  0
 18 17  2  0  0  0  0
 19 18  1  0  0  0  0
 20 19  2  0  0  0  0
 20 21  1  0  0  0  0
 21 16  2  0  0  0  0
 25  5  1  0  0  0  0
 26 25  2  0  0  0  0
 27 33  2  0  0  0  0
 27 25  1  0  0  0  0
 28 27  1  0  0  0  0
 29 28  2  0  0  0  0
 29 31  1  0  0  0  0
 30 29  1  0  0  0  0
 31 33  1  0  0  0  0
 32 31  1  0  0  0  0
M  END
>  <minimizedAffinity>
-5.80103397

$$$$

 OpenBabel03212520573D

 33 36  0  0  0  0  0  0  0  0999 V2000
   41.0890   72.6760   60.9790 C   0  0  0  0  0  0  0  0  0  0  0  0
   41.4640   72.7600   62.2770 C   0  0  0  0  0  0  0  0  0  0  0  0
   42.1140   71.5940   62.7270 C   0  0  0  0  0  0  0  0  0  0  0  0
   42.3440   70.5070   61.9610 N   0  0  0  0  0  0  0  0  0  0  0  0
   41.9290   70.5220   60.6740 C   0  0  0  0  0  0  0  0  0  0  0  0
   41.2960   71.6110   60.1740 N   0  0  0  0  0  0  0  0  0  0  0  0
   41.3120   73.5890   62.9350 H   0  0  0  0  0  0  0  0  0  0  0  0
   42.4710   71.5320   63.7660 H   0  0  0  0  0  0  0  0  0  0  0  0
   39.0870   75.3490   58.6310 C   0  0  0  0  0  0  0  0  0  0  0  0
   39.4010   75.8700   59.8710 C   0  0  0  0  0  0  0  0  0  0  0  0
   40.0650   75.0820   60.7390 C   0  0  0  0  0  0  0  0  0  0  0  0
   40.4090   73.7890   60.3680 C   0  0  0  0  0  0  0  0  0  0  0  0
   39.7440   73.6610   58.6460 S   0  0  0  0  0  0  0  0  0  0  0  0
   39.1310   76.8840   60.1630 H   0  0  0  0  0  0  0  0  0  0  0  0
   40.3970   75.3010   61.7430 H   0  0  0  0  0  0  0  0  0  0  0  0
   36.7580   76.0670   55.8920 C   0  0  0  0  0  0  0  0  0  0  0  0
   36.9980   77.4270   55.6070 C   0  0  0  0  0  0  0  0  0  0  0  0
   37.9580   78.0860   56.3580 C   0  0  0  0  0  0  0  0  0  0  0  0
   38.6150   77.3950   57.3240 N   0  0  0  0  0  0  0  0  0  0  0  0
   38.3620   76.0990   57.5700 C   0  0  0  0  0  0  0  0  0  0  0  0
   37.4490   75.4490   56.8650 N   0  0  0  0  0  0  0  0  0  0  0  0
   36.0300   75.4590   55.3640 H   0  0  0  0  0  0  0  0  0  0  0  0
   36.4220   77.8880   54.8170 H   0  0  0  0  0  0  0  0  0  0  0  0
   38.1550   79.1190   56.1570 H   0  0  0  0  0  0  0  0  0  0  0  0
   42.1810   69.3510   59.8670 C   0  0  0  0  0  0  0  0  0  0  0  0
   42.3930   69.5400   58.6320 O   0  0  0  0  0  0  0  0  0  0  0  0
   42.1920   68.0120   60.4450 C   0  0  0  0  0  0  0  0  0  0  0  0
   43.2460   67.2430   60.7060 N   0  0  0  0  0  0  0  0  0  0  0  0
   42.8630   66.0650   61.2420 C   0  0  0  0  0  0  0  0  0  0  0  0
   43.3950   65.1870   61.5860 H   0  0  0  0  0  0  0  0  0  0  0  0
   41.5020   66.1450   61.3000 N   0  0  0  0  0  0  0  0  0  0  0  0
   40.7620   65.4860   61.6360 H   0  0  0  0  0  0  0  0  0  0  0  0
   41.1110   67.3310   60.8140 N   0  0  0  0  0  0  0  0  0  0  0  0
  1  2  1  0  0  0  0
  2  3  2  0  0  0  0
  2  7  1  0  0  0  0
  3  8  1  0  0  0  0
  4  3  1  0  0  0  0
  5  4  2  0  0  0  0
  6  5  1  0  0  0  0
  6  1  2  0  0  0  0
  9 13  1  0  0  0  0
  9 10  2  0  0  0  0
 10 14  1  0  0  0  0
 10 11  1  0  0  0  0
 11 15  1  0  0  0  0
 12 11  2  0  0  0  0
 12  1  1  0  0  0  0
 13 12  1  0  0  0  0
 16 21  1  0  0  0  0
 17 16  2  0  0  0  0
 17 18  1  0  0  0  0
 18 19  2  0  0  0  0
 19 20  1  0  0  0  0
 20  9  1  0  0  0  0
 21 20  2  0  0  0  0
 22 16  1  0  0  0  0
 23 17  1  0  0  0  0
 24 18  1  0  0  0  0
 25 27  1  0  0  0  0
 25  5  1  0  0  0  0
 26 25  2  0  0  0  0
 27 28  1  0  0  0  0
 27 33  2  0  0  0  0
 28 29  2  0  0  0  0
 29 31  1  0  0  0  0
 29 30  1  0  0  0  0
 31 32  1  0  0  0  0
 33 31  1  0  0  0  0
M  END
>  <minimizedAffinity>
-5.77177191

$$$$

 OpenBabel03212520573D

 33 36  0  0  0  0  0  0  0  0999 V2000
   40.2070   72.7490   59.1100 C   0  0  0  0  0  0  0  0  0  0  0  0
   39.5950   72.0300   58.1410 C   0  0  0  0  0  0  0  0  0  0  0  0
   38.8660   72.8400   57.2470 C   0  0  0  0  0  0  0  0  0  0  0  0
   38.7800   74.1840   57.3360 N   0  0  0  0  0  0  0  0  0  0  0  0
   39.4310   74.8090   58.3440 C   0  0  0  0  0  0  0  0  0  0  0  0
   40.1500   74.0920   59.2400 N   0  0  0  0  0  0  0  0  0  0  0  0
   39.6230   70.9680   58.0160 H   0  0  0  0  0  0  0  0  0  0  0  0
   38.3200   72.3800   56.4110 H   0  0  0  0  0  0  0  0  0  0  0  0
   42.5170   70.2610   61.3780 C   0  0  0  0  0  0  0  0  0  0  0  0
   42.1580   71.4090   62.0560 C   0  0  0  0  0  0  0  0  0  0  0  0
   41.3920   72.3120   61.4120 C   0  0  0  0  0  0  0  0  0  0  0  0
   40.9920   72.0650   60.1060 C   0  0  0  0  0  0  0  0  0  0  0  0
   41.7560   70.4200   59.7420 S   0  0  0  0  0  0  0  0  0  0  0  0
   42.4720   71.6040   63.0810 H   0  0  0  0  0  0  0  0  0  0  0  0
   41.0120   73.2590   61.7640 H   0  0  0  0  0  0  0  0  0  0  0  0
   44.0770   68.0610   63.8620 C   0  0  0  0  0  0  0  0  0  0  0  0
   44.8720   67.1980   63.0810 C   0  0  0  0  0  0  0  0  0  0  0  0
   44.8660   67.3780   61.7070 C   0  0  0  0  0  0  0  0  0  0  0  0
   44.0990   68.3700   61.1840 N   0  0  0  0  0  0  0  0  0  0  0  0
   43.3530   69.1760   61.9590 C   0  0  0  0  0  0  0  0  0  0  0  0
   43.3440   69.0210   63.2740 N   0  0  0  0  0  0  0  0  0  0  0  0
   44.0110   68.0070   64.9440 H   0  0  0  0  0  0  0  0  0  0  0  0
   45.4480   66.4390   63.5910 H   0  0  0  0  0  0  0  0  0  0  0  0
   45.4630   66.7330   61.0950 H   0  0  0  0  0  0  0  0  0  0  0  0
   39.3290   76.2480   58.4260 C   0  0  0  0  0  0  0  0  0  0  0  0
   38.3240   76.7840   57.8700 O   0  0  0  0  0  0  0  0  0  0  0  0
   40.3330   77.0470   59.1180 C   0  0  0  0  0  0  0  0  0  0  0  0
   40.1770   77.7860   60.2140 N   0  0  0  0  0  0  0  0  0  0  0  0
   41.3360   78.3840   60.5620 C   0  0  0  0  0  0  0  0  0  0  0  0
   41.6280   79.0480   61.3660 H   0  0  0  0  0  0  0  0  0  0  0  0
   42.2280   77.9740   59.6140 N   0  0  0  0  0  0  0  0  0  0  0  0
   43.2440   78.1670   59.4580 H   0  0  0  0  0  0  0  0  0  0  0  0
   41.6050   77.1630   58.7470 N   0  0  0  0  0  0  0  0  0  0  0  0
  1  6  1  0  0  0  0
  1 12  1  0  0  0  0
  2  1  2  0  0  0  0
  3  4  2  0  0  0  0
  3  2  1  0  0  0  0
  4  5  1  0  0  0  0
  5 25  1  0  0  0  0
  5  6  2  0  0  0  0
  7  2  1  0  0  0  0
  8  3  1  0  0  0  0
  9 20  1  0  0  0  0
  9 10  2  0  0  0  0
 10 14  1  0  0  0  0
 11 15  1  0  0  0  0
 11 10  1  0  0  0  0
 12 11  2  0  0  0  0
 13 12  1  0  0  0  0
 13  9  1  0  0  0  0
 16 22  1  0  0  0  0
 17 23  1  0  0  0  0
 17 16  2  0  0  0  0
 18 17  1  0  0  0  0
 19 18  2  0  0  0  0
 19 20  1  0  0  0  0
 20 21  2  0  0  0  0
 21 16  1  0  0  0  0
 24 18  1  0  0  0  0
 25 27  1  0  0  0  0
 26 25  2  0  0  0  0
 27 28  1  0  0  0  0
 28 29  2  0  0  0  0
 29 30  1  0  0  0  0
 31 29  1  0  0  0  0
 32 31  1  0  0  0  0
 33 27  2  0  0  0  0
 33 31  1  0  0  0  0
M  END
>  <minimizedAffinity>
-5.75760746

$$$$

 OpenBabel03212520573D

 33 36  0  0  0  0  0  0  0  0999 V2000
   41.1090   72.3110   61.0910 C   0  0  0  0  0  0  0  0  0  0  0  0
   41.3570   72.3420   62.4210 C   0  0  0  0  0  0  0  0  0  0  0  0
   42.1280   71.2450   62.8520 C   0  0  0  0  0  0  0  0  0  0  0  0
   42.5760   70.2640   62.0400 N   0  0  0  0  0  0  0  0  0  0  0  0
   42.2740   70.3240   60.7230 C   0  0  0  0  0  0  0  0  0  0  0  0
   41.5350   71.3520   60.2400 N   0  0  0  0  0  0  0  0  0  0  0  0
   41.0320   73.0870   63.1150 H   0  0  0  0  0  0  0  0  0  0  0  0
   42.4010   71.1500   63.9130 H   0  0  0  0  0  0  0  0  0  0  0  0
   38.9690   74.8730   58.7410 C   0  0  0  0  0  0  0  0  0  0  0  0
   39.0630   75.3110   60.0480 C   0  0  0  0  0  0  0  0  0  0  0  0
   39.7480   74.5490   60.9230 C   0  0  0  0  0  0  0  0  0  0  0  0
   40.3300   73.3650   60.4930 C   0  0  0  0  0  0  0  0  0  0  0  0
   39.8800   73.3080   58.7000 S   0  0  0  0  0  0  0  0  0  0  0  0
   38.6060   76.2400   60.3850 H   0  0  0  0  0  0  0  0  0  0  0  0
   39.9320   74.7170   61.9740 H   0  0  0  0  0  0  0  0  0  0  0  0
   36.6420   75.5560   55.9910 C   0  0  0  0  0  0  0  0  0  0  0  0
   36.8990   76.9050   55.6740 C   0  0  0  0  0  0  0  0  0  0  0  0
   37.8690   77.5700   56.4070 C   0  0  0  0  0  0  0  0  0  0  0  0
   38.5200   76.8940   57.3880 N   0  0  0  0  0  0  0  0  0  0  0  0
   38.2510   75.6070   57.6650 C   0  0  0  0  0  0  0  0  0  0  0  0
   37.3270   74.9520   56.9770 N   0  0  0  0  0  0  0  0  0  0  0  0
   35.9050   74.9450   55.4800 H   0  0  0  0  0  0  0  0  0  0  0  0
   36.3270   77.3550   54.8740 H   0  0  0  0  0  0  0  0  0  0  0  0
   38.0790   78.5960   56.1820 H   0  0  0  0  0  0  0  0  0  0  0  0
   42.7590   69.2660   59.8670 C   0  0  0  0  0  0  0  0  0  0  0  0
   43.7230   68.5700   60.3060 O   0  0  0  0  0  0  0  0  0  0  0  0
   42.1680   69.0100   58.5590 C   0  0  0  0  0  0  0  0  0  0  0  0
   42.5120   69.5420   57.3890 N   0  0  0  0  0  0  0  0  0  0  0  0
   41.7370   69.0610   56.3940 C   0  0  0  0  0  0  0  0  0  0  0  0
   41.6910   69.2330   55.3260 H   0  0  0  0  0  0  0  0  0  0  0  0
   40.8850   68.1940   57.0150 N   0  0  0  0  0  0  0  0  0  0  0  0
   40.1090   67.5840   56.6690 H   0  0  0  0  0  0  0  0  0  0  0  0
   41.1600   68.1740   58.3270 N   0  0  0  0  0  0  0  0  0  0  0  0
  1  2  1  0  0  0  0
  2  3  2  0  0  0  0
  2  7  1  0  0  0  0
  3  8  1  0  0  0  0
  4  3  1  0  0  0  0
  5  4  2  0  0  0  0
  6  5  1  0  0  0  0
  6  1  2  0  0  0  0
  9 10  2  0  0  0  0
 10 14  1  0  0  0  0
 10 11  1  0  0  0  0
 11 15  1  0  0  0  0
 12 11  2  0  0  0  0
 12  1  1  0  0  0  0
 13  9  1  0  0  0  0
 13 12  1  0  0  0  0
 16 21  1  0  0  0  0
 17 16  2  0  0  0  0
 17 18  1  0  0  0  0
 18 19  2  0  0  0  0
 19 20  1  0  0  0  0
 20  9  1  0  0  0  0
 21 20  2  0  0  0  0
 22 16  1  0  0  0  0
 23 17  1  0  0  0  0
 24 18  1  0  0  0  0
 25 26  2  0  0  0  0
 25  5  1  0  0  0  0
 27 25  1  0  0  0  0
 28 27  1  0  0  0  0
 29 31  1  0  0  0  0
 29 28  2  0  0  0  0
 30 29  1  0  0  0  0
 31 33  1  0  0  0  0
 32 31  1  0  0  0  0
 33 27  2  0  0  0  0
M  END
>  <minimizedAffinity>
-5.74528503

$$$$
