
 OpenBabel03212520553D

 33 36  0  0  0  0  0  0  0  0999 V2000
   39.6790   77.1740   59.1280 C   0  0  0  0  0  0  0  0  0  0  0  0
   40.3400   76.0250   58.8580 C   0  0  0  0  0  0  0  0  0  0  0  0
   39.7660   75.3120   57.7860 C   0  0  0  0  0  0  0  0  0  0  0  0
   38.6790   75.7180   57.0980 N   0  0  0  0  0  0  0  0  0  0  0  0
   38.0900   76.8850   57.4460 C   0  0  0  0  0  0  0  0  0  0  0  0
   38.5880   77.6210   58.4680 N   0  0  0  0  0  0  0  0  0  0  0  0
   41.2030   75.6480   59.3640 H   0  0  0  0  0  0  0  0  0  0  0  0
   40.2080   74.3580   57.4640 H   0  0  0  0  0  0  0  0  0  0  0  0
   40.9440   80.1400   61.6320 C   0  0  0  0  0  0  0  0  0  0  0  0
   40.8850   78.9110   62.2600 C   0  0  0  0  0  0  0  0  0  0  0  0
   40.4810   77.8490   61.5350 C   0  0  0  0  0  0  0  0  0  0  0  0
   40.1410   78.0180   60.2000 C   0  0  0  0  0  0  0  0  0  0  0  0
   40.4100   79.8280   59.9300 S   0  0  0  0  0  0  0  0  0  0  0  0
   41.1520   78.7780   63.3070 H   0  0  0  0  0  0  0  0  0  0  0  0
   40.3700   76.8190   61.8390 H   0  0  0  0  0  0  0  0  0  0  0  0
   43.0810   82.9140   62.7190 C   0  0  0  0  0  0  0  0  0  0  0  0
   42.2160   83.7030   63.5060 C   0  0  0  0  0  0  0  0  0  0  0  0
   40.9070   83.2760   63.6560 C   0  0  0  0  0  0  0  0  0  0  0  0
   40.5230   82.1270   63.0430 N   0  0  0  0  0  0  0  0  0  0  0  0
   41.3730   81.3980   62.3000 C   0  0  0  0  0  0  0  0  0  0  0  0
   42.6290   81.7870   62.1430 N   0  0  0  0  0  0  0  0  0  0  0  0
   44.1230   83.1570   62.5380 H   0  0  0  0  0  0  0  0  0  0  0  0
   42.6180   84.6020   63.9530 H   0  0  0  0  0  0  0  0  0  0  0  0
   40.2340   83.8610   64.2500 H   0  0  0  0  0  0  0  0  0  0  0  0
   36.9260   77.3060   56.7000 C   0  0  0  0  0  0  0  0  0  0  0  0
   35.7960   77.0900   57.2320 O   0  0  0  0  0  0  0  0  0  0  0  0
   37.0450   77.9510   55.3980 C   0  0  0  0  0  0  0  0  0  0  0  0
   36.7530   77.4400   54.2050 N   0  0  0  0  0  0  0  0  0  0  0  0
   36.9920   78.3380   53.2240 C   0  0  0  0  0  0  0  0  0  0  0  0
   36.8890   78.3190   52.1460 H   0  0  0  0  0  0  0  0  0  0  0  0
   37.4540   79.4420   53.8800 N   0  0  0  0  0  0  0  0  0  0  0  0
   37.7690   80.3850   53.5560 H   0  0  0  0  0  0  0  0  0  0  0  0
   37.4800   79.1910   55.1970 N   0  0  0  0  0  0  0  0  0  0  0  0
  1 12  1  0  0  0  0
  2  1  1  0  0  0  0
  2  7  1  0  0  0  0
  3  2  2  0  0  0  0
  4  5  2  0  0  0  0
  4  3  1  0  0  0  0
  5  6  1  0  0  0  0
  6  1  2  0  0  0  0
  8  3  1  0  0  0  0
  9 10  2  0  0  0  0
  9 20  1  0  0  0  0
 10 14  1  0  0  0  0
 11 15  1  0  0  0  0
 11 10  1  0  0  0  0
 12 11  2  0  0  0  0
 13 12  1  0  0  0  0
 13  9  1  0  0  0  0
 16 17  1  0  0  0  0
 17 18  2  0  0  0  0
 17 23  1  0  0  0  0
 18 24  1  0  0  0  0
 19 18  1  0  0  0  0
 20 19  2  0  0  0  0
 21 20  1  0  0  0  0
 21 16  2  0  0  0  0
 22 16  1  0  0  0  0
 25 26  2  0  0  0  0
 25  5  1  0  0  0  0
 27 25  1  0  0  0  0
 28 27  1  0  0  0  0
 29 31  1  0  0  0  0
 29 28  2  0  0  0  0
 30 29  1  0  0  0  0
 31 33  1  0  0  0  0
 32 31  1  0  0  0  0
 33 27  2  0  0  0  0
M  END
>  <minimizedAffinity>
-6.2097764

>  <minimizedRMSD>
0.416399717

$$$$
