
 OpenBabel03212520553D

 33 36  0  0  0  0  0  0  0  0999 V2000
   39.6820   77.1800   59.1230 C   0  0  0  0  0  0  0  0  0  0  0  0
   40.3440   76.0320   58.8510 C   0  0  0  0  0  0  0  0  0  0  0  0
   39.7720   75.3200   57.7780 C   0  0  0  0  0  0  0  0  0  0  0  0
   38.6840   75.7260   57.0910 N   0  0  0  0  0  0  0  0  0  0  0  0
   38.0930   76.8910   57.4410 C   0  0  0  0  0  0  0  0  0  0  0  0
   38.5900   77.6260   58.4640 N   0  0  0  0  0  0  0  0  0  0  0  0
   41.2090   75.6560   59.3560 H   0  0  0  0  0  0  0  0  0  0  0  0
   40.2150   74.3670   57.4540 H   0  0  0  0  0  0  0  0  0  0  0  0
   40.9440   80.1440   61.6320 C   0  0  0  0  0  0  0  0  0  0  0  0
   40.8850   78.9140   62.2580 C   0  0  0  0  0  0  0  0  0  0  0  0
   40.4820   77.8530   61.5320 C   0  0  0  0  0  0  0  0  0  0  0  0
   40.1430   78.0230   60.1960 C   0  0  0  0  0  0  0  0  0  0  0  0
   40.4110   79.8330   59.9280 S   0  0  0  0  0  0  0  0  0  0  0  0
   41.1500   78.7800   63.3050 H   0  0  0  0  0  0  0  0  0  0  0  0
   40.3700   76.8220   61.8350 H   0  0  0  0  0  0  0  0  0  0  0  0
   43.0790   82.9170   62.7240 C   0  0  0  0  0  0  0  0  0  0  0  0
   42.2140   83.7050   63.5100 C   0  0  0  0  0  0  0  0  0  0  0  0
   40.9040   83.2780   63.6580 C   0  0  0  0  0  0  0  0  0  0  0  0
   40.5210   82.1300   63.0430 N   0  0  0  0  0  0  0  0  0  0  0  0
   41.3720   81.4010   62.3010 C   0  0  0  0  0  0  0  0  0  0  0  0
   42.6280   81.7910   62.1460 N   0  0  0  0  0  0  0  0  0  0  0  0
   44.1220   83.1600   62.5440 H   0  0  0  0  0  0  0  0  0  0  0  0
   42.6150   84.6040   63.9580 H   0  0  0  0  0  0  0  0  0  0  0  0
   40.2310   83.8630   64.2510 H   0  0  0  0  0  0  0  0  0  0  0  0
   36.9280   77.3110   56.6970 C   0  0  0  0  0  0  0  0  0  0  0  0
   35.7990   77.0950   57.2290 O   0  0  0  0  0  0  0  0  0  0  0  0
   37.0460   77.9560   55.3940 C   0  0  0  0  0  0  0  0  0  0  0  0
   36.7500   77.4460   54.2010 N   0  0  0  0  0  0  0  0  0  0  0  0
   36.9890   78.3430   53.2200 C   0  0  0  0  0  0  0  0  0  0  0  0
   36.8840   78.3240   52.1430 H   0  0  0  0  0  0  0  0  0  0  0  0
   37.4540   79.4460   53.8760 N   0  0  0  0  0  0  0  0  0  0  0  0
   37.7700   80.3890   53.5500 H   0  0  0  0  0  0  0  0  0  0  0  0
   37.4820   79.1950   55.1910 N   0  0  0  0  0  0  0  0  0  0  0  0
  1 12  1  0  0  0  0
  2  1  1  0  0  0  0
  2  7  1  0  0  0  0
  3  2  2  0  0  0  0
  4  5  2  0  0  0  0
  4  3  1  0  0  0  0
  5  6  1  0  0  0  0
  6  1  2  0  0  0  0
  8  3  1  0  0  0  0
  9 10  2  0  0  0  0
  9 20  1  0  0  0  0
 10 14  1  0  0  0  0
 11 15  1  0  0  0  0
 11 10  1  0  0  0  0
 12 11  2  0  0  0  0
 13 12  1  0  0  0  0
 13  9  1  0  0  0  0
 16 17  1  0  0  0  0
 17 18  2  0  0  0  0
 17 23  1  0  0  0  0
 18 24  1  0  0  0  0
 19 18  1  0  0  0  0
 20 19  2  0  0  0  0
 21 20  1  0  0  0  0
 21 16  2  0  0  0  0
 22 16  1  0  0  0  0
 25 26  2  0  0  0  0
 25  5  1  0  0  0  0
 27 25  1  0  0  0  0
 28 27  1  0  0  0  0
 29 31  1  0  0  0  0
 29 28  2  0  0  0  0
 30 29  1  0  0  0  0
 31 33  1  0  0  0  0
 32 31  1  0  0  0  0
 33 27  2  0  0  0  0
M  END
>  <minimizedAffinity>
-6.21140909

>  <minimizedRMSD>
0.386148542

$$$$
