
 OpenBabel03212520553D

 33 36  0  0  0  0  0  0  0  0999 V2000
   39.6810   77.2000   59.0500 C   0  0  0  0  0  0  0  0  0  0  0  0
   40.3870   76.0880   58.7380 C   0  0  0  0  0  0  0  0  0  0  0  0
   39.8260   75.3790   57.6570 C   0  0  0  0  0  0  0  0  0  0  0  0
   38.7100   75.7540   56.9990 N   0  0  0  0  0  0  0  0  0  0  0  0
   38.0760   76.8840   57.3890 C   0  0  0  0  0  0  0  0  0  0  0  0
   38.5600   77.6150   58.4210 N   0  0  0  0  0  0  0  0  0  0  0  0
   41.2750   75.7370   59.2190 H   0  0  0  0  0  0  0  0  0  0  0  0
   40.3040   74.4550   57.3020 H   0  0  0  0  0  0  0  0  0  0  0  0
   40.9210   80.1420   61.5940 C   0  0  0  0  0  0  0  0  0  0  0  0
   40.8190   78.9150   62.2190 C   0  0  0  0  0  0  0  0  0  0  0  0
   40.4190   77.8600   61.4820 C   0  0  0  0  0  0  0  0  0  0  0  0
   40.1250   78.0350   60.1360 C   0  0  0  0  0  0  0  0  0  0  0  0
   40.4360   79.8400   59.8750 S   0  0  0  0  0  0  0  0  0  0  0  0
   41.0500   78.7770   63.2740 H   0  0  0  0  0  0  0  0  0  0  0  0
   40.2780   76.8320   61.7820 H   0  0  0  0  0  0  0  0  0  0  0  0
   43.0640   82.8980   62.7140 C   0  0  0  0  0  0  0  0  0  0  0  0
   42.2010   83.6820   63.5060 C   0  0  0  0  0  0  0  0  0  0  0  0
   40.8890   83.2590   63.6480 C   0  0  0  0  0  0  0  0  0  0  0  0
   40.5030   82.1170   63.0230 N   0  0  0  0  0  0  0  0  0  0  0  0
   41.3530   81.3920   62.2750 C   0  0  0  0  0  0  0  0  0  0  0  0
   42.6110   81.7790   62.1260 N   0  0  0  0  0  0  0  0  0  0  0  0
   44.1080   83.1390   62.5390 H   0  0  0  0  0  0  0  0  0  0  0  0
   42.6040   84.5750   63.9630 H   0  0  0  0  0  0  0  0  0  0  0  0
   40.2170   83.8410   64.2450 H   0  0  0  0  0  0  0  0  0  0  0  0
   36.8810   77.2720   56.6740 C   0  0  0  0  0  0  0  0  0  0  0  0
   35.7760   77.1000   57.2710 O   0  0  0  0  0  0  0  0  0  0  0  0
   36.9430   77.8360   55.3310 C   0  0  0  0  0  0  0  0  0  0  0  0
   37.4920   78.9870   54.9530 N   0  0  0  0  0  0  0  0  0  0  0  0
   37.3530   79.1730   53.6230 C   0  0  0  0  0  0  0  0  0  0  0  0
   37.6520   79.9590   52.9390 H   0  0  0  0  0  0  0  0  0  0  0  0
   36.6830   78.0660   53.1930 N   0  0  0  0  0  0  0  0  0  0  0  0
   36.3470   77.7550   52.2520 H   0  0  0  0  0  0  0  0  0  0  0  0
   36.4410   77.2660   54.2400 N   0  0  0  0  0  0  0  0  0  0  0  0
  1 12  1  0  0  0  0
  2  1  1  0  0  0  0
  2  7  1  0  0  0  0
  3  2  2  0  0  0  0
  4  5  2  0  0  0  0
  4  3  1  0  0  0  0
  5  6  1  0  0  0  0
  6  1  2  0  0  0  0
  8  3  1  0  0  0  0
  9 10  2  0  0  0  0
  9 20  1  0  0  0  0
 10 14  1  0  0  0  0
 11 15  1  0  0  0  0
 11 10  1  0  0  0  0
 12 11  2  0  0  0  0
 13 12  1  0  0  0  0
 13  9  1  0  0  0  0
 16 17  1  0  0  0  0
 17 18  2  0  0  0  0
 17 23  1  0  0  0  0
 18 24  1  0  0  0  0
 19 18  1  0  0  0  0
 20 19  2  0  0  0  0
 21 20  1  0  0  0  0
 21 16  2  0  0  0  0
 22 16  1  0  0  0  0
 25 26  2  0  0  0  0
 25  5  1  0  0  0  0
 27 25  1  0  0  0  0
 28 27  1  0  0  0  0
 29 28  2  0  0  0  0
 30 29  1  0  0  0  0
 31 29  1  0  0  0  0
 31 33  1  0  0  0  0
 32 31  1  0  0  0  0
 33 27  2  0  0  0  0
M  END
>  <minimizedAffinity>
-6.32023621

>  <minimizedRMSD>
0.435715169

$$$$
