
 OpenBabel03212520553D

 33 36  0  0  0  0  0  0  0  0999 V2000
   39.6780   77.1660   59.1360 C   0  0  0  0  0  0  0  0  0  0  0  0
   40.3310   76.0100   58.8760 C   0  0  0  0  0  0  0  0  0  0  0  0
   39.7580   75.2970   57.8050 C   0  0  0  0  0  0  0  0  0  0  0  0
   38.6790   75.7080   57.1070 N   0  0  0  0  0  0  0  0  0  0  0  0
   38.0970   76.8810   57.4460 C   0  0  0  0  0  0  0  0  0  0  0  0
   38.5950   77.6190   58.4670 N   0  0  0  0  0  0  0  0  0  0  0  0
   41.1880   75.6290   59.3900 H   0  0  0  0  0  0  0  0  0  0  0  0
   40.1940   74.3370   57.4900 H   0  0  0  0  0  0  0  0  0  0  0  0
   40.9430   80.1370   61.6350 C   0  0  0  0  0  0  0  0  0  0  0  0
   40.8850   78.9090   62.2650 C   0  0  0  0  0  0  0  0  0  0  0  0
   40.4810   77.8460   61.5420 C   0  0  0  0  0  0  0  0  0  0  0  0
   40.1400   78.0130   60.2070 C   0  0  0  0  0  0  0  0  0  0  0  0
   40.4090   79.8220   59.9330 S   0  0  0  0  0  0  0  0  0  0  0  0
   41.1520   78.7780   63.3120 H   0  0  0  0  0  0  0  0  0  0  0  0
   40.3690   76.8160   61.8480 H   0  0  0  0  0  0  0  0  0  0  0  0
   43.0810   82.9130   62.7170 C   0  0  0  0  0  0  0  0  0  0  0  0
   42.2170   83.7030   63.5020 C   0  0  0  0  0  0  0  0  0  0  0  0
   40.9070   83.2770   63.6530 C   0  0  0  0  0  0  0  0  0  0  0  0
   40.5230   82.1270   63.0420 N   0  0  0  0  0  0  0  0  0  0  0  0
   41.3730   81.3960   62.3010 C   0  0  0  0  0  0  0  0  0  0  0  0
   42.6290   81.7850   62.1430 N   0  0  0  0  0  0  0  0  0  0  0  0
   44.1230   83.1550   62.5350 H   0  0  0  0  0  0  0  0  0  0  0  0
   42.6180   84.6030   63.9470 H   0  0  0  0  0  0  0  0  0  0  0  0
   40.2350   83.8630   64.2450 H   0  0  0  0  0  0  0  0  0  0  0  0
   36.9420   77.3080   56.6910 C   0  0  0  0  0  0  0  0  0  0  0  0
   35.8060   77.1100   57.2190 O   0  0  0  0  0  0  0  0  0  0  0  0
   37.0740   77.9390   55.3830 C   0  0  0  0  0  0  0  0  0  0  0  0
   36.6620   77.4730   54.2070 N   0  0  0  0  0  0  0  0  0  0  0  0
   36.9610   78.3380   53.2140 C   0  0  0  0  0  0  0  0  0  0  0  0
   36.8030   78.3370   52.1430 H   0  0  0  0  0  0  0  0  0  0  0  0
   37.5860   79.3750   53.8430 N   0  0  0  0  0  0  0  0  0  0  0  0
   37.9990   80.2730   53.5010 H   0  0  0  0  0  0  0  0  0  0  0  0
   37.6470   79.1180   55.1570 N   0  0  0  0  0  0  0  0  0  0  0  0
  1 12  1  0  0  0  0
  2  1  1  0  0  0  0
  2  7  1  0  0  0  0
  3  2  2  0  0  0  0
  4  5  2  0  0  0  0
  4  3  1  0  0  0  0
  5  6  1  0  0  0  0
  6  1  2  0  0  0  0
  8  3  1  0  0  0  0
  9 10  2  0  0  0  0
  9 20  1  0  0  0  0
 10 14  1  0  0  0  0
 11 15  1  0  0  0  0
 11 10  1  0  0  0  0
 12 11  2  0  0  0  0
 13 12  1  0  0  0  0
 13  9  1  0  0  0  0
 16 17  1  0  0  0  0
 17 18  2  0  0  0  0
 17 23  1  0  0  0  0
 18 24  1  0  0  0  0
 19 18  1  0  0  0  0
 20 19  2  0  0  0  0
 21 20  1  0  0  0  0
 21 16  2  0  0  0  0
 22 16  1  0  0  0  0
 25 26  2  0  0  0  0
 25  5  1  0  0  0  0
 27 25  1  0  0  0  0
 28 27  1  0  0  0  0
 29 31  1  0  0  0  0
 29 28  2  0  0  0  0
 30 29  1  0  0  0  0
 31 33  1  0  0  0  0
 32 31  1  0  0  0  0
 33 27  2  0  0  0  0
M  END
>  <minimizedAffinity>
-6.20129061

>  <minimizedRMSD>
0.360191911

$$$$
