
 OpenBabel03212520553D

 33 36  0  0  0  0  0  0  0  0999 V2000
   39.6810   77.1980   59.0500 C   0  0  0  0  0  0  0  0  0  0  0  0
   40.3860   76.0870   58.7370 C   0  0  0  0  0  0  0  0  0  0  0  0
   39.8250   75.3770   57.6570 C   0  0  0  0  0  0  0  0  0  0  0  0
   38.7090   75.7530   56.9990 N   0  0  0  0  0  0  0  0  0  0  0  0
   38.0760   76.8830   57.3890 C   0  0  0  0  0  0  0  0  0  0  0  0
   38.5600   77.6140   58.4210 N   0  0  0  0  0  0  0  0  0  0  0  0
   41.2750   75.7350   59.2180 H   0  0  0  0  0  0  0  0  0  0  0  0
   40.3020   74.4530   57.3020 H   0  0  0  0  0  0  0  0  0  0  0  0
   40.9220   80.1410   61.5930 C   0  0  0  0  0  0  0  0  0  0  0  0
   40.8230   78.9130   62.2180 C   0  0  0  0  0  0  0  0  0  0  0  0
   40.4230   77.8590   61.4800 C   0  0  0  0  0  0  0  0  0  0  0  0
   40.1260   78.0340   60.1360 C   0  0  0  0  0  0  0  0  0  0  0  0
   40.4340   79.8390   59.8750 S   0  0  0  0  0  0  0  0  0  0  0  0
   41.0560   78.7750   63.2720 H   0  0  0  0  0  0  0  0  0  0  0  0
   40.2850   76.8300   61.7800 H   0  0  0  0  0  0  0  0  0  0  0  0
   43.0650   82.8970   62.7150 C   0  0  0  0  0  0  0  0  0  0  0  0
   42.2000   83.6820   63.5050 C   0  0  0  0  0  0  0  0  0  0  0  0
   40.8880   83.2580   63.6460 C   0  0  0  0  0  0  0  0  0  0  0  0
   40.5030   82.1160   63.0210 N   0  0  0  0  0  0  0  0  0  0  0  0
   41.3530   81.3910   62.2750 C   0  0  0  0  0  0  0  0  0  0  0  0
   42.6110   81.7780   62.1260 N   0  0  0  0  0  0  0  0  0  0  0  0
   44.1090   83.1380   62.5400 H   0  0  0  0  0  0  0  0  0  0  0  0
   42.6030   84.5750   63.9620 H   0  0  0  0  0  0  0  0  0  0  0  0
   40.2160   83.8400   64.2430 H   0  0  0  0  0  0  0  0  0  0  0  0
   36.8810   77.2720   56.6750 C   0  0  0  0  0  0  0  0  0  0  0  0
   35.7760   77.1010   57.2710 O   0  0  0  0  0  0  0  0  0  0  0  0
   36.9430   77.8360   55.3320 C   0  0  0  0  0  0  0  0  0  0  0  0
   37.4930   78.9880   54.9540 N   0  0  0  0  0  0  0  0  0  0  0  0
   37.3550   79.1740   53.6240 C   0  0  0  0  0  0  0  0  0  0  0  0
   37.6530   79.9590   52.9400 H   0  0  0  0  0  0  0  0  0  0  0  0
   36.6830   78.0660   53.1930 N   0  0  0  0  0  0  0  0  0  0  0  0
   36.3490   77.7560   52.2520 H   0  0  0  0  0  0  0  0  0  0  0  0
   36.4410   77.2660   54.2400 N   0  0  0  0  0  0  0  0  0  0  0  0
  1 12  1  0  0  0  0
  2  1  1  0  0  0  0
  2  7  1  0  0  0  0
  3  2  2  0  0  0  0
  4  5  2  0  0  0  0
  4  3  1  0  0  0  0
  5  6  1  0  0  0  0
  6  1  2  0  0  0  0
  8  3  1  0  0  0  0
  9 10  2  0  0  0  0
  9 20  1  0  0  0  0
 10 14  1  0  0  0  0
 11 15  1  0  0  0  0
 11 10  1  0  0  0  0
 12 11  2  0  0  0  0
 13 12  1  0  0  0  0
 13  9  1  0  0  0  0
 16 17  1  0  0  0  0
 17 18  2  0  0  0  0
 17 23  1  0  0  0  0
 18 24  1  0  0  0  0
 19 18  1  0  0  0  0
 20 19  2  0  0  0  0
 21 20  1  0  0  0  0
 21 16  2  0  0  0  0
 22 16  1  0  0  0  0
 25 26  2  0  0  0  0
 25  5  1  0  0  0  0
 27 25  1  0  0  0  0
 28 27  1  0  0  0  0
 29 28  2  0  0  0  0
 30 29  1  0  0  0  0
 31 29  1  0  0  0  0
 31 33  1  0  0  0  0
 32 31  1  0  0  0  0
 33 27  2  0  0  0  0
M  END
>  <minimizedAffinity>
-6.32039976

>  <minimizedRMSD>
0.388663948

$$$$
