
 OpenBabel03212520553D

 33 36  0  0  0  0  0  0  0  0999 V2000
   39.6810   77.1780   59.1250 C   0  0  0  0  0  0  0  0  0  0  0  0
   40.3430   76.0300   58.8530 C   0  0  0  0  0  0  0  0  0  0  0  0
   39.7700   75.3170   57.7810 C   0  0  0  0  0  0  0  0  0  0  0  0
   38.6820   75.7230   57.0930 N   0  0  0  0  0  0  0  0  0  0  0  0
   38.0920   76.8890   57.4430 C   0  0  0  0  0  0  0  0  0  0  0  0
   38.5900   77.6250   58.4650 N   0  0  0  0  0  0  0  0  0  0  0  0
   41.2070   75.6530   59.3590 H   0  0  0  0  0  0  0  0  0  0  0  0
   40.2130   74.3650   57.4580 H   0  0  0  0  0  0  0  0  0  0  0  0
   40.9440   80.1430   61.6320 C   0  0  0  0  0  0  0  0  0  0  0  0
   40.8850   78.9130   62.2590 C   0  0  0  0  0  0  0  0  0  0  0  0
   40.4820   77.8520   61.5330 C   0  0  0  0  0  0  0  0  0  0  0  0
   40.1420   78.0220   60.1980 C   0  0  0  0  0  0  0  0  0  0  0  0
   40.4110   79.8320   59.9290 S   0  0  0  0  0  0  0  0  0  0  0  0
   41.1510   78.7790   63.3060 H   0  0  0  0  0  0  0  0  0  0  0  0
   40.3700   76.8210   61.8360 H   0  0  0  0  0  0  0  0  0  0  0  0
   43.0800   82.9160   62.7220 C   0  0  0  0  0  0  0  0  0  0  0  0
   42.2150   83.7050   63.5080 C   0  0  0  0  0  0  0  0  0  0  0  0
   40.9050   83.2780   63.6570 C   0  0  0  0  0  0  0  0  0  0  0  0
   40.5210   82.1290   63.0430 N   0  0  0  0  0  0  0  0  0  0  0  0
   41.3720   81.4000   62.3010 C   0  0  0  0  0  0  0  0  0  0  0  0
   42.6280   81.7900   62.1450 N   0  0  0  0  0  0  0  0  0  0  0  0
   44.1220   83.1590   62.5430 H   0  0  0  0  0  0  0  0  0  0  0  0
   42.6160   84.6030   63.9560 H   0  0  0  0  0  0  0  0  0  0  0  0
   40.2320   83.8630   64.2500 H   0  0  0  0  0  0  0  0  0  0  0  0
   36.9280   77.3100   56.6980 C   0  0  0  0  0  0  0  0  0  0  0  0
   35.7980   77.0930   57.2300 O   0  0  0  0  0  0  0  0  0  0  0  0
   37.0460   77.9550   55.3960 C   0  0  0  0  0  0  0  0  0  0  0  0
   36.7500   77.4450   54.2020 N   0  0  0  0  0  0  0  0  0  0  0  0
   36.9890   78.3420   53.2220 C   0  0  0  0  0  0  0  0  0  0  0  0
   36.8840   78.3250   52.1440 H   0  0  0  0  0  0  0  0  0  0  0  0
   37.4530   79.4450   53.8780 N   0  0  0  0  0  0  0  0  0  0  0  0
   37.7690   80.3890   53.5530 H   0  0  0  0  0  0  0  0  0  0  0  0
   37.4810   79.1940   55.1940 N   0  0  0  0  0  0  0  0  0  0  0  0
  1 12  1  0  0  0  0
  2  1  1  0  0  0  0
  2  7  1  0  0  0  0
  3  2  2  0  0  0  0
  4  5  2  0  0  0  0
  4  3  1  0  0  0  0
  5  6  1  0  0  0  0
  6  1  2  0  0  0  0
  8  3  1  0  0  0  0
  9 10  2  0  0  0  0
  9 20  1  0  0  0  0
 10 14  1  0  0  0  0
 11 15  1  0  0  0  0
 11 10  1  0  0  0  0
 12 11  2  0  0  0  0
 13 12  1  0  0  0  0
 13  9  1  0  0  0  0
 16 17  1  0  0  0  0
 17 18  2  0  0  0  0
 17 23  1  0  0  0  0
 18 24  1  0  0  0  0
 19 18  1  0  0  0  0
 20 19  2  0  0  0  0
 21 20  1  0  0  0  0
 21 16  2  0  0  0  0
 22 16  1  0  0  0  0
 25 26  2  0  0  0  0
 25  5  1  0  0  0  0
 27 25  1  0  0  0  0
 28 27  1  0  0  0  0
 29 31  1  0  0  0  0
 29 28  2  0  0  0  0
 30 29  1  0  0  0  0
 31 33  1  0  0  0  0
 32 31  1  0  0  0  0
 33 27  2  0  0  0  0
M  END
>  <minimizedAffinity>
-6.21120405

>  <minimizedRMSD>
0.518603802

$$$$
