
 OpenBabel03212521023D

 26 27  0  0  0  0  0  0  0  0999 V2000
   42.3770   84.5120   62.1890 C   0  0  0  0  0  0  0  0  0  0  0  0
   42.2870   84.9230   63.5260 C   0  0  0  0  0  0  0  0  0  0  0  0
   41.4110   84.3400   64.4020 C   0  0  0  0  0  0  0  0  0  0  0  0
   40.5800   83.2970   63.9440 C   0  0  0  0  0  0  0  0  0  0  0  0
   40.6750   82.8950   62.6180 C   0  0  0  0  0  0  0  0  0  0  0  0
   41.5620   83.4900   61.7380 C   0  0  0  0  0  0  0  0  0  0  0  0
   42.9310   85.7240   63.8620 H   0  0  0  0  0  0  0  0  0  0  0  0
   41.3910   84.7060   65.4240 H   0  0  0  0  0  0  0  0  0  0  0  0
   39.9390   82.9150   64.7070 H   0  0  0  0  0  0  0  0  0  0  0  0
   39.9830   82.1010   62.4500 H   0  0  0  0  0  0  0  0  0  0  0  0
   45.4940   85.8190   60.7980 C   0  0  0  0  0  0  0  0  0  0  0  0
   45.0890   86.4180   59.6110 C   0  0  0  0  0  0  0  0  0  0  0  0
   43.7310   86.3720   59.2860 C   0  0  0  0  0  0  0  0  0  0  0  0
   42.8930   85.7450   60.1470 N   0  0  0  0  0  0  0  0  0  0  0  0
   43.3250   85.1620   61.3090 C   0  0  0  0  0  0  0  0  0  0  0  0
   44.6150   85.2130   61.6080 N   0  0  0  0  0  0  0  0  0  0  0  0
   46.5660   85.8610   61.0450 H   0  0  0  0  0  0  0  0  0  0  0  0
   45.7960   86.8950   58.9760 H   0  0  0  0  0  0  0  0  0  0  0  0
   43.3660   86.8200   58.3790 H   0  0  0  0  0  0  0  0  0  0  0  0
   41.5550   82.9760   60.4190 N   0  0  0  0  0  0  0  0  0  0  0  0
   42.2080   82.3590   59.9110 H   0  0  0  0  0  0  0  0  0  0  0  0
   40.4300   83.1770   59.1530 S   0  0  0  0  0  0  0  0  0  0  0  0
   41.1040   83.7770   57.9240 O   0  0  0  0  0  0  0  0  0  0  0  0
   39.4040   84.1960   59.5600 O   0  0  0  0  0  0  0  0  0  0  0  0
   39.6580   81.7230   58.7660 O   0  0  0  0  0  0  0  0  0  0  0  0
   38.7420   81.8740   58.4660 H   0  0  0  0  0  0  0  0  0  0  0  0
  1  2  1  0  0  0  0
  2  7  1  0  0  0  0
  2  3  2  0  0  0  0
  3  8  1  0  0  0  0
  4  3  1  0  0  0  0
  4  9  1  0  0  0  0
  5  4  2  0  0  0  0
  6  1  2  0  0  0  0
  6  5  1  0  0  0  0
 10  5  1  0  0  0  0
 11 17  1  0  0  0  0
 11 16  1  0  0  0  0
 12 11  2  0  0  0  0
 13 12  1  0  0  0  0
 13 14  2  0  0  0  0
 14 15  1  0  0  0  0
 15 16  2  0  0  0  0
 15  1  1  0  0  0  0
 18 12  1  0  0  0  0
 19 13  1  0  0  0  0
 20  6  1  0  0  0  0
 21 20  1  0  0  0  0
 22 24  1  0  0  0  0
 22 20  1  0  0  0  0
 23 22  1  0  0  0  0
 25 22  1  0  0  0  0
 26 25  1  0  0  0  0
M  END
>  <minimizedAffinity>
-5.08491182

>  <minimizedRMSD>
2.07113099

$$$$
