
 OpenBabel03212521053D

 34 36  0  0  0  0  0  0  0  0999 V2000
   41.8140   84.2500   61.6140 C   0  0  0  0  0  0  0  0  0  0  0  0
   41.4080   83.9870   62.9210 C   0  0  0  0  0  0  0  0  0  0  0  0
   40.1260   83.5810   63.2150 C   0  0  0  0  0  0  0  0  0  0  0  0
   39.2080   83.4260   62.1810 C   0  0  0  0  0  0  0  0  0  0  0  0
   39.6060   83.6860   60.8650 C   0  0  0  0  0  0  0  0  0  0  0  0
   40.8910   84.0920   60.5830 C   0  0  0  0  0  0  0  0  0  0  0  0
   42.0840   84.0930   63.7680 H   0  0  0  0  0  0  0  0  0  0  0  0
   39.7970   83.3730   64.2270 H   0  0  0  0  0  0  0  0  0  0  0  0
   38.1960   83.1160   62.3000 H   0  0  0  0  0  0  0  0  0  0  0  0
   38.9110   83.5740   60.0310 H   0  0  0  0  0  0  0  0  0  0  0  0
   41.2660   84.3520   59.2160 C   0  0  0  0  0  0  0  0  0  0  0  0
   40.7190   85.5620   58.7550 C   0  0  0  0  0  0  0  0  0  0  0  0
   40.9590   86.0010   57.4580 C   0  0  0  0  0  0  0  0  0  0  0  0
   41.7270   85.2260   56.6760 N   0  0  0  0  0  0  0  0  0  0  0  0
   42.2520   84.0580   57.1300 C   0  0  0  0  0  0  0  0  0  0  0  0
   42.0220   83.6320   58.3810 N   0  0  0  0  0  0  0  0  0  0  0  0
   40.0840   86.2440   59.3350 H   0  0  0  0  0  0  0  0  0  0  0  0
   40.5450   86.9360   57.0800 H   0  0  0  0  0  0  0  0  0  0  0  0
   43.0420   83.3150   56.2450 N   0  0  0  0  0  0  0  0  0  0  0  0
   43.1290   82.2760   56.2620 H   0  0  0  0  0  0  0  0  0  0  0  0
   43.9570   84.1310   55.0140 S   0  0  0  0  0  0  0  0  0  0  0  0
   44.8250   85.2010   55.6570 O   0  0  0  0  0  1  0  0  0  0  0  0
   44.9010   83.1700   54.3510 O   0  0  0  0  0  1  0  0  0  0  0  0
   42.9720   84.9100   53.9090 O   0  0  0  0  0  0  0  0  0  0  0  0
   42.4080   84.2910   53.4040 H   0  0  0  0  0  0  0  0  0  0  0  0
   45.3950   84.1270   60.9200 C   0  0  0  0  0  0  0  0  0  0  0  0
   45.7590   85.4790   60.8870 C   0  0  0  0  0  0  0  0  0  0  0  0
   44.7450   86.4510   61.1090 C   0  0  0  0  0  0  0  0  0  0  0  0
   43.4930   86.0030   61.3390 N   0  0  0  0  0  0  0  0  0  0  0  0
   43.1740   84.6740   61.3630 C   0  0  0  0  0  0  0  0  0  0  0  0
   44.1280   83.7700   61.1540 N   0  0  0  0  0  0  0  0  0  0  0  0
   46.1900   83.3930   60.7450 H   0  0  0  0  0  0  0  0  0  0  0  0
   46.7730   85.7450   60.6980 H   0  0  0  0  0  0  0  0  0  0  0  0
   45.0280   87.4750   61.0830 H   0  0  0  0  0  0  0  0  0  0  0  0
  1  2  1  0  0  0  0
  2  3  2  0  0  0  0
  2  7  1  0  0  0  0
  3  8  1  0  0  0  0
  4  9  1  0  0  0  0
  4  3  1  0  0  0  0
  5  4  2  0  0  0  0
  6  5  1  0  0  0  0
  6  1  2  0  0  0  0
 10  5  1  0  0  0  0
 11  6  1  0  0  0  0
 12 11  1  0  0  0  0
 12 17  1  0  0  0  0
 13 12  2  0  0  0  0
 14 15  2  0  0  0  0
 14 13  1  0  0  0  0
 15 16  1  0  0  0  0
 16 11  2  0  0  0  0
 18 13  1  0  0  0  0
 19 20  1  0  0  0  0
 19 15  1  0  0  0  0
 21 22  1  0  0  0  0
 21 19  1  0  0  0  0
 23 21  1  0  0  0  0
 24 21  1  0  0  0  0
 25 24  1  0  0  0  0
 26 31  1  0  0  0  0
 27 26  2  0  0  0  0
 27 28  1  0  0  0  0
 28 29  2  0  0  0  0
 29 30  1  0  0  0  0
 30  1  1  0  0  0  0
 31 30  2  0  0  0  0
 32 26  1  0  0  0  0
 33 27  1  0  0  0  0
 34 28  1  0  0  0  0
M  END
>  <minimizedAffinity>
-5.86547852

>  <minimizedRMSD>
0.46661678

$$$$
