
 OpenBabel03212521043D

 34 36  0  0  0  0  0  0  0  0999 V2000
   41.7910   84.1480   61.5390 C   0  0  0  0  0  0  0  0  0  0  0  0
   41.4250   83.8640   62.8540 C   0  0  0  0  0  0  0  0  0  0  0  0
   40.1340   83.5260   63.1910 C   0  0  0  0  0  0  0  0  0  0  0  0
   39.1650   83.4650   62.1950 C   0  0  0  0  0  0  0  0  0  0  0  0
   39.5210   83.7470   60.8710 C   0  0  0  0  0  0  0  0  0  0  0  0
   40.8170   84.0830   60.5460 C   0  0  0  0  0  0  0  0  0  0  0  0
   42.1420   83.8980   63.6720 H   0  0  0  0  0  0  0  0  0  0  0  0
   39.8350   83.3040   64.2090 H   0  0  0  0  0  0  0  0  0  0  0  0
   38.1410   83.2140   62.3480 H   0  0  0  0  0  0  0  0  0  0  0  0
   38.7870   83.7070   60.0660 H   0  0  0  0  0  0  0  0  0  0  0  0
   41.1490   84.3690   59.1720 C   0  0  0  0  0  0  0  0  0  0  0  0
   41.0190   85.7380   58.8870 C   0  0  0  0  0  0  0  0  0  0  0  0
   41.2920   86.2280   57.6150 C   0  0  0  0  0  0  0  0  0  0  0  0
   41.6800   85.3430   56.6830 N   0  0  0  0  0  0  0  0  0  0  0  0
   41.8030   84.0190   56.9680 C   0  0  0  0  0  0  0  0  0  0  0  0
   41.5400   83.5450   58.1940 N   0  0  0  0  0  0  0  0  0  0  0  0
   40.7070   86.5180   59.5950 H   0  0  0  0  0  0  0  0  0  0  0  0
   41.1990   87.2870   57.3710 H   0  0  0  0  0  0  0  0  0  0  0  0
   42.2140   83.1700   55.9350 N   0  0  0  0  0  0  0  0  0  0  0  0
   42.6430   83.4940   55.0400 H   0  0  0  0  0  0  0  0  0  0  0  0
   42.0190   81.4530   56.1010 S   0  0  0  0  0  0  0  0  0  0  0  0
   40.5520   81.0910   55.9250 O   0  0  0  0  0  1  0  0  0  0  0  0
   42.7590   80.7400   55.0070 O   0  0  0  0  0  1  0  0  0  0  0  0
   42.4680   80.9120   57.6210 O   0  0  0  0  0  0  0  0  0  0  0  0
   43.4170   81.0550   57.8060 H   0  0  0  0  0  0  0  0  0  0  0  0
   45.2730   83.8630   60.4840 C   0  0  0  0  0  0  0  0  0  0  0  0
   45.7700   85.1580   60.6770 C   0  0  0  0  0  0  0  0  0  0  0  0
   44.8830   86.1480   61.1810 C   0  0  0  0  0  0  0  0  0  0  0  0
   43.6130   85.7710   61.4430 N   0  0  0  0  0  0  0  0  0  0  0  0
   43.1620   84.4970   61.2420 C   0  0  0  0  0  0  0  0  0  0  0  0
   43.9980   83.5750   60.7690 N   0  0  0  0  0  0  0  0  0  0  0  0
   45.9720   83.1140   60.0940 H   0  0  0  0  0  0  0  0  0  0  0  0
   46.7880   85.3700   60.4440 H   0  0  0  0  0  0  0  0  0  0  0  0
   45.2660   87.1290   61.3250 H   0  0  0  0  0  0  0  0  0  0  0  0
  1  2  1  0  0  0  0
  2  3  2  0  0  0  0
  2  7  1  0  0  0  0
  3  8  1  0  0  0  0
  4  9  1  0  0  0  0
  4  3  1  0  0  0  0
  5  4  2  0  0  0  0
  6  5  1  0  0  0  0
  6  1  2  0  0  0  0
 10  5  1  0  0  0  0
 11  6  1  0  0  0  0
 12 11  1  0  0  0  0
 12 17  1  0  0  0  0
 13 12  2  0  0  0  0
 14 15  2  0  0  0  0
 14 13  1  0  0  0  0
 15 16  1  0  0  0  0
 16 11  2  0  0  0  0
 18 13  1  0  0  0  0
 19 21  1  0  0  0  0
 19 15  1  0  0  0  0
 20 19  1  0  0  0  0
 21 24  1  0  0  0  0
 22 21  1  0  0  0  0
 23 21  1  0  0  0  0
 24 25  1  0  0  0  0
 26 27  2  0  0  0  0
 26 31  1  0  0  0  0
 27 28  1  0  0  0  0
 28 34  1  0  0  0  0
 28 29  2  0  0  0  0
 30 29  1  0  0  0  0
 30  1  1  0  0  0  0
 31 30  2  0  0  0  0
 32 26  1  0  0  0  0
 33 27  1  0  0  0  0
M  END
>  <minimizedAffinity>
-5.37914991

>  <minimizedRMSD>
0.881205261

$$$$
