
 OpenBabel03212521053D

 34 36  0  0  0  0  0  0  0  0999 V2000
   41.8150   84.2350   61.5890 C   0  0  0  0  0  0  0  0  0  0  0  0
   41.4510   83.9540   62.9050 C   0  0  0  0  0  0  0  0  0  0  0  0
   40.1740   83.5620   63.2370 C   0  0  0  0  0  0  0  0  0  0  0  0
   39.2170   83.4420   62.2340 C   0  0  0  0  0  0  0  0  0  0  0  0
   39.5710   83.7210   60.9100 C   0  0  0  0  0  0  0  0  0  0  0  0
   40.8520   84.1120   60.5890 C   0  0  0  0  0  0  0  0  0  0  0  0
   42.1590   84.0320   63.7280 H   0  0  0  0  0  0  0  0  0  0  0  0
   39.8780   83.3410   64.2560 H   0  0  0  0  0  0  0  0  0  0  0  0
   38.2040   83.1470   62.3840 H   0  0  0  0  0  0  0  0  0  0  0  0
   38.8460   83.6360   60.1000 H   0  0  0  0  0  0  0  0  0  0  0  0
   41.1820   84.3920   59.2140 C   0  0  0  0  0  0  0  0  0  0  0  0
   40.7190   85.6600   58.8240 C   0  0  0  0  0  0  0  0  0  0  0  0
   40.9330   86.1270   57.5320 C   0  0  0  0  0  0  0  0  0  0  0  0
   41.5940   85.3220   56.6850 N   0  0  0  0  0  0  0  0  0  0  0  0
   42.0390   84.0970   57.0720 C   0  0  0  0  0  0  0  0  0  0  0  0
   41.8340   83.6440   58.3170 N   0  0  0  0  0  0  0  0  0  0  0  0
   40.1730   86.3700   59.4580 H   0  0  0  0  0  0  0  0  0  0  0  0
   40.5830   87.1080   57.2070 H   0  0  0  0  0  0  0  0  0  0  0  0
   42.7190   83.3260   56.1230 N   0  0  0  0  0  0  0  0  0  0  0  0
   43.6010   83.6170   55.6490 H   0  0  0  0  0  0  0  0  0  0  0  0
   42.0930   81.7700   55.6670 S   0  0  0  0  0  0  0  0  0  0  0  0
   40.8150   81.4940   56.4420 O   0  0  0  0  0  1  0  0  0  0  0  0
   41.7090   81.7740   54.2160 O   0  0  0  0  0  1  0  0  0  0  0  0
   43.1570   80.5310   56.0350 O   0  0  0  0  0  0  0  0  0  0  0  0
   43.9960   80.5960   55.5380 H   0  0  0  0  0  0  0  0  0  0  0  0
   45.3550   84.0710   60.7200 C   0  0  0  0  0  0  0  0  0  0  0  0
   45.7510   85.4140   60.7420 C   0  0  0  0  0  0  0  0  0  0  0  0
   44.7720   86.3950   61.0630 C   0  0  0  0  0  0  0  0  0  0  0  0
   43.5210   85.9630   61.3280 N   0  0  0  0  0  0  0  0  0  0  0  0
   43.1710   84.6420   61.2960 C   0  0  0  0  0  0  0  0  0  0  0  0
   44.0910   83.7300   60.9950 N   0  0  0  0  0  0  0  0  0  0  0  0
   46.1230   83.3290   60.4690 H   0  0  0  0  0  0  0  0  0  0  0  0
   46.7610   85.6680   60.5200 H   0  0  0  0  0  0  0  0  0  0  0  0
   45.0780   87.4120   61.0790 H   0  0  0  0  0  0  0  0  0  0  0  0
  1  2  1  0  0  0  0
  2  3  2  0  0  0  0
  2  7  1  0  0  0  0
  3  8  1  0  0  0  0
  4  9  1  0  0  0  0
  4  3  1  0  0  0  0
  5  4  2  0  0  0  0
  6  5  1  0  0  0  0
  6  1  2  0  0  0  0
 10  5  1  0  0  0  0
 11  6  1  0  0  0  0
 12 11  1  0  0  0  0
 12 17  1  0  0  0  0
 13 12  2  0  0  0  0
 14 15  2  0  0  0  0
 14 13  1  0  0  0  0
 15 16  1  0  0  0  0
 16 11  2  0  0  0  0
 18 13  1  0  0  0  0
 19 15  1  0  0  0  0
 20 19  1  0  0  0  0
 21 24  1  0  0  0  0
 21 19  1  0  0  0  0
 21 22  1  0  0  0  0
 23 21  1  0  0  0  0
 25 24  1  0  0  0  0
 26 27  2  0  0  0  0
 26 31  1  0  0  0  0
 27 28  1  0  0  0  0
 28 34  1  0  0  0  0
 28 29  2  0  0  0  0
 30 29  1  0  0  0  0
 30  1  1  0  0  0  0
 31 30  2  0  0  0  0
 32 26  1  0  0  0  0
 33 27  1  0  0  0  0
M  END
>  <minimizedAffinity>
-5.56690598

>  <minimizedRMSD>
0.149722368

$$$$
