
 OpenBabel03212521053D

 34 36  0  0  0  0  0  0  0  0999 V2000
   41.8090   84.2470   61.6010 C   0  0  0  0  0  0  0  0  0  0  0  0
   41.3550   83.9800   62.8920 C   0  0  0  0  0  0  0  0  0  0  0  0
   40.0640   83.5710   63.1370 C   0  0  0  0  0  0  0  0  0  0  0  0
   39.1840   83.4190   62.0700 C   0  0  0  0  0  0  0  0  0  0  0  0
   39.6290   83.6840   60.7700 C   0  0  0  0  0  0  0  0  0  0  0  0
   40.9240   84.0920   60.5370 C   0  0  0  0  0  0  0  0  0  0  0  0
   41.9990   84.0830   63.7630 H   0  0  0  0  0  0  0  0  0  0  0  0
   39.6970   83.3600   64.1350 H   0  0  0  0  0  0  0  0  0  0  0  0
   38.1680   83.1080   62.1490 H   0  0  0  0  0  0  0  0  0  0  0  0
   38.9660   83.5740   59.9100 H   0  0  0  0  0  0  0  0  0  0  0  0
   41.3490   84.3570   59.1850 C   0  0  0  0  0  0  0  0  0  0  0  0
   40.6980   85.4850   58.6550 C   0  0  0  0  0  0  0  0  0  0  0  0
   40.9650   85.9150   57.3600 C   0  0  0  0  0  0  0  0  0  0  0  0
   41.8600   85.2120   56.6480 N   0  0  0  0  0  0  0  0  0  0  0  0
   42.4850   84.1220   57.1690 C   0  0  0  0  0  0  0  0  0  0  0  0
   42.2290   83.7060   58.4180 N   0  0  0  0  0  0  0  0  0  0  0  0
   39.9580   86.1060   59.1760 H   0  0  0  0  0  0  0  0  0  0  0  0
   40.4730   86.7870   56.9290 H   0  0  0  0  0  0  0  0  0  0  0  0
   43.4030   83.4510   56.3550 N   0  0  0  0  0  0  0  0  0  0  0  0
   44.0990   82.7550   56.7000 H   0  0  0  0  0  0  0  0  0  0  0  0
   43.4290   83.7620   54.6460 S   0  0  0  0  0  0  0  0  0  0  0  0
   44.1820   85.0570   54.3800 O   0  0  0  0  0  1  0  0  0  0  0  0
   44.1910   82.6820   53.9350 O   0  0  0  0  0  1  0  0  0  0  0  0
   41.8890   83.9650   54.0200 O   0  0  0  0  0  0  0  0  0  0  0  0
   41.3420   83.1580   54.0990 H   0  0  0  0  0  0  0  0  0  0  0  0
   45.4250   84.1310   61.1230 C   0  0  0  0  0  0  0  0  0  0  0  0
   45.7760   85.4830   61.0240 C   0  0  0  0  0  0  0  0  0  0  0  0
   44.7410   86.4520   61.1250 C   0  0  0  0  0  0  0  0  0  0  0  0
   43.4820   86.0030   61.3110 N   0  0  0  0  0  0  0  0  0  0  0  0
   43.1760   84.6740   61.4020 C   0  0  0  0  0  0  0  0  0  0  0  0
   44.1490   83.7720   61.3070 N   0  0  0  0  0  0  0  0  0  0  0  0
   46.2360   83.3980   61.0420 H   0  0  0  0  0  0  0  0  0  0  0  0
   46.7960   85.7510   60.8770 H   0  0  0  0  0  0  0  0  0  0  0  0
   45.0140   87.4770   61.0500 H   0  0  0  0  0  0  0  0  0  0  0  0
  1  2  1  0  0  0  0
  2  3  2  0  0  0  0
  2  7  1  0  0  0  0
  3  8  1  0  0  0  0
  4  9  1  0  0  0  0
  4  3  1  0  0  0  0
  5  4  2  0  0  0  0
  6  5  1  0  0  0  0
  6  1  2  0  0  0  0
 10  5  1  0  0  0  0
 11  6  1  0  0  0  0
 12 17  1  0  0  0  0
 12 11  1  0  0  0  0
 13 12  2  0  0  0  0
 14 15  2  0  0  0  0
 14 13  1  0  0  0  0
 15 16  1  0  0  0  0
 16 11  2  0  0  0  0
 18 13  1  0  0  0  0
 19 20  1  0  0  0  0
 19 15  1  0  0  0  0
 21 19  1  0  0  0  0
 22 21  1  0  0  0  0
 23 21  1  0  0  0  0
 24 25  1  0  0  0  0
 24 21  1  0  0  0  0
 26 31  1  0  0  0  0
 27 26  2  0  0  0  0
 27 28  1  0  0  0  0
 28 29  2  0  0  0  0
 29 30  1  0  0  0  0
 30  1  1  0  0  0  0
 31 30  2  0  0  0  0
 32 26  1  0  0  0  0
 33 27  1  0  0  0  0
 34 28  1  0  0  0  0
M  END
>  <minimizedAffinity>
-5.60737848

>  <minimizedRMSD>
0.690160453

$$$$
