
 OpenBabel03212521053D

 34 36  0  0  0  0  0  0  0  0999 V2000
   41.8330   84.2580   61.5410 C   0  0  0  0  0  0  0  0  0  0  0  0
   41.4940   83.8860   62.8410 C   0  0  0  0  0  0  0  0  0  0  0  0
   40.2260   83.4590   63.1670 C   0  0  0  0  0  0  0  0  0  0  0  0
   39.2540   83.3950   62.1740 C   0  0  0  0  0  0  0  0  0  0  0  0
   39.5840   83.7660   60.8650 C   0  0  0  0  0  0  0  0  0  0  0  0
   40.8550   84.1910   60.5510 C   0  0  0  0  0  0  0  0  0  0  0  0
   42.2140   83.9170   63.6560 H   0  0  0  0  0  0  0  0  0  0  0  0
   39.9490   83.1670   64.1730 H   0  0  0  0  0  0  0  0  0  0  0  0
   38.2470   83.0800   62.3190 H   0  0  0  0  0  0  0  0  0  0  0  0
   38.8460   83.7270   60.0630 H   0  0  0  0  0  0  0  0  0  0  0  0
   41.1600   84.5660   59.1930 C   0  0  0  0  0  0  0  0  0  0  0  0
   40.5050   85.7560   58.8300 C   0  0  0  0  0  0  0  0  0  0  0  0
   40.6630   86.2940   57.5590 C   0  0  0  0  0  0  0  0  0  0  0  0
   41.4600   85.6340   56.7030 N   0  0  0  0  0  0  0  0  0  0  0  0
   42.0900   84.4830   57.0630 C   0  0  0  0  0  0  0  0  0  0  0  0
   41.9390   83.9620   58.2890 N   0  0  0  0  0  0  0  0  0  0  0  0
   39.8410   86.3480   59.4730 H   0  0  0  0  0  0  0  0  0  0  0  0
   40.1660   87.2160   57.2550 H   0  0  0  0  0  0  0  0  0  0  0  0
   42.9020   83.8630   56.1070 N   0  0  0  0  0  0  0  0  0  0  0  0
   42.6400   83.0010   55.5810 H   0  0  0  0  0  0  0  0  0  0  0  0
   44.4580   84.5350   55.7310 S   0  0  0  0  0  0  0  0  0  0  0  0
   44.7830   85.6430   56.7210 O   0  0  0  0  0  1  0  0  0  0  0  0
   45.5260   83.4940   55.9050 O   0  0  0  0  0  1  0  0  0  0  0  0
   44.4960   85.2270   54.2070 O   0  0  0  0  0  0  0  0  0  0  0  0
   44.3480   84.5740   53.4940 H   0  0  0  0  0  0  0  0  0  0  0  0
   45.3680   84.1870   60.6370 C   0  0  0  0  0  0  0  0  0  0  0  0
   45.7420   85.5340   60.7130 C   0  0  0  0  0  0  0  0  0  0  0  0
   44.7520   86.4840   61.0850 C   0  0  0  0  0  0  0  0  0  0  0  0
   43.5100   86.0220   61.3410 N   0  0  0  0  0  0  0  0  0  0  0  0
   43.1800   84.6980   61.2560 C   0  0  0  0  0  0  0  0  0  0  0  0
   44.1120   83.8150   60.9070 N   0  0  0  0  0  0  0  0  0  0  0  0
   46.1440   83.4690   60.3480 H   0  0  0  0  0  0  0  0  0  0  0  0
   46.7470   85.8130   60.4940 H   0  0  0  0  0  0  0  0  0  0  0  0
   45.0430   87.5050   61.1410 H   0  0  0  0  0  0  0  0  0  0  0  0
  1  2  1  0  0  0  0
  2  3  2  0  0  0  0
  2  7  1  0  0  0  0
  3  8  1  0  0  0  0
  4  9  1  0  0  0  0
  4  3  1  0  0  0  0
  5  4  2  0  0  0  0
  6  5  1  0  0  0  0
  6  1  2  0  0  0  0
 10  5  1  0  0  0  0
 11  6  1  0  0  0  0
 12 11  1  0  0  0  0
 12 17  1  0  0  0  0
 13 12  2  0  0  0  0
 14 15  2  0  0  0  0
 14 13  1  0  0  0  0
 15 16  1  0  0  0  0
 16 11  2  0  0  0  0
 18 13  1  0  0  0  0
 19 15  1  0  0  0  0
 20 19  1  0  0  0  0
 21 23  1  0  0  0  0
 21 19  1  0  0  0  0
 21 22  1  0  0  0  0
 24 21  1  0  0  0  0
 25 24  1  0  0  0  0
 26 27  2  0  0  0  0
 26 31  1  0  0  0  0
 27 28  1  0  0  0  0
 28 34  1  0  0  0  0
 28 29  2  0  0  0  0
 30 29  1  0  0  0  0
 30  1  1  0  0  0  0
 31 30  2  0  0  0  0
 32 26  1  0  0  0  0
 33 27  1  0  0  0  0
M  END
>  <minimizedAffinity>
-5.59896612

>  <minimizedRMSD>
0.473243088

$$$$
