
 OpenBabel03212521083D

 34 36  0  0  0  0  0  0  0  0999 V2000
   41.7980   73.5320   59.9030 C   0  0  0  0  0  0  0  0  0  0  0  0
   42.8100   73.1030   60.7590 C   0  0  0  0  0  0  0  0  0  0  0  0
   43.3590   71.8450   60.6610 C   0  0  0  0  0  0  0  0  0  0  0  0
   42.8940   70.9750   59.6800 C   0  0  0  0  0  0  0  0  0  0  0  0
   41.8780   71.3950   58.8140 C   0  0  0  0  0  0  0  0  0  0  0  0
   41.3370   72.6570   58.9220 C   0  0  0  0  0  0  0  0  0  0  0  0
   43.2110   73.7420   61.5440 H   0  0  0  0  0  0  0  0  0  0  0  0
   44.1470   71.4980   61.3200 H   0  0  0  0  0  0  0  0  0  0  0  0
   43.2500   69.9840   59.5180 H   0  0  0  0  0  0  0  0  0  0  0  0
   41.4910   70.7390   58.0340 H   0  0  0  0  0  0  0  0  0  0  0  0
   40.2910   73.0570   58.0140 C   0  0  0  0  0  0  0  0  0  0  0  0
   39.1940   72.1820   58.0780 C   0  0  0  0  0  0  0  0  0  0  0  0
   38.0740   72.3880   57.2800 C   0  0  0  0  0  0  0  0  0  0  0  0
   38.0890   73.4480   56.4560 N   0  0  0  0  0  0  0  0  0  0  0  0
   39.1560   74.2890   56.4010 C   0  0  0  0  0  0  0  0  0  0  0  0
   40.2370   74.0930   57.1690 N   0  0  0  0  0  0  0  0  0  0  0  0
   39.1100   71.2980   58.7240 H   0  0  0  0  0  0  0  0  0  0  0  0
   37.2110   71.7220   57.3130 H   0  0  0  0  0  0  0  0  0  0  0  0
   39.0840   75.3680   55.5130 N   0  0  0  0  0  0  0  0  0  0  0  0
   39.9090   75.8000   55.0420 H   0  0  0  0  0  0  0  0  0  0  0  0
   37.5420   76.0720   55.1340 S   0  0  0  0  0  0  0  0  0  0  0  0
   36.9040   76.6060   56.4070 O   0  0  0  0  0  1  0  0  0  0  0  0
   37.7230   77.2570   54.2290 O   0  0  0  0  0  1  0  0  0  0  0  0
   36.4760   74.9490   54.4970 O   0  0  0  0  0  0  0  0  0  0  0  0
   36.7790   74.5860   53.6420 H   0  0  0  0  0  0  0  0  0  0  0  0
   39.6090   76.2770   60.8990 C   0  0  0  0  0  0  0  0  0  0  0  0
   40.2280   77.3990   60.3340 C   0  0  0  0  0  0  0  0  0  0  0  0
   41.4260   77.2000   59.5940 C   0  0  0  0  0  0  0  0  0  0  0  0
   41.8890   75.9370   59.4850 N   0  0  0  0  0  0  0  0  0  0  0  0
   41.2570   74.8650   60.0510 C   0  0  0  0  0  0  0  0  0  0  0  0
   40.1370   75.0580   60.7420 N   0  0  0  0  0  0  0  0  0  0  0  0
   38.6860   76.4500   61.4670 H   0  0  0  0  0  0  0  0  0  0  0  0
   39.7940   78.3620   60.4690 H   0  0  0  0  0  0  0  0  0  0  0  0
   41.8900   78.0550   59.1670 H   0  0  0  0  0  0  0  0  0  0  0  0
  1 30  1  0  0  0  0
  1  2  1  0  0  0  0
  2  7  1  0  0  0  0
  3  2  2  0  0  0  0
  3  8  1  0  0  0  0
  4  3  1  0  0  0  0
  5  6  1  0  0  0  0
  5  4  2  0  0  0  0
  6  1  2  0  0  0  0
  9  4  1  0  0  0  0
 10  5  1  0  0  0  0
 11 12  1  0  0  0  0
 11  6  1  0  0  0  0
 12 17  1  0  0  0  0
 13 18  1  0  0  0  0
 13 12  2  0  0  0  0
 14 13  1  0  0  0  0
 15 14  2  0  0  0  0
 15 16  1  0  0  0  0
 16 11  2  0  0  0  0
 19 15  1  0  0  0  0
 20 19  1  0  0  0  0
 21 19  1  0  0  0  0
 21 22  1  0  0  0  0
 23 21  1  0  0  0  0
 24 21  1  0  0  0  0
 25 24  1  0  0  0  0
 26 32  1  0  0  0  0
 27 33  1  0  0  0  0
 27 26  2  0  0  0  0
 28 27  1  0  0  0  0
 29 28  2  0  0  0  0
 29 30  1  0  0  0  0
 30 31  2  0  0  0  0
 31 26  1  0  0  0  0
 34 28  1  0  0  0  0
M  END
>  <minimizedAffinity>
-5.77935934

$$$$

 OpenBabel03212521083D

 34 36  0  0  0  0  0  0  0  0999 V2000
   42.4140   74.3000   59.2000 C   0  0  0  0  0  0  0  0  0  0  0  0
   43.5890   74.2410   59.9480 C   0  0  0  0  0  0  0  0  0  0  0  0
   44.8200   74.0820   59.3530 C   0  0  0  0  0  0  0  0  0  0  0  0
   44.8980   73.9760   57.9680 C   0  0  0  0  0  0  0  0  0  0  0  0
   43.7250   74.0350   57.2080 C   0  0  0  0  0  0  0  0  0  0  0  0
   42.4980   74.1950   57.8140 C   0  0  0  0  0  0  0  0  0  0  0  0
   43.5860   74.3180   61.0330 H   0  0  0  0  0  0  0  0  0  0  0  0
   45.7420   74.0340   59.9220 H   0  0  0  0  0  0  0  0  0  0  0  0
   45.7970   73.8520   57.4110 H   0  0  0  0  0  0  0  0  0  0  0  0
   43.7500   73.9560   56.1200 H   0  0  0  0  0  0  0  0  0  0  0  0
   41.3100   74.2500   56.9990 C   0  0  0  0  0  0  0  0  0  0  0  0
   40.8070   72.9640   56.7390 C   0  0  0  0  0  0  0  0  0  0  0  0
   39.6620   72.7920   55.9690 C   0  0  0  0  0  0  0  0  0  0  0  0
   39.0670   73.8970   55.4920 N   0  0  0  0  0  0  0  0  0  0  0  0
   39.5610   75.1370   55.7490 C   0  0  0  0  0  0  0  0  0  0  0  0
   40.6650   75.3060   56.4910 N   0  0  0  0  0  0  0  0  0  0  0  0
   41.2380   72.0190   57.0930 H   0  0  0  0  0  0  0  0  0  0  0  0
   39.2540   71.8040   55.7540 H   0  0  0  0  0  0  0  0  0  0  0  0
   38.8750   76.2320   55.2110 N   0  0  0  0  0  0  0  0  0  0  0  0
   39.3250   77.1330   54.9370 H   0  0  0  0  0  0  0  0  0  0  0  0
   37.1590   76.1360   54.9610 S   0  0  0  0  0  0  0  0  0  0  0  0
   36.4670   75.9040   56.2950 O   0  0  0  0  0  1  0  0  0  0  0  0
   36.6390   77.4460   54.4430 O   0  0  0  0  0  1  0  0  0  0  0  0
   36.7380   74.8540   53.9710 O   0  0  0  0  0  0  0  0  0  0  0  0
   37.0980   74.9430   53.0660 H   0  0  0  0  0  0  0  0  0  0  0  0
   39.4690   75.8800   60.6670 C   0  0  0  0  0  0  0  0  0  0  0  0
   38.7400   74.7930   61.1650 C   0  0  0  0  0  0  0  0  0  0  0  0
   39.2790   73.4880   60.9890 C   0  0  0  0  0  0  0  0  0  0  0  0
   40.4640   73.3850   60.3510 N   0  0  0  0  0  0  0  0  0  0  0  0
   41.1480   74.4690   59.8770 C   0  0  0  0  0  0  0  0  0  0  0  0
   40.6380   75.6870   60.0450 N   0  0  0  0  0  0  0  0  0  0  0  0
   39.0380   76.8770   60.8110 H   0  0  0  0  0  0  0  0  0  0  0  0
   37.8120   74.9640   61.6570 H   0  0  0  0  0  0  0  0  0  0  0  0
   38.7210   72.6680   61.3690 H   0  0  0  0  0  0  0  0  0  0  0  0
  1 30  1  0  0  0  0
  1  2  1  0  0  0  0
  2  7  1  0  0  0  0
  3  8  1  0  0  0  0
  3  2  2  0  0  0  0
  4  3  1  0  0  0  0
  5  6  1  0  0  0  0
  5  4  2  0  0  0  0
  6  1  2  0  0  0  0
  9  4  1  0  0  0  0
 10  5  1  0  0  0  0
 11  6  1  0  0  0  0
 12 11  1  0  0  0  0
 12 17  1  0  0  0  0
 13 12  2  0  0  0  0
 14 15  2  0  0  0  0
 14 13  1  0  0  0  0
 15 16  1  0  0  0  0
 16 11  2  0  0  0  0
 18 13  1  0  0  0  0
 19 15  1  0  0  0  0
 20 19  1  0  0  0  0
 21 19  1  0  0  0  0
 21 22  1  0  0  0  0
 23 21  1  0  0  0  0
 24 21  1  0  0  0  0
 25 24  1  0  0  0  0
 26 32  1  0  0  0  0
 26 27  1  0  0  0  0
 27 33  1  0  0  0  0
 28 27  2  0  0  0  0
 28 34  1  0  0  0  0
 29 28  1  0  0  0  0
 30 31  1  0  0  0  0
 30 29  2  0  0  0  0
 31 26  2  0  0  0  0
M  END
>  <minimizedAffinity>
-5.74370337

$$$$

 OpenBabel03212521083D

 34 36  0  0  0  0  0  0  0  0999 V2000
   42.2700   72.7540   60.2950 C   0  0  0  0  0  0  0  0  0  0  0  0
   43.0120   71.8890   61.0970 C   0  0  0  0  0  0  0  0  0  0  0  0
   42.5150   71.3910   62.2810 C   0  0  0  0  0  0  0  0  0  0  0  0
   41.2370   71.7590   62.6900 C   0  0  0  0  0  0  0  0  0  0  0  0
   40.4830   72.6260   61.8920 C   0  0  0  0  0  0  0  0  0  0  0  0
   40.9910   73.1180   60.7090 C   0  0  0  0  0  0  0  0  0  0  0  0
   44.0160   71.5680   60.8260 H   0  0  0  0  0  0  0  0  0  0  0  0
   43.0810   70.7170   62.9150 H   0  0  0  0  0  0  0  0  0  0  0  0
   40.7600   71.4310   63.5840 H   0  0  0  0  0  0  0  0  0  0  0  0
   39.4780   72.9340   62.1830 H   0  0  0  0  0  0  0  0  0  0  0  0
   40.1870   74.0100   59.9120 C   0  0  0  0  0  0  0  0  0  0  0  0
   40.2390   75.3250   60.4050 C   0  0  0  0  0  0  0  0  0  0  0  0
   39.5320   76.3460   59.7790 C   0  0  0  0  0  0  0  0  0  0  0  0
   38.8060   76.0210   58.6970 N   0  0  0  0  0  0  0  0  0  0  0  0
   38.7610   74.7460   58.2280 C   0  0  0  0  0  0  0  0  0  0  0  0
   39.4430   73.7600   58.8290 N   0  0  0  0  0  0  0  0  0  0  0  0
   40.8070   75.6630   61.2800 H   0  0  0  0  0  0  0  0  0  0  0  0
   39.5570   77.3730   60.1440 H   0  0  0  0  0  0  0  0  0  0  0  0
   37.9790   74.5000   57.0940 N   0  0  0  0  0  0  0  0  0  0  0  0
   37.5000   73.5950   56.8940 H   0  0  0  0  0  0  0  0  0  0  0  0
   37.7590   75.7520   55.9110 S   0  0  0  0  0  0  0  0  0  0  0  0
   37.5520   75.1220   54.5420 O   0  0  0  0  0  1  0  0  0  0  0  0
   36.5070   76.5270   56.2060 O   0  0  0  0  0  1  0  0  0  0  0  0
   39.1000   76.7440   55.7860 O   0  0  0  0  0  0  0  0  0  0  0  0
   39.2820   77.2370   56.6110 H   0  0  0  0  0  0  0  0  0  0  0  0
   44.0610   74.8760   57.9270 C   0  0  0  0  0  0  0  0  0  0  0  0
   43.9270   74.1840   56.7170 C   0  0  0  0  0  0  0  0  0  0  0  0
   43.2040   72.9600   56.7210 C   0  0  0  0  0  0  0  0  0  0  0  0
   42.6900   72.5440   57.8980 N   0  0  0  0  0  0  0  0  0  0  0  0
   42.8410   73.2460   59.0610 C   0  0  0  0  0  0  0  0  0  0  0  0
   43.5190   74.3910   59.0500 N   0  0  0  0  0  0  0  0  0  0  0  0
   44.6220   75.8170   57.9040 H   0  0  0  0  0  0  0  0  0  0  0  0
   44.3650   74.5850   55.8320 H   0  0  0  0  0  0  0  0  0  0  0  0
   43.1060   72.4410   55.7990 H   0  0  0  0  0  0  0  0  0  0  0  0
  1  6  2  0  0  0  0
  1  2  1  0  0  0  0
  2  3  2  0  0  0  0
  3  4  1  0  0  0  0
  3  8  1  0  0  0  0
  4  9  1  0  0  0  0
  5 10  1  0  0  0  0
  5  4  2  0  0  0  0
  6  5  1  0  0  0  0
  7  2  1  0  0  0  0
 11 12  1  0  0  0  0
 11  6  1  0  0  0  0
 12 17  1  0  0  0  0
 13 18  1  0  0  0  0
 13 12  2  0  0  0  0
 14 13  1  0  0  0  0
 15 14  2  0  0  0  0
 15 16  1  0  0  0  0
 16 11  2  0  0  0  0
 19 15  1  0  0  0  0
 20 19  1  0  0  0  0
 21 23  1  0  0  0  0
 21 19  1  0  0  0  0
 22 21  1  0  0  0  0
 24 21  1  0  0  0  0
 24 25  1  0  0  0  0
 26 31  1  0  0  0  0
 27 28  1  0  0  0  0
 27 26  2  0  0  0  0
 28 29  2  0  0  0  0
 29 30  1  0  0  0  0
 30  1  1  0  0  0  0
 31 30  2  0  0  0  0
 32 26  1  0  0  0  0
 33 27  1  0  0  0  0
 34 28  1  0  0  0  0
M  END
>  <minimizedAffinity>
-5.64350367

$$$$

 OpenBabel03212521083D

 34 36  0  0  0  0  0  0  0  0999 V2000
   41.4160   74.6450   59.8240 C   0  0  0  0  0  0  0  0  0  0  0  0
   40.8540   75.8970   59.5840 C   0  0  0  0  0  0  0  0  0  0  0  0
   39.6700   76.2860   60.1680 C   0  0  0  0  0  0  0  0  0  0  0  0
   39.0140   75.4070   61.0240 C   0  0  0  0  0  0  0  0  0  0  0  0
   39.5690   74.1470   61.2730 C   0  0  0  0  0  0  0  0  0  0  0  0
   40.7550   73.7690   60.6820 C   0  0  0  0  0  0  0  0  0  0  0  0
   41.3250   76.6240   58.9230 H   0  0  0  0  0  0  0  0  0  0  0  0
   39.2220   77.2570   59.9900 H   0  0  0  0  0  0  0  0  0  0  0  0
   38.0960   75.6080   61.5260 H   0  0  0  0  0  0  0  0  0  0  0  0
   39.0810   73.4340   61.9390 H   0  0  0  0  0  0  0  0  0  0  0  0
   41.2980   72.4630   60.9610 C   0  0  0  0  0  0  0  0  0  0  0  0
   41.7360   72.3630   62.2920 C   0  0  0  0  0  0  0  0  0  0  0  0
   42.2950   71.1830   62.7690 C   0  0  0  0  0  0  0  0  0  0  0  0
   42.3970   70.1560   61.9090 N   0  0  0  0  0  0  0  0  0  0  0  0
   41.9710   70.2630   60.6220 C   0  0  0  0  0  0  0  0  0  0  0  0
   41.4310   71.4000   60.1600 N   0  0  0  0  0  0  0  0  0  0  0  0
   41.6850   73.1570   63.0490 H   0  0  0  0  0  0  0  0  0  0  0  0
   42.6400   71.0820   63.7980 H   0  0  0  0  0  0  0  0  0  0  0  0
   42.1160   69.1420   59.7980 N   0  0  0  0  0  0  0  0  0  0  0  0
   42.2650   69.1840   58.7660 H   0  0  0  0  0  0  0  0  0  0  0  0
   42.0540   67.5500   60.4880 S   0  0  0  0  0  0  0  0  0  0  0  0
   41.4450   66.5860   59.4810 O   0  0  0  0  0  1  0  0  0  0  0  0
   43.4430   67.0480   60.7570 O   0  0  0  0  0  1  0  0  0  0  0  0
   41.0870   67.4920   61.8530 O   0  0  0  0  0  0  0  0  0  0  0  0
   41.4320   68.0450   62.5820 H   0  0  0  0  0  0  0  0  0  0  0  0
   43.8040   73.5480   57.2910 C   0  0  0  0  0  0  0  0  0  0  0  0
   45.0310   73.6110   57.9630 C   0  0  0  0  0  0  0  0  0  0  0  0
   45.0310   74.0420   59.3180 C   0  0  0  0  0  0  0  0  0  0  0  0
   43.8420   74.3620   59.8700 N   0  0  0  0  0  0  0  0  0  0  0  0
   42.6630   74.2890   59.1830 C   0  0  0  0  0  0  0  0  0  0  0  0
   42.6700   73.8850   57.9150 N   0  0  0  0  0  0  0  0  0  0  0  0
   43.8240   73.2140   56.2470 H   0  0  0  0  0  0  0  0  0  0  0  0
   45.9240   73.3390   57.4500 H   0  0  0  0  0  0  0  0  0  0  0  0
   45.9660   74.0870   59.8220 H   0  0  0  0  0  0  0  0  0  0  0  0
  1  6  1  0  0  0  0
  2  1  2  0  0  0  0
  2  3  1  0  0  0  0
  3  4  2  0  0  0  0
  4  5  1  0  0  0  0
  4  9  1  0  0  0  0
  5 10  1  0  0  0  0
  6 11  1  0  0  0  0
  6  5  2  0  0  0  0
  7  2  1  0  0  0  0
  8  3  1  0  0  0  0
 11 12  1  0  0  0  0
 12 13  2  0  0  0  0
 12 17  1  0  0  0  0
 13 18  1  0  0  0  0
 14 13  1  0  0  0  0
 15 14  2  0  0  0  0
 16 15  1  0  0  0  0
 16 11  2  0  0  0  0
 19 21  1  0  0  0  0
 19 15  1  0  0  0  0
 20 19  1  0  0  0  0
 21 23  1  0  0  0  0
 21 24  1  0  0  0  0
 22 21  1  0  0  0  0
 24 25  1  0  0  0  0
 26 31  2  0  0  0  0
 26 27  1  0  0  0  0
 27 28  2  0  0  0  0
 28 34  1  0  0  0  0
 28 29  1  0  0  0  0
 30  1  1  0  0  0  0
 30 29  2  0  0  0  0
 31 30  1  0  0  0  0
 32 26  1  0  0  0  0
 33 27  1  0  0  0  0
M  END
>  <minimizedAffinity>
-5.55641079

$$$$

 OpenBabel03212521083D

 34 36  0  0  0  0  0  0  0  0999 V2000
   39.0600   74.9670   58.8960 C   0  0  0  0  0  0  0  0  0  0  0  0
   38.8690   75.4530   60.1880 C   0  0  0  0  0  0  0  0  0  0  0  0
   39.5610   74.9450   61.2640 C   0  0  0  0  0  0  0  0  0  0  0  0
   40.4770   73.9180   61.0600 C   0  0  0  0  0  0  0  0  0  0  0  0
   40.6770   73.4220   59.7670 C   0  0  0  0  0  0  0  0  0  0  0  0
   39.9790   73.9390   58.6980 C   0  0  0  0  0  0  0  0  0  0  0  0
   38.1650   76.2550   60.4050 H   0  0  0  0  0  0  0  0  0  0  0  0
   39.4220   75.3130   62.2740 H   0  0  0  0  0  0  0  0  0  0  0  0
   41.0620   73.4560   61.8210 H   0  0  0  0  0  0  0  0  0  0  0  0
   41.3880   72.6180   59.5720 H   0  0  0  0  0  0  0  0  0  0  0  0
   40.2100   73.4040   57.3790 C   0  0  0  0  0  0  0  0  0  0  0  0
   41.1830   74.1460   56.6880 C   0  0  0  0  0  0  0  0  0  0  0  0
   41.5560   73.7970   55.3950 C   0  0  0  0  0  0  0  0  0  0  0  0
   40.9500   72.7330   54.8430 N   0  0  0  0  0  0  0  0  0  0  0  0
   40.0100   72.0220   55.5190 C   0  0  0  0  0  0  0  0  0  0  0  0
   39.6490   72.3560   56.7670 N   0  0  0  0  0  0  0  0  0  0  0  0
   41.7180   75.0240   57.0720 H   0  0  0  0  0  0  0  0  0  0  0  0
   42.3090   74.3580   54.8400 H   0  0  0  0  0  0  0  0  0  0  0  0
   39.4320   70.9270   54.8670 N   0  0  0  0  0  0  0  0  0  0  0  0
   38.4600   70.5870   55.0330 H   0  0  0  0  0  0  0  0  0  0  0  0
   40.3530   70.0420   53.6900 S   0  0  0  0  0  0  0  0  0  0  0  0
   40.1620   68.5500   53.9190 O   0  0  0  0  0  1  0  0  0  0  0  0
   39.8310   70.3210   52.3090 O   0  0  0  0  0  1  0  0  0  0  0  0
   41.9940   70.3430   53.8160 O   0  0  0  0  0  0  0  0  0  0  0  0
   42.2210   71.2760   53.6310 H   0  0  0  0  0  0  0  0  0  0  0  0
   37.9170   77.3200   56.3510 C   0  0  0  0  0  0  0  0  0  0  0  0
   36.8750   76.6270   55.7230 C   0  0  0  0  0  0  0  0  0  0  0  0
   36.5620   75.3200   56.1900 C   0  0  0  0  0  0  0  0  0  0  0  0
   37.2950   74.8330   57.2130 N   0  0  0  0  0  0  0  0  0  0  0  0
   38.3070   75.5380   57.8020 C   0  0  0  0  0  0  0  0  0  0  0  0
   38.5940   76.7600   57.3600 N   0  0  0  0  0  0  0  0  0  0  0  0
   38.1440   78.3250   55.9770 H   0  0  0  0  0  0  0  0  0  0  0  0
   36.3470   77.0870   54.9210 H   0  0  0  0  0  0  0  0  0  0  0  0
   35.7700   74.8000   55.7090 H   0  0  0  0  0  0  0  0  0  0  0  0
  1  2  1  0  0  0  0
  2  7  1  0  0  0  0
  2  3  2  0  0  0  0
  3  8  1  0  0  0  0
  4  3  1  0  0  0  0
  4  9  1  0  0  0  0
  5  4  2  0  0  0  0
  6  1  2  0  0  0  0
  6  5  1  0  0  0  0
 10  5  1  0  0  0  0
 11  6  1  0  0  0  0
 12 17  1  0  0  0  0
 12 11  2  0  0  0  0
 13 12  1  0  0  0  0
 14 13  2  0  0  0  0
 14 15  1  0  0  0  0
 15 16  2  0  0  0  0
 16 11  1  0  0  0  0
 18 13  1  0  0  0  0
 19 20  1  0  0  0  0
 19 15  1  0  0  0  0
 21 24  1  0  0  0  0
 21 22  1  0  0  0  0
 21 19  1  0  0  0  0
 23 21  1  0  0  0  0
 25 24  1  0  0  0  0
 26 31  1  0  0  0  0
 27 28  1  0  0  0  0
 27 26  2  0  0  0  0
 28 29  2  0  0  0  0
 29 30  1  0  0  0  0
 30  1  1  0  0  0  0
 31 30  2  0  0  0  0
 32 26  1  0  0  0  0
 33 27  1  0  0  0  0
 34 28  1  0  0  0  0
M  END
>  <minimizedAffinity>
-5.49438477

$$$$

 OpenBabel03212521083D

 34 36  0  0  0  0  0  0  0  0999 V2000
   41.5000   72.9380   60.4200 C   0  0  0  0  0  0  0  0  0  0  0  0
   42.2350   72.5140   61.5250 C   0  0  0  0  0  0  0  0  0  0  0  0
   42.8000   71.2600   61.5830 C   0  0  0  0  0  0  0  0  0  0  0  0
   42.6350   70.3890   60.5100 C   0  0  0  0  0  0  0  0  0  0  0  0
   41.8990   70.8060   59.3950 C   0  0  0  0  0  0  0  0  0  0  0  0
   41.3390   72.0630   59.3480 C   0  0  0  0  0  0  0  0  0  0  0  0
   42.3950   73.1530   62.3920 H   0  0  0  0  0  0  0  0  0  0  0  0
   43.3730   70.9160   62.4370 H   0  0  0  0  0  0  0  0  0  0  0  0
   43.0290   69.4010   60.4540 H   0  0  0  0  0  0  0  0  0  0  0  0
   41.7510   70.1490   58.5370 H   0  0  0  0  0  0  0  0  0  0  0  0
   40.5870   72.4590   58.1840 C   0  0  0  0  0  0  0  0  0  0  0  0
   39.2860   71.9280   58.2090 C   0  0  0  0  0  0  0  0  0  0  0  0
   38.3920   72.1890   57.1770 C   0  0  0  0  0  0  0  0  0  0  0  0
   38.8250   72.9610   56.1660 N   0  0  0  0  0  0  0  0  0  0  0  0
   40.0850   73.4700   56.1500 C   0  0  0  0  0  0  0  0  0  0  0  0
   40.9490   73.2190   57.1450 N   0  0  0  0  0  0  0  0  0  0  0  0
   38.8650   71.2920   58.9980 H   0  0  0  0  0  0  0  0  0  0  0  0
   37.3780   71.7890   57.1760 H   0  0  0  0  0  0  0  0  0  0  0  0
   40.4490   74.2640   55.0580 N   0  0  0  0  0  0  0  0  0  0  0  0
   41.4190   74.3420   54.6820 H   0  0  0  0  0  0  0  0  0  0  0  0
   39.2420   75.2030   54.2350 S   0  0  0  0  0  0  0  0  0  0  0  0
   38.6560   76.2260   55.1950 O   0  0  0  0  0  1  0  0  0  0  0  0
   39.8700   75.9890   53.1200 O   0  0  0  0  0  1  0  0  0  0  0  0
   37.9670   74.2600   53.7000 O   0  0  0  0  0  0  0  0  0  0  0  0
   38.2400   73.6010   53.0320 H   0  0  0  0  0  0  0  0  0  0  0  0
   39.2190   75.7170   61.0460 C   0  0  0  0  0  0  0  0  0  0  0  0
   39.8420   76.7920   60.3980 C   0  0  0  0  0  0  0  0  0  0  0  0
   41.0750   76.5490   59.7330 C   0  0  0  0  0  0  0  0  0  0  0  0
   41.5650   75.2910   59.7690 N   0  0  0  0  0  0  0  0  0  0  0  0
   40.9290   74.2670   60.4120 C   0  0  0  0  0  0  0  0  0  0  0  0
   39.7760   74.5010   61.0330 N   0  0  0  0  0  0  0  0  0  0  0  0
   38.2700   75.9240   61.5540 H   0  0  0  0  0  0  0  0  0  0  0  0
   39.3850   77.7530   60.4190 H   0  0  0  0  0  0  0  0  0  0  0  0
   41.5420   77.3680   59.2430 H   0  0  0  0  0  0  0  0  0  0  0  0
  1  2  1  0  0  0  0
  2  3  2  0  0  0  0
  2  7  1  0  0  0  0
  3  8  1  0  0  0  0
  4  3  1  0  0  0  0
  5  4  2  0  0  0  0
  6  5  1  0  0  0  0
  6  1  2  0  0  0  0
  9  4  1  0  0  0  0
 10  5  1  0  0  0  0
 11 12  1  0  0  0  0
 11  6  1  0  0  0  0
 12 17  1  0  0  0  0
 13 12  2  0  0  0  0
 14 13  1  0  0  0  0
 15 14  2  0  0  0  0
 15 16  1  0  0  0  0
 16 11  2  0  0  0  0
 18 13  1  0  0  0  0
 19 15  1  0  0  0  0
 20 19  1  0  0  0  0
 21 19  1  0  0  0  0
 21 22  1  0  0  0  0
 23 21  1  0  0  0  0
 24 21  1  0  0  0  0
 25 24  1  0  0  0  0
 26 32  1  0  0  0  0
 27 33  1  0  0  0  0
 27 26  2  0  0  0  0
 28 29  2  0  0  0  0
 28 27  1  0  0  0  0
 29 30  1  0  0  0  0
 30  1  1  0  0  0  0
 30 31  2  0  0  0  0
 31 26  1  0  0  0  0
 34 28  1  0  0  0  0
M  END
>  <minimizedAffinity>
-5.43071032

$$$$

 OpenBabel03212521083D

 34 36  0  0  0  0  0  0  0  0999 V2000
   42.0330   70.4870   60.5410 C   0  0  0  0  0  0  0  0  0  0  0  0
   42.3490   69.3300   61.2520 C   0  0  0  0  0  0  0  0  0  0  0  0
   42.2730   69.2780   62.6250 C   0  0  0  0  0  0  0  0  0  0  0  0
   41.8700   70.4110   63.3270 C   0  0  0  0  0  0  0  0  0  0  0  0
   41.5510   71.5770   62.6230 C   0  0  0  0  0  0  0  0  0  0  0  0
   41.6300   71.6160   61.2490 C   0  0  0  0  0  0  0  0  0  0  0  0
   42.6690   68.4160   60.7540 H   0  0  0  0  0  0  0  0  0  0  0  0
   42.5150   68.3860   63.1910 H   0  0  0  0  0  0  0  0  0  0  0  0
   41.7780   70.4770   64.3860 H   0  0  0  0  0  0  0  0  0  0  0  0
   41.2320   72.4820   63.1420 H   0  0  0  0  0  0  0  0  0  0  0  0
   41.2940   72.8360   60.5560 C   0  0  0  0  0  0  0  0  0  0  0  0
   42.4430   73.5880   60.2580 C   0  0  0  0  0  0  0  0  0  0  0  0
   42.3410   74.8030   59.5890 C   0  0  0  0  0  0  0  0  0  0  0  0
   41.1110   75.2190   59.2480 N   0  0  0  0  0  0  0  0  0  0  0  0
   40.0060   74.4840   59.5410 C   0  0  0  0  0  0  0  0  0  0  0  0
   40.1010   73.3120   60.1850 N   0  0  0  0  0  0  0  0  0  0  0  0
   43.4760   73.3130   60.5050 H   0  0  0  0  0  0  0  0  0  0  0  0
   43.2180   75.4040   59.3470 H   0  0  0  0  0  0  0  0  0  0  0  0
   38.7640   74.9950   59.1460 N   0  0  0  0  0  0  0  0  0  0  0  0
   37.8670   74.8180   59.6480 H   0  0  0  0  0  0  0  0  0  0  0  0
   38.6550   75.9970   57.7320 S   0  0  0  0  0  0  0  0  0  0  0  0
   37.2580   75.8880   57.1420 O   0  0  0  0  0  1  0  0  0  0  0  0
   38.8380   77.4400   58.1060 O   0  0  0  0  0  1  0  0  0  0  0  0
   39.7220   75.5170   56.5350 O   0  0  0  0  0  0  0  0  0  0  0  0
   40.6570   75.6040   56.8070 H   0  0  0  0  0  0  0  0  0  0  0  0
   43.4380   70.6520   57.1770 C   0  0  0  0  0  0  0  0  0  0  0  0
   42.3160   70.4800   56.3560 C   0  0  0  0  0  0  0  0  0  0  0  0
   41.0510   70.3040   56.9790 C   0  0  0  0  0  0  0  0  0  0  0  0
   41.0140   70.3140   58.3280 N   0  0  0  0  0  0  0  0  0  0  0  0
   42.1300   70.4840   59.0990 C   0  0  0  0  0  0  0  0  0  0  0  0
   43.3110   70.6490   58.5080 N   0  0  0  0  0  0  0  0  0  0  0  0
   44.4050   70.7860   56.6780 H   0  0  0  0  0  0  0  0  0  0  0  0
   42.4350   70.4850   55.2970 H   0  0  0  0  0  0  0  0  0  0  0  0
   40.2040   70.1740   56.3500 H   0  0  0  0  0  0  0  0  0  0  0  0
  1  6  2  0  0  0  0
  1  2  1  0  0  0  0
  2  3  2  0  0  0  0
  3  8  1  0  0  0  0
  3  4  1  0  0  0  0
  4  9  1  0  0  0  0
  5 10  1  0  0  0  0
  5  4  2  0  0  0  0
  6  5  1  0  0  0  0
  7  2  1  0  0  0  0
 11  6  1  0  0  0  0
 12 17  1  0  0  0  0
 12 11  1  0  0  0  0
 13 12  2  0  0  0  0
 14 15  2  0  0  0  0
 14 13  1  0  0  0  0
 15 16  1  0  0  0  0
 16 11  2  0  0  0  0
 18 13  1  0  0  0  0
 19 15  1  0  0  0  0
 19 20  1  0  0  0  0
 21 23  1  0  0  0  0
 21 19  1  0  0  0  0
 22 21  1  0  0  0  0
 24 25  1  0  0  0  0
 24 21  1  0  0  0  0
 26 31  1  0  0  0  0
 27 28  1  0  0  0  0
 27 26  2  0  0  0  0
 28 29  2  0  0  0  0
 29 30  1  0  0  0  0
 30  1  1  0  0  0  0
 31 30  2  0  0  0  0
 32 26  1  0  0  0  0
 33 27  1  0  0  0  0
 34 28  1  0  0  0  0
M  END
>  <minimizedAffinity>
-5.32798386

$$$$

 OpenBabel03212521083D

 34 36  0  0  0  0  0  0  0  0999 V2000
   39.7350   75.1930   58.2770 C   0  0  0  0  0  0  0  0  0  0  0  0
   39.1990   76.3580   57.7320 C   0  0  0  0  0  0  0  0  0  0  0  0
   39.2820   77.5690   58.3810 C   0  0  0  0  0  0  0  0  0  0  0  0
   39.9170   77.6350   59.6170 C   0  0  0  0  0  0  0  0  0  0  0  0
   40.4600   76.4720   60.1740 C   0  0  0  0  0  0  0  0  0  0  0  0
   40.3710   75.2660   59.5140 C   0  0  0  0  0  0  0  0  0  0  0  0
   38.6910   76.3640   56.7690 H   0  0  0  0  0  0  0  0  0  0  0  0
   38.8690   78.4830   57.9690 H   0  0  0  0  0  0  0  0  0  0  0  0
   40.0360   78.5190   60.2010 H   0  0  0  0  0  0  0  0  0  0  0  0
   40.9650   76.4890   61.1410 H   0  0  0  0  0  0  0  0  0  0  0  0
   40.9410   74.0870   60.1180 C   0  0  0  0  0  0  0  0  0  0  0  0
   40.1530   73.6270   61.1870 C   0  0  0  0  0  0  0  0  0  0  0  0
   40.5250   72.4980   61.9080 C   0  0  0  0  0  0  0  0  0  0  0  0
   41.6570   71.8760   61.5410 N   0  0  0  0  0  0  0  0  0  0  0  0
   42.4120   72.3280   60.5050 C   0  0  0  0  0  0  0  0  0  0  0  0
   42.0550   73.4170   59.8080 N   0  0  0  0  0  0  0  0  0  0  0  0
   39.2200   74.0830   61.5430 H   0  0  0  0  0  0  0  0  0  0  0  0
   39.9300   72.1230   62.7410 H   0  0  0  0  0  0  0  0  0  0  0  0
   43.5750   71.6160   60.1920 N   0  0  0  0  0  0  0  0  0  0  0  0
   44.4340   72.0410   59.7790 H   0  0  0  0  0  0  0  0  0  0  0  0
   43.6470   69.9070   60.4950 S   0  0  0  0  0  0  0  0  0  0  0  0
   42.6040   69.2000   59.6440 O   0  0  0  0  0  1  0  0  0  0  0  0
   44.9780   69.3610   60.0620 O   0  0  0  0  0  1  0  0  0  0  0  0
   43.3010   69.5340   62.0890 O   0  0  0  0  0  0  0  0  0  0  0  0
   43.9560   69.9050   62.7130 H   0  0  0  0  0  0  0  0  0  0  0  0
   38.4490   71.9800   57.1180 C   0  0  0  0  0  0  0  0  0  0  0  0
   39.4000   71.5810   56.1710 C   0  0  0  0  0  0  0  0  0  0  0  0
   40.5070   72.4400   55.9290 C   0  0  0  0  0  0  0  0  0  0  0  0
   40.5680   73.5900   56.6330 N   0  0  0  0  0  0  0  0  0  0  0  0
   39.6200   73.9480   57.5510 C   0  0  0  0  0  0  0  0  0  0  0  0
   38.5870   73.1390   57.7720 N   0  0  0  0  0  0  0  0  0  0  0  0
   37.6030   71.3050   57.2900 H   0  0  0  0  0  0  0  0  0  0  0  0
   39.2740   70.6550   55.6590 H   0  0  0  0  0  0  0  0  0  0  0  0
   41.2250   72.1310   55.2090 H   0  0  0  0  0  0  0  0  0  0  0  0
  1  6  1  0  0  0  0
  2  1  2  0  0  0  0
  2  3  1  0  0  0  0
  3  4  2  0  0  0  0
  4  5  1  0  0  0  0
  4  9  1  0  0  0  0
  5 10  1  0  0  0  0
  6 11  1  0  0  0  0
  6  5  2  0  0  0  0
  7  2  1  0  0  0  0
  8  3  1  0  0  0  0
 11 12  1  0  0  0  0
 12 17  1  0  0  0  0
 12 13  2  0  0  0  0
 13 18  1  0  0  0  0
 14 13  1  0  0  0  0
 15 14  2  0  0  0  0
 16 11  2  0  0  0  0
 16 15  1  0  0  0  0
 19 21  1  0  0  0  0
 19 15  1  0  0  0  0
 20 19  1  0  0  0  0
 21 24  1  0  0  0  0
 22 21  1  0  0  0  0
 23 21  1  0  0  0  0
 24 25  1  0  0  0  0
 26 32  1  0  0  0  0
 26 31  1  0  0  0  0
 27 26  2  0  0  0  0
 28 27  1  0  0  0  0
 28 29  2  0  0  0  0
 29 30  1  0  0  0  0
 30 31  2  0  0  0  0
 30  1  1  0  0  0  0
 33 27  1  0  0  0  0
 34 28  1  0  0  0  0
M  END
>  <minimizedAffinity>
-5.29387093

$$$$

 OpenBabel03212521083D

 34 36  0  0  0  0  0  0  0  0999 V2000
   38.4990   75.3600   57.2150 C   0  0  0  0  0  0  0  0  0  0  0  0
   37.3280   75.9090   56.6960 C   0  0  0  0  0  0  0  0  0  0  0  0
   36.9720   75.7450   55.3760 C   0  0  0  0  0  0  0  0  0  0  0  0
   37.8020   75.0100   54.5350 C   0  0  0  0  0  0  0  0  0  0  0  0
   38.9800   74.4540   55.0460 C   0  0  0  0  0  0  0  0  0  0  0  0
   39.3250   74.6250   56.3680 C   0  0  0  0  0  0  0  0  0  0  0  0
   36.6430   76.4930   57.3080 H   0  0  0  0  0  0  0  0  0  0  0  0
   36.0650   76.1670   54.9590 H   0  0  0  0  0  0  0  0  0  0  0  0
   37.6200   74.8230   53.5020 H   0  0  0  0  0  0  0  0  0  0  0  0
   39.6520   73.8720   54.4140 H   0  0  0  0  0  0  0  0  0  0  0  0
   40.5460   74.0380   56.8610 C   0  0  0  0  0  0  0  0  0  0  0  0
   41.6740   74.7350   56.3950 C   0  0  0  0  0  0  0  0  0  0  0  0
   42.9560   74.3320   56.7540 C   0  0  0  0  0  0  0  0  0  0  0  0
   43.0640   73.2600   57.5560 N   0  0  0  0  0  0  0  0  0  0  0  0
   41.9670   72.5920   58.0010 C   0  0  0  0  0  0  0  0  0  0  0  0
   40.7300   72.9790   57.6560 N   0  0  0  0  0  0  0  0  0  0  0  0
   41.6630   75.6160   55.7400 H   0  0  0  0  0  0  0  0  0  0  0  0
   43.8450   74.8580   56.4060 H   0  0  0  0  0  0  0  0  0  0  0  0
   42.1760   71.4860   58.8330 N   0  0  0  0  0  0  0  0  0  0  0  0
   41.5440   70.6580   58.8810 H   0  0  0  0  0  0  0  0  0  0  0  0
   43.5670   71.4400   59.8720 S   0  0  0  0  0  0  0  0  0  0  0  0
   43.5040   72.6020   60.8510 O   0  0  0  0  0  1  0  0  0  0  0  0
   43.5470   70.1910   60.7060 O   0  0  0  0  0  1  0  0  0  0  0  0
   44.9970   71.6050   59.0190 O   0  0  0  0  0  0  0  0  0  0  0  0
   45.1510   70.8680   58.3950 H   0  0  0  0  0  0  0  0  0  0  0  0
   39.8450   76.8500   60.2620 C   0  0  0  0  0  0  0  0  0  0  0  0
   39.4420   75.9530   61.2600 C   0  0  0  0  0  0  0  0  0  0  0  0
   38.6900   74.8110   60.8690 C   0  0  0  0  0  0  0  0  0  0  0  0
   38.4140   74.6670   59.5550 N   0  0  0  0  0  0  0  0  0  0  0  0
   38.8230   75.5640   58.6090 C   0  0  0  0  0  0  0  0  0  0  0  0
   39.5270   76.6300   58.9820 N   0  0  0  0  0  0  0  0  0  0  0  0
   40.4230   77.7250   60.5830 H   0  0  0  0  0  0  0  0  0  0  0  0
   39.7040   76.1440   62.2740 H   0  0  0  0  0  0  0  0  0  0  0  0
   38.3880   74.1340   61.6300 H   0  0  0  0  0  0  0  0  0  0  0  0
  1 30  1  0  0  0  0
  2  1  1  0  0  0  0
  2  7  1  0  0  0  0
  3  2  2  0  0  0  0
  4  5  2  0  0  0  0
  4  3  1  0  0  0  0
  5  6  1  0  0  0  0
  6 11  1  0  0  0  0
  6  1  2  0  0  0  0
  8  3  1  0  0  0  0
  9  4  1  0  0  0  0
 10  5  1  0  0  0  0
 11 16  1  0  0  0  0
 12 13  1  0  0  0  0
 12 11  2  0  0  0  0
 13 14  2  0  0  0  0
 14 15  1  0  0  0  0
 15 19  1  0  0  0  0
 16 15  2  0  0  0  0
 17 12  1  0  0  0  0
 18 13  1  0  0  0  0
 19 20  1  0  0  0  0
 19 21  1  0  0  0  0
 21 23  1  0  0  0  0
 21 22  1  0  0  0  0
 24 21  1  0  0  0  0
 25 24  1  0  0  0  0
 26 32  1  0  0  0  0
 26 27  1  0  0  0  0
 27 33  1  0  0  0  0
 28 27  2  0  0  0  0
 28 34  1  0  0  0  0
 29 28  1  0  0  0  0
 30 31  1  0  0  0  0
 30 29  2  0  0  0  0
 31 26  2  0  0  0  0
M  END
>  <minimizedAffinity>
-5.2871623

$$$$
