
 OpenBabel03212520343D

 32 34  0  0  0  0  0  0  0  0999 V2000
   40.4130   73.7050   59.8190 C   0  0  0  0  0  0  0  0  0  0  0  0
   39.8460   73.1500   60.9660 C   0  0  0  0  0  0  0  0  0  0  0  0
   40.5840   72.7000   62.0400 C   0  0  0  0  0  0  0  0  0  0  0  0
   41.9640   72.7950   61.9970 C   0  0  0  0  0  0  0  0  0  0  0  0
   42.5350   73.3420   60.8690 C   0  0  0  0  0  0  0  0  0  0  0  0
   43.9010   73.4810   60.7150 C   0  0  0  0  0  0  0  0  0  0  0  0
   44.4700   74.0270   59.5760 C   0  0  0  0  0  0  0  0  0  0  0  0
   43.6780   74.4610   58.5290 C   0  0  0  0  0  0  0  0  0  0  0  0
   42.3080   74.3320   58.6600 C   0  0  0  0  0  0  0  0  0  0  0  0
   41.7850   73.7830   59.8110 C   0  0  0  0  0  0  0  0  0  0  0  0
   38.7710   73.0390   61.0790 H   0  0  0  0  0  0  0  0  0  0  0  0
   40.1150   72.2730   62.9170 H   0  0  0  0  0  0  0  0  0  0  0  0
   42.6060   72.4700   62.7850 H   0  0  0  0  0  0  0  0  0  0  0  0
   44.5400   73.1420   61.5350 H   0  0  0  0  0  0  0  0  0  0  0  0
   45.5510   74.0850   59.5690 H   0  0  0  0  0  0  0  0  0  0  0  0
   44.1590   74.8810   57.6570 H   0  0  0  0  0  0  0  0  0  0  0  0
   41.7170   74.6830   57.8340 H   0  0  0  0  0  0  0  0  0  0  0  0
   38.9650   75.3790   58.4640 C   0  0  0  0  0  0  0  0  0  0  0  0
   39.4590   74.1230   58.8060 C   0  0  0  0  0  0  0  0  0  0  0  0
   38.9610   73.0210   58.0580 C   0  0  0  0  0  0  0  0  0  0  0  0
   38.0540   73.2400   57.0740 N   0  0  0  0  0  0  0  0  0  0  0  0
   37.6060   74.4880   56.7820 C   0  0  0  0  0  0  0  0  0  0  0  0
   38.0820   75.5290   57.4940 N   0  0  0  0  0  0  0  0  0  0  0  0
   39.4020   76.1520   59.0770 H   0  0  0  0  0  0  0  0  0  0  0  0
   39.2410   71.9890   58.1980 H   0  0  0  0  0  0  0  0  0  0  0  0
   36.6550   74.6620   55.7410 N   0  0  0  0  0  0  0  0  0  0  0  0
   35.7260   74.1940   55.7990 H   0  0  0  0  0  0  0  0  0  0  0  0
   37.0570   75.6530   54.3890 S   0  0  0  0  0  0  0  0  0  0  0  0
   38.5660   75.7670   54.2580 O   0  0  0  0  0  1  0  0  0  0  0  0
   36.4920   77.0260   54.5670 O   0  0  0  0  0  1  0  0  0  0  0  0
   36.4670   74.9280   52.9800 O   0  0  0  0  0  0  0  0  0  0  0  0
   35.5090   75.2290   52.8720 H   0  0  0  0  0  0  0  0  0  0  0  0
  1  2  1  0  0  0  0
  2 11  1  0  0  0  0
  2  3  2  0  0  0  0
  3 12  1  0  0  0  0
  4  3  1  0  0  0  0
  4 13  1  0  0  0  0
  5  4  2  0  0  0  0
  6  5  1  0  0  0  0
  6 14  1  0  0  0  0
  7  6  2  0  0  0  0
  8  9  2  0  0  0  0
  8  7  1  0  0  0  0
  9 10  1  0  0  0  0
 10  1  2  0  0  0  0
 10  5  1  0  0  0  0
 15  7  1  0  0  0  0
 16  8  1  0  0  0  0
 17  9  1  0  0  0  0
 18 19  1  0  0  0  0
 18 24  1  0  0  0  0
 19  1  1  0  0  0  0
 20 25  1  0  0  0  0
 20 19  2  0  0  0  0
 21 20  1  0  0  0  0
 22 21  2  0  0  0  0
 22 23  1  0  0  0  0
 23 18  2  0  0  0  0
 26 27  1  0  0  0  0
 26 22  1  0  0  0  0
 28 30  1  0  0  0  0
 28 26  1  0  0  0  0
 29 28  1  0  0  0  0
 31 28  1  0  0  0  0
 32 31  1  0  0  0  0
M  END
>  <minimizedAffinity>
-6.38368225

$$$$

 OpenBabel03212520343D

 32 34  0  0  0  0  0  0  0  0999 V2000
   39.9720   75.1050   59.7120 C   0  0  0  0  0  0  0  0  0  0  0  0
   40.4270   76.3980   59.9710 C   0  0  0  0  0  0  0  0  0  0  0  0
   40.0020   77.5100   59.2750 C   0  0  0  0  0  0  0  0  0  0  0  0
   39.0740   77.3560   58.2600 C   0  0  0  0  0  0  0  0  0  0  0  0
   38.6180   76.0830   57.9950 C   0  0  0  0  0  0  0  0  0  0  0  0
   37.6960   75.8120   57.0020 C   0  0  0  0  0  0  0  0  0  0  0  0
   37.2450   74.5290   56.7360 C   0  0  0  0  0  0  0  0  0  0  0  0
   37.7090   73.4510   57.4670 C   0  0  0  0  0  0  0  0  0  0  0  0
   38.6310   73.6980   58.4660 C   0  0  0  0  0  0  0  0  0  0  0  0
   39.0520   74.9910   58.6960 C   0  0  0  0  0  0  0  0  0  0  0  0
   41.1550   76.6050   60.7510 H   0  0  0  0  0  0  0  0  0  0  0  0
   40.3740   78.5010   59.5010 H   0  0  0  0  0  0  0  0  0  0  0  0
   38.6950   78.1640   57.6760 H   0  0  0  0  0  0  0  0  0  0  0  0
   37.3210   76.6540   56.4150 H   0  0  0  0  0  0  0  0  0  0  0  0
   36.5230   74.4390   55.9340 H   0  0  0  0  0  0  0  0  0  0  0  0
   37.3330   72.4660   57.2290 H   0  0  0  0  0  0  0  0  0  0  0  0
   38.9700   72.8430   59.0230 H   0  0  0  0  0  0  0  0  0  0  0  0
   39.9900   73.3230   61.5970 C   0  0  0  0  0  0  0  0  0  0  0  0
   40.5400   74.0740   60.5630 C   0  0  0  0  0  0  0  0  0  0  0  0
   41.9060   73.8240   60.2550 C   0  0  0  0  0  0  0  0  0  0  0  0
   42.5880   72.8910   60.9640 N   0  0  0  0  0  0  0  0  0  0  0  0
   42.0010   72.1850   61.9650 C   0  0  0  0  0  0  0  0  0  0  0  0
   40.7060   72.4270   62.2520 N   0  0  0  0  0  0  0  0  0  0  0  0
   38.9520   73.5740   61.7550 H   0  0  0  0  0  0  0  0  0  0  0  0
   42.4770   74.3190   59.4850 H   0  0  0  0  0  0  0  0  0  0  0  0
   42.7600   71.2200   62.6770 N   0  0  0  0  0  0  0  0  0  0  0  0
   43.6160   71.5080   63.1980 H   0  0  0  0  0  0  0  0  0  0  0  0
   42.2500   69.5720   62.6680 S   0  0  0  0  0  0  0  0  0  0  0  0
   43.2650   68.7110   63.4010 O   0  0  0  0  0  1  0  0  0  0  0  0
   42.1330   69.0740   61.2630 O   0  0  0  0  0  1  0  0  0  0  0  0
   40.7750   69.4480   63.4850 O   0  0  0  0  0  0  0  0  0  0  0  0
   40.0480   69.6400   62.8120 H   0  0  0  0  0  0  0  0  0  0  0  0
  1  2  1  0  0  0  0
  1 19  1  0  0  0  0
  2 11  1  0  0  0  0
  3 12  1  0  0  0  0
  3  2  2  0  0  0  0
  4  3  1  0  0  0  0
  5  4  2  0  0  0  0
  5 10  1  0  0  0  0
  6  5  1  0  0  0  0
  7  6  2  0  0  0  0
  7  8  1  0  0  0  0
  8  9  2  0  0  0  0
  9 10  1  0  0  0  0
  9 17  1  0  0  0  0
 10  1  2  0  0  0  0
 13  4  1  0  0  0  0
 14  6  1  0  0  0  0
 15  7  1  0  0  0  0
 16  8  1  0  0  0  0
 18 24  1  0  0  0  0
 18 23  1  0  0  0  0
 19 18  2  0  0  0  0
 20 19  1  0  0  0  0
 20 21  2  0  0  0  0
 21 22  1  0  0  0  0
 22 23  2  0  0  0  0
 22 26  1  0  0  0  0
 25 20  1  0  0  0  0
 26 27  1  0  0  0  0
 28 26  1  0  0  0  0
 28 29  1  0  0  0  0
 28 31  1  0  0  0  0
 30 28  1  0  0  0  0
 32 31  1  0  0  0  0
M  END
>  <minimizedAffinity>
-6.24900675

$$$$

 OpenBabel03212520343D

 32 34  0  0  0  0  0  0  0  0999 V2000
   42.3110   73.5740   59.8530 C   0  0  0  0  0  0  0  0  0  0  0  0
   43.3980   73.9190   59.0490 C   0  0  0  0  0  0  0  0  0  0  0  0
   43.5600   75.1640   58.4780 C   0  0  0  0  0  0  0  0  0  0  0  0
   42.6020   76.1380   58.7020 C   0  0  0  0  0  0  0  0  0  0  0  0
   41.5240   75.8080   59.4940 C   0  0  0  0  0  0  0  0  0  0  0  0
   40.5070   76.6990   59.7800 C   0  0  0  0  0  0  0  0  0  0  0  0
   39.4220   76.3600   60.5730 C   0  0  0  0  0  0  0  0  0  0  0  0
   39.3140   75.0940   61.1180 C   0  0  0  0  0  0  0  0  0  0  0  0
   40.3200   74.1860   60.8460 C   0  0  0  0  0  0  0  0  0  0  0  0
   41.3810   74.5660   60.0520 C   0  0  0  0  0  0  0  0  0  0  0  0
   44.1930   73.2140   58.8250 H   0  0  0  0  0  0  0  0  0  0  0  0
   44.4150   75.4020   57.8590 H   0  0  0  0  0  0  0  0  0  0  0  0
   42.6540   77.1240   58.2970 H   0  0  0  0  0  0  0  0  0  0  0  0
   40.5800   77.7040   59.3560 H   0  0  0  0  0  0  0  0  0  0  0  0
   38.6880   77.1410   60.7270 H   0  0  0  0  0  0  0  0  0  0  0  0
   38.4520   74.8680   61.7300 H   0  0  0  0  0  0  0  0  0  0  0  0
   40.2120   73.2120   61.2880 H   0  0  0  0  0  0  0  0  0  0  0  0
   42.7870   71.6860   61.5670 C   0  0  0  0  0  0  0  0  0  0  0  0
   42.3340   72.2140   60.3620 C   0  0  0  0  0  0  0  0  0  0  0  0
   41.7940   71.2890   59.4270 C   0  0  0  0  0  0  0  0  0  0  0  0
   41.7470   69.9710   59.7460 N   0  0  0  0  0  0  0  0  0  0  0  0
   42.2040   69.5090   60.9390 C   0  0  0  0  0  0  0  0  0  0  0  0
   42.7150   70.3920   61.8210 N   0  0  0  0  0  0  0  0  0  0  0  0
   43.1720   72.4600   62.2140 H   0  0  0  0  0  0  0  0  0  0  0  0
   41.4030   71.5350   58.4530 H   0  0  0  0  0  0  0  0  0  0  0  0
   42.1320   68.1200   61.2240 N   0  0  0  0  0  0  0  0  0  0  0  0
   42.6280   67.4360   60.6140 H   0  0  0  0  0  0  0  0  0  0  0  0
   41.2180   67.5840   62.5840 S   0  0  0  0  0  0  0  0  0  0  0  0
   42.0860   66.7240   63.4870 O   0  0  0  0  0  1  0  0  0  0  0  0
   40.0490   66.7680   62.1330 O   0  0  0  0  0  1  0  0  0  0  0  0
   40.7150   68.9310   63.4750 O   0  0  0  0  0  0  0  0  0  0  0  0
   39.8500   69.2500   63.0640 H   0  0  0  0  0  0  0  0  0  0  0  0
  1 10  1  0  0  0  0
  1 19  1  0  0  0  0
  2  1  2  0  0  0  0
  3  4  2  0  0  0  0
  3  2  1  0  0  0  0
  4  5  1  0  0  0  0
  5  6  2  0  0  0  0
  5 10  1  0  0  0  0
  6  7  1  0  0  0  0
  7 15  1  0  0  0  0
  7  8  2  0  0  0  0
  8 16  1  0  0  0  0
  9  8  1  0  0  0  0
  9 17  1  0  0  0  0
 10  9  2  0  0  0  0
 11  2  1  0  0  0  0
 12  3  1  0  0  0  0
 13  4  1  0  0  0  0
 14  6  1  0  0  0  0
 18 23  1  0  0  0  0
 18 24  1  0  0  0  0
 19 18  2  0  0  0  0
 20 21  2  0  0  0  0
 20 19  1  0  0  0  0
 21 22  1  0  0  0  0
 22 26  1  0  0  0  0
 22 23  2  0  0  0  0
 25 20  1  0  0  0  0
 26 28  1  0  0  0  0
 27 26  1  0  0  0  0
 28 31  1  0  0  0  0
 28 29  1  0  0  0  0
 30 28  1  0  0  0  0
 32 31  1  0  0  0  0
M  END
>  <minimizedAffinity>
-6.08332825

$$$$

 OpenBabel03212520343D

 32 34  0  0  0  0  0  0  0  0999 V2000
   40.8060   73.4240   60.7910 C   0  0  0  0  0  0  0  0  0  0  0  0
   39.4870   73.5110   61.2370 C   0  0  0  0  0  0  0  0  0  0  0  0
   38.6980   74.6290   61.0700 C   0  0  0  0  0  0  0  0  0  0  0  0
   39.2250   75.7360   60.4270 C   0  0  0  0  0  0  0  0  0  0  0  0
   40.5270   75.6610   59.9820 C   0  0  0  0  0  0  0  0  0  0  0  0
   41.1550   76.7060   59.3330 C   0  0  0  0  0  0  0  0  0  0  0  0
   42.4670   76.6270   58.8930 C   0  0  0  0  0  0  0  0  0  0  0  0
   43.2100   75.4780   59.0900 C   0  0  0  0  0  0  0  0  0  0  0  0
   42.6020   74.4190   59.7370 C   0  0  0  0  0  0  0  0  0  0  0  0
   41.2950   74.5420   60.1580 C   0  0  0  0  0  0  0  0  0  0  0  0
   38.9990   72.6870   61.7510 H   0  0  0  0  0  0  0  0  0  0  0  0
   37.6770   74.6670   61.4270 H   0  0  0  0  0  0  0  0  0  0  0  0
   38.6810   76.6380   60.2580 H   0  0  0  0  0  0  0  0  0  0  0  0
   40.5800   77.6210   59.1700 H   0  0  0  0  0  0  0  0  0  0  0  0
   42.8530   77.5090   58.3970 H   0  0  0  0  0  0  0  0  0  0  0  0
   44.2300   75.4550   58.7330 H   0  0  0  0  0  0  0  0  0  0  0  0
   43.2010   73.5360   59.8710 H   0  0  0  0  0  0  0  0  0  0  0  0
   42.1650   71.6960   62.1700 C   0  0  0  0  0  0  0  0  0  0  0  0
   41.4600   72.1550   61.0610 C   0  0  0  0  0  0  0  0  0  0  0  0
   41.3410   71.2540   59.9680 C   0  0  0  0  0  0  0  0  0  0  0  0
   41.9040   70.0230   60.0560 N   0  0  0  0  0  0  0  0  0  0  0  0
   42.5820   69.6260   61.1640 C   0  0  0  0  0  0  0  0  0  0  0  0
   42.6910   70.4850   62.1970 N   0  0  0  0  0  0  0  0  0  0  0  0
   42.1980   72.4410   62.9500 H   0  0  0  0  0  0  0  0  0  0  0  0
   40.8300   71.4550   59.0390 H   0  0  0  0  0  0  0  0  0  0  0  0
   43.1530   68.3260   61.2040 N   0  0  0  0  0  0  0  0  0  0  0  0
   43.8690   68.0480   60.5000 H   0  0  0  0  0  0  0  0  0  0  0  0
   42.6480   67.2210   62.4280 S   0  0  0  0  0  0  0  0  0  0  0  0
   43.7290   67.0900   63.4870 O   0  0  0  0  0  1  0  0  0  0  0  0
   42.3980   65.8710   61.8350 O   0  0  0  0  0  1  0  0  0  0  0  0
   41.2570   67.8260   63.1770 O   0  0  0  0  0  0  0  0  0  0  0  0
   40.4690   67.5210   62.6250 H   0  0  0  0  0  0  0  0  0  0  0  0
  1 19  1  0  0  0  0
  1  2  1  0  0  0  0
  2 11  1  0  0  0  0
  3  2  2  0  0  0  0
  3 12  1  0  0  0  0
  4  3  1  0  0  0  0
  5 10  1  0  0  0  0
  5  4  2  0  0  0  0
  6  5  1  0  0  0  0
  7  8  1  0  0  0  0
  7  6  2  0  0  0  0
  8  9  2  0  0  0  0
  9 17  1  0  0  0  0
  9 10  1  0  0  0  0
 10  1  2  0  0  0  0
 13  4  1  0  0  0  0
 14  6  1  0  0  0  0
 15  7  1  0  0  0  0
 16  8  1  0  0  0  0
 18 23  1  0  0  0  0
 18 24  1  0  0  0  0
 19 18  2  0  0  0  0
 20 21  2  0  0  0  0
 20 19  1  0  0  0  0
 21 22  1  0  0  0  0
 22 26  1  0  0  0  0
 22 23  2  0  0  0  0
 25 20  1  0  0  0  0
 26 28  1  0  0  0  0
 27 26  1  0  0  0  0
 28 31  1  0  0  0  0
 28 29  1  0  0  0  0
 30 28  1  0  0  0  0
 32 31  1  0  0  0  0
M  END
>  <minimizedAffinity>
-6.01782036

$$$$

 OpenBabel03212520343D

 32 34  0  0  0  0  0  0  0  0999 V2000
   40.6930   73.3650   60.7010 C   0  0  0  0  0  0  0  0  0  0  0  0
   39.3930   73.4780   61.1940 C   0  0  0  0  0  0  0  0  0  0  0  0
   38.6670   74.6500   61.1660 C   0  0  0  0  0  0  0  0  0  0  0  0
   39.2410   75.7860   60.6250 C   0  0  0  0  0  0  0  0  0  0  0  0
   40.5250   75.6870   60.1360 C   0  0  0  0  0  0  0  0  0  0  0  0
   41.1980   76.7570   59.5790 C   0  0  0  0  0  0  0  0  0  0  0  0
   42.4920   76.6520   59.0940 C   0  0  0  0  0  0  0  0  0  0  0  0
   43.1710   75.4490   59.1490 C   0  0  0  0  0  0  0  0  0  0  0  0
   42.5180   74.3630   59.7020 C   0  0  0  0  0  0  0  0  0  0  0  0
   41.2310   74.5140   60.1720 C   0  0  0  0  0  0  0  0  0  0  0  0
   38.8700   72.6340   61.6340 H   0  0  0  0  0  0  0  0  0  0  0  0
   37.6580   74.7060   61.5560 H   0  0  0  0  0  0  0  0  0  0  0  0
   38.7470   76.7300   60.5660 H   0  0  0  0  0  0  0  0  0  0  0  0
   40.6730   77.7150   59.5290 H   0  0  0  0  0  0  0  0  0  0  0  0
   42.9160   77.5580   58.6800 H   0  0  0  0  0  0  0  0  0  0  0  0
   44.1790   75.4070   58.7610 H   0  0  0  0  0  0  0  0  0  0  0  0
   43.0680   73.4400   59.7260 H   0  0  0  0  0  0  0  0  0  0  0  0
   41.5080   71.0440   59.8750 C   0  0  0  0  0  0  0  0  0  0  0  0
   41.2790   72.0400   60.8190 C   0  0  0  0  0  0  0  0  0  0  0  0
   41.6660   71.7480   62.1550 C   0  0  0  0  0  0  0  0  0  0  0  0
   42.2260   70.5460   62.4390 N   0  0  0  0  0  0  0  0  0  0  0  0
   42.4280   69.6090   61.4770 C   0  0  0  0  0  0  0  0  0  0  0  0
   42.0590   69.8920   60.2110 N   0  0  0  0  0  0  0  0  0  0  0  0
   41.1910   71.3560   58.8910 H   0  0  0  0  0  0  0  0  0  0  0  0
   41.5560   72.4100   63.0010 H   0  0  0  0  0  0  0  0  0  0  0  0
   43.0180   68.3660   61.8260 N   0  0  0  0  0  0  0  0  0  0  0  0
   42.5550   67.7460   62.5250 H   0  0  0  0  0  0  0  0  0  0  0  0
   44.5020   67.8980   61.0830 S   0  0  0  0  0  0  0  0  0  0  0  0
   44.2360   66.8760   59.9910 O   0  0  0  0  0  1  0  0  0  0  0  0
   45.4160   67.2840   62.0950 O   0  0  0  0  0  1  0  0  0  0  0  0
   45.2100   69.2550   60.3650 O   0  0  0  0  0  0  0  0  0  0  0  0
   45.7530   69.7170   61.0790 H   0  0  0  0  0  0  0  0  0  0  0  0
  1 19  1  0  0  0  0
  1  2  1  0  0  0  0
  2 11  1  0  0  0  0
  3  2  2  0  0  0  0
  3 12  1  0  0  0  0
  4  3  1  0  0  0  0
  5 10  1  0  0  0  0
  5  4  2  0  0  0  0
  6  5  1  0  0  0  0
  7  8  1  0  0  0  0
  7  6  2  0  0  0  0
  8  9  2  0  0  0  0
  9 17  1  0  0  0  0
  9 10  1  0  0  0  0
 10  1  2  0  0  0  0
 13  4  1  0  0  0  0
 14  6  1  0  0  0  0
 15  7  1  0  0  0  0
 16  8  1  0  0  0  0
 18 23  2  0  0  0  0
 18 19  1  0  0  0  0
 19 20  2  0  0  0  0
 20 21  1  0  0  0  0
 20 25  1  0  0  0  0
 22 26  1  0  0  0  0
 22 21  2  0  0  0  0
 23 22  1  0  0  0  0
 24 18  1  0  0  0  0
 26 27  1  0  0  0  0
 28 26  1  0  0  0  0
 28 30  1  0  0  0  0
 29 28  1  0  0  0  0
 31 32  1  0  0  0  0
 31 28  1  0  0  0  0
M  END
>  <minimizedAffinity>
-5.98113155

$$$$

 OpenBabel03212520343D

 32 34  0  0  0  0  0  0  0  0999 V2000
   40.2890   73.7650   59.1650 C   0  0  0  0  0  0  0  0  0  0  0  0
   39.2140   73.3660   59.9590 C   0  0  0  0  0  0  0  0  0  0  0  0
   38.6270   74.1740   60.9100 C   0  0  0  0  0  0  0  0  0  0  0  0
   39.1160   75.4540   61.1020 C   0  0  0  0  0  0  0  0  0  0  0  0
   40.1780   75.8590   60.3230 C   0  0  0  0  0  0  0  0  0  0  0  0
   40.7500   77.1130   60.4330 C   0  0  0  0  0  0  0  0  0  0  0  0
   41.8210   77.5120   59.6500 C   0  0  0  0  0  0  0  0  0  0  0  0
   42.3700   76.6570   58.7130 C   0  0  0  0  0  0  0  0  0  0  0  0
   41.8140   75.3980   58.5840 C   0  0  0  0  0  0  0  0  0  0  0  0
   40.7490   75.0420   59.3840 C   0  0  0  0  0  0  0  0  0  0  0  0
   38.7710   72.3780   59.8710 H   0  0  0  0  0  0  0  0  0  0  0  0
   37.7930   73.8350   61.5110 H   0  0  0  0  0  0  0  0  0  0  0  0
   38.7180   76.1400   61.8160 H   0  0  0  0  0  0  0  0  0  0  0  0
   40.3260   77.8000   61.1700 H   0  0  0  0  0  0  0  0  0  0  0  0
   42.1850   78.5170   59.8250 H   0  0  0  0  0  0  0  0  0  0  0  0
   43.2050   77.0060   58.1220 H   0  0  0  0  0  0  0  0  0  0  0  0
   42.2560   74.7560   57.8440 H   0  0  0  0  0  0  0  0  0  0  0  0
   41.6500   71.7090   58.3590 C   0  0  0  0  0  0  0  0  0  0  0  0
   40.7560   72.7660   58.2190 C   0  0  0  0  0  0  0  0  0  0  0  0
   40.1760   72.9400   56.9330 C   0  0  0  0  0  0  0  0  0  0  0  0
   40.5120   72.0910   55.9310 N   0  0  0  0  0  0  0  0  0  0  0  0
   41.3910   71.0740   56.1220 C   0  0  0  0  0  0  0  0  0  0  0  0
   41.9380   70.9140   57.3440 N   0  0  0  0  0  0  0  0  0  0  0  0
   42.0330   71.6490   59.3660 H   0  0  0  0  0  0  0  0  0  0  0  0
   39.4680   73.7080   56.6620 H   0  0  0  0  0  0  0  0  0  0  0  0
   41.7090   70.2130   55.0390 N   0  0  0  0  0  0  0  0  0  0  0  0
   42.1370   70.6020   54.1710 H   0  0  0  0  0  0  0  0  0  0  0  0
   41.3800   68.5260   55.1770 S   0  0  0  0  0  0  0  0  0  0  0  0
   42.6360   67.7260   54.8760 O   0  0  0  0  0  1  0  0  0  0  0  0
   40.3170   68.1250   54.2040 O   0  0  0  0  0  1  0  0  0  0  0  0
   40.9140   68.1850   56.7660 O   0  0  0  0  0  0  0  0  0  0  0  0
   39.9190   68.3480   56.8230 H   0  0  0  0  0  0  0  0  0  0  0  0
  1 10  2  0  0  0  0
  1  2  1  0  0  0  0
  2  3  2  0  0  0  0
  3  4  1  0  0  0  0
  3 12  1  0  0  0  0
  4 13  1  0  0  0  0
  5  6  1  0  0  0  0
  5  4  2  0  0  0  0
  6 14  1  0  0  0  0
  7 15  1  0  0  0  0
  7  6  2  0  0  0  0
  8  7  1  0  0  0  0
  9  8  2  0  0  0  0
  9 10  1  0  0  0  0
 10  5  1  0  0  0  0
 11  2  1  0  0  0  0
 16  8  1  0  0  0  0
 17  9  1  0  0  0  0
 18 24  1  0  0  0  0
 19 18  1  0  0  0  0
 19  1  1  0  0  0  0
 20 19  2  0  0  0  0
 21 22  2  0  0  0  0
 21 20  1  0  0  0  0
 22 23  1  0  0  0  0
 23 18  2  0  0  0  0
 25 20  1  0  0  0  0
 26 28  1  0  0  0  0
 26 22  1  0  0  0  0
 27 26  1  0  0  0  0
 28 31  1  0  0  0  0
 29 28  1  0  0  0  0
 30 28  1  0  0  0  0
 31 32  1  0  0  0  0
M  END
>  <minimizedAffinity>
-5.57857752

$$$$

 OpenBabel03212520343D

 32 34  0  0  0  0  0  0  0  0999 V2000
   42.1990   70.3140   61.4460 C   0  0  0  0  0  0  0  0  0  0  0  0
   42.8040   70.2590   62.7020 C   0  0  0  0  0  0  0  0  0  0  0  0
   43.2520   69.0900   63.2810 C   0  0  0  0  0  0  0  0  0  0  0  0
   43.1020   67.8980   62.5960 C   0  0  0  0  0  0  0  0  0  0  0  0
   42.5060   67.9400   61.3550 C   0  0  0  0  0  0  0  0  0  0  0  0
   42.3010   66.8110   60.5850 C   0  0  0  0  0  0  0  0  0  0  0  0
   41.6950   66.8600   59.3400 C   0  0  0  0  0  0  0  0  0  0  0  0
   41.2650   68.0620   58.8100 C   0  0  0  0  0  0  0  0  0  0  0  0
   41.4600   69.2050   59.5620 C   0  0  0  0  0  0  0  0  0  0  0  0
   42.0670   69.1100   60.7960 C   0  0  0  0  0  0  0  0  0  0  0  0
   42.9590   71.1490   63.3040 H   0  0  0  0  0  0  0  0  0  0  0  0
   43.7180   69.0790   64.2580 H   0  0  0  0  0  0  0  0  0  0  0  0
   43.4220   66.9520   62.9750 H   0  0  0  0  0  0  0  0  0  0  0  0
   42.6360   65.8530   60.9920 H   0  0  0  0  0  0  0  0  0  0  0  0
   41.5880   65.9110   58.8300 H   0  0  0  0  0  0  0  0  0  0  0  0
   40.7970   68.0580   57.8360 H   0  0  0  0  0  0  0  0  0  0  0  0
   41.1210   70.1260   59.1220 H   0  0  0  0  0  0  0  0  0  0  0  0
   42.2420   72.4410   59.9600 C   0  0  0  0  0  0  0  0  0  0  0  0
   41.8050   71.6450   61.0150 C   0  0  0  0  0  0  0  0  0  0  0  0
   40.7970   72.1970   61.8510 C   0  0  0  0  0  0  0  0  0  0  0  0
   40.3210   73.4390   61.5890 N   0  0  0  0  0  0  0  0  0  0  0  0
   40.7830   74.1740   60.5440 C   0  0  0  0  0  0  0  0  0  0  0  0
   41.7390   73.6450   59.7550 N   0  0  0  0  0  0  0  0  0  0  0  0
   43.0000   71.9390   59.3780 H   0  0  0  0  0  0  0  0  0  0  0  0
   40.3540   71.7110   62.7070 H   0  0  0  0  0  0  0  0  0  0  0  0
   40.2520   75.4700   60.3130 N   0  0  0  0  0  0  0  0  0  0  0  0
   40.3350   76.2070   61.0450 H   0  0  0  0  0  0  0  0  0  0  0  0
   39.4700   75.8060   58.8130 S   0  0  0  0  0  0  0  0  0  0  0  0
   39.1850   77.2940   58.6980 O   0  0  0  0  0  1  0  0  0  0  0  0
   38.1730   75.0670   58.7270 O   0  0  0  0  0  1  0  0  0  0  0  0
   40.5030   75.3750   57.5450 O   0  0  0  0  0  0  0  0  0  0  0  0
   40.3530   74.3930   57.3640 H   0  0  0  0  0  0  0  0  0  0  0  0
  1  2  1  0  0  0  0
  2  3  2  0  0  0  0
  2 11  1  0  0  0  0
  3 12  1  0  0  0  0
  4 13  1  0  0  0  0
  4  3  1  0  0  0  0
  5  4  2  0  0  0  0
  6 14  1  0  0  0  0
  6  5  1  0  0  0  0
  7  6  2  0  0  0  0
  8  7  1  0  0  0  0
  8  9  2  0  0  0  0
  9 10  1  0  0  0  0
 10  5  1  0  0  0  0
 10  1  2  0  0  0  0
 15  7  1  0  0  0  0
 16  8  1  0  0  0  0
 17  9  1  0  0  0  0
 18 19  1  0  0  0  0
 19  1  1  0  0  0  0
 19 20  2  0  0  0  0
 20 25  1  0  0  0  0
 21 20  1  0  0  0  0
 22 21  2  0  0  0  0
 23 18  2  0  0  0  0
 23 22  1  0  0  0  0
 24 18  1  0  0  0  0
 26 22  1  0  0  0  0
 26 27  1  0  0  0  0
 28 26  1  0  0  0  0
 29 28  1  0  0  0  0
 30 28  1  0  0  0  0
 31 28  1  0  0  0  0
 32 31  1  0  0  0  0
M  END
>  <minimizedAffinity>
-5.56281614

$$$$

 OpenBabel03212520343D

 32 34  0  0  0  0  0  0  0  0999 V2000
   41.0390   73.6300   60.2470 C   0  0  0  0  0  0  0  0  0  0  0  0
   39.8680   73.1730   60.8520 C   0  0  0  0  0  0  0  0  0  0  0  0
   38.8340   74.0020   61.2340 C   0  0  0  0  0  0  0  0  0  0  0  0
   38.9450   75.3640   61.0130 C   0  0  0  0  0  0  0  0  0  0  0  0
   40.0980   75.8260   60.4170 C   0  0  0  0  0  0  0  0  0  0  0  0
   40.3180   77.1650   60.1540 C   0  0  0  0  0  0  0  0  0  0  0  0
   41.4820   77.6240   59.5580 C   0  0  0  0  0  0  0  0  0  0  0  0
   42.4860   76.7440   59.1980 C   0  0  0  0  0  0  0  0  0  0  0  0
   42.2880   75.4000   59.4500 C   0  0  0  0  0  0  0  0  0  0  0  0
   41.1140   74.9870   60.0450 C   0  0  0  0  0  0  0  0  0  0  0  0
   39.7010   72.1200   61.0600 H   0  0  0  0  0  0  0  0  0  0  0  0
   37.9370   73.6180   61.7020 H   0  0  0  0  0  0  0  0  0  0  0  0
   38.1910   76.0710   61.2790 H   0  0  0  0  0  0  0  0  0  0  0  0
   39.5330   77.8720   60.4330 H   0  0  0  0  0  0  0  0  0  0  0  0
   41.5420   78.6930   59.4020 H   0  0  0  0  0  0  0  0  0  0  0  0
   43.3790   77.1410   58.7350 H   0  0  0  0  0  0  0  0  0  0  0  0
   43.0820   74.7380   59.1540 H   0  0  0  0  0  0  0  0  0  0  0  0
   43.1680   72.1780   60.5520 C   0  0  0  0  0  0  0  0  0  0  0  0
   42.0010   72.5920   59.9170 C   0  0  0  0  0  0  0  0  0  0  0  0
   41.6540   71.9080   58.7200 C   0  0  0  0  0  0  0  0  0  0  0  0
   42.4540   70.9110   58.2670 N   0  0  0  0  0  0  0  0  0  0  0  0
   43.5830   70.5470   58.9280 C   0  0  0  0  0  0  0  0  0  0  0  0
   43.9070   71.1990   60.0620 N   0  0  0  0  0  0  0  0  0  0  0  0
   43.3470   72.7470   61.4520 H   0  0  0  0  0  0  0  0  0  0  0  0
   40.7860   72.1070   58.1110 H   0  0  0  0  0  0  0  0  0  0  0  0
   44.3870   69.4970   58.4110 N   0  0  0  0  0  0  0  0  0  0  0  0
   44.8060   69.5790   57.4600 H   0  0  0  0  0  0  0  0  0  0  0  0
   44.6570   68.0900   59.3720 S   0  0  0  0  0  0  0  0  0  0  0  0
   43.4220   67.7830   60.2010 O   0  0  0  0  0  1  0  0  0  0  0  0
   45.8090   68.3110   60.3000 O   0  0  0  0  0  1  0  0  0  0  0  0
   44.9400   66.7720   58.3510 O   0  0  0  0  0  0  0  0  0  0  0  0
   45.9260   66.7720   58.1360 H   0  0  0  0  0  0  0  0  0  0  0  0
  1  2  1  0  0  0  0
  2 11  1  0  0  0  0
  2  3  2  0  0  0  0
  3 12  1  0  0  0  0
  4  3  1  0  0  0  0
  4 13  1  0  0  0  0
  5  4  2  0  0  0  0
  6  5  1  0  0  0  0
  6 14  1  0  0  0  0
  7  6  2  0  0  0  0
  8  9  2  0  0  0  0
  8  7  1  0  0  0  0
  9 10  1  0  0  0  0
 10  1  2  0  0  0  0
 10  5  1  0  0  0  0
 15  7  1  0  0  0  0
 16  8  1  0  0  0  0
 17  9  1  0  0  0  0
 18 24  1  0  0  0  0
 19  1  1  0  0  0  0
 19 18  2  0  0  0  0
 20 19  1  0  0  0  0
 21 20  2  0  0  0  0
 21 22  1  0  0  0  0
 22 23  2  0  0  0  0
 23 18  1  0  0  0  0
 25 20  1  0  0  0  0
 26 22  1  0  0  0  0
 26 28  1  0  0  0  0
 27 26  1  0  0  0  0
 28 29  1  0  0  0  0
 28 30  1  0  0  0  0
 31 28  1  0  0  0  0
 32 31  1  0  0  0  0
M  END
>  <minimizedAffinity>
-5.50109577

$$$$

 OpenBabel03212520343D

 32 34  0  0  0  0  0  0  0  0999 V2000
   42.1820   73.8960   59.7200 C   0  0  0  0  0  0  0  0  0  0  0  0
   43.0800   74.7590   59.0940 C   0  0  0  0  0  0  0  0  0  0  0  0
   42.8410   76.1050   58.9080 C   0  0  0  0  0  0  0  0  0  0  0  0
   41.6500   76.6460   59.3590 C   0  0  0  0  0  0  0  0  0  0  0  0
   40.7540   75.8020   59.9780 C   0  0  0  0  0  0  0  0  0  0  0  0
   39.5340   76.2330   60.4620 C   0  0  0  0  0  0  0  0  0  0  0  0
   38.6350   75.3780   61.0800 C   0  0  0  0  0  0  0  0  0  0  0  0
   38.9300   74.0370   61.2380 C   0  0  0  0  0  0  0  0  0  0  0  0
   40.1460   73.5830   60.7620 C   0  0  0  0  0  0  0  0  0  0  0  0
   41.0100   74.4690   60.1540 C   0  0  0  0  0  0  0  0  0  0  0  0
   44.0370   74.4140   58.7120 H   0  0  0  0  0  0  0  0  0  0  0  0
   43.5590   76.7500   58.4180 H   0  0  0  0  0  0  0  0  0  0  0  0
   41.3900   77.6760   59.2530 H   0  0  0  0  0  0  0  0  0  0  0  0
   39.2880   77.2920   60.3440 H   0  0  0  0  0  0  0  0  0  0  0  0
   37.7110   75.8300   61.4180 H   0  0  0  0  0  0  0  0  0  0  0  0
   38.2020   73.4030   61.7240 H   0  0  0  0  0  0  0  0  0  0  0  0
   40.3510   72.5370   60.9040 H   0  0  0  0  0  0  0  0  0  0  0  0
   43.2220   71.8130   60.8650 C   0  0  0  0  0  0  0  0  0  0  0  0
   42.6280   72.5170   59.8220 C   0  0  0  0  0  0  0  0  0  0  0  0
   42.4050   71.7960   58.6170 C   0  0  0  0  0  0  0  0  0  0  0  0
   42.7710   70.4930   58.5440 N   0  0  0  0  0  0  0  0  0  0  0  0
   43.3490   69.8540   59.5940 C   0  0  0  0  0  0  0  0  0  0  0  0
   43.5580   70.5420   60.7340 N   0  0  0  0  0  0  0  0  0  0  0  0
   43.3460   72.4360   61.7380 H   0  0  0  0  0  0  0  0  0  0  0  0
   41.9560   72.1940   57.7200 H   0  0  0  0  0  0  0  0  0  0  0  0
   43.7150   68.4880   59.4650 N   0  0  0  0  0  0  0  0  0  0  0  0
   44.4000   68.1970   58.7350 H   0  0  0  0  0  0  0  0  0  0  0  0
   43.0130   67.3230   60.5250 S   0  0  0  0  0  0  0  0  0  0  0  0
   41.5710   67.6950   60.8240 O   0  0  0  0  0  1  0  0  0  0  0  0
   43.7680   67.2760   61.8150 O   0  0  0  0  0  1  0  0  0  0  0  0
   43.0130   65.8140   59.7620 O   0  0  0  0  0  0  0  0  0  0  0  0
   43.9110   65.3900   59.9470 H   0  0  0  0  0  0  0  0  0  0  0  0
  1 19  1  0  0  0  0
  1 10  1  0  0  0  0
  2  1  2  0  0  0  0
  3  2  1  0  0  0  0
  3  4  2  0  0  0  0
  4  5  1  0  0  0  0
  5 10  2  0  0  0  0
  5  6  1  0  0  0  0
  6  7  2  0  0  0  0
  7  8  1  0  0  0  0
  7 15  1  0  0  0  0
  8 16  1  0  0  0  0
  9 17  1  0  0  0  0
  9  8  2  0  0  0  0
 10  9  1  0  0  0  0
 11  2  1  0  0  0  0
 12  3  1  0  0  0  0
 13  4  1  0  0  0  0
 14  6  1  0  0  0  0
 18 24  1  0  0  0  0
 19 18  2  0  0  0  0
 20 19  1  0  0  0  0
 21 20  2  0  0  0  0
 21 22  1  0  0  0  0
 22 23  2  0  0  0  0
 23 18  1  0  0  0  0
 25 20  1  0  0  0  0
 26 22  1  0  0  0  0
 26 28  1  0  0  0  0
 27 26  1  0  0  0  0
 28 29  1  0  0  0  0
 28 30  1  0  0  0  0
 31 32  1  0  0  0  0
 31 28  1  0  0  0  0
M  END
>  <minimizedAffinity>
-5.41918564

$$$$
