
 OpenBabel03212521053D

 34 36  0  0  0  0  0  0  0  0999 V2000
   41.8050   84.2380   61.5690 C   0  0  0  0  0  0  0  0  0  0  0  0
   41.4480   83.9750   62.8910 C   0  0  0  0  0  0  0  0  0  0  0  0
   40.1790   83.5650   63.2320 C   0  0  0  0  0  0  0  0  0  0  0  0
   39.2240   83.4070   62.2330 C   0  0  0  0  0  0  0  0  0  0  0  0
   39.5720   83.6680   60.9030 C   0  0  0  0  0  0  0  0  0  0  0  0
   40.8450   84.0770   60.5730 C   0  0  0  0  0  0  0  0  0  0  0  0
   42.1550   84.0830   63.7120 H   0  0  0  0  0  0  0  0  0  0  0  0
   39.8870   83.3580   64.2560 H   0  0  0  0  0  0  0  0  0  0  0  0
   38.2170   83.0950   62.3890 H   0  0  0  0  0  0  0  0  0  0  0  0
   38.8470   83.5530   60.0950 H   0  0  0  0  0  0  0  0  0  0  0  0
   41.1680   84.3370   59.1930 C   0  0  0  0  0  0  0  0  0  0  0  0
   40.8490   85.6570   58.8310 C   0  0  0  0  0  0  0  0  0  0  0  0
   41.0820   86.1150   57.5400 C   0  0  0  0  0  0  0  0  0  0  0  0
   41.6190   85.2490   56.6640 N   0  0  0  0  0  0  0  0  0  0  0  0
   41.9240   83.9740   57.0230 C   0  0  0  0  0  0  0  0  0  0  0  0
   41.7010   83.5300   58.2690 N   0  0  0  0  0  0  0  0  0  0  0  0
   40.4090   86.4170   59.4900 H   0  0  0  0  0  0  0  0  0  0  0  0
   40.8430   87.1350   57.2370 H   0  0  0  0  0  0  0  0  0  0  0  0
   42.4810   83.1420   56.0460 N   0  0  0  0  0  0  0  0  0  0  0  0
   42.2870   83.2220   55.0230 H   0  0  0  0  0  0  0  0  0  0  0  0
   43.5740   81.8760   56.5120 S   0  0  0  0  0  0  0  0  0  0  0  0
   44.5660   82.4140   57.5320 O   0  0  0  0  0  1  0  0  0  0  0  0
   42.8240   80.7730   57.2020 O   0  0  0  0  0  1  0  0  0  0  0  0
   44.4740   81.3130   55.2180 O   0  0  0  0  0  0  0  0  0  0  0  0
   43.9210   80.8960   54.5270 H   0  0  0  0  0  0  0  0  0  0  0  0
   45.3190   84.1380   60.5890 C   0  0  0  0  0  0  0  0  0  0  0  0
   45.7160   85.4770   60.6960 C   0  0  0  0  0  0  0  0  0  0  0  0
   44.7490   86.4320   61.1140 C   0  0  0  0  0  0  0  0  0  0  0  0
   43.5050   85.9810   61.3840 N   0  0  0  0  0  0  0  0  0  0  0  0
   43.1530   84.6660   61.2680 C   0  0  0  0  0  0  0  0  0  0  0  0
   44.0630   83.7780   60.8760 N   0  0  0  0  0  0  0  0  0  0  0  0
   46.0780   83.4170   60.2650 H   0  0  0  0  0  0  0  0  0  0  0  0
   46.7200   85.7470   60.4630 H   0  0  0  0  0  0  0  0  0  0  0  0
   45.0570   87.4460   61.1930 H   0  0  0  0  0  0  0  0  0  0  0  0
  1  2  1  0  0  0  0
  2  3  2  0  0  0  0
  2  7  1  0  0  0  0
  3  8  1  0  0  0  0
  4  9  1  0  0  0  0
  4  3  1  0  0  0  0
  5  4  2  0  0  0  0
  6  5  1  0  0  0  0
  6  1  2  0  0  0  0
 10  5  1  0  0  0  0
 11  6  1  0  0  0  0
 12 11  1  0  0  0  0
 12 17  1  0  0  0  0
 13 12  2  0  0  0  0
 14 15  2  0  0  0  0
 14 13  1  0  0  0  0
 15 16  1  0  0  0  0
 16 11  2  0  0  0  0
 18 13  1  0  0  0  0
 19 21  1  0  0  0  0
 19 15  1  0  0  0  0
 20 19  1  0  0  0  0
 21 23  1  0  0  0  0
 21 22  1  0  0  0  0
 24 21  1  0  0  0  0
 25 24  1  0  0  0  0
 26 27  2  0  0  0  0
 26 31  1  0  0  0  0
 27 28  1  0  0  0  0
 28 34  1  0  0  0  0
 28 29  2  0  0  0  0
 30 29  1  0  0  0  0
 30  1  1  0  0  0  0
 31 30  2  0  0  0  0
 32 26  1  0  0  0  0
 33 27  1  0  0  0  0
M  END
>  <minimizedAffinity>
-5.23031425

>  <minimizedRMSD>
0.550310373

$$$$
