
 OpenBabel03212521053D

 34 36  0  0  0  0  0  0  0  0999 V2000
   41.8080   84.2430   61.5570 C   0  0  0  0  0  0  0  0  0  0  0  0
   41.4470   83.9600   62.8730 C   0  0  0  0  0  0  0  0  0  0  0  0
   40.1750   83.5490   63.2040 C   0  0  0  0  0  0  0  0  0  0  0  0
   39.2220   83.4130   62.2000 C   0  0  0  0  0  0  0  0  0  0  0  0
   39.5740   83.6950   60.8750 C   0  0  0  0  0  0  0  0  0  0  0  0
   40.8500   84.1040   60.5560 C   0  0  0  0  0  0  0  0  0  0  0  0
   42.1520   84.0500   63.6970 H   0  0  0  0  0  0  0  0  0  0  0  0
   39.8800   83.3250   64.2230 H   0  0  0  0  0  0  0  0  0  0  0  0
   38.2130   83.1030   62.3470 H   0  0  0  0  0  0  0  0  0  0  0  0
   38.8510   83.5980   60.0640 H   0  0  0  0  0  0  0  0  0  0  0  0
   41.1780   84.3870   59.1810 C   0  0  0  0  0  0  0  0  0  0  0  0
   40.7520   85.6720   58.8060 C   0  0  0  0  0  0  0  0  0  0  0  0
   40.9710   86.1450   57.5170 C   0  0  0  0  0  0  0  0  0  0  0  0
   41.6000   85.3270   56.6580 N   0  0  0  0  0  0  0  0  0  0  0  0
   42.0080   84.0850   57.0300 C   0  0  0  0  0  0  0  0  0  0  0  0
   41.7990   83.6270   58.2720 N   0  0  0  0  0  0  0  0  0  0  0  0
   40.2330   86.3930   59.4510 H   0  0  0  0  0  0  0  0  0  0  0  0
   40.6490   87.1390   57.2040 H   0  0  0  0  0  0  0  0  0  0  0  0
   42.6570   83.3020   56.0680 N   0  0  0  0  0  0  0  0  0  0  0  0
   42.6530   83.5020   55.0440 H   0  0  0  0  0  0  0  0  0  0  0  0
   43.5410   81.8900   56.5590 S   0  0  0  0  0  0  0  0  0  0  0  0
   44.5040   82.2610   57.6760 O   0  0  0  0  0  1  0  0  0  0  0  0
   42.6050   80.8690   57.1370 O   0  0  0  0  0  1  0  0  0  0  0  0
   44.4690   81.2640   55.3140 O   0  0  0  0  0  0  0  0  0  0  0  0
   43.9270   80.9470   54.5640 H   0  0  0  0  0  0  0  0  0  0  0  0
   45.3370   84.1380   60.6340 C   0  0  0  0  0  0  0  0  0  0  0  0
   45.7270   85.4800   60.7150 C   0  0  0  0  0  0  0  0  0  0  0  0
   44.7500   86.4400   61.0960 C   0  0  0  0  0  0  0  0  0  0  0  0
   43.5040   85.9900   61.3570 N   0  0  0  0  0  0  0  0  0  0  0  0
   43.1590   84.6700   61.2670 C   0  0  0  0  0  0  0  0  0  0  0  0
   44.0790   83.7780   60.9090 N   0  0  0  0  0  0  0  0  0  0  0  0
   46.1050   83.4130   60.3380 H   0  0  0  0  0  0  0  0  0  0  0  0
   46.7340   85.7490   60.4920 H   0  0  0  0  0  0  0  0  0  0  0  0
   45.0520   87.4570   61.1570 H   0  0  0  0  0  0  0  0  0  0  0  0
  1  2  1  0  0  0  0
  2  3  2  0  0  0  0
  2  7  1  0  0  0  0
  3  8  1  0  0  0  0
  4  9  1  0  0  0  0
  4  3  1  0  0  0  0
  5  4  2  0  0  0  0
  6  5  1  0  0  0  0
  6  1  2  0  0  0  0
 10  5  1  0  0  0  0
 11  6  1  0  0  0  0
 12 11  1  0  0  0  0
 12 17  1  0  0  0  0
 13 12  2  0  0  0  0
 14 15  2  0  0  0  0
 14 13  1  0  0  0  0
 15 16  1  0  0  0  0
 16 11  2  0  0  0  0
 18 13  1  0  0  0  0
 19 21  1  0  0  0  0
 19 15  1  0  0  0  0
 20 19  1  0  0  0  0
 21 23  1  0  0  0  0
 21 22  1  0  0  0  0
 24 21  1  0  0  0  0
 25 24  1  0  0  0  0
 26 27  2  0  0  0  0
 26 31  1  0  0  0  0
 27 28  1  0  0  0  0
 28 34  1  0  0  0  0
 28 29  2  0  0  0  0
 30 29  1  0  0  0  0
 30  1  1  0  0  0  0
 31 30  2  0  0  0  0
 32 26  1  0  0  0  0
 33 27  1  0  0  0  0
M  END
>  <minimizedAffinity>
-5.21247768

>  <minimizedRMSD>
0.509402156

$$$$
