
 OpenBabel03212521053D

 34 36  0  0  0  0  0  0  0  0999 V2000
   41.8220   84.2000   61.4540 C   0  0  0  0  0  0  0  0  0  0  0  0
   41.5210   83.8490   62.7690 C   0  0  0  0  0  0  0  0  0  0  0  0
   40.2550   83.4610   63.1440 C   0  0  0  0  0  0  0  0  0  0  0  0
   39.2450   83.4180   62.1880 C   0  0  0  0  0  0  0  0  0  0  0  0
   39.5360   83.7690   60.8650 C   0  0  0  0  0  0  0  0  0  0  0  0
   40.8070   84.1540   60.5010 C   0  0  0  0  0  0  0  0  0  0  0  0
   42.2720   83.8650   63.5570 H   0  0  0  0  0  0  0  0  0  0  0  0
   40.0060   83.1850   64.1630 H   0  0  0  0  0  0  0  0  0  0  0  0
   38.2350   83.1330   62.3730 H   0  0  0  0  0  0  0  0  0  0  0  0
   38.7680   83.7450   60.0910 H   0  0  0  0  0  0  0  0  0  0  0  0
   41.0710   84.5100   59.1290 C   0  0  0  0  0  0  0  0  0  0  0  0
   40.6060   85.8030   58.8360 C   0  0  0  0  0  0  0  0  0  0  0  0
   40.7620   86.3420   57.5640 C   0  0  0  0  0  0  0  0  0  0  0  0
   41.3690   85.5790   56.6400 N   0  0  0  0  0  0  0  0  0  0  0  0
   41.8160   84.3290   56.9330 C   0  0  0  0  0  0  0  0  0  0  0  0
   41.6670   83.8070   58.1600 N   0  0  0  0  0  0  0  0  0  0  0  0
   40.1020   86.4810   59.5360 H   0  0  0  0  0  0  0  0  0  0  0  0
   40.4090   87.3420   57.3130 H   0  0  0  0  0  0  0  0  0  0  0  0
   42.4370   83.6070   55.9090 N   0  0  0  0  0  0  0  0  0  0  0  0
   42.0990   82.6890   55.5450 H   0  0  0  0  0  0  0  0  0  0  0  0
   43.8700   84.2360   55.1570 S   0  0  0  0  0  0  0  0  0  0  0  0
   44.5660   85.1910   56.1150 O   0  0  0  0  0  1  0  0  0  0  0  0
   44.8460   83.1240   54.8930 O   0  0  0  0  0  1  0  0  0  0  0  0
   43.5250   85.1120   53.7720 O   0  0  0  0  0  0  0  0  0  0  0  0
   43.1180   84.5620   53.0710 H   0  0  0  0  0  0  0  0  0  0  0  0
   45.3100   84.0230   60.3960 C   0  0  0  0  0  0  0  0  0  0  0  0
   45.7330   85.3560   60.4710 C   0  0  0  0  0  0  0  0  0  0  0  0
   44.7920   86.3340   60.8950 C   0  0  0  0  0  0  0  0  0  0  0  0
   43.5470   85.9100   61.2010 N   0  0  0  0  0  0  0  0  0  0  0  0
   43.1690   84.6000   61.1150 C   0  0  0  0  0  0  0  0  0  0  0  0
   44.0550   83.6900   60.7170 N   0  0  0  0  0  0  0  0  0  0  0  0
   46.0490   83.2840   60.0670 H   0  0  0  0  0  0  0  0  0  0  0  0
   46.7360   85.6050   60.2120 H   0  0  0  0  0  0  0  0  0  0  0  0
   45.1190   87.3440   60.9510 H   0  0  0  0  0  0  0  0  0  0  0  0
  1  2  1  0  0  0  0
  2  3  2  0  0  0  0
  2  7  1  0  0  0  0
  3  8  1  0  0  0  0
  4  9  1  0  0  0  0
  4  3  1  0  0  0  0
  5  4  2  0  0  0  0
  6  5  1  0  0  0  0
  6  1  2  0  0  0  0
 10  5  1  0  0  0  0
 11  6  1  0  0  0  0
 12 11  1  0  0  0  0
 12 17  1  0  0  0  0
 13 12  2  0  0  0  0
 14 15  2  0  0  0  0
 14 13  1  0  0  0  0
 15 16  1  0  0  0  0
 16 11  2  0  0  0  0
 18 13  1  0  0  0  0
 19 15  1  0  0  0  0
 20 19  1  0  0  0  0
 21 19  1  0  0  0  0
 21 22  1  0  0  0  0
 23 21  1  0  0  0  0
 24 21  1  0  0  0  0
 25 24  1  0  0  0  0
 26 27  2  0  0  0  0
 26 31  1  0  0  0  0
 27 28  1  0  0  0  0
 28 34  1  0  0  0  0
 28 29  2  0  0  0  0
 30 29  1  0  0  0  0
 30  1  1  0  0  0  0
 31 30  2  0  0  0  0
 32 26  1  0  0  0  0
 33 27  1  0  0  0  0
M  END
>  <minimizedAffinity>
-5.70814037

>  <minimizedRMSD>
0.50491333

$$$$
